
  -OEChem-03222214033D

 28 27  0     1  0  0  0  0  0999 V2000
   -3.1852   -3.7697    1.2675 H   0  0  0  0  0  0  0  0  0  0  0  0
   -3.1622   -2.7878    0.7867 C   0  0  0  0  0  0  0  0  0  0  0  0
   -3.8323   -2.1152    1.3277 H   0  0  0  0  0  0  0  0  0  0  0  0
   -3.5135   -2.8916   -0.2429 H   0  0  0  0  0  0  0  0  0  0  0  0
   -1.7505   -2.2329    0.7973 C   0  0  0  0  0  0  0  0  0  0  0  0
   -0.8414   -2.8780    1.2950 O   0  0  0  0  0  0  0  0  0  0  0  0
   -1.4990   -0.9900    0.2562 N   0  0  0  0  0  0  0  0  0  0  0  0
   -2.2972   -0.4479   -0.0712 H   0  0  0  0  0  0  0  0  0  0  0  0
   -0.1937   -0.3173    0.2739 C   0  0  1  0  0  0  0  0  0  0  0  0
    0.4681   -0.7879    1.0084 H   0  0  0  0  0  0  0  0  0  0  0  0
    0.4237   -0.4693   -1.1278 C   0  0  0  0  0  0  0  0  0  0  0  0
    0.5157   -1.5364   -1.3594 H   0  0  0  0  0  0  0  0  0  0  0  0
   -0.2534   -0.0273   -1.8680 H   0  0  0  0  0  0  0  0  0  0  0  0
    1.8110    0.1971   -1.2505 C   0  0  0  0  0  0  0  0  0  0  0  0
    1.7320    1.2661   -1.0371 H   0  0  0  0  0  0  0  0  0  0  0  0
    2.4928   -0.2447   -0.5194 H   0  0  0  0  0  0  0  0  0  0  0  0
    2.4458    0.0589   -2.6348 C   0  0  0  0  0  0  0  0  0  0  0  0
    1.8724   -0.5567   -3.5163 O   0  0  0  0  0  0  0  0  0  0  0  0
    3.6491    0.6446   -2.8093 O   0  0  0  0  0  0  0  0  0  0  0  0
    3.8865    0.4556   -3.7305 H   0  0  0  0  0  0  0  0  0  0  0  0
   -0.3661    1.1618    0.6780 C   0  0  0  0  0  0  0  0  0  0  0  0
   -1.2721    1.8267    0.1900 O   0  0  0  0  0  0  0  0  0  0  0  0
    0.4829    1.7442    1.6013 N   0  0  0  0  0  0  0  0  0  0  0  0
    1.1657    1.1447    2.0562 H   0  0  0  0  0  0  0  0  0  0  0  0
    0.3331    3.1184    2.0652 C   0  0  0  0  0  0  0  0  0  0  0  0
   -0.6395    3.2560    2.5495 H   0  0  0  0  0  0  0  0  0  0  0  0
    1.1174    3.3615    2.7887 H   0  0  0  0  0  0  0  0  0  0  0  0
    0.4100    3.8172    1.2254 H   0  0  0  0  0  0  0  0  0  0  0  0
  1  2  1  0  0  0  0
  2  3  1  0  0  0  0
  2  4  1  0  0  0  0
  2  5  1  0  0  0  0
  5  6  2  0  0  0  0
  5  7  1  0  0  0  0
  7  8  1  0  0  0  0
  7  9  1  0  0  0  0
  9 10  1  0  0  0  0
  9 11  1  0  0  0  0
  9 21  1  0  0  0  0
 11 12  1  0  0  0  0
 11 13  1  0  0  0  0
 11 14  1  0  0  0  0
 14 15  1  0  0  0  0
 14 16  1  0  0  0  0
 14 17  1  0  0  0  0
 17 18  2  0  0  0  0
 17 19  1  0  0  0  0
 19 20  1  0  0  0  0
 21 22  2  0  0  0  0
 21 23  1  0  0  0  0
 23 24  1  0  0  0  0
 23 25  1  0  0  0  0
 25 26  1  0  0  0  0
 25 27  1  0  0  0  0
 25 28  1  0  0  0  0
M  END
$$$$

  -OEChem-03222214033D

 28 27  0     1  0  0  0  0  0999 V2000
   -3.2067   -3.7479    1.2516 H   0  0  0  0  0  0  0  0  0  0  0  0
   -3.1735   -2.7652    0.7732 C   0  0  0  0  0  0  0  0  0  0  0  0
   -3.8408   -2.0884    1.3122 H   0  0  0  0  0  0  0  0  0  0  0  0
   -3.5204   -2.8639   -0.2582 H   0  0  0  0  0  0  0  0  0  0  0  0
   -1.7576   -2.2215    0.7927 C   0  0  0  0  0  0  0  0  0  0  0  0
   -0.8568   -2.8737    1.2964 O   0  0  0  0  0  0  0  0  0  0  0  0
   -1.4921   -0.9806    0.2536 N   0  0  0  0  0  0  0  0  0  0  0  0
   -2.2829   -0.4312   -0.0802 H   0  0  0  0  0  0  0  0  0  0  0  0
   -0.1813   -0.3188    0.2821 C   0  0  1  0  0  0  0  0  0  0  0  0
    0.4741   -0.7918    1.0208 H   0  0  0  0  0  0  0  0  0  0  0  0
    0.4396   -0.4810   -1.1180 C   0  0  0  0  0  0  0  0  0  0  0  0
    0.5121   -1.5463   -1.3644 H   0  0  0  0  0  0  0  0  0  0  0  0
   -0.2384   -0.0212   -1.8464 H   0  0  0  0  0  0  0  0  0  0  0  0
    1.8364    0.1658   -1.2541 C   0  0  0  0  0  0  0  0  0  0  0  0
    1.8342    1.1660   -0.8151 H   0  0  0  0  0  0  0  0  0  0  0  0
    2.5731   -0.4353   -0.7153 H   0  0  0  0  0  0  0  0  0  0  0  0
    2.2996    0.3280   -2.7020 C   0  0  0  0  0  0  0  0  0  0  0  0
    1.7615   -0.3087   -3.5905 O   0  0  0  0  0  0  0  0  0  0  0  0
    3.3203    1.1829   -2.9228 O   0  0  0  0  0  0  0  0  0  0  0  0
    3.4680    1.1524   -3.8807 H   0  0  0  0  0  0  0  0  0  0  0  0
   -0.3568    1.1607    0.6861 C   0  0  0  0  0  0  0  0  0  0  0  0
   -1.2575    1.8268    0.1898 O   0  0  0  0  0  0  0  0  0  0  0  0
    0.4828    1.7419    1.6187 N   0  0  0  0  0  0  0  0  0  0  0  0
    1.1611    1.1421    2.0798 H   0  0  0  0  0  0  0  0  0  0  0  0
    0.3274    3.1157    2.0821 C   0  0  0  0  0  0  0  0  0  0  0  0
   -0.6537    3.2549    2.5485 H   0  0  0  0  0  0  0  0  0  0  0  0
    1.0985    3.3559    2.8205 H   0  0  0  0  0  0  0  0  0  0  0  0
    0.4216    3.8150    1.2446 H   0  0  0  0  0  0  0  0  0  0  0  0
  1  2  1  0  0  0  0
  2  3  1  0  0  0  0
  2  4  1  0  0  0  0
  2  5  1  0  0  0  0
  5  6  2  0  0  0  0
  5  7  1  0  0  0  0
  7  8  1  0  0  0  0
  7  9  1  0  0  0  0
  9 10  1  0  0  0  0
  9 11  1  0  0  0  0
  9 21  1  0  0  0  0
 11 12  1  0  0  0  0
 11 13  1  0  0  0  0
 11 14  1  0  0  0  0
 14 15  1  0  0  0  0
 14 16  1  0  0  0  0
 14 17  1  0  0  0  0
 17 18  2  0  0  0  0
 17 19  1  0  0  0  0
 19 20  1  0  0  0  0
 21 22  2  0  0  0  0
 21 23  1  0  0  0  0
 23 24  1  0  0  0  0
 23 25  1  0  0  0  0
 25 26  1  0  0  0  0
 25 27  1  0  0  0  0
 25 28  1  0  0  0  0
M  END
$$$$

  -OEChem-03222214033D

 28 27  0     1  0  0  0  0  0999 V2000
   -3.2287   -3.7273    1.2412 H   0  0  0  0  0  0  0  0  0  0  0  0
   -3.1889   -2.7416    0.7688 C   0  0  0  0  0  0  0  0  0  0  0  0
   -3.8450   -2.0613    1.3171 H   0  0  0  0  0  0  0  0  0  0  0  0
   -3.5445   -2.8299   -0.2607 H   0  0  0  0  0  0  0  0  0  0  0  0
   -1.7672   -2.2131    0.7817 C   0  0  0  0  0  0  0  0  0  0  0  0
   -0.8708   -2.8777    1.2767 O   0  0  0  0  0  0  0  0  0  0  0  0
   -1.4900   -0.9742    0.2440 N   0  0  0  0  0  0  0  0  0  0  0  0
   -2.2772   -0.4122   -0.0772 H   0  0  0  0  0  0  0  0  0  0  0  0
   -0.1739   -0.3230    0.2818 C   0  0  1  0  0  0  0  0  0  0  0  0
    0.4722   -0.8007    1.0257 H   0  0  0  0  0  0  0  0  0  0  0  0
    0.4542   -0.4928   -1.1149 C   0  0  0  0  0  0  0  0  0  0  0  0
    0.5136   -1.5569   -1.3683 H   0  0  0  0  0  0  0  0  0  0  0  0
   -0.2226   -0.0239   -1.8392 H   0  0  0  0  0  0  0  0  0  0  0  0
    1.8598    0.1378   -1.2567 C   0  0  0  0  0  0  0  0  0  0  0  0
    1.9576    1.0089   -0.6061 H   0  0  0  0  0  0  0  0  0  0  0  0
    2.6205   -0.5859   -0.9532 H   0  0  0  0  0  0  0  0  0  0  0  0
    2.1656    0.6157   -2.6754 C   0  0  0  0  0  0  0  0  0  0  0  0
    1.7363   -0.0154   -3.6248 O   0  0  0  0  0  0  0  0  0  0  0  0
    2.9261    1.7232   -2.8078 O   0  0  0  0  0  0  0  0  0  0  0  0
    3.0012    1.8612   -3.7647 H   0  0  0  0  0  0  0  0  0  0  0  0
   -0.3456    1.1577    0.6851 C   0  0  0  0  0  0  0  0  0  0  0  0
   -1.2453    1.8248    0.1882 O   0  0  0  0  0  0  0  0  0  0  0  0
    0.4884    1.7363    1.6247 N   0  0  0  0  0  0  0  0  0  0  0  0
    1.1679    1.1370    2.0847 H   0  0  0  0  0  0  0  0  0  0  0  0
    0.3391    3.1126    2.0830 C   0  0  0  0  0  0  0  0  0  0  0  0
   -0.6336    3.2528    2.5663 H   0  0  0  0  0  0  0  0  0  0  0  0
    1.1233    3.3583    2.8058 H   0  0  0  0  0  0  0  0  0  0  0  0
    0.4172    3.8079    1.2403 H   0  0  0  0  0  0  0  0  0  0  0  0
  1  2  1  0  0  0  0
  2  3  1  0  0  0  0
  2  4  1  0  0  0  0
  2  5  1  0  0  0  0
  5  6  2  0  0  0  0
  5  7  1  0  0  0  0
  7  8  1  0  0  0  0
  7  9  1  0  0  0  0
  9 10  1  0  0  0  0
  9 11  1  0  0  0  0
  9 21  1  0  0  0  0
 11 12  1  0  0  0  0
 11 13  1  0  0  0  0
 11 14  1  0  0  0  0
 14 15  1  0  0  0  0
 14 16  1  0  0  0  0
 14 17  1  0  0  0  0
 17 18  2  0  0  0  0
 17 19  1  0  0  0  0
 19 20  1  0  0  0  0
 21 22  2  0  0  0  0
 21 23  1  0  0  0  0
 23 24  1  0  0  0  0
 23 25  1  0  0  0  0
 25 26  1  0  0  0  0
 25 27  1  0  0  0  0
 25 28  1  0  0  0  0
M  END
$$$$

  -OEChem-03222214033D

 28 27  0     1  0  0  0  0  0999 V2000
   -3.2466   -3.7227    1.2291 H   0  0  0  0  0  0  0  0  0  0  0  0
   -3.2016   -2.7321    0.7678 C   0  0  0  0  0  0  0  0  0  0  0  0
   -3.8549   -2.0546    1.3230 H   0  0  0  0  0  0  0  0  0  0  0  0
   -3.5570   -2.8078   -0.2628 H   0  0  0  0  0  0  0  0  0  0  0  0
   -1.7772   -2.2109    0.7872 C   0  0  0  0  0  0  0  0  0  0  0  0
   -0.8862   -2.8812    1.2841 O   0  0  0  0  0  0  0  0  0  0  0  0
   -1.4897   -0.9760    0.2457 N   0  0  0  0  0  0  0  0  0  0  0  0
   -2.2719   -0.4094   -0.0800 H   0  0  0  0  0  0  0  0  0  0  0  0
   -0.1691   -0.3340    0.2816 C   0  0  1  0  0  0  0  0  0  0  0  0
    0.4770   -0.8155    1.0231 H   0  0  0  0  0  0  0  0  0  0  0  0
    0.4520   -0.5008   -1.1178 C   0  0  0  0  0  0  0  0  0  0  0  0
    0.5082   -1.5658   -1.3685 H   0  0  0  0  0  0  0  0  0  0  0  0
   -0.2272   -0.0356   -1.8423 H   0  0  0  0  0  0  0  0  0  0  0  0
    1.8617    0.1221   -1.2583 C   0  0  0  0  0  0  0  0  0  0  0  0
    2.0808    0.7909   -0.4239 H   0  0  0  0  0  0  0  0  0  0  0  0
    2.6140   -0.6708   -1.2403 H   0  0  0  0  0  0  0  0  0  0  0  0
    2.0283    0.9238   -2.5461 C   0  0  0  0  0  0  0  0  0  0  0  0
    1.7245    0.4057   -3.6056 O   0  0  0  0  0  0  0  0  0  0  0  0
    2.5182    2.1778   -2.4478 O   0  0  0  0  0  0  0  0  0  0  0  0
    2.5304    2.5128   -3.3577 H   0  0  0  0  0  0  0  0  0  0  0  0
   -0.3299    1.1497    0.6797 C   0  0  0  0  0  0  0  0  0  0  0  0
   -1.2230    1.8211    0.1766 O   0  0  0  0  0  0  0  0  0  0  0  0
    0.5071    1.7272    1.6170 N   0  0  0  0  0  0  0  0  0  0  0  0
    1.1876    1.1284    2.0758 H   0  0  0  0  0  0  0  0  0  0  0  0
    0.3850    3.1147    2.0481 C   0  0  0  0  0  0  0  0  0  0  0  0
   -0.5794    3.2799    2.5399 H   0  0  0  0  0  0  0  0  0  0  0  0
    1.1819    3.3628    2.7558 H   0  0  0  0  0  0  0  0  0  0  0  0
    0.4639    3.7910    1.1902 H   0  0  0  0  0  0  0  0  0  0  0  0
  1  2  1  0  0  0  0
  2  3  1  0  0  0  0
  2  4  1  0  0  0  0
  2  5  1  0  0  0  0
  5  6  2  0  0  0  0
  5  7  1  0  0  0  0
  7  8  1  0  0  0  0
  7  9  1  0  0  0  0
  9 10  1  0  0  0  0
  9 11  1  0  0  0  0
  9 21  1  0  0  0  0
 11 12  1  0  0  0  0
 11 13  1  0  0  0  0
 11 14  1  0  0  0  0
 14 15  1  0  0  0  0
 14 16  1  0  0  0  0
 14 17  1  0  0  0  0
 17 18  2  0  0  0  0
 17 19  1  0  0  0  0
 19 20  1  0  0  0  0
 21 22  2  0  0  0  0
 21 23  1  0  0  0  0
 23 24  1  0  0  0  0
 23 25  1  0  0  0  0
 25 26  1  0  0  0  0
 25 27  1  0  0  0  0
 25 28  1  0  0  0  0
M  END
$$$$

  -OEChem-03222214033D

 28 27  0     1  0  0  0  0  0999 V2000
   -3.2530   -3.7199    1.2468 H   0  0  0  0  0  0  0  0  0  0  0  0
   -3.2082   -2.7267    0.7910 C   0  0  0  0  0  0  0  0  0  0  0  0
   -3.8429   -2.0468    1.3643 H   0  0  0  0  0  0  0  0  0  0  0  0
   -3.5860   -2.7915   -0.2323 H   0  0  0  0  0  0  0  0  0  0  0  0
   -1.7789   -2.2188    0.7842 C   0  0  0  0  0  0  0  0  0  0  0  0
   -0.8842   -2.8974    1.2631 O   0  0  0  0  0  0  0  0  0  0  0  0
   -1.4921   -0.9848    0.2405 N   0  0  0  0  0  0  0  0  0  0  0  0
   -2.2769   -0.4093   -0.0624 H   0  0  0  0  0  0  0  0  0  0  0  0
   -0.1694   -0.3471    0.2676 C   0  0  1  0  0  0  0  0  0  0  0  0
    0.4801   -0.8329    1.0033 H   0  0  0  0  0  0  0  0  0  0  0  0
    0.4430   -0.5005   -1.1357 C   0  0  0  0  0  0  0  0  0  0  0  0
    0.5105   -1.5675   -1.3747 H   0  0  0  0  0  0  0  0  0  0  0  0
   -0.2359   -0.0503   -1.8698 H   0  0  0  0  0  0  0  0  0  0  0  0
    1.8508    0.1258   -1.2623 C   0  0  0  0  0  0  0  0  0  0  0  0
    2.1935    0.5351   -0.3096 H   0  0  0  0  0  0  0  0  0  0  0  0
    2.5641   -0.6518   -1.5493 H   0  0  0  0  0  0  0  0  0  0  0  0
    1.9042    1.2231   -2.3188 C   0  0  0  0  0  0  0  0  0  0  0  0
    1.7362    0.9204   -3.4861 O   0  0  0  0  0  0  0  0  0  0  0  0
    2.1309    2.4871   -1.9030 O   0  0  0  0  0  0  0  0  0  0  0  0
    2.0887    3.0258   -2.7080 H   0  0  0  0  0  0  0  0  0  0  0  0
   -0.3189    1.1378    0.6663 C   0  0  0  0  0  0  0  0  0  0  0  0
   -1.2179    1.8102    0.1745 O   0  0  0  0  0  0  0  0  0  0  0  0
    0.5277    1.7121    1.5967 N   0  0  0  0  0  0  0  0  0  0  0  0
    1.2331    1.1204    2.0256 H   0  0  0  0  0  0  0  0  0  0  0  0
    0.4473    3.1136    1.9903 C   0  0  0  0  0  0  0  0  0  0  0  0
   -0.5235    3.3282    2.4494 H   0  0  0  0  0  0  0  0  0  0  0  0
    1.2324    3.3490    2.7154 H   0  0  0  0  0  0  0  0  0  0  0  0
    0.5768    3.7640    1.1186 H   0  0  0  0  0  0  0  0  0  0  0  0
  1  2  1  0  0  0  0
  2  3  1  0  0  0  0
  2  4  1  0  0  0  0
  2  5  1  0  0  0  0
  5  6  2  0  0  0  0
  5  7  1  0  0  0  0
  7  8  1  0  0  0  0
  7  9  1  0  0  0  0
  9 10  1  0  0  0  0
  9 11  1  0  0  0  0
  9 21  1  0  0  0  0
 11 12  1  0  0  0  0
 11 13  1  0  0  0  0
 11 14  1  0  0  0  0
 14 15  1  0  0  0  0
 14 16  1  0  0  0  0
 14 17  1  0  0  0  0
 17 18  2  0  0  0  0
 17 19  1  0  0  0  0
 19 20  1  0  0  0  0
 21 22  2  0  0  0  0
 21 23  1  0  0  0  0
 23 24  1  0  0  0  0
 23 25  1  0  0  0  0
 25 26  1  0  0  0  0
 25 27  1  0  0  0  0
 25 28  1  0  0  0  0
M  END
$$$$

  -OEChem-03222214033D

 28 27  0     1  0  0  0  0  0999 V2000
   -3.2233   -3.7457    1.2515 H   0  0  0  0  0  0  0  0  0  0  0  0
   -3.1935   -2.7461    0.8085 C   0  0  0  0  0  0  0  0  0  0  0  0
   -3.8259   -2.0795    1.3999 H   0  0  0  0  0  0  0  0  0  0  0  0
   -3.5851   -2.8005   -0.2102 H   0  0  0  0  0  0  0  0  0  0  0  0
   -1.7686   -2.2261    0.7872 C   0  0  0  0  0  0  0  0  0  0  0  0
   -0.8618   -2.9038    1.2442 O   0  0  0  0  0  0  0  0  0  0  0  0
   -1.4977   -0.9869    0.2473 N   0  0  0  0  0  0  0  0  0  0  0  0
   -2.2911   -0.4138   -0.0374 H   0  0  0  0  0  0  0  0  0  0  0  0
   -0.1795   -0.3390    0.2612 C   0  0  1  0  0  0  0  0  0  0  0  0
    0.4785   -0.8233    0.9905 H   0  0  0  0  0  0  0  0  0  0  0  0
    0.4227   -0.4893   -1.1469 C   0  0  0  0  0  0  0  0  0  0  0  0
    0.5088   -1.5593   -1.3649 H   0  0  0  0  0  0  0  0  0  0  0  0
   -0.2623   -0.0641   -1.8900 H   0  0  0  0  0  0  0  0  0  0  0  0
    1.8224    0.1491   -1.2819 C   0  0  0  0  0  0  0  0  0  0  0  0
    2.2826    0.3048   -0.3031 H   0  0  0  0  0  0  0  0  0  0  0  0
    2.4715   -0.5345   -1.8363 H   0  0  0  0  0  0  0  0  0  0  0  0
    1.7914    1.4660   -2.0500 C   0  0  0  0  0  0  0  0  0  0  0  0
    1.5295    1.4445   -3.2388 O   0  0  0  0  0  0  0  0  0  0  0  0
    2.0576    2.5996   -1.3674 O   0  0  0  0  0  0  0  0  0  0  0  0
    1.9453    3.3112   -2.0167 H   0  0  0  0  0  0  0  0  0  0  0  0
   -0.3267    1.1429    0.6695 C   0  0  0  0  0  0  0  0  0  0  0  0
   -1.2358    1.8146    0.1956 O   0  0  0  0  0  0  0  0  0  0  0  0
    0.5319    1.7140    1.5905 N   0  0  0  0  0  0  0  0  0  0  0  0
    1.2739    1.1344    1.9710 H   0  0  0  0  0  0  0  0  0  0  0  0
    0.4741    3.1213    1.9656 C   0  0  0  0  0  0  0  0  0  0  0  0
   -0.4954    3.3591    2.4159 H   0  0  0  0  0  0  0  0  0  0  0  0
    1.2587    3.3523    2.6924 H   0  0  0  0  0  0  0  0  0  0  0  0
    0.6200    3.7572    1.0859 H   0  0  0  0  0  0  0  0  0  0  0  0
  1  2  1  0  0  0  0
  2  3  1  0  0  0  0
  2  4  1  0  0  0  0
  2  5  1  0  0  0  0
  5  6  2  0  0  0  0
  5  7  1  0  0  0  0
  7  8  1  0  0  0  0
  7  9  1  0  0  0  0
  9 10  1  0  0  0  0
  9 11  1  0  0  0  0
  9 21  1  0  0  0  0
 11 12  1  0  0  0  0
 11 13  1  0  0  0  0
 11 14  1  0  0  0  0
 14 15  1  0  0  0  0
 14 16  1  0  0  0  0
 14 17  1  0  0  0  0
 17 18  2  0  0  0  0
 17 19  1  0  0  0  0
 19 20  1  0  0  0  0
 21 22  2  0  0  0  0
 21 23  1  0  0  0  0
 23 24  1  0  0  0  0
 23 25  1  0  0  0  0
 25 26  1  0  0  0  0
 25 27  1  0  0  0  0
 25 28  1  0  0  0  0
M  END
$$$$

  -OEChem-03222214033D

 28 27  0     1  0  0  0  0  0999 V2000
   -3.1886   -3.7326    1.2946 H   0  0  0  0  0  0  0  0  0  0  0  0
   -3.1676   -2.7404    0.8351 C   0  0  0  0  0  0  0  0  0  0  0  0
   -3.7855   -2.0633    1.4299 H   0  0  0  0  0  0  0  0  0  0  0  0
   -3.5826   -2.8100   -0.1734 H   0  0  0  0  0  0  0  0  0  0  0  0
   -1.7433   -2.2225    0.7738 C   0  0  0  0  0  0  0  0  0  0  0  0
   -0.8227   -2.9047    1.1954 O   0  0  0  0  0  0  0  0  0  0  0  0
   -1.4902   -0.9761    0.2425 N   0  0  0  0  0  0  0  0  0  0  0  0
   -2.2932   -0.4002   -0.0083 H   0  0  0  0  0  0  0  0  0  0  0  0
   -0.1790   -0.3152    0.2507 C   0  0  1  0  0  0  0  0  0  0  0  0
    0.4846   -0.7926    0.9793 H   0  0  0  0  0  0  0  0  0  0  0  0
    0.4200   -0.4817   -1.1590 C   0  0  0  0  0  0  0  0  0  0  0  0
    0.5122   -1.5552   -1.3565 H   0  0  0  0  0  0  0  0  0  0  0  0
   -0.2711   -0.0746   -1.9064 H   0  0  0  0  0  0  0  0  0  0  0  0
    1.8135    0.1597   -1.3277 C   0  0  0  0  0  0  0  0  0  0  0  0
    2.3815    0.0906   -0.3964 H   0  0  0  0  0  0  0  0  0  0  0  0
    2.3678   -0.3986   -2.0871 H   0  0  0  0  0  0  0  0  0  0  0  0
    1.7594    1.6130   -1.7901 C   0  0  0  0  0  0  0  0  0  0  0  0
    1.3019    1.8580   -2.8910 O   0  0  0  0  0  0  0  0  0  0  0  0
    2.2386    2.5614   -0.9579 O   0  0  0  0  0  0  0  0  0  0  0  0
    2.0844    3.3966   -1.4268 H   0  0  0  0  0  0  0  0  0  0  0  0
   -0.3473    1.1599    0.6741 C   0  0  0  0  0  0  0  0  0  0  0  0
   -1.2892    1.8129    0.2405 O   0  0  0  0  0  0  0  0  0  0  0  0
    0.5086    1.7354    1.5947 N   0  0  0  0  0  0  0  0  0  0  0  0
    1.2893    1.1783    1.9288 H   0  0  0  0  0  0  0  0  0  0  0  0
    0.3967    3.1221    2.0298 C   0  0  0  0  0  0  0  0  0  0  0  0
   -0.5610    3.2891    2.5339 H   0  0  0  0  0  0  0  0  0  0  0  0
    1.2027    3.3654    2.7287 H   0  0  0  0  0  0  0  0  0  0  0  0
    0.4670    3.8000    1.1726 H   0  0  0  0  0  0  0  0  0  0  0  0
  1  2  1  0  0  0  0
  2  3  1  0  0  0  0
  2  4  1  0  0  0  0
  2  5  1  0  0  0  0
  5  6  2  0  0  0  0
  5  7  1  0  0  0  0
  7  8  1  0  0  0  0
  7  9  1  0  0  0  0
  9 10  1  0  0  0  0
  9 11  1  0  0  0  0
  9 21  1  0  0  0  0
 11 12  1  0  0  0  0
 11 13  1  0  0  0  0
 11 14  1  0  0  0  0
 14 15  1  0  0  0  0
 14 16  1  0  0  0  0
 14 17  1  0  0  0  0
 17 18  2  0  0  0  0
 17 19  1  0  0  0  0
 19 20  1  0  0  0  0
 21 22  2  0  0  0  0
 21 23  1  0  0  0  0
 23 24  1  0  0  0  0
 23 25  1  0  0  0  0
 25 26  1  0  0  0  0
 25 27  1  0  0  0  0
 25 28  1  0  0  0  0
M  END
$$$$

  -OEChem-03222214033D

 28 27  0     1  0  0  0  0  0999 V2000
   -3.1480   -3.7307    1.3323 H   0  0  0  0  0  0  0  0  0  0  0  0
   -3.1406   -2.7485    0.8513 C   0  0  0  0  0  0  0  0  0  0  0  0
   -3.7613   -2.0652    1.4360 H   0  0  0  0  0  0  0  0  0  0  0  0
   -3.5615   -2.8439   -0.1525 H   0  0  0  0  0  0  0  0  0  0  0  0
   -1.7221   -2.2181    0.7687 C   0  0  0  0  0  0  0  0  0  0  0  0
   -0.7889   -2.8983    1.1650 O   0  0  0  0  0  0  0  0  0  0  0  0
   -1.4869   -0.9641    0.2471 N   0  0  0  0  0  0  0  0  0  0  0  0
   -2.2980   -0.3866    0.0260 H   0  0  0  0  0  0  0  0  0  0  0  0
   -0.1809   -0.2917    0.2519 C   0  0  1  0  0  0  0  0  0  0  0  0
    0.4893   -0.7624    0.9790 H   0  0  0  0  0  0  0  0  0  0  0  0
    0.4164   -0.4663   -1.1605 C   0  0  0  0  0  0  0  0  0  0  0  0
    0.5020   -1.5404   -1.3577 H   0  0  0  0  0  0  0  0  0  0  0  0
   -0.2813   -0.0554   -1.8994 H   0  0  0  0  0  0  0  0  0  0  0  0
    1.8064    0.1712   -1.3735 C   0  0  0  0  0  0  0  0  0  0  0  0
    2.4670   -0.1103   -0.5492 H   0  0  0  0  0  0  0  0  0  0  0  0
    2.2415   -0.2347   -2.2909 H   0  0  0  0  0  0  0  0  0  0  0  0
    1.8005    1.6901   -1.5113 C   0  0  0  0  0  0  0  0  0  0  0  0
    1.1757    2.1891   -2.4277 O   0  0  0  0  0  0  0  0  0  0  0  0
    2.5094    2.4116   -0.6178 O   0  0  0  0  0  0  0  0  0  0  0  0
    2.3661    3.3336   -0.8845 H   0  0  0  0  0  0  0  0  0  0  0  0
   -0.3810    1.1749    0.6938 C   0  0  0  0  0  0  0  0  0  0  0  0
   -1.3633    1.7986    0.3092 O   0  0  0  0  0  0  0  0  0  0  0  0
    0.4663    1.7577    1.6179 N   0  0  0  0  0  0  0  0  0  0  0  0
    1.2885    1.2326    1.9019 H   0  0  0  0  0  0  0  0  0  0  0  0
    0.3022    3.1227    2.1024 C   0  0  0  0  0  0  0  0  0  0  0  0
   -0.6684    3.2407    2.5957 H   0  0  0  0  0  0  0  0  0  0  0  0
    1.0876    3.3640    2.8252 H   0  0  0  0  0  0  0  0  0  0  0  0
    0.3645    3.8342    1.2722 H   0  0  0  0  0  0  0  0  0  0  0  0
  1  2  1  0  0  0  0
  2  3  1  0  0  0  0
  2  4  1  0  0  0  0
  2  5  1  0  0  0  0
  5  6  2  0  0  0  0
  5  7  1  0  0  0  0
  7  8  1  0  0  0  0
  7  9  1  0  0  0  0
  9 10  1  0  0  0  0
  9 11  1  0  0  0  0
  9 21  1  0  0  0  0
 11 12  1  0  0  0  0
 11 13  1  0  0  0  0
 11 14  1  0  0  0  0
 14 15  1  0  0  0  0
 14 16  1  0  0  0  0
 14 17  1  0  0  0  0
 17 18  2  0  0  0  0
 17 19  1  0  0  0  0
 19 20  1  0  0  0  0
 21 22  2  0  0  0  0
 21 23  1  0  0  0  0
 23 24  1  0  0  0  0
 23 25  1  0  0  0  0
 25 26  1  0  0  0  0
 25 27  1  0  0  0  0
 25 28  1  0  0  0  0
M  END
$$$$

  -OEChem-03222214033D

 28 27  0     1  0  0  0  0  0999 V2000
   -3.1174   -3.7453    1.3247 H   0  0  0  0  0  0  0  0  0  0  0  0
   -3.1181   -2.7555    0.8598 C   0  0  0  0  0  0  0  0  0  0  0  0
   -3.7311   -2.0826    1.4645 H   0  0  0  0  0  0  0  0  0  0  0  0
   -3.5536   -2.8352   -0.1392 H   0  0  0  0  0  0  0  0  0  0  0  0
   -1.7015   -2.2214    0.7653 C   0  0  0  0  0  0  0  0  0  0  0  0
   -0.7612   -2.9041    1.1401 O   0  0  0  0  0  0  0  0  0  0  0  0
   -1.4758   -0.9607    0.2559 N   0  0  0  0  0  0  0  0  0  0  0  0
   -2.2918   -0.3784    0.0663 H   0  0  0  0  0  0  0  0  0  0  0  0
   -0.1740   -0.2793    0.2661 C   0  0  1  0  0  0  0  0  0  0  0  0
    0.5032   -0.7464    0.9891 H   0  0  0  0  0  0  0  0  0  0  0  0
    0.4161   -0.4438   -1.1537 C   0  0  0  0  0  0  0  0  0  0  0  0
    0.4839   -1.5150   -1.3718 H   0  0  0  0  0  0  0  0  0  0  0  0
   -0.2920   -0.0104   -1.8693 H   0  0  0  0  0  0  0  0  0  0  0  0
    1.8033    0.1846   -1.4183 C   0  0  0  0  0  0  0  0  0  0  0  0
    2.5347   -0.2953   -0.7625 H   0  0  0  0  0  0  0  0  0  0  0  0
    2.0974   -0.0380   -2.4475 H   0  0  0  0  0  0  0  0  0  0  0  0
    1.9135    1.6920   -1.2271 C   0  0  0  0  0  0  0  0  0  0  0  0
    1.2797    2.4186   -1.9672 O   0  0  0  0  0  0  0  0  0  0  0  0
    2.7276    2.1528   -0.2534 O   0  0  0  0  0  0  0  0  0  0  0  0
    2.6617    3.1187   -0.3219 H   0  0  0  0  0  0  0  0  0  0  0  0
   -0.4147    1.1772    0.7261 C   0  0  0  0  0  0  0  0  0  0  0  0
   -1.4259    1.7696    0.3656 O   0  0  0  0  0  0  0  0  0  0  0  0
    0.4118    1.7721    1.6614 N   0  0  0  0  0  0  0  0  0  0  0  0
    1.2677    1.2836    1.9106 H   0  0  0  0  0  0  0  0  0  0  0  0
    0.2048    3.1265    2.1589 C   0  0  0  0  0  0  0  0  0  0  0  0
   -0.7702    3.2092    2.6507 H   0  0  0  0  0  0  0  0  0  0  0  0
    0.9804    3.3849    2.8862 H   0  0  0  0  0  0  0  0  0  0  0  0
    0.2463    3.8475    1.3356 H   0  0  0  0  0  0  0  0  0  0  0  0
  1  2  1  0  0  0  0
  2  3  1  0  0  0  0
  2  4  1  0  0  0  0
  2  5  1  0  0  0  0
  5  6  2  0  0  0  0
  5  7  1  0  0  0  0
  7  8  1  0  0  0  0
  7  9  1  0  0  0  0
  9 10  1  0  0  0  0
  9 11  1  0  0  0  0
  9 21  1  0  0  0  0
 11 12  1  0  0  0  0
 11 13  1  0  0  0  0
 11 14  1  0  0  0  0
 14 15  1  0  0  0  0
 14 16  1  0  0  0  0
 14 17  1  0  0  0  0
 17 18  2  0  0  0  0
 17 19  1  0  0  0  0
 19 20  1  0  0  0  0
 21 22  2  0  0  0  0
 21 23  1  0  0  0  0
 23 24  1  0  0  0  0
 23 25  1  0  0  0  0
 25 26  1  0  0  0  0
 25 27  1  0  0  0  0
 25 28  1  0  0  0  0
M  END
$$$$

  -OEChem-03222214033D

 28 27  0     1  0  0  0  0  0999 V2000
   -3.0875   -3.7587    1.3299 H   0  0  0  0  0  0  0  0  0  0  0  0
   -3.0939   -2.7708    0.8609 C   0  0  0  0  0  0  0  0  0  0  0  0
   -3.7089   -2.0983    1.4641 H   0  0  0  0  0  0  0  0  0  0  0  0
   -3.5309   -2.8566   -0.1368 H   0  0  0  0  0  0  0  0  0  0  0  0
   -1.6802   -2.2302    0.7615 C   0  0  0  0  0  0  0  0  0  0  0  0
   -0.7352   -2.9118    1.1259 O   0  0  0  0  0  0  0  0  0  0  0  0
   -1.4633   -0.9630    0.2644 N   0  0  0  0  0  0  0  0  0  0  0  0
   -2.2832   -0.3831    0.0842 H   0  0  0  0  0  0  0  0  0  0  0  0
   -0.1661   -0.2723    0.2882 C   0  0  1  0  0  0  0  0  0  0  0  0
    0.5191   -0.7384    1.0042 H   0  0  0  0  0  0  0  0  0  0  0  0
    0.4115   -0.4143   -1.1407 C   0  0  0  0  0  0  0  0  0  0  0  0
    0.4616   -1.4804   -1.3876 H   0  0  0  0  0  0  0  0  0  0  0  0
   -0.3095    0.0432   -1.8279 H   0  0  0  0  0  0  0  0  0  0  0  0
    1.7939    0.2094   -1.4499 C   0  0  0  0  0  0  0  0  0  0  0  0
    2.5597   -0.4380   -1.0139 H   0  0  0  0  0  0  0  0  0  0  0  0
    1.9463    0.2016   -2.5328 H   0  0  0  0  0  0  0  0  0  0  0  0
    2.0650    1.6216   -0.9501 C   0  0  0  0  0  0  0  0  0  0  0  0
    1.5764    2.5551   -1.5560 O   0  0  0  0  0  0  0  0  0  0  0  0
    2.8594    1.7743    0.1323 O   0  0  0  0  0  0  0  0  0  0  0  0
    2.9339    2.7359    0.2415 H   0  0  0  0  0  0  0  0  0  0  0  0
   -0.4441    1.1740    0.7626 C   0  0  0  0  0  0  0  0  0  0  0  0
   -1.4597    1.7508    0.3882 O   0  0  0  0  0  0  0  0  0  0  0  0
    0.3574    1.7782    1.7132 N   0  0  0  0  0  0  0  0  0  0  0  0
    1.2254    1.3075    1.9575 H   0  0  0  0  0  0  0  0  0  0  0  0
    0.1325    3.1361    2.1933 C   0  0  0  0  0  0  0  0  0  0  0  0
   -0.8616    3.2236    2.6448 H   0  0  0  0  0  0  0  0  0  0  0  0
    0.8781    3.3988    2.9498 H   0  0  0  0  0  0  0  0  0  0  0  0
    0.2078    3.8510    1.3668 H   0  0  0  0  0  0  0  0  0  0  0  0
  1  2  1  0  0  0  0
  2  3  1  0  0  0  0
  2  4  1  0  0  0  0
  2  5  1  0  0  0  0
  5  6  2  0  0  0  0
  5  7  1  0  0  0  0
  7  8  1  0  0  0  0
  7  9  1  0  0  0  0
  9 10  1  0  0  0  0
  9 11  1  0  0  0  0
  9 21  1  0  0  0  0
 11 12  1  0  0  0  0
 11 13  1  0  0  0  0
 11 14  1  0  0  0  0
 14 15  1  0  0  0  0
 14 16  1  0  0  0  0
 14 17  1  0  0  0  0
 17 18  2  0  0  0  0
 17 19  1  0  0  0  0
 19 20  1  0  0  0  0
 21 22  2  0  0  0  0
 21 23  1  0  0  0  0
 23 24  1  0  0  0  0
 23 25  1  0  0  0  0
 25 26  1  0  0  0  0
 25 27  1  0  0  0  0
 25 28  1  0  0  0  0
M  END
$$$$

  -OEChem-03222214033D

 28 27  0     1  0  0  0  0  0999 V2000
   -3.0733   -3.7832    1.3167 H   0  0  0  0  0  0  0  0  0  0  0  0
   -3.0818   -2.7969    0.8443 C   0  0  0  0  0  0  0  0  0  0  0  0
   -3.7179   -2.1308    1.4323 H   0  0  0  0  0  0  0  0  0  0  0  0
   -3.4966   -2.8910   -0.1621 H   0  0  0  0  0  0  0  0  0  0  0  0
   -1.6728   -2.2397    0.7730 C   0  0  0  0  0  0  0  0  0  0  0  0
   -0.7270   -2.9141    1.1483 O   0  0  0  0  0  0  0  0  0  0  0  0
   -1.4601   -0.9693    0.2826 N   0  0  0  0  0  0  0  0  0  0  0  0
   -2.2824   -0.3967    0.0909 H   0  0  0  0  0  0  0  0  0  0  0  0
   -0.1676   -0.2696    0.3202 C   0  0  1  0  0  0  0  0  0  0  0  0
    0.5234   -0.7355    1.0311 H   0  0  0  0  0  0  0  0  0  0  0  0
    0.4020   -0.3883   -1.1143 C   0  0  0  0  0  0  0  0  0  0  0  0
    0.4449   -1.4500   -1.3809 H   0  0  0  0  0  0  0  0  0  0  0  0
   -0.3294    0.0802   -1.7828 H   0  0  0  0  0  0  0  0  0  0  0  0
    1.7792    0.2386   -1.4500 C   0  0  0  0  0  0  0  0  0  0  0  0
    2.5422   -0.5232   -1.2687 H   0  0  0  0  0  0  0  0  0  0  0  0
    1.8068    0.4680   -2.5192 H   0  0  0  0  0  0  0  0  0  0  0  0
    2.2236    1.4784   -0.6855 C   0  0  0  0  0  0  0  0  0  0  0  0
    1.9795    2.5707   -1.1600 O   0  0  0  0  0  0  0  0  0  0  0  0
    2.9092    1.3091    0.4673 O   0  0  0  0  0  0  0  0  0  0  0  0
    3.1643    2.2088    0.7278 H   0  0  0  0  0  0  0  0  0  0  0  0
   -0.4655    1.1719    0.7981 C   0  0  0  0  0  0  0  0  0  0  0  0
   -1.4618    1.7550    0.3832 O   0  0  0  0  0  0  0  0  0  0  0  0
    0.3190    1.7806    1.7594 N   0  0  0  0  0  0  0  0  0  0  0  0
    1.1729    1.2978    2.0294 H   0  0  0  0  0  0  0  0  0  0  0  0
    0.1226    3.1603    2.1866 C   0  0  0  0  0  0  0  0  0  0  0  0
   -0.8897    3.2998    2.5805 H   0  0  0  0  0  0  0  0  0  0  0  0
    0.8366    3.4184    2.9743 H   0  0  0  0  0  0  0  0  0  0  0  0
    0.2706    3.8453    1.3450 H   0  0  0  0  0  0  0  0  0  0  0  0
  1  2  1  0  0  0  0
  2  3  1  0  0  0  0
  2  4  1  0  0  0  0
  2  5  1  0  0  0  0
  5  6  2  0  0  0  0
  5  7  1  0  0  0  0
  7  8  1  0  0  0  0
  7  9  1  0  0  0  0
  9 10  1  0  0  0  0
  9 11  1  0  0  0  0
  9 21  1  0  0  0  0
 11 12  1  0  0  0  0
 11 13  1  0  0  0  0
 11 14  1  0  0  0  0
 14 15  1  0  0  0  0
 14 16  1  0  0  0  0
 14 17  1  0  0  0  0
 17 18  2  0  0  0  0
 17 19  1  0  0  0  0
 19 20  1  0  0  0  0
 21 22  2  0  0  0  0
 21 23  1  0  0  0  0
 23 24  1  0  0  0  0
 23 25  1  0  0  0  0
 25 26  1  0  0  0  0
 25 27  1  0  0  0  0
 25 28  1  0  0  0  0
M  END
$$$$

  -OEChem-03222214033D

 28 27  0     1  0  0  0  0  0999 V2000
   -3.1684   -3.7123    1.3283 H   0  0  0  0  0  0  0  0  0  0  0  0
   -3.1450   -2.7324    0.8433 C   0  0  0  0  0  0  0  0  0  0  0  0
   -3.7839   -2.0466    1.4051 H   0  0  0  0  0  0  0  0  0  0  0  0
   -3.5342   -2.8323   -0.1728 H   0  0  0  0  0  0  0  0  0  0  0  0
   -1.7241   -2.2026    0.8039 C   0  0  0  0  0  0  0  0  0  0  0  0
   -0.8057   -2.8787    1.2387 O   0  0  0  0  0  0  0  0  0  0  0  0
   -1.4718   -0.9535    0.2786 N   0  0  0  0  0  0  0  0  0  0  0  0
   -2.2767   -0.3778    0.0311 H   0  0  0  0  0  0  0  0  0  0  0  0
   -0.1711   -0.2712    0.3430 C   0  0  1  0  0  0  0  0  0  0  0  0
    0.4884   -0.7264    1.0900 H   0  0  0  0  0  0  0  0  0  0  0  0
    0.4422   -0.4278   -1.0687 C   0  0  0  0  0  0  0  0  0  0  0  0
    0.4814   -1.4971   -1.3043 H   0  0  0  0  0  0  0  0  0  0  0  0
   -0.2631    0.0272   -1.7736 H   0  0  0  0  0  0  0  0  0  0  0  0
    1.8395    0.1724   -1.3783 C   0  0  0  0  0  0  0  0  0  0  0  0
    2.5533   -0.6548   -1.4212 H   0  0  0  0  0  0  0  0  0  0  0  0
    1.8114    0.6193   -2.3769 H   0  0  0  0  0  0  0  0  0  0  0  0
    2.4347    1.1927   -0.4147 C   0  0  0  0  0  0  0  0  0  0  0  0
    2.5169    2.3507   -0.7765 O   0  0  0  0  0  0  0  0  0  0  0  0
    2.9030    0.7578    0.7766 O   0  0  0  0  0  0  0  0  0  0  0  0
    3.3463    1.5324    1.1585 H   0  0  0  0  0  0  0  0  0  0  0  0
   -0.4598    1.1910    0.7579 C   0  0  0  0  0  0  0  0  0  0  0  0
   -1.4106    1.7855    0.2607 O   0  0  0  0  0  0  0  0  0  0  0  0
    0.2977    1.8203    1.7266 N   0  0  0  0  0  0  0  0  0  0  0  0
    1.1044    1.3124    2.0812 H   0  0  0  0  0  0  0  0  0  0  0  0
    0.1239    3.2211    2.0902 C   0  0  0  0  0  0  0  0  0  0  0  0
   -0.8960    3.4020    2.4460 H   0  0  0  0  0  0  0  0  0  0  0  0
    0.8203    3.4949    2.8884 H   0  0  0  0  0  0  0  0  0  0  0  0
    0.3152    3.8657    1.2256 H   0  0  0  0  0  0  0  0  0  0  0  0
  1  2  1  0  0  0  0
  2  3  1  0  0  0  0
  2  4  1  0  0  0  0
  2  5  1  0  0  0  0
  5  6  2  0  0  0  0
  5  7  1  0  0  0  0
  7  8  1  0  0  0  0
  7  9  1  0  0  0  0
  9 10  1  0  0  0  0
  9 11  1  0  0  0  0
  9 21  1  0  0  0  0
 11 12  1  0  0  0  0
 11 13  1  0  0  0  0
 11 14  1  0  0  0  0
 14 15  1  0  0  0  0
 14 16  1  0  0  0  0
 14 17  1  0  0  0  0
 17 18  2  0  0  0  0
 17 19  1  0  0  0  0
 19 20  1  0  0  0  0
 21 22  2  0  0  0  0
 21 23  1  0  0  0  0
 23 24  1  0  0  0  0
 23 25  1  0  0  0  0
 25 26  1  0  0  0  0
 25 27  1  0  0  0  0
 25 28  1  0  0  0  0
M  END
$$$$

  -OEChem-03222214033D

 28 27  0     1  0  0  0  0  0999 V2000
   -3.3501   -3.6755    1.2006 H   0  0  0  0  0  0  0  0  0  0  0  0
   -3.2697   -2.6925    0.7282 C   0  0  0  0  0  0  0  0  0  0  0  0
   -3.9130   -1.9908    1.2646 H   0  0  0  0  0  0  0  0  0  0  0  0
   -3.6095   -2.7700   -0.3074 H   0  0  0  0  0  0  0  0  0  0  0  0
   -1.8319   -2.2105    0.7653 C   0  0  0  0  0  0  0  0  0  0  0  0
   -0.9613   -2.9221    1.2389 O   0  0  0  0  0  0  0  0  0  0  0  0
   -1.5132   -0.9714    0.2516 N   0  0  0  0  0  0  0  0  0  0  0  0
   -2.2873   -0.3722   -0.0326 H   0  0  0  0  0  0  0  0  0  0  0  0
   -0.1962   -0.3288    0.3740 C   0  0  1  0  0  0  0  0  0  0  0  0
    0.3988   -0.8131    1.1558 H   0  0  0  0  0  0  0  0  0  0  0  0
    0.4948   -0.5049   -0.9979 C   0  0  0  0  0  0  0  0  0  0  0  0
    0.5347   -1.5801   -1.2046 H   0  0  0  0  0  0  0  0  0  0  0  0
   -0.1583   -0.0603   -1.7570 H   0  0  0  0  0  0  0  0  0  0  0  0
    1.9256    0.0625   -1.2221 C   0  0  0  0  0  0  0  0  0  0  0  0
    2.5780   -0.7610   -1.5250 H   0  0  0  0  0  0  0  0  0  0  0  0
    1.8809    0.7569   -2.0661 H   0  0  0  0  0  0  0  0  0  0  0  0
    2.6316    0.7882   -0.0781 C   0  0  0  0  0  0  0  0  0  0  0  0
    2.7419    0.2398    1.0054 O   0  0  0  0  0  0  0  0  0  0  0  0
    3.1175    2.0217   -0.3329 O   0  0  0  0  0  0  0  0  0  0  0  0
    3.5451    2.3082    0.4881 H   0  0  0  0  0  0  0  0  0  0  0  0
   -0.4188    1.1482    0.7726 C   0  0  0  0  0  0  0  0  0  0  0  0
   -1.3106    1.7943    0.2324 O   0  0  0  0  0  0  0  0  0  0  0  0
    0.3350    1.7396    1.7678 N   0  0  0  0  0  0  0  0  0  0  0  0
    1.1179    1.1956    2.1326 H   0  0  0  0  0  0  0  0  0  0  0  0
    0.1931    3.1352    2.1623 C   0  0  0  0  0  0  0  0  0  0  0  0
   -0.8204    3.3281    2.5298 H   0  0  0  0  0  0  0  0  0  0  0  0
    0.9010    3.3761    2.9612 H   0  0  0  0  0  0  0  0  0  0  0  0
    0.3914    3.7956    1.3116 H   0  0  0  0  0  0  0  0  0  0  0  0
  1  2  1  0  0  0  0
  2  3  1  0  0  0  0
  2  4  1  0  0  0  0
  2  5  1  0  0  0  0
  5  6  2  0  0  0  0
  5  7  1  0  0  0  0
  7  8  1  0  0  0  0
  7  9  1  0  0  0  0
  9 10  1  0  0  0  0
  9 11  1  0  0  0  0
  9 21  1  0  0  0  0
 11 12  1  0  0  0  0
 11 13  1  0  0  0  0
 11 14  1  0  0  0  0
 14 15  1  0  0  0  0
 14 16  1  0  0  0  0
 14 17  1  0  0  0  0
 17 18  2  0  0  0  0
 17 19  1  0  0  0  0
 19 20  1  0  0  0  0
 21 22  2  0  0  0  0
 21 23  1  0  0  0  0
 23 24  1  0  0  0  0
 23 25  1  0  0  0  0
 25 26  1  0  0  0  0
 25 27  1  0  0  0  0
 25 28  1  0  0  0  0
M  END
$$$$

  -OEChem-03222214033D

 28 27  0     1  0  0  0  0  0999 V2000
   -3.3462   -3.7210    1.1812 H   0  0  0  0  0  0  0  0  0  0  0  0
   -3.2771   -2.7323    0.7187 C   0  0  0  0  0  0  0  0  0  0  0  0
   -3.9257   -2.0423    1.2640 H   0  0  0  0  0  0  0  0  0  0  0  0
   -3.6192   -2.8027   -0.3167 H   0  0  0  0  0  0  0  0  0  0  0  0
   -1.8440   -2.2364    0.7573 C   0  0  0  0  0  0  0  0  0  0  0  0
   -0.9689   -2.9376    1.2376 O   0  0  0  0  0  0  0  0  0  0  0  0
   -1.5380   -0.9962    0.2382 N   0  0  0  0  0  0  0  0  0  0  0  0
   -2.3189   -0.4129   -0.0588 H   0  0  0  0  0  0  0  0  0  0  0  0
   -0.2320   -0.3316    0.3599 C   0  0  1  0  0  0  0  0  0  0  0  0
    0.3452   -0.8145    1.1541 H   0  0  0  0  0  0  0  0  0  0  0  0
    0.4888   -0.5051   -0.9937 C   0  0  0  0  0  0  0  0  0  0  0  0
    0.5724   -1.5840   -1.1650 H   0  0  0  0  0  0  0  0  0  0  0  0
   -0.1573   -0.1061   -1.7834 H   0  0  0  0  0  0  0  0  0  0  0  0
    1.9107    0.0969   -1.1864 C   0  0  0  0  0  0  0  0  0  0  0  0
    2.5175   -0.6187   -1.7472 H   0  0  0  0  0  0  0  0  0  0  0  0
    1.7970    0.9815   -1.8201 H   0  0  0  0  0  0  0  0  0  0  0  0
    2.7362    0.5470    0.0225 C   0  0  0  0  0  0  0  0  0  0  0  0
    2.6687   -0.0518    1.0811 O   0  0  0  0  0  0  0  0  0  0  0  0
    3.5373    1.6176   -0.1625 O   0  0  0  0  0  0  0  0  0  0  0  0
    4.0036    1.7404    0.6782 H   0  0  0  0  0  0  0  0  0  0  0  0
   -0.4261    1.1487    0.7468 C   0  0  0  0  0  0  0  0  0  0  0  0
   -1.3020    1.8107    0.2013 O   0  0  0  0  0  0  0  0  0  0  0  0
    0.3499    1.7244    1.7335 N   0  0  0  0  0  0  0  0  0  0  0  0
    1.1006    1.1508    2.1193 H   0  0  0  0  0  0  0  0  0  0  0  0
    0.2410    3.1211    2.1336 C   0  0  0  0  0  0  0  0  0  0  0  0
   -0.7749    3.3434    2.4771 H   0  0  0  0  0  0  0  0  0  0  0  0
    0.9355    3.3354    2.9517 H   0  0  0  0  0  0  0  0  0  0  0  0
    0.4810    3.7797    1.2923 H   0  0  0  0  0  0  0  0  0  0  0  0
  1  2  1  0  0  0  0
  2  3  1  0  0  0  0
  2  4  1  0  0  0  0
  2  5  1  0  0  0  0
  5  6  2  0  0  0  0
  5  7  1  0  0  0  0
  7  8  1  0  0  0  0
  7  9  1  0  0  0  0
  9 10  1  0  0  0  0
  9 11  1  0  0  0  0
  9 21  1  0  0  0  0
 11 12  1  0  0  0  0
 11 13  1  0  0  0  0
 11 14  1  0  0  0  0
 14 15  1  0  0  0  0
 14 16  1  0  0  0  0
 14 17  1  0  0  0  0
 17 18  2  0  0  0  0
 17 19  1  0  0  0  0
 19 20  1  0  0  0  0
 21 22  2  0  0  0  0
 21 23  1  0  0  0  0
 23 24  1  0  0  0  0
 23 25  1  0  0  0  0
 25 26  1  0  0  0  0
 25 27  1  0  0  0  0
 25 28  1  0  0  0  0
M  END
$$$$

  -OEChem-03222214033D

 28 27  0     1  0  0  0  0  0999 V2000
   -3.3157   -3.7501    1.1846 H   0  0  0  0  0  0  0  0  0  0  0  0
   -3.2604   -2.7552    0.7340 C   0  0  0  0  0  0  0  0  0  0  0  0
   -3.8968   -2.0744    1.3047 H   0  0  0  0  0  0  0  0  0  0  0  0
   -3.6279   -2.8127   -0.2934 H   0  0  0  0  0  0  0  0  0  0  0  0
   -1.8283   -2.2553    0.7448 C   0  0  0  0  0  0  0  0  0  0  0  0
   -0.9414   -2.9556    1.2050 O   0  0  0  0  0  0  0  0  0  0  0  0
   -1.5372   -1.0107    0.2277 N   0  0  0  0  0  0  0  0  0  0  0  0
   -2.3270   -0.4283   -0.0470 H   0  0  0  0  0  0  0  0  0  0  0  0
   -0.2403   -0.3306    0.3613 C   0  0  1  0  0  0  0  0  0  0  0  0
    0.3317   -0.8110    1.1599 H   0  0  0  0  0  0  0  0  0  0  0  0
    0.4967   -0.4724   -0.9857 C   0  0  0  0  0  0  0  0  0  0  0  0
    0.6001   -1.5482   -1.1655 H   0  0  0  0  0  0  0  0  0  0  0  0
   -0.1474   -0.0760   -1.7782 H   0  0  0  0  0  0  0  0  0  0  0  0
    1.9121    0.1512   -1.1616 C   0  0  0  0  0  0  0  0  0  0  0  0
    2.4276   -0.4103   -1.9453 H   0  0  0  0  0  0  0  0  0  0  0  0
    1.7662    1.1662   -1.5417 H   0  0  0  0  0  0  0  0  0  0  0  0
    2.8919    0.2958    0.0115 C   0  0  0  0  0  0  0  0  0  0  0  0
    2.5646    0.0726    1.1629 O   0  0  0  0  0  0  0  0  0  0  0  0
    4.1363    0.6945   -0.3254 O   0  0  0  0  0  0  0  0  0  0  0  0
    4.6320    0.7198    0.5075 H   0  0  0  0  0  0  0  0  0  0  0  0
   -0.4617    1.1473    0.7479 C   0  0  0  0  0  0  0  0  0  0  0  0
   -1.3585    1.7868    0.2080 O   0  0  0  0  0  0  0  0  0  0  0  0
    0.2921    1.7402    1.7405 N   0  0  0  0  0  0  0  0  0  0  0  0
    1.0977    1.2067    2.0730 H   0  0  0  0  0  0  0  0  0  0  0  0
    0.1581    3.1380    2.1279 C   0  0  0  0  0  0  0  0  0  0  0  0
   -0.8694    3.3532    2.4400 H   0  0  0  0  0  0  0  0  0  0  0  0
    0.8254    3.3632    2.9653 H   0  0  0  0  0  0  0  0  0  0  0  0
    0.4169    3.7938    1.2902 H   0  0  0  0  0  0  0  0  0  0  0  0
  1  2  1  0  0  0  0
  2  3  1  0  0  0  0
  2  4  1  0  0  0  0
  2  5  1  0  0  0  0
  5  6  2  0  0  0  0
  5  7  1  0  0  0  0
  7  8  1  0  0  0  0
  7  9  1  0  0  0  0
  9 10  1  0  0  0  0
  9 11  1  0  0  0  0
  9 21  1  0  0  0  0
 11 12  1  0  0  0  0
 11 13  1  0  0  0  0
 11 14  1  0  0  0  0
 14 15  1  0  0  0  0
 14 16  1  0  0  0  0
 14 17  1  0  0  0  0
 17 18  2  0  0  0  0
 17 19  1  0  0  0  0
 19 20  1  0  0  0  0
 21 22  2  0  0  0  0
 21 23  1  0  0  0  0
 23 24  1  0  0  0  0
 23 25  1  0  0  0  0
 25 26  1  0  0  0  0
 25 27  1  0  0  0  0
 25 28  1  0  0  0  0
M  END
$$$$

  -OEChem-03222214033D

 28 27  0     1  0  0  0  0  0999 V2000
   -3.0437   -3.8346    1.1964 H   0  0  0  0  0  0  0  0  0  0  0  0
   -3.0516   -2.8299    0.7642 C   0  0  0  0  0  0  0  0  0  0  0  0
   -3.6917   -2.1888    1.3753 H   0  0  0  0  0  0  0  0  0  0  0  0
   -3.4614   -2.8847   -0.2473 H   0  0  0  0  0  0  0  0  0  0  0  0
   -1.6434   -2.2674    0.7225 C   0  0  0  0  0  0  0  0  0  0  0  0
   -0.7052   -2.9351    1.1272 O   0  0  0  0  0  0  0  0  0  0  0  0
   -1.4263   -1.0010    0.2229 N   0  0  0  0  0  0  0  0  0  0  0  0
   -2.2489   -0.4369    0.0109 H   0  0  0  0  0  0  0  0  0  0  0  0
   -0.1463   -0.2844    0.3071 C   0  0  1  0  0  0  0  0  0  0  0  0
    0.5065   -0.7485    1.0539 H   0  0  0  0  0  0  0  0  0  0  0  0
    0.5060   -0.3349   -1.0896 C   0  0  0  0  0  0  0  0  0  0  0  0
    0.6403   -1.3897   -1.3541 H   0  0  0  0  0  0  0  0  0  0  0  0
   -0.1797    0.1013   -1.8242 H   0  0  0  0  0  0  0  0  0  0  0  0
    1.8778    0.3643   -1.2159 C   0  0  0  0  0  0  0  0  0  0  0  0
    2.3444    0.0761   -2.1618 H   0  0  0  0  0  0  0  0  0  0  0  0
    1.7276    1.4476   -1.2436 H   0  0  0  0  0  0  0  0  0  0  0  0
    2.8446    0.0480   -0.0761 C   0  0  0  0  0  0  0  0  0  0  0  0
    2.8406    0.7474    0.9224 O   0  0  0  0  0  0  0  0  0  0  0  0
    3.6557   -1.0194   -0.2297 O   0  0  0  0  0  0  0  0  0  0  0  0
    4.1712   -1.0772    0.5893 H   0  0  0  0  0  0  0  0  0  0  0  0
   -0.4376    1.1704    0.7485 C   0  0  0  0  0  0  0  0  0  0  0  0
   -1.4156    1.7508    0.2865 O   0  0  0  0  0  0  0  0  0  0  0  0
    0.3158    1.7951    1.7227 N   0  0  0  0  0  0  0  0  0  0  0  0
    1.2268    1.3752    1.9186 H   0  0  0  0  0  0  0  0  0  0  0  0
    0.0996    3.1792    2.1240 C   0  0  0  0  0  0  0  0  0  0  0  0
   -0.9259    3.3204    2.4813 H   0  0  0  0  0  0  0  0  0  0  0  0
    0.7850    3.4478    2.9338 H   0  0  0  0  0  0  0  0  0  0  0  0
    0.2756    3.8549    1.2805 H   0  0  0  0  0  0  0  0  0  0  0  0
  1  2  1  0  0  0  0
  2  3  1  0  0  0  0
  2  4  1  0  0  0  0
  2  5  1  0  0  0  0
  5  6  2  0  0  0  0
  5  7  1  0  0  0  0
  7  8  1  0  0  0  0
  7  9  1  0  0  0  0
  9 10  1  0  0  0  0
  9 11  1  0  0  0  0
  9 21  1  0  0  0  0
 11 12  1  0  0  0  0
 11 13  1  0  0  0  0
 11 14  1  0  0  0  0
 14 15  1  0  0  0  0
 14 16  1  0  0  0  0
 14 17  1  0  0  0  0
 17 18  2  0  0  0  0
 17 19  1  0  0  0  0
 19 20  1  0  0  0  0
 21 22  2  0  0  0  0
 21 23  1  0  0  0  0
 23 24  1  0  0  0  0
 23 25  1  0  0  0  0
 25 26  1  0  0  0  0
 25 27  1  0  0  0  0
 25 28  1  0  0  0  0
M  END
$$$$

  -OEChem-03222214033D

 28 27  0     1  0  0  0  0  0999 V2000
   -3.0217   -3.8653    1.1895 H   0  0  0  0  0  0  0  0  0  0  0  0
   -3.0498   -2.8596    0.7608 C   0  0  0  0  0  0  0  0  0  0  0  0
   -3.6916   -2.2300    1.3816 H   0  0  0  0  0  0  0  0  0  0  0  0
   -3.4706   -2.9167   -0.2460 H   0  0  0  0  0  0  0  0  0  0  0  0
   -1.6508   -2.2763    0.7046 C   0  0  0  0  0  0  0  0  0  0  0  0
   -0.6988   -2.9317    1.0971 O   0  0  0  0  0  0  0  0  0  0  0  0
   -1.4591   -1.0066    0.2021 N   0  0  0  0  0  0  0  0  0  0  0  0
   -2.2925   -0.4612   -0.0136 H   0  0  0  0  0  0  0  0  0  0  0  0
   -0.1898   -0.2700    0.2653 C   0  0  1  0  0  0  0  0  0  0  0  0
    0.4533   -0.7286    1.0237 H   0  0  0  0  0  0  0  0  0  0  0  0
    0.4999   -0.3653   -1.1090 C   0  0  0  0  0  0  0  0  0  0  0  0
    0.6577   -1.4224   -1.3509 H   0  0  0  0  0  0  0  0  0  0  0  0
   -0.1677    0.0514   -1.8709 H   0  0  0  0  0  0  0  0  0  0  0  0
    1.8534    0.3716   -1.1788 C   0  0  0  0  0  0  0  0  0  0  0  0
    2.2704    0.2548   -2.1826 H   0  0  0  0  0  0  0  0  0  0  0  0
    1.7150    1.4432   -1.0097 H   0  0  0  0  0  0  0  0  0  0  0  0
    2.8667   -0.1684   -0.1751 C   0  0  0  0  0  0  0  0  0  0  0  0
    2.8841    0.3194    0.9435 O   0  0  0  0  0  0  0  0  0  0  0  0
    3.6800   -1.1724   -0.5639 O   0  0  0  0  0  0  0  0  0  0  0  0
    4.2129   -1.3919    0.2158 H   0  0  0  0  0  0  0  0  0  0  0  0
   -0.4290    1.1891    0.7058 C   0  0  0  0  0  0  0  0  0  0  0  0
   -1.3936    1.8053    0.2660 O   0  0  0  0  0  0  0  0  0  0  0  0
    0.3835    1.7749    1.6571 N   0  0  0  0  0  0  0  0  0  0  0  0
    1.2517    1.2834    1.8800 H   0  0  0  0  0  0  0  0  0  0  0  0
    0.2294    3.1552    2.0970 C   0  0  0  0  0  0  0  0  0  0  0  0
   -0.7625    3.3094    2.5346 H   0  0  0  0  0  0  0  0  0  0  0  0
    0.9810    3.3947    2.8554 H   0  0  0  0  0  0  0  0  0  0  0  0
    0.3542    3.8431    1.2543 H   0  0  0  0  0  0  0  0  0  0  0  0
  1  2  1  0  0  0  0
  2  3  1  0  0  0  0
  2  4  1  0  0  0  0
  2  5  1  0  0  0  0
  5  6  2  0  0  0  0
  5  7  1  0  0  0  0
  7  8  1  0  0  0  0
  7  9  1  0  0  0  0
  9 10  1  0  0  0  0
  9 11  1  0  0  0  0
  9 21  1  0  0  0  0
 11 12  1  0  0  0  0
 11 13  1  0  0  0  0
 11 14  1  0  0  0  0
 14 15  1  0  0  0  0
 14 16  1  0  0  0  0
 14 17  1  0  0  0  0
 17 18  2  0  0  0  0
 17 19  1  0  0  0  0
 19 20  1  0  0  0  0
 21 22  2  0  0  0  0
 21 23  1  0  0  0  0
 23 24  1  0  0  0  0
 23 25  1  0  0  0  0
 25 26  1  0  0  0  0
 25 27  1  0  0  0  0
 25 28  1  0  0  0  0
M  END
$$$$

  -OEChem-03222214033D

 28 27  0     1  0  0  0  0  0999 V2000
   -3.0240   -3.8726    1.1438 H   0  0  0  0  0  0  0  0  0  0  0  0
   -3.0519   -2.8648    0.7201 C   0  0  0  0  0  0  0  0  0  0  0  0
   -3.7078   -2.2427    1.3338 H   0  0  0  0  0  0  0  0  0  0  0  0
   -3.4561   -2.9199   -0.2936 H   0  0  0  0  0  0  0  0  0  0  0  0
   -1.6563   -2.2712    0.6891 C   0  0  0  0  0  0  0  0  0  0  0  0
   -0.7061   -2.9207    1.0949 O   0  0  0  0  0  0  0  0  0  0  0  0
   -1.4665   -0.9993    0.1914 N   0  0  0  0  0  0  0  0  0  0  0  0
   -2.3004   -0.4629   -0.0432 H   0  0  0  0  0  0  0  0  0  0  0  0
   -0.2002   -0.2572    0.2533 C   0  0  1  0  0  0  0  0  0  0  0  0
    0.4411   -0.7132    1.0152 H   0  0  0  0  0  0  0  0  0  0  0  0
    0.5064   -0.3819   -1.1092 C   0  0  0  0  0  0  0  0  0  0  0  0
    0.6635   -1.4408   -1.3450 H   0  0  0  0  0  0  0  0  0  0  0  0
   -0.1528    0.0328   -1.8794 H   0  0  0  0  0  0  0  0  0  0  0  0
    1.8539    0.3649   -1.1615 C   0  0  0  0  0  0  0  0  0  0  0  0
    2.1764    0.4298   -2.2042 H   0  0  0  0  0  0  0  0  0  0  0  0
    1.7674    1.3899   -0.7923 H   0  0  0  0  0  0  0  0  0  0  0  0
    2.9345   -0.3793   -0.3918 C   0  0  0  0  0  0  0  0  0  0  0  0
    3.0646   -0.1075    0.7902 O   0  0  0  0  0  0  0  0  0  0  0  0
    3.6770   -1.3051   -1.0343 O   0  0  0  0  0  0  0  0  0  0  0  0
    4.2683   -1.6728   -0.3595 H   0  0  0  0  0  0  0  0  0  0  0  0
   -0.4228    1.2012    0.6967 C   0  0  0  0  0  0  0  0  0  0  0  0
   -1.3700    1.8383    0.2507 O   0  0  0  0  0  0  0  0  0  0  0  0
    0.4072    1.7689    1.6450 N   0  0  0  0  0  0  0  0  0  0  0  0
    1.2203    1.2263    1.9370 H   0  0  0  0  0  0  0  0  0  0  0  0
    0.2661    3.1404    2.1158 C   0  0  0  0  0  0  0  0  0  0  0  0
   -0.7102    3.2836    2.5907 H   0  0  0  0  0  0  0  0  0  0  0  0
    1.0440    3.3694    2.8506 H   0  0  0  0  0  0  0  0  0  0  0  0
    0.3592    3.8437    1.2816 H   0  0  0  0  0  0  0  0  0  0  0  0
  1  2  1  0  0  0  0
  2  3  1  0  0  0  0
  2  4  1  0  0  0  0
  2  5  1  0  0  0  0
  5  6  2  0  0  0  0
  5  7  1  0  0  0  0
  7  8  1  0  0  0  0
  7  9  1  0  0  0  0
  9 10  1  0  0  0  0
  9 11  1  0  0  0  0
  9 21  1  0  0  0  0
 11 12  1  0  0  0  0
 11 13  1  0  0  0  0
 11 14  1  0  0  0  0
 14 15  1  0  0  0  0
 14 16  1  0  0  0  0
 14 17  1  0  0  0  0
 17 18  2  0  0  0  0
 17 19  1  0  0  0  0
 19 20  1  0  0  0  0
 21 22  2  0  0  0  0
 21 23  1  0  0  0  0
 23 24  1  0  0  0  0
 23 25  1  0  0  0  0
 25 26  1  0  0  0  0
 25 27  1  0  0  0  0
 25 28  1  0  0  0  0
M  END
$$$$

  -OEChem-03222214033D

 28 27  0     1  0  0  0  0  0999 V2000
   -3.0506   -3.8297    1.1261 H   0  0  0  0  0  0  0  0  0  0  0  0
   -3.0561   -2.8298    0.6829 C   0  0  0  0  0  0  0  0  0  0  0  0
   -3.7269   -2.1915    1.2631 H   0  0  0  0  0  0  0  0  0  0  0  0
   -3.4270   -2.9007   -0.3425 H   0  0  0  0  0  0  0  0  0  0  0  0
   -1.6551   -2.2488    0.6874 C   0  0  0  0  0  0  0  0  0  0  0  0
   -0.7246   -2.9010    1.1318 O   0  0  0  0  0  0  0  0  0  0  0  0
   -1.4373   -0.9829    0.1862 N   0  0  0  0  0  0  0  0  0  0  0  0
   -2.2567   -0.4403   -0.0834 H   0  0  0  0  0  0  0  0  0  0  0  0
   -0.1622   -0.2583    0.2728 C   0  0  1  0  0  0  0  0  0  0  0  0
    0.4774   -0.7162    1.0358 H   0  0  0  0  0  0  0  0  0  0  0  0
    0.5395   -0.3835   -1.0920 C   0  0  0  0  0  0  0  0  0  0  0  0
    0.6641   -1.4418   -1.3490 H   0  0  0  0  0  0  0  0  0  0  0  0
   -0.1147    0.0599   -1.8505 H   0  0  0  0  0  0  0  0  0  0  0  0
    1.9023    0.3358   -1.1485 C   0  0  0  0  0  0  0  0  0  0  0  0
    2.0982    0.6315   -2.1827 H   0  0  0  0  0  0  0  0  0  0  0  0
    1.9190    1.2489   -0.5498 H   0  0  0  0  0  0  0  0  0  0  0  0
    3.0311   -0.5905   -0.7221 C   0  0  0  0  0  0  0  0  0  0  0  0
    3.3979   -0.5322    0.4380 O   0  0  0  0  0  0  0  0  0  0  0  0
    3.5597   -1.4355   -1.6323 O   0  0  0  0  0  0  0  0  0  0  0  0
    4.2305   -1.9419   -1.1487 H   0  0  0  0  0  0  0  0  0  0  0  0
   -0.4040    1.2024    0.7043 C   0  0  0  0  0  0  0  0  0  0  0  0
   -1.3308    1.8377    0.2150 O   0  0  0  0  0  0  0  0  0  0  0  0
    0.3903    1.7866    1.6733 N   0  0  0  0  0  0  0  0  0  0  0  0
    1.1407    1.2239    2.0694 H   0  0  0  0  0  0  0  0  0  0  0  0
    0.1954    3.1479    2.1566 C   0  0  0  0  0  0  0  0  0  0  0  0
   -0.7818    3.2453    2.6409 H   0  0  0  0  0  0  0  0  0  0  0  0
    0.9704    3.4050    2.8852 H   0  0  0  0  0  0  0  0  0  0  0  0
    0.2509    3.8615    1.3277 H   0  0  0  0  0  0  0  0  0  0  0  0
  1  2  1  0  0  0  0
  2  3  1  0  0  0  0
  2  4  1  0  0  0  0
  2  5  1  0  0  0  0
  5  6  2  0  0  0  0
  5  7  1  0  0  0  0
  7  8  1  0  0  0  0
  7  9  1  0  0  0  0
  9 10  1  0  0  0  0
  9 11  1  0  0  0  0
  9 21  1  0  0  0  0
 11 12  1  0  0  0  0
 11 13  1  0  0  0  0
 11 14  1  0  0  0  0
 14 15  1  0  0  0  0
 14 16  1  0  0  0  0
 14 17  1  0  0  0  0
 17 18  2  0  0  0  0
 17 19  1  0  0  0  0
 19 20  1  0  0  0  0
 21 22  2  0  0  0  0
 21 23  1  0  0  0  0
 23 24  1  0  0  0  0
 23 25  1  0  0  0  0
 25 26  1  0  0  0  0
 25 27  1  0  0  0  0
 25 28  1  0  0  0  0
M  END
$$$$

  -OEChem-03222214033D

 28 27  0     1  0  0  0  0  0999 V2000
   -3.0843   -3.8126    1.0618 H   0  0  0  0  0  0  0  0  0  0  0  0
   -3.0702   -2.8088    0.6280 C   0  0  0  0  0  0  0  0  0  0  0  0
   -3.7620   -2.1738    1.1865 H   0  0  0  0  0  0  0  0  0  0  0  0
   -3.4001   -2.8700   -0.4119 H   0  0  0  0  0  0  0  0  0  0  0  0
   -1.6691   -2.2315    0.6929 C   0  0  0  0  0  0  0  0  0  0  0  0
   -0.7616   -2.8816    1.1853 O   0  0  0  0  0  0  0  0  0  0  0  0
   -1.4236   -0.9712    0.1907 N   0  0  0  0  0  0  0  0  0  0  0  0
   -2.2265   -0.4262   -0.1207 H   0  0  0  0  0  0  0  0  0  0  0  0
   -0.1402   -0.2636    0.2959 C   0  0  1  0  0  0  0  0  0  0  0  0
    0.4918   -0.7286    1.0607 H   0  0  0  0  0  0  0  0  0  0  0  0
    0.5598   -0.3860   -1.0701 C   0  0  0  0  0  0  0  0  0  0  0  0
    0.6624   -1.4456   -1.3316 H   0  0  0  0  0  0  0  0  0  0  0  0
   -0.0881    0.0698   -1.8269 H   0  0  0  0  0  0  0  0  0  0  0  0
    1.9367    0.3111   -1.1282 C   0  0  0  0  0  0  0  0  0  0  0  0
    2.0175    0.8534   -2.0740 H   0  0  0  0  0  0  0  0  0  0  0  0
    2.0642    1.0425   -0.3276 H   0  0  0  0  0  0  0  0  0  0  0  0
    3.0785   -0.6953   -1.0815 C   0  0  0  0  0  0  0  0  0  0  0  0
    3.7281   -0.7707   -0.0546 O   0  0  0  0  0  0  0  0  0  0  0  0
    3.3174   -1.4542   -2.1721 O   0  0  0  0  0  0  0  0  0  0  0  0
    4.0593   -2.0266   -1.9225 H   0  0  0  0  0  0  0  0  0  0  0  0
   -0.3821    1.2011    0.7177 C   0  0  0  0  0  0  0  0  0  0  0  0
   -1.2886    1.8418    0.1982 O   0  0  0  0  0  0  0  0  0  0  0  0
    0.3931    1.7899    1.6997 N   0  0  0  0  0  0  0  0  0  0  0  0
    1.0981    1.2130    2.1525 H   0  0  0  0  0  0  0  0  0  0  0  0
    0.1750    3.1475    2.1839 C   0  0  0  0  0  0  0  0  0  0  0  0
   -0.8061    3.2291    2.6633 H   0  0  0  0  0  0  0  0  0  0  0  0
    0.9423    3.4160    2.9164 H   0  0  0  0  0  0  0  0  0  0  0  0
    0.2239    3.8633    1.3563 H   0  0  0  0  0  0  0  0  0  0  0  0
  1  2  1  0  0  0  0
  2  3  1  0  0  0  0
  2  4  1  0  0  0  0
  2  5  1  0  0  0  0
  5  6  2  0  0  0  0
  5  7  1  0  0  0  0
  7  8  1  0  0  0  0
  7  9  1  0  0  0  0
  9 10  1  0  0  0  0
  9 11  1  0  0  0  0
  9 21  1  0  0  0  0
 11 12  1  0  0  0  0
 11 13  1  0  0  0  0
 11 14  1  0  0  0  0
 14 15  1  0  0  0  0
 14 16  1  0  0  0  0
 14 17  1  0  0  0  0
 17 18  2  0  0  0  0
 17 19  1  0  0  0  0
 19 20  1  0  0  0  0
 21 22  2  0  0  0  0
 21 23  1  0  0  0  0
 23 24  1  0  0  0  0
 23 25  1  0  0  0  0
 25 26  1  0  0  0  0
 25 27  1  0  0  0  0
 25 28  1  0  0  0  0
M  END
$$$$

  -OEChem-03222214033D

 28 27  0     1  0  0  0  0  0999 V2000
   -3.2279   -3.7565    1.2506 H   0  0  0  0  0  0  0  0  0  0  0  0
   -3.1875   -2.7760    0.7678 C   0  0  0  0  0  0  0  0  0  0  0  0
   -3.8737   -2.1004    1.2843 H   0  0  0  0  0  0  0  0  0  0  0  0
   -3.5050   -2.8828   -0.2723 H   0  0  0  0  0  0  0  0  0  0  0  0
   -1.7755   -2.2241    0.8238 C   0  0  0  0  0  0  0  0  0  0  0  0
   -0.8923   -2.8601    1.3753 O   0  0  0  0  0  0  0  0  0  0  0  0
   -1.4995   -0.9902    0.2735 N   0  0  0  0  0  0  0  0  0  0  0  0
   -2.2837   -0.4490   -0.0871 H   0  0  0  0  0  0  0  0  0  0  0  0
   -0.1860   -0.3322    0.3032 C   0  0  1  0  0  0  0  0  0  0  0  0
    0.4690   -0.8066    1.0418 H   0  0  0  0  0  0  0  0  0  0  0  0
    0.4336   -0.4874   -1.0993 C   0  0  0  0  0  0  0  0  0  0  0  0
    0.4658   -1.5540   -1.3433 H   0  0  0  0  0  0  0  0  0  0  0  0
   -0.2328   -0.0201   -1.8325 H   0  0  0  0  0  0  0  0  0  0  0  0
    1.8393    0.1610   -1.2327 C   0  0  0  0  0  0  0  0  0  0  0  0
    1.7866    0.9428   -1.9955 H   0  0  0  0  0  0  0  0  0  0  0  0
    2.1274    0.6452   -0.2980 H   0  0  0  0  0  0  0  0  0  0  0  0
    2.9922   -0.7734   -1.6116 C   0  0  0  0  0  0  0  0  0  0  0  0
    2.8340   -1.9791   -1.6624 O   0  0  0  0  0  0  0  0  0  0  0  0
    4.1769   -0.1797   -1.8656 O   0  0  0  0  0  0  0  0  0  0  0  0
    4.7789   -0.9087   -2.0823 H   0  0  0  0  0  0  0  0  0  0  0  0
   -0.3583    1.1525    0.6903 C   0  0  0  0  0  0  0  0  0  0  0  0
   -1.2435    1.8197    0.1674 O   0  0  0  0  0  0  0  0  0  0  0  0
    0.4761    1.7428    1.6219 N   0  0  0  0  0  0  0  0  0  0  0  0
    1.1365    1.1421    2.1080 H   0  0  0  0  0  0  0  0  0  0  0  0
    0.3258    3.1248    2.0623 C   0  0  0  0  0  0  0  0  0  0  0  0
   -0.6576    3.2770    2.5199 H   0  0  0  0  0  0  0  0  0  0  0  0
    1.0933    3.3723    2.8018 H   0  0  0  0  0  0  0  0  0  0  0  0
    0.4298    3.8107    1.2148 H   0  0  0  0  0  0  0  0  0  0  0  0
  1  2  1  0  0  0  0
  2  3  1  0  0  0  0
  2  4  1  0  0  0  0
  2  5  1  0  0  0  0
  5  6  2  0  0  0  0
  5  7  1  0  0  0  0
  7  8  1  0  0  0  0
  7  9  1  0  0  0  0
  9 10  1  0  0  0  0
  9 11  1  0  0  0  0
  9 21  1  0  0  0  0
 11 12  1  0  0  0  0
 11 13  1  0  0  0  0
 11 14  1  0  0  0  0
 14 15  1  0  0  0  0
 14 16  1  0  0  0  0
 14 17  1  0  0  0  0
 17 18  2  0  0  0  0
 17 19  1  0  0  0  0
 19 20  1  0  0  0  0
 21 22  2  0  0  0  0
 21 23  1  0  0  0  0
 23 24  1  0  0  0  0
 23 25  1  0  0  0  0
 25 26  1  0  0  0  0
 25 27  1  0  0  0  0
 25 28  1  0  0  0  0
M  END
$$$$

  -OEChem-03222214033D

 28 27  0     1  0  0  0  0  0999 V2000
   -3.0696   -3.8096    1.3043 H   0  0  0  0  0  0  0  0  0  0  0  0
   -3.0783   -2.8266    0.8250 C   0  0  0  0  0  0  0  0  0  0  0  0
   -3.7476   -2.1680    1.3837 H   0  0  0  0  0  0  0  0  0  0  0  0
   -3.4530   -2.9358   -0.1955 H   0  0  0  0  0  0  0  0  0  0  0  0
   -1.6780   -2.2439    0.8026 C   0  0  0  0  0  0  0  0  0  0  0  0
   -0.7452   -2.8729    1.2758 O   0  0  0  0  0  0  0  0  0  0  0  0
   -1.4624   -0.9957    0.2577 N   0  0  0  0  0  0  0  0  0  0  0  0
   -2.2785   -0.4665   -0.0461 H   0  0  0  0  0  0  0  0  0  0  0  0
   -0.1718   -0.2944    0.2585 C   0  0  1  0  0  0  0  0  0  0  0  0
    0.5128   -0.7531    0.9798 H   0  0  0  0  0  0  0  0  0  0  0  0
    0.4217   -0.4211   -1.1554 C   0  0  0  0  0  0  0  0  0  0  0  0
    0.5265   -1.4896   -1.3772 H   0  0  0  0  0  0  0  0  0  0  0  0
   -0.2735   -0.0048   -1.8929 H   0  0  0  0  0  0  0  0  0  0  0  0
    1.7932    0.2758   -1.3025 C   0  0  0  0  0  0  0  0  0  0  0  0
    1.6727    1.2273   -1.8277 H   0  0  0  0  0  0  0  0  0  0  0  0
    2.2150    0.4942   -0.3184 H   0  0  0  0  0  0  0  0  0  0  0  0
    2.8111   -0.5819   -2.0486 C   0  0  0  0  0  0  0  0  0  0  0  0
    2.5191   -1.0163   -3.1480 O   0  0  0  0  0  0  0  0  0  0  0  0
    3.9973   -0.8192   -1.4489 O   0  0  0  0  0  0  0  0  0  0  0  0
    4.4847   -1.3779   -2.0743 H   0  0  0  0  0  0  0  0  0  0  0  0
   -0.3683    1.1817    0.6645 C   0  0  0  0  0  0  0  0  0  0  0  0
   -1.2970    1.8249    0.1901 O   0  0  0  0  0  0  0  0  0  0  0  0
    0.4796    1.7842    1.5762 N   0  0  0  0  0  0  0  0  0  0  0  0
    1.1783    1.1992    2.0262 H   0  0  0  0  0  0  0  0  0  0  0  0
    0.2976    3.1516    2.0493 C   0  0  0  0  0  0  0  0  0  0  0  0
   -0.6530    3.2489    2.5844 H   0  0  0  0  0  0  0  0  0  0  0  0
    1.1084    3.4280    2.7304 H   0  0  0  0  0  0  0  0  0  0  0  0
    0.3013    3.8528    1.2080 H   0  0  0  0  0  0  0  0  0  0  0  0
  1  2  1  0  0  0  0
  2  3  1  0  0  0  0
  2  4  1  0  0  0  0
  2  5  1  0  0  0  0
  5  6  2  0  0  0  0
  5  7  1  0  0  0  0
  7  8  1  0  0  0  0
  7  9  1  0  0  0  0
  9 10  1  0  0  0  0
  9 11  1  0  0  0  0
  9 21  1  0  0  0  0
 11 12  1  0  0  0  0
 11 13  1  0  0  0  0
 11 14  1  0  0  0  0
 14 15  1  0  0  0  0
 14 16  1  0  0  0  0
 14 17  1  0  0  0  0
 17 18  2  0  0  0  0
 17 19  1  0  0  0  0
 19 20  1  0  0  0  0
 21 22  2  0  0  0  0
 21 23  1  0  0  0  0
 23 24  1  0  0  0  0
 23 25  1  0  0  0  0
 25 26  1  0  0  0  0
 25 27  1  0  0  0  0
 25 28  1  0  0  0  0
M  END
$$$$

  -OEChem-03222214033D

 28 27  0     1  0  0  0  0  0999 V2000
   -3.1110   -3.8076    1.2862 H   0  0  0  0  0  0  0  0  0  0  0  0
   -3.1114   -2.8236    0.8090 C   0  0  0  0  0  0  0  0  0  0  0  0
   -3.7852   -2.1646    1.3619 H   0  0  0  0  0  0  0  0  0  0  0  0
   -3.4749   -2.9294   -0.2161 H   0  0  0  0  0  0  0  0  0  0  0  0
   -1.7091   -2.2451    0.8035 C   0  0  0  0  0  0  0  0  0  0  0  0
   -0.7842   -2.8743    1.2920 O   0  0  0  0  0  0  0  0  0  0  0  0
   -1.4831   -0.9986    0.2592 N   0  0  0  0  0  0  0  0  0  0  0  0
   -2.2926   -0.4705   -0.0637 H   0  0  0  0  0  0  0  0  0  0  0  0
   -0.1884   -0.3051    0.2640 C   0  0  1  0  0  0  0  0  0  0  0  0
    0.4901   -0.7681    0.9883 H   0  0  0  0  0  0  0  0  0  0  0  0
    0.4120   -0.4328   -1.1462 C   0  0  0  0  0  0  0  0  0  0  0  0
    0.5230   -1.5016   -1.3628 H   0  0  0  0  0  0  0  0  0  0  0  0
   -0.2750   -0.0170   -1.8918 H   0  0  0  0  0  0  0  0  0  0  0  0
    1.7859    0.2602   -1.2730 C   0  0  0  0  0  0  0  0  0  0  0  0
    1.6515    1.3127   -1.5370 H   0  0  0  0  0  0  0  0  0  0  0  0
    2.3053    0.2207   -0.3120 H   0  0  0  0  0  0  0  0  0  0  0  0
    2.7021   -0.3992   -2.3015 C   0  0  0  0  0  0  0  0  0  0  0  0
    2.2233   -0.8500   -3.3267 O   0  0  0  0  0  0  0  0  0  0  0  0
    4.0220   -0.4408   -2.0216 O   0  0  0  0  0  0  0  0  0  0  0  0
    4.4243   -0.8875   -2.7827 H   0  0  0  0  0  0  0  0  0  0  0  0
   -0.3718    1.1724    0.6682 C   0  0  0  0  0  0  0  0  0  0  0  0
   -1.2887    1.8276    0.1874 O   0  0  0  0  0  0  0  0  0  0  0  0
    0.4811    1.7646    1.5815 N   0  0  0  0  0  0  0  0  0  0  0  0
    1.1691    1.1706    2.0361 H   0  0  0  0  0  0  0  0  0  0  0  0
    0.3205    3.1376    2.0454 C   0  0  0  0  0  0  0  0  0  0  0  0
   -0.6387    3.2587    2.5597 H   0  0  0  0  0  0  0  0  0  0  0  0
    1.1227    3.3984    2.7425 H   0  0  0  0  0  0  0  0  0  0  0  0
    0.3575    3.8344    1.2013 H   0  0  0  0  0  0  0  0  0  0  0  0
  1  2  1  0  0  0  0
  2  3  1  0  0  0  0
  2  4  1  0  0  0  0
  2  5  1  0  0  0  0
  5  6  2  0  0  0  0
  5  7  1  0  0  0  0
  7  8  1  0  0  0  0
  7  9  1  0  0  0  0
  9 10  1  0  0  0  0
  9 11  1  0  0  0  0
  9 21  1  0  0  0  0
 11 12  1  0  0  0  0
 11 13  1  0  0  0  0
 11 14  1  0  0  0  0
 14 15  1  0  0  0  0
 14 16  1  0  0  0  0
 14 17  1  0  0  0  0
 17 18  2  0  0  0  0
 17 19  1  0  0  0  0
 19 20  1  0  0  0  0
 21 22  2  0  0  0  0
 21 23  1  0  0  0  0
 23 24  1  0  0  0  0
 23 25  1  0  0  0  0
 25 26  1  0  0  0  0
 25 27  1  0  0  0  0
 25 28  1  0  0  0  0
M  END
$$$$

  -OEChem-03222214033D

 28 27  0     1  0  0  0  0  0999 V2000
   -3.1441   -3.7976    1.2684 H   0  0  0  0  0  0  0  0  0  0  0  0
   -3.1364   -2.8120    0.7946 C   0  0  0  0  0  0  0  0  0  0  0  0
   -3.8100   -2.1510    1.3453 H   0  0  0  0  0  0  0  0  0  0  0  0
   -3.4940   -2.9126   -0.2330 H   0  0  0  0  0  0  0  0  0  0  0  0
   -1.7314   -2.2407    0.7996 C   0  0  0  0  0  0  0  0  0  0  0  0
   -0.8130   -2.8756    1.2932 O   0  0  0  0  0  0  0  0  0  0  0  0
   -1.4955   -0.9950    0.2580 N   0  0  0  0  0  0  0  0  0  0  0  0
   -2.2997   -0.4636   -0.0720 H   0  0  0  0  0  0  0  0  0  0  0  0
   -0.1969   -0.3096    0.2685 C   0  0  1  0  0  0  0  0  0  0  0  0
    0.4740   -0.7763    0.9972 H   0  0  0  0  0  0  0  0  0  0  0  0
    0.4110   -0.4502   -1.1372 C   0  0  0  0  0  0  0  0  0  0  0  0
    0.5185   -1.5188   -1.3569 H   0  0  0  0  0  0  0  0  0  0  0  0
   -0.2708   -0.0262   -1.8833 H   0  0  0  0  0  0  0  0  0  0  0  0
    1.7894    0.2333   -1.2572 C   0  0  0  0  0  0  0  0  0  0  0  0
    1.6674    1.3198   -1.2763 H   0  0  0  0  0  0  0  0  0  0  0  0
    2.3972   -0.0231   -0.3857 H   0  0  0  0  0  0  0  0  0  0  0  0
    2.5761   -0.1835   -2.4996 C   0  0  0  0  0  0  0  0  0  0  0  0
    1.9988   -0.6901   -3.4453 O   0  0  0  0  0  0  0  0  0  0  0  0
    3.9059    0.0461   -2.4852 O   0  0  0  0  0  0  0  0  0  0  0  0
    4.2226   -0.2758   -3.3434 H   0  0  0  0  0  0  0  0  0  0  0  0
   -0.3718    1.1687    0.6739 C   0  0  0  0  0  0  0  0  0  0  0  0
   -1.2828    1.8304    0.1910 O   0  0  0  0  0  0  0  0  0  0  0  0
    0.4817    1.7546    1.5909 N   0  0  0  0  0  0  0  0  0  0  0  0
    1.1700    1.1578    2.0410 H   0  0  0  0  0  0  0  0  0  0  0  0
    0.3310    3.1289    2.0546 C   0  0  0  0  0  0  0  0  0  0  0  0
   -0.6300    3.2591    2.5636 H   0  0  0  0  0  0  0  0  0  0  0  0
    1.1315    3.3819    2.7566 H   0  0  0  0  0  0  0  0  0  0  0  0
    0.3800    3.8258    1.2112 H   0  0  0  0  0  0  0  0  0  0  0  0
  1  2  1  0  0  0  0
  2  3  1  0  0  0  0
  2  4  1  0  0  0  0
  2  5  1  0  0  0  0
  5  6  2  0  0  0  0
  5  7  1  0  0  0  0
  7  8  1  0  0  0  0
  7  9  1  0  0  0  0
  9 10  1  0  0  0  0
  9 11  1  0  0  0  0
  9 21  1  0  0  0  0
 11 12  1  0  0  0  0
 11 13  1  0  0  0  0
 11 14  1  0  0  0  0
 14 15  1  0  0  0  0
 14 16  1  0  0  0  0
 14 17  1  0  0  0  0
 17 18  2  0  0  0  0
 17 19  1  0  0  0  0
 19 20  1  0  0  0  0
 21 22  2  0  0  0  0
 21 23  1  0  0  0  0
 23 24  1  0  0  0  0
 23 25  1  0  0  0  0
 25 26  1  0  0  0  0
 25 27  1  0  0  0  0
 25 28  1  0  0  0  0
M  END
$$$$

  -OEChem-03222214033D

 28 27  0     1  0  0  0  0  0999 V2000
   -3.1914   -3.7771    1.2857 H   0  0  0  0  0  0  0  0  0  0  0  0
   -3.1739   -2.7985    0.7979 C   0  0  0  0  0  0  0  0  0  0  0  0
   -3.8392   -2.1229    1.3410 H   0  0  0  0  0  0  0  0  0  0  0  0
   -3.5355   -2.9095   -0.2272 H   0  0  0  0  0  0  0  0  0  0  0  0
   -1.7623   -2.2428    0.7913 C   0  0  0  0  0  0  0  0  0  0  0  0
   -0.8471   -2.8892    1.2761 O   0  0  0  0  0  0  0  0  0  0  0  0
   -1.5170   -0.9986    0.2497 N   0  0  0  0  0  0  0  0  0  0  0  0
   -2.3184   -0.4583   -0.0727 H   0  0  0  0  0  0  0  0  0  0  0  0
   -0.2137   -0.3209    0.2608 C   0  0  1  0  0  0  0  0  0  0  0  0
    0.4430   -0.7976    0.9959 H   0  0  0  0  0  0  0  0  0  0  0  0
    0.4100   -0.4644   -1.1379 C   0  0  0  0  0  0  0  0  0  0  0  0
    0.2889   -1.4993   -1.4777 H   0  0  0  0  0  0  0  0  0  0  0  0
   -0.1231    0.1800   -1.8467 H   0  0  0  0  0  0  0  0  0  0  0  0
    1.9137   -0.1199   -1.1378 C   0  0  0  0  0  0  0  0  0  0  0  0
    2.0570    0.9084   -0.7962 H   0  0  0  0  0  0  0  0  0  0  0  0
    2.4386   -0.7831   -0.4453 H   0  0  0  0  0  0  0  0  0  0  0  0
    2.5818   -0.2474   -2.5069 C   0  0  0  0  0  0  0  0  0  0  0  0
    1.9479   -0.6515   -3.4656 O   0  0  0  0  0  0  0  0  0  0  0  0
    3.8813    0.1090   -2.5808 O   0  0  0  0  0  0  0  0  0  0  0  0
    4.1267   -0.0344   -3.5080 H   0  0  0  0  0  0  0  0  0  0  0  0
   -0.3655    1.1600    0.6642 C   0  0  0  0  0  0  0  0  0  0  0  0
   -1.2777    1.8303    0.1957 O   0  0  0  0  0  0  0  0  0  0  0  0
    0.4990    1.7334    1.5787 N   0  0  0  0  0  0  0  0  0  0  0  0
    1.1869    1.1297    2.0200 H   0  0  0  0  0  0  0  0  0  0  0  0
    0.3727    3.1116    2.0374 C   0  0  0  0  0  0  0  0  0  0  0  0
   -0.5903    3.2633    2.5363 H   0  0  0  0  0  0  0  0  0  0  0  0
    1.1714    3.3495    2.7465 H   0  0  0  0  0  0  0  0  0  0  0  0
    0.4443    3.8041    1.1920 H   0  0  0  0  0  0  0  0  0  0  0  0
  1  2  1  0  0  0  0
  2  3  1  0  0  0  0
  2  4  1  0  0  0  0
  2  5  1  0  0  0  0
  5  6  2  0  0  0  0
  5  7  1  0  0  0  0
  7  8  1  0  0  0  0
  7  9  1  0  0  0  0
  9 10  1  0  0  0  0
  9 11  1  0  0  0  0
  9 21  1  0  0  0  0
 11 12  1  0  0  0  0
 11 13  1  0  0  0  0
 11 14  1  0  0  0  0
 14 15  1  0  0  0  0
 14 16  1  0  0  0  0
 14 17  1  0  0  0  0
 17 18  2  0  0  0  0
 17 19  1  0  0  0  0
 19 20  1  0  0  0  0
 21 22  2  0  0  0  0
 21 23  1  0  0  0  0
 23 24  1  0  0  0  0
 23 25  1  0  0  0  0
 25 26  1  0  0  0  0
 25 27  1  0  0  0  0
 25 28  1  0  0  0  0
M  END
$$$$

  -OEChem-03222214033D

 28 27  0     1  0  0  0  0  0999 V2000
   -3.2120   -3.7545    1.2823 H   0  0  0  0  0  0  0  0  0  0  0  0
   -3.1864   -2.7753    0.7963 C   0  0  0  0  0  0  0  0  0  0  0  0
   -3.8417   -2.0935    1.3437 H   0  0  0  0  0  0  0  0  0  0  0  0
   -3.5537   -2.8807   -0.2273 H   0  0  0  0  0  0  0  0  0  0  0  0
   -1.7693   -2.2341    0.7854 C   0  0  0  0  0  0  0  0  0  0  0  0
   -0.8598   -2.8888    1.2699 O   0  0  0  0  0  0  0  0  0  0  0  0
   -1.5123   -0.9924    0.2432 N   0  0  0  0  0  0  0  0  0  0  0  0
   -2.3091   -0.4426   -0.0750 H   0  0  0  0  0  0  0  0  0  0  0  0
   -0.2039   -0.3247    0.2607 C   0  0  1  0  0  0  0  0  0  0  0  0
    0.4472   -0.8038    0.9992 H   0  0  0  0  0  0  0  0  0  0  0  0
    0.4228   -0.4798   -1.1361 C   0  0  0  0  0  0  0  0  0  0  0  0
    0.2886   -1.5081   -1.4901 H   0  0  0  0  0  0  0  0  0  0  0  0
   -0.1066    0.1787   -1.8347 H   0  0  0  0  0  0  0  0  0  0  0  0
    1.9305   -0.1504   -1.1405 C   0  0  0  0  0  0  0  0  0  0  0  0
    2.1094    0.7711   -0.5815 H   0  0  0  0  0  0  0  0  0  0  0  0
    2.4839   -0.9545   -0.6481 H   0  0  0  0  0  0  0  0  0  0  0  0
    2.5117    0.0596   -2.5385 C   0  0  0  0  0  0  0  0  0  0  0  0
    1.9169   -0.3586   -3.5159 O   0  0  0  0  0  0  0  0  0  0  0  0
    3.6930    0.7077   -2.6162 O   0  0  0  0  0  0  0  0  0  0  0  0
    3.8965    0.7415   -3.5638 H   0  0  0  0  0  0  0  0  0  0  0  0
   -0.3547    1.1577    0.6621 C   0  0  0  0  0  0  0  0  0  0  0  0
   -1.2646    1.8280    0.1891 O   0  0  0  0  0  0  0  0  0  0  0  0
    0.5039    1.7312    1.5821 N   0  0  0  0  0  0  0  0  0  0  0  0
    1.1882    1.1273    2.0286 H   0  0  0  0  0  0  0  0  0  0  0  0
    0.3677    3.1062    2.0478 C   0  0  0  0  0  0  0  0  0  0  0  0
   -0.5976    3.2487    2.5450 H   0  0  0  0  0  0  0  0  0  0  0  0
    1.1629    3.3455    2.7604 H   0  0  0  0  0  0  0  0  0  0  0  0
    0.4371    3.8044    1.2069 H   0  0  0  0  0  0  0  0  0  0  0  0
  1  2  1  0  0  0  0
  2  3  1  0  0  0  0
  2  4  1  0  0  0  0
  2  5  1  0  0  0  0
  5  6  2  0  0  0  0
  5  7  1  0  0  0  0
  7  8  1  0  0  0  0
  7  9  1  0  0  0  0
  9 10  1  0  0  0  0
  9 11  1  0  0  0  0
  9 21  1  0  0  0  0
 11 12  1  0  0  0  0
 11 13  1  0  0  0  0
 11 14  1  0  0  0  0
 14 15  1  0  0  0  0
 14 16  1  0  0  0  0
 14 17  1  0  0  0  0
 17 18  2  0  0  0  0
 17 19  1  0  0  0  0
 19 20  1  0  0  0  0
 21 22  2  0  0  0  0
 21 23  1  0  0  0  0
 23 24  1  0  0  0  0
 23 25  1  0  0  0  0
 25 26  1  0  0  0  0
 25 27  1  0  0  0  0
 25 28  1  0  0  0  0
M  END
$$$$

  -OEChem-03222214033D

 28 27  0     1  0  0  0  0  0999 V2000
   -3.2389   -3.7382    1.2525 H   0  0  0  0  0  0  0  0  0  0  0  0
   -3.2011   -2.7506    0.7843 C   0  0  0  0  0  0  0  0  0  0  0  0
   -3.8491   -2.0708    1.3428 H   0  0  0  0  0  0  0  0  0  0  0  0
   -3.5680   -2.8324   -0.2416 H   0  0  0  0  0  0  0  0  0  0  0  0
   -1.7780   -2.2257    0.7835 C   0  0  0  0  0  0  0  0  0  0  0  0
   -0.8785   -2.8905    1.2726 O   0  0  0  0  0  0  0  0  0  0  0  0
   -1.5055   -0.9884    0.2395 N   0  0  0  0  0  0  0  0  0  0  0  0
   -2.2959   -0.4303   -0.0806 H   0  0  0  0  0  0  0  0  0  0  0  0
   -0.1917   -0.3322    0.2648 C   0  0  1  0  0  0  0  0  0  0  0  0
    0.4516   -0.8153    1.0077 H   0  0  0  0  0  0  0  0  0  0  0  0
    0.4387   -0.4965   -1.1293 C   0  0  0  0  0  0  0  0  0  0  0  0
    0.2926   -1.5210   -1.4891 H   0  0  0  0  0  0  0  0  0  0  0  0
   -0.0869    0.1695   -1.8240 H   0  0  0  0  0  0  0  0  0  0  0  0
    1.9508   -0.1836   -1.1387 C   0  0  0  0  0  0  0  0  0  0  0  0
    2.1832    0.5700   -0.3829 H   0  0  0  0  0  0  0  0  0  0  0  0
    2.5176   -1.0850   -0.8914 H   0  0  0  0  0  0  0  0  0  0  0  0
    2.4403    0.3640   -2.4779 C   0  0  0  0  0  0  0  0  0  0  0  0
    1.9778   -0.0849   -3.5114 O   0  0  0  0  0  0  0  0  0  0  0  0
    3.3843    1.3285   -2.4486 O   0  0  0  0  0  0  0  0  0  0  0  0
    3.5538    1.5392   -3.3801 H   0  0  0  0  0  0  0  0  0  0  0  0
   -0.3363    1.1528    0.6606 C   0  0  0  0  0  0  0  0  0  0  0  0
   -1.2409    1.8252    0.1802 O   0  0  0  0  0  0  0  0  0  0  0  0
    0.5175    1.7254    1.5858 N   0  0  0  0  0  0  0  0  0  0  0  0
    1.1985    1.1209    2.0366 H   0  0  0  0  0  0  0  0  0  0  0  0
    0.3861    3.1031    2.0456 C   0  0  0  0  0  0  0  0  0  0  0  0
   -0.5698    3.2459    2.5604 H   0  0  0  0  0  0  0  0  0  0  0  0
    1.1946    3.3490    2.7407 H   0  0  0  0  0  0  0  0  0  0  0  0
    0.4373    3.7968    1.1996 H   0  0  0  0  0  0  0  0  0  0  0  0
  1  2  1  0  0  0  0
  2  3  1  0  0  0  0
  2  4  1  0  0  0  0
  2  5  1  0  0  0  0
  5  6  2  0  0  0  0
  5  7  1  0  0  0  0
  7  8  1  0  0  0  0
  7  9  1  0  0  0  0
  9 10  1  0  0  0  0
  9 11  1  0  0  0  0
  9 21  1  0  0  0  0
 11 12  1  0  0  0  0
 11 13  1  0  0  0  0
 11 14  1  0  0  0  0
 14 15  1  0  0  0  0
 14 16  1  0  0  0  0
 14 17  1  0  0  0  0
 17 18  2  0  0  0  0
 17 19  1  0  0  0  0
 19 20  1  0  0  0  0
 21 22  2  0  0  0  0
 21 23  1  0  0  0  0
 23 24  1  0  0  0  0
 23 25  1  0  0  0  0
 25 26  1  0  0  0  0
 25 27  1  0  0  0  0
 25 28  1  0  0  0  0
M  END
$$$$

  -OEChem-03222214033D

 28 27  0     1  0  0  0  0  0999 V2000
   -3.2513   -3.7331    1.2362 H   0  0  0  0  0  0  0  0  0  0  0  0
   -3.2105   -2.7397    0.7809 C   0  0  0  0  0  0  0  0  0  0  0  0
   -3.8564   -2.0650    1.3481 H   0  0  0  0  0  0  0  0  0  0  0  0
   -3.5783   -2.8075   -0.2458 H   0  0  0  0  0  0  0  0  0  0  0  0
   -1.7854   -2.2203    0.7859 C   0  0  0  0  0  0  0  0  0  0  0  0
   -0.8893   -2.8920    1.2720 O   0  0  0  0  0  0  0  0  0  0  0  0
   -1.5045   -0.9857    0.2403 N   0  0  0  0  0  0  0  0  0  0  0  0
   -2.2914   -0.4212   -0.0771 H   0  0  0  0  0  0  0  0  0  0  0  0
   -0.1863   -0.3388    0.2626 C   0  0  1  0  0  0  0  0  0  0  0  0
    0.4544   -0.8272    1.0046 H   0  0  0  0  0  0  0  0  0  0  0  0
    0.4408   -0.5031   -1.1326 C   0  0  0  0  0  0  0  0  0  0  0  0
    0.2916   -1.5291   -1.4866 H   0  0  0  0  0  0  0  0  0  0  0  0
   -0.0871    0.1574   -1.8308 H   0  0  0  0  0  0  0  0  0  0  0  0
    1.9553   -0.1997   -1.1439 C   0  0  0  0  0  0  0  0  0  0  0  0
    2.2511    0.3203   -0.2300 H   0  0  0  0  0  0  0  0  0  0  0  0
    2.5187   -1.1360   -1.1823 H   0  0  0  0  0  0  0  0  0  0  0  0
    2.3665    0.6730   -2.3251 C   0  0  0  0  0  0  0  0  0  0  0  0
    2.0861    0.3061   -3.4519 O   0  0  0  0  0  0  0  0  0  0  0  0
    3.0256    1.8211   -2.0608 O   0  0  0  0  0  0  0  0  0  0  0  0
    3.1780    2.2258   -2.9288 H   0  0  0  0  0  0  0  0  0  0  0  0
   -0.3164    1.1480    0.6564 C   0  0  0  0  0  0  0  0  0  0  0  0
   -1.2200    1.8250    0.1804 O   0  0  0  0  0  0  0  0  0  0  0  0
    0.5439    1.7153    1.5785 N   0  0  0  0  0  0  0  0  0  0  0  0
    1.2340    1.1117    2.0160 H   0  0  0  0  0  0  0  0  0  0  0  0
    0.4333    3.0987    2.0258 C   0  0  0  0  0  0  0  0  0  0  0  0
   -0.5176    3.2588    2.5450 H   0  0  0  0  0  0  0  0  0  0  0  0
    1.2491    3.3405    2.7139 H   0  0  0  0  0  0  0  0  0  0  0  0
    0.4885    3.7837    1.1729 H   0  0  0  0  0  0  0  0  0  0  0  0
  1  2  1  0  0  0  0
  2  3  1  0  0  0  0
  2  4  1  0  0  0  0
  2  5  1  0  0  0  0
  5  6  2  0  0  0  0
  5  7  1  0  0  0  0
  7  8  1  0  0  0  0
  7  9  1  0  0  0  0
  9 10  1  0  0  0  0
  9 11  1  0  0  0  0
  9 21  1  0  0  0  0
 11 12  1  0  0  0  0
 11 13  1  0  0  0  0
 11 14  1  0  0  0  0
 14 15  1  0  0  0  0
 14 16  1  0  0  0  0
 14 17  1  0  0  0  0
 17 18  2  0  0  0  0
 17 19  1  0  0  0  0
 19 20  1  0  0  0  0
 21 22  2  0  0  0  0
 21 23  1  0  0  0  0
 23 24  1  0  0  0  0
 23 25  1  0  0  0  0
 25 26  1  0  0  0  0
 25 27  1  0  0  0  0
 25 28  1  0  0  0  0
M  END
$$$$

  -OEChem-03222214033D

 28 27  0     1  0  0  0  0  0999 V2000
   -3.2555   -3.7463    1.2421 H   0  0  0  0  0  0  0  0  0  0  0  0
   -3.2186   -2.7492    0.7943 C   0  0  0  0  0  0  0  0  0  0  0  0
   -3.8486   -2.0761    1.3809 H   0  0  0  0  0  0  0  0  0  0  0  0
   -3.6081   -2.8067   -0.2250 H   0  0  0  0  0  0  0  0  0  0  0  0
   -1.7903   -2.2380    0.7742 C   0  0  0  0  0  0  0  0  0  0  0  0
   -0.8881   -2.9236    1.2285 O   0  0  0  0  0  0  0  0  0  0  0  0
   -1.5120   -0.9976    0.2395 N   0  0  0  0  0  0  0  0  0  0  0  0
   -2.3027   -0.4197   -0.0426 H   0  0  0  0  0  0  0  0  0  0  0  0
   -0.1913   -0.3542    0.2587 C   0  0  1  0  0  0  0  0  0  0  0  0
    0.4504   -0.8548    0.9912 H   0  0  0  0  0  0  0  0  0  0  0  0
    0.4303   -0.4920   -1.1413 C   0  0  0  0  0  0  0  0  0  0  0  0
    0.2891   -1.5207   -1.4908 H   0  0  0  0  0  0  0  0  0  0  0  0
   -0.1016    0.1602   -1.8445 H   0  0  0  0  0  0  0  0  0  0  0  0
    1.9441   -0.1879   -1.1458 C   0  0  0  0  0  0  0  0  0  0  0  0
    2.3084    0.0380   -0.1409 H   0  0  0  0  0  0  0  0  0  0  0  0
    2.4892   -1.0692   -1.4958 H   0  0  0  0  0  0  0  0  0  0  0  0
    2.2840    0.9796   -2.0633 C   0  0  0  0  0  0  0  0  0  0  0  0
    2.2975    0.7935   -3.2661 O   0  0  0  0  0  0  0  0  0  0  0  0
    2.5396    2.1757   -1.4917 O   0  0  0  0  0  0  0  0  0  0  0  0
    2.6958    2.7788   -2.2351 H   0  0  0  0  0  0  0  0  0  0  0  0
   -0.3069    1.1291    0.6693 C   0  0  0  0  0  0  0  0  0  0  0  0
   -1.2081    1.8168    0.2037 O   0  0  0  0  0  0  0  0  0  0  0  0
    0.5649    1.6824    1.5888 N   0  0  0  0  0  0  0  0  0  0  0  0
    1.3036    1.0909    1.9571 H   0  0  0  0  0  0  0  0  0  0  0  0
    0.5432    3.0926    1.9577 C   0  0  0  0  0  0  0  0  0  0  0  0
   -0.4391    3.3719    2.3534 H   0  0  0  0  0  0  0  0  0  0  0  0
    1.2942    3.2944    2.7275 H   0  0  0  0  0  0  0  0  0  0  0  0
    0.7637    3.7182    1.0863 H   0  0  0  0  0  0  0  0  0  0  0  0
  1  2  1  0  0  0  0
  2  3  1  0  0  0  0
  2  4  1  0  0  0  0
  2  5  1  0  0  0  0
  5  6  2  0  0  0  0
  5  7  1  0  0  0  0
  7  8  1  0  0  0  0
  7  9  1  0  0  0  0
  9 10  1  0  0  0  0
  9 11  1  0  0  0  0
  9 21  1  0  0  0  0
 11 12  1  0  0  0  0
 11 13  1  0  0  0  0
 11 14  1  0  0  0  0
 14 15  1  0  0  0  0
 14 16  1  0  0  0  0
 14 17  1  0  0  0  0
 17 18  2  0  0  0  0
 17 19  1  0  0  0  0
 19 20  1  0  0  0  0
 21 22  2  0  0  0  0
 21 23  1  0  0  0  0
 23 24  1  0  0  0  0
 23 25  1  0  0  0  0
 25 26  1  0  0  0  0
 25 27  1  0  0  0  0
 25 28  1  0  0  0  0
M  END
$$$$

  -OEChem-03222214033D

 28 27  0     1  0  0  0  0  0999 V2000
   -3.2161   -3.7649    1.2387 H   0  0  0  0  0  0  0  0  0  0  0  0
   -3.1937   -2.7570    0.8152 C   0  0  0  0  0  0  0  0  0  0  0  0
   -3.8116   -2.1011    1.4331 H   0  0  0  0  0  0  0  0  0  0  0  0
   -3.6074   -2.7909   -0.1955 H   0  0  0  0  0  0  0  0  0  0  0  0
   -1.7687   -2.2391    0.7734 C   0  0  0  0  0  0  0  0  0  0  0  0
   -0.8544   -2.9254    1.2016 O   0  0  0  0  0  0  0  0  0  0  0  0
   -1.5067   -0.9934    0.2431 N   0  0  0  0  0  0  0  0  0  0  0  0
   -2.3054   -0.4161   -0.0170 H   0  0  0  0  0  0  0  0  0  0  0  0
   -0.1904   -0.3410    0.2504 C   0  0  1  0  0  0  0  0  0  0  0  0
    0.4601   -0.8382    0.9776 H   0  0  0  0  0  0  0  0  0  0  0  0
    0.4172   -0.4787   -1.1563 C   0  0  0  0  0  0  0  0  0  0  0  0
    0.2846   -1.5158   -1.4833 H   0  0  0  0  0  0  0  0  0  0  0  0
   -0.1277    0.1533   -1.8676 H   0  0  0  0  0  0  0  0  0  0  0  0
    1.9282   -0.1667   -1.1834 C   0  0  0  0  0  0  0  0  0  0  0  0
    2.3634   -0.2193   -0.1824 H   0  0  0  0  0  0  0  0  0  0  0  0
    2.4360   -0.9183   -1.7947 H   0  0  0  0  0  0  0  0  0  0  0  0
    2.2212    1.1968   -1.7970 C   0  0  0  0  0  0  0  0  0  0  0  0
    2.1130    1.3322   -3.0015 O   0  0  0  0  0  0  0  0  0  0  0  0
    2.5798    2.1976   -0.9652 O   0  0  0  0  0  0  0  0  0  0  0  0
    2.6861    2.9702   -1.5420 H   0  0  0  0  0  0  0  0  0  0  0  0
   -0.3152    1.1383    0.6720 C   0  0  0  0  0  0  0  0  0  0  0  0
   -1.2399    1.8147    0.2365 O   0  0  0  0  0  0  0  0  0  0  0  0
    0.5617    1.6940    1.5847 N   0  0  0  0  0  0  0  0  0  0  0  0
    1.3450    1.1257    1.8927 H   0  0  0  0  0  0  0  0  0  0  0  0
    0.5214    3.0989    1.9704 C   0  0  0  0  0  0  0  0  0  0  0  0
   -0.4409    3.3424    2.4330 H   0  0  0  0  0  0  0  0  0  0  0  0
    1.3153    3.3163    2.6912 H   0  0  0  0  0  0  0  0  0  0  0  0
    0.6644    3.7402    1.0943 H   0  0  0  0  0  0  0  0  0  0  0  0
  1  2  1  0  0  0  0
  2  3  1  0  0  0  0
  2  4  1  0  0  0  0
  2  5  1  0  0  0  0
  5  6  2  0  0  0  0
  5  7  1  0  0  0  0
  7  8  1  0  0  0  0
  7  9  1  0  0  0  0
  9 10  1  0  0  0  0
  9 11  1  0  0  0  0
  9 21  1  0  0  0  0
 11 12  1  0  0  0  0
 11 13  1  0  0  0  0
 11 14  1  0  0  0  0
 14 15  1  0  0  0  0
 14 16  1  0  0  0  0
 14 17  1  0  0  0  0
 17 18  2  0  0  0  0
 17 19  1  0  0  0  0
 19 20  1  0  0  0  0
 21 22  2  0  0  0  0
 21 23  1  0  0  0  0
 23 24  1  0  0  0  0
 23 25  1  0  0  0  0
 25 26  1  0  0  0  0
 25 27  1  0  0  0  0
 25 28  1  0  0  0  0
M  END
$$$$

  -OEChem-03222214033D

 28 27  0     1  0  0  0  0  0999 V2000
   -3.1758   -3.7668    1.2567 H   0  0  0  0  0  0  0  0  0  0  0  0
   -3.1649   -2.7551    0.8420 C   0  0  0  0  0  0  0  0  0  0  0  0
   -3.7693   -2.1059    1.4802 H   0  0  0  0  0  0  0  0  0  0  0  0
   -3.6024   -2.7806   -0.1590 H   0  0  0  0  0  0  0  0  0  0  0  0
   -1.7420   -2.2340    0.7724 C   0  0  0  0  0  0  0  0  0  0  0  0
   -0.8169   -2.9195    1.1784 O   0  0  0  0  0  0  0  0  0  0  0  0
   -1.4949   -0.9852    0.2431 N   0  0  0  0  0  0  0  0  0  0  0  0
   -2.3015   -0.4061    0.0118 H   0  0  0  0  0  0  0  0  0  0  0  0
   -0.1837   -0.3224    0.2402 C   0  0  1  0  0  0  0  0  0  0  0  0
    0.4773   -0.8094    0.9649 H   0  0  0  0  0  0  0  0  0  0  0  0
    0.4137   -0.4670   -1.1718 C   0  0  0  0  0  0  0  0  0  0  0  0
    0.2847   -1.5084   -1.4861 H   0  0  0  0  0  0  0  0  0  0  0  0
   -0.1405    0.1554   -1.8842 H   0  0  0  0  0  0  0  0  0  0  0  0
    1.9220   -0.1489   -1.2270 C   0  0  0  0  0  0  0  0  0  0  0  0
    2.4156   -0.4540   -0.3006 H   0  0  0  0  0  0  0  0  0  0  0  0
    2.3732   -0.7278   -2.0377 H   0  0  0  0  0  0  0  0  0  0  0  0
    2.2160    1.3204   -1.5079 C   0  0  0  0  0  0  0  0  0  0  0  0
    1.9147    1.7812   -2.5927 O   0  0  0  0  0  0  0  0  0  0  0  0
    2.8047    2.0438   -0.5319 O   0  0  0  0  0  0  0  0  0  0  0  0
    2.8915    2.9343   -0.9078 H   0  0  0  0  0  0  0  0  0  0  0  0
   -0.3369    1.1527    0.6692 C   0  0  0  0  0  0  0  0  0  0  0  0
   -1.2966    1.8023    0.2704 O   0  0  0  0  0  0  0  0  0  0  0  0
    0.5330    1.7228    1.5794 N   0  0  0  0  0  0  0  0  0  0  0  0
    1.3559    1.1877    1.8418 H   0  0  0  0  0  0  0  0  0  0  0  0
    0.4281    3.1077    2.0212 C   0  0  0  0  0  0  0  0  0  0  0  0
   -0.5270    3.2761    2.5299 H   0  0  0  0  0  0  0  0  0  0  0  0
    1.2369    3.3440    2.7192 H   0  0  0  0  0  0  0  0  0  0  0  0
    0.4976    3.7891    1.1669 H   0  0  0  0  0  0  0  0  0  0  0  0
  1  2  1  0  0  0  0
  2  3  1  0  0  0  0
  2  4  1  0  0  0  0
  2  5  1  0  0  0  0
  5  6  2  0  0  0  0
  5  7  1  0  0  0  0
  7  8  1  0  0  0  0
  7  9  1  0  0  0  0
  9 10  1  0  0  0  0
  9 11  1  0  0  0  0
  9 21  1  0  0  0  0
 11 12  1  0  0  0  0
 11 13  1  0  0  0  0
 11 14  1  0  0  0  0
 14 15  1  0  0  0  0
 14 16  1  0  0  0  0
 14 17  1  0  0  0  0
 17 18  2  0  0  0  0
 17 19  1  0  0  0  0
 19 20  1  0  0  0  0
 21 22  2  0  0  0  0
 21 23  1  0  0  0  0
 23 24  1  0  0  0  0
 23 25  1  0  0  0  0
 25 26  1  0  0  0  0
 25 27  1  0  0  0  0
 25 28  1  0  0  0  0
M  END
$$$$

  -OEChem-03222214033D

 28 27  0     1  0  0  0  0  0999 V2000
   -3.1439   -3.7450    1.3284 H   0  0  0  0  0  0  0  0  0  0  0  0
   -3.1385   -2.7539    0.8663 C   0  0  0  0  0  0  0  0  0  0  0  0
   -3.7387   -2.0767    1.4787 H   0  0  0  0  0  0  0  0  0  0  0  0
   -3.5840   -2.8265   -0.1288 H   0  0  0  0  0  0  0  0  0  0  0  0
   -1.7174   -2.2342    0.7603 C   0  0  0  0  0  0  0  0  0  0  0  0
   -0.7823   -2.9227    1.1375 O   0  0  0  0  0  0  0  0  0  0  0  0
   -1.4831   -0.9797    0.2389 N   0  0  0  0  0  0  0  0  0  0  0  0
   -2.2954   -0.3962    0.0396 H   0  0  0  0  0  0  0  0  0  0  0  0
   -0.1762   -0.3086    0.2361 C   0  0  1  0  0  0  0  0  0  0  0  0
    0.4930   -0.7902    0.9568 H   0  0  0  0  0  0  0  0  0  0  0  0
    0.4161   -0.4487   -1.1807 C   0  0  0  0  0  0  0  0  0  0  0  0
    0.2804   -1.4856   -1.5066 H   0  0  0  0  0  0  0  0  0  0  0  0
   -0.1413    0.1863   -1.8791 H   0  0  0  0  0  0  0  0  0  0  0  0
    1.9227   -0.1284   -1.2645 C   0  0  0  0  0  0  0  0  0  0  0  0
    2.4573   -0.6558   -0.4696 H   0  0  0  0  0  0  0  0  0  0  0  0
    2.3086   -0.5020   -2.2170 H   0  0  0  0  0  0  0  0  0  0  0  0
    2.2552    1.3571   -1.1933 C   0  0  0  0  0  0  0  0  0  0  0  0
    1.8640    2.0871   -2.0836 O   0  0  0  0  0  0  0  0  0  0  0  0
    2.9749    1.7948   -0.1377 O   0  0  0  0  0  0  0  0  0  0  0  0
    3.0829    2.7463   -0.2972 H   0  0  0  0  0  0  0  0  0  0  0  0
   -0.3642    1.1592    0.6801 C   0  0  0  0  0  0  0  0  0  0  0  0
   -1.3547    1.7802    0.3115 O   0  0  0  0  0  0  0  0  0  0  0  0
    0.4913    1.7409    1.5970 N   0  0  0  0  0  0  0  0  0  0  0  0
    1.3449    1.2376    1.8259 H   0  0  0  0  0  0  0  0  0  0  0  0
    0.3395    3.1128    2.0653 C   0  0  0  0  0  0  0  0  0  0  0  0
   -0.6297    3.2440    2.5581 H   0  0  0  0  0  0  0  0  0  0  0  0
    1.1273    3.3565    2.7847 H   0  0  0  0  0  0  0  0  0  0  0  0
    0.4060    3.8137    1.2264 H   0  0  0  0  0  0  0  0  0  0  0  0
  1  2  1  0  0  0  0
  2  3  1  0  0  0  0
  2  4  1  0  0  0  0
  2  5  1  0  0  0  0
  5  6  2  0  0  0  0
  5  7  1  0  0  0  0
  7  8  1  0  0  0  0
  7  9  1  0  0  0  0
  9 10  1  0  0  0  0
  9 11  1  0  0  0  0
  9 21  1  0  0  0  0
 11 12  1  0  0  0  0
 11 13  1  0  0  0  0
 11 14  1  0  0  0  0
 14 15  1  0  0  0  0
 14 16  1  0  0  0  0
 14 17  1  0  0  0  0
 17 18  2  0  0  0  0
 17 19  1  0  0  0  0
 19 20  1  0  0  0  0
 21 22  2  0  0  0  0
 21 23  1  0  0  0  0
 23 24  1  0  0  0  0
 23 25  1  0  0  0  0
 25 26  1  0  0  0  0
 25 27  1  0  0  0  0
 25 28  1  0  0  0  0
M  END
$$$$

  -OEChem-03222214033D

 28 27  0     1  0  0  0  0  0999 V2000
   -3.1073   -3.7575    1.3348 H   0  0  0  0  0  0  0  0  0  0  0  0
   -3.1101   -2.7717    0.8615 C   0  0  0  0  0  0  0  0  0  0  0  0
   -3.7232   -2.0949    1.4616 H   0  0  0  0  0  0  0  0  0  0  0  0
   -3.5470   -2.8605   -0.1360 H   0  0  0  0  0  0  0  0  0  0  0  0
   -1.6944   -2.2369    0.7603 C   0  0  0  0  0  0  0  0  0  0  0  0
   -0.7525   -2.9218    1.1266 O   0  0  0  0  0  0  0  0  0  0  0  0
   -1.4721   -0.9759    0.2498 N   0  0  0  0  0  0  0  0  0  0  0  0
   -2.2896   -0.3959    0.0609 H   0  0  0  0  0  0  0  0  0  0  0  0
   -0.1711   -0.2929    0.2567 C   0  0  1  0  0  0  0  0  0  0  0  0
    0.5071   -0.7701    0.9723 H   0  0  0  0  0  0  0  0  0  0  0  0
    0.4132   -0.4272   -1.1662 C   0  0  0  0  0  0  0  0  0  0  0  0
    0.2648   -1.4577   -1.5070 H   0  0  0  0  0  0  0  0  0  0  0  0
   -0.1515    0.2243   -1.8431 H   0  0  0  0  0  0  0  0  0  0  0  0
    1.9175   -0.1067   -1.2975 C   0  0  0  0  0  0  0  0  0  0  0  0
    2.4841   -0.8138   -0.6850 H   0  0  0  0  0  0  0  0  0  0  0  0
    2.2217   -0.2615   -2.3364 H   0  0  0  0  0  0  0  0  0  0  0  0
    2.3270    1.3049   -0.8981 C   0  0  0  0  0  0  0  0  0  0  0  0
    1.9916    2.2306   -1.6111 O   0  0  0  0  0  0  0  0  0  0  0  0
    3.0472    1.4644    0.2341 O   0  0  0  0  0  0  0  0  0  0  0  0
    3.2306    2.4171    0.2696 H   0  0  0  0  0  0  0  0  0  0  0  0
   -0.3945    1.1668    0.7151 C   0  0  0  0  0  0  0  0  0  0  0  0
   -1.3949    1.7713    0.3440 O   0  0  0  0  0  0  0  0  0  0  0  0
    0.4421    1.7564    1.6444 N   0  0  0  0  0  0  0  0  0  0  0  0
    1.3011    1.2622    1.8752 H   0  0  0  0  0  0  0  0  0  0  0  0
    0.2775    3.1305    2.1022 C   0  0  0  0  0  0  0  0  0  0  0  0
   -0.7078    3.2671    2.5606 H   0  0  0  0  0  0  0  0  0  0  0  0
    1.0402    3.3747    2.8478 H   0  0  0  0  0  0  0  0  0  0  0  0
    0.3753    3.8276    1.2631 H   0  0  0  0  0  0  0  0  0  0  0  0
  1  2  1  0  0  0  0
  2  3  1  0  0  0  0
  2  4  1  0  0  0  0
  2  5  1  0  0  0  0
  5  6  2  0  0  0  0
  5  7  1  0  0  0  0
  7  8  1  0  0  0  0
  7  9  1  0  0  0  0
  9 10  1  0  0  0  0
  9 11  1  0  0  0  0
  9 21  1  0  0  0  0
 11 12  1  0  0  0  0
 11 13  1  0  0  0  0
 11 14  1  0  0  0  0
 14 15  1  0  0  0  0
 14 16  1  0  0  0  0
 14 17  1  0  0  0  0
 17 18  2  0  0  0  0
 17 19  1  0  0  0  0
 19 20  1  0  0  0  0
 21 22  2  0  0  0  0
 21 23  1  0  0  0  0
 23 24  1  0  0  0  0
 23 25  1  0  0  0  0
 25 26  1  0  0  0  0
 25 27  1  0  0  0  0
 25 28  1  0  0  0  0
M  END
$$$$

  -OEChem-03222214033D

 28 27  0     1  0  0  0  0  0999 V2000
   -3.0824   -3.7822    1.3187 H   0  0  0  0  0  0  0  0  0  0  0  0
   -3.0882   -2.7962    0.8457 C   0  0  0  0  0  0  0  0  0  0  0  0
   -3.7208   -2.1269    1.4339 H   0  0  0  0  0  0  0  0  0  0  0  0
   -3.5049   -2.8901   -0.1600 H   0  0  0  0  0  0  0  0  0  0  0  0
   -1.6773   -2.2442    0.7715 C   0  0  0  0  0  0  0  0  0  0  0  0
   -0.7339   -2.9185    1.1529 O   0  0  0  0  0  0  0  0  0  0  0  0
   -1.4615   -0.9796    0.2670 N   0  0  0  0  0  0  0  0  0  0  0  0
   -2.2824   -0.4098    0.0627 H   0  0  0  0  0  0  0  0  0  0  0  0
   -0.1674   -0.2831    0.2881 C   0  0  1  0  0  0  0  0  0  0  0  0
    0.5162   -0.7555    1.0019 H   0  0  0  0  0  0  0  0  0  0  0  0
    0.4128   -0.4051   -1.1394 C   0  0  0  0  0  0  0  0  0  0  0  0
    0.2558   -1.4287   -1.4971 H   0  0  0  0  0  0  0  0  0  0  0  0
   -0.1628    0.2582   -1.7950 H   0  0  0  0  0  0  0  0  0  0  0  0
    1.9135   -0.0800   -1.3158 C   0  0  0  0  0  0  0  0  0  0  0  0
    2.4929   -0.9232   -0.9293 H   0  0  0  0  0  0  0  0  0  0  0  0
    2.1346    0.0004   -2.3839 H   0  0  0  0  0  0  0  0  0  0  0  0
    2.4300    1.1755   -0.6253 C   0  0  0  0  0  0  0  0  0  0  0  0
    2.2988    2.2416   -1.1944 O   0  0  0  0  0  0  0  0  0  0  0  0
    3.0280    1.0493    0.5805 O   0  0  0  0  0  0  0  0  0  0  0  0
    3.3480    1.9432    0.7841 H   0  0  0  0  0  0  0  0  0  0  0  0
   -0.4211    1.1710    0.7495 C   0  0  0  0  0  0  0  0  0  0  0  0
   -1.4111    1.7711    0.3449 O   0  0  0  0  0  0  0  0  0  0  0  0
    0.3938    1.7704    1.6908 N   0  0  0  0  0  0  0  0  0  0  0  0
    1.2369    1.2668    1.9584 H   0  0  0  0  0  0  0  0  0  0  0  0
    0.2286    3.1528    2.1223 C   0  0  0  0  0  0  0  0  0  0  0  0
   -0.7702    3.3063    2.5441 H   0  0  0  0  0  0  0  0  0  0  0  0
    0.9676    3.4005    2.8902 H   0  0  0  0  0  0  0  0  0  0  0  0
    0.3628    3.8355    1.2765 H   0  0  0  0  0  0  0  0  0  0  0  0
  1  2  1  0  0  0  0
  2  3  1  0  0  0  0
  2  4  1  0  0  0  0
  2  5  1  0  0  0  0
  5  6  2  0  0  0  0
  5  7  1  0  0  0  0
  7  8  1  0  0  0  0
  7  9  1  0  0  0  0
  9 10  1  0  0  0  0
  9 11  1  0  0  0  0
  9 21  1  0  0  0  0
 11 12  1  0  0  0  0
 11 13  1  0  0  0  0
 11 14  1  0  0  0  0
 14 15  1  0  0  0  0
 14 16  1  0  0  0  0
 14 17  1  0  0  0  0
 17 18  2  0  0  0  0
 17 19  1  0  0  0  0
 19 20  1  0  0  0  0
 21 22  2  0  0  0  0
 21 23  1  0  0  0  0
 23 24  1  0  0  0  0
 23 25  1  0  0  0  0
 25 26  1  0  0  0  0
 25 27  1  0  0  0  0
 25 28  1  0  0  0  0
M  END
$$$$

  -OEChem-03222214033D

 28 27  0     1  0  0  0  0  0999 V2000
   -3.1036   -3.7782    1.3129 H   0  0  0  0  0  0  0  0  0  0  0  0
   -3.1010   -2.7958    0.8326 C   0  0  0  0  0  0  0  0  0  0  0  0
   -3.7478   -2.1240    1.4023 H   0  0  0  0  0  0  0  0  0  0  0  0
   -3.4955   -2.8976   -0.1813 H   0  0  0  0  0  0  0  0  0  0  0  0
   -1.6898   -2.2413    0.7856 C   0  0  0  0  0  0  0  0  0  0  0  0
   -0.7557   -2.9071    1.2023 O   0  0  0  0  0  0  0  0  0  0  0  0
   -1.4640   -0.9844    0.2665 N   0  0  0  0  0  0  0  0  0  0  0  0
   -2.2813   -0.4227    0.0290 H   0  0  0  0  0  0  0  0  0  0  0  0
   -0.1740   -0.2810    0.3142 C   0  0  1  0  0  0  0  0  0  0  0  0
    0.4916   -0.7431    1.0514 H   0  0  0  0  0  0  0  0  0  0  0  0
    0.4403   -0.4141   -1.0976 C   0  0  0  0  0  0  0  0  0  0  0  0
    0.2864   -1.4387   -1.4540 H   0  0  0  0  0  0  0  0  0  0  0  0
   -0.1262    0.2450   -1.7649 H   0  0  0  0  0  0  0  0  0  0  0  0
    1.9442   -0.0881   -1.2687 C   0  0  0  0  0  0  0  0  0  0  0  0
    2.5063   -1.0123   -1.1077 H   0  0  0  0  0  0  0  0  0  0  0  0
    2.1229    0.2195   -2.3034 H   0  0  0  0  0  0  0  0  0  0  0  0
    2.5570    0.9531   -0.3389 C   0  0  0  0  0  0  0  0  0  0  0  0
    2.7072    2.0830   -0.7621 O   0  0  0  0  0  0  0  0  0  0  0  0
    2.9450    0.5718    0.8989 O   0  0  0  0  0  0  0  0  0  0  0  0
    3.4151    1.3437    1.2536 H   0  0  0  0  0  0  0  0  0  0  0  0
   -0.4409    1.1801    0.7422 C   0  0  0  0  0  0  0  0  0  0  0  0
   -1.4012    1.7826    0.2747 O   0  0  0  0  0  0  0  0  0  0  0  0
    0.3464    1.7956    1.6955 N   0  0  0  0  0  0  0  0  0  0  0  0
    1.1559    1.2764    2.0271 H   0  0  0  0  0  0  0  0  0  0  0  0
    0.2014    3.1973    2.0672 C   0  0  0  0  0  0  0  0  0  0  0  0
   -0.8111    3.3948    2.4350 H   0  0  0  0  0  0  0  0  0  0  0  0
    0.9111    3.4546    2.8592 H   0  0  0  0  0  0  0  0  0  0  0  0
    0.3957    3.8427    1.2038 H   0  0  0  0  0  0  0  0  0  0  0  0
  1  2  1  0  0  0  0
  2  3  1  0  0  0  0
  2  4  1  0  0  0  0
  2  5  1  0  0  0  0
  5  6  2  0  0  0  0
  5  7  1  0  0  0  0
  7  8  1  0  0  0  0
  7  9  1  0  0  0  0
  9 10  1  0  0  0  0
  9 11  1  0  0  0  0
  9 21  1  0  0  0  0
 11 12  1  0  0  0  0
 11 13  1  0  0  0  0
 11 14  1  0  0  0  0
 14 15  1  0  0  0  0
 14 16  1  0  0  0  0
 14 17  1  0  0  0  0
 17 18  2  0  0  0  0
 17 19  1  0  0  0  0
 19 20  1  0  0  0  0
 21 22  2  0  0  0  0
 21 23  1  0  0  0  0
 23 24  1  0  0  0  0
 23 25  1  0  0  0  0
 25 26  1  0  0  0  0
 25 27  1  0  0  0  0
 25 28  1  0  0  0  0
M  END
$$$$

  -OEChem-03222214033D

 28 27  0     1  0  0  0  0  0999 V2000
   -3.3096   -3.7271    1.1637 H   0  0  0  0  0  0  0  0  0  0  0  0
   -3.2483   -2.7368    0.7036 C   0  0  0  0  0  0  0  0  0  0  0  0
   -3.8940   -2.0511    1.2575 H   0  0  0  0  0  0  0  0  0  0  0  0
   -3.6005   -2.8054   -0.3285 H   0  0  0  0  0  0  0  0  0  0  0  0
   -1.8163   -2.2370    0.7289 C   0  0  0  0  0  0  0  0  0  0  0  0
   -0.9298   -2.9493    1.1709 O   0  0  0  0  0  0  0  0  0  0  0  0
   -1.5202   -0.9846    0.2333 N   0  0  0  0  0  0  0  0  0  0  0  0
   -2.3065   -0.3926   -0.0310 H   0  0  0  0  0  0  0  0  0  0  0  0
   -0.2111   -0.3242    0.3482 C   0  0  1  0  0  0  0  0  0  0  0  0
    0.3788   -0.8251    1.1226 H   0  0  0  0  0  0  0  0  0  0  0  0
    0.4898   -0.4819   -1.0203 C   0  0  0  0  0  0  0  0  0  0  0  0
    0.3268   -1.5064   -1.3727 H   0  0  0  0  0  0  0  0  0  0  0  0
   -0.0216    0.1810   -1.7272 H   0  0  0  0  0  0  0  0  0  0  0  0
    2.0152   -0.2028   -1.1184 C   0  0  0  0  0  0  0  0  0  0  0  0
    2.5278   -1.1650   -1.2042 H   0  0  0  0  0  0  0  0  0  0  0  0
    2.2074    0.3428   -2.0465 H   0  0  0  0  0  0  0  0  0  0  0  0
    2.7026    0.5448    0.0229 C   0  0  0  0  0  0  0  0  0  0  0  0
    2.7380    0.0512    1.1370 O   0  0  0  0  0  0  0  0  0  0  0  0
    3.2495    1.7441   -0.2690 O   0  0  0  0  0  0  0  0  0  0  0  0
    3.6532    2.0553    0.5551 H   0  0  0  0  0  0  0  0  0  0  0  0
   -0.4067    1.1472    0.7742 C   0  0  0  0  0  0  0  0  0  0  0  0
   -1.3042    1.8110    0.2669 O   0  0  0  0  0  0  0  0  0  0  0  0
    0.3783    1.7092    1.7621 N   0  0  0  0  0  0  0  0  0  0  0  0
    1.1467    1.1388    2.1181 H   0  0  0  0  0  0  0  0  0  0  0  0
    0.2605    3.0957    2.1935 C   0  0  0  0  0  0  0  0  0  0  0  0
   -0.7483    3.2957    2.5697 H   0  0  0  0  0  0  0  0  0  0  0  0
    0.9748    3.3042    2.9959 H   0  0  0  0  0  0  0  0  0  0  0  0
    0.4665    3.7743    1.3592 H   0  0  0  0  0  0  0  0  0  0  0  0
  1  2  1  0  0  0  0
  2  3  1  0  0  0  0
  2  4  1  0  0  0  0
  2  5  1  0  0  0  0
  5  6  2  0  0  0  0
  5  7  1  0  0  0  0
  7  8  1  0  0  0  0
  7  9  1  0  0  0  0
  9 10  1  0  0  0  0
  9 11  1  0  0  0  0
  9 21  1  0  0  0  0
 11 12  1  0  0  0  0
 11 13  1  0  0  0  0
 11 14  1  0  0  0  0
 14 15  1  0  0  0  0
 14 16  1  0  0  0  0
 14 17  1  0  0  0  0
 17 18  2  0  0  0  0
 17 19  1  0  0  0  0
 19 20  1  0  0  0  0
 21 22  2  0  0  0  0
 21 23  1  0  0  0  0
 23 24  1  0  0  0  0
 23 25  1  0  0  0  0
 25 26  1  0  0  0  0
 25 27  1  0  0  0  0
 25 28  1  0  0  0  0
M  END
$$$$

  -OEChem-03222214033D

 28 27  0     1  0  0  0  0  0999 V2000
   -3.3553   -3.7225    1.1798 H   0  0  0  0  0  0  0  0  0  0  0  0
   -3.2920   -2.7346    0.7152 C   0  0  0  0  0  0  0  0  0  0  0  0
   -3.9337   -2.0440    1.2677 H   0  0  0  0  0  0  0  0  0  0  0  0
   -3.6470   -2.8065   -0.3156 H   0  0  0  0  0  0  0  0  0  0  0  0
   -1.8586   -2.2387    0.7356 C   0  0  0  0  0  0  0  0  0  0  0  0
   -0.9765   -2.9459    1.1937 O   0  0  0  0  0  0  0  0  0  0  0  0
   -1.5601   -0.9939    0.2214 N   0  0  0  0  0  0  0  0  0  0  0  0
   -2.3461   -0.4129   -0.0660 H   0  0  0  0  0  0  0  0  0  0  0  0
   -0.2564   -0.3225    0.3395 C   0  0  1  0  0  0  0  0  0  0  0  0
    0.2976   -0.8167    1.1410 H   0  0  0  0  0  0  0  0  0  0  0  0
    0.4874   -0.5098   -0.9999 C   0  0  0  0  0  0  0  0  0  0  0  0
    0.3539   -1.5546   -1.3019 H   0  0  0  0  0  0  0  0  0  0  0  0
   -0.0186    0.1028   -1.7545 H   0  0  0  0  0  0  0  0  0  0  0  0
    2.0151   -0.2165   -1.0747 C   0  0  0  0  0  0  0  0  0  0  0  0
    2.5179   -1.1237   -1.4208 H   0  0  0  0  0  0  0  0  0  0  0  0
    2.1643    0.5406   -1.8499 H   0  0  0  0  0  0  0  0  0  0  0  0
    2.7806    0.2572    0.1652 C   0  0  0  0  0  0  0  0  0  0  0  0
    2.6337   -0.2950    1.2405 O   0  0  0  0  0  0  0  0  0  0  0  0
    3.6179    1.3014   -0.0106 O   0  0  0  0  0  0  0  0  0  0  0  0
    4.0381    1.4444    0.8510 H   0  0  0  0  0  0  0  0  0  0  0  0
   -0.4137    1.1587    0.7332 C   0  0  0  0  0  0  0  0  0  0  0  0
   -1.2850    1.8409    0.2061 O   0  0  0  0  0  0  0  0  0  0  0  0
    0.3896    1.7083    1.7131 N   0  0  0  0  0  0  0  0  0  0  0  0
    1.1034    1.1018    2.1183 H   0  0  0  0  0  0  0  0  0  0  0  0
    0.3026    3.0974    2.1438 C   0  0  0  0  0  0  0  0  0  0  0  0
   -0.6959    3.3148    2.5375 H   0  0  0  0  0  0  0  0  0  0  0  0
    1.0351    3.2952    2.9325 H   0  0  0  0  0  0  0  0  0  0  0  0
    0.5058    3.7714    1.3050 H   0  0  0  0  0  0  0  0  0  0  0  0
  1  2  1  0  0  0  0
  2  3  1  0  0  0  0
  2  4  1  0  0  0  0
  2  5  1  0  0  0  0
  5  6  2  0  0  0  0
  5  7  1  0  0  0  0
  7  8  1  0  0  0  0
  7  9  1  0  0  0  0
  9 10  1  0  0  0  0
  9 11  1  0  0  0  0
  9 21  1  0  0  0  0
 11 12  1  0  0  0  0
 11 13  1  0  0  0  0
 11 14  1  0  0  0  0
 14 15  1  0  0  0  0
 14 16  1  0  0  0  0
 14 17  1  0  0  0  0
 17 18  2  0  0  0  0
 17 19  1  0  0  0  0
 19 20  1  0  0  0  0
 21 22  2  0  0  0  0
 21 23  1  0  0  0  0
 23 24  1  0  0  0  0
 23 25  1  0  0  0  0
 25 26  1  0  0  0  0
 25 27  1  0  0  0  0
 25 28  1  0  0  0  0
M  END
$$$$

  -OEChem-03222214033D

 28 27  0     1  0  0  0  0  0999 V2000
   -3.0775   -3.8249    1.1938 H   0  0  0  0  0  0  0  0  0  0  0  0
   -3.0742   -2.8165    0.7707 C   0  0  0  0  0  0  0  0  0  0  0  0
   -3.7136   -2.1755    1.3825 H   0  0  0  0  0  0  0  0  0  0  0  0
   -3.4766   -2.8591   -0.2443 H   0  0  0  0  0  0  0  0  0  0  0  0
   -1.6613   -2.2648    0.7445 C   0  0  0  0  0  0  0  0  0  0  0  0
   -0.7341   -2.9361    1.1676 O   0  0  0  0  0  0  0  0  0  0  0  0
   -1.4286   -1.0032    0.2399 N   0  0  0  0  0  0  0  0  0  0  0  0
   -2.2448   -0.4332    0.0183 H   0  0  0  0  0  0  0  0  0  0  0  0
   -0.1441   -0.2937    0.3296 C   0  0  1  0  0  0  0  0  0  0  0  0
    0.4953   -0.7638    1.0835 H   0  0  0  0  0  0  0  0  0  0  0  0
    0.5130   -0.3448   -1.0678 C   0  0  0  0  0  0  0  0  0  0  0  0
    0.4097   -1.3742   -1.4290 H   0  0  0  0  0  0  0  0  0  0  0  0
   -0.0530    0.2917   -1.7570 H   0  0  0  0  0  0  0  0  0  0  0  0
    2.0201    0.0073   -1.1713 C   0  0  0  0  0  0  0  0  0  0  0  0
    2.5035   -0.6904   -1.8608 H   0  0  0  0  0  0  0  0  0  0  0  0
    2.1085    1.0050   -1.6111 H   0  0  0  0  0  0  0  0  0  0  0  0
    2.8135    0.0222    0.1332 C   0  0  0  0  0  0  0  0  0  0  0  0
    2.8575    1.0420    0.7973 O   0  0  0  0  0  0  0  0  0  0  0  0
    3.4274   -1.1232    0.4953 O   0  0  0  0  0  0  0  0  0  0  0  0
    3.8730   -0.9340    1.3349 H   0  0  0  0  0  0  0  0  0  0  0  0
   -0.4440    1.1646    0.7608 C   0  0  0  0  0  0  0  0  0  0  0  0
   -1.4392    1.7234    0.3076 O   0  0  0  0  0  0  0  0  0  0  0  0
    0.2919    1.8057    1.7383 N   0  0  0  0  0  0  0  0  0  0  0  0
    1.2298    1.4353    1.8970 H   0  0  0  0  0  0  0  0  0  0  0  0
    0.0406    3.1878    2.1276 C   0  0  0  0  0  0  0  0  0  0  0  0
   -0.9876    3.3063    2.4856 H   0  0  0  0  0  0  0  0  0  0  0  0
    0.7202    3.4812    2.9335 H   0  0  0  0  0  0  0  0  0  0  0  0
    0.1980    3.8599    1.2775 H   0  0  0  0  0  0  0  0  0  0  0  0
  1  2  1  0  0  0  0
  2  3  1  0  0  0  0
  2  4  1  0  0  0  0
  2  5  1  0  0  0  0
  5  6  2  0  0  0  0
  5  7  1  0  0  0  0
  7  8  1  0  0  0  0
  7  9  1  0  0  0  0
  9 10  1  0  0  0  0
  9 11  1  0  0  0  0
  9 21  1  0  0  0  0
 11 12  1  0  0  0  0
 11 13  1  0  0  0  0
 11 14  1  0  0  0  0
 14 15  1  0  0  0  0
 14 16  1  0  0  0  0
 14 17  1  0  0  0  0
 17 18  2  0  0  0  0
 17 19  1  0  0  0  0
 19 20  1  0  0  0  0
 21 22  2  0  0  0  0
 21 23  1  0  0  0  0
 23 24  1  0  0  0  0
 23 25  1  0  0  0  0
 25 26  1  0  0  0  0
 25 27  1  0  0  0  0
 25 28  1  0  0  0  0
M  END
$$$$

  -OEChem-03222214033D

 28 27  0     1  0  0  0  0  0999 V2000
   -3.0807   -3.8324    1.2132 H   0  0  0  0  0  0  0  0  0  0  0  0
   -3.0818   -2.8375    0.7591 C   0  0  0  0  0  0  0  0  0  0  0  0
   -3.7344   -2.1845    1.3437 H   0  0  0  0  0  0  0  0  0  0  0  0
   -3.4714   -2.9148   -0.2588 H   0  0  0  0  0  0  0  0  0  0  0  0
   -1.6741   -2.2736    0.7328 C   0  0  0  0  0  0  0  0  0  0  0  0
   -0.7420   -2.9362    1.1594 O   0  0  0  0  0  0  0  0  0  0  0  0
   -1.4519   -1.0118    0.2235 N   0  0  0  0  0  0  0  0  0  0  0  0
   -2.2723   -0.4544   -0.0125 H   0  0  0  0  0  0  0  0  0  0  0  0
   -0.1744   -0.2908    0.3133 C   0  0  1  0  0  0  0  0  0  0  0  0
    0.4485   -0.7585    1.0816 H   0  0  0  0  0  0  0  0  0  0  0  0
    0.5137   -0.3572   -1.0671 C   0  0  0  0  0  0  0  0  0  0  0  0
    0.4369   -1.3942   -1.4126 H   0  0  0  0  0  0  0  0  0  0  0  0
   -0.0386    0.2616   -1.7827 H   0  0  0  0  0  0  0  0  0  0  0  0
    2.0160    0.0175   -1.1156 C   0  0  0  0  0  0  0  0  0  0  0  0
    2.4867   -0.4938   -1.9598 H   0  0  0  0  0  0  0  0  0  0  0  0
    2.0983    1.0921   -1.3027 H   0  0  0  0  0  0  0  0  0  0  0  0
    2.8198   -0.2822    0.1482 C   0  0  0  0  0  0  0  0  0  0  0  0
    2.8193    0.5287    1.0590 O   0  0  0  0  0  0  0  0  0  0  0  0
    3.4869   -1.4536    0.1983 O   0  0  0  0  0  0  0  0  0  0  0  0
    3.9054   -1.4819    1.0722 H   0  0  0  0  0  0  0  0  0  0  0  0
   -0.4373    1.1730    0.7354 C   0  0  0  0  0  0  0  0  0  0  0  0
   -1.4070    1.7643    0.2709 O   0  0  0  0  0  0  0  0  0  0  0  0
    0.3285    1.7894    1.7052 N   0  0  0  0  0  0  0  0  0  0  0  0
    1.2236    1.3444    1.9190 H   0  0  0  0  0  0  0  0  0  0  0  0
    0.1385    3.1785    2.1019 C   0  0  0  0  0  0  0  0  0  0  0  0
   -0.8843    3.3404    2.4581 H   0  0  0  0  0  0  0  0  0  0  0  0
    0.8284    3.4362    2.9112 H   0  0  0  0  0  0  0  0  0  0  0  0
    0.3276    3.8478    1.2563 H   0  0  0  0  0  0  0  0  0  0  0  0
  1  2  1  0  0  0  0
  2  3  1  0  0  0  0
  2  4  1  0  0  0  0
  2  5  1  0  0  0  0
  5  6  2  0  0  0  0
  5  7  1  0  0  0  0
  7  8  1  0  0  0  0
  7  9  1  0  0  0  0
  9 10  1  0  0  0  0
  9 11  1  0  0  0  0
  9 21  1  0  0  0  0
 11 12  1  0  0  0  0
 11 13  1  0  0  0  0
 11 14  1  0  0  0  0
 14 15  1  0  0  0  0
 14 16  1  0  0  0  0
 14 17  1  0  0  0  0
 17 18  2  0  0  0  0
 17 19  1  0  0  0  0
 19 20  1  0  0  0  0
 21 22  2  0  0  0  0
 21 23  1  0  0  0  0
 23 24  1  0  0  0  0
 23 25  1  0  0  0  0
 25 26  1  0  0  0  0
 25 27  1  0  0  0  0
 25 28  1  0  0  0  0
M  END
$$$$

  -OEChem-03222214033D

 28 27  0     1  0  0  0  0  0999 V2000
   -3.2111   -3.7515    1.3324 H   0  0  0  0  0  0  0  0  0  0  0  0
   -3.1887   -2.7671    0.8565 C   0  0  0  0  0  0  0  0  0  0  0  0
   -3.8154   -2.0830    1.4337 H   0  0  0  0  0  0  0  0  0  0  0  0
   -3.5920   -2.8555   -0.1551 H   0  0  0  0  0  0  0  0  0  0  0  0
   -1.7655   -2.2455    0.8013 C   0  0  0  0  0  0  0  0  0  0  0  0
   -0.8498   -2.9213    1.2416 O   0  0  0  0  0  0  0  0  0  0  0  0
   -1.5128   -1.0036    0.2571 N   0  0  0  0  0  0  0  0  0  0  0  0
   -2.3184   -0.4346    0.0009 H   0  0  0  0  0  0  0  0  0  0  0  0
   -0.2047   -0.3341    0.2645 C   0  0  1  0  0  0  0  0  0  0  0  0
    0.4193   -0.8199    1.0190 H   0  0  0  0  0  0  0  0  0  0  0  0
    0.4384   -0.4770   -1.1288 C   0  0  0  0  0  0  0  0  0  0  0  0
    0.3174   -1.5189   -1.4458 H   0  0  0  0  0  0  0  0  0  0  0  0
   -0.1026    0.1469   -1.8484 H   0  0  0  0  0  0  0  0  0  0  0  0
    1.9481   -0.1503   -1.1955 C   0  0  0  0  0  0  0  0  0  0  0  0
    2.3430   -0.4892   -2.1578 H   0  0  0  0  0  0  0  0  0  0  0  0
    2.0756    0.9349   -1.1576 H   0  0  0  0  0  0  0  0  0  0  0  0
    2.7986   -0.7514   -0.0779 C   0  0  0  0  0  0  0  0  0  0  0  0
    3.4220   -1.7668   -0.3187 O   0  0  0  0  0  0  0  0  0  0  0  0
    2.8485   -0.1191    1.1185 O   0  0  0  0  0  0  0  0  0  0  0  0
    3.4494   -0.6701    1.6486 H   0  0  0  0  0  0  0  0  0  0  0  0
   -0.3306    1.1495    0.6636 C   0  0  0  0  0  0  0  0  0  0  0  0
   -1.2611    1.8188    0.2294 O   0  0  0  0  0  0  0  0  0  0  0  0
    0.5491    1.7076    1.5702 N   0  0  0  0  0  0  0  0  0  0  0  0
    1.3709    1.1526    1.8112 H   0  0  0  0  0  0  0  0  0  0  0  0
    0.4991    3.1066    1.9753 C   0  0  0  0  0  0  0  0  0  0  0  0
   -0.4582    3.3315    2.4572 H   0  0  0  0  0  0  0  0  0  0  0  0
    1.3023    3.3229    2.6864 H   0  0  0  0  0  0  0  0  0  0  0  0
    0.6189    3.7623    1.1065 H   0  0  0  0  0  0  0  0  0  0  0  0
  1  2  1  0  0  0  0
  2  3  1  0  0  0  0
  2  4  1  0  0  0  0
  2  5  1  0  0  0  0
  5  6  2  0  0  0  0
  5  7  1  0  0  0  0
  7  8  1  0  0  0  0
  7  9  1  0  0  0  0
  9 10  1  0  0  0  0
  9 11  1  0  0  0  0
  9 21  1  0  0  0  0
 11 12  1  0  0  0  0
 11 13  1  0  0  0  0
 11 14  1  0  0  0  0
 14 15  1  0  0  0  0
 14 16  1  0  0  0  0
 14 17  1  0  0  0  0
 17 18  2  0  0  0  0
 17 19  1  0  0  0  0
 19 20  1  0  0  0  0
 21 22  2  0  0  0  0
 21 23  1  0  0  0  0
 23 24  1  0  0  0  0
 23 25  1  0  0  0  0
 25 26  1  0  0  0  0
 25 27  1  0  0  0  0
 25 28  1  0  0  0  0
M  END
$$$$

  -OEChem-03222214033D

 28 27  0     1  0  0  0  0  0999 V2000
   -3.1245   -3.7988    1.3477 H   0  0  0  0  0  0  0  0  0  0  0  0
   -3.1325   -2.8160    0.8681 C   0  0  0  0  0  0  0  0  0  0  0  0
   -3.7697   -2.1454    1.4498 H   0  0  0  0  0  0  0  0  0  0  0  0
   -3.5450   -2.9185   -0.1385 H   0  0  0  0  0  0  0  0  0  0  0  0
   -1.7235   -2.2592    0.7958 C   0  0  0  0  0  0  0  0  0  0  0  0
   -0.7850   -2.9157    1.2173 O   0  0  0  0  0  0  0  0  0  0  0  0
   -1.5096   -1.0073    0.2572 N   0  0  0  0  0  0  0  0  0  0  0  0
   -2.3317   -0.4597    0.0080 H   0  0  0  0  0  0  0  0  0  0  0  0
   -0.2148   -0.3132    0.2321 C   0  0  1  0  0  0  0  0  0  0  0  0
    0.4328   -0.7921    0.9707 H   0  0  0  0  0  0  0  0  0  0  0  0
    0.4065   -0.4646   -1.1693 C   0  0  0  0  0  0  0  0  0  0  0  0
    0.2975   -1.5061   -1.4924 H   0  0  0  0  0  0  0  0  0  0  0  0
   -0.1474    0.1587   -1.8794 H   0  0  0  0  0  0  0  0  0  0  0  0
    1.9044   -0.0999   -1.2238 C   0  0  0  0  0  0  0  0  0  0  0  0
    2.2602   -0.2215   -2.2511 H   0  0  0  0  0  0  0  0  0  0  0  0
    2.0425    0.9511   -0.9566 H   0  0  0  0  0  0  0  0  0  0  0  0
    2.7769   -0.9542   -0.3111 C   0  0  0  0  0  0  0  0  0  0  0  0
    3.3050   -1.9477   -0.7722 O   0  0  0  0  0  0  0  0  0  0  0  0
    2.9372   -0.5518    0.9713 O   0  0  0  0  0  0  0  0  0  0  0  0
    3.5058   -1.2337    1.3665 H   0  0  0  0  0  0  0  0  0  0  0  0
   -0.3261    1.1656    0.6456 C   0  0  0  0  0  0  0  0  0  0  0  0
   -1.2589    1.8473    0.2376 O   0  0  0  0  0  0  0  0  0  0  0  0
    0.5909    1.7073    1.5264 N   0  0  0  0  0  0  0  0  0  0  0  0
    1.3667    1.1136    1.8172 H   0  0  0  0  0  0  0  0  0  0  0  0
    0.5403    3.0883    1.9891 C   0  0  0  0  0  0  0  0  0  0  0  0
   -0.3897    3.2742    2.5365 H   0  0  0  0  0  0  0  0  0  0  0  0
    1.3818    3.2942    2.6577 H   0  0  0  0  0  0  0  0  0  0  0  0
    0.5948    3.7799    1.1417 H   0  0  0  0  0  0  0  0  0  0  0  0
  1  2  1  0  0  0  0
  2  3  1  0  0  0  0
  2  4  1  0  0  0  0
  2  5  1  0  0  0  0
  5  6  2  0  0  0  0
  5  7  1  0  0  0  0
  7  8  1  0  0  0  0
  7  9  1  0  0  0  0
  9 10  1  0  0  0  0
  9 11  1  0  0  0  0
  9 21  1  0  0  0  0
 11 12  1  0  0  0  0
 11 13  1  0  0  0  0
 11 14  1  0  0  0  0
 14 15  1  0  0  0  0
 14 16  1  0  0  0  0
 14 17  1  0  0  0  0
 17 18  2  0  0  0  0
 17 19  1  0  0  0  0
 19 20  1  0  0  0  0
 21 22  2  0  0  0  0
 21 23  1  0  0  0  0
 23 24  1  0  0  0  0
 23 25  1  0  0  0  0
 25 26  1  0  0  0  0
 25 27  1  0  0  0  0
 25 28  1  0  0  0  0
M  END
$$$$

  -OEChem-03222214033D

 28 27  0     1  0  0  0  0  0999 V2000
   -3.0511   -3.8157    1.3509 H   0  0  0  0  0  0  0  0  0  0  0  0
   -3.0733   -2.8297    0.8784 C   0  0  0  0  0  0  0  0  0  0  0  0
   -3.7189   -2.1722    1.4654 H   0  0  0  0  0  0  0  0  0  0  0  0
   -3.4858   -2.9312   -0.1284 H   0  0  0  0  0  0  0  0  0  0  0  0
   -1.6722   -2.2527    0.8078 C   0  0  0  0  0  0  0  0  0  0  0  0
   -0.7251   -2.8943    1.2332 O   0  0  0  0  0  0  0  0  0  0  0  0
   -1.4734   -1.0005    0.2646 N   0  0  0  0  0  0  0  0  0  0  0  0
   -2.3006   -0.4625    0.0110 H   0  0  0  0  0  0  0  0  0  0  0  0
   -0.1833   -0.2985    0.2293 C   0  0  1  0  0  0  0  0  0  0  0  0
    0.4933   -0.7662    0.9511 H   0  0  0  0  0  0  0  0  0  0  0  0
    0.4054   -0.4469   -1.1861 C   0  0  0  0  0  0  0  0  0  0  0  0
    0.2820   -1.4807   -1.5291 H   0  0  0  0  0  0  0  0  0  0  0  0
   -0.1580    0.1940   -1.8730 H   0  0  0  0  0  0  0  0  0  0  0  0
    1.8991   -0.0770   -1.2530 C   0  0  0  0  0  0  0  0  0  0  0  0
    2.1877    0.0420   -2.3013 H   0  0  0  0  0  0  0  0  0  0  0  0
    2.0901    0.8767   -0.7553 H   0  0  0  0  0  0  0  0  0  0  0  0
    2.7832   -1.1571   -0.6429 C   0  0  0  0  0  0  0  0  0  0  0  0
    3.1973   -2.0494   -1.3589 O   0  0  0  0  0  0  0  0  0  0  0  0
    3.0641   -1.0670    0.6761 O   0  0  0  0  0  0  0  0  0  0  0  0
    3.5927   -1.8585    0.8678 H   0  0  0  0  0  0  0  0  0  0  0  0
   -0.3250    1.1783    0.6443 C   0  0  0  0  0  0  0  0  0  0  0  0
   -1.2627    1.8448    0.2228 O   0  0  0  0  0  0  0  0  0  0  0  0
    0.5791    1.7442    1.5236 N   0  0  0  0  0  0  0  0  0  0  0  0
    1.3178    1.1461    1.8873 H   0  0  0  0  0  0  0  0  0  0  0  0
    0.4762    3.1159    2.0056 C   0  0  0  0  0  0  0  0  0  0  0  0
   -0.4563    3.2572    2.5622 H   0  0  0  0  0  0  0  0  0  0  0  0
    1.3145    3.3475    2.6697 H   0  0  0  0  0  0  0  0  0  0  0  0
    0.4959    3.8199    1.1669 H   0  0  0  0  0  0  0  0  0  0  0  0
  1  2  1  0  0  0  0
  2  3  1  0  0  0  0
  2  4  1  0  0  0  0
  2  5  1  0  0  0  0
  5  6  2  0  0  0  0
  5  7  1  0  0  0  0
  7  8  1  0  0  0  0
  7  9  1  0  0  0  0
  9 10  1  0  0  0  0
  9 11  1  0  0  0  0
  9 21  1  0  0  0  0
 11 12  1  0  0  0  0
 11 13  1  0  0  0  0
 11 14  1  0  0  0  0
 14 15  1  0  0  0  0
 14 16  1  0  0  0  0
 14 17  1  0  0  0  0
 17 18  2  0  0  0  0
 17 19  1  0  0  0  0
 19 20  1  0  0  0  0
 21 22  2  0  0  0  0
 21 23  1  0  0  0  0
 23 24  1  0  0  0  0
 23 25  1  0  0  0  0
 25 26  1  0  0  0  0
 25 27  1  0  0  0  0
 25 28  1  0  0  0  0
M  END
$$$$

  -OEChem-03222214033D

 28 27  0     1  0  0  0  0  0999 V2000
   -3.0684   -3.8249    1.1383 H   0  0  0  0  0  0  0  0  0  0  0  0
   -3.0613   -2.8359    0.6716 C   0  0  0  0  0  0  0  0  0  0  0  0
   -3.7482   -2.1840    1.2169 H   0  0  0  0  0  0  0  0  0  0  0  0
   -3.4025   -2.9317   -0.3620 H   0  0  0  0  0  0  0  0  0  0  0  0
   -1.6609   -2.2542    0.7012 C   0  0  0  0  0  0  0  0  0  0  0  0
   -0.7412   -2.8991    1.1777 O   0  0  0  0  0  0  0  0  0  0  0  0
   -1.4315   -0.9966    0.1840 N   0  0  0  0  0  0  0  0  0  0  0  0
   -2.2433   -0.4619   -0.1212 H   0  0  0  0  0  0  0  0  0  0  0  0
   -0.1554   -0.2736    0.2726 C   0  0  1  0  0  0  0  0  0  0  0  0
    0.4712   -0.7338    1.0450 H   0  0  0  0  0  0  0  0  0  0  0  0
    0.5554   -0.4068   -1.0857 C   0  0  0  0  0  0  0  0  0  0  0  0
    0.4679   -1.4351   -1.4552 H   0  0  0  0  0  0  0  0  0  0  0  0
    0.0485    0.2404   -1.8100 H   0  0  0  0  0  0  0  0  0  0  0  0
    2.0425   -0.0125   -1.0070 C   0  0  0  0  0  0  0  0  0  0  0  0
    2.3604    0.3538   -1.9867 H   0  0  0  0  0  0  0  0  0  0  0  0
    2.2081    0.7961   -0.2909 H   0  0  0  0  0  0  0  0  0  0  0  0
    2.9247   -1.2051   -0.6639 C   0  0  0  0  0  0  0  0  0  0  0  0
    3.4024   -1.2507    0.4553 O   0  0  0  0  0  0  0  0  0  0  0  0
    3.1379   -2.1482   -1.6064 O   0  0  0  0  0  0  0  0  0  0  0  0
    3.6897   -2.8176   -1.1731 H   0  0  0  0  0  0  0  0  0  0  0  0
   -0.3755    1.1976    0.6783 C   0  0  0  0  0  0  0  0  0  0  0  0
   -1.2844    1.8398    0.1656 O   0  0  0  0  0  0  0  0  0  0  0  0
    0.4195    1.7890    1.6427 N   0  0  0  0  0  0  0  0  0  0  0  0
    1.1176    1.2065    2.0994 H   0  0  0  0  0  0  0  0  0  0  0  0
    0.2191    3.1528    2.1171 C   0  0  0  0  0  0  0  0  0  0  0  0
   -0.7620    3.2524    2.5934 H   0  0  0  0  0  0  0  0  0  0  0  0
    0.9882    3.4160    2.8498 H   0  0  0  0  0  0  0  0  0  0  0  0
    0.2805    3.8618    1.2846 H   0  0  0  0  0  0  0  0  0  0  0  0
  1  2  1  0  0  0  0
  2  3  1  0  0  0  0
  2  4  1  0  0  0  0
  2  5  1  0  0  0  0
  5  6  2  0  0  0  0
  5  7  1  0  0  0  0
  7  8  1  0  0  0  0
  7  9  1  0  0  0  0
  9 10  1  0  0  0  0
  9 11  1  0  0  0  0
  9 21  1  0  0  0  0
 11 12  1  0  0  0  0
 11 13  1  0  0  0  0
 11 14  1  0  0  0  0
 14 15  1  0  0  0  0
 14 16  1  0  0  0  0
 14 17  1  0  0  0  0
 17 18  2  0  0  0  0
 17 19  1  0  0  0  0
 19 20  1  0  0  0  0
 21 22  2  0  0  0  0
 21 23  1  0  0  0  0
 23 24  1  0  0  0  0
 23 25  1  0  0  0  0
 25 26  1  0  0  0  0
 25 27  1  0  0  0  0
 25 28  1  0  0  0  0
M  END
$$$$

  -OEChem-03222214033D

 28 27  0     1  0  0  0  0  0999 V2000
   -3.2236   -3.7849    1.2308 H   0  0  0  0  0  0  0  0  0  0  0  0
   -3.1888   -2.8022    0.7522 C   0  0  0  0  0  0  0  0  0  0  0  0
   -3.8932   -2.1383    1.2590 H   0  0  0  0  0  0  0  0  0  0  0  0
   -3.4863   -2.9097   -0.2938 H   0  0  0  0  0  0  0  0  0  0  0  0
   -1.7859   -2.2311    0.8348 C   0  0  0  0  0  0  0  0  0  0  0  0
   -0.9092   -2.8494    1.4154 O   0  0  0  0  0  0  0  0  0  0  0  0
   -1.5173   -0.9961    0.2828 N   0  0  0  0  0  0  0  0  0  0  0  0
   -2.3000   -0.4745   -0.1073 H   0  0  0  0  0  0  0  0  0  0  0  0
   -0.2081   -0.3292    0.3038 C   0  0  1  0  0  0  0  0  0  0  0  0
    0.4434   -0.8102    1.0412 H   0  0  0  0  0  0  0  0  0  0  0  0
    0.4169   -0.4780   -1.0969 C   0  0  0  0  0  0  0  0  0  0  0  0
    0.2392   -1.4910   -1.4735 H   0  0  0  0  0  0  0  0  0  0  0  0
   -0.1014    0.2015   -1.7825 H   0  0  0  0  0  0  0  0  0  0  0  0
    1.9322   -0.1499   -1.1151 C   0  0  0  0  0  0  0  0  0  0  0  0
    2.1298    0.4756   -1.9899 H   0  0  0  0  0  0  0  0  0  0  0  0
    2.2118    0.4350   -0.2364 H   0  0  0  0  0  0  0  0  0  0  0  0
    2.8821   -1.3468   -1.2098 C   0  0  0  0  0  0  0  0  0  0  0  0
    2.4615   -2.4856   -1.1279 O   0  0  0  0  0  0  0  0  0  0  0  0
    4.1901   -1.0592   -1.3728 O   0  0  0  0  0  0  0  0  0  0  0  0
    4.6301   -1.9229   -1.4083 H   0  0  0  0  0  0  0  0  0  0  0  0
   -0.3563    1.1577    0.6881 C   0  0  0  0  0  0  0  0  0  0  0  0
   -1.2349    1.8370    0.1698 O   0  0  0  0  0  0  0  0  0  0  0  0
    0.4974    1.7375    1.6086 N   0  0  0  0  0  0  0  0  0  0  0  0
    1.1469    1.1260    2.0956 H   0  0  0  0  0  0  0  0  0  0  0  0
    0.3772    3.1246    2.0419 C   0  0  0  0  0  0  0  0  0  0  0  0
   -0.6007    3.2990    2.5030 H   0  0  0  0  0  0  0  0  0  0  0  0
    1.1533    3.3608    2.7762 H   0  0  0  0  0  0  0  0  0  0  0  0
    0.4908    3.8032    1.1898 H   0  0  0  0  0  0  0  0  0  0  0  0
  1  2  1  0  0  0  0
  2  3  1  0  0  0  0
  2  4  1  0  0  0  0
  2  5  1  0  0  0  0
  5  6  2  0  0  0  0
  5  7  1  0  0  0  0
  7  8  1  0  0  0  0
  7  9  1  0  0  0  0
  9 10  1  0  0  0  0
  9 11  1  0  0  0  0
  9 21  1  0  0  0  0
 11 12  1  0  0  0  0
 11 13  1  0  0  0  0
 11 14  1  0  0  0  0
 14 15  1  0  0  0  0
 14 16  1  0  0  0  0
 14 17  1  0  0  0  0
 17 18  2  0  0  0  0
 17 19  1  0  0  0  0
 19 20  1  0  0  0  0
 21 22  2  0  0  0  0
 21 23  1  0  0  0  0
 23 24  1  0  0  0  0
 23 25  1  0  0  0  0
 25 26  1  0  0  0  0
 25 27  1  0  0  0  0
 25 28  1  0  0  0  0
M  END
$$$$

  -OEChem-03222214033D

 28 27  0     1  0  0  0  0  0999 V2000
   -3.0363   -3.8325    1.3152 H   0  0  0  0  0  0  0  0  0  0  0  0
   -3.0559   -2.8468    0.8421 C   0  0  0  0  0  0  0  0  0  0  0  0
   -3.7232   -2.1958    1.4120 H   0  0  0  0  0  0  0  0  0  0  0  0
   -3.4411   -2.9521   -0.1749 H   0  0  0  0  0  0  0  0  0  0  0  0
   -1.6593   -2.2561    0.8067 C   0  0  0  0  0  0  0  0  0  0  0  0
   -0.7173   -2.8827    1.2645 O   0  0  0  0  0  0  0  0  0  0  0  0
   -1.4585   -1.0053    0.2619 N   0  0  0  0  0  0  0  0  0  0  0  0
   -2.2824   -0.4826   -0.0316 H   0  0  0  0  0  0  0  0  0  0  0  0
   -0.1742   -0.2920    0.2472 C   0  0  1  0  0  0  0  0  0  0  0  0
    0.5106   -0.7549    0.9658 H   0  0  0  0  0  0  0  0  0  0  0  0
    0.4195   -0.4170   -1.1669 C   0  0  0  0  0  0  0  0  0  0  0  0
    0.2965   -1.4518   -1.5075 H   0  0  0  0  0  0  0  0  0  0  0  0
   -0.1459    0.2157   -1.8603 H   0  0  0  0  0  0  0  0  0  0  0  0
    1.9156   -0.0344   -1.2192 C   0  0  0  0  0  0  0  0  0  0  0  0
    2.0516    0.8093   -1.9015 H   0  0  0  0  0  0  0  0  0  0  0  0
    2.2743    0.2822   -0.2370 H   0  0  0  0  0  0  0  0  0  0  0  0
    2.7911   -1.1858   -1.7001 C   0  0  0  0  0  0  0  0  0  0  0  0
    2.6827   -1.5596   -2.8537 O   0  0  0  0  0  0  0  0  0  0  0  0
    3.6450   -1.7423   -0.8150 O   0  0  0  0  0  0  0  0  0  0  0  0
    4.0783   -2.4599   -1.3026 H   0  0  0  0  0  0  0  0  0  0  0  0
   -0.3551    1.1845    0.6549 C   0  0  0  0  0  0  0  0  0  0  0  0
   -1.2928    1.8299    0.2017 O   0  0  0  0  0  0  0  0  0  0  0  0
    0.5119    1.7817    1.5516 N   0  0  0  0  0  0  0  0  0  0  0  0
    1.2131    1.1917    1.9912 H   0  0  0  0  0  0  0  0  0  0  0  0
    0.3414    3.1479    2.0320 C   0  0  0  0  0  0  0  0  0  0  0  0
   -0.5925    3.2416    2.5962 H   0  0  0  0  0  0  0  0  0  0  0  0
    1.1723    3.4257    2.6876 H   0  0  0  0  0  0  0  0  0  0  0  0
    0.3172    3.8499    1.1916 H   0  0  0  0  0  0  0  0  0  0  0  0
  1  2  1  0  0  0  0
  2  3  1  0  0  0  0
  2  4  1  0  0  0  0
  2  5  1  0  0  0  0
  5  6  2  0  0  0  0
  5  7  1  0  0  0  0
  7  8  1  0  0  0  0
  7  9  1  0  0  0  0
  9 10  1  0  0  0  0
  9 11  1  0  0  0  0
  9 21  1  0  0  0  0
 11 12  1  0  0  0  0
 11 13  1  0  0  0  0
 11 14  1  0  0  0  0
 14 15  1  0  0  0  0
 14 16  1  0  0  0  0
 14 17  1  0  0  0  0
 17 18  2  0  0  0  0
 17 19  1  0  0  0  0
 19 20  1  0  0  0  0
 21 22  2  0  0  0  0
 21 23  1  0  0  0  0
 23 24  1  0  0  0  0
 23 25  1  0  0  0  0
 25 26  1  0  0  0  0
 25 27  1  0  0  0  0
 25 28  1  0  0  0  0
M  END
$$$$

  -OEChem-03222214033D

 28 27  0     1  0  0  0  0  0999 V2000
   -3.0828   -3.8266    1.3026 H   0  0  0  0  0  0  0  0  0  0  0  0
   -3.0931   -2.8445    0.8219 C   0  0  0  0  0  0  0  0  0  0  0  0
   -3.7635   -2.1864    1.3799 H   0  0  0  0  0  0  0  0  0  0  0  0
   -3.4685   -2.9558   -0.1982 H   0  0  0  0  0  0  0  0  0  0  0  0
   -1.6936   -2.2596    0.7973 C   0  0  0  0  0  0  0  0  0  0  0  0
   -0.7580   -2.8903    1.2629 O   0  0  0  0  0  0  0  0  0  0  0  0
   -1.4826   -1.0085    0.2565 N   0  0  0  0  0  0  0  0  0  0  0  0
   -2.3017   -0.4827   -0.0448 H   0  0  0  0  0  0  0  0  0  0  0  0
   -0.1953   -0.2998    0.2534 C   0  0  1  0  0  0  0  0  0  0  0  0
    0.4781   -0.7679    0.9789 H   0  0  0  0  0  0  0  0  0  0  0  0
    0.4144   -0.4178   -1.1543 C   0  0  0  0  0  0  0  0  0  0  0  0
    0.3040   -1.4593   -1.4780 H   0  0  0  0  0  0  0  0  0  0  0  0
   -0.1435    0.2009   -1.8660 H   0  0  0  0  0  0  0  0  0  0  0  0
    1.9123   -0.0378   -1.1865 C   0  0  0  0  0  0  0  0  0  0  0  0
    2.0306    0.9636   -1.6092 H   0  0  0  0  0  0  0  0  0  0  0  0
    2.3195   -0.0154   -0.1726 H   0  0  0  0  0  0  0  0  0  0  0  0
    2.7584   -1.0193   -1.9928 C   0  0  0  0  0  0  0  0  0  0  0  0
    2.4072   -1.3107   -3.1218 O   0  0  0  0  0  0  0  0  0  0  0  0
    3.8716   -1.5150   -1.4119 O   0  0  0  0  0  0  0  0  0  0  0  0
    4.2527   -2.1144   -2.0723 H   0  0  0  0  0  0  0  0  0  0  0  0
   -0.3677    1.1772    0.6613 C   0  0  0  0  0  0  0  0  0  0  0  0
   -1.2975    1.8303    0.2030 O   0  0  0  0  0  0  0  0  0  0  0  0
    0.4978    1.7668    1.5646 N   0  0  0  0  0  0  0  0  0  0  0  0
    1.1995    1.1748    2.0004 H   0  0  0  0  0  0  0  0  0  0  0  0
    0.3471    3.1401    2.0313 C   0  0  0  0  0  0  0  0  0  0  0  0
   -0.5973    3.2594    2.5726 H   0  0  0  0  0  0  0  0  0  0  0  0
    1.1685    3.4042    2.7045 H   0  0  0  0  0  0  0  0  0  0  0  0
    0.3585    3.8361    1.1857 H   0  0  0  0  0  0  0  0  0  0  0  0
  1  2  1  0  0  0  0
  2  3  1  0  0  0  0
  2  4  1  0  0  0  0
  2  5  1  0  0  0  0
  5  6  2  0  0  0  0
  5  7  1  0  0  0  0
  7  8  1  0  0  0  0
  7  9  1  0  0  0  0
  9 10  1  0  0  0  0
  9 11  1  0  0  0  0
  9 21  1  0  0  0  0
 11 12  1  0  0  0  0
 11 13  1  0  0  0  0
 11 14  1  0  0  0  0
 14 15  1  0  0  0  0
 14 16  1  0  0  0  0
 14 17  1  0  0  0  0
 17 18  2  0  0  0  0
 17 19  1  0  0  0  0
 19 20  1  0  0  0  0
 21 22  2  0  0  0  0
 21 23  1  0  0  0  0
 23 24  1  0  0  0  0
 23 25  1  0  0  0  0
 25 26  1  0  0  0  0
 25 27  1  0  0  0  0
 25 28  1  0  0  0  0
M  END
$$$$

  -OEChem-03222214033D

 28 27  0     1  0  0  0  0  0999 V2000
   -3.1128   -3.8206    1.2783 H   0  0  0  0  0  0  0  0  0  0  0  0
   -3.1183   -2.8350    0.8045 C   0  0  0  0  0  0  0  0  0  0  0  0
   -3.7946   -2.1810    1.3601 H   0  0  0  0  0  0  0  0  0  0  0  0
   -3.4827   -2.9389   -0.2203 H   0  0  0  0  0  0  0  0  0  0  0  0
   -1.7186   -2.2504    0.7989 C   0  0  0  0  0  0  0  0  0  0  0  0
   -0.7899   -2.8802    1.2798 O   0  0  0  0  0  0  0  0  0  0  0  0
   -1.4984   -1.0020    0.2558 N   0  0  0  0  0  0  0  0  0  0  0  0
   -2.3113   -0.4757   -0.0609 H   0  0  0  0  0  0  0  0  0  0  0  0
   -0.2069   -0.3019    0.2574 C   0  0  1  0  0  0  0  0  0  0  0  0
    0.4596   -0.7714    0.9882 H   0  0  0  0  0  0  0  0  0  0  0  0
    0.4081   -0.4281   -1.1470 C   0  0  0  0  0  0  0  0  0  0  0  0
    0.3025   -1.4729   -1.4619 H   0  0  0  0  0  0  0  0  0  0  0  0
   -0.1419    0.1868   -1.8684 H   0  0  0  0  0  0  0  0  0  0  0  0
    1.9069   -0.0574   -1.1657 C   0  0  0  0  0  0  0  0  0  0  0  0
    2.0232    1.0188   -1.3187 H   0  0  0  0  0  0  0  0  0  0  0  0
    2.3591   -0.3079   -0.2026 H   0  0  0  0  0  0  0  0  0  0  0  0
    2.7047   -0.8027   -2.2341 C   0  0  0  0  0  0  0  0  0  0  0  0
    2.1770   -1.0715   -3.2986 O   0  0  0  0  0  0  0  0  0  0  0  0
    3.9844   -1.1187   -1.9433 O   0  0  0  0  0  0  0  0  0  0  0  0
    4.3121   -1.5802   -2.7307 H   0  0  0  0  0  0  0  0  0  0  0  0
   -0.3703    1.1772    0.6608 C   0  0  0  0  0  0  0  0  0  0  0  0
   -1.2964    1.8354    0.2026 O   0  0  0  0  0  0  0  0  0  0  0  0
    0.4967    1.7601    1.5669 N   0  0  0  0  0  0  0  0  0  0  0  0
    1.1950    1.1633    2.0014 H   0  0  0  0  0  0  0  0  0  0  0  0
    0.3497    3.1317    2.0398 C   0  0  0  0  0  0  0  0  0  0  0  0
   -0.6034    3.2559    2.5648 H   0  0  0  0  0  0  0  0  0  0  0  0
    1.1605    3.3835    2.7302 H   0  0  0  0  0  0  0  0  0  0  0  0
    0.3832    3.8331    1.1992 H   0  0  0  0  0  0  0  0  0  0  0  0
  1  2  1  0  0  0  0
  2  3  1  0  0  0  0
  2  4  1  0  0  0  0
  2  5  1  0  0  0  0
  5  6  2  0  0  0  0
  5  7  1  0  0  0  0
  7  8  1  0  0  0  0
  7  9  1  0  0  0  0
  9 10  1  0  0  0  0
  9 11  1  0  0  0  0
  9 21  1  0  0  0  0
 11 12  1  0  0  0  0
 11 13  1  0  0  0  0
 11 14  1  0  0  0  0
 14 15  1  0  0  0  0
 14 16  1  0  0  0  0
 14 17  1  0  0  0  0
 17 18  2  0  0  0  0
 17 19  1  0  0  0  0
 19 20  1  0  0  0  0
 21 22  2  0  0  0  0
 21 23  1  0  0  0  0
 23 24  1  0  0  0  0
 23 25  1  0  0  0  0
 25 26  1  0  0  0  0
 25 27  1  0  0  0  0
 25 28  1  0  0  0  0
M  END
$$$$

  -OEChem-03222214033D

 28 27  0     1  0  0  0  0  0999 V2000
   -3.1425   -3.8055    1.2732 H   0  0  0  0  0  0  0  0  0  0  0  0
   -3.1405   -2.8186    0.8021 C   0  0  0  0  0  0  0  0  0  0  0  0
   -3.8085   -2.1596    1.3618 H   0  0  0  0  0  0  0  0  0  0  0  0
   -3.5093   -2.9164   -0.2217 H   0  0  0  0  0  0  0  0  0  0  0  0
   -1.7358   -2.2464    0.7928 C   0  0  0  0  0  0  0  0  0  0  0  0
   -0.8111   -2.8841    1.2710 O   0  0  0  0  0  0  0  0  0  0  0  0
   -1.5072   -0.9993    0.2505 N   0  0  0  0  0  0  0  0  0  0  0  0
   -2.3169   -0.4668   -0.0643 H   0  0  0  0  0  0  0  0  0  0  0  0
   -0.2117   -0.3071    0.2556 C   0  0  1  0  0  0  0  0  0  0  0  0
    0.4505   -0.7786    0.9887 H   0  0  0  0  0  0  0  0  0  0  0  0
    0.4082   -0.4410   -1.1456 C   0  0  0  0  0  0  0  0  0  0  0  0
    0.3010   -1.4825   -1.4704 H   0  0  0  0  0  0  0  0  0  0  0  0
   -0.1345    0.1847   -1.8636 H   0  0  0  0  0  0  0  0  0  0  0  0
    1.9077   -0.0787   -1.1510 C   0  0  0  0  0  0  0  0  0  0  0  0
    2.0300    1.0027   -1.0484 H   0  0  0  0  0  0  0  0  0  0  0  0
    2.3996   -0.5564   -0.2995 H   0  0  0  0  0  0  0  0  0  0  0  0
    2.6453   -0.5326   -2.4104 C   0  0  0  0  0  0  0  0  0  0  0  0
    2.0208   -0.7741   -3.4282 O   0  0  0  0  0  0  0  0  0  0  0  0
    3.9887   -0.6328   -2.3283 O   0  0  0  0  0  0  0  0  0  0  0  0
    4.2707   -0.9272   -3.2082 H   0  0  0  0  0  0  0  0  0  0  0  0
   -0.3709    1.1725    0.6593 C   0  0  0  0  0  0  0  0  0  0  0  0
   -1.2936    1.8345    0.1998 O   0  0  0  0  0  0  0  0  0  0  0  0
    0.4953    1.7519    1.5684 N   0  0  0  0  0  0  0  0  0  0  0  0
    1.1906    1.1526    2.0041 H   0  0  0  0  0  0  0  0  0  0  0  0
    0.3490    3.1220    2.0453 C   0  0  0  0  0  0  0  0  0  0  0  0
   -0.6004    3.2430    2.5776 H   0  0  0  0  0  0  0  0  0  0  0  0
    1.1647    3.3740    2.7298 H   0  0  0  0  0  0  0  0  0  0  0  0
    0.3744    3.8252    1.2061 H   0  0  0  0  0  0  0  0  0  0  0  0
  1  2  1  0  0  0  0
  2  3  1  0  0  0  0
  2  4  1  0  0  0  0
  2  5  1  0  0  0  0
  5  6  2  0  0  0  0
  5  7  1  0  0  0  0
  7  8  1  0  0  0  0
  7  9  1  0  0  0  0
  9 10  1  0  0  0  0
  9 11  1  0  0  0  0
  9 21  1  0  0  0  0
 11 12  1  0  0  0  0
 11 13  1  0  0  0  0
 11 14  1  0  0  0  0
 14 15  1  0  0  0  0
 14 16  1  0  0  0  0
 14 17  1  0  0  0  0
 17 18  2  0  0  0  0
 17 19  1  0  0  0  0
 19 20  1  0  0  0  0
 21 22  2  0  0  0  0
 21 23  1  0  0  0  0
 23 24  1  0  0  0  0
 23 25  1  0  0  0  0
 25 26  1  0  0  0  0
 25 27  1  0  0  0  0
 25 28  1  0  0  0  0
M  END
$$$$

  -OEChem-03222214033D

 28 27  0     1  0  0  0  0  0999 V2000
   -3.1878   -3.7856    1.2902 H   0  0  0  0  0  0  0  0  0  0  0  0
   -3.1774   -2.8073    0.8017 C   0  0  0  0  0  0  0  0  0  0  0  0
   -3.8407   -2.1335    1.3493 H   0  0  0  0  0  0  0  0  0  0  0  0
   -3.5462   -2.9201   -0.2207 H   0  0  0  0  0  0  0  0  0  0  0  0
   -1.7679   -2.2467    0.7851 C   0  0  0  0  0  0  0  0  0  0  0  0
   -0.8462   -2.8928    1.2581 O   0  0  0  0  0  0  0  0  0  0  0  0
   -1.5314   -0.9994    0.2463 N   0  0  0  0  0  0  0  0  0  0  0  0
   -2.3378   -0.4599   -0.0652 H   0  0  0  0  0  0  0  0  0  0  0  0
   -0.2306   -0.3163    0.2498 C   0  0  1  0  0  0  0  0  0  0  0  0
    0.4207   -0.7954    0.9881 H   0  0  0  0  0  0  0  0  0  0  0  0
    0.4020   -0.4548   -1.1473 C   0  0  0  0  0  0  0  0  0  0  0  0
    0.0767   -1.3987   -1.5997 H   0  0  0  0  0  0  0  0  0  0  0  0
    0.0548    0.3553   -1.7991 H   0  0  0  0  0  0  0  0  0  0  0  0
    1.9417   -0.4641   -1.0724 C   0  0  0  0  0  0  0  0  0  0  0  0
    2.2906    0.4639   -0.6122 H   0  0  0  0  0  0  0  0  0  0  0  0
    2.2708   -1.2979   -0.4460 H   0  0  0  0  0  0  0  0  0  0  0  0
    2.6313   -0.5992   -2.4301 C   0  0  0  0  0  0  0  0  0  0  0  0
    1.9719   -0.7677   -3.4408 O   0  0  0  0  0  0  0  0  0  0  0  0
    3.9782   -0.5147   -2.4348 O   0  0  0  0  0  0  0  0  0  0  0  0
    4.2309   -0.6205   -3.3650 H   0  0  0  0  0  0  0  0  0  0  0  0
   -0.3682    1.1641    0.6578 C   0  0  0  0  0  0  0  0  0  0  0  0
   -1.2877    1.8381    0.2093 O   0  0  0  0  0  0  0  0  0  0  0  0
    0.5103    1.7286    1.5643 N   0  0  0  0  0  0  0  0  0  0  0  0
    1.2083    1.1222    1.9856 H   0  0  0  0  0  0  0  0  0  0  0  0
    0.3967    3.1045    2.0328 C   0  0  0  0  0  0  0  0  0  0  0  0
   -0.5629    3.2601    2.5371 H   0  0  0  0  0  0  0  0  0  0  0  0
    1.2002    3.3313    2.7402 H   0  0  0  0  0  0  0  0  0  0  0  0
    0.4701    3.8025    1.1920 H   0  0  0  0  0  0  0  0  0  0  0  0
  1  2  1  0  0  0  0
  2  3  1  0  0  0  0
  2  4  1  0  0  0  0
  2  5  1  0  0  0  0
  5  6  2  0  0  0  0
  5  7  1  0  0  0  0
  7  8  1  0  0  0  0
  7  9  1  0  0  0  0
  9 10  1  0  0  0  0
  9 11  1  0  0  0  0
  9 21  1  0  0  0  0
 11 12  1  0  0  0  0
 11 13  1  0  0  0  0
 11 14  1  0  0  0  0
 14 15  1  0  0  0  0
 14 16  1  0  0  0  0
 14 17  1  0  0  0  0
 17 18  2  0  0  0  0
 17 19  1  0  0  0  0
 19 20  1  0  0  0  0
 21 22  2  0  0  0  0
 21 23  1  0  0  0  0
 23 24  1  0  0  0  0
 23 25  1  0  0  0  0
 25 26  1  0  0  0  0
 25 27  1  0  0  0  0
 25 28  1  0  0  0  0
M  END
$$$$

  -OEChem-03222214033D

 28 27  0     1  0  0  0  0  0999 V2000
   -3.2075   -3.7731    1.2628 H   0  0  0  0  0  0  0  0  0  0  0  0
   -3.1907   -2.7841    0.7963 C   0  0  0  0  0  0  0  0  0  0  0  0
   -3.8435   -2.1160    1.3633 H   0  0  0  0  0  0  0  0  0  0  0  0
   -3.5682   -2.8703   -0.2254 H   0  0  0  0  0  0  0  0  0  0  0  0
   -1.7756   -2.2373    0.7808 C   0  0  0  0  0  0  0  0  0  0  0  0
   -0.8593   -2.8952    1.2477 O   0  0  0  0  0  0  0  0  0  0  0  0
   -1.5266   -0.9929    0.2411 N   0  0  0  0  0  0  0  0  0  0  0  0
   -2.3283   -0.4432   -0.0646 H   0  0  0  0  0  0  0  0  0  0  0  0
   -0.2207   -0.3199    0.2495 C   0  0  1  0  0  0  0  0  0  0  0  0
    0.4251   -0.8022    0.9908 H   0  0  0  0  0  0  0  0  0  0  0  0
    0.4130   -0.4740   -1.1455 C   0  0  0  0  0  0  0  0  0  0  0  0
    0.0779   -1.4091   -1.6088 H   0  0  0  0  0  0  0  0  0  0  0  0
    0.0737    0.3465   -1.7886 H   0  0  0  0  0  0  0  0  0  0  0  0
    1.9527   -0.4978   -1.0717 C   0  0  0  0  0  0  0  0  0  0  0  0
    2.2974    0.2993   -0.4081 H   0  0  0  0  0  0  0  0  0  0  0  0
    2.2874   -1.4514   -0.6542 H   0  0  0  0  0  0  0  0  0  0  0  0
    2.6362   -0.2869   -2.4225 C   0  0  0  0  0  0  0  0  0  0  0  0
    2.0249   -0.5026   -3.4540 O   0  0  0  0  0  0  0  0  0  0  0  0
    3.9195    0.1306   -2.3999 O   0  0  0  0  0  0  0  0  0  0  0  0
    4.1752    0.1978   -3.3330 H   0  0  0  0  0  0  0  0  0  0  0  0
   -0.3540    1.1625    0.6547 C   0  0  0  0  0  0  0  0  0  0  0  0
   -1.2742    1.8351    0.2055 O   0  0  0  0  0  0  0  0  0  0  0  0
    0.5199    1.7285    1.5650 N   0  0  0  0  0  0  0  0  0  0  0  0
    1.2138    1.1223    1.9931 H   0  0  0  0  0  0  0  0  0  0  0  0
    0.3960    3.1017    2.0400 C   0  0  0  0  0  0  0  0  0  0  0  0
   -0.5511    3.2398    2.5722 H   0  0  0  0  0  0  0  0  0  0  0  0
    1.2156    3.3411    2.7242 H   0  0  0  0  0  0  0  0  0  0  0  0
    0.4333    3.8033    1.1999 H   0  0  0  0  0  0  0  0  0  0  0  0
  1  2  1  0  0  0  0
  2  3  1  0  0  0  0
  2  4  1  0  0  0  0
  2  5  1  0  0  0  0
  5  6  2  0  0  0  0
  5  7  1  0  0  0  0
  7  8  1  0  0  0  0
  7  9  1  0  0  0  0
  9 10  1  0  0  0  0
  9 11  1  0  0  0  0
  9 21  1  0  0  0  0
 11 12  1  0  0  0  0
 11 13  1  0  0  0  0
 11 14  1  0  0  0  0
 14 15  1  0  0  0  0
 14 16  1  0  0  0  0
 14 17  1  0  0  0  0
 17 18  2  0  0  0  0
 17 19  1  0  0  0  0
 19 20  1  0  0  0  0
 21 22  2  0  0  0  0
 21 23  1  0  0  0  0
 23 24  1  0  0  0  0
 23 25  1  0  0  0  0
 25 26  1  0  0  0  0
 25 27  1  0  0  0  0
 25 28  1  0  0  0  0
M  END
$$$$

  -OEChem-03222214033D

 28 27  0     1  0  0  0  0  0999 V2000
   -3.2302   -3.7573    1.2517 H   0  0  0  0  0  0  0  0  0  0  0  0
   -3.2058   -2.7643    0.7942 C   0  0  0  0  0  0  0  0  0  0  0  0
   -3.8494   -2.0952    1.3703 H   0  0  0  0  0  0  0  0  0  0  0  0
   -3.5881   -2.8377   -0.2268 H   0  0  0  0  0  0  0  0  0  0  0  0
   -1.7858   -2.2311    0.7777 C   0  0  0  0  0  0  0  0  0  0  0  0
   -0.8757   -2.8971    1.2455 O   0  0  0  0  0  0  0  0  0  0  0  0
   -1.5257   -0.9900    0.2360 N   0  0  0  0  0  0  0  0  0  0  0  0
   -2.3230   -0.4321   -0.0665 H   0  0  0  0  0  0  0  0  0  0  0  0
   -0.2142   -0.3280    0.2468 C   0  0  1  0  0  0  0  0  0  0  0  0
    0.4241   -0.8151    0.9914 H   0  0  0  0  0  0  0  0  0  0  0  0
    0.4238   -0.4906   -1.1455 C   0  0  0  0  0  0  0  0  0  0  0  0
    0.0812   -1.4192   -1.6155 H   0  0  0  0  0  0  0  0  0  0  0  0
    0.0899    0.3354   -1.7848 H   0  0  0  0  0  0  0  0  0  0  0  0
    1.9645   -0.5274   -1.0717 C   0  0  0  0  0  0  0  0  0  0  0  0
    2.3089    0.0797   -0.2307 H   0  0  0  0  0  0  0  0  0  0  0  0
    2.3050   -1.5525   -0.9022 H   0  0  0  0  0  0  0  0  0  0  0  0
    2.6365    0.0262   -2.3260 C   0  0  0  0  0  0  0  0  0  0  0  0
    2.1619   -0.2291   -3.4182 O   0  0  0  0  0  0  0  0  0  0  0  0
    3.7449    0.7785   -2.1589 O   0  0  0  0  0  0  0  0  0  0  0  0
    4.0153    1.0254   -3.0570 H   0  0  0  0  0  0  0  0  0  0  0  0
   -0.3365    1.1562    0.6487 C   0  0  0  0  0  0  0  0  0  0  0  0
   -1.2526    1.8340    0.1988 O   0  0  0  0  0  0  0  0  0  0  0  0
    0.5393    1.7170    1.5602 N   0  0  0  0  0  0  0  0  0  0  0  0
    1.2335    1.1086    1.9846 H   0  0  0  0  0  0  0  0  0  0  0  0
    0.4220    3.0905    2.0353 C   0  0  0  0  0  0  0  0  0  0  0  0
   -0.5215    3.2304    2.5733 H   0  0  0  0  0  0  0  0  0  0  0  0
    1.2465    3.3287    2.7141 H   0  0  0  0  0  0  0  0  0  0  0  0
    0.4553    3.7912    1.1942 H   0  0  0  0  0  0  0  0  0  0  0  0
  1  2  1  0  0  0  0
  2  3  1  0  0  0  0
  2  4  1  0  0  0  0
  2  5  1  0  0  0  0
  5  6  2  0  0  0  0
  5  7  1  0  0  0  0
  7  8  1  0  0  0  0
  7  9  1  0  0  0  0
  9 10  1  0  0  0  0
  9 11  1  0  0  0  0
  9 21  1  0  0  0  0
 11 12  1  0  0  0  0
 11 13  1  0  0  0  0
 11 14  1  0  0  0  0
 14 15  1  0  0  0  0
 14 16  1  0  0  0  0
 14 17  1  0  0  0  0
 17 18  2  0  0  0  0
 17 19  1  0  0  0  0
 19 20  1  0  0  0  0
 21 22  2  0  0  0  0
 21 23  1  0  0  0  0
 23 24  1  0  0  0  0
 23 25  1  0  0  0  0
 25 26  1  0  0  0  0
 25 27  1  0  0  0  0
 25 28  1  0  0  0  0
M  END
$$$$

  -OEChem-03222214033D

 28 27  0     1  0  0  0  0  0999 V2000
   -3.2668   -3.7444    1.2209 H   0  0  0  0  0  0  0  0  0  0  0  0
   -3.2301   -2.7440    0.7807 C   0  0  0  0  0  0  0  0  0  0  0  0
   -3.8606   -2.0757    1.3719 H   0  0  0  0  0  0  0  0  0  0  0  0
   -3.6190   -2.7936   -0.2394 H   0  0  0  0  0  0  0  0  0  0  0  0
   -1.8024   -2.2318    0.7657 C   0  0  0  0  0  0  0  0  0  0  0  0
   -0.9013   -2.9157    1.2247 O   0  0  0  0  0  0  0  0  0  0  0  0
   -1.5246   -0.9920    0.2293 N   0  0  0  0  0  0  0  0  0  0  0  0
   -2.3154   -0.4174   -0.0587 H   0  0  0  0  0  0  0  0  0  0  0  0
   -0.2049   -0.3462    0.2486 C   0  0  1  0  0  0  0  0  0  0  0  0
    0.4196   -0.8454    0.9966 H   0  0  0  0  0  0  0  0  0  0  0  0
    0.4420   -0.5059   -1.1398 C   0  0  0  0  0  0  0  0  0  0  0  0
    0.0945   -1.4332   -1.6087 H   0  0  0  0  0  0  0  0  0  0  0  0
    0.1139    0.3181   -1.7848 H   0  0  0  0  0  0  0  0  0  0  0  0
    1.9820   -0.5606   -1.0624 C   0  0  0  0  0  0  0  0  0  0  0  0
    2.3352   -0.2134   -0.0883 H   0  0  0  0  0  0  0  0  0  0  0  0
    2.3240   -1.5921   -1.1857 H   0  0  0  0  0  0  0  0  0  0  0  0
    2.6303    0.3157   -2.1264 C   0  0  0  0  0  0  0  0  0  0  0  0
    2.5855   -0.0480   -3.2869 O   0  0  0  0  0  0  0  0  0  0  0  0
    3.2087    1.4695   -1.7304 O   0  0  0  0  0  0  0  0  0  0  0  0
    3.5347    1.8781   -2.5475 H   0  0  0  0  0  0  0  0  0  0  0  0
   -0.3053    1.1385    0.6543 C   0  0  0  0  0  0  0  0  0  0  0  0
   -1.2112    1.8297    0.2039 O   0  0  0  0  0  0  0  0  0  0  0  0
    0.5756    1.6829    1.5704 N   0  0  0  0  0  0  0  0  0  0  0  0
    1.2885    1.0748    1.9627 H   0  0  0  0  0  0  0  0  0  0  0  0
    0.5164    3.0725    2.0071 C   0  0  0  0  0  0  0  0  0  0  0  0
   -0.4349    3.2763    2.5096 H   0  0  0  0  0  0  0  0  0  0  0  0
    1.3300    3.2839    2.7078 H   0  0  0  0  0  0  0  0  0  0  0  0
    0.6144    3.7480    1.1506 H   0  0  0  0  0  0  0  0  0  0  0  0
  1  2  1  0  0  0  0
  2  3  1  0  0  0  0
  2  4  1  0  0  0  0
  2  5  1  0  0  0  0
  5  6  2  0  0  0  0
  5  7  1  0  0  0  0
  7  8  1  0  0  0  0
  7  9  1  0  0  0  0
  9 10  1  0  0  0  0
  9 11  1  0  0  0  0
  9 21  1  0  0  0  0
 11 12  1  0  0  0  0
 11 13  1  0  0  0  0
 11 14  1  0  0  0  0
 14 15  1  0  0  0  0
 14 16  1  0  0  0  0
 14 17  1  0  0  0  0
 17 18  2  0  0  0  0
 17 19  1  0  0  0  0
 19 20  1  0  0  0  0
 21 22  2  0  0  0  0
 21 23  1  0  0  0  0
 23 24  1  0  0  0  0
 23 25  1  0  0  0  0
 25 26  1  0  0  0  0
 25 27  1  0  0  0  0
 25 28  1  0  0  0  0
M  END
$$$$

  -OEChem-03222214033D

 28 27  0     1  0  0  0  0  0999 V2000
   -3.2679   -3.7398    1.2430 H   0  0  0  0  0  0  0  0  0  0  0  0
   -3.2325   -2.7371    0.8081 C   0  0  0  0  0  0  0  0  0  0  0  0
   -3.8305   -2.0635    1.4267 H   0  0  0  0  0  0  0  0  0  0  0  0
   -3.6598   -2.7738   -0.1969 H   0  0  0  0  0  0  0  0  0  0  0  0
   -1.7986   -2.2462    0.7442 C   0  0  0  0  0  0  0  0  0  0  0  0
   -0.8912   -2.9519    1.1554 O   0  0  0  0  0  0  0  0  0  0  0  0
   -1.5220   -0.9996    0.2231 N   0  0  0  0  0  0  0  0  0  0  0  0
   -2.3154   -0.4059   -0.0154 H   0  0  0  0  0  0  0  0  0  0  0  0
   -0.1986   -0.3606    0.2403 C   0  0  1  0  0  0  0  0  0  0  0  0
    0.4262   -0.8744    0.9779 H   0  0  0  0  0  0  0  0  0  0  0  0
    0.4405   -0.4880   -1.1554 C   0  0  0  0  0  0  0  0  0  0  0  0
    0.0915   -1.4157   -1.6222 H   0  0  0  0  0  0  0  0  0  0  0  0
    0.1017    0.3345   -1.7967 H   0  0  0  0  0  0  0  0  0  0  0  0
    1.9820   -0.5497   -1.0942 C   0  0  0  0  0  0  0  0  0  0  0  0
    2.3463   -0.5182   -0.0649 H   0  0  0  0  0  0  0  0  0  0  0  0
    2.3246   -1.4933   -1.5295 H   0  0  0  0  0  0  0  0  0  0  0  0
    2.6153    0.6007   -1.8643 C   0  0  0  0  0  0  0  0  0  0  0  0
    2.9122    0.4341   -3.0324 O   0  0  0  0  0  0  0  0  0  0  0  0
    2.8047    1.7642   -1.2059 O   0  0  0  0  0  0  0  0  0  0  0  0
    3.1863    2.3645   -1.8654 H   0  0  0  0  0  0  0  0  0  0  0  0
   -0.2922    1.1183    0.6694 C   0  0  0  0  0  0  0  0  0  0  0  0
   -1.2107    1.8116    0.2473 O   0  0  0  0  0  0  0  0  0  0  0  0
    0.5957    1.6501    1.5856 N   0  0  0  0  0  0  0  0  0  0  0  0
    1.3694    1.0650    1.8861 H   0  0  0  0  0  0  0  0  0  0  0  0
    0.5792    3.0516    1.9861 C   0  0  0  0  0  0  0  0  0  0  0  0
   -0.3859    3.3120    2.4336 H   0  0  0  0  0  0  0  0  0  0  0  0
    1.3641    3.2431    2.7241 H   0  0  0  0  0  0  0  0  0  0  0  0
    0.7525    3.6988    1.1197 H   0  0  0  0  0  0  0  0  0  0  0  0
  1  2  1  0  0  0  0
  2  3  1  0  0  0  0
  2  4  1  0  0  0  0
  2  5  1  0  0  0  0
  5  6  2  0  0  0  0
  5  7  1  0  0  0  0
  7  8  1  0  0  0  0
  7  9  1  0  0  0  0
  9 10  1  0  0  0  0
  9 11  1  0  0  0  0
  9 21  1  0  0  0  0
 11 12  1  0  0  0  0
 11 13  1  0  0  0  0
 11 14  1  0  0  0  0
 14 15  1  0  0  0  0
 14 16  1  0  0  0  0
 14 17  1  0  0  0  0
 17 18  2  0  0  0  0
 17 19  1  0  0  0  0
 19 20  1  0  0  0  0
 21 22  2  0  0  0  0
 21 23  1  0  0  0  0
 23 24  1  0  0  0  0
 23 25  1  0  0  0  0
 25 26  1  0  0  0  0
 25 27  1  0  0  0  0
 25 28  1  0  0  0  0
M  END
$$$$

  -OEChem-03222214033D

 28 27  0     1  0  0  0  0  0999 V2000
   -3.2494   -3.7845    1.1101 H   0  0  0  0  0  0  0  0  0  0  0  0
   -3.2077   -2.7746    0.6928 C   0  0  0  0  0  0  0  0  0  0  0  0
   -3.8489   -2.1203    1.2884 H   0  0  0  0  0  0  0  0  0  0  0  0
   -3.5803   -2.8024   -0.3339 H   0  0  0  0  0  0  0  0  0  0  0  0
   -1.7813   -2.2589    0.7120 C   0  0  0  0  0  0  0  0  0  0  0  0
   -0.8895   -2.9406    1.1919 O   0  0  0  0  0  0  0  0  0  0  0  0
   -1.4942   -1.0210    0.1768 N   0  0  0  0  0  0  0  0  0  0  0  0
   -2.2842   -0.4455   -0.1128 H   0  0  0  0  0  0  0  0  0  0  0  0
   -0.1959   -0.3420    0.2916 C   0  0  1  0  0  0  0  0  0  0  0  0
    0.3689   -0.8088    1.1048 H   0  0  0  0  0  0  0  0  0  0  0  0
    0.5791   -0.4860   -1.0314 C   0  0  0  0  0  0  0  0  0  0  0  0
    0.3073   -1.4460   -1.4838 H   0  0  0  0  0  0  0  0  0  0  0  0
    0.2808    0.2946   -1.7410 H   0  0  0  0  0  0  0  0  0  0  0  0
    2.1068   -0.4964   -0.8150 C   0  0  0  0  0  0  0  0  0  0  0  0
    2.3720   -0.7322    0.2192 H   0  0  0  0  0  0  0  0  0  0  0  0
    2.5469   -1.2769   -1.4418 H   0  0  0  0  0  0  0  0  0  0  0  0
    2.7400    0.8259   -1.2237 C   0  0  0  0  0  0  0  0  0  0  0  0
    2.9762    1.6350   -0.3442 O   0  0  0  0  0  0  0  0  0  0  0  0
    2.9945    1.0472   -2.5308 O   0  0  0  0  0  0  0  0  0  0  0  0
    3.3746    1.9383   -2.5693 H   0  0  0  0  0  0  0  0  0  0  0  0
   -0.3802    1.1451    0.6616 C   0  0  0  0  0  0  0  0  0  0  0  0
   -1.3029    1.7761    0.1571 O   0  0  0  0  0  0  0  0  0  0  0  0
    0.3994    1.7387    1.6361 N   0  0  0  0  0  0  0  0  0  0  0  0
    1.2458    1.2448    1.9063 H   0  0  0  0  0  0  0  0  0  0  0  0
    0.3095    3.1591    1.9506 C   0  0  0  0  0  0  0  0  0  0  0  0
   -0.7067    3.4207    2.2639 H   0  0  0  0  0  0  0  0  0  0  0  0
    0.9953    3.4093    2.7657 H   0  0  0  0  0  0  0  0  0  0  0  0
    0.5756    3.7617    1.0758 H   0  0  0  0  0  0  0  0  0  0  0  0
  1  2  1  0  0  0  0
  2  3  1  0  0  0  0
  2  4  1  0  0  0  0
  2  5  1  0  0  0  0
  5  6  2  0  0  0  0
  5  7  1  0  0  0  0
  7  8  1  0  0  0  0
  7  9  1  0  0  0  0
  9 10  1  0  0  0  0
  9 11  1  0  0  0  0
  9 21  1  0  0  0  0
 11 12  1  0  0  0  0
 11 13  1  0  0  0  0
 11 14  1  0  0  0  0
 14 15  1  0  0  0  0
 14 16  1  0  0  0  0
 14 17  1  0  0  0  0
 17 18  2  0  0  0  0
 17 19  1  0  0  0  0
 19 20  1  0  0  0  0
 21 22  2  0  0  0  0
 21 23  1  0  0  0  0
 23 24  1  0  0  0  0
 23 25  1  0  0  0  0
 25 26  1  0  0  0  0
 25 27  1  0  0  0  0
 25 28  1  0  0  0  0
M  END
$$$$

  -OEChem-03222214033D

 28 27  0     1  0  0  0  0  0999 V2000
   -3.2769   -3.7433    1.1053 H   0  0  0  0  0  0  0  0  0  0  0  0
   -3.2240   -2.7304    0.6965 C   0  0  0  0  0  0  0  0  0  0  0  0
   -3.8521   -2.0723    1.3017 H   0  0  0  0  0  0  0  0  0  0  0  0
   -3.6038   -2.7445   -0.3279 H   0  0  0  0  0  0  0  0  0  0  0  0
   -1.7904   -2.2350    0.7112 C   0  0  0  0  0  0  0  0  0  0  0  0
   -0.9074   -2.9281    1.1912 O   0  0  0  0  0  0  0  0  0  0  0  0
   -1.4854   -1.0033    0.1718 N   0  0  0  0  0  0  0  0  0  0  0  0
   -2.2668   -0.4142   -0.1144 H   0  0  0  0  0  0  0  0  0  0  0  0
   -0.1771   -0.3440    0.2889 C   0  0  1  0  0  0  0  0  0  0  0  0
    0.3842   -0.8094    1.1057 H   0  0  0  0  0  0  0  0  0  0  0  0
    0.5936   -0.5141   -1.0350 C   0  0  0  0  0  0  0  0  0  0  0  0
    0.3038   -1.4737   -1.4771 H   0  0  0  0  0  0  0  0  0  0  0  0
    0.3136    0.2665   -1.7520 H   0  0  0  0  0  0  0  0  0  0  0  0
    2.1193   -0.5521   -0.8221 C   0  0  0  0  0  0  0  0  0  0  0  0
    2.3770   -1.0409    0.1218 H   0  0  0  0  0  0  0  0  0  0  0  0
    2.5692   -1.1454   -1.6227 H   0  0  0  0  0  0  0  0  0  0  0  0
    2.7440    0.8343   -0.8851 C   0  0  0  0  0  0  0  0  0  0  0  0
    3.0307    1.3757    0.1685 O   0  0  0  0  0  0  0  0  0  0  0  0
    2.9362    1.4029   -2.0941 O   0  0  0  0  0  0  0  0  0  0  0  0
    3.3214    2.2736   -1.9113 H   0  0  0  0  0  0  0  0  0  0  0  0
   -0.3615    1.1456    0.6538 C   0  0  0  0  0  0  0  0  0  0  0  0
   -1.2888    1.7731    0.1527 O   0  0  0  0  0  0  0  0  0  0  0  0
    0.4114    1.7423    1.6316 N   0  0  0  0  0  0  0  0  0  0  0  0
    1.2890    1.2769    1.8569 H   0  0  0  0  0  0  0  0  0  0  0  0
    0.2868    3.1536    1.9738 C   0  0  0  0  0  0  0  0  0  0  0  0
   -0.7345    3.3830    2.2957 H   0  0  0  0  0  0  0  0  0  0  0  0
    0.9685    3.4042    2.7922 H   0  0  0  0  0  0  0  0  0  0  0  0
    0.5342    3.7800    1.1103 H   0  0  0  0  0  0  0  0  0  0  0  0
  1  2  1  0  0  0  0
  2  3  1  0  0  0  0
  2  4  1  0  0  0  0
  2  5  1  0  0  0  0
  5  6  2  0  0  0  0
  5  7  1  0  0  0  0
  7  8  1  0  0  0  0
  7  9  1  0  0  0  0
  9 10  1  0  0  0  0
  9 11  1  0  0  0  0
  9 21  1  0  0  0  0
 11 12  1  0  0  0  0
 11 13  1  0  0  0  0
 11 14  1  0  0  0  0
 14 15  1  0  0  0  0
 14 16  1  0  0  0  0
 14 17  1  0  0  0  0
 17 18  2  0  0  0  0
 17 19  1  0  0  0  0
 19 20  1  0  0  0  0
 21 22  2  0  0  0  0
 21 23  1  0  0  0  0
 23 24  1  0  0  0  0
 23 25  1  0  0  0  0
 25 26  1  0  0  0  0
 25 27  1  0  0  0  0
 25 28  1  0  0  0  0
M  END
$$$$

  -OEChem-03222214033D

 28 27  0     1  0  0  0  0  0999 V2000
   -3.1271   -3.7888    1.2689 H   0  0  0  0  0  0  0  0  0  0  0  0
   -3.1313   -2.7721    0.8659 C   0  0  0  0  0  0  0  0  0  0  0  0
   -3.7147   -2.1311    1.5314 H   0  0  0  0  0  0  0  0  0  0  0  0
   -3.6022   -2.7861   -0.1200 H   0  0  0  0  0  0  0  0  0  0  0  0
   -1.7121   -2.2480    0.7545 C   0  0  0  0  0  0  0  0  0  0  0  0
   -0.7725   -2.9399    1.1135 O   0  0  0  0  0  0  0  0  0  0  0  0
   -1.4853   -0.9897    0.2386 N   0  0  0  0  0  0  0  0  0  0  0  0
   -2.3010   -0.4067    0.0533 H   0  0  0  0  0  0  0  0  0  0  0  0
   -0.1793   -0.3157    0.2273 C   0  0  1  0  0  0  0  0  0  0  0  0
    0.4874   -0.8049    0.9454 H   0  0  0  0  0  0  0  0  0  0  0  0
    0.4165   -0.4366   -1.1907 C   0  0  0  0  0  0  0  0  0  0  0  0
    0.0718   -1.3770   -1.6343 H   0  0  0  0  0  0  0  0  0  0  0  0
    0.0465    0.3750   -1.8280 H   0  0  0  0  0  0  0  0  0  0  0  0
    1.9570   -0.4667   -1.1982 C   0  0  0  0  0  0  0  0  0  0  0  0
    2.3240   -1.1829   -0.4575 H   0  0  0  0  0  0  0  0  0  0  0  0
    2.2987   -0.8123   -2.1779 H   0  0  0  0  0  0  0  0  0  0  0  0
    2.5895    0.8953   -0.9433 C   0  0  0  0  0  0  0  0  0  0  0  0
    2.5844    1.7156   -1.8409 O   0  0  0  0  0  0  0  0  0  0  0  0
    3.1217    1.1337    0.2759 O   0  0  0  0  0  0  0  0  0  0  0  0
    3.4925    2.0284    0.2045 H   0  0  0  0  0  0  0  0  0  0  0  0
   -0.3439    1.1518    0.6794 C   0  0  0  0  0  0  0  0  0  0  0  0
   -1.3295    1.7871    0.3218 O   0  0  0  0  0  0  0  0  0  0  0  0
    0.5316    1.7178    1.5864 N   0  0  0  0  0  0  0  0  0  0  0  0
    1.3894    1.2054    1.7828 H   0  0  0  0  0  0  0  0  0  0  0  0
    0.4136    3.0937    2.0531 C   0  0  0  0  0  0  0  0  0  0  0  0
   -0.5542    3.2510    2.5412 H   0  0  0  0  0  0  0  0  0  0  0  0
    1.2034    3.3166    2.7770 H   0  0  0  0  0  0  0  0  0  0  0  0
    0.5031    3.7921    1.2143 H   0  0  0  0  0  0  0  0  0  0  0  0
  1  2  1  0  0  0  0
  2  3  1  0  0  0  0
  2  4  1  0  0  0  0
  2  5  1  0  0  0  0
  5  6  2  0  0  0  0
  5  7  1  0  0  0  0
  7  8  1  0  0  0  0
  7  9  1  0  0  0  0
  9 10  1  0  0  0  0
  9 11  1  0  0  0  0
  9 21  1  0  0  0  0
 11 12  1  0  0  0  0
 11 13  1  0  0  0  0
 11 14  1  0  0  0  0
 14 15  1  0  0  0  0
 14 16  1  0  0  0  0
 14 17  1  0  0  0  0
 17 18  2  0  0  0  0
 17 19  1  0  0  0  0
 19 20  1  0  0  0  0
 21 22  2  0  0  0  0
 21 23  1  0  0  0  0
 23 24  1  0  0  0  0
 23 25  1  0  0  0  0
 25 26  1  0  0  0  0
 25 27  1  0  0  0  0
 25 28  1  0  0  0  0
M  END
$$$$

  -OEChem-03222214033D

 28 27  0     1  0  0  0  0  0999 V2000
   -3.0877   -3.7952    1.3025 H   0  0  0  0  0  0  0  0  0  0  0  0
   -3.0989   -2.7939    0.8631 C   0  0  0  0  0  0  0  0  0  0  0  0
   -3.7015   -2.1381    1.4962 H   0  0  0  0  0  0  0  0  0  0  0  0
   -3.5533   -2.8497   -0.1291 H   0  0  0  0  0  0  0  0  0  0  0  0
   -1.6854   -2.2543    0.7552 C   0  0  0  0  0  0  0  0  0  0  0  0
   -0.7392   -2.9383    1.1116 O   0  0  0  0  0  0  0  0  0  0  0  0
   -1.4709   -0.9908    0.2469 N   0  0  0  0  0  0  0  0  0  0  0  0
   -2.2920   -0.4152    0.0619 H   0  0  0  0  0  0  0  0  0  0  0  0
   -0.1724   -0.3028    0.2449 C   0  0  1  0  0  0  0  0  0  0  0  0
    0.5055   -0.7881    0.9558 H   0  0  0  0  0  0  0  0  0  0  0  0
    0.4143   -0.4119   -1.1791 C   0  0  0  0  0  0  0  0  0  0  0  0
    0.0624   -1.3414   -1.6396 H   0  0  0  0  0  0  0  0  0  0  0  0
    0.0376    0.4149   -1.7923 H   0  0  0  0  0  0  0  0  0  0  0  0
    1.9549   -0.4323   -1.2264 C   0  0  0  0  0  0  0  0  0  0  0  0
    2.3184   -1.3093   -0.6828 H   0  0  0  0  0  0  0  0  0  0  0  0
    2.2774   -0.5378   -2.2662 H   0  0  0  0  0  0  0  0  0  0  0  0
    2.6249    0.8060   -0.6440 C   0  0  0  0  0  0  0  0  0  0  0  0
    2.7275    1.7916   -1.3486 O   0  0  0  0  0  0  0  0  0  0  0  0
    3.0803    0.7555    0.6279 O   0  0  0  0  0  0  0  0  0  0  0  0
    3.5281    1.6078    0.7554 H   0  0  0  0  0  0  0  0  0  0  0  0
   -0.3699    1.1583    0.7060 C   0  0  0  0  0  0  0  0  0  0  0  0
   -1.3540    1.7840    0.3274 O   0  0  0  0  0  0  0  0  0  0  0  0
    0.4867    1.7352    1.6234 N   0  0  0  0  0  0  0  0  0  0  0  0
    1.3232    1.2087    1.8689 H   0  0  0  0  0  0  0  0  0  0  0  0
    0.3568    3.1131    2.0807 C   0  0  0  0  0  0  0  0  0  0  0  0
   -0.6254    3.2748    2.5373 H   0  0  0  0  0  0  0  0  0  0  0  0
    1.1240    3.3378    2.8278 H   0  0  0  0  0  0  0  0  0  0  0  0
    0.4739    3.8071    1.2417 H   0  0  0  0  0  0  0  0  0  0  0  0
  1  2  1  0  0  0  0
  2  3  1  0  0  0  0
  2  4  1  0  0  0  0
  2  5  1  0  0  0  0
  5  6  2  0  0  0  0
  5  7  1  0  0  0  0
  7  8  1  0  0  0  0
  7  9  1  0  0  0  0
  9 10  1  0  0  0  0
  9 11  1  0  0  0  0
  9 21  1  0  0  0  0
 11 12  1  0  0  0  0
 11 13  1  0  0  0  0
 11 14  1  0  0  0  0
 14 15  1  0  0  0  0
 14 16  1  0  0  0  0
 14 17  1  0  0  0  0
 17 18  2  0  0  0  0
 17 19  1  0  0  0  0
 19 20  1  0  0  0  0
 21 22  2  0  0  0  0
 21 23  1  0  0  0  0
 23 24  1  0  0  0  0
 23 25  1  0  0  0  0
 25 26  1  0  0  0  0
 25 27  1  0  0  0  0
 25 28  1  0  0  0  0
M  END
$$$$

  -OEChem-03222214033D

 28 27  0     1  0  0  0  0  0999 V2000
   -3.0596   -3.8279    1.2760 H   0  0  0  0  0  0  0  0  0  0  0  0
   -3.0786   -2.8212    0.8490 C   0  0  0  0  0  0  0  0  0  0  0  0
   -3.6930   -2.1803    1.4859 H   0  0  0  0  0  0  0  0  0  0  0  0
   -3.5247   -2.8692   -0.1474 H   0  0  0  0  0  0  0  0  0  0  0  0
   -1.6703   -2.2648    0.7587 C   0  0  0  0  0  0  0  0  0  0  0  0
   -0.7209   -2.9372    1.1278 O   0  0  0  0  0  0  0  0  0  0  0  0
   -1.4661   -0.9986    0.2529 N   0  0  0  0  0  0  0  0  0  0  0  0
   -2.2929   -0.4370    0.0523 H   0  0  0  0  0  0  0  0  0  0  0  0
   -0.1773   -0.2915    0.2660 C   0  0  1  0  0  0  0  0  0  0  0  0
    0.4974   -0.7719    0.9827 H   0  0  0  0  0  0  0  0  0  0  0  0
    0.4221   -0.3969   -1.1542 C   0  0  0  0  0  0  0  0  0  0  0  0
    0.0737   -1.3226   -1.6251 H   0  0  0  0  0  0  0  0  0  0  0  0
    0.0373    0.4335   -1.7572 H   0  0  0  0  0  0  0  0  0  0  0  0
    1.9646   -0.3986   -1.2289 C   0  0  0  0  0  0  0  0  0  0  0  0
    2.3235   -1.3810   -0.9088 H   0  0  0  0  0  0  0  0  0  0  0  0
    2.2712   -0.2649   -2.2703 H   0  0  0  0  0  0  0  0  0  0  0  0
    2.6770    0.6436   -0.3726 C   0  0  0  0  0  0  0  0  0  0  0  0
    2.9660    1.7054   -0.8894 O   0  0  0  0  0  0  0  0  0  0  0  0
    2.9790    0.3427    0.9103 O   0  0  0  0  0  0  0  0  0  0  0  0
    3.5233    1.0887    1.2110 H   0  0  0  0  0  0  0  0  0  0  0  0
   -0.3960    1.1672    0.7235 C   0  0  0  0  0  0  0  0  0  0  0  0
   -1.3684    1.7919    0.3147 O   0  0  0  0  0  0  0  0  0  0  0  0
    0.4454    1.7508    1.6501 N   0  0  0  0  0  0  0  0  0  0  0  0
    1.2502    1.2055    1.9512 H   0  0  0  0  0  0  0  0  0  0  0  0
    0.3093    3.1301    2.1008 C   0  0  0  0  0  0  0  0  0  0  0  0
   -0.6757    3.2908    2.5515 H   0  0  0  0  0  0  0  0  0  0  0  0
    1.0725    3.3611    2.8500 H   0  0  0  0  0  0  0  0  0  0  0  0
    0.4292    3.8205    1.2592 H   0  0  0  0  0  0  0  0  0  0  0  0
  1  2  1  0  0  0  0
  2  3  1  0  0  0  0
  2  4  1  0  0  0  0
  2  5  1  0  0  0  0
  5  6  2  0  0  0  0
  5  7  1  0  0  0  0
  7  8  1  0  0  0  0
  7  9  1  0  0  0  0
  9 10  1  0  0  0  0
  9 11  1  0  0  0  0
  9 21  1  0  0  0  0
 11 12  1  0  0  0  0
 11 13  1  0  0  0  0
 11 14  1  0  0  0  0
 14 15  1  0  0  0  0
 14 16  1  0  0  0  0
 14 17  1  0  0  0  0
 17 18  2  0  0  0  0
 17 19  1  0  0  0  0
 19 20  1  0  0  0  0
 21 22  2  0  0  0  0
 21 23  1  0  0  0  0
 23 24  1  0  0  0  0
 23 25  1  0  0  0  0
 25 26  1  0  0  0  0
 25 27  1  0  0  0  0
 25 28  1  0  0  0  0
M  END
$$$$

  -OEChem-03222214033D

 28 27  0     1  0  0  0  0  0999 V2000
   -3.0442   -3.8875    1.1766 H   0  0  0  0  0  0  0  0  0  0  0  0
   -3.0744   -2.8559    0.8151 C   0  0  0  0  0  0  0  0  0  0  0  0
   -3.6861   -2.2611    1.4977 H   0  0  0  0  0  0  0  0  0  0  0  0
   -3.5309   -2.8440   -0.1776 H   0  0  0  0  0  0  0  0  0  0  0  0
   -1.6709   -2.2843    0.7473 C   0  0  0  0  0  0  0  0  0  0  0  0
   -0.7210   -2.9494    1.1276 O   0  0  0  0  0  0  0  0  0  0  0  0
   -1.4726   -1.0140    0.2486 N   0  0  0  0  0  0  0  0  0  0  0  0
   -2.3033   -0.4624    0.0368 H   0  0  0  0  0  0  0  0  0  0  0  0
   -0.1943   -0.2884    0.2851 C   0  0  1  0  0  0  0  0  0  0  0  0
    0.4635   -0.7684    1.0162 H   0  0  0  0  0  0  0  0  0  0  0  0
    0.4381   -0.3819   -1.1220 C   0  0  0  0  0  0  0  0  0  0  0  0
    0.1058   -1.3066   -1.6063 H   0  0  0  0  0  0  0  0  0  0  0  0
    0.0504    0.4477   -1.7237 H   0  0  0  0  0  0  0  0  0  0  0  0
    1.9841   -0.3597   -1.1893 C   0  0  0  0  0  0  0  0  0  0  0  0
    2.3394   -1.3918   -1.1215 H   0  0  0  0  0  0  0  0  0  0  0  0
    2.2943    0.0243   -2.1654 H   0  0  0  0  0  0  0  0  0  0  0  0
    2.7109    0.4226   -0.0984 C   0  0  0  0  0  0  0  0  0  0  0  0
    3.0345    1.5698   -0.3384 O   0  0  0  0  0  0  0  0  0  0  0  0
    2.9786   -0.1863    1.0773 O   0  0  0  0  0  0  0  0  0  0  0  0
    3.5485    0.4332    1.5597 H   0  0  0  0  0  0  0  0  0  0  0  0
   -0.4240    1.1688    0.7398 C   0  0  0  0  0  0  0  0  0  0  0  0
   -1.3897    1.7906    0.3113 O   0  0  0  0  0  0  0  0  0  0  0  0
    0.4024    1.7559    1.6780 N   0  0  0  0  0  0  0  0  0  0  0  0
    1.2088    1.2200    1.9858 H   0  0  0  0  0  0  0  0  0  0  0  0
    0.2842    3.1502    2.0846 C   0  0  0  0  0  0  0  0  0  0  0  0
   -0.6935    3.3353    2.5417 H   0  0  0  0  0  0  0  0  0  0  0  0
    1.0594    3.3983    2.8159 H   0  0  0  0  0  0  0  0  0  0  0  0
    0.4008    3.8116    1.2193 H   0  0  0  0  0  0  0  0  0  0  0  0
  1  2  1  0  0  0  0
  2  3  1  0  0  0  0
  2  4  1  0  0  0  0
  2  5  1  0  0  0  0
  5  6  2  0  0  0  0
  5  7  1  0  0  0  0
  7  8  1  0  0  0  0
  7  9  1  0  0  0  0
  9 10  1  0  0  0  0
  9 11  1  0  0  0  0
  9 21  1  0  0  0  0
 11 12  1  0  0  0  0
 11 13  1  0  0  0  0
 11 14  1  0  0  0  0
 14 15  1  0  0  0  0
 14 16  1  0  0  0  0
 14 17  1  0  0  0  0
 17 18  2  0  0  0  0
 17 19  1  0  0  0  0
 19 20  1  0  0  0  0
 21 22  2  0  0  0  0
 21 23  1  0  0  0  0
 23 24  1  0  0  0  0
 23 25  1  0  0  0  0
 25 26  1  0  0  0  0
 25 27  1  0  0  0  0
 25 28  1  0  0  0  0
M  END
$$$$

  -OEChem-03222214033D

 28 27  0     1  0  0  0  0  0999 V2000
   -3.1074   -3.8032    1.2038 H   0  0  0  0  0  0  0  0  0  0  0  0
   -3.1046   -2.7836    0.8087 C   0  0  0  0  0  0  0  0  0  0  0  0
   -3.7097   -2.1505    1.4621 H   0  0  0  0  0  0  0  0  0  0  0  0
   -3.5467   -2.7918   -0.1905 H   0  0  0  0  0  0  0  0  0  0  0  0
   -1.6855   -2.2519    0.7435 C   0  0  0  0  0  0  0  0  0  0  0  0
   -0.7560   -2.9378    1.1377 O   0  0  0  0  0  0  0  0  0  0  0  0
   -1.4488   -0.9927    0.2349 N   0  0  0  0  0  0  0  0  0  0  0  0
   -2.2631   -0.4098    0.0401 H   0  0  0  0  0  0  0  0  0  0  0  0
   -0.1561   -0.2956    0.3094 C   0  0  1  0  0  0  0  0  0  0  0  0
    0.4778   -0.7695    1.0656 H   0  0  0  0  0  0  0  0  0  0  0  0
    0.5058   -0.3749   -1.0871 C   0  0  0  0  0  0  0  0  0  0  0  0
    0.1578   -1.2842   -1.5896 H   0  0  0  0  0  0  0  0  0  0  0  0
    0.1441    0.4697   -1.6843 H   0  0  0  0  0  0  0  0  0  0  0  0
    2.0565   -0.3920   -1.1425 C   0  0  0  0  0  0  0  0  0  0  0  0
    2.3706   -1.4112   -1.3861 H   0  0  0  0  0  0  0  0  0  0  0  0
    2.3893    0.2483   -1.9640 H   0  0  0  0  0  0  0  0  0  0  0  0
    2.8213    0.0157    0.1138 C   0  0  0  0  0  0  0  0  0  0  0  0
    2.8016    1.1796    0.4692 O   0  0  0  0  0  0  0  0  0  0  0  0
    3.4857   -0.9497    0.7831 O   0  0  0  0  0  0  0  0  0  0  0  0
    3.9209   -0.5083    1.5280 H   0  0  0  0  0  0  0  0  0  0  0  0
   -0.4397    1.1663    0.7435 C   0  0  0  0  0  0  0  0  0  0  0  0
   -1.4532    1.7209    0.3269 O   0  0  0  0  0  0  0  0  0  0  0  0
    0.3138    1.8000    1.7128 N   0  0  0  0  0  0  0  0  0  0  0  0
    1.2670    1.4531    1.8136 H   0  0  0  0  0  0  0  0  0  0  0  0
    0.0599    3.1774    2.1181 C   0  0  0  0  0  0  0  0  0  0  0  0
   -0.9600    3.2840    2.5026 H   0  0  0  0  0  0  0  0  0  0  0  0
    0.7564    3.4717    2.9089 H   0  0  0  0  0  0  0  0  0  0  0  0
    0.1905    3.8568    1.2692 H   0  0  0  0  0  0  0  0  0  0  0  0
  1  2  1  0  0  0  0
  2  3  1  0  0  0  0
  2  4  1  0  0  0  0
  2  5  1  0  0  0  0
  5  6  2  0  0  0  0
  5  7  1  0  0  0  0
  7  8  1  0  0  0  0
  7  9  1  0  0  0  0
  9 10  1  0  0  0  0
  9 11  1  0  0  0  0
  9 21  1  0  0  0  0
 11 12  1  0  0  0  0
 11 13  1  0  0  0  0
 11 14  1  0  0  0  0
 14 15  1  0  0  0  0
 14 16  1  0  0  0  0
 14 17  1  0  0  0  0
 17 18  2  0  0  0  0
 17 19  1  0  0  0  0
 19 20  1  0  0  0  0
 21 22  2  0  0  0  0
 21 23  1  0  0  0  0
 23 24  1  0  0  0  0
 23 25  1  0  0  0  0
 25 26  1  0  0  0  0
 25 27  1  0  0  0  0
 25 28  1  0  0  0  0
M  END
$$$$

  -OEChem-03222214033D

 28 27  0     1  0  0  0  0  0999 V2000
   -3.1351   -3.7848    1.2497 H   0  0  0  0  0  0  0  0  0  0  0  0
   -3.1210   -2.7932    0.7888 C   0  0  0  0  0  0  0  0  0  0  0  0
   -3.7570   -2.1245    1.3739 H   0  0  0  0  0  0  0  0  0  0  0  0
   -3.5198   -2.8700   -0.2256 H   0  0  0  0  0  0  0  0  0  0  0  0
   -1.7031   -2.2557    0.7480 C   0  0  0  0  0  0  0  0  0  0  0  0
   -0.7794   -2.9342    1.1679 O   0  0  0  0  0  0  0  0  0  0  0  0
   -1.4611   -1.0004    0.2319 N   0  0  0  0  0  0  0  0  0  0  0  0
   -2.2734   -0.4254    0.0090 H   0  0  0  0  0  0  0  0  0  0  0  0
   -0.1726   -0.2977    0.3241 C   0  0  1  0  0  0  0  0  0  0  0  0
    0.4386   -0.7674    1.1005 H   0  0  0  0  0  0  0  0  0  0  0  0
    0.5230   -0.3796   -1.0563 C   0  0  0  0  0  0  0  0  0  0  0  0
    0.1988   -1.3092   -1.5374 H   0  0  0  0  0  0  0  0  0  0  0  0
    0.1561    0.4388   -1.6859 H   0  0  0  0  0  0  0  0  0  0  0  0
    2.0768   -0.3869   -1.0911 C   0  0  0  0  0  0  0  0  0  0  0  0
    2.4039   -1.2953   -1.6055 H   0  0  0  0  0  0  0  0  0  0  0  0
    2.4140    0.4588   -1.6965 H   0  0  0  0  0  0  0  0  0  0  0  0
    2.8268   -0.3169    0.2379 C   0  0  0  0  0  0  0  0  0  0  0  0
    2.7886    0.7103    0.8919 O   0  0  0  0  0  0  0  0  0  0  0  0
    3.5036   -1.4171    0.6280 O   0  0  0  0  0  0  0  0  0  0  0  0
    3.9004   -1.1963    1.4841 H   0  0  0  0  0  0  0  0  0  0  0  0
   -0.4461    1.1700    0.7378 C   0  0  0  0  0  0  0  0  0  0  0  0
   -1.4340    1.7400    0.2830 O   0  0  0  0  0  0  0  0  0  0  0  0
    0.3010    1.8036    1.7112 N   0  0  0  0  0  0  0  0  0  0  0  0
    1.2259    1.4052    1.8827 H   0  0  0  0  0  0  0  0  0  0  0  0
    0.0760    3.1911    2.0972 C   0  0  0  0  0  0  0  0  0  0  0  0
   -0.9546    3.3335    2.4390 H   0  0  0  0  0  0  0  0  0  0  0  0
    0.7491    3.4691    2.9138 H   0  0  0  0  0  0  0  0  0  0  0  0
    0.2617    3.8594    1.2500 H   0  0  0  0  0  0  0  0  0  0  0  0
  1  2  1  0  0  0  0
  2  3  1  0  0  0  0
  2  4  1  0  0  0  0
  2  5  1  0  0  0  0
  5  6  2  0  0  0  0
  5  7  1  0  0  0  0
  7  8  1  0  0  0  0
  7  9  1  0  0  0  0
  9 10  1  0  0  0  0
  9 11  1  0  0  0  0
  9 21  1  0  0  0  0
 11 12  1  0  0  0  0
 11 13  1  0  0  0  0
 11 14  1  0  0  0  0
 14 15  1  0  0  0  0
 14 16  1  0  0  0  0
 14 17  1  0  0  0  0
 17 18  2  0  0  0  0
 17 19  1  0  0  0  0
 19 20  1  0  0  0  0
 21 22  2  0  0  0  0
 21 23  1  0  0  0  0
 23 24  1  0  0  0  0
 23 25  1  0  0  0  0
 25 26  1  0  0  0  0
 25 27  1  0  0  0  0
 25 28  1  0  0  0  0
M  END
$$$$

  -OEChem-03222214033D

 28 27  0     1  0  0  0  0  0999 V2000
   -3.1313   -3.8243    1.2322 H   0  0  0  0  0  0  0  0  0  0  0  0
   -3.1256   -2.8381    0.7597 C   0  0  0  0  0  0  0  0  0  0  0  0
   -3.7922   -2.1764    1.3180 H   0  0  0  0  0  0  0  0  0  0  0  0
   -3.4934   -2.9361   -0.2645 H   0  0  0  0  0  0  0  0  0  0  0  0
   -1.7189   -2.2703    0.7521 C   0  0  0  0  0  0  0  0  0  0  0  0
   -0.7915   -2.9299    1.1935 O   0  0  0  0  0  0  0  0  0  0  0  0
   -1.4915   -1.0135    0.2316 N   0  0  0  0  0  0  0  0  0  0  0  0
   -2.3098   -0.4602   -0.0198 H   0  0  0  0  0  0  0  0  0  0  0  0
   -0.2132   -0.2914    0.3155 C   0  0  1  0  0  0  0  0  0  0  0  0
    0.3797   -0.7576    1.1062 H   0  0  0  0  0  0  0  0  0  0  0  0
    0.5096   -0.3904   -1.0485 C   0  0  0  0  0  0  0  0  0  0  0  0
    0.2229   -1.3494   -1.4940 H   0  0  0  0  0  0  0  0  0  0  0  0
    0.1336    0.3904   -1.7188 H   0  0  0  0  0  0  0  0  0  0  0  0
    2.0625   -0.3663   -1.0458 C   0  0  0  0  0  0  0  0  0  0  0  0
    2.4277   -1.1060   -1.7640 H   0  0  0  0  0  0  0  0  0  0  0  0
    2.3888    0.6141   -1.4044 H   0  0  0  0  0  0  0  0  0  0  0  0
    2.7699   -0.6043    0.2871 C   0  0  0  0  0  0  0  0  0  0  0  0
    2.7633    0.2831    1.1248 O   0  0  0  0  0  0  0  0  0  0  0  0
    3.3709   -1.7978    0.4742 O   0  0  0  0  0  0  0  0  0  0  0  0
    3.7300   -1.7743    1.3741 H   0  0  0  0  0  0  0  0  0  0  0  0
   -0.4398    1.1813    0.7205 C   0  0  0  0  0  0  0  0  0  0  0  0
   -1.4019    1.7883    0.2613 O   0  0  0  0  0  0  0  0  0  0  0  0
    0.3500    1.7841    1.6795 N   0  0  0  0  0  0  0  0  0  0  0  0
    1.2298    1.3112    1.8978 H   0  0  0  0  0  0  0  0  0  0  0  0
    0.1956    3.1775    2.0767 C   0  0  0  0  0  0  0  0  0  0  0  0
   -0.8196    3.3625    2.4435 H   0  0  0  0  0  0  0  0  0  0  0  0
    0.8995    3.4206    2.8786 H   0  0  0  0  0  0  0  0  0  0  0  0
    0.3908    3.8418    1.2286 H   0  0  0  0  0  0  0  0  0  0  0  0
  1  2  1  0  0  0  0
  2  3  1  0  0  0  0
  2  4  1  0  0  0  0
  2  5  1  0  0  0  0
  5  6  2  0  0  0  0
  5  7  1  0  0  0  0
  7  8  1  0  0  0  0
  7  9  1  0  0  0  0
  9 10  1  0  0  0  0
  9 11  1  0  0  0  0
  9 21  1  0  0  0  0
 11 12  1  0  0  0  0
 11 13  1  0  0  0  0
 11 14  1  0  0  0  0
 14 15  1  0  0  0  0
 14 16  1  0  0  0  0
 14 17  1  0  0  0  0
 17 18  2  0  0  0  0
 17 19  1  0  0  0  0
 19 20  1  0  0  0  0
 21 22  2  0  0  0  0
 21 23  1  0  0  0  0
 23 24  1  0  0  0  0
 23 25  1  0  0  0  0
 25 26  1  0  0  0  0
 25 27  1  0  0  0  0
 25 28  1  0  0  0  0
M  END
$$$$

  -OEChem-03222214033D

 28 27  0     1  0  0  0  0  0999 V2000
   -3.0938   -3.8646    1.2156 H   0  0  0  0  0  0  0  0  0  0  0  0
   -3.1109   -2.8740    0.7526 C   0  0  0  0  0  0  0  0  0  0  0  0
   -3.7742   -2.2265    1.3311 H   0  0  0  0  0  0  0  0  0  0  0  0
   -3.4993   -2.9668   -0.2645 H   0  0  0  0  0  0  0  0  0  0  0  0
   -1.7122   -2.2880    0.7214 C   0  0  0  0  0  0  0  0  0  0  0  0
   -0.7697   -2.9371    1.1464 O   0  0  0  0  0  0  0  0  0  0  0  0
   -1.5116   -1.0248    0.2042 N   0  0  0  0  0  0  0  0  0  0  0  0
   -2.3418   -0.4878   -0.0417 H   0  0  0  0  0  0  0  0  0  0  0  0
   -0.2449   -0.2818    0.2742 C   0  0  1  0  0  0  0  0  0  0  0  0
    0.3331   -0.7439    1.0764 H   0  0  0  0  0  0  0  0  0  0  0  0
    0.5050   -0.3993   -1.0725 C   0  0  0  0  0  0  0  0  0  0  0  0
    0.2542   -1.3772   -1.4978 H   0  0  0  0  0  0  0  0  0  0  0  0
    0.1326    0.3568   -1.7725 H   0  0  0  0  0  0  0  0  0  0  0  0
    2.0526   -0.3370   -1.0074 C   0  0  0  0  0  0  0  0  0  0  0  0
    2.4684   -0.8816   -1.8595 H   0  0  0  0  0  0  0  0  0  0  0  0
    2.3592    0.7077   -1.1122 H   0  0  0  0  0  0  0  0  0  0  0  0
    2.6991   -0.8679    0.2689 C   0  0  0  0  0  0  0  0  0  0  0  0
    2.7649   -0.1232    1.2351 O   0  0  0  0  0  0  0  0  0  0  0  0
    3.1534   -2.1382    0.2718 O   0  0  0  0  0  0  0  0  0  0  0  0
    3.4657   -2.3048    1.1741 H   0  0  0  0  0  0  0  0  0  0  0  0
   -0.4271    1.1909    0.6841 C   0  0  0  0  0  0  0  0  0  0  0  0
   -1.3738    1.8320    0.2423 O   0  0  0  0  0  0  0  0  0  0  0  0
    0.4105    1.7555    1.6263 N   0  0  0  0  0  0  0  0  0  0  0  0
    1.2422    1.2191    1.8829 H   0  0  0  0  0  0  0  0  0  0  0  0
    0.3030    3.1407    2.0642 C   0  0  0  0  0  0  0  0  0  0  0  0
   -0.6866    3.3312    2.4929 H   0  0  0  0  0  0  0  0  0  0  0  0
    1.0560    3.3542    2.8290 H   0  0  0  0  0  0  0  0  0  0  0  0
    0.4595    3.8225    1.2219 H   0  0  0  0  0  0  0  0  0  0  0  0
  1  2  1  0  0  0  0
  2  3  1  0  0  0  0
  2  4  1  0  0  0  0
  2  5  1  0  0  0  0
  5  6  2  0  0  0  0
  5  7  1  0  0  0  0
  7  8  1  0  0  0  0
  7  9  1  0  0  0  0
  9 10  1  0  0  0  0
  9 11  1  0  0  0  0
  9 21  1  0  0  0  0
 11 12  1  0  0  0  0
 11 13  1  0  0  0  0
 11 14  1  0  0  0  0
 14 15  1  0  0  0  0
 14 16  1  0  0  0  0
 14 17  1  0  0  0  0
 17 18  2  0  0  0  0
 17 19  1  0  0  0  0
 19 20  1  0  0  0  0
 21 22  2  0  0  0  0
 21 23  1  0  0  0  0
 23 24  1  0  0  0  0
 23 25  1  0  0  0  0
 25 26  1  0  0  0  0
 25 27  1  0  0  0  0
 25 28  1  0  0  0  0
M  END
$$$$

  -OEChem-03222214033D

 28 27  0     1  0  0  0  0  0999 V2000
   -3.2039   -3.7764    1.3449 H   0  0  0  0  0  0  0  0  0  0  0  0
   -3.1912   -2.8043    0.8440 C   0  0  0  0  0  0  0  0  0  0  0  0
   -3.8408   -2.1175    1.3920 H   0  0  0  0  0  0  0  0  0  0  0  0
   -3.5749   -2.9262   -0.1717 H   0  0  0  0  0  0  0  0  0  0  0  0
   -1.7771   -2.2574    0.8009 C   0  0  0  0  0  0  0  0  0  0  0  0
   -0.8541   -2.9152    1.2532 O   0  0  0  0  0  0  0  0  0  0  0  0
   -1.5429   -1.0094    0.2613 N   0  0  0  0  0  0  0  0  0  0  0  0
   -2.3551   -0.4593   -0.0126 H   0  0  0  0  0  0  0  0  0  0  0  0
   -0.2413   -0.3268    0.2520 C   0  0  1  0  0  0  0  0  0  0  0  0
    0.3717   -0.8094    1.0139 H   0  0  0  0  0  0  0  0  0  0  0  0
    0.4105   -0.4794   -1.1401 C   0  0  0  0  0  0  0  0  0  0  0  0
    0.0882   -1.4398   -1.5580 H   0  0  0  0  0  0  0  0  0  0  0  0
    0.0390    0.3027   -1.8112 H   0  0  0  0  0  0  0  0  0  0  0  0
    1.9565   -0.4888   -1.1518 C   0  0  0  0  0  0  0  0  0  0  0  0
    2.3029   -0.8169   -2.1363 H   0  0  0  0  0  0  0  0  0  0  0  0
    2.3130    0.5344   -1.0078 H   0  0  0  0  0  0  0  0  0  0  0  0
    2.6221   -1.3581   -0.0892 C   0  0  0  0  0  0  0  0  0  0  0  0
    2.9734   -2.4804   -0.3985 O   0  0  0  0  0  0  0  0  0  0  0  0
    2.8273   -0.8253    1.1385 O   0  0  0  0  0  0  0  0  0  0  0  0
    3.2481   -1.5434    1.6402 H   0  0  0  0  0  0  0  0  0  0  0  0
   -0.3291    1.1549    0.6568 C   0  0  0  0  0  0  0  0  0  0  0  0
   -1.2468    1.8514    0.2403 O   0  0  0  0  0  0  0  0  0  0  0  0
    0.5892    1.6808    1.5453 N   0  0  0  0  0  0  0  0  0  0  0  0
    1.3457    1.0709    1.8522 H   0  0  0  0  0  0  0  0  0  0  0  0
    0.5570    3.0621    2.0084 C   0  0  0  0  0  0  0  0  0  0  0  0
   -0.3779    3.2656    2.5412 H   0  0  0  0  0  0  0  0  0  0  0  0
    1.3916    3.2516    2.6904 H   0  0  0  0  0  0  0  0  0  0  0  0
    0.6379    3.7524    1.1621 H   0  0  0  0  0  0  0  0  0  0  0  0
  1  2  1  0  0  0  0
  2  3  1  0  0  0  0
  2  4  1  0  0  0  0
  2  5  1  0  0  0  0
  5  6  2  0  0  0  0
  5  7  1  0  0  0  0
  7  8  1  0  0  0  0
  7  9  1  0  0  0  0
  9 10  1  0  0  0  0
  9 11  1  0  0  0  0
  9 21  1  0  0  0  0
 11 12  1  0  0  0  0
 11 13  1  0  0  0  0
 11 14  1  0  0  0  0
 14 15  1  0  0  0  0
 14 16  1  0  0  0  0
 14 17  1  0  0  0  0
 17 18  2  0  0  0  0
 17 19  1  0  0  0  0
 19 20  1  0  0  0  0
 21 22  2  0  0  0  0
 21 23  1  0  0  0  0
 23 24  1  0  0  0  0
 23 25  1  0  0  0  0
 25 26  1  0  0  0  0
 25 27  1  0  0  0  0
 25 28  1  0  0  0  0
M  END
$$$$

  -OEChem-03222214033D

 28 27  0     1  0  0  0  0  0999 V2000
   -3.1165   -3.7956    1.3774 H   0  0  0  0  0  0  0  0  0  0  0  0
   -3.1195   -2.8326    0.8591 C   0  0  0  0  0  0  0  0  0  0  0  0
   -3.7820   -2.1476    1.3937 H   0  0  0  0  0  0  0  0  0  0  0  0
   -3.4982   -2.9793   -0.1552 H   0  0  0  0  0  0  0  0  0  0  0  0
   -1.7149   -2.2623    0.8082 C   0  0  0  0  0  0  0  0  0  0  0  0
   -0.7783   -2.9053    1.2544 O   0  0  0  0  0  0  0  0  0  0  0  0
   -1.5034   -1.0097    0.2696 N   0  0  0  0  0  0  0  0  0  0  0  0
   -2.3236   -0.4716   -0.0050 H   0  0  0  0  0  0  0  0  0  0  0  0
   -0.2076   -0.3172    0.2438 C   0  0  1  0  0  0  0  0  0  0  0  0
    0.4431   -0.7933    0.9804 H   0  0  0  0  0  0  0  0  0  0  0  0
    0.4005   -0.4495   -1.1695 C   0  0  0  0  0  0  0  0  0  0  0  0
    0.0669   -1.3952   -1.6118 H   0  0  0  0  0  0  0  0  0  0  0  0
    0.0235    0.3562   -1.8089 H   0  0  0  0  0  0  0  0  0  0  0  0
    1.9419   -0.4506   -1.1865 C   0  0  0  0  0  0  0  0  0  0  0  0
    2.2882   -0.5299   -2.2210 H   0  0  0  0  0  0  0  0  0  0  0  0
    2.3147    0.4969   -0.7886 H   0  0  0  0  0  0  0  0  0  0  0  0
    2.5584   -1.5924   -0.3857 C   0  0  0  0  0  0  0  0  0  0  0  0
    2.7414   -2.6578   -0.9434 O   0  0  0  0  0  0  0  0  0  0  0  0
    2.8829   -1.3611    0.9061 O   0  0  0  0  0  0  0  0  0  0  0  0
    3.2055   -2.2178    1.2306 H   0  0  0  0  0  0  0  0  0  0  0  0
   -0.3210    1.1609    0.6599 C   0  0  0  0  0  0  0  0  0  0  0  0
   -1.2458    1.8453    0.2386 O   0  0  0  0  0  0  0  0  0  0  0  0
    0.5925    1.7074    1.5417 N   0  0  0  0  0  0  0  0  0  0  0  0
    1.3169    1.0938    1.9081 H   0  0  0  0  0  0  0  0  0  0  0  0
    0.5149    3.0803    2.0250 C   0  0  0  0  0  0  0  0  0  0  0  0
   -0.4140    3.2378    2.5829 H   0  0  0  0  0  0  0  0  0  0  0  0
    1.3580    3.2967    2.6880 H   0  0  0  0  0  0  0  0  0  0  0  0
    0.5461    3.7841    1.1866 H   0  0  0  0  0  0  0  0  0  0  0  0
  1  2  1  0  0  0  0
  2  3  1  0  0  0  0
  2  4  1  0  0  0  0
  2  5  1  0  0  0  0
  5  6  2  0  0  0  0
  5  7  1  0  0  0  0
  7  8  1  0  0  0  0
  7  9  1  0  0  0  0
  9 10  1  0  0  0  0
  9 11  1  0  0  0  0
  9 21  1  0  0  0  0
 11 12  1  0  0  0  0
 11 13  1  0  0  0  0
 11 14  1  0  0  0  0
 14 15  1  0  0  0  0
 14 16  1  0  0  0  0
 14 17  1  0  0  0  0
 17 18  2  0  0  0  0
 17 19  1  0  0  0  0
 19 20  1  0  0  0  0
 21 22  2  0  0  0  0
 21 23  1  0  0  0  0
 23 24  1  0  0  0  0
 23 25  1  0  0  0  0
 25 26  1  0  0  0  0
 25 27  1  0  0  0  0
 25 28  1  0  0  0  0
M  END
$$$$

  -OEChem-03222214033D

 28 27  0     1  0  0  0  0  0999 V2000
   -3.0374   -3.8282    1.3601 H   0  0  0  0  0  0  0  0  0  0  0  0
   -3.0603   -2.8515    0.8687 C   0  0  0  0  0  0  0  0  0  0  0  0
   -3.7136   -2.1861    1.4383 H   0  0  0  0  0  0  0  0  0  0  0  0
   -3.4646   -2.9737   -0.1392 H   0  0  0  0  0  0  0  0  0  0  0  0
   -1.6612   -2.2698    0.7975 C   0  0  0  0  0  0  0  0  0  0  0  0
   -0.7107   -2.9109    1.2169 O   0  0  0  0  0  0  0  0  0  0  0  0
   -1.4692   -1.0125    0.2632 N   0  0  0  0  0  0  0  0  0  0  0  0
   -2.2989   -0.4776    0.0121 H   0  0  0  0  0  0  0  0  0  0  0  0
   -0.1815   -0.3058    0.2262 C   0  0  1  0  0  0  0  0  0  0  0  0
    0.4963   -0.7780    0.9439 H   0  0  0  0  0  0  0  0  0  0  0  0
    0.4038   -0.4310   -1.1955 C   0  0  0  0  0  0  0  0  0  0  0  0
    0.0669   -1.3671   -1.6560 H   0  0  0  0  0  0  0  0  0  0  0  0
    0.0247    0.3876   -1.8171 H   0  0  0  0  0  0  0  0  0  0  0  0
    1.9428   -0.4152   -1.1983 C   0  0  0  0  0  0  0  0  0  0  0  0
    2.2977   -0.2492   -2.2195 H   0  0  0  0  0  0  0  0  0  0  0  0
    2.3219    0.4041   -0.5823 H   0  0  0  0  0  0  0  0  0  0  0  0
    2.5232   -1.7358   -0.7069 C   0  0  0  0  0  0  0  0  0  0  0  0
    2.6542   -2.6480   -1.5018 O   0  0  0  0  0  0  0  0  0  0  0  0
    2.8564   -1.8286    0.5986 O   0  0  0  0  0  0  0  0  0  0  0  0
    3.1230   -2.7541    0.7200 H   0  0  0  0  0  0  0  0  0  0  0  0
   -0.3202    1.1680    0.6530 C   0  0  0  0  0  0  0  0  0  0  0  0
   -1.2605    1.8366    0.2408 O   0  0  0  0  0  0  0  0  0  0  0  0
    0.5878    1.7307    1.5304 N   0  0  0  0  0  0  0  0  0  0  0  0
    1.3029    1.1213    1.9199 H   0  0  0  0  0  0  0  0  0  0  0  0
    0.4676    3.0917    2.0386 C   0  0  0  0  0  0  0  0  0  0  0  0
   -0.4604    3.2075    2.6086 H   0  0  0  0  0  0  0  0  0  0  0  0
    1.3099    3.3255    2.6969 H   0  0  0  0  0  0  0  0  0  0  0  0
    0.4656    3.8108    1.2125 H   0  0  0  0  0  0  0  0  0  0  0  0
  1  2  1  0  0  0  0
  2  3  1  0  0  0  0
  2  4  1  0  0  0  0
  2  5  1  0  0  0  0
  5  6  2  0  0  0  0
  5  7  1  0  0  0  0
  7  8  1  0  0  0  0
  7  9  1  0  0  0  0
  9 10  1  0  0  0  0
  9 11  1  0  0  0  0
  9 21  1  0  0  0  0
 11 12  1  0  0  0  0
 11 13  1  0  0  0  0
 11 14  1  0  0  0  0
 14 15  1  0  0  0  0
 14 16  1  0  0  0  0
 14 17  1  0  0  0  0
 17 18  2  0  0  0  0
 17 19  1  0  0  0  0
 19 20  1  0  0  0  0
 21 22  2  0  0  0  0
 21 23  1  0  0  0  0
 23 24  1  0  0  0  0
 23 25  1  0  0  0  0
 25 26  1  0  0  0  0
 25 27  1  0  0  0  0
 25 28  1  0  0  0  0
M  END
$$$$

  -OEChem-03222214033D

 28 27  0     1  0  0  0  0  0999 V2000
   -3.0072   -3.8370    1.3588 H   0  0  0  0  0  0  0  0  0  0  0  0
   -3.0372   -2.8572    0.8738 C   0  0  0  0  0  0  0  0  0  0  0  0
   -3.6808   -2.1951    1.4580 H   0  0  0  0  0  0  0  0  0  0  0  0
   -3.4578   -2.9726   -0.1282 H   0  0  0  0  0  0  0  0  0  0  0  0
   -1.6392   -2.2754    0.7841 C   0  0  0  0  0  0  0  0  0  0  0  0
   -0.6827   -2.9184    1.1859 O   0  0  0  0  0  0  0  0  0  0  0  0
   -1.4555   -1.0156    0.2533 N   0  0  0  0  0  0  0  0  0  0  0  0
   -2.2899   -0.4826    0.0132 H   0  0  0  0  0  0  0  0  0  0  0  0
   -0.1733   -0.2989    0.2169 C   0  0  1  0  0  0  0  0  0  0  0  0
    0.5149   -0.7708    0.9267 H   0  0  0  0  0  0  0  0  0  0  0  0
    0.4101   -0.4209   -1.2040 C   0  0  0  0  0  0  0  0  0  0  0  0
    0.0709   -1.3505   -1.6760 H   0  0  0  0  0  0  0  0  0  0  0  0
    0.0316    0.4038   -1.8181 H   0  0  0  0  0  0  0  0  0  0  0  0
    1.9496   -0.3924   -1.1925 C   0  0  0  0  0  0  0  0  0  0  0  0
    2.3061    0.0199   -2.1407 H   0  0  0  0  0  0  0  0  0  0  0  0
    2.3295    0.2511   -0.3952 H   0  0  0  0  0  0  0  0  0  0  0  0
    2.5304   -1.7933   -1.0514 C   0  0  0  0  0  0  0  0  0  0  0  0
    2.6113   -2.5003   -2.0393 O   0  0  0  0  0  0  0  0  0  0  0  0
    2.9141   -2.1853    0.1819 O   0  0  0  0  0  0  0  0  0  0  0  0
    3.1755   -3.1139    0.0807 H   0  0  0  0  0  0  0  0  0  0  0  0
   -0.3295    1.1724    0.6486 C   0  0  0  0  0  0  0  0  0  0  0  0
   -1.2807    1.8284    0.2413 O   0  0  0  0  0  0  0  0  0  0  0  0
    0.5695    1.7469    1.5280 N   0  0  0  0  0  0  0  0  0  0  0  0
    1.2870    1.1459    1.9248 H   0  0  0  0  0  0  0  0  0  0  0  0
    0.4216    3.1021    2.0448 C   0  0  0  0  0  0  0  0  0  0  0  0
   -0.5078    3.1948    2.6165 H   0  0  0  0  0  0  0  0  0  0  0  0
    1.2596    3.3496    2.7035 H   0  0  0  0  0  0  0  0  0  0  0  0
    0.4035    3.8259    1.2231 H   0  0  0  0  0  0  0  0  0  0  0  0
  1  2  1  0  0  0  0
  2  3  1  0  0  0  0
  2  4  1  0  0  0  0
  2  5  1  0  0  0  0
  5  6  2  0  0  0  0
  5  7  1  0  0  0  0
  7  8  1  0  0  0  0
  7  9  1  0  0  0  0
  9 10  1  0  0  0  0
  9 11  1  0  0  0  0
  9 21  1  0  0  0  0
 11 12  1  0  0  0  0
 11 13  1  0  0  0  0
 11 14  1  0  0  0  0
 14 15  1  0  0  0  0
 14 16  1  0  0  0  0
 14 17  1  0  0  0  0
 17 18  2  0  0  0  0
 17 19  1  0  0  0  0
 19 20  1  0  0  0  0
 21 22  2  0  0  0  0
 21 23  1  0  0  0  0
 23 24  1  0  0  0  0
 23 25  1  0  0  0  0
 25 26  1  0  0  0  0
 25 27  1  0  0  0  0
 25 28  1  0  0  0  0
M  END
$$$$

  -OEChem-03222214033D

 28 27  0     1  0  0  0  0  0999 V2000
   -3.0250   -3.8435    1.3266 H   0  0  0  0  0  0  0  0  0  0  0  0
   -3.0517   -2.8604    0.8483 C   0  0  0  0  0  0  0  0  0  0  0  0
   -3.7106   -2.2063    1.4245 H   0  0  0  0  0  0  0  0  0  0  0  0
   -3.4518   -2.9712   -0.1625 H   0  0  0  0  0  0  0  0  0  0  0  0
   -1.6557   -2.2697    0.7909 C   0  0  0  0  0  0  0  0  0  0  0  0
   -0.7057   -2.9032    1.2219 O   0  0  0  0  0  0  0  0  0  0  0  0
   -1.4657   -1.0122    0.2572 N   0  0  0  0  0  0  0  0  0  0  0  0
   -2.2963   -0.4857   -0.0093 H   0  0  0  0  0  0  0  0  0  0  0  0
   -0.1834   -0.2949    0.2301 C   0  0  1  0  0  0  0  0  0  0  0  0
    0.4986   -0.7665    0.9459 H   0  0  0  0  0  0  0  0  0  0  0  0
    0.4107   -0.4187   -1.1861 C   0  0  0  0  0  0  0  0  0  0  0  0
    0.0682   -1.3497   -1.6528 H   0  0  0  0  0  0  0  0  0  0  0  0
    0.0336    0.4010   -1.8075 H   0  0  0  0  0  0  0  0  0  0  0  0
    1.9536   -0.3906   -1.1727 C   0  0  0  0  0  0  0  0  0  0  0  0
    2.3045    0.2560   -1.9820 H   0  0  0  0  0  0  0  0  0  0  0  0
    2.3372    0.0263   -0.2383 H   0  0  0  0  0  0  0  0  0  0  0  0
    2.5553   -1.7723   -1.3986 C   0  0  0  0  0  0  0  0  0  0  0  0
    2.4631   -2.2808   -2.5013 O   0  0  0  0  0  0  0  0  0  0  0  0
    3.1604   -2.3698   -0.3505 O   0  0  0  0  0  0  0  0  0  0  0  0
    3.4244   -3.2439   -0.6767 H   0  0  0  0  0  0  0  0  0  0  0  0
   -0.3447    1.1784    0.6544 C   0  0  0  0  0  0  0  0  0  0  0  0
   -1.2912    1.8324    0.2332 O   0  0  0  0  0  0  0  0  0  0  0  0
    0.5445    1.7588    1.5402 N   0  0  0  0  0  0  0  0  0  0  0  0
    1.2551    1.1604    1.9524 H   0  0  0  0  0  0  0  0  0  0  0  0
    0.3915    3.1186    2.0440 C   0  0  0  0  0  0  0  0  0  0  0  0
   -0.5404    3.2143    2.6112 H   0  0  0  0  0  0  0  0  0  0  0  0
    1.2265    3.3746    2.7033 H   0  0  0  0  0  0  0  0  0  0  0  0
    0.3747    3.8353    1.2160 H   0  0  0  0  0  0  0  0  0  0  0  0
  1  2  1  0  0  0  0
  2  3  1  0  0  0  0
  2  4  1  0  0  0  0
  2  5  1  0  0  0  0
  5  6  2  0  0  0  0
  5  7  1  0  0  0  0
  7  8  1  0  0  0  0
  7  9  1  0  0  0  0
  9 10  1  0  0  0  0
  9 11  1  0  0  0  0
  9 21  1  0  0  0  0
 11 12  1  0  0  0  0
 11 13  1  0  0  0  0
 11 14  1  0  0  0  0
 14 15  1  0  0  0  0
 14 16  1  0  0  0  0
 14 17  1  0  0  0  0
 17 18  2  0  0  0  0
 17 19  1  0  0  0  0
 19 20  1  0  0  0  0
 21 22  2  0  0  0  0
 21 23  1  0  0  0  0
 23 24  1  0  0  0  0
 23 25  1  0  0  0  0
 25 26  1  0  0  0  0
 25 27  1  0  0  0  0
 25 28  1  0  0  0  0
M  END
$$$$

  -OEChem-03222214033D

 28 27  0     1  0  0  0  0  0999 V2000
   -3.0513   -3.8425    1.3003 H   0  0  0  0  0  0  0  0  0  0  0  0
   -3.0709   -2.8566    0.8274 C   0  0  0  0  0  0  0  0  0  0  0  0
   -3.7411   -2.2070    1.3953 H   0  0  0  0  0  0  0  0  0  0  0  0
   -3.4522   -2.9620   -0.1913 H   0  0  0  0  0  0  0  0  0  0  0  0
   -1.6753   -2.2631    0.7981 C   0  0  0  0  0  0  0  0  0  0  0  0
   -0.7336   -2.8907    1.2552 O   0  0  0  0  0  0  0  0  0  0  0  0
   -1.4755   -1.0093    0.2593 N   0  0  0  0  0  0  0  0  0  0  0  0
   -2.3003   -0.4863   -0.0308 H   0  0  0  0  0  0  0  0  0  0  0  0
   -0.1916   -0.2941    0.2455 C   0  0  1  0  0  0  0  0  0  0  0  0
    0.4776   -0.7635    0.9741 H   0  0  0  0  0  0  0  0  0  0  0  0
    0.4203   -0.4162   -1.1643 C   0  0  0  0  0  0  0  0  0  0  0  0
    0.0837   -1.3587   -1.6117 H   0  0  0  0  0  0  0  0  0  0  0  0
    0.0424    0.3875   -1.8062 H   0  0  0  0  0  0  0  0  0  0  0  0
    1.9665   -0.3911   -1.1489 C   0  0  0  0  0  0  0  0  0  0  0  0
    2.3197    0.4580   -1.7403 H   0  0  0  0  0  0  0  0  0  0  0  0
    2.3483   -0.2576   -0.1337 H   0  0  0  0  0  0  0  0  0  0  0  0
    2.5809   -1.6606   -1.7303 C   0  0  0  0  0  0  0  0  0  0  0  0
    2.3424   -1.9490   -2.8894 O   0  0  0  0  0  0  0  0  0  0  0  0
    3.3689   -2.4055   -0.9265 O   0  0  0  0  0  0  0  0  0  0  0  0
    3.6288   -3.1677   -1.4666 H   0  0  0  0  0  0  0  0  0  0  0  0
   -0.3570    1.1821    0.6584 C   0  0  0  0  0  0  0  0  0  0  0  0
   -1.2985    1.8333    0.2218 O   0  0  0  0  0  0  0  0  0  0  0  0
    0.5198    1.7684    1.5526 N   0  0  0  0  0  0  0  0  0  0  0  0
    1.2289    1.1752    1.9740 H   0  0  0  0  0  0  0  0  0  0  0  0
    0.3622    3.1327    2.0426 C   0  0  0  0  0  0  0  0  0  0  0  0
   -0.5655    3.2282    2.6166 H   0  0  0  0  0  0  0  0  0  0  0  0
    1.2012    3.4015    2.6917 H   0  0  0  0  0  0  0  0  0  0  0  0
    0.3335    3.8403    1.2071 H   0  0  0  0  0  0  0  0  0  0  0  0
  1  2  1  0  0  0  0
  2  3  1  0  0  0  0
  2  4  1  0  0  0  0
  2  5  1  0  0  0  0
  5  6  2  0  0  0  0
  5  7  1  0  0  0  0
  7  8  1  0  0  0  0
  7  9  1  0  0  0  0
  9 10  1  0  0  0  0
  9 11  1  0  0  0  0
  9 21  1  0  0  0  0
 11 12  1  0  0  0  0
 11 13  1  0  0  0  0
 11 14  1  0  0  0  0
 14 15  1  0  0  0  0
 14 16  1  0  0  0  0
 14 17  1  0  0  0  0
 17 18  2  0  0  0  0
 17 19  1  0  0  0  0
 19 20  1  0  0  0  0
 21 22  2  0  0  0  0
 21 23  1  0  0  0  0
 23 24  1  0  0  0  0
 23 25  1  0  0  0  0
 25 26  1  0  0  0  0
 25 27  1  0  0  0  0
 25 28  1  0  0  0  0
M  END
$$$$

  -OEChem-03222214033D

 28 27  0     1  0  0  0  0  0999 V2000
   -3.0846   -3.8379    1.2831 H   0  0  0  0  0  0  0  0  0  0  0  0
   -3.0992   -2.8525    0.8093 C   0  0  0  0  0  0  0  0  0  0  0  0
   -3.7769   -2.2027    1.3682 H   0  0  0  0  0  0  0  0  0  0  0  0
   -3.4678   -2.9590   -0.2138 H   0  0  0  0  0  0  0  0  0  0  0  0
   -1.7035   -2.2587    0.7962 C   0  0  0  0  0  0  0  0  0  0  0  0
   -0.7671   -2.8861    1.2648 O   0  0  0  0  0  0  0  0  0  0  0  0
   -1.4959   -1.0063    0.2570 N   0  0  0  0  0  0  0  0  0  0  0  0
   -2.3158   -0.4830   -0.0465 H   0  0  0  0  0  0  0  0  0  0  0  0
   -0.2096   -0.2953    0.2527 C   0  0  1  0  0  0  0  0  0  0  0  0
    0.4483   -0.7645    0.9908 H   0  0  0  0  0  0  0  0  0  0  0  0
    0.4180   -0.4160   -1.1509 C   0  0  0  0  0  0  0  0  0  0  0  0
    0.0933   -1.3710   -1.5798 H   0  0  0  0  0  0  0  0  0  0  0  0
    0.0410    0.3717   -1.8129 H   0  0  0  0  0  0  0  0  0  0  0  0
    1.9646   -0.3943   -1.1219 C   0  0  0  0  0  0  0  0  0  0  0  0
    2.3249    0.5883   -1.4377 H   0  0  0  0  0  0  0  0  0  0  0  0
    2.3296   -0.5647   -0.1062 H   0  0  0  0  0  0  0  0  0  0  0  0
    2.5998   -1.4615   -2.0104 C   0  0  0  0  0  0  0  0  0  0  0  0
    2.1871   -1.6074   -3.1472 O   0  0  0  0  0  0  0  0  0  0  0  0
    3.6124   -2.1880   -1.4913 O   0  0  0  0  0  0  0  0  0  0  0  0
    3.8640   -2.8056   -2.1951 H   0  0  0  0  0  0  0  0  0  0  0  0
   -0.3705    1.1819    0.6618 C   0  0  0  0  0  0  0  0  0  0  0  0
   -1.3065    1.8378    0.2208 O   0  0  0  0  0  0  0  0  0  0  0  0
    0.5043    1.7622    1.5619 N   0  0  0  0  0  0  0  0  0  0  0  0
    1.2157    1.1677    1.9776 H   0  0  0  0  0  0  0  0  0  0  0  0
    0.3601    3.1308    2.0437 C   0  0  0  0  0  0  0  0  0  0  0  0
   -0.5896    3.2520    2.5754 H   0  0  0  0  0  0  0  0  0  0  0  0
    1.1754    3.3785    2.7303 H   0  0  0  0  0  0  0  0  0  0  0  0
    0.3879    3.8367    1.2069 H   0  0  0  0  0  0  0  0  0  0  0  0
  1  2  1  0  0  0  0
  2  3  1  0  0  0  0
  2  4  1  0  0  0  0
  2  5  1  0  0  0  0
  5  6  2  0  0  0  0
  5  7  1  0  0  0  0
  7  8  1  0  0  0  0
  7  9  1  0  0  0  0
  9 10  1  0  0  0  0
  9 11  1  0  0  0  0
  9 21  1  0  0  0  0
 11 12  1  0  0  0  0
 11 13  1  0  0  0  0
 11 14  1  0  0  0  0
 14 15  1  0  0  0  0
 14 16  1  0  0  0  0
 14 17  1  0  0  0  0
 17 18  2  0  0  0  0
 17 19  1  0  0  0  0
 19 20  1  0  0  0  0
 21 22  2  0  0  0  0
 21 23  1  0  0  0  0
 23 24  1  0  0  0  0
 23 25  1  0  0  0  0
 25 26  1  0  0  0  0
 25 27  1  0  0  0  0
 25 28  1  0  0  0  0
M  END
$$$$

  -OEChem-03222214033D

 28 27  0     1  0  0  0  0  0999 V2000
   -3.1184   -3.8225    1.2793 H   0  0  0  0  0  0  0  0  0  0  0  0
   -3.1261   -2.8365    0.8064 C   0  0  0  0  0  0  0  0  0  0  0  0
   -3.7941   -2.1807    1.3701 H   0  0  0  0  0  0  0  0  0  0  0  0
   -3.5024   -2.9386   -0.2142 H   0  0  0  0  0  0  0  0  0  0  0  0
   -1.7247   -2.2560    0.7855 C   0  0  0  0  0  0  0  0  0  0  0  0
   -0.7915   -2.8921    1.2493 O   0  0  0  0  0  0  0  0  0  0  0  0
   -1.5080   -1.0045    0.2479 N   0  0  0  0  0  0  0  0  0  0  0  0
   -2.3241   -0.4739   -0.0533 H   0  0  0  0  0  0  0  0  0  0  0  0
   -0.2177   -0.3008    0.2519 C   0  0  1  0  0  0  0  0  0  0  0  0
    0.4344   -0.7717    0.9940 H   0  0  0  0  0  0  0  0  0  0  0  0
    0.4189   -0.4217   -1.1469 C   0  0  0  0  0  0  0  0  0  0  0  0
    0.1018   -1.3798   -1.5750 H   0  0  0  0  0  0  0  0  0  0  0  0
    0.0504    0.3655   -1.8145 H   0  0  0  0  0  0  0  0  0  0  0  0
    1.9632   -0.4078   -1.0980 C   0  0  0  0  0  0  0  0  0  0  0  0
    2.3276    0.6222   -1.1289 H   0  0  0  0  0  0  0  0  0  0  0  0
    2.3078   -0.8559   -0.1623 H   0  0  0  0  0  0  0  0  0  0  0  0
    2.6163   -1.2038   -2.2270 C   0  0  0  0  0  0  0  0  0  0  0  0
    2.0775   -1.2499   -3.3186 O   0  0  0  0  0  0  0  0  0  0  0  0
    3.7923   -1.8090   -1.9578 O   0  0  0  0  0  0  0  0  0  0  0  0
    4.0390   -2.2543   -2.7830 H   0  0  0  0  0  0  0  0  0  0  0  0
   -0.3750    1.1772    0.6607 C   0  0  0  0  0  0  0  0  0  0  0  0
   -1.3076    1.8360    0.2170 O   0  0  0  0  0  0  0  0  0  0  0  0
    0.4957    1.7547    1.5666 N   0  0  0  0  0  0  0  0  0  0  0  0
    1.2047    1.1593    1.9849 H   0  0  0  0  0  0  0  0  0  0  0  0
    0.3556    3.1255    2.0433 C   0  0  0  0  0  0  0  0  0  0  0  0
   -0.5915    3.2503    2.5789 H   0  0  0  0  0  0  0  0  0  0  0  0
    1.1748    3.3751    2.7246 H   0  0  0  0  0  0  0  0  0  0  0  0
    0.3803    3.8283    1.2036 H   0  0  0  0  0  0  0  0  0  0  0  0
  1  2  1  0  0  0  0
  2  3  1  0  0  0  0
  2  4  1  0  0  0  0
  2  5  1  0  0  0  0
  5  6  2  0  0  0  0
  5  7  1  0  0  0  0
  7  8  1  0  0  0  0
  7  9  1  0  0  0  0
  9 10  1  0  0  0  0
  9 11  1  0  0  0  0
  9 21  1  0  0  0  0
 11 12  1  0  0  0  0
 11 13  1  0  0  0  0
 11 14  1  0  0  0  0
 14 15  1  0  0  0  0
 14 16  1  0  0  0  0
 14 17  1  0  0  0  0
 17 18  2  0  0  0  0
 17 19  1  0  0  0  0
 19 20  1  0  0  0  0
 21 22  2  0  0  0  0
 21 23  1  0  0  0  0
 23 24  1  0  0  0  0
 23 25  1  0  0  0  0
 25 26  1  0  0  0  0
 25 27  1  0  0  0  0
 25 28  1  0  0  0  0
M  END
$$$$

  -OEChem-03222214033D

 28 27  0     1  0  0  0  0  0999 V2000
   -3.1510   -3.8060    1.2720 H   0  0  0  0  0  0  0  0  0  0  0  0
   -3.1496   -2.8183    0.8026 C   0  0  0  0  0  0  0  0  0  0  0  0
   -3.8103   -2.1577    1.3692 H   0  0  0  0  0  0  0  0  0  0  0  0
   -3.5277   -2.9128   -0.2181 H   0  0  0  0  0  0  0  0  0  0  0  0
   -1.7432   -2.2510    0.7828 C   0  0  0  0  0  0  0  0  0  0  0  0
   -0.8156   -2.8940    1.2483 O   0  0  0  0  0  0  0  0  0  0  0  0
   -1.5167   -1.0014    0.2457 N   0  0  0  0  0  0  0  0  0  0  0  0
   -2.3284   -0.4655   -0.0578 H   0  0  0  0  0  0  0  0  0  0  0  0
   -0.2221   -0.3066    0.2507 C   0  0  1  0  0  0  0  0  0  0  0  0
    0.4298   -0.7807    0.9911 H   0  0  0  0  0  0  0  0  0  0  0  0
    0.4128   -0.4353   -1.1472 C   0  0  0  0  0  0  0  0  0  0  0  0
    0.0951   -1.3892   -1.5843 H   0  0  0  0  0  0  0  0  0  0  0  0
    0.0537    0.3605   -1.8102 H   0  0  0  0  0  0  0  0  0  0  0  0
    1.9544   -0.4315   -1.0837 C   0  0  0  0  0  0  0  0  0  0  0  0
    2.3136    0.5752   -0.8557 H   0  0  0  0  0  0  0  0  0  0  0  0
    2.2869   -1.0986   -0.2837 H   0  0  0  0  0  0  0  0  0  0  0  0
    2.6264   -0.9107   -2.3705 C   0  0  0  0  0  0  0  0  0  0  0  0
    1.9939   -0.9480   -3.4111 O   0  0  0  0  0  0  0  0  0  0  0  0
    3.9271   -1.2605   -2.2861 O   0  0  0  0  0  0  0  0  0  0  0  0
    4.1716   -1.5300   -3.1851 H   0  0  0  0  0  0  0  0  0  0  0  0
   -0.3734    1.1721    0.6600 C   0  0  0  0  0  0  0  0  0  0  0  0
   -1.3033    1.8347    0.2162 O   0  0  0  0  0  0  0  0  0  0  0  0
    0.4982    1.7460    1.5673 N   0  0  0  0  0  0  0  0  0  0  0  0
    1.2013    1.1468    1.9903 H   0  0  0  0  0  0  0  0  0  0  0  0
    0.3617    3.1174    2.0439 C   0  0  0  0  0  0  0  0  0  0  0  0
   -0.5846    3.2442    2.5803 H   0  0  0  0  0  0  0  0  0  0  0  0
    1.1821    3.3658    2.7241 H   0  0  0  0  0  0  0  0  0  0  0  0
    0.3868    3.8197    1.2038 H   0  0  0  0  0  0  0  0  0  0  0  0
  1  2  1  0  0  0  0
  2  3  1  0  0  0  0
  2  4  1  0  0  0  0
  2  5  1  0  0  0  0
  5  6  2  0  0  0  0
  5  7  1  0  0  0  0
  7  8  1  0  0  0  0
  7  9  1  0  0  0  0
  9 10  1  0  0  0  0
  9 11  1  0  0  0  0
  9 21  1  0  0  0  0
 11 12  1  0  0  0  0
 11 13  1  0  0  0  0
 11 14  1  0  0  0  0
 14 15  1  0  0  0  0
 14 16  1  0  0  0  0
 14 17  1  0  0  0  0
 17 18  2  0  0  0  0
 17 19  1  0  0  0  0
 19 20  1  0  0  0  0
 21 22  2  0  0  0  0
 21 23  1  0  0  0  0
 23 24  1  0  0  0  0
 23 25  1  0  0  0  0
 25 26  1  0  0  0  0
 25 27  1  0  0  0  0
 25 28  1  0  0  0  0
M  END
$$$$

  -OEChem-03222214033D

 28 27  0     1  0  0  0  0  0999 V2000
   -3.1848   -3.7822    1.2870 H   0  0  0  0  0  0  0  0  0  0  0  0
   -3.1757   -2.7992    0.8079 C   0  0  0  0  0  0  0  0  0  0  0  0
   -3.8265   -2.1264    1.3717 H   0  0  0  0  0  0  0  0  0  0  0  0
   -3.5606   -2.8997   -0.2098 H   0  0  0  0  0  0  0  0  0  0  0  0
   -1.7635   -2.2467    0.7737 C   0  0  0  0  0  0  0  0  0  0  0  0
   -0.8361   -2.9033    1.2207 O   0  0  0  0  0  0  0  0  0  0  0  0
   -1.5304   -0.9969    0.2402 N   0  0  0  0  0  0  0  0  0  0  0  0
   -2.3399   -0.4490   -0.0479 H   0  0  0  0  0  0  0  0  0  0  0  0
   -0.2297   -0.3137    0.2429 C   0  0  1  0  0  0  0  0  0  0  0  0
    0.4189   -0.7903    0.9852 H   0  0  0  0  0  0  0  0  0  0  0  0
    0.4096   -0.4449   -1.1548 C   0  0  0  0  0  0  0  0  0  0  0  0
   -0.1062   -1.2267   -1.7239 H   0  0  0  0  0  0  0  0  0  0  0  0
    0.2921    0.4903   -1.7147 H   0  0  0  0  0  0  0  0  0  0  0  0
    1.9002   -0.8235   -1.0566 C   0  0  0  0  0  0  0  0  0  0  0  0
    2.4341   -0.0605   -0.4846 H   0  0  0  0  0  0  0  0  0  0  0  0
    1.9978   -1.7750   -0.5257 H   0  0  0  0  0  0  0  0  0  0  0  0
    2.5966   -0.9697   -2.4096 C   0  0  0  0  0  0  0  0  0  0  0  0
    1.9590   -0.8680   -3.4429 O   0  0  0  0  0  0  0  0  0  0  0  0
    3.9258   -1.2007   -2.3848 O   0  0  0  0  0  0  0  0  0  0  0  0
    4.1848   -1.2652   -3.3171 H   0  0  0  0  0  0  0  0  0  0  0  0
   -0.3719    1.1642    0.6592 C   0  0  0  0  0  0  0  0  0  0  0  0
   -1.3021    1.8325    0.2242 O   0  0  0  0  0  0  0  0  0  0  0  0
    0.5057    1.7288    1.5664 N   0  0  0  0  0  0  0  0  0  0  0  0
    1.2147    1.1270    1.9753 H   0  0  0  0  0  0  0  0  0  0  0  0
    0.3849    3.1012    2.0431 C   0  0  0  0  0  0  0  0  0  0  0  0
   -0.5704    3.2456    2.5585 H   0  0  0  0  0  0  0  0  0  0  0  0
    1.1942    3.3318    2.7425 H   0  0  0  0  0  0  0  0  0  0  0  0
    0.4427    3.8042    1.2055 H   0  0  0  0  0  0  0  0  0  0  0  0
  1  2  1  0  0  0  0
  2  3  1  0  0  0  0
  2  4  1  0  0  0  0
  2  5  1  0  0  0  0
  5  6  2  0  0  0  0
  5  7  1  0  0  0  0
  7  8  1  0  0  0  0
  7  9  1  0  0  0  0
  9 10  1  0  0  0  0
  9 11  1  0  0  0  0
  9 21  1  0  0  0  0
 11 12  1  0  0  0  0
 11 13  1  0  0  0  0
 11 14  1  0  0  0  0
 14 15  1  0  0  0  0
 14 16  1  0  0  0  0
 14 17  1  0  0  0  0
 17 18  2  0  0  0  0
 17 19  1  0  0  0  0
 19 20  1  0  0  0  0
 21 22  2  0  0  0  0
 21 23  1  0  0  0  0
 23 24  1  0  0  0  0
 23 25  1  0  0  0  0
 25 26  1  0  0  0  0
 25 27  1  0  0  0  0
 25 28  1  0  0  0  0
M  END
$$$$

  -OEChem-03222214033D

 28 27  0     1  0  0  0  0  0999 V2000
   -3.2012   -3.7739    1.2627 H   0  0  0  0  0  0  0  0  0  0  0  0
   -3.1902   -2.7802    0.8062 C   0  0  0  0  0  0  0  0  0  0  0  0
   -3.8307   -2.1165    1.3919 H   0  0  0  0  0  0  0  0  0  0  0  0
   -3.5857   -2.8550   -0.2097 H   0  0  0  0  0  0  0  0  0  0  0  0
   -1.7745   -2.2367    0.7713 C   0  0  0  0  0  0  0  0  0  0  0  0
   -0.8518   -2.8999    1.2183 O   0  0  0  0  0  0  0  0  0  0  0  0
   -1.5318   -0.9897    0.2351 N   0  0  0  0  0  0  0  0  0  0  0  0
   -2.3375   -0.4353   -0.0517 H   0  0  0  0  0  0  0  0  0  0  0  0
   -0.2257   -0.3167    0.2380 C   0  0  1  0  0  0  0  0  0  0  0  0
    0.4174   -0.7972    0.9826 H   0  0  0  0  0  0  0  0  0  0  0  0
    0.4136   -0.4644   -1.1583 C   0  0  0  0  0  0  0  0  0  0  0  0
   -0.1071   -1.2354   -1.7373 H   0  0  0  0  0  0  0  0  0  0  0  0
    0.3066    0.4770   -1.7103 H   0  0  0  0  0  0  0  0  0  0  0  0
    1.9013   -0.8554   -1.0577 C   0  0  0  0  0  0  0  0  0  0  0  0
    2.3892   -0.2358   -0.3011 H   0  0  0  0  0  0  0  0  0  0  0  0
    1.9865   -1.8994   -0.7430 H   0  0  0  0  0  0  0  0  0  0  0  0
    2.6757   -0.6684   -2.3617 C   0  0  0  0  0  0  0  0  0  0  0  0
    2.0793   -0.6376   -3.4233 O   0  0  0  0  0  0  0  0  0  0  0  0
    4.0163   -0.5458   -2.2658 O   0  0  0  0  0  0  0  0  0  0  0  0
    4.3234   -0.4468   -3.1804 H   0  0  0  0  0  0  0  0  0  0  0  0
   -0.3584    1.1636    0.6512 C   0  0  0  0  0  0  0  0  0  0  0  0
   -1.2893    1.8341    0.2211 O   0  0  0  0  0  0  0  0  0  0  0  0
    0.5210    1.7255    1.5585 N   0  0  0  0  0  0  0  0  0  0  0  0
    1.2283    1.1214    1.9669 H   0  0  0  0  0  0  0  0  0  0  0  0
    0.3944    3.0930    2.0486 C   0  0  0  0  0  0  0  0  0  0  0  0
   -0.5488    3.2199    2.5905 H   0  0  0  0  0  0  0  0  0  0  0  0
    1.2189    3.3300    2.7280 H   0  0  0  0  0  0  0  0  0  0  0  0
    0.4197    3.8034    1.2153 H   0  0  0  0  0  0  0  0  0  0  0  0
  1  2  1  0  0  0  0
  2  3  1  0  0  0  0
  2  4  1  0  0  0  0
  2  5  1  0  0  0  0
  5  6  2  0  0  0  0
  5  7  1  0  0  0  0
  7  8  1  0  0  0  0
  7  9  1  0  0  0  0
  9 10  1  0  0  0  0
  9 11  1  0  0  0  0
  9 21  1  0  0  0  0
 11 12  1  0  0  0  0
 11 13  1  0  0  0  0
 11 14  1  0  0  0  0
 14 15  1  0  0  0  0
 14 16  1  0  0  0  0
 14 17  1  0  0  0  0
 17 18  2  0  0  0  0
 17 19  1  0  0  0  0
 19 20  1  0  0  0  0
 21 22  2  0  0  0  0
 21 23  1  0  0  0  0
 23 24  1  0  0  0  0
 23 25  1  0  0  0  0
 25 26  1  0  0  0  0
 25 27  1  0  0  0  0
 25 28  1  0  0  0  0
M  END
$$$$

  -OEChem-03222214033D

 28 27  0     1  0  0  0  0  0999 V2000
   -3.2282   -3.7601    1.2474 H   0  0  0  0  0  0  0  0  0  0  0  0
   -3.2076   -2.7617    0.8018 C   0  0  0  0  0  0  0  0  0  0  0  0
   -3.8395   -2.0971    1.3958 H   0  0  0  0  0  0  0  0  0  0  0  0
   -3.6062   -2.8213   -0.2138 H   0  0  0  0  0  0  0  0  0  0  0  0
   -1.7865   -2.2325    0.7697 C   0  0  0  0  0  0  0  0  0  0  0  0
   -0.8719   -2.9033    1.2218 O   0  0  0  0  0  0  0  0  0  0  0  0
   -1.5305   -0.9889    0.2317 N   0  0  0  0  0  0  0  0  0  0  0  0
   -2.3307   -0.4267   -0.0555 H   0  0  0  0  0  0  0  0  0  0  0  0
   -0.2188   -0.3266    0.2389 C   0  0  1  0  0  0  0  0  0  0  0  0
    0.4135   -0.8118    0.9897 H   0  0  0  0  0  0  0  0  0  0  0  0
    0.4248   -0.4848   -1.1550 C   0  0  0  0  0  0  0  0  0  0  0  0
   -0.1026   -1.2467   -1.7395 H   0  0  0  0  0  0  0  0  0  0  0  0
    0.3229    0.4598   -1.7025 H   0  0  0  0  0  0  0  0  0  0  0  0
    1.9111   -0.8885   -1.0621 C   0  0  0  0  0  0  0  0  0  0  0  0
    2.3526   -0.4709   -0.1535 H   0  0  0  0  0  0  0  0  0  0  0  0
    1.9983   -1.9768   -1.0027 H   0  0  0  0  0  0  0  0  0  0  0  0
    2.7426   -0.3760   -2.2353 C   0  0  0  0  0  0  0  0  0  0  0  0
    2.2766   -0.4207   -3.3595 O   0  0  0  0  0  0  0  0  0  0  0  0
    3.9727    0.1093   -1.9639 O   0  0  0  0  0  0  0  0  0  0  0  0
    4.3318    0.3738   -2.8251 H   0  0  0  0  0  0  0  0  0  0  0  0
   -0.3393    1.1559    0.6476 C   0  0  0  0  0  0  0  0  0  0  0  0
   -1.2653    1.8317    0.2153 O   0  0  0  0  0  0  0  0  0  0  0  0
    0.5413    1.7124    1.5571 N   0  0  0  0  0  0  0  0  0  0  0  0
    1.2504    1.1069    1.9603 H   0  0  0  0  0  0  0  0  0  0  0  0
    0.4218    3.0807    2.0463 C   0  0  0  0  0  0  0  0  0  0  0  0
   -0.5180    3.2108    2.5933 H   0  0  0  0  0  0  0  0  0  0  0  0
    1.2510    3.3163    2.7205 H   0  0  0  0  0  0  0  0  0  0  0  0
    0.4446    3.7899    1.2121 H   0  0  0  0  0  0  0  0  0  0  0  0
  1  2  1  0  0  0  0
  2  3  1  0  0  0  0
  2  4  1  0  0  0  0
  2  5  1  0  0  0  0
  5  6  2  0  0  0  0
  5  7  1  0  0  0  0
  7  8  1  0  0  0  0
  7  9  1  0  0  0  0
  9 10  1  0  0  0  0
  9 11  1  0  0  0  0
  9 21  1  0  0  0  0
 11 12  1  0  0  0  0
 11 13  1  0  0  0  0
 11 14  1  0  0  0  0
 14 15  1  0  0  0  0
 14 16  1  0  0  0  0
 14 17  1  0  0  0  0
 17 18  2  0  0  0  0
 17 19  1  0  0  0  0
 19 20  1  0  0  0  0
 21 22  2  0  0  0  0
 21 23  1  0  0  0  0
 23 24  1  0  0  0  0
 23 25  1  0  0  0  0
 25 26  1  0  0  0  0
 25 27  1  0  0  0  0
 25 28  1  0  0  0  0
M  END
$$$$

  -OEChem-03222214033D

 28 27  0     1  0  0  0  0  0999 V2000
   -3.2836   -3.7274    1.2554 H   0  0  0  0  0  0  0  0  0  0  0  0
   -3.2426   -2.7381    0.7911 C   0  0  0  0  0  0  0  0  0  0  0  0
   -3.8600   -2.0499    1.3734 H   0  0  0  0  0  0  0  0  0  0  0  0
   -3.6435   -2.8079   -0.2229 H   0  0  0  0  0  0  0  0  0  0  0  0
   -1.8104   -2.2404    0.7484 C   0  0  0  0  0  0  0  0  0  0  0  0
   -0.9064   -2.9377    1.1813 O   0  0  0  0  0  0  0  0  0  0  0  0
   -1.5315   -0.9965    0.2219 N   0  0  0  0  0  0  0  0  0  0  0  0
   -2.3226   -0.4111   -0.0428 H   0  0  0  0  0  0  0  0  0  0  0  0
   -0.2082   -0.3572    0.2440 C   0  0  1  0  0  0  0  0  0  0  0  0
    0.4052   -0.8603    0.9979 H   0  0  0  0  0  0  0  0  0  0  0  0
    0.4473   -0.5066   -1.1462 C   0  0  0  0  0  0  0  0  0  0  0  0
   -0.0876   -1.2588   -1.7366 H   0  0  0  0  0  0  0  0  0  0  0  0
    0.3537    0.4403   -1.6912 H   0  0  0  0  0  0  0  0  0  0  0  0
    1.9277   -0.9349   -1.0602 C   0  0  0  0  0  0  0  0  0  0  0  0
    2.3214   -0.7946   -0.0507 H   0  0  0  0  0  0  0  0  0  0  0  0
    2.0218   -1.9976   -1.3024 H   0  0  0  0  0  0  0  0  0  0  0  0
    2.7980   -0.1167   -2.0044 C   0  0  0  0  0  0  0  0  0  0  0  0
    2.8941   -0.4709   -3.1646 O   0  0  0  0  0  0  0  0  0  0  0  0
    3.4049    0.9834   -1.5091 O   0  0  0  0  0  0  0  0  0  0  0  0
    3.8836    1.3632   -2.2625 H   0  0  0  0  0  0  0  0  0  0  0  0
   -0.3018    1.1241    0.6641 C   0  0  0  0  0  0  0  0  0  0  0  0
   -1.2096    1.8214    0.2269 O   0  0  0  0  0  0  0  0  0  0  0  0
    0.5836    1.6557    1.5832 N   0  0  0  0  0  0  0  0  0  0  0  0
    1.3214    1.0517    1.9338 H   0  0  0  0  0  0  0  0  0  0  0  0
    0.5416    3.0450    2.0229 C   0  0  0  0  0  0  0  0  0  0  0  0
   -0.4376    3.2836    2.4513 H   0  0  0  0  0  0  0  0  0  0  0  0
    1.3040    3.2228    2.7874 H   0  0  0  0  0  0  0  0  0  0  0  0
    0.7317    3.7186    1.1807 H   0  0  0  0  0  0  0  0  0  0  0  0
  1  2  1  0  0  0  0
  2  3  1  0  0  0  0
  2  4  1  0  0  0  0
  2  5  1  0  0  0  0
  5  6  2  0  0  0  0
  5  7  1  0  0  0  0
  7  8  1  0  0  0  0
  7  9  1  0  0  0  0
  9 10  1  0  0  0  0
  9 11  1  0  0  0  0
  9 21  1  0  0  0  0
 11 12  1  0  0  0  0
 11 13  1  0  0  0  0
 11 14  1  0  0  0  0
 14 15  1  0  0  0  0
 14 16  1  0  0  0  0
 14 17  1  0  0  0  0
 17 18  2  0  0  0  0
 17 19  1  0  0  0  0
 19 20  1  0  0  0  0
 21 22  2  0  0  0  0
 21 23  1  0  0  0  0
 23 24  1  0  0  0  0
 23 25  1  0  0  0  0
 25 26  1  0  0  0  0
 25 27  1  0  0  0  0
 25 28  1  0  0  0  0
M  END
$$$$

  -OEChem-03222214033D

 28 27  0     1  0  0  0  0  0999 V2000
   -3.1722   -3.7851    1.3176 H   0  0  0  0  0  0  0  0  0  0  0  0
   -3.1708   -2.8094    0.8238 C   0  0  0  0  0  0  0  0  0  0  0  0
   -3.8121   -2.1284    1.3884 H   0  0  0  0  0  0  0  0  0  0  0  0
   -3.5724   -2.9241   -0.1857 H   0  0  0  0  0  0  0  0  0  0  0  0
   -1.7594   -2.2584    0.7578 C   0  0  0  0  0  0  0  0  0  0  0  0
   -0.8210   -2.9265    1.1625 O   0  0  0  0  0  0  0  0  0  0  0  0
   -1.5380   -1.0027    0.2330 N   0  0  0  0  0  0  0  0  0  0  0  0
   -2.3562   -0.4425   -0.0035 H   0  0  0  0  0  0  0  0  0  0  0  0
   -0.2427   -0.3081    0.2446 C   0  0  1  0  0  0  0  0  0  0  0  0
    0.3918   -0.7845    0.9977 H   0  0  0  0  0  0  0  0  0  0  0  0
    0.4125   -0.4218   -1.1500 C   0  0  0  0  0  0  0  0  0  0  0  0
   -0.0868   -1.2179   -1.7125 H   0  0  0  0  0  0  0  0  0  0  0  0
    0.2334    0.5002   -1.7130 H   0  0  0  0  0  0  0  0  0  0  0  0
    1.9213   -0.7878   -1.0827 C   0  0  0  0  0  0  0  0  0  0  0  0
    2.2372   -0.9498   -0.0499 H   0  0  0  0  0  0  0  0  0  0  0  0
    2.0669   -1.7367   -1.6062 H   0  0  0  0  0  0  0  0  0  0  0  0
    2.8929    0.2217   -1.7010 C   0  0  0  0  0  0  0  0  0  0  0  0
    2.4838    1.1876   -2.3187 O   0  0  0  0  0  0  0  0  0  0  0  0
    4.2061   -0.0196   -1.5064 O   0  0  0  0  0  0  0  0  0  0  0  0
    4.6632    0.7030   -1.9640 H   0  0  0  0  0  0  0  0  0  0  0  0
   -0.3995    1.1662    0.6706 C   0  0  0  0  0  0  0  0  0  0  0  0
   -1.3651    1.8105    0.2778 O   0  0  0  0  0  0  0  0  0  0  0  0
    0.4699    1.7340    1.5837 N   0  0  0  0  0  0  0  0  0  0  0  0
    1.2493    1.1703    1.9096 H   0  0  0  0  0  0  0  0  0  0  0  0
    0.3599    3.1154    2.0365 C   0  0  0  0  0  0  0  0  0  0  0  0
   -0.6128    3.2887    2.5090 H   0  0  0  0  0  0  0  0  0  0  0  0
    1.1429    3.3376    2.7679 H   0  0  0  0  0  0  0  0  0  0  0  0
    0.4693    3.8042    1.1921 H   0  0  0  0  0  0  0  0  0  0  0  0
  1  2  1  0  0  0  0
  2  3  1  0  0  0  0
  2  4  1  0  0  0  0
  2  5  1  0  0  0  0
  5  6  2  0  0  0  0
  5  7  1  0  0  0  0
  7  8  1  0  0  0  0
  7  9  1  0  0  0  0
  9 10  1  0  0  0  0
  9 11  1  0  0  0  0
  9 21  1  0  0  0  0
 11 12  1  0  0  0  0
 11 13  1  0  0  0  0
 11 14  1  0  0  0  0
 14 15  1  0  0  0  0
 14 16  1  0  0  0  0
 14 17  1  0  0  0  0
 17 18  2  0  0  0  0
 17 19  1  0  0  0  0
 19 20  1  0  0  0  0
 21 22  2  0  0  0  0
 21 23  1  0  0  0  0
 23 24  1  0  0  0  0
 23 25  1  0  0  0  0
 25 26  1  0  0  0  0
 25 27  1  0  0  0  0
 25 28  1  0  0  0  0
M  END
$$$$

  -OEChem-03222214033D

 28 27  0     1  0  0  0  0  0999 V2000
   -3.2668   -3.7663    1.1713 H   0  0  0  0  0  0  0  0  0  0  0  0
   -3.2281   -2.7609    0.7426 C   0  0  0  0  0  0  0  0  0  0  0  0
   -3.8526   -2.0967    1.3450 H   0  0  0  0  0  0  0  0  0  0  0  0
   -3.6229   -2.7970   -0.2756 H   0  0  0  0  0  0  0  0  0  0  0  0
   -1.7984   -2.2540    0.7258 C   0  0  0  0  0  0  0  0  0  0  0  0
   -0.8981   -2.9436    1.1783 O   0  0  0  0  0  0  0  0  0  0  0  0
   -1.5165   -1.0179    0.1838 N   0  0  0  0  0  0  0  0  0  0  0  0
   -2.3095   -0.4336   -0.0787 H   0  0  0  0  0  0  0  0  0  0  0  0
   -0.2114   -0.3476    0.2734 C   0  0  1  0  0  0  0  0  0  0  0  0
    0.3534   -0.8075    1.0901 H   0  0  0  0  0  0  0  0  0  0  0  0
    0.5602   -0.4960   -1.0540 C   0  0  0  0  0  0  0  0  0  0  0  0
    0.0979   -1.3016   -1.6345 H   0  0  0  0  0  0  0  0  0  0  0  0
    0.4739    0.4141   -1.6595 H   0  0  0  0  0  0  0  0  0  0  0  0
    2.0383   -0.8801   -0.8301 C   0  0  0  0  0  0  0  0  0  0  0  0
    2.2143   -1.3009    0.1632 H   0  0  0  0  0  0  0  0  0  0  0  0
    2.3128   -1.6540   -1.5524 H   0  0  0  0  0  0  0  0  0  0  0  0
    2.9592    0.3091   -1.0579 C   0  0  0  0  0  0  0  0  0  0  0  0
    3.0589    1.1217   -0.1545 O   0  0  0  0  0  0  0  0  0  0  0  0
    3.5993    0.4237   -2.2409 O   0  0  0  0  0  0  0  0  0  0  0  0
    4.1114    1.2446   -2.1768 H   0  0  0  0  0  0  0  0  0  0  0  0
   -0.3744    1.1412    0.6462 C   0  0  0  0  0  0  0  0  0  0  0  0
   -1.3177    1.7737    0.1831 O   0  0  0  0  0  0  0  0  0  0  0  0
    0.4328    1.7236    1.6047 N   0  0  0  0  0  0  0  0  0  0  0  0
    1.3052    1.2416    1.8107 H   0  0  0  0  0  0  0  0  0  0  0  0
    0.3345    3.1346    1.9562 C   0  0  0  0  0  0  0  0  0  0  0  0
   -0.6684    3.3686    2.3286 H   0  0  0  0  0  0  0  0  0  0  0  0
    1.0577    3.3795    2.7400 H   0  0  0  0  0  0  0  0  0  0  0  0
    0.5423    3.7624    1.0833 H   0  0  0  0  0  0  0  0  0  0  0  0
  1  2  1  0  0  0  0
  2  3  1  0  0  0  0
  2  4  1  0  0  0  0
  2  5  1  0  0  0  0
  5  6  2  0  0  0  0
  5  7  1  0  0  0  0
  7  8  1  0  0  0  0
  7  9  1  0  0  0  0
  9 10  1  0  0  0  0
  9 11  1  0  0  0  0
  9 21  1  0  0  0  0
 11 12  1  0  0  0  0
 11 13  1  0  0  0  0
 11 14  1  0  0  0  0
 14 15  1  0  0  0  0
 14 16  1  0  0  0  0
 14 17  1  0  0  0  0
 17 18  2  0  0  0  0
 17 19  1  0  0  0  0
 19 20  1  0  0  0  0
 21 22  2  0  0  0  0
 21 23  1  0  0  0  0
 23 24  1  0  0  0  0
 23 25  1  0  0  0  0
 25 26  1  0  0  0  0
 25 27  1  0  0  0  0
 25 28  1  0  0  0  0
M  END
$$$$

  -OEChem-03222214033D

 28 27  0     1  0  0  0  0  0999 V2000
   -3.2957   -3.7228    1.1790 H   0  0  0  0  0  0  0  0  0  0  0  0
   -3.2445   -2.7170    0.7528 C   0  0  0  0  0  0  0  0  0  0  0  0
   -3.8445   -2.0423    1.3683 H   0  0  0  0  0  0  0  0  0  0  0  0
   -3.6578   -2.7413   -0.2584 H   0  0  0  0  0  0  0  0  0  0  0  0
   -1.8057   -2.2386    0.7127 C   0  0  0  0  0  0  0  0  0  0  0  0
   -0.9120   -2.9455    1.1509 O   0  0  0  0  0  0  0  0  0  0  0  0
   -1.5097   -1.0067    0.1693 N   0  0  0  0  0  0  0  0  0  0  0  0
   -2.2966   -0.4080   -0.0794 H   0  0  0  0  0  0  0  0  0  0  0  0
   -0.1967   -0.3529    0.2618 C   0  0  1  0  0  0  0  0  0  0  0  0
    0.3667   -0.8144    1.0795 H   0  0  0  0  0  0  0  0  0  0  0  0
    0.5736   -0.5200   -1.0647 C   0  0  0  0  0  0  0  0  0  0  0  0
    0.1015   -1.3227   -1.6414 H   0  0  0  0  0  0  0  0  0  0  0  0
    0.5086    0.3887   -1.6745 H   0  0  0  0  0  0  0  0  0  0  0  0
    2.0424   -0.9241   -0.8296 C   0  0  0  0  0  0  0  0  0  0  0  0
    2.1471   -1.5723    0.0454 H   0  0  0  0  0  0  0  0  0  0  0  0
    2.3904   -1.4979   -1.6929 H   0  0  0  0  0  0  0  0  0  0  0  0
    2.9477    0.2919   -0.6951 C   0  0  0  0  0  0  0  0  0  0  0  0
    3.0195    0.8263    0.3987 O   0  0  0  0  0  0  0  0  0  0  0  0
    3.6027    0.7370   -1.7882 O   0  0  0  0  0  0  0  0  0  0  0  0
    4.1023    1.5132   -1.4921 H   0  0  0  0  0  0  0  0  0  0  0  0
   -0.3586    1.1369    0.6333 C   0  0  0  0  0  0  0  0  0  0  0  0
   -1.3024    1.7698    0.1710 O   0  0  0  0  0  0  0  0  0  0  0  0
    0.4441    1.7183    1.5955 N   0  0  0  0  0  0  0  0  0  0  0  0
    1.3338    1.2506    1.7729 H   0  0  0  0  0  0  0  0  0  0  0  0
    0.3267    3.1218    1.9698 C   0  0  0  0  0  0  0  0  0  0  0  0
   -0.6756    3.3331    2.3571 H   0  0  0  0  0  0  0  0  0  0  0  0
    1.0546    3.3657    2.7495 H   0  0  0  0  0  0  0  0  0  0  0  0
    0.5137    3.7668    1.1050 H   0  0  0  0  0  0  0  0  0  0  0  0
  1  2  1  0  0  0  0
  2  3  1  0  0  0  0
  2  4  1  0  0  0  0
  2  5  1  0  0  0  0
  5  6  2  0  0  0  0
  5  7  1  0  0  0  0
  7  8  1  0  0  0  0
  7  9  1  0  0  0  0
  9 10  1  0  0  0  0
  9 11  1  0  0  0  0
  9 21  1  0  0  0  0
 11 12  1  0  0  0  0
 11 13  1  0  0  0  0
 11 14  1  0  0  0  0
 14 15  1  0  0  0  0
 14 16  1  0  0  0  0
 14 17  1  0  0  0  0
 17 18  2  0  0  0  0
 17 19  1  0  0  0  0
 19 20  1  0  0  0  0
 21 22  2  0  0  0  0
 21 23  1  0  0  0  0
 23 24  1  0  0  0  0
 23 25  1  0  0  0  0
 25 26  1  0  0  0  0
 25 27  1  0  0  0  0
 25 28  1  0  0  0  0
M  END
$$$$

  -OEChem-03222214033D

 28 27  0     1  0  0  0  0  0999 V2000
   -3.3079   -3.7137    1.1644 H   0  0  0  0  0  0  0  0  0  0  0  0
   -3.2522   -2.7032    0.7500 C   0  0  0  0  0  0  0  0  0  0  0  0
   -3.8512   -2.0339    1.3722 H   0  0  0  0  0  0  0  0  0  0  0  0
   -3.6635   -2.7143   -0.2623 H   0  0  0  0  0  0  0  0  0  0  0  0
   -1.8117   -2.2294    0.7192 C   0  0  0  0  0  0  0  0  0  0  0  0
   -0.9233   -2.9404    1.1614 O   0  0  0  0  0  0  0  0  0  0  0  0
   -1.5076   -0.9990    0.1767 N   0  0  0  0  0  0  0  0  0  0  0  0
   -2.2899   -0.3983   -0.0808 H   0  0  0  0  0  0  0  0  0  0  0  0
   -0.1906   -0.3532    0.2711 C   0  0  1  0  0  0  0  0  0  0  0  0
    0.3779   -0.8204    1.0830 H   0  0  0  0  0  0  0  0  0  0  0  0
    0.5660   -0.5367   -1.0627 C   0  0  0  0  0  0  0  0  0  0  0  0
    0.0786   -1.3277   -1.6426 H   0  0  0  0  0  0  0  0  0  0  0  0
    0.5139    0.3784   -1.6636 H   0  0  0  0  0  0  0  0  0  0  0  0
    2.0328   -0.9551   -0.8481 C   0  0  0  0  0  0  0  0  0  0  0  0
    2.0934   -1.7808   -0.1323 H   0  0  0  0  0  0  0  0  0  0  0  0
    2.4405   -1.3179   -1.7956 H   0  0  0  0  0  0  0  0  0  0  0  0
    2.9070    0.1993   -0.3747 C   0  0  0  0  0  0  0  0  0  0  0  0
    2.9430    0.4449    0.8195 O   0  0  0  0  0  0  0  0  0  0  0  0
    3.5803    0.9129   -1.3016 O   0  0  0  0  0  0  0  0  0  0  0  0
    4.0631    1.5916   -0.8055 H   0  0  0  0  0  0  0  0  0  0  0  0
   -0.3520    1.1370    0.6434 C   0  0  0  0  0  0  0  0  0  0  0  0
   -1.2725    1.7828    0.1534 O   0  0  0  0  0  0  0  0  0  0  0  0
    0.4470    1.7187    1.6081 N   0  0  0  0  0  0  0  0  0  0  0  0
    1.2985    1.2101    1.8539 H   0  0  0  0  0  0  0  0  0  0  0  0
    0.3520    3.1262    1.9733 C   0  0  0  0  0  0  0  0  0  0  0  0
   -0.6489    3.3573    2.3529 H   0  0  0  0  0  0  0  0  0  0  0  0
    1.0797    3.3625    2.7557 H   0  0  0  0  0  0  0  0  0  0  0  0
    0.5553    3.7624    1.1056 H   0  0  0  0  0  0  0  0  0  0  0  0
  1  2  1  0  0  0  0
  2  3  1  0  0  0  0
  2  4  1  0  0  0  0
  2  5  1  0  0  0  0
  5  6  2  0  0  0  0
  5  7  1  0  0  0  0
  7  8  1  0  0  0  0
  7  9  1  0  0  0  0
  9 10  1  0  0  0  0
  9 11  1  0  0  0  0
  9 21  1  0  0  0  0
 11 12  1  0  0  0  0
 11 13  1  0  0  0  0
 11 14  1  0  0  0  0
 14 15  1  0  0  0  0
 14 16  1  0  0  0  0
 14 17  1  0  0  0  0
 17 18  2  0  0  0  0
 17 19  1  0  0  0  0
 19 20  1  0  0  0  0
 21 22  2  0  0  0  0
 21 23  1  0  0  0  0
 23 24  1  0  0  0  0
 23 25  1  0  0  0  0
 25 26  1  0  0  0  0
 25 27  1  0  0  0  0
 25 28  1  0  0  0  0
M  END
$$$$

  -OEChem-03222214033D

 28 27  0     1  0  0  0  0  0999 V2000
   -3.3212   -3.7060    1.1802 H   0  0  0  0  0  0  0  0  0  0  0  0
   -3.2643   -2.6994    0.7564 C   0  0  0  0  0  0  0  0  0  0  0  0
   -3.8686   -2.0249    1.3678 H   0  0  0  0  0  0  0  0  0  0  0  0
   -3.6686   -2.7215   -0.2585 H   0  0  0  0  0  0  0  0  0  0  0  0
   -1.8241   -2.2236    0.7301 C   0  0  0  0  0  0  0  0  0  0  0  0
   -0.9374   -2.9345    1.1753 O   0  0  0  0  0  0  0  0  0  0  0  0
   -1.5190   -0.9944    0.1846 N   0  0  0  0  0  0  0  0  0  0  0  0
   -2.3012   -0.3986   -0.0838 H   0  0  0  0  0  0  0  0  0  0  0  0
   -0.2028   -0.3456    0.2765 C   0  0  1  0  0  0  0  0  0  0  0  0
    0.3588   -0.8167    1.0904 H   0  0  0  0  0  0  0  0  0  0  0  0
    0.5527   -0.5558   -1.0553 C   0  0  0  0  0  0  0  0  0  0  0  0
    0.0585   -1.3447   -1.6323 H   0  0  0  0  0  0  0  0  0  0  0  0
    0.5024    0.3590   -1.6566 H   0  0  0  0  0  0  0  0  0  0  0  0
    2.0258   -0.9719   -0.8676 C   0  0  0  0  0  0  0  0  0  0  0  0
    2.0664   -1.9270   -0.3346 H   0  0  0  0  0  0  0  0  0  0  0  0
    2.4824   -1.1254   -1.8491 H   0  0  0  0  0  0  0  0  0  0  0  0
    2.8635    0.0476   -0.1003 C   0  0  0  0  0  0  0  0  0  0  0  0
    2.8112    0.0649    1.1183 O   0  0  0  0  0  0  0  0  0  0  0  0
    3.6115    0.9091   -0.8212 O   0  0  0  0  0  0  0  0  0  0  0  0
    4.0658    1.4665   -0.1713 H   0  0  0  0  0  0  0  0  0  0  0  0
   -0.3516    1.1462    0.6434 C   0  0  0  0  0  0  0  0  0  0  0  0
   -1.2511    1.8070    0.1357 O   0  0  0  0  0  0  0  0  0  0  0  0
    0.4561    1.7209    1.6049 N   0  0  0  0  0  0  0  0  0  0  0  0
    1.2523    1.1658    1.9252 H   0  0  0  0  0  0  0  0  0  0  0  0
    0.3757    3.1248    1.9858 C   0  0  0  0  0  0  0  0  0  0  0  0
   -0.6227    3.3616    2.3686 H   0  0  0  0  0  0  0  0  0  0  0  0
    1.1061    3.3456    2.7701 H   0  0  0  0  0  0  0  0  0  0  0  0
    0.5850    3.7679    1.1247 H   0  0  0  0  0  0  0  0  0  0  0  0
  1  2  1  0  0  0  0
  2  3  1  0  0  0  0
  2  4  1  0  0  0  0
  2  5  1  0  0  0  0
  5  6  2  0  0  0  0
  5  7  1  0  0  0  0
  7  8  1  0  0  0  0
  7  9  1  0  0  0  0
  9 10  1  0  0  0  0
  9 11  1  0  0  0  0
  9 21  1  0  0  0  0
 11 12  1  0  0  0  0
 11 13  1  0  0  0  0
 11 14  1  0  0  0  0
 14 15  1  0  0  0  0
 14 16  1  0  0  0  0
 14 17  1  0  0  0  0
 17 18  2  0  0  0  0
 17 19  1  0  0  0  0
 19 20  1  0  0  0  0
 21 22  2  0  0  0  0
 21 23  1  0  0  0  0
 23 24  1  0  0  0  0
 23 25  1  0  0  0  0
 25 26  1  0  0  0  0
 25 27  1  0  0  0  0
 25 28  1  0  0  0  0
M  END
$$$$

  -OEChem-03222214033D

 28 27  0     1  0  0  0  0  0999 V2000
   -3.1867   -3.7188    1.2951 H   0  0  0  0  0  0  0  0  0  0  0  0
   -3.1620   -2.7298    0.8288 C   0  0  0  0  0  0  0  0  0  0  0  0
   -3.7645   -2.0429    1.4280 H   0  0  0  0  0  0  0  0  0  0  0  0
   -3.5912   -2.8012   -0.1734 H   0  0  0  0  0  0  0  0  0  0  0  0
   -1.7338   -2.2263    0.7447 C   0  0  0  0  0  0  0  0  0  0  0  0
   -0.8124   -2.9288    1.1295 O   0  0  0  0  0  0  0  0  0  0  0  0
   -1.4778   -0.9759    0.2244 N   0  0  0  0  0  0  0  0  0  0  0  0
   -2.2819   -0.3766    0.0369 H   0  0  0  0  0  0  0  0  0  0  0  0
   -0.1737   -0.3014    0.3053 C   0  0  1  0  0  0  0  0  0  0  0  0
    0.4510   -0.7665    1.0751 H   0  0  0  0  0  0  0  0  0  0  0  0
    0.5087   -0.4090   -1.0808 C   0  0  0  0  0  0  0  0  0  0  0  0
   -0.0257   -1.1401   -1.6972 H   0  0  0  0  0  0  0  0  0  0  0  0
    0.4149    0.5572   -1.5891 H   0  0  0  0  0  0  0  0  0  0  0  0
    2.0056   -0.8132   -1.0715 C   0  0  0  0  0  0  0  0  0  0  0  0
    2.0470   -1.8870   -0.8661 H   0  0  0  0  0  0  0  0  0  0  0  0
    2.4114   -0.6603   -2.0748 H   0  0  0  0  0  0  0  0  0  0  0  0
    2.9649   -0.1517   -0.0818 C   0  0  0  0  0  0  0  0  0  0  0  0
    2.6623    0.8850    0.4787 O   0  0  0  0  0  0  0  0  0  0  0  0
    4.1477   -0.7716    0.1116 O   0  0  0  0  0  0  0  0  0  0  0  0
    4.6280   -0.2230    0.7502 H   0  0  0  0  0  0  0  0  0  0  0  0
   -0.4503    1.1669    0.7236 C   0  0  0  0  0  0  0  0  0  0  0  0
   -1.4528    1.7305    0.2912 O   0  0  0  0  0  0  0  0  0  0  0  0
    0.2988    1.7977    1.6972 N   0  0  0  0  0  0  0  0  0  0  0  0
    1.2434    1.4282    1.8110 H   0  0  0  0  0  0  0  0  0  0  0  0
    0.0627    3.1806    2.0926 C   0  0  0  0  0  0  0  0  0  0  0  0
   -0.9597    3.3048    2.4653 H   0  0  0  0  0  0  0  0  0  0  0  0
    0.7555    3.4678    2.8894 H   0  0  0  0  0  0  0  0  0  0  0  0
    0.2120    3.8535    1.2417 H   0  0  0  0  0  0  0  0  0  0  0  0
  1  2  1  0  0  0  0
  2  3  1  0  0  0  0
  2  4  1  0  0  0  0
  2  5  1  0  0  0  0
  5  6  2  0  0  0  0
  5  7  1  0  0  0  0
  7  8  1  0  0  0  0
  7  9  1  0  0  0  0
  9 10  1  0  0  0  0
  9 11  1  0  0  0  0
  9 21  1  0  0  0  0
 11 12  1  0  0  0  0
 11 13  1  0  0  0  0
 11 14  1  0  0  0  0
 14 15  1  0  0  0  0
 14 16  1  0  0  0  0
 14 17  1  0  0  0  0
 17 18  2  0  0  0  0
 17 19  1  0  0  0  0
 19 20  1  0  0  0  0
 21 22  2  0  0  0  0
 21 23  1  0  0  0  0
 23 24  1  0  0  0  0
 23 25  1  0  0  0  0
 25 26  1  0  0  0  0
 25 27  1  0  0  0  0
 25 28  1  0  0  0  0
M  END
$$$$

  -OEChem-03222214033D

 28 27  0     1  0  0  0  0  0999 V2000
   -3.1823   -3.7415    1.2841 H   0  0  0  0  0  0  0  0  0  0  0  0
   -3.1604   -2.7541    0.8147 C   0  0  0  0  0  0  0  0  0  0  0  0
   -3.7794   -2.0719    1.4024 H   0  0  0  0  0  0  0  0  0  0  0  0
   -3.5742   -2.8334   -0.1933 H   0  0  0  0  0  0  0  0  0  0  0  0
   -1.7357   -2.2369    0.7507 C   0  0  0  0  0  0  0  0  0  0  0  0
   -0.8142   -2.9289    1.1537 O   0  0  0  0  0  0  0  0  0  0  0  0
   -1.4836   -0.9858    0.2299 N   0  0  0  0  0  0  0  0  0  0  0  0
   -2.2906   -0.3969    0.0245 H   0  0  0  0  0  0  0  0  0  0  0  0
   -0.1853   -0.3002    0.3132 C   0  0  1  0  0  0  0  0  0  0  0  0
    0.4281   -0.7664    1.0906 H   0  0  0  0  0  0  0  0  0  0  0  0
    0.5122   -0.4045   -1.0662 C   0  0  0  0  0  0  0  0  0  0  0  0
   -0.0146   -1.1363   -1.6883 H   0  0  0  0  0  0  0  0  0  0  0  0
    0.4103    0.5621   -1.5724 H   0  0  0  0  0  0  0  0  0  0  0  0
    2.0159   -0.7907   -1.0653 C   0  0  0  0  0  0  0  0  0  0  0  0
    2.0619   -1.8825   -1.1191 H   0  0  0  0  0  0  0  0  0  0  0  0
    2.4816   -0.4047   -1.9755 H   0  0  0  0  0  0  0  0  0  0  0  0
    2.8969   -0.3907    0.1193 C   0  0  0  0  0  0  0  0  0  0  0  0
    2.6969    0.6592    0.7036 O   0  0  0  0  0  0  0  0  0  0  0  0
    3.8977   -1.2351    0.4467 O   0  0  0  0  0  0  0  0  0  0  0  0
    4.3513   -0.8252    1.1986 H   0  0  0  0  0  0  0  0  0  0  0  0
   -0.4511    1.1701    0.7263 C   0  0  0  0  0  0  0  0  0  0  0  0
   -1.4426    1.7433    0.2828 O   0  0  0  0  0  0  0  0  0  0  0  0
    0.3045    1.7978    1.6967 N   0  0  0  0  0  0  0  0  0  0  0  0
    1.2340    1.4002    1.8421 H   0  0  0  0  0  0  0  0  0  0  0  0
    0.0909    3.1873    2.0813 C   0  0  0  0  0  0  0  0  0  0  0  0
   -0.9339    3.3343    2.4381 H   0  0  0  0  0  0  0  0  0  0  0  0
    0.7772    3.4652    2.8868 H   0  0  0  0  0  0  0  0  0  0  0  0
    0.2665    3.8518    1.2291 H   0  0  0  0  0  0  0  0  0  0  0  0
  1  2  1  0  0  0  0
  2  3  1  0  0  0  0
  2  4  1  0  0  0  0
  2  5  1  0  0  0  0
  5  6  2  0  0  0  0
  5  7  1  0  0  0  0
  7  8  1  0  0  0  0
  7  9  1  0  0  0  0
  9 10  1  0  0  0  0
  9 11  1  0  0  0  0
  9 21  1  0  0  0  0
 11 12  1  0  0  0  0
 11 13  1  0  0  0  0
 11 14  1  0  0  0  0
 14 15  1  0  0  0  0
 14 16  1  0  0  0  0
 14 17  1  0  0  0  0
 17 18  2  0  0  0  0
 17 19  1  0  0  0  0
 19 20  1  0  0  0  0
 21 22  2  0  0  0  0
 21 23  1  0  0  0  0
 23 24  1  0  0  0  0
 23 25  1  0  0  0  0
 25 26  1  0  0  0  0
 25 27  1  0  0  0  0
 25 28  1  0  0  0  0
M  END
$$$$

  -OEChem-03222214033D

 28 27  0     1  0  0  0  0  0999 V2000
   -3.1672   -3.7790    1.2750 H   0  0  0  0  0  0  0  0  0  0  0  0
   -3.1534   -2.7956    0.7965 C   0  0  0  0  0  0  0  0  0  0  0  0
   -3.7958   -2.1185    1.3648 H   0  0  0  0  0  0  0  0  0  0  0  0
   -3.5447   -2.8921   -0.2191 H   0  0  0  0  0  0  0  0  0  0  0  0
   -1.7373   -2.2538    0.7558 C   0  0  0  0  0  0  0  0  0  0  0  0
   -0.8113   -2.9301    1.1746 O   0  0  0  0  0  0  0  0  0  0  0  0
   -1.4994   -1.0005    0.2327 N   0  0  0  0  0  0  0  0  0  0  0  0
   -2.3135   -0.4301    0.0057 H   0  0  0  0  0  0  0  0  0  0  0  0
   -0.2113   -0.2955    0.3105 C   0  0  1  0  0  0  0  0  0  0  0  0
    0.3842   -0.7599    1.1009 H   0  0  0  0  0  0  0  0  0  0  0  0
    0.5077   -0.4075   -1.0578 C   0  0  0  0  0  0  0  0  0  0  0  0
    0.0011   -1.1651   -1.6655 H   0  0  0  0  0  0  0  0  0  0  0  0
    0.3829    0.5433   -1.5880 H   0  0  0  0  0  0  0  0  0  0  0  0
    2.0208   -0.7637   -1.0485 C   0  0  0  0  0  0  0  0  0  0  0  0
    2.1112   -1.8071   -1.3651 H   0  0  0  0  0  0  0  0  0  0  0  0
    2.5332   -0.1567   -1.7995 H   0  0  0  0  0  0  0  0  0  0  0  0
    2.7979   -0.6416    0.2632 C   0  0  0  0  0  0  0  0  0  0  0  0
    2.7252    0.3919    0.9067 O   0  0  0  0  0  0  0  0  0  0  0  0
    3.5538   -1.6943    0.6402 O   0  0  0  0  0  0  0  0  0  0  0  0
    3.9568   -1.4404    1.4841 H   0  0  0  0  0  0  0  0  0  0  0  0
   -0.4465    1.1780    0.7177 C   0  0  0  0  0  0  0  0  0  0  0  0
   -1.4253    1.7713    0.2749 O   0  0  0  0  0  0  0  0  0  0  0  0
    0.3372    1.7881    1.6771 N   0  0  0  0  0  0  0  0  0  0  0  0
    1.2433    1.3472    1.8483 H   0  0  0  0  0  0  0  0  0  0  0  0
    0.1645    3.1806    2.0705 C   0  0  0  0  0  0  0  0  0  0  0  0
   -0.8536    3.3539    2.4350 H   0  0  0  0  0  0  0  0  0  0  0  0
    0.8635    3.4348    2.8730 H   0  0  0  0  0  0  0  0  0  0  0  0
    0.3527    3.8445    1.2205 H   0  0  0  0  0  0  0  0  0  0  0  0
  1  2  1  0  0  0  0
  2  3  1  0  0  0  0
  2  4  1  0  0  0  0
  2  5  1  0  0  0  0
  5  6  2  0  0  0  0
  5  7  1  0  0  0  0
  7  8  1  0  0  0  0
  7  9  1  0  0  0  0
  9 10  1  0  0  0  0
  9 11  1  0  0  0  0
  9 21  1  0  0  0  0
 11 12  1  0  0  0  0
 11 13  1  0  0  0  0
 11 14  1  0  0  0  0
 14 15  1  0  0  0  0
 14 16  1  0  0  0  0
 14 17  1  0  0  0  0
 17 18  2  0  0  0  0
 17 19  1  0  0  0  0
 19 20  1  0  0  0  0
 21 22  2  0  0  0  0
 21 23  1  0  0  0  0
 23 24  1  0  0  0  0
 23 25  1  0  0  0  0
 25 26  1  0  0  0  0
 25 27  1  0  0  0  0
 25 28  1  0  0  0  0
M  END
$$$$

  -OEChem-03222214033D

 28 27  0     1  0  0  0  0  0999 V2000
   -3.1581   -3.8251    1.2487 H   0  0  0  0  0  0  0  0  0  0  0  0
   -3.1556   -2.8413    0.7711 C   0  0  0  0  0  0  0  0  0  0  0  0
   -3.8198   -2.1772    1.3296 H   0  0  0  0  0  0  0  0  0  0  0  0
   -3.5294   -2.9445   -0.2503 H   0  0  0  0  0  0  0  0  0  0  0  0
   -1.7494   -2.2725    0.7518 C   0  0  0  0  0  0  0  0  0  0  0  0
   -0.8178   -2.9322    1.1839 O   0  0  0  0  0  0  0  0  0  0  0  0
   -1.5281   -1.0152    0.2292 N   0  0  0  0  0  0  0  0  0  0  0  0
   -2.3498   -0.4646   -0.0164 H   0  0  0  0  0  0  0  0  0  0  0  0
   -0.2511   -0.2893    0.3019 C   0  0  1  0  0  0  0  0  0  0  0  0
    0.3206   -0.7505    1.1088 H   0  0  0  0  0  0  0  0  0  0  0  0
    0.4994   -0.4112   -1.0492 C   0  0  0  0  0  0  0  0  0  0  0  0
    0.0250   -1.2106   -1.6285 H   0  0  0  0  0  0  0  0  0  0  0  0
    0.3489    0.5109   -1.6215 H   0  0  0  0  0  0  0  0  0  0  0  0
    2.0208   -0.7328   -1.0128 C   0  0  0  0  0  0  0  0  0  0  0  0
    2.1875   -1.6536   -1.5794 H   0  0  0  0  0  0  0  0  0  0  0  0
    2.5574    0.0633   -1.5358 H   0  0  0  0  0  0  0  0  0  0  0  0
    2.6913   -0.9095    0.3493 C   0  0  0  0  0  0  0  0  0  0  0  0
    2.7128    0.0386    1.1193 O   0  0  0  0  0  0  0  0  0  0  0  0
    3.2414   -2.1092    0.6321 O   0  0  0  0  0  0  0  0  0  0  0  0
    3.5809   -2.0375    1.5368 H   0  0  0  0  0  0  0  0  0  0  0  0
   -0.4462    1.1862    0.7054 C   0  0  0  0  0  0  0  0  0  0  0  0
   -1.4039    1.8116    0.2631 O   0  0  0  0  0  0  0  0  0  0  0  0
    0.3742    1.7656    1.6529 N   0  0  0  0  0  0  0  0  0  0  0  0
    1.2393    1.2633    1.8646 H   0  0  0  0  0  0  0  0  0  0  0  0
    0.2637    3.1621    2.0530 C   0  0  0  0  0  0  0  0  0  0  0  0
   -0.7356    3.3699    2.4498 H   0  0  0  0  0  0  0  0  0  0  0  0
    0.9969    3.3897    2.8327 H   0  0  0  0  0  0  0  0  0  0  0  0
    0.4483    3.8214    1.1985 H   0  0  0  0  0  0  0  0  0  0  0  0
  1  2  1  0  0  0  0
  2  3  1  0  0  0  0
  2  4  1  0  0  0  0
  2  5  1  0  0  0  0
  5  6  2  0  0  0  0
  5  7  1  0  0  0  0
  7  8  1  0  0  0  0
  7  9  1  0  0  0  0
  9 10  1  0  0  0  0
  9 11  1  0  0  0  0
  9 21  1  0  0  0  0
 11 12  1  0  0  0  0
 11 13  1  0  0  0  0
 11 14  1  0  0  0  0
 14 15  1  0  0  0  0
 14 16  1  0  0  0  0
 14 17  1  0  0  0  0
 17 18  2  0  0  0  0
 17 19  1  0  0  0  0
 19 20  1  0  0  0  0
 21 22  2  0  0  0  0
 21 23  1  0  0  0  0
 23 24  1  0  0  0  0
 23 25  1  0  0  0  0
 25 26  1  0  0  0  0
 25 27  1  0  0  0  0
 25 28  1  0  0  0  0
M  END
$$$$

  -OEChem-03222214033D

 28 27  0     1  0  0  0  0  0999 V2000
   -3.1314   -3.8559    1.2336 H   0  0  0  0  0  0  0  0  0  0  0  0
   -3.1443   -2.8718    0.7566 C   0  0  0  0  0  0  0  0  0  0  0  0
   -3.8177   -2.2184    1.3165 H   0  0  0  0  0  0  0  0  0  0  0  0
   -3.5174   -2.9804   -0.2646 H   0  0  0  0  0  0  0  0  0  0  0  0
   -1.7469   -2.2823    0.7374 C   0  0  0  0  0  0  0  0  0  0  0  0
   -0.8082   -2.9260    1.1787 O   0  0  0  0  0  0  0  0  0  0  0  0
   -1.5428   -1.0224    0.2129 N   0  0  0  0  0  0  0  0  0  0  0  0
   -2.3706   -0.4892   -0.0484 H   0  0  0  0  0  0  0  0  0  0  0  0
   -0.2743   -0.2808    0.2794 C   0  0  1  0  0  0  0  0  0  0  0  0
    0.2808   -0.7328    1.1005 H   0  0  0  0  0  0  0  0  0  0  0  0
    0.4987   -0.4187   -1.0575 C   0  0  0  0  0  0  0  0  0  0  0  0
    0.0525   -1.2547   -1.6070 H   0  0  0  0  0  0  0  0  0  0  0  0
    0.3333    0.4746   -1.6698 H   0  0  0  0  0  0  0  0  0  0  0  0
    2.0222   -0.7149   -0.9842 C   0  0  0  0  0  0  0  0  0  0  0  0
    2.2731   -1.4590   -1.7453 H   0  0  0  0  0  0  0  0  0  0  0  0
    2.5613    0.2006   -1.2434 H   0  0  0  0  0  0  0  0  0  0  0  0
    2.5849   -1.1936    0.3514 C   0  0  0  0  0  0  0  0  0  0  0  0
    2.7148   -0.3728    1.2480 O   0  0  0  0  0  0  0  0  0  0  0  0
    2.9116   -2.4966    0.4771 O   0  0  0  0  0  0  0  0  0  0  0  0
    3.1817   -2.6127    1.4006 H   0  0  0  0  0  0  0  0  0  0  0  0
   -0.4366    1.1958    0.6786 C   0  0  0  0  0  0  0  0  0  0  0  0
   -1.3739    1.8489    0.2349 O   0  0  0  0  0  0  0  0  0  0  0  0
    0.4145    1.7486    1.6158 N   0  0  0  0  0  0  0  0  0  0  0  0
    1.2298    1.1930    1.8817 H   0  0  0  0  0  0  0  0  0  0  0  0
    0.3330    3.1364    2.0506 C   0  0  0  0  0  0  0  0  0  0  0  0
   -0.6534    3.3471    2.4774 H   0  0  0  0  0  0  0  0  0  0  0  0
    1.0890    3.3370    2.8159 H   0  0  0  0  0  0  0  0  0  0  0  0
    0.5042    3.8131    1.2069 H   0  0  0  0  0  0  0  0  0  0  0  0
  1  2  1  0  0  0  0
  2  3  1  0  0  0  0
  2  4  1  0  0  0  0
  2  5  1  0  0  0  0
  5  6  2  0  0  0  0
  5  7  1  0  0  0  0
  7  8  1  0  0  0  0
  7  9  1  0  0  0  0
  9 10  1  0  0  0  0
  9 11  1  0  0  0  0
  9 21  1  0  0  0  0
 11 12  1  0  0  0  0
 11 13  1  0  0  0  0
 11 14  1  0  0  0  0
 14 15  1  0  0  0  0
 14 16  1  0  0  0  0
 14 17  1  0  0  0  0
 17 18  2  0  0  0  0
 17 19  1  0  0  0  0
 19 20  1  0  0  0  0
 21 22  2  0  0  0  0
 21 23  1  0  0  0  0
 23 24  1  0  0  0  0
 23 25  1  0  0  0  0
 25 26  1  0  0  0  0
 25 27  1  0  0  0  0
 25 28  1  0  0  0  0
M  END
$$$$

  -OEChem-03222214033D

 28 27  0     1  0  0  0  0  0999 V2000
   -3.2842   -3.7301    1.3429 H   0  0  0  0  0  0  0  0  0  0  0  0
   -3.2430   -2.7711    0.8189 C   0  0  0  0  0  0  0  0  0  0  0  0
   -3.9038   -2.0643    1.3265 H   0  0  0  0  0  0  0  0  0  0  0  0
   -3.5920   -2.9142   -0.2066 H   0  0  0  0  0  0  0  0  0  0  0  0
   -1.8219   -2.2404    0.8122 C   0  0  0  0  0  0  0  0  0  0  0  0
   -0.9227   -2.8968    1.3116 O   0  0  0  0  0  0  0  0  0  0  0  0
   -1.5562   -1.0029    0.2632 N   0  0  0  0  0  0  0  0  0  0  0  0
   -2.3525   -0.4461   -0.0426 H   0  0  0  0  0  0  0  0  0  0  0  0
   -0.2439   -0.3397    0.2779 C   0  0  1  0  0  0  0  0  0  0  0  0
    0.3426   -0.8123    1.0644 H   0  0  0  0  0  0  0  0  0  0  0  0
    0.4392   -0.4975   -1.1050 C   0  0  0  0  0  0  0  0  0  0  0  0
   -0.0851   -1.2990   -1.6370 H   0  0  0  0  0  0  0  0  0  0  0  0
    0.2961    0.4121   -1.6991 H   0  0  0  0  0  0  0  0  0  0  0  0
    1.9384   -0.8902   -1.1203 C   0  0  0  0  0  0  0  0  0  0  0  0
    2.1606   -1.4020   -2.0614 H   0  0  0  0  0  0  0  0  0  0  0  0
    2.5277    0.0305   -1.1089 H   0  0  0  0  0  0  0  0  0  0  0  0
    2.4518   -1.7477    0.0339 C   0  0  0  0  0  0  0  0  0  0  0  0
    2.6370   -2.9321   -0.1701 O   0  0  0  0  0  0  0  0  0  0  0  0
    2.7401   -1.1427    1.2099 O   0  0  0  0  0  0  0  0  0  0  0  0
    3.0418   -1.8699    1.7793 H   0  0  0  0  0  0  0  0  0  0  0  0
   -0.3374    1.1472    0.6646 C   0  0  0  0  0  0  0  0  0  0  0  0
   -1.2403    1.8418    0.2131 O   0  0  0  0  0  0  0  0  0  0  0  0
    0.5560    1.6829    1.5723 N   0  0  0  0  0  0  0  0  0  0  0  0
    1.2888    1.0709    1.9259 H   0  0  0  0  0  0  0  0  0  0  0  0
    0.5037    3.0662    2.0278 C   0  0  0  0  0  0  0  0  0  0  0  0
   -0.4424    3.2639    2.5427 H   0  0  0  0  0  0  0  0  0  0  0  0
    1.3243    3.2671    2.7233 H   0  0  0  0  0  0  0  0  0  0  0  0
    0.5934    3.7530    1.1795 H   0  0  0  0  0  0  0  0  0  0  0  0
  1  2  1  0  0  0  0
  2  3  1  0  0  0  0
  2  4  1  0  0  0  0
  2  5  1  0  0  0  0
  5  6  2  0  0  0  0
  5  7  1  0  0  0  0
  7  8  1  0  0  0  0
  7  9  1  0  0  0  0
  9 10  1  0  0  0  0
  9 11  1  0  0  0  0
  9 21  1  0  0  0  0
 11 12  1  0  0  0  0
 11 13  1  0  0  0  0
 11 14  1  0  0  0  0
 14 15  1  0  0  0  0
 14 16  1  0  0  0  0
 14 17  1  0  0  0  0
 17 18  2  0  0  0  0
 17 19  1  0  0  0  0
 19 20  1  0  0  0  0
 21 22  2  0  0  0  0
 21 23  1  0  0  0  0
 23 24  1  0  0  0  0
 23 25  1  0  0  0  0
 25 26  1  0  0  0  0
 25 27  1  0  0  0  0
 25 28  1  0  0  0  0
M  END
$$$$

  -OEChem-03222214033D

 28 27  0     1  0  0  0  0  0999 V2000
   -3.1945   -3.7679    1.3669 H   0  0  0  0  0  0  0  0  0  0  0  0
   -3.1713   -2.8117    0.8365 C   0  0  0  0  0  0  0  0  0  0  0  0
   -3.8497   -2.1159    1.3360 H   0  0  0  0  0  0  0  0  0  0  0  0
   -3.5117   -2.9700   -0.1896 H   0  0  0  0  0  0  0  0  0  0  0  0
   -1.7621   -2.2503    0.8324 C   0  0  0  0  0  0  0  0  0  0  0  0
   -0.8492   -2.8876    1.3328 O   0  0  0  0  0  0  0  0  0  0  0  0
   -1.5218   -1.0061    0.2861 N   0  0  0  0  0  0  0  0  0  0  0  0
   -2.3266   -0.4637   -0.0233 H   0  0  0  0  0  0  0  0  0  0  0  0
   -0.2143   -0.3349    0.2765 C   0  0  1  0  0  0  0  0  0  0  0  0
    0.4154   -0.8030    1.0337 H   0  0  0  0  0  0  0  0  0  0  0  0
    0.4177   -0.4613   -1.1339 C   0  0  0  0  0  0  0  0  0  0  0  0
   -0.1197   -1.2455   -1.6789 H   0  0  0  0  0  0  0  0  0  0  0  0
    0.2707    0.4675   -1.6963 H   0  0  0  0  0  0  0  0  0  0  0  0
    1.9125   -0.8501   -1.1692 C   0  0  0  0  0  0  0  0  0  0  0  0
    2.1889   -1.1210   -2.1923 H   0  0  0  0  0  0  0  0  0  0  0  0
    2.5091    0.0225   -0.8907 H   0  0  0  0  0  0  0  0  0  0  0  0
    2.3081   -1.9925   -0.2380 C   0  0  0  0  0  0  0  0  0  0  0  0
    2.2781   -3.1256   -0.6797 O   0  0  0  0  0  0  0  0  0  0  0  0
    2.7043   -1.6932    1.0194 O   0  0  0  0  0  0  0  0  0  0  0  0
    2.8545   -2.5592    1.4329 H   0  0  0  0  0  0  0  0  0  0  0  0
   -0.3289    1.1475    0.6802 C   0  0  0  0  0  0  0  0  0  0  0  0
   -1.2408    1.8339    0.2343 O   0  0  0  0  0  0  0  0  0  0  0  0
    0.5683    1.6979    1.5762 N   0  0  0  0  0  0  0  0  0  0  0  0
    1.2822    1.0848    1.9627 H   0  0  0  0  0  0  0  0  0  0  0  0
    0.4917    3.0772    2.0415 C   0  0  0  0  0  0  0  0  0  0  0  0
   -0.4523    3.2522    2.5684 H   0  0  0  0  0  0  0  0  0  0  0  0
    1.3161    3.2914    2.7285 H   0  0  0  0  0  0  0  0  0  0  0  0
    0.5578    3.7711    1.1967 H   0  0  0  0  0  0  0  0  0  0  0  0
  1  2  1  0  0  0  0
  2  3  1  0  0  0  0
  2  4  1  0  0  0  0
  2  5  1  0  0  0  0
  5  6  2  0  0  0  0
  5  7  1  0  0  0  0
  7  8  1  0  0  0  0
  7  9  1  0  0  0  0
  9 10  1  0  0  0  0
  9 11  1  0  0  0  0
  9 21  1  0  0  0  0
 11 12  1  0  0  0  0
 11 13  1  0  0  0  0
 11 14  1  0  0  0  0
 14 15  1  0  0  0  0
 14 16  1  0  0  0  0
 14 17  1  0  0  0  0
 17 18  2  0  0  0  0
 17 19  1  0  0  0  0
 19 20  1  0  0  0  0
 21 22  2  0  0  0  0
 21 23  1  0  0  0  0
 23 24  1  0  0  0  0
 23 25  1  0  0  0  0
 25 26  1  0  0  0  0
 25 27  1  0  0  0  0
 25 28  1  0  0  0  0
M  END
$$$$

  -OEChem-03222214033D

 28 27  0     1  0  0  0  0  0999 V2000
   -3.0814   -3.8246    1.3425 H   0  0  0  0  0  0  0  0  0  0  0  0
   -3.0901   -2.8501    0.8462 C   0  0  0  0  0  0  0  0  0  0  0  0
   -3.7605   -2.1825    1.3928 H   0  0  0  0  0  0  0  0  0  0  0  0
   -3.4632   -2.9772   -0.1729 H   0  0  0  0  0  0  0  0  0  0  0  0
   -1.6900   -2.2677    0.8146 C   0  0  0  0  0  0  0  0  0  0  0  0
   -0.7543   -2.9014    1.2777 O   0  0  0  0  0  0  0  0  0  0  0  0
   -1.4814   -1.0138    0.2774 N   0  0  0  0  0  0  0  0  0  0  0  0
   -2.3006   -0.4785   -0.0056 H   0  0  0  0  0  0  0  0  0  0  0  0
   -0.1840   -0.3246    0.2517 C   0  0  1  0  0  0  0  0  0  0  0  0
    0.4790   -0.7909    0.9841 H   0  0  0  0  0  0  0  0  0  0  0  0
    0.4146   -0.4346   -1.1720 C   0  0  0  0  0  0  0  0  0  0  0  0
   -0.1239   -1.2076   -1.7321 H   0  0  0  0  0  0  0  0  0  0  0  0
    0.2683    0.5069   -1.7128 H   0  0  0  0  0  0  0  0  0  0  0  0
    1.9092   -0.8080   -1.1867 C   0  0  0  0  0  0  0  0  0  0  0  0
    2.2628   -0.8517   -2.2207 H   0  0  0  0  0  0  0  0  0  0  0  0
    2.4888   -0.0376   -0.6715 H   0  0  0  0  0  0  0  0  0  0  0  0
    2.1823   -2.1547   -0.5242 C   0  0  0  0  0  0  0  0  0  0  0  0
    2.0278   -3.1628   -1.1886 O   0  0  0  0  0  0  0  0  0  0  0  0
    2.5754   -2.1644    0.7680 O   0  0  0  0  0  0  0  0  0  0  0  0
    2.5802   -3.1044    1.0119 H   0  0  0  0  0  0  0  0  0  0  0  0
   -0.3201    1.1509    0.6756 C   0  0  0  0  0  0  0  0  0  0  0  0
   -1.2497    1.8251    0.2481 O   0  0  0  0  0  0  0  0  0  0  0  0
    0.5789    1.7121    1.5633 N   0  0  0  0  0  0  0  0  0  0  0  0
    1.2899    1.1030    1.9600 H   0  0  0  0  0  0  0  0  0  0  0  0
    0.4652    3.0796    2.0560 C   0  0  0  0  0  0  0  0  0  0  0  0
   -0.4725    3.2118    2.6062 H   0  0  0  0  0  0  0  0  0  0  0  0
    1.2969    3.3110    2.7285 H   0  0  0  0  0  0  0  0  0  0  0  0
    0.4880    3.7905    1.2231 H   0  0  0  0  0  0  0  0  0  0  0  0
  1  2  1  0  0  0  0
  2  3  1  0  0  0  0
  2  4  1  0  0  0  0
  2  5  1  0  0  0  0
  5  6  2  0  0  0  0
  5  7  1  0  0  0  0
  7  8  1  0  0  0  0
  7  9  1  0  0  0  0
  9 10  1  0  0  0  0
  9 11  1  0  0  0  0
  9 21  1  0  0  0  0
 11 12  1  0  0  0  0
 11 13  1  0  0  0  0
 11 14  1  0  0  0  0
 14 15  1  0  0  0  0
 14 16  1  0  0  0  0
 14 17  1  0  0  0  0
 17 18  2  0  0  0  0
 17 19  1  0  0  0  0
 19 20  1  0  0  0  0
 21 22  2  0  0  0  0
 21 23  1  0  0  0  0
 23 24  1  0  0  0  0
 23 25  1  0  0  0  0
 25 26  1  0  0  0  0
 25 27  1  0  0  0  0
 25 28  1  0  0  0  0
M  END
$$$$

  -OEChem-03222214033D

 28 27  0     1  0  0  0  0  0999 V2000
   -3.0217   -3.8511    1.3404 H   0  0  0  0  0  0  0  0  0  0  0  0
   -3.0446   -2.8792    0.8397 C   0  0  0  0  0  0  0  0  0  0  0  0
   -3.7119   -2.2143    1.3933 H   0  0  0  0  0  0  0  0  0  0  0  0
   -3.4325   -3.0136   -0.1729 H   0  0  0  0  0  0  0  0  0  0  0  0
   -1.6492   -2.2873    0.7835 C   0  0  0  0  0  0  0  0  0  0  0  0
   -0.6978   -2.9275    1.2031 O   0  0  0  0  0  0  0  0  0  0  0  0
   -1.4623   -1.0238    0.2613 N   0  0  0  0  0  0  0  0  0  0  0  0
   -2.2935   -0.4928    0.0065 H   0  0  0  0  0  0  0  0  0  0  0  0
   -0.1767   -0.3127    0.2293 C   0  0  1  0  0  0  0  0  0  0  0  0
    0.5055   -0.7849    0.9437 H   0  0  0  0  0  0  0  0  0  0  0  0
    0.4076   -0.4190   -1.1976 C   0  0  0  0  0  0  0  0  0  0  0  0
   -0.1255   -1.1857   -1.7719 H   0  0  0  0  0  0  0  0  0  0  0  0
    0.2614    0.5297   -1.7259 H   0  0  0  0  0  0  0  0  0  0  0  0
    1.9054   -0.7691   -1.1786 C   0  0  0  0  0  0  0  0  0  0  0  0
    2.3324   -0.5898   -2.1692 H   0  0  0  0  0  0  0  0  0  0  0  0
    2.4418   -0.1350   -0.4681 H   0  0  0  0  0  0  0  0  0  0  0  0
    2.1248   -2.2365   -0.8294 C   0  0  0  0  0  0  0  0  0  0  0  0
    1.9245   -3.0787   -1.6860 O   0  0  0  0  0  0  0  0  0  0  0  0
    2.5078   -2.5274    0.4320 O   0  0  0  0  0  0  0  0  0  0  0  0
    2.4574   -3.4948    0.4902 H   0  0  0  0  0  0  0  0  0  0  0  0
   -0.3264    1.1560    0.6720 C   0  0  0  0  0  0  0  0  0  0  0  0
   -1.2699    1.8224    0.2634 O   0  0  0  0  0  0  0  0  0  0  0  0
    0.5758    1.7195    1.5550 N   0  0  0  0  0  0  0  0  0  0  0  0
    1.2934    1.1137    1.9443 H   0  0  0  0  0  0  0  0  0  0  0  0
    0.4511    3.0806    2.0624 C   0  0  0  0  0  0  0  0  0  0  0  0
   -0.4816    3.1963    2.6245 H   0  0  0  0  0  0  0  0  0  0  0  0
    1.2878    3.3145    2.7277 H   0  0  0  0  0  0  0  0  0  0  0  0
    0.4568    3.7995    1.2361 H   0  0  0  0  0  0  0  0  0  0  0  0
  1  2  1  0  0  0  0
  2  3  1  0  0  0  0
  2  4  1  0  0  0  0
  2  5  1  0  0  0  0
  5  6  2  0  0  0  0
  5  7  1  0  0  0  0
  7  8  1  0  0  0  0
  7  9  1  0  0  0  0
  9 10  1  0  0  0  0
  9 11  1  0  0  0  0
  9 21  1  0  0  0  0
 11 12  1  0  0  0  0
 11 13  1  0  0  0  0
 11 14  1  0  0  0  0
 14 15  1  0  0  0  0
 14 16  1  0  0  0  0
 14 17  1  0  0  0  0
 17 18  2  0  0  0  0
 17 19  1  0  0  0  0
 19 20  1  0  0  0  0
 21 22  2  0  0  0  0
 21 23  1  0  0  0  0
 23 24  1  0  0  0  0
 23 25  1  0  0  0  0
 25 26  1  0  0  0  0
 25 27  1  0  0  0  0
 25 28  1  0  0  0  0
M  END
$$$$

  -OEChem-03222214033D

 28 27  0     1  0  0  0  0  0999 V2000
   -3.0234   -3.8524    1.3229 H   0  0  0  0  0  0  0  0  0  0  0  0
   -3.0479   -2.8758    0.8314 C   0  0  0  0  0  0  0  0  0  0  0  0
   -3.7104   -2.2145    1.3949 H   0  0  0  0  0  0  0  0  0  0  0  0
   -3.4419   -3.0003   -0.1802 H   0  0  0  0  0  0  0  0  0  0  0  0
   -1.6523   -2.2844    0.7733 C   0  0  0  0  0  0  0  0  0  0  0  0
   -0.6994   -2.9246    1.1886 O   0  0  0  0  0  0  0  0  0  0  0  0
   -1.4664   -1.0204    0.2532 N   0  0  0  0  0  0  0  0  0  0  0  0
   -2.2984   -0.4919   -0.0047 H   0  0  0  0  0  0  0  0  0  0  0  0
   -0.1836   -0.3036    0.2262 C   0  0  1  0  0  0  0  0  0  0  0  0
    0.4969   -0.7782    0.9415 H   0  0  0  0  0  0  0  0  0  0  0  0
    0.4076   -0.4163   -1.1957 C   0  0  0  0  0  0  0  0  0  0  0  0
   -0.1277   -1.1754   -1.7780 H   0  0  0  0  0  0  0  0  0  0  0  0
    0.2668    0.5347   -1.7209 H   0  0  0  0  0  0  0  0  0  0  0  0
    1.9088   -0.7599   -1.1629 C   0  0  0  0  0  0  0  0  0  0  0  0
    2.3869   -0.3539   -2.0587 H   0  0  0  0  0  0  0  0  0  0  0  0
    2.4009   -0.3065   -0.2986 H   0  0  0  0  0  0  0  0  0  0  0  0
    2.1429   -2.2659   -1.1670 C   0  0  0  0  0  0  0  0  0  0  0  0
    1.8735   -2.9025   -2.1701 O   0  0  0  0  0  0  0  0  0  0  0  0
    2.6324   -2.8214   -0.0388 O   0  0  0  0  0  0  0  0  0  0  0  0
    2.6188   -3.7770   -0.2025 H   0  0  0  0  0  0  0  0  0  0  0  0
   -0.3409    1.1648    0.6690 C   0  0  0  0  0  0  0  0  0  0  0  0
   -1.2888    1.8252    0.2613 O   0  0  0  0  0  0  0  0  0  0  0  0
    0.5552    1.7331    1.5555 N   0  0  0  0  0  0  0  0  0  0  0  0
    1.2752    1.1319    1.9465 H   0  0  0  0  0  0  0  0  0  0  0  0
    0.4169    3.0912    2.0681 C   0  0  0  0  0  0  0  0  0  0  0  0
   -0.5153    3.1948    2.6334 H   0  0  0  0  0  0  0  0  0  0  0  0
    1.2530    3.3320    2.7318 H   0  0  0  0  0  0  0  0  0  0  0  0
    0.4118    3.8133    1.2447 H   0  0  0  0  0  0  0  0  0  0  0  0
  1  2  1  0  0  0  0
  2  3  1  0  0  0  0
  2  4  1  0  0  0  0
  2  5  1  0  0  0  0
  5  6  2  0  0  0  0
  5  7  1  0  0  0  0
  7  8  1  0  0  0  0
  7  9  1  0  0  0  0
  9 10  1  0  0  0  0
  9 11  1  0  0  0  0
  9 21  1  0  0  0  0
 11 12  1  0  0  0  0
 11 13  1  0  0  0  0
 11 14  1  0  0  0  0
 14 15  1  0  0  0  0
 14 16  1  0  0  0  0
 14 17  1  0  0  0  0
 17 18  2  0  0  0  0
 17 19  1  0  0  0  0
 19 20  1  0  0  0  0
 21 22  2  0  0  0  0
 21 23  1  0  0  0  0
 23 24  1  0  0  0  0
 23 25  1  0  0  0  0
 25 26  1  0  0  0  0
 25 27  1  0  0  0  0
 25 28  1  0  0  0  0
M  END
$$$$

  -OEChem-03222214033D

 28 27  0     1  0  0  0  0  0999 V2000
   -3.0540   -3.8373    1.3207 H   0  0  0  0  0  0  0  0  0  0  0  0
   -3.0691   -2.8661    0.8181 C   0  0  0  0  0  0  0  0  0  0  0  0
   -3.7448   -2.1997    1.3598 H   0  0  0  0  0  0  0  0  0  0  0  0
   -3.4408   -3.0021   -0.2004 H   0  0  0  0  0  0  0  0  0  0  0  0
   -1.6731   -2.2736    0.7838 C   0  0  0  0  0  0  0  0  0  0  0  0
   -0.7278   -2.9089    1.2226 O   0  0  0  0  0  0  0  0  0  0  0  0
   -1.4769   -1.0139    0.2574 N   0  0  0  0  0  0  0  0  0  0  0  0
   -2.3034   -0.4873   -0.0214 H   0  0  0  0  0  0  0  0  0  0  0  0
   -0.1922   -0.3002    0.2409 C   0  0  1  0  0  0  0  0  0  0  0  0
    0.4767   -0.7724    0.9678 H   0  0  0  0  0  0  0  0  0  0  0  0
    0.4152   -0.4167   -1.1746 C   0  0  0  0  0  0  0  0  0  0  0  0
   -0.1249   -1.1738   -1.7547 H   0  0  0  0  0  0  0  0  0  0  0  0
    0.2769    0.5317   -1.7056 H   0  0  0  0  0  0  0  0  0  0  0  0
    1.9205   -0.7638   -1.1440 C   0  0  0  0  0  0  0  0  0  0  0  0
    2.4412   -0.1406   -1.8761 H   0  0  0  0  0  0  0  0  0  0  0  0
    2.3614   -0.5459   -0.1682 H   0  0  0  0  0  0  0  0  0  0  0  0
    2.1978   -2.2177   -1.5139 C   0  0  0  0  0  0  0  0  0  0  0  0
    1.8663   -2.6206   -2.6149 O   0  0  0  0  0  0  0  0  0  0  0  0
    2.8133   -2.9898   -0.5941 O   0  0  0  0  0  0  0  0  0  0  0  0
    2.8514   -3.8733   -0.9912 H   0  0  0  0  0  0  0  0  0  0  0  0
   -0.3536    1.1714    0.6719 C   0  0  0  0  0  0  0  0  0  0  0  0
   -1.2983    1.8281    0.2504 O   0  0  0  0  0  0  0  0  0  0  0  0
    0.5310    1.7468    1.5653 N   0  0  0  0  0  0  0  0  0  0  0  0
    1.2485    1.1506    1.9681 H   0  0  0  0  0  0  0  0  0  0  0  0
    0.3841    3.1086    2.0656 C   0  0  0  0  0  0  0  0  0  0  0  0
   -0.5469    3.2096    2.6335 H   0  0  0  0  0  0  0  0  0  0  0  0
    1.2208    3.3627    2.7236 H   0  0  0  0  0  0  0  0  0  0  0  0
    0.3698    3.8232    1.2356 H   0  0  0  0  0  0  0  0  0  0  0  0
  1  2  1  0  0  0  0
  2  3  1  0  0  0  0
  2  4  1  0  0  0  0
  2  5  1  0  0  0  0
  5  6  2  0  0  0  0
  5  7  1  0  0  0  0
  7  8  1  0  0  0  0
  7  9  1  0  0  0  0
  9 10  1  0  0  0  0
  9 11  1  0  0  0  0
  9 21  1  0  0  0  0
 11 12  1  0  0  0  0
 11 13  1  0  0  0  0
 11 14  1  0  0  0  0
 14 15  1  0  0  0  0
 14 16  1  0  0  0  0
 14 17  1  0  0  0  0
 17 18  2  0  0  0  0
 17 19  1  0  0  0  0
 19 20  1  0  0  0  0
 21 22  2  0  0  0  0
 21 23  1  0  0  0  0
 23 24  1  0  0  0  0
 23 25  1  0  0  0  0
 25 26  1  0  0  0  0
 25 27  1  0  0  0  0
 25 28  1  0  0  0  0
M  END
$$$$

  -OEChem-03222214033D

 28 27  0     1  0  0  0  0  0999 V2000
   -3.0718   -3.8330    1.2988 H   0  0  0  0  0  0  0  0  0  0  0  0
   -3.0853   -2.8544    0.8108 C   0  0  0  0  0  0  0  0  0  0  0  0
   -3.7618   -2.1961    1.3610 H   0  0  0  0  0  0  0  0  0  0  0  0
   -3.4550   -2.9754   -0.2103 H   0  0  0  0  0  0  0  0  0  0  0  0
   -1.6892   -2.2620    0.7886 C   0  0  0  0  0  0  0  0  0  0  0  0
   -0.7495   -2.8934    1.2450 O   0  0  0  0  0  0  0  0  0  0  0  0
   -1.4852   -1.0071    0.2538 N   0  0  0  0  0  0  0  0  0  0  0  0
   -2.3079   -0.4805   -0.0361 H   0  0  0  0  0  0  0  0  0  0  0  0
   -0.1990   -0.2953    0.2470 C   0  0  1  0  0  0  0  0  0  0  0  0
    0.4556   -0.7607    0.9901 H   0  0  0  0  0  0  0  0  0  0  0  0
    0.4303   -0.4175   -1.1601 C   0  0  0  0  0  0  0  0  0  0  0  0
   -0.1031   -1.1935   -1.7208 H   0  0  0  0  0  0  0  0  0  0  0  0
    0.2849    0.5151   -1.7166 H   0  0  0  0  0  0  0  0  0  0  0  0
    1.9390   -0.7651   -1.1241 C   0  0  0  0  0  0  0  0  0  0  0  0
    2.5023    0.0318   -1.6168 H   0  0  0  0  0  0  0  0  0  0  0  0
    2.3071   -0.8292   -0.0974 H   0  0  0  0  0  0  0  0  0  0  0  0
    2.2705   -2.0775   -1.8300 C   0  0  0  0  0  0  0  0  0  0  0  0
    1.9087   -2.2359   -2.9826 O   0  0  0  0  0  0  0  0  0  0  0  0
    2.9719   -3.0013   -1.1395 O   0  0  0  0  0  0  0  0  0  0  0  0
    3.0536   -3.7572   -1.7407 H   0  0  0  0  0  0  0  0  0  0  0  0
   -0.3643    1.1797    0.6636 C   0  0  0  0  0  0  0  0  0  0  0  0
   -1.3063    1.8327    0.2310 O   0  0  0  0  0  0  0  0  0  0  0  0
    0.5111    1.7593    1.5634 N   0  0  0  0  0  0  0  0  0  0  0  0
    1.2264    1.1650    1.9726 H   0  0  0  0  0  0  0  0  0  0  0  0
    0.3545    3.1190    2.0660 C   0  0  0  0  0  0  0  0  0  0  0  0
   -0.5693    3.2084    2.6470 H   0  0  0  0  0  0  0  0  0  0  0  0
    1.1975    3.3830    2.7119 H   0  0  0  0  0  0  0  0  0  0  0  0
    0.3196    3.8339    1.2370 H   0  0  0  0  0  0  0  0  0  0  0  0
  1  2  1  0  0  0  0
  2  3  1  0  0  0  0
  2  4  1  0  0  0  0
  2  5  1  0  0  0  0
  5  6  2  0  0  0  0
  5  7  1  0  0  0  0
  7  8  1  0  0  0  0
  7  9  1  0  0  0  0
  9 10  1  0  0  0  0
  9 11  1  0  0  0  0
  9 21  1  0  0  0  0
 11 12  1  0  0  0  0
 11 13  1  0  0  0  0
 11 14  1  0  0  0  0
 14 15  1  0  0  0  0
 14 16  1  0  0  0  0
 14 17  1  0  0  0  0
 17 18  2  0  0  0  0
 17 19  1  0  0  0  0
 19 20  1  0  0  0  0
 21 22  2  0  0  0  0
 21 23  1  0  0  0  0
 23 24  1  0  0  0  0
 23 25  1  0  0  0  0
 25 26  1  0  0  0  0
 25 27  1  0  0  0  0
 25 28  1  0  0  0  0
M  END
$$$$

  -OEChem-03222214033D

 28 27  0     1  0  0  0  0  0999 V2000
   -3.0940   -3.8268    1.2821 H   0  0  0  0  0  0  0  0  0  0  0  0
   -3.1051   -2.8397    0.8115 C   0  0  0  0  0  0  0  0  0  0  0  0
   -3.7718   -2.1865    1.3796 H   0  0  0  0  0  0  0  0  0  0  0  0
   -3.4852   -2.9399   -0.2080 H   0  0  0  0  0  0  0  0  0  0  0  0
   -1.7049   -2.2570    0.7859 C   0  0  0  0  0  0  0  0  0  0  0  0
   -0.7687   -2.8920    1.2446 O   0  0  0  0  0  0  0  0  0  0  0  0
   -1.4921   -1.0051    0.2477 N   0  0  0  0  0  0  0  0  0  0  0  0
   -2.3108   -0.4733   -0.0442 H   0  0  0  0  0  0  0  0  0  0  0  0
   -0.2031   -0.2984    0.2516 C   0  0  1  0  0  0  0  0  0  0  0  0
    0.4419   -0.7597    1.0052 H   0  0  0  0  0  0  0  0  0  0  0  0
    0.4439   -0.4169   -1.1481 C   0  0  0  0  0  0  0  0  0  0  0  0
   -0.0788   -1.2098   -1.6954 H   0  0  0  0  0  0  0  0  0  0  0  0
    0.2961    0.5041   -1.7234 H   0  0  0  0  0  0  0  0  0  0  0  0
    1.9510   -0.7687   -1.0978 C   0  0  0  0  0  0  0  0  0  0  0  0
    2.5455    0.1273   -1.2934 H   0  0  0  0  0  0  0  0  0  0  0  0
    2.2271   -1.1348   -0.1059 H   0  0  0  0  0  0  0  0  0  0  0  0
    2.3519   -1.8551   -2.0940 C   0  0  0  0  0  0  0  0  0  0  0  0
    1.9353   -1.7928   -3.2372 O   0  0  0  0  0  0  0  0  0  0  0  0
    3.1777   -2.8308   -1.6597 O   0  0  0  0  0  0  0  0  0  0  0  0
    3.2992   -3.4155   -2.4233 H   0  0  0  0  0  0  0  0  0  0  0  0
   -0.3721    1.1784    0.6610 C   0  0  0  0  0  0  0  0  0  0  0  0
   -1.3141    1.8279    0.2228 O   0  0  0  0  0  0  0  0  0  0  0  0
    0.4931    1.7617    1.5682 N   0  0  0  0  0  0  0  0  0  0  0  0
    1.2114    1.1731    1.9800 H   0  0  0  0  0  0  0  0  0  0  0  0
    0.3328    3.1252    2.0590 C   0  0  0  0  0  0  0  0  0  0  0  0
   -0.6082    3.2255    2.6100 H   0  0  0  0  0  0  0  0  0  0  0  0
    1.1572    3.3856    2.7300 H   0  0  0  0  0  0  0  0  0  0  0  0
    0.3302    3.8356    1.2254 H   0  0  0  0  0  0  0  0  0  0  0  0
  1  2  1  0  0  0  0
  2  3  1  0  0  0  0
  2  4  1  0  0  0  0
  2  5  1  0  0  0  0
  5  6  2  0  0  0  0
  5  7  1  0  0  0  0
  7  8  1  0  0  0  0
  7  9  1  0  0  0  0
  9 10  1  0  0  0  0
  9 11  1  0  0  0  0
  9 21  1  0  0  0  0
 11 12  1  0  0  0  0
 11 13  1  0  0  0  0
 11 14  1  0  0  0  0
 14 15  1  0  0  0  0
 14 16  1  0  0  0  0
 14 17  1  0  0  0  0
 17 18  2  0  0  0  0
 17 19  1  0  0  0  0
 19 20  1  0  0  0  0
 21 22  2  0  0  0  0
 21 23  1  0  0  0  0
 23 24  1  0  0  0  0
 23 25  1  0  0  0  0
 25 26  1  0  0  0  0
 25 27  1  0  0  0  0
 25 28  1  0  0  0  0
M  END
$$$$

  -OEChem-03222214033D

 28 27  0     1  0  0  0  0  0999 V2000
   -3.1213   -3.8139    1.2770 H   0  0  0  0  0  0  0  0  0  0  0  0
   -3.1267   -2.8254    0.8092 C   0  0  0  0  0  0  0  0  0  0  0  0
   -3.7824   -2.1670    1.3841 H   0  0  0  0  0  0  0  0  0  0  0  0
   -3.5157   -2.9189   -0.2076 H   0  0  0  0  0  0  0  0  0  0  0  0
   -1.7216   -2.2548    0.7751 C   0  0  0  0  0  0  0  0  0  0  0  0
   -0.7870   -2.8972    1.2275 O   0  0  0  0  0  0  0  0  0  0  0  0
   -1.5033   -1.0029    0.2396 N   0  0  0  0  0  0  0  0  0  0  0  0
   -2.3197   -0.4648   -0.0476 H   0  0  0  0  0  0  0  0  0  0  0  0
   -0.2116   -0.3017    0.2494 C   0  0  1  0  0  0  0  0  0  0  0  0
    0.4326   -0.7651    1.0025 H   0  0  0  0  0  0  0  0  0  0  0  0
    0.4407   -0.4191   -1.1466 C   0  0  0  0  0  0  0  0  0  0  0  0
   -0.0726   -1.2181   -1.6939 H   0  0  0  0  0  0  0  0  0  0  0  0
    0.2989    0.5000   -1.7267 H   0  0  0  0  0  0  0  0  0  0  0  0
    1.9426   -0.7768   -1.0743 C   0  0  0  0  0  0  0  0  0  0  0  0
    2.5397    0.1333   -0.9785 H   0  0  0  0  0  0  0  0  0  0  0  0
    2.1331   -1.3969   -0.1941 H   0  0  0  0  0  0  0  0  0  0  0  0
    2.4362   -1.5780   -2.2785 C   0  0  0  0  0  0  0  0  0  0  0  0
    1.9407   -1.3800   -3.3739 O   0  0  0  0  0  0  0  0  0  0  0  0
    3.4323   -2.4644   -2.0683 O   0  0  0  0  0  0  0  0  0  0  0  0
    3.5971   -2.8660   -2.9352 H   0  0  0  0  0  0  0  0  0  0  0  0
   -0.3777    1.1748    0.6611 C   0  0  0  0  0  0  0  0  0  0  0  0
   -1.3166    1.8277    0.2214 O   0  0  0  0  0  0  0  0  0  0  0  0
    0.4853    1.7543    1.5730 N   0  0  0  0  0  0  0  0  0  0  0  0
    1.2049    1.1653    1.9823 H   0  0  0  0  0  0  0  0  0  0  0  0
    0.3334    3.1215    2.0564 C   0  0  0  0  0  0  0  0  0  0  0  0
   -0.6142    3.2350    2.5935 H   0  0  0  0  0  0  0  0  0  0  0  0
    1.1508    3.3752    2.7382 H   0  0  0  0  0  0  0  0  0  0  0  0
    0.3509    3.8282    1.2199 H   0  0  0  0  0  0  0  0  0  0  0  0
  1  2  1  0  0  0  0
  2  3  1  0  0  0  0
  2  4  1  0  0  0  0
  2  5  1  0  0  0  0
  5  6  2  0  0  0  0
  5  7  1  0  0  0  0
  7  8  1  0  0  0  0
  7  9  1  0  0  0  0
  9 10  1  0  0  0  0
  9 11  1  0  0  0  0
  9 21  1  0  0  0  0
 11 12  1  0  0  0  0
 11 13  1  0  0  0  0
 11 14  1  0  0  0  0
 14 15  1  0  0  0  0
 14 16  1  0  0  0  0
 14 17  1  0  0  0  0
 17 18  2  0  0  0  0
 17 19  1  0  0  0  0
 19 20  1  0  0  0  0
 21 22  2  0  0  0  0
 21 23  1  0  0  0  0
 23 24  1  0  0  0  0
 23 25  1  0  0  0  0
 25 26  1  0  0  0  0
 25 27  1  0  0  0  0
 25 28  1  0  0  0  0
M  END
$$$$

  -OEChem-03222214033D

 28 27  0     1  0  0  0  0  0999 V2000
   -3.1467   -3.8018    1.2721 H   0  0  0  0  0  0  0  0  0  0  0  0
   -3.1500   -2.8105    0.8102 C   0  0  0  0  0  0  0  0  0  0  0  0
   -3.7992   -2.1529    1.3934 H   0  0  0  0  0  0  0  0  0  0  0  0
   -3.5460   -2.8961   -0.2046 H   0  0  0  0  0  0  0  0  0  0  0  0
   -1.7419   -2.2476    0.7706 C   0  0  0  0  0  0  0  0  0  0  0  0
   -0.8090   -2.8974    1.2161 O   0  0  0  0  0  0  0  0  0  0  0  0
   -1.5170   -0.9965    0.2359 N   0  0  0  0  0  0  0  0  0  0  0  0
   -2.3304   -0.4528   -0.0491 H   0  0  0  0  0  0  0  0  0  0  0  0
   -0.2208   -0.3040    0.2426 C   0  0  1  0  0  0  0  0  0  0  0  0
    0.4264   -0.7726    0.9907 H   0  0  0  0  0  0  0  0  0  0  0  0
    0.4262   -0.4282   -1.1535 C   0  0  0  0  0  0  0  0  0  0  0  0
   -0.0854   -1.2226   -1.7092 H   0  0  0  0  0  0  0  0  0  0  0  0
    0.2963    0.4970   -1.7268 H   0  0  0  0  0  0  0  0  0  0  0  0
    1.9218   -0.7960   -1.0630 C   0  0  0  0  0  0  0  0  0  0  0  0
    2.4957    0.0645   -0.7107 H   0  0  0  0  0  0  0  0  0  0  0  0
    2.0509   -1.6080   -0.3412 H   0  0  0  0  0  0  0  0  0  0  0  0
    2.5214   -1.2799   -2.3836 C   0  0  0  0  0  0  0  0  0  0  0  0
    1.9392   -1.0648   -3.4321 O   0  0  0  0  0  0  0  0  0  0  0  0
    3.7072   -1.9207   -2.3181 O   0  0  0  0  0  0  0  0  0  0  0  0
    3.9185   -2.1488   -3.2366 H   0  0  0  0  0  0  0  0  0  0  0  0
   -0.3774    1.1733    0.6568 C   0  0  0  0  0  0  0  0  0  0  0  0
   -1.3158    1.8313    0.2240 O   0  0  0  0  0  0  0  0  0  0  0  0
    0.4916    1.7464    1.5671 N   0  0  0  0  0  0  0  0  0  0  0  0
    1.2105    1.1532    1.9713 H   0  0  0  0  0  0  0  0  0  0  0  0
    0.3476    3.1126    2.0565 C   0  0  0  0  0  0  0  0  0  0  0  0
   -0.5961    3.2280    2.6002 H   0  0  0  0  0  0  0  0  0  0  0  0
    1.1701    3.3603    2.7345 H   0  0  0  0  0  0  0  0  0  0  0  0
    0.3627    3.8224    1.2224 H   0  0  0  0  0  0  0  0  0  0  0  0
  1  2  1  0  0  0  0
  2  3  1  0  0  0  0
  2  4  1  0  0  0  0
  2  5  1  0  0  0  0
  5  6  2  0  0  0  0
  5  7  1  0  0  0  0
  7  8  1  0  0  0  0
  7  9  1  0  0  0  0
  9 10  1  0  0  0  0
  9 11  1  0  0  0  0
  9 21  1  0  0  0  0
 11 12  1  0  0  0  0
 11 13  1  0  0  0  0
 11 14  1  0  0  0  0
 14 15  1  0  0  0  0
 14 16  1  0  0  0  0
 14 17  1  0  0  0  0
 17 18  2  0  0  0  0
 17 19  1  0  0  0  0
 19 20  1  0  0  0  0
 21 22  2  0  0  0  0
 21 23  1  0  0  0  0
 23 24  1  0  0  0  0
 23 25  1  0  0  0  0
 25 26  1  0  0  0  0
 25 27  1  0  0  0  0
 25 28  1  0  0  0  0
M  END
$$$$

  -OEChem-03222214033D

 28 27  0     1  0  0  0  0  0999 V2000
   -3.1800   -3.7697    1.2905 H   0  0  0  0  0  0  0  0  0  0  0  0
   -3.1706   -2.7850    0.8150 C   0  0  0  0  0  0  0  0  0  0  0  0
   -3.8079   -2.1096    1.3909 H   0  0  0  0  0  0  0  0  0  0  0  0
   -3.5717   -2.8785   -0.1970 H   0  0  0  0  0  0  0  0  0  0  0  0
   -1.7550   -2.2427    0.7619 C   0  0  0  0  0  0  0  0  0  0  0  0
   -0.8254   -2.9083    1.1907 O   0  0  0  0  0  0  0  0  0  0  0  0
   -1.5195   -0.9923    0.2311 N   0  0  0  0  0  0  0  0  0  0  0  0
   -2.3290   -0.4342   -0.0370 H   0  0  0  0  0  0  0  0  0  0  0  0
   -0.2163   -0.3138    0.2400 C   0  0  1  0  0  0  0  0  0  0  0  0
    0.4337   -0.7834    0.9858 H   0  0  0  0  0  0  0  0  0  0  0  0
    0.4250   -0.4355   -1.1593 C   0  0  0  0  0  0  0  0  0  0  0  0
   -0.2446   -0.9818   -1.8333 H   0  0  0  0  0  0  0  0  0  0  0  0
    0.5730    0.5592   -1.5955 H   0  0  0  0  0  0  0  0  0  0  0  0
    1.7774   -1.1713   -1.0880 C   0  0  0  0  0  0  0  0  0  0  0  0
    2.4546   -0.6295   -0.4232 H   0  0  0  0  0  0  0  0  0  0  0  0
    1.6218   -2.1703   -0.6697 H   0  0  0  0  0  0  0  0  0  0  0  0
    2.4742   -1.3301   -2.4393 C   0  0  0  0  0  0  0  0  0  0  0  0
    1.9204   -0.9659   -3.4618 O   0  0  0  0  0  0  0  0  0  0  0  0
    3.7107   -1.8707   -2.4247 O   0  0  0  0  0  0  0  0  0  0  0  0
    3.9844   -1.8931   -3.3546 H   0  0  0  0  0  0  0  0  0  0  0  0
   -0.3730    1.1620    0.6610 C   0  0  0  0  0  0  0  0  0  0  0  0
   -1.3106    1.8222    0.2291 O   0  0  0  0  0  0  0  0  0  0  0  0
    0.4938    1.7308    1.5761 N   0  0  0  0  0  0  0  0  0  0  0  0
    1.2166    1.1385    1.9747 H   0  0  0  0  0  0  0  0  0  0  0  0
    0.3566    3.0994    2.0598 C   0  0  0  0  0  0  0  0  0  0  0  0
   -0.6040    3.2319    2.5689 H   0  0  0  0  0  0  0  0  0  0  0  0
    1.1582    3.3334    2.7670 H   0  0  0  0  0  0  0  0  0  0  0  0
    0.4145    3.8079    1.2266 H   0  0  0  0  0  0  0  0  0  0  0  0
  1  2  1  0  0  0  0
  2  3  1  0  0  0  0
  2  4  1  0  0  0  0
  2  5  1  0  0  0  0
  5  6  2  0  0  0  0
  5  7  1  0  0  0  0
  7  8  1  0  0  0  0
  7  9  1  0  0  0  0
  9 10  1  0  0  0  0
  9 11  1  0  0  0  0
  9 21  1  0  0  0  0
 11 12  1  0  0  0  0
 11 13  1  0  0  0  0
 11 14  1  0  0  0  0
 14 15  1  0  0  0  0
 14 16  1  0  0  0  0
 14 17  1  0  0  0  0
 17 18  2  0  0  0  0
 17 19  1  0  0  0  0
 19 20  1  0  0  0  0
 21 22  2  0  0  0  0
 21 23  1  0  0  0  0
 23 24  1  0  0  0  0
 23 25  1  0  0  0  0
 25 26  1  0  0  0  0
 25 27  1  0  0  0  0
 25 28  1  0  0  0  0
M  END
$$$$

  -OEChem-03222214033D

 28 27  0     1  0  0  0  0  0999 V2000
   -3.1948   -3.7611    1.2775 H   0  0  0  0  0  0  0  0  0  0  0  0
   -3.1833   -2.7703    0.8150 C   0  0  0  0  0  0  0  0  0  0  0  0
   -3.8133   -2.0992    1.4037 H   0  0  0  0  0  0  0  0  0  0  0  0
   -3.5912   -2.8489   -0.1956 H   0  0  0  0  0  0  0  0  0  0  0  0
   -1.7649   -2.2354    0.7610 C   0  0  0  0  0  0  0  0  0  0  0  0
   -0.8392   -2.9061    1.1906 O   0  0  0  0  0  0  0  0  0  0  0  0
   -1.5213   -0.9872    0.2284 N   0  0  0  0  0  0  0  0  0  0  0  0
   -2.3272   -0.4225   -0.0377 H   0  0  0  0  0  0  0  0  0  0  0  0
   -0.2135   -0.3176    0.2384 C   0  0  1  0  0  0  0  0  0  0  0  0
    0.4307   -0.7912    0.9865 H   0  0  0  0  0  0  0  0  0  0  0  0
    0.4255   -0.4506   -1.1615 C   0  0  0  0  0  0  0  0  0  0  0  0
   -0.2461   -0.9805   -1.8465 H   0  0  0  0  0  0  0  0  0  0  0  0
    0.5847    0.5489   -1.5830 H   0  0  0  0  0  0  0  0  0  0  0  0
    1.7736   -1.1966   -1.0968 C   0  0  0  0  0  0  0  0  0  0  0  0
    2.3672   -0.8064   -0.2662 H   0  0  0  0  0  0  0  0  0  0  0  0
    1.5947   -2.2591   -0.9094 H   0  0  0  0  0  0  0  0  0  0  0  0
    2.6225   -1.0531   -2.3594 C   0  0  0  0  0  0  0  0  0  0  0  0
    2.1009   -0.7194   -3.4087 O   0  0  0  0  0  0  0  0  0  0  0  0
    3.9425   -1.3096   -2.2417 O   0  0  0  0  0  0  0  0  0  0  0  0
    4.3027   -1.1785   -3.1324 H   0  0  0  0  0  0  0  0  0  0  0  0
   -0.3632    1.1598    0.6574 C   0  0  0  0  0  0  0  0  0  0  0  0
   -1.3007    1.8219    0.2281 O   0  0  0  0  0  0  0  0  0  0  0  0
    0.5043    1.7259    1.5734 N   0  0  0  0  0  0  0  0  0  0  0  0
    1.2275    1.1327    1.9697 H   0  0  0  0  0  0  0  0  0  0  0  0
    0.3647    3.0920    2.0640 C   0  0  0  0  0  0  0  0  0  0  0  0
   -0.5909    3.2164    2.5842 H   0  0  0  0  0  0  0  0  0  0  0  0
    1.1730    3.3279    2.7627 H   0  0  0  0  0  0  0  0  0  0  0  0
    0.4087    3.8044    1.2333 H   0  0  0  0  0  0  0  0  0  0  0  0
  1  2  1  0  0  0  0
  2  3  1  0  0  0  0
  2  4  1  0  0  0  0
  2  5  1  0  0  0  0
  5  6  2  0  0  0  0
  5  7  1  0  0  0  0
  7  8  1  0  0  0  0
  7  9  1  0  0  0  0
  9 10  1  0  0  0  0
  9 11  1  0  0  0  0
  9 21  1  0  0  0  0
 11 12  1  0  0  0  0
 11 13  1  0  0  0  0
 11 14  1  0  0  0  0
 14 15  1  0  0  0  0
 14 16  1  0  0  0  0
 14 17  1  0  0  0  0
 17 18  2  0  0  0  0
 17 19  1  0  0  0  0
 19 20  1  0  0  0  0
 21 22  2  0  0  0  0
 21 23  1  0  0  0  0
 23 24  1  0  0  0  0
 23 25  1  0  0  0  0
 25 26  1  0  0  0  0
 25 27  1  0  0  0  0
 25 28  1  0  0  0  0
M  END
$$$$

  -OEChem-03222214033D

 28 27  0     1  0  0  0  0  0999 V2000
   -3.2187   -3.7606    1.2424 H   0  0  0  0  0  0  0  0  0  0  0  0
   -3.2002   -2.7598    0.8020 C   0  0  0  0  0  0  0  0  0  0  0  0
   -3.8303   -2.0987    1.4017 H   0  0  0  0  0  0  0  0  0  0  0  0
   -3.6028   -2.8142   -0.2123 H   0  0  0  0  0  0  0  0  0  0  0  0
   -1.7794   -2.2298    0.7666 C   0  0  0  0  0  0  0  0  0  0  0  0
   -0.8616   -2.9050    1.2057 O   0  0  0  0  0  0  0  0  0  0  0  0
   -1.5241   -0.9850    0.2313 N   0  0  0  0  0  0  0  0  0  0  0  0
   -2.3247   -0.4159   -0.0409 H   0  0  0  0  0  0  0  0  0  0  0  0
   -0.2111   -0.3253    0.2430 C   0  0  1  0  0  0  0  0  0  0  0  0
    0.4217   -0.8013    0.9985 H   0  0  0  0  0  0  0  0  0  0  0  0
    0.4293   -0.4748   -1.1558 C   0  0  0  0  0  0  0  0  0  0  0  0
   -0.2459   -0.9950   -1.8442 H   0  0  0  0  0  0  0  0  0  0  0  0
    0.5925    0.5250   -1.5754 H   0  0  0  0  0  0  0  0  0  0  0  0
    1.7746   -1.2308   -1.1033 C   0  0  0  0  0  0  0  0  0  0  0  0
    2.2740   -1.0398   -0.1501 H   0  0  0  0  0  0  0  0  0  0  0  0
    1.5982   -2.3078   -1.1720 H   0  0  0  0  0  0  0  0  0  0  0  0
    2.7455   -0.8033   -2.2013 C   0  0  0  0  0  0  0  0  0  0  0  0
    2.3187   -0.5852   -3.3211 O   0  0  0  0  0  0  0  0  0  0  0  0
    4.0495   -0.6858   -1.8717 O   0  0  0  0  0  0  0  0  0  0  0  0
    4.4912   -0.4218   -2.6937 H   0  0  0  0  0  0  0  0  0  0  0  0
   -0.3452    1.1553    0.6567 C   0  0  0  0  0  0  0  0  0  0  0  0
   -1.2768    1.8246    0.2261 O   0  0  0  0  0  0  0  0  0  0  0  0
    0.5268    1.7152    1.5723 N   0  0  0  0  0  0  0  0  0  0  0  0
    1.2483    1.1176    1.9653 H   0  0  0  0  0  0  0  0  0  0  0  0
    0.3992    3.0827    2.0625 C   0  0  0  0  0  0  0  0  0  0  0  0
   -0.5475    3.2108    2.5979 H   0  0  0  0  0  0  0  0  0  0  0  0
    1.2193    3.3174    2.7479 H   0  0  0  0  0  0  0  0  0  0  0  0
    0.4321    3.7938    1.2302 H   0  0  0  0  0  0  0  0  0  0  0  0
  1  2  1  0  0  0  0
  2  3  1  0  0  0  0
  2  4  1  0  0  0  0
  2  5  1  0  0  0  0
  5  6  2  0  0  0  0
  5  7  1  0  0  0  0
  7  8  1  0  0  0  0
  7  9  1  0  0  0  0
  9 10  1  0  0  0  0
  9 11  1  0  0  0  0
  9 21  1  0  0  0  0
 11 12  1  0  0  0  0
 11 13  1  0  0  0  0
 11 14  1  0  0  0  0
 14 15  1  0  0  0  0
 14 16  1  0  0  0  0
 14 17  1  0  0  0  0
 17 18  2  0  0  0  0
 17 19  1  0  0  0  0
 19 20  1  0  0  0  0
 21 22  2  0  0  0  0
 21 23  1  0  0  0  0
 23 24  1  0  0  0  0
 23 25  1  0  0  0  0
 25 26  1  0  0  0  0
 25 27  1  0  0  0  0
 25 28  1  0  0  0  0
M  END
$$$$

  -OEChem-03222214033D

 28 27  0     1  0  0  0  0  0999 V2000
   -3.3045   -3.7266    1.2026 H   0  0  0  0  0  0  0  0  0  0  0  0
   -3.2582   -2.7155    0.7886 C   0  0  0  0  0  0  0  0  0  0  0  0
   -3.8520   -2.0489    1.4187 H   0  0  0  0  0  0  0  0  0  0  0  0
   -3.6821   -2.7275   -0.2184 H   0  0  0  0  0  0  0  0  0  0  0  0
   -1.8197   -2.2369    0.7397 C   0  0  0  0  0  0  0  0  0  0  0  0
   -0.9221   -2.9470    1.1650 O   0  0  0  0  0  0  0  0  0  0  0  0
   -1.5268   -0.9956    0.2157 N   0  0  0  0  0  0  0  0  0  0  0  0
   -2.3112   -0.3948   -0.0351 H   0  0  0  0  0  0  0  0  0  0  0  0
   -0.1962   -0.3728    0.2445 C   0  0  1  0  0  0  0  0  0  0  0  0
    0.4130   -0.8701    1.0052 H   0  0  0  0  0  0  0  0  0  0  0  0
    0.4606   -0.5119   -1.1483 C   0  0  0  0  0  0  0  0  0  0  0  0
   -0.2222   -1.0106   -1.8446 H   0  0  0  0  0  0  0  0  0  0  0  0
    0.6393    0.4891   -1.5586 H   0  0  0  0  0  0  0  0  0  0  0  0
    1.7883   -1.3003   -1.1086 C   0  0  0  0  0  0  0  0  0  0  0  0
    2.1707   -1.3888   -0.0893 H   0  0  0  0  0  0  0  0  0  0  0  0
    1.6252   -2.3155   -1.4824 H   0  0  0  0  0  0  0  0  0  0  0  0
    2.8679   -0.6140   -1.9342 C   0  0  0  0  0  0  0  0  0  0  0  0
    3.1231   -1.0451   -3.0430 O   0  0  0  0  0  0  0  0  0  0  0  0
    3.4880    0.4563   -1.3913 O   0  0  0  0  0  0  0  0  0  0  0  0
    4.1231    0.7430   -2.0660 H   0  0  0  0  0  0  0  0  0  0  0  0
   -0.2937    1.1075    0.6684 C   0  0  0  0  0  0  0  0  0  0  0  0
   -1.2032    1.8041    0.2327 O   0  0  0  0  0  0  0  0  0  0  0  0
    0.5844    1.6368    1.5956 N   0  0  0  0  0  0  0  0  0  0  0  0
    1.3264    1.0354    1.9423 H   0  0  0  0  0  0  0  0  0  0  0  0
    0.5291    3.0217    2.0474 C   0  0  0  0  0  0  0  0  0  0  0  0
   -0.4111    3.2155    2.5742 H   0  0  0  0  0  0  0  0  0  0  0  0
    1.3581    3.2301    2.7305 H   0  0  0  0  0  0  0  0  0  0  0  0
    0.6034    3.7064    1.1959 H   0  0  0  0  0  0  0  0  0  0  0  0
  1  2  1  0  0  0  0
  2  3  1  0  0  0  0
  2  4  1  0  0  0  0
  2  5  1  0  0  0  0
  5  6  2  0  0  0  0
  5  7  1  0  0  0  0
  7  8  1  0  0  0  0
  7  9  1  0  0  0  0
  9 10  1  0  0  0  0
  9 11  1  0  0  0  0
  9 21  1  0  0  0  0
 11 12  1  0  0  0  0
 11 13  1  0  0  0  0
 11 14  1  0  0  0  0
 14 15  1  0  0  0  0
 14 16  1  0  0  0  0
 14 17  1  0  0  0  0
 17 18  2  0  0  0  0
 17 19  1  0  0  0  0
 19 20  1  0  0  0  0
 21 22  2  0  0  0  0
 21 23  1  0  0  0  0
 23 24  1  0  0  0  0
 23 25  1  0  0  0  0
 25 26  1  0  0  0  0
 25 27  1  0  0  0  0
 25 28  1  0  0  0  0
M  END
$$$$

  -OEChem-03222214033D

 28 27  0     1  0  0  0  0  0999 V2000
   -3.2329   -3.7781    1.2287 H   0  0  0  0  0  0  0  0  0  0  0  0
   -3.2057   -2.7830    0.7758 C   0  0  0  0  0  0  0  0  0  0  0  0
   -3.8407   -2.1127    1.3600 H   0  0  0  0  0  0  0  0  0  0  0  0
   -3.5969   -2.8490   -0.2422 H   0  0  0  0  0  0  0  0  0  0  0  0
   -1.7825   -2.2582    0.7516 C   0  0  0  0  0  0  0  0  0  0  0  0
   -0.8733   -2.9315    1.2108 O   0  0  0  0  0  0  0  0  0  0  0  0
   -1.5158   -1.0223    0.2014 N   0  0  0  0  0  0  0  0  0  0  0  0
   -2.3143   -0.4503   -0.0714 H   0  0  0  0  0  0  0  0  0  0  0  0
   -0.2153   -0.3422    0.2805 C   0  0  1  0  0  0  0  0  0  0  0  0
    0.3632   -0.7834    1.0976 H   0  0  0  0  0  0  0  0  0  0  0  0
    0.5417   -0.4900   -1.0582 C   0  0  0  0  0  0  0  0  0  0  0  0
   -0.0724   -1.0618   -1.7622 H   0  0  0  0  0  0  0  0  0  0  0  0
    0.6890    0.4965   -1.5139 H   0  0  0  0  0  0  0  0  0  0  0  0
    1.8987   -1.2148   -0.8991 C   0  0  0  0  0  0  0  0  0  0  0  0
    2.0788   -1.5408    0.1280 H   0  0  0  0  0  0  0  0  0  0  0  0
    1.8944   -2.1160   -1.5186 H   0  0  0  0  0  0  0  0  0  0  0  0
    3.0599   -0.3342   -1.3395 C   0  0  0  0  0  0  0  0  0  0  0  0
    3.3307    0.6328   -0.6485 O   0  0  0  0  0  0  0  0  0  0  0  0
    3.7213   -0.6495   -2.4732 O   0  0  0  0  0  0  0  0  0  0  0  0
    4.4017    0.0344   -2.5696 H   0  0  0  0  0  0  0  0  0  0  0  0
   -0.3913    1.1461    0.6479 C   0  0  0  0  0  0  0  0  0  0  0  0
   -1.3249    1.7795    0.1675 O   0  0  0  0  0  0  0  0  0  0  0  0
    0.4163    1.7377    1.6010 N   0  0  0  0  0  0  0  0  0  0  0  0
    1.2396    1.2189    1.8961 H   0  0  0  0  0  0  0  0  0  0  0  0
    0.3185    3.1478    1.9573 C   0  0  0  0  0  0  0  0  0  0  0  0
   -0.6861    3.3825    2.3249 H   0  0  0  0  0  0  0  0  0  0  0  0
    1.0380    3.3889    2.7457 H   0  0  0  0  0  0  0  0  0  0  0  0
    0.5321    3.7784    1.0878 H   0  0  0  0  0  0  0  0  0  0  0  0
  1  2  1  0  0  0  0
  2  3  1  0  0  0  0
  2  4  1  0  0  0  0
  2  5  1  0  0  0  0
  5  6  2  0  0  0  0
  5  7  1  0  0  0  0
  7  8  1  0  0  0  0
  7  9  1  0  0  0  0
  9 10  1  0  0  0  0
  9 11  1  0  0  0  0
  9 21  1  0  0  0  0
 11 12  1  0  0  0  0
 11 13  1  0  0  0  0
 11 14  1  0  0  0  0
 14 15  1  0  0  0  0
 14 16  1  0  0  0  0
 14 17  1  0  0  0  0
 17 18  2  0  0  0  0
 17 19  1  0  0  0  0
 19 20  1  0  0  0  0
 21 22  2  0  0  0  0
 21 23  1  0  0  0  0
 23 24  1  0  0  0  0
 23 25  1  0  0  0  0
 25 26  1  0  0  0  0
 25 27  1  0  0  0  0
 25 28  1  0  0  0  0
M  END
$$$$

  -OEChem-03222214033D

 28 27  0     1  0  0  0  0  0999 V2000
   -3.2582   -3.7561    1.2434 H   0  0  0  0  0  0  0  0  0  0  0  0
   -3.2300   -2.7613    0.7900 C   0  0  0  0  0  0  0  0  0  0  0  0
   -3.8437   -2.0839    1.3888 H   0  0  0  0  0  0  0  0  0  0  0  0
   -3.6450   -2.8227   -0.2189 H   0  0  0  0  0  0  0  0  0  0  0  0
   -1.8019   -2.2526    0.7328 C   0  0  0  0  0  0  0  0  0  0  0  0
   -0.8885   -2.9430    1.1573 O   0  0  0  0  0  0  0  0  0  0  0  0
   -1.5350   -1.0157    0.1849 N   0  0  0  0  0  0  0  0  0  0  0  0
   -2.3343   -0.4280   -0.0495 H   0  0  0  0  0  0  0  0  0  0  0  0
   -0.2279   -0.3471    0.2527 C   0  0  1  0  0  0  0  0  0  0  0  0
    0.3508   -0.7934    1.0674 H   0  0  0  0  0  0  0  0  0  0  0  0
    0.5331   -0.4931   -1.0815 C   0  0  0  0  0  0  0  0  0  0  0  0
   -0.0804   -1.0767   -1.7763 H   0  0  0  0  0  0  0  0  0  0  0  0
    0.6873    0.4851   -1.5525 H   0  0  0  0  0  0  0  0  0  0  0  0
    1.8796   -1.2259   -0.8950 C   0  0  0  0  0  0  0  0  0  0  0  0
    1.9180   -1.7998    0.0347 H   0  0  0  0  0  0  0  0  0  0  0  0
    2.0002   -1.9440   -1.7108 H   0  0  0  0  0  0  0  0  0  0  0  0
    3.0519   -0.2563   -0.9559 C   0  0  0  0  0  0  0  0  0  0  0  0
    3.1146    0.6062   -0.0949 O   0  0  0  0  0  0  0  0  0  0  0  0
    3.9528   -0.3827   -1.9533 O   0  0  0  0  0  0  0  0  0  0  0  0
    4.5985    0.3253   -1.8068 H   0  0  0  0  0  0  0  0  0  0  0  0
   -0.3798    1.1410    0.6294 C   0  0  0  0  0  0  0  0  0  0  0  0
   -1.3312    1.7789    0.1911 O   0  0  0  0  0  0  0  0  0  0  0  0
    0.4501    1.7131    1.5748 N   0  0  0  0  0  0  0  0  0  0  0  0
    1.3202    1.2201    1.7677 H   0  0  0  0  0  0  0  0  0  0  0  0
    0.3546    3.1161    1.9583 C   0  0  0  0  0  0  0  0  0  0  0  0
   -0.6385    3.3361    2.3642 H   0  0  0  0  0  0  0  0  0  0  0  0
    1.0985    3.3490    2.7264 H   0  0  0  0  0  0  0  0  0  0  0  0
    0.5336    3.7635    1.0934 H   0  0  0  0  0  0  0  0  0  0  0  0
  1  2  1  0  0  0  0
  2  3  1  0  0  0  0
  2  4  1  0  0  0  0
  2  5  1  0  0  0  0
  5  6  2  0  0  0  0
  5  7  1  0  0  0  0
  7  8  1  0  0  0  0
  7  9  1  0  0  0  0
  9 10  1  0  0  0  0
  9 11  1  0  0  0  0
  9 21  1  0  0  0  0
 11 12  1  0  0  0  0
 11 13  1  0  0  0  0
 11 14  1  0  0  0  0
 14 15  1  0  0  0  0
 14 16  1  0  0  0  0
 14 17  1  0  0  0  0
 17 18  2  0  0  0  0
 17 19  1  0  0  0  0
 19 20  1  0  0  0  0
 21 22  2  0  0  0  0
 21 23  1  0  0  0  0
 23 24  1  0  0  0  0
 23 25  1  0  0  0  0
 25 26  1  0  0  0  0
 25 27  1  0  0  0  0
 25 28  1  0  0  0  0
M  END
$$$$

  -OEChem-03222214033D

 28 27  0     1  0  0  0  0  0999 V2000
   -3.2650   -3.7346    1.2560 H   0  0  0  0  0  0  0  0  0  0  0  0
   -3.2341   -2.7426    0.7968 C   0  0  0  0  0  0  0  0  0  0  0  0
   -3.8348   -2.0570    1.3993 H   0  0  0  0  0  0  0  0  0  0  0  0
   -3.6615   -2.8050   -0.2067 H   0  0  0  0  0  0  0  0  0  0  0  0
   -1.8028   -2.2464    0.7197 C   0  0  0  0  0  0  0  0  0  0  0  0
   -0.8886   -2.9491    1.1218 O   0  0  0  0  0  0  0  0  0  0  0  0
   -1.5355   -1.0067    0.1789 N   0  0  0  0  0  0  0  0  0  0  0  0
   -2.3343   -0.4113   -0.0375 H   0  0  0  0  0  0  0  0  0  0  0  0
   -0.2249   -0.3443    0.2423 C   0  0  1  0  0  0  0  0  0  0  0  0
    0.3619   -0.7991    1.0476 H   0  0  0  0  0  0  0  0  0  0  0  0
    0.5254   -0.4931   -1.0984 C   0  0  0  0  0  0  0  0  0  0  0  0
   -0.0944   -1.0734   -1.7902 H   0  0  0  0  0  0  0  0  0  0  0  0
    0.6914    0.4836   -1.5678 H   0  0  0  0  0  0  0  0  0  0  0  0
    1.8649   -1.2344   -0.9113 C   0  0  0  0  0  0  0  0  0  0  0  0
    1.7951   -1.9974   -0.1303 H   0  0  0  0  0  0  0  0  0  0  0  0
    2.1062   -1.7544   -1.8425 H   0  0  0  0  0  0  0  0  0  0  0  0
    3.0136   -0.2790   -0.6079 C   0  0  0  0  0  0  0  0  0  0  0  0
    2.9193    0.4400    0.3743 O   0  0  0  0  0  0  0  0  0  0  0  0
    4.0762   -0.2656   -1.4408 O   0  0  0  0  0  0  0  0  0  0  0  0
    4.6827    0.3967   -1.0756 H   0  0  0  0  0  0  0  0  0  0  0  0
   -0.3774    1.1410    0.6320 C   0  0  0  0  0  0  0  0  0  0  0  0
   -1.3359    1.7797    0.2097 O   0  0  0  0  0  0  0  0  0  0  0  0
    0.4574    1.7046    1.5772 N   0  0  0  0  0  0  0  0  0  0  0  0
    1.3439    1.2210    1.7275 H   0  0  0  0  0  0  0  0  0  0  0  0
    0.3602    3.1016    1.9801 C   0  0  0  0  0  0  0  0  0  0  0  0
   -0.6322    3.3142    2.3915 H   0  0  0  0  0  0  0  0  0  0  0  0
    1.1055    3.3247    2.7497 H   0  0  0  0  0  0  0  0  0  0  0  0
    0.5358    3.7610    1.1238 H   0  0  0  0  0  0  0  0  0  0  0  0
  1  2  1  0  0  0  0
  2  3  1  0  0  0  0
  2  4  1  0  0  0  0
  2  5  1  0  0  0  0
  5  6  2  0  0  0  0
  5  7  1  0  0  0  0
  7  8  1  0  0  0  0
  7  9  1  0  0  0  0
  9 10  1  0  0  0  0
  9 11  1  0  0  0  0
  9 21  1  0  0  0  0
 11 12  1  0  0  0  0
 11 13  1  0  0  0  0
 11 14  1  0  0  0  0
 14 15  1  0  0  0  0
 14 16  1  0  0  0  0
 14 17  1  0  0  0  0
 17 18  2  0  0  0  0
 17 19  1  0  0  0  0
 19 20  1  0  0  0  0
 21 22  2  0  0  0  0
 21 23  1  0  0  0  0
 23 24  1  0  0  0  0
 23 25  1  0  0  0  0
 25 26  1  0  0  0  0
 25 27  1  0  0  0  0
 25 28  1  0  0  0  0
M  END
$$$$

  -OEChem-03222214033D

 28 27  0     1  0  0  0  0  0999 V2000
   -3.2593   -3.7308    1.2458 H   0  0  0  0  0  0  0  0  0  0  0  0
   -3.2279   -2.7305    0.8052 C   0  0  0  0  0  0  0  0  0  0  0  0
   -3.8177   -2.0530    1.4274 H   0  0  0  0  0  0  0  0  0  0  0  0
   -3.6670   -2.7718   -0.1944 H   0  0  0  0  0  0  0  0  0  0  0  0
   -1.7947   -2.2411    0.7210 C   0  0  0  0  0  0  0  0  0  0  0  0
   -0.8807   -2.9516    1.1092 O   0  0  0  0  0  0  0  0  0  0  0  0
   -1.5266   -0.9986    0.1876 N   0  0  0  0  0  0  0  0  0  0  0  0
   -2.3253   -0.4008   -0.0217 H   0  0  0  0  0  0  0  0  0  0  0  0
   -0.2174   -0.3343    0.2582 C   0  0  1  0  0  0  0  0  0  0  0  0
    0.3759   -0.7976    1.0538 H   0  0  0  0  0  0  0  0  0  0  0  0
    0.5171   -0.4812   -1.0931 C   0  0  0  0  0  0  0  0  0  0  0  0
   -0.1158   -1.0425   -1.7887 H   0  0  0  0  0  0  0  0  0  0  0  0
    0.6877    0.5031   -1.5437 H   0  0  0  0  0  0  0  0  0  0  0  0
    1.8624   -1.2246   -0.9549 C   0  0  0  0  0  0  0  0  0  0  0  0
    1.7251   -2.1370   -0.3668 H   0  0  0  0  0  0  0  0  0  0  0  0
    2.1895   -1.5290   -1.9528 H   0  0  0  0  0  0  0  0  0  0  0  0
    2.9875   -0.3979   -0.3311 C   0  0  0  0  0  0  0  0  0  0  0  0
    2.7675    0.2558    0.6757 O   0  0  0  0  0  0  0  0  0  0  0  0
    4.1927   -0.4338   -0.9388 O   0  0  0  0  0  0  0  0  0  0  0  0
    4.7690    0.1329   -0.4037 H   0  0  0  0  0  0  0  0  0  0  0  0
   -0.3942    1.1474    0.6557 C   0  0  0  0  0  0  0  0  0  0  0  0
   -1.3509    1.7787    0.2177 O   0  0  0  0  0  0  0  0  0  0  0  0
    0.4224    1.7226    1.6090 N   0  0  0  0  0  0  0  0  0  0  0  0
    1.3023    1.2343    1.7875 H   0  0  0  0  0  0  0  0  0  0  0  0
    0.3107    3.1194    2.0082 C   0  0  0  0  0  0  0  0  0  0  0  0
   -0.6904    3.3271    2.4009 H   0  0  0  0  0  0  0  0  0  0  0  0
    1.0405    3.3474    2.7909 H   0  0  0  0  0  0  0  0  0  0  0  0
    0.4982    3.7784    1.1540 H   0  0  0  0  0  0  0  0  0  0  0  0
  1  2  1  0  0  0  0
  2  3  1  0  0  0  0
  2  4  1  0  0  0  0
  2  5  1  0  0  0  0
  5  6  2  0  0  0  0
  5  7  1  0  0  0  0
  7  8  1  0  0  0  0
  7  9  1  0  0  0  0
  9 10  1  0  0  0  0
  9 11  1  0  0  0  0
  9 21  1  0  0  0  0
 11 12  1  0  0  0  0
 11 13  1  0  0  0  0
 11 14  1  0  0  0  0
 14 15  1  0  0  0  0
 14 16  1  0  0  0  0
 14 17  1  0  0  0  0
 17 18  2  0  0  0  0
 17 19  1  0  0  0  0
 19 20  1  0  0  0  0
 21 22  2  0  0  0  0
 21 23  1  0  0  0  0
 23 24  1  0  0  0  0
 23 25  1  0  0  0  0
 25 26  1  0  0  0  0
 25 27  1  0  0  0  0
 25 28  1  0  0  0  0
M  END
$$$$

  -OEChem-03222214033D

 28 27  0     1  0  0  0  0  0999 V2000
   -3.2009   -3.7304    1.3180 H   0  0  0  0  0  0  0  0  0  0  0  0
   -3.1828   -2.7537    0.8264 C   0  0  0  0  0  0  0  0  0  0  0  0
   -3.7893   -2.0556    1.4084 H   0  0  0  0  0  0  0  0  0  0  0  0
   -3.6125   -2.8535   -0.1732 H   0  0  0  0  0  0  0  0  0  0  0  0
   -1.7577   -2.2440    0.7280 C   0  0  0  0  0  0  0  0  0  0  0  0
   -0.8285   -2.9445    1.0983 O   0  0  0  0  0  0  0  0  0  0  0  0
   -1.5137   -0.9919    0.2061 N   0  0  0  0  0  0  0  0  0  0  0  0
   -2.3230   -0.4001    0.0202 H   0  0  0  0  0  0  0  0  0  0  0  0
   -0.2121   -0.3118    0.2681 C   0  0  1  0  0  0  0  0  0  0  0  0
    0.4043   -0.7764    1.0448 H   0  0  0  0  0  0  0  0  0  0  0  0
    0.4937   -0.4219   -1.1030 C   0  0  0  0  0  0  0  0  0  0  0  0
   -0.1528   -0.9553   -1.8077 H   0  0  0  0  0  0  0  0  0  0  0  0
    0.6510    0.5810   -1.5158 H   0  0  0  0  0  0  0  0  0  0  0  0
    1.8565   -1.1515   -1.0411 C   0  0  0  0  0  0  0  0  0  0  0  0
    1.6832   -2.1754   -0.6963 H   0  0  0  0  0  0  0  0  0  0  0  0
    2.2609   -1.2130   -2.0549 H   0  0  0  0  0  0  0  0  0  0  0  0
    2.9443   -0.5462   -0.1497 C   0  0  0  0  0  0  0  0  0  0  0  0
    2.7090    0.4280    0.5457 O   0  0  0  0  0  0  0  0  0  0  0  0
    4.1527   -1.1458   -0.1884 O   0  0  0  0  0  0  0  0  0  0  0  0
    4.7104   -0.6456    0.4265 H   0  0  0  0  0  0  0  0  0  0  0  0
   -0.4261    1.1609    0.6880 C   0  0  0  0  0  0  0  0  0  0  0  0
   -1.4112    1.7663    0.2759 O   0  0  0  0  0  0  0  0  0  0  0  0
    0.3810    1.7491    1.6413 N   0  0  0  0  0  0  0  0  0  0  0  0
    1.2911    1.3039    1.7709 H   0  0  0  0  0  0  0  0  0  0  0  0
    0.2340    3.1413    2.0454 C   0  0  0  0  0  0  0  0  0  0  0  0
   -0.7694    3.3206    2.4456 H   0  0  0  0  0  0  0  0  0  0  0  0
    0.9630    3.3868    2.8235 H   0  0  0  0  0  0  0  0  0  0  0  0
    0.3978    3.8074    1.1919 H   0  0  0  0  0  0  0  0  0  0  0  0
  1  2  1  0  0  0  0
  2  3  1  0  0  0  0
  2  4  1  0  0  0  0
  2  5  1  0  0  0  0
  5  6  2  0  0  0  0
  5  7  1  0  0  0  0
  7  8  1  0  0  0  0
  7  9  1  0  0  0  0
  9 10  1  0  0  0  0
  9 11  1  0  0  0  0
  9 21  1  0  0  0  0
 11 12  1  0  0  0  0
 11 13  1  0  0  0  0
 11 14  1  0  0  0  0
 14 15  1  0  0  0  0
 14 16  1  0  0  0  0
 14 17  1  0  0  0  0
 17 18  2  0  0  0  0
 17 19  1  0  0  0  0
 19 20  1  0  0  0  0
 21 22  2  0  0  0  0
 21 23  1  0  0  0  0
 23 24  1  0  0  0  0
 23 25  1  0  0  0  0
 25 26  1  0  0  0  0
 25 27  1  0  0  0  0
 25 28  1  0  0  0  0
M  END
$$$$

  -OEChem-03222214033D

 28 27  0     1  0  0  0  0  0999 V2000
   -3.1724   -3.7592    1.3127 H   0  0  0  0  0  0  0  0  0  0  0  0
   -3.1655   -2.7804    0.8249 C   0  0  0  0  0  0  0  0  0  0  0  0
   -3.7851   -2.0933    1.4062 H   0  0  0  0  0  0  0  0  0  0  0  0
   -3.5882   -2.8827   -0.1774 H   0  0  0  0  0  0  0  0  0  0  0  0
   -1.7469   -2.2508    0.7361 C   0  0  0  0  0  0  0  0  0  0  0  0
   -0.8111   -2.9403    1.1097 O   0  0  0  0  0  0  0  0  0  0  0  0
   -1.5156   -0.9958    0.2149 N   0  0  0  0  0  0  0  0  0  0  0  0
   -2.3313   -0.4147    0.0238 H   0  0  0  0  0  0  0  0  0  0  0  0
   -0.2211   -0.3019    0.2738 C   0  0  1  0  0  0  0  0  0  0  0  0
    0.3890   -0.7654    1.0548 H   0  0  0  0  0  0  0  0  0  0  0  0
    0.4881   -0.4116   -1.0972 C   0  0  0  0  0  0  0  0  0  0  0  0
   -0.1569   -0.9377   -1.8091 H   0  0  0  0  0  0  0  0  0  0  0  0
    0.6386    0.5975   -1.4970 H   0  0  0  0  0  0  0  0  0  0  0  0
    1.8642   -1.1218   -1.0623 C   0  0  0  0  0  0  0  0  0  0  0  0
    1.6773   -2.1947   -0.9553 H   0  0  0  0  0  0  0  0  0  0  0  0
    2.3662   -0.9717   -2.0214 H   0  0  0  0  0  0  0  0  0  0  0  0
    2.8436   -0.7356    0.0499 C   0  0  0  0  0  0  0  0  0  0  0  0
    2.7114    0.3206    0.6472 O   0  0  0  0  0  0  0  0  0  0  0  0
    3.8477   -1.6018    0.3007 O   0  0  0  0  0  0  0  0  0  0  0  0
    4.3620   -1.2046    1.0195 H   0  0  0  0  0  0  0  0  0  0  0  0
   -0.4329    1.1701    0.6940 C   0  0  0  0  0  0  0  0  0  0  0  0
   -1.4193    1.7762    0.2867 O   0  0  0  0  0  0  0  0  0  0  0  0
    0.3814    1.7556    1.6428 N   0  0  0  0  0  0  0  0  0  0  0  0
    1.2880    1.3037    1.7756 H   0  0  0  0  0  0  0  0  0  0  0  0
    0.2398    3.1469    2.0519 C   0  0  0  0  0  0  0  0  0  0  0  0
   -0.7652    3.3313    2.4462 H   0  0  0  0  0  0  0  0  0  0  0  0
    0.9650    3.3848    2.8360 H   0  0  0  0  0  0  0  0  0  0  0  0
    0.4133    3.8157    1.2024 H   0  0  0  0  0  0  0  0  0  0  0  0
  1  2  1  0  0  0  0
  2  3  1  0  0  0  0
  2  4  1  0  0  0  0
  2  5  1  0  0  0  0
  5  6  2  0  0  0  0
  5  7  1  0  0  0  0
  7  8  1  0  0  0  0
  7  9  1  0  0  0  0
  9 10  1  0  0  0  0
  9 11  1  0  0  0  0
  9 21  1  0  0  0  0
 11 12  1  0  0  0  0
 11 13  1  0  0  0  0
 11 14  1  0  0  0  0
 14 15  1  0  0  0  0
 14 16  1  0  0  0  0
 14 17  1  0  0  0  0
 17 18  2  0  0  0  0
 17 19  1  0  0  0  0
 19 20  1  0  0  0  0
 21 22  2  0  0  0  0
 21 23  1  0  0  0  0
 23 24  1  0  0  0  0
 23 25  1  0  0  0  0
 25 26  1  0  0  0  0
 25 27  1  0  0  0  0
 25 28  1  0  0  0  0
M  END
$$$$

  -OEChem-03222214033D

 28 27  0     1  0  0  0  0  0999 V2000
   -3.1579   -3.7987    1.2899 H   0  0  0  0  0  0  0  0  0  0  0  0
   -3.1597   -2.8177    0.8064 C   0  0  0  0  0  0  0  0  0  0  0  0
   -3.8014   -2.1441    1.3794 H   0  0  0  0  0  0  0  0  0  0  0  0
   -3.5630   -2.9228   -0.2035 H   0  0  0  0  0  0  0  0  0  0  0  0
   -1.7496   -2.2628    0.7436 C   0  0  0  0  0  0  0  0  0  0  0  0
   -0.8095   -2.9363    1.1351 O   0  0  0  0  0  0  0  0  0  0  0  0
   -1.5313   -1.0050    0.2221 N   0  0  0  0  0  0  0  0  0  0  0  0
   -2.3534   -0.4403    0.0117 H   0  0  0  0  0  0  0  0  0  0  0  0
   -0.2468   -0.2926    0.2819 C   0  0  1  0  0  0  0  0  0  0  0  0
    0.3428   -0.7519    1.0785 H   0  0  0  0  0  0  0  0  0  0  0  0
    0.4821   -0.4159   -1.0800 C   0  0  0  0  0  0  0  0  0  0  0  0
   -0.1533   -0.9511   -1.7936 H   0  0  0  0  0  0  0  0  0  0  0  0
    0.6182    0.5930   -1.4853 H   0  0  0  0  0  0  0  0  0  0  0  0
    1.8751   -1.0988   -1.0557 C   0  0  0  0  0  0  0  0  0  0  0  0
    1.7108   -2.1710   -1.1982 H   0  0  0  0  0  0  0  0  0  0  0  0
    2.4659   -0.7461   -1.9047 H   0  0  0  0  0  0  0  0  0  0  0  0
    2.7222   -0.9599    0.2124 C   0  0  0  0  0  0  0  0  0  0  0  0
    2.7071    0.0928    0.8322 O   0  0  0  0  0  0  0  0  0  0  0  0
    3.4813   -2.0167    0.5710 O   0  0  0  0  0  0  0  0  0  0  0  0
    3.9307   -1.7512    1.3874 H   0  0  0  0  0  0  0  0  0  0  0  0
   -0.4406    1.1811    0.6967 C   0  0  0  0  0  0  0  0  0  0  0  0
   -1.4131    1.8029    0.2818 O   0  0  0  0  0  0  0  0  0  0  0  0
    0.3894    1.7542    1.6396 N   0  0  0  0  0  0  0  0  0  0  0  0
    1.2727    1.2674    1.8041 H   0  0  0  0  0  0  0  0  0  0  0  0
    0.2792    3.1484    2.0480 C   0  0  0  0  0  0  0  0  0  0  0  0
   -0.7182    3.3526    2.4512 H   0  0  0  0  0  0  0  0  0  0  0  0
    1.0159    3.3728    2.8253 H   0  0  0  0  0  0  0  0  0  0  0  0
    0.4582    3.8126    1.1961 H   0  0  0  0  0  0  0  0  0  0  0  0
  1  2  1  0  0  0  0
  2  3  1  0  0  0  0
  2  4  1  0  0  0  0
  2  5  1  0  0  0  0
  5  6  2  0  0  0  0
  5  7  1  0  0  0  0
  7  8  1  0  0  0  0
  7  9  1  0  0  0  0
  9 10  1  0  0  0  0
  9 11  1  0  0  0  0
  9 21  1  0  0  0  0
 11 12  1  0  0  0  0
 11 13  1  0  0  0  0
 11 14  1  0  0  0  0
 14 15  1  0  0  0  0
 14 16  1  0  0  0  0
 14 17  1  0  0  0  0
 17 18  2  0  0  0  0
 17 19  1  0  0  0  0
 19 20  1  0  0  0  0
 21 22  2  0  0  0  0
 21 23  1  0  0  0  0
 23 24  1  0  0  0  0
 23 25  1  0  0  0  0
 25 26  1  0  0  0  0
 25 27  1  0  0  0  0
 25 28  1  0  0  0  0
M  END
$$$$

  -OEChem-03222214033D

 28 27  0     1  0  0  0  0  0999 V2000
   -3.1523   -3.8297    1.2654 H   0  0  0  0  0  0  0  0  0  0  0  0
   -3.1613   -2.8479    0.7839 C   0  0  0  0  0  0  0  0  0  0  0  0
   -3.8227   -2.1855    1.3474 H   0  0  0  0  0  0  0  0  0  0  0  0
   -3.5458   -2.9574   -0.2329 H   0  0  0  0  0  0  0  0  0  0  0  0
   -1.7588   -2.2714    0.7468 C   0  0  0  0  0  0  0  0  0  0  0  0
   -0.8182   -2.9268    1.1665 O   0  0  0  0  0  0  0  0  0  0  0  0
   -1.5496   -1.0128    0.2226 N   0  0  0  0  0  0  0  0  0  0  0  0
   -2.3757   -0.4660   -0.0160 H   0  0  0  0  0  0  0  0  0  0  0  0
   -0.2741   -0.2840    0.2845 C   0  0  1  0  0  0  0  0  0  0  0  0
    0.2908   -0.7341    1.1009 H   0  0  0  0  0  0  0  0  0  0  0  0
    0.4822   -0.4229   -1.0632 C   0  0  0  0  0  0  0  0  0  0  0  0
   -0.1386   -0.9848   -1.7692 H   0  0  0  0  0  0  0  0  0  0  0  0
    0.5975    0.5789   -1.4919 H   0  0  0  0  0  0  0  0  0  0  0  0
    1.8906   -1.0804   -1.0340 C   0  0  0  0  0  0  0  0  0  0  0  0
    1.7876   -2.0925   -1.4362 H   0  0  0  0  0  0  0  0  0  0  0  0
    2.5568   -0.5341   -1.7067 H   0  0  0  0  0  0  0  0  0  0  0  0
    2.5922   -1.2218    0.3177 C   0  0  0  0  0  0  0  0  0  0  0  0
    2.6993   -0.2320    1.0276 O   0  0  0  0  0  0  0  0  0  0  0  0
    3.0875   -2.4323    0.6511 O   0  0  0  0  0  0  0  0  0  0  0  0
    3.4556   -2.3296    1.5413 H   0  0  0  0  0  0  0  0  0  0  0  0
   -0.4464    1.1917    0.6896 C   0  0  0  0  0  0  0  0  0  0  0  0
   -1.3988    1.8340    0.2613 O   0  0  0  0  0  0  0  0  0  0  0  0
    0.4005    1.7488    1.6276 N   0  0  0  0  0  0  0  0  0  0  0  0
    1.2472    1.2188    1.8428 H   0  0  0  0  0  0  0  0  0  0  0  0
    0.3209    3.1427    2.0433 C   0  0  0  0  0  0  0  0  0  0  0  0
   -0.6677    3.3626    2.4600 H   0  0  0  0  0  0  0  0  0  0  0  0
    1.0719    3.3506    2.8117 H   0  0  0  0  0  0  0  0  0  0  0  0
    0.5008    3.8074    1.1919 H   0  0  0  0  0  0  0  0  0  0  0  0
  1  2  1  0  0  0  0
  2  3  1  0  0  0  0
  2  4  1  0  0  0  0
  2  5  1  0  0  0  0
  5  6  2  0  0  0  0
  5  7  1  0  0  0  0
  7  8  1  0  0  0  0
  7  9  1  0  0  0  0
  9 10  1  0  0  0  0
  9 11  1  0  0  0  0
  9 21  1  0  0  0  0
 11 12  1  0  0  0  0
 11 13  1  0  0  0  0
 11 14  1  0  0  0  0
 14 15  1  0  0  0  0
 14 16  1  0  0  0  0
 14 17  1  0  0  0  0
 17 18  2  0  0  0  0
 17 19  1  0  0  0  0
 19 20  1  0  0  0  0
 21 22  2  0  0  0  0
 21 23  1  0  0  0  0
 23 24  1  0  0  0  0
 23 25  1  0  0  0  0
 25 26  1  0  0  0  0
 25 27  1  0  0  0  0
 25 28  1  0  0  0  0
M  END
$$$$

  -OEChem-03222214033D

 28 27  0     1  0  0  0  0  0999 V2000
   -3.2404   -4.0267    0.7301 H   0  0  0  0  0  0  0  0  0  0  0  0
   -3.2642   -2.9331    0.7386 C   0  0  0  0  0  0  0  0  0  0  0  0
   -3.4989   -2.5938    1.7505 H   0  0  0  0  0  0  0  0  0  0  0  0
   -4.0478   -2.5936    0.0570 H   0  0  0  0  0  0  0  0  0  0  0  0
   -1.9211   -2.3760    0.3044 C   0  0  0  0  0  0  0  0  0  0  0  0
   -0.9980   -3.1515    0.1212 O   0  0  0  0  0  0  0  0  0  0  0  0
   -1.7798   -1.0031    0.2074 N   0  0  0  0  0  0  0  0  0  0  0  0
   -2.5762   -0.4656    0.5477 H   0  0  0  0  0  0  0  0  0  0  0  0
   -0.6106   -0.1851   -0.1846 C   0  0  1  0  0  0  0  0  0  0  0  0
   -1.0979    0.4045   -0.9691 H   0  0  0  0  0  0  0  0  0  0  0  0
    0.4438   -0.8764   -1.1302 C   0  0  0  0  0  0  0  0  0  0  0  0
    0.0318   -1.8031   -1.5325 H   0  0  0  0  0  0  0  0  0  0  0  0
    0.4966   -0.2167   -2.0039 H   0  0  0  0  0  0  0  0  0  0  0  0
    1.9399   -1.1294   -0.7941 C   0  0  0  0  0  0  0  0  0  0  0  0
    2.1034   -2.2094   -0.8549 H   0  0  0  0  0  0  0  0  0  0  0  0
    2.5556   -0.6752   -1.5766 H   0  0  0  0  0  0  0  0  0  0  0  0
    2.5034   -0.7035    0.5474 C   0  0  0  0  0  0  0  0  0  0  0  0
    3.2529    0.2573    0.5739 O   0  0  0  0  0  0  0  0  0  0  0  0
    2.1436   -1.3965    1.6473 O   0  0  0  0  0  0  0  0  0  0  0  0
    2.6079   -0.9863    2.3919 H   0  0  0  0  0  0  0  0  0  0  0  0
   -0.4018    1.0200    0.7830 C   0  0  0  0  0  0  0  0  0  0  0  0
   -1.4295    1.5718    1.1658 O   0  0  0  0  0  0  0  0  0  0  0  0
    0.7748    1.4741    1.3476 N   0  0  0  0  0  0  0  0  0  0  0  0
    1.6497    1.1484    0.9432 H   0  0  0  0  0  0  0  0  0  0  0  0
    0.8419    2.5988    2.2747 C   0  0  0  0  0  0  0  0  0  0  0  0
    0.2459    2.3944    3.1703 H   0  0  0  0  0  0  0  0  0  0  0  0
    1.8778    2.7697    2.5832 H   0  0  0  0  0  0  0  0  0  0  0  0
    0.4664    3.5117    1.8008 H   0  0  0  0  0  0  0  0  0  0  0  0
  1  2  1  0  0  0  0
  2  3  1  0  0  0  0
  2  4  1  0  0  0  0
  2  5  1  0  0  0  0
  5  6  2  0  0  0  0
  5  7  1  0  0  0  0
  7  8  1  0  0  0  0
  7  9  1  0  0  0  0
  9 10  1  0  0  0  0
  9 11  1  0  0  0  0
  9 21  1  0  0  0  0
 11 12  1  0  0  0  0
 11 13  1  0  0  0  0
 11 14  1  0  0  0  0
 14 15  1  0  0  0  0
 14 16  1  0  0  0  0
 14 17  1  0  0  0  0
 17 18  2  0  0  0  0
 17 19  1  0  0  0  0
 19 20  1  0  0  0  0
 21 22  2  0  0  0  0
 21 23  1  0  0  0  0
 23 24  1  0  0  0  0
 23 25  1  0  0  0  0
 25 26  1  0  0  0  0
 25 27  1  0  0  0  0
 25 28  1  0  0  0  0
M  END
$$$$

  -OEChem-03222214033D

 28 27  0     1  0  0  0  0  0999 V2000
   -3.2222   -4.0507    0.7944 H   0  0  0  0  0  0  0  0  0  0  0  0
   -3.2551   -2.9575    0.7762 C   0  0  0  0  0  0  0  0  0  0  0  0
   -3.4541   -2.5949    1.7877 H   0  0  0  0  0  0  0  0  0  0  0  0
   -4.0664   -2.6412    0.1163 H   0  0  0  0  0  0  0  0  0  0  0  0
   -1.9345   -2.4008    0.2774 C   0  0  0  0  0  0  0  0  0  0  0  0
   -1.0352   -3.1811    0.0173 O   0  0  0  0  0  0  0  0  0  0  0  0
   -1.7937   -1.0267    0.1968 N   0  0  0  0  0  0  0  0  0  0  0  0
   -2.5740   -0.4971    0.5830 H   0  0  0  0  0  0  0  0  0  0  0  0
   -0.6415   -0.1969   -0.2199 C   0  0  1  0  0  0  0  0  0  0  0  0
   -1.1574    0.3946   -0.9842 H   0  0  0  0  0  0  0  0  0  0  0  0
    0.4098   -0.8456   -1.1933 C   0  0  0  0  0  0  0  0  0  0  0  0
    0.0286   -1.7979   -1.5617 H   0  0  0  0  0  0  0  0  0  0  0  0
    0.4231   -0.2066   -2.0836 H   0  0  0  0  0  0  0  0  0  0  0  0
    1.9089   -1.0460   -0.8460 C   0  0  0  0  0  0  0  0  0  0  0  0
    2.2042   -2.0417   -1.1884 H   0  0  0  0  0  0  0  0  0  0  0  0
    2.4939   -0.3233   -1.4232 H   0  0  0  0  0  0  0  0  0  0  0  0
    2.3427   -0.9326    0.6074 C   0  0  0  0  0  0  0  0  0  0  0  0
    3.2041   -0.1141    0.8791 O   0  0  0  0  0  0  0  0  0  0  0  0
    1.7556   -1.7246    1.5265 O   0  0  0  0  0  0  0  0  0  0  0  0
    2.1759   -1.5152    2.3735 H   0  0  0  0  0  0  0  0  0  0  0  0
   -0.3941    0.9961    0.7515 C   0  0  0  0  0  0  0  0  0  0  0  0
   -1.4019    1.5609    1.1656 O   0  0  0  0  0  0  0  0  0  0  0  0
    0.8090    1.4364    1.2709 N   0  0  0  0  0  0  0  0  0  0  0  0
    1.6697    1.0192    0.9239 H   0  0  0  0  0  0  0  0  0  0  0  0
    0.9260    2.5343    2.2238 C   0  0  0  0  0  0  0  0  0  0  0  0
    0.3823    2.3024    3.1456 H   0  0  0  0  0  0  0  0  0  0  0  0
    1.9778    2.7012    2.4763 H   0  0  0  0  0  0  0  0  0  0  0  0
    0.5217    3.4584    1.7975 H   0  0  0  0  0  0  0  0  0  0  0  0
  1  2  1  0  0  0  0
  2  3  1  0  0  0  0
  2  4  1  0  0  0  0
  2  5  1  0  0  0  0
  5  6  2  0  0  0  0
  5  7  1  0  0  0  0
  7  8  1  0  0  0  0
  7  9  1  0  0  0  0
  9 10  1  0  0  0  0
  9 11  1  0  0  0  0
  9 21  1  0  0  0  0
 11 12  1  0  0  0  0
 11 13  1  0  0  0  0
 11 14  1  0  0  0  0
 14 15  1  0  0  0  0
 14 16  1  0  0  0  0
 14 17  1  0  0  0  0
 17 18  2  0  0  0  0
 17 19  1  0  0  0  0
 19 20  1  0  0  0  0
 21 22  2  0  0  0  0
 21 23  1  0  0  0  0
 23 24  1  0  0  0  0
 23 25  1  0  0  0  0
 25 26  1  0  0  0  0
 25 27  1  0  0  0  0
 25 28  1  0  0  0  0
M  END
$$$$

  -OEChem-03222214033D

 28 27  0     1  0  0  0  0  0999 V2000
   -3.1196   -3.8261    1.2173 H   0  0  0  0  0  0  0  0  0  0  0  0
   -3.0912   -2.8482    0.7285 C   0  0  0  0  0  0  0  0  0  0  0  0
   -3.8012   -2.1843    1.2276 H   0  0  0  0  0  0  0  0  0  0  0  0
   -3.3872   -2.9685   -0.3165 H   0  0  0  0  0  0  0  0  0  0  0  0
   -1.6932   -2.2646    0.8064 C   0  0  0  0  0  0  0  0  0  0  0  0
   -0.8093   -2.8778    1.3842 O   0  0  0  0  0  0  0  0  0  0  0  0
   -1.4388   -1.0309    0.2433 N   0  0  0  0  0  0  0  0  0  0  0  0
   -2.2349   -0.5107   -0.1226 H   0  0  0  0  0  0  0  0  0  0  0  0
   -0.1569   -0.3144    0.3234 C   0  0  1  0  0  0  0  0  0  0  0  0
    0.4282   -0.7178    1.1520 H   0  0  0  0  0  0  0  0  0  0  0  0
    0.5945   -0.4420   -1.0335 C   0  0  0  0  0  0  0  0  0  0  0  0
   -0.0313   -1.0330   -1.7111 H   0  0  0  0  0  0  0  0  0  0  0  0
    0.7007    0.5446   -1.4982 H   0  0  0  0  0  0  0  0  0  0  0  0
    1.9863   -1.1204   -1.0001 C   0  0  0  0  0  0  0  0  0  0  0  0
    2.1898   -1.5789   -1.9716 H   0  0  0  0  0  0  0  0  0  0  0  0
    2.7460   -0.3505   -0.8381 H   0  0  0  0  0  0  0  0  0  0  0  0
    2.1680   -2.1766    0.0829 C   0  0  0  0  0  0  0  0  0  0  0  0
    2.6854   -1.8433    1.1362 O   0  0  0  0  0  0  0  0  0  0  0  0
    1.7169   -3.4218   -0.1735 O   0  0  0  0  0  0  0  0  0  0  0  0
    1.7314   -3.8785    0.6827 H   0  0  0  0  0  0  0  0  0  0  0  0
   -0.3848    1.1712    0.6658 C   0  0  0  0  0  0  0  0  0  0  0  0
   -1.2913    1.7910    0.1210 O   0  0  0  0  0  0  0  0  0  0  0  0
    0.3952    1.7964    1.6202 N   0  0  0  0  0  0  0  0  0  0  0  0
    1.1069    1.2371    2.0849 H   0  0  0  0  0  0  0  0  0  0  0  0
    0.1921    3.1768    2.0422 C   0  0  0  0  0  0  0  0  0  0  0  0
   -0.8142    3.3077    2.4542 H   0  0  0  0  0  0  0  0  0  0  0  0
    0.9189    3.4477    2.8142 H   0  0  0  0  0  0  0  0  0  0  0  0
    0.3175    3.8590    1.1948 H   0  0  0  0  0  0  0  0  0  0  0  0
  1  2  1  0  0  0  0
  2  3  1  0  0  0  0
  2  4  1  0  0  0  0
  2  5  1  0  0  0  0
  5  6  2  0  0  0  0
  5  7  1  0  0  0  0
  7  8  1  0  0  0  0
  7  9  1  0  0  0  0
  9 10  1  0  0  0  0
  9 11  1  0  0  0  0
  9 21  1  0  0  0  0
 11 12  1  0  0  0  0
 11 13  1  0  0  0  0
 11 14  1  0  0  0  0
 14 15  1  0  0  0  0
 14 16  1  0  0  0  0
 14 17  1  0  0  0  0
 17 18  2  0  0  0  0
 17 19  1  0  0  0  0
 19 20  1  0  0  0  0
 21 22  2  0  0  0  0
 21 23  1  0  0  0  0
 23 24  1  0  0  0  0
 23 25  1  0  0  0  0
 25 26  1  0  0  0  0
 25 27  1  0  0  0  0
 25 28  1  0  0  0  0
M  END
$$$$

  -OEChem-03222214033D

 28 27  0     1  0  0  0  0  0999 V2000
   -3.1576   -3.7946    1.3493 H   0  0  0  0  0  0  0  0  0  0  0  0
   -3.1279   -2.8417    0.8135 C   0  0  0  0  0  0  0  0  0  0  0  0
   -3.8420   -2.1555    1.2749 H   0  0  0  0  0  0  0  0  0  0  0  0
   -3.4165   -3.0133   -0.2263 H   0  0  0  0  0  0  0  0  0  0  0  0
   -1.7308   -2.2545    0.8708 C   0  0  0  0  0  0  0  0  0  0  0  0
   -0.8356   -2.8622    1.4381 O   0  0  0  0  0  0  0  0  0  0  0  0
   -1.4869   -1.0141    0.3170 N   0  0  0  0  0  0  0  0  0  0  0  0
   -2.2826   -0.4921   -0.0460 H   0  0  0  0  0  0  0  0  0  0  0  0
   -0.1761   -0.3499    0.3003 C   0  0  1  0  0  0  0  0  0  0  0  0
    0.4839   -0.8010    1.0441 H   0  0  0  0  0  0  0  0  0  0  0  0
    0.4291   -0.4450   -1.1276 C   0  0  0  0  0  0  0  0  0  0  0  0
   -0.2797   -0.9725   -1.7754 H   0  0  0  0  0  0  0  0  0  0  0  0
    0.5516    0.5569   -1.5542 H   0  0  0  0  0  0  0  0  0  0  0  0
    1.7813   -1.1836   -1.2208 C   0  0  0  0  0  0  0  0  0  0  0  0
    2.0133   -1.3930   -2.2689 H   0  0  0  0  0  0  0  0  0  0  0  0
    2.5704   -0.5342   -0.8333 H   0  0  0  0  0  0  0  0  0  0  0  0
    1.8240   -2.4899   -0.4344 C   0  0  0  0  0  0  0  0  0  0  0  0
    1.4105   -3.4949   -0.9835 O   0  0  0  0  0  0  0  0  0  0  0  0
    2.3087   -2.4721    0.8263 O   0  0  0  0  0  0  0  0  0  0  0  0
    2.1057   -3.3573    1.1719 H   0  0  0  0  0  0  0  0  0  0  0  0
   -0.3245    1.1317    0.7029 C   0  0  0  0  0  0  0  0  0  0  0  0
   -1.2345    1.8049    0.2325 O   0  0  0  0  0  0  0  0  0  0  0  0
    0.5541    1.7069    1.6021 N   0  0  0  0  0  0  0  0  0  0  0  0
    1.2556    1.1048    2.0253 H   0  0  0  0  0  0  0  0  0  0  0  0
    0.4419    3.0882    2.0552 C   0  0  0  0  0  0  0  0  0  0  0  0
   -0.5148    3.2482    2.5638 H   0  0  0  0  0  0  0  0  0  0  0  0
    1.2497    3.3248    2.7545 H   0  0  0  0  0  0  0  0  0  0  0  0
    0.5088    3.7764    1.2059 H   0  0  0  0  0  0  0  0  0  0  0  0
  1  2  1  0  0  0  0
  2  3  1  0  0  0  0
  2  4  1  0  0  0  0
  2  5  1  0  0  0  0
  5  6  2  0  0  0  0
  5  7  1  0  0  0  0
  7  8  1  0  0  0  0
  7  9  1  0  0  0  0
  9 10  1  0  0  0  0
  9 11  1  0  0  0  0
  9 21  1  0  0  0  0
 11 12  1  0  0  0  0
 11 13  1  0  0  0  0
 11 14  1  0  0  0  0
 14 15  1  0  0  0  0
 14 16  1  0  0  0  0
 14 17  1  0  0  0  0
 17 18  2  0  0  0  0
 17 19  1  0  0  0  0
 19 20  1  0  0  0  0
 21 22  2  0  0  0  0
 21 23  1  0  0  0  0
 23 24  1  0  0  0  0
 23 25  1  0  0  0  0
 25 26  1  0  0  0  0
 25 27  1  0  0  0  0
 25 28  1  0  0  0  0
M  END
$$$$

  -OEChem-03222214033D

 28 27  0     1  0  0  0  0  0999 V2000
   -3.0851   -3.8477    1.3114 H   0  0  0  0  0  0  0  0  0  0  0  0
   -3.0724   -2.8833    0.7958 C   0  0  0  0  0  0  0  0  0  0  0  0
   -3.7849   -2.2137    1.2836 H   0  0  0  0  0  0  0  0  0  0  0  0
   -3.3771   -3.0355   -0.2426 H   0  0  0  0  0  0  0  0  0  0  0  0
   -1.6800   -2.2834    0.8418 C   0  0  0  0  0  0  0  0  0  0  0  0
   -0.7690   -2.8981    1.3752 O   0  0  0  0  0  0  0  0  0  0  0  0
   -1.4602   -1.0304    0.3068 N   0  0  0  0  0  0  0  0  0  0  0  0
   -2.2697   -0.5184   -0.0397 H   0  0  0  0  0  0  0  0  0  0  0  0
   -0.1628   -0.3398    0.2748 C   0  0  1  0  0  0  0  0  0  0  0  0
    0.5236   -0.8024    0.9911 H   0  0  0  0  0  0  0  0  0  0  0  0
    0.4127   -0.4258   -1.1625 C   0  0  0  0  0  0  0  0  0  0  0  0
   -0.2920   -0.9542   -1.8146 H   0  0  0  0  0  0  0  0  0  0  0  0
    0.5303    0.5806   -1.5793 H   0  0  0  0  0  0  0  0  0  0  0  0
    1.7724   -1.1453   -1.2245 C   0  0  0  0  0  0  0  0  0  0  0  0
    2.1308   -1.1682   -2.2571 H   0  0  0  0  0  0  0  0  0  0  0  0
    2.5109   -0.6029   -0.6284 H   0  0  0  0  0  0  0  0  0  0  0  0
    1.6745   -2.5773   -0.7135 C   0  0  0  0  0  0  0  0  0  0  0  0
    1.1143   -3.4046   -1.4108 O   0  0  0  0  0  0  0  0  0  0  0  0
    2.1727   -2.8419    0.5129 O   0  0  0  0  0  0  0  0  0  0  0  0
    1.8340   -3.7265    0.7284 H   0  0  0  0  0  0  0  0  0  0  0  0
   -0.3206    1.1336    0.7026 C   0  0  0  0  0  0  0  0  0  0  0  0
   -1.2470    1.8027    0.2598 O   0  0  0  0  0  0  0  0  0  0  0  0
    0.5702    1.7067    1.5910 N   0  0  0  0  0  0  0  0  0  0  0  0
    1.2807    1.1048    1.9984 H   0  0  0  0  0  0  0  0  0  0  0  0
    0.4472    3.0783    2.0699 C   0  0  0  0  0  0  0  0  0  0  0  0
   -0.5028    3.2171    2.5967 H   0  0  0  0  0  0  0  0  0  0  0  0
    1.2632    3.3131    2.7601 H   0  0  0  0  0  0  0  0  0  0  0  0
    0.4910    3.7821    1.2320 H   0  0  0  0  0  0  0  0  0  0  0  0
  1  2  1  0  0  0  0
  2  3  1  0  0  0  0
  2  4  1  0  0  0  0
  2  5  1  0  0  0  0
  5  6  2  0  0  0  0
  5  7  1  0  0  0  0
  7  8  1  0  0  0  0
  7  9  1  0  0  0  0
  9 10  1  0  0  0  0
  9 11  1  0  0  0  0
  9 21  1  0  0  0  0
 11 12  1  0  0  0  0
 11 13  1  0  0  0  0
 11 14  1  0  0  0  0
 14 15  1  0  0  0  0
 14 16  1  0  0  0  0
 14 17  1  0  0  0  0
 17 18  2  0  0  0  0
 17 19  1  0  0  0  0
 19 20  1  0  0  0  0
 21 22  2  0  0  0  0
 21 23  1  0  0  0  0
 23 24  1  0  0  0  0
 23 25  1  0  0  0  0
 25 26  1  0  0  0  0
 25 27  1  0  0  0  0
 25 28  1  0  0  0  0
M  END
$$$$

  -OEChem-03222214033D

 28 27  0     1  0  0  0  0  0999 V2000
   -3.0570   -3.8581    1.2841 H   0  0  0  0  0  0  0  0  0  0  0  0
   -3.0590   -2.8861    0.7832 C   0  0  0  0  0  0  0  0  0  0  0  0
   -3.7591   -2.2249    1.2994 H   0  0  0  0  0  0  0  0  0  0  0  0
   -3.3898   -3.0226   -0.2492 H   0  0  0  0  0  0  0  0  0  0  0  0
   -1.6666   -2.2853    0.8034 C   0  0  0  0  0  0  0  0  0  0  0  0
   -0.7393   -2.9098    1.2947 O   0  0  0  0  0  0  0  0  0  0  0  0
   -1.4596   -1.0258    0.2795 N   0  0  0  0  0  0  0  0  0  0  0  0
   -2.2766   -0.5109   -0.0443 H   0  0  0  0  0  0  0  0  0  0  0  0
   -0.1692   -0.3228    0.2549 C   0  0  1  0  0  0  0  0  0  0  0  0
    0.5177   -0.7919    0.9673 H   0  0  0  0  0  0  0  0  0  0  0  0
    0.4073   -0.4185   -1.1777 C   0  0  0  0  0  0  0  0  0  0  0  0
   -0.2917   -0.9360   -1.8449 H   0  0  0  0  0  0  0  0  0  0  0  0
    0.5374    0.5898   -1.5862 H   0  0  0  0  0  0  0  0  0  0  0  0
    1.7714   -1.1310   -1.1979 C   0  0  0  0  0  0  0  0  0  0  0  0
    2.2540   -0.9608   -2.1638 H   0  0  0  0  0  0  0  0  0  0  0  0
    2.4295   -0.7256   -0.4250 H   0  0  0  0  0  0  0  0  0  0  0  0
    1.6243   -2.6371   -1.0112 C   0  0  0  0  0  0  0  0  0  0  0  0
    0.9844   -3.2753   -1.8290 O   0  0  0  0  0  0  0  0  0  0  0  0
    2.1969   -3.1834    0.0818 O   0  0  0  0  0  0  0  0  0  0  0  0
    1.8650   -4.0946    0.1070 H   0  0  0  0  0  0  0  0  0  0  0  0
   -0.3332    1.1467    0.6935 C   0  0  0  0  0  0  0  0  0  0  0  0
   -1.2657    1.8126    0.2595 O   0  0  0  0  0  0  0  0  0  0  0  0
    0.5547    1.7185    1.5859 N   0  0  0  0  0  0  0  0  0  0  0  0
    1.2677    1.1178    1.9906 H   0  0  0  0  0  0  0  0  0  0  0  0
    0.4206    3.0840    2.0792 C   0  0  0  0  0  0  0  0  0  0  0  0
   -0.5258    3.2066    2.6165 H   0  0  0  0  0  0  0  0  0  0  0  0
    1.2406    3.3212    2.7638 H   0  0  0  0  0  0  0  0  0  0  0  0
    0.4485    3.7968    1.2481 H   0  0  0  0  0  0  0  0  0  0  0  0
  1  2  1  0  0  0  0
  2  3  1  0  0  0  0
  2  4  1  0  0  0  0
  2  5  1  0  0  0  0
  5  6  2  0  0  0  0
  5  7  1  0  0  0  0
  7  8  1  0  0  0  0
  7  9  1  0  0  0  0
  9 10  1  0  0  0  0
  9 11  1  0  0  0  0
  9 21  1  0  0  0  0
 11 12  1  0  0  0  0
 11 13  1  0  0  0  0
 11 14  1  0  0  0  0
 14 15  1  0  0  0  0
 14 16  1  0  0  0  0
 14 17  1  0  0  0  0
 17 18  2  0  0  0  0
 17 19  1  0  0  0  0
 19 20  1  0  0  0  0
 21 22  2  0  0  0  0
 21 23  1  0  0  0  0
 23 24  1  0  0  0  0
 23 25  1  0  0  0  0
 25 26  1  0  0  0  0
 25 27  1  0  0  0  0
 25 28  1  0  0  0  0
M  END
$$$$

  -OEChem-03222214033D

 28 27  0     1  0  0  0  0  0999 V2000
   -3.0694   -3.8374    1.2842 H   0  0  0  0  0  0  0  0  0  0  0  0
   -3.0756   -2.8606    0.7926 C   0  0  0  0  0  0  0  0  0  0  0  0
   -3.7551   -2.1981    1.3339 H   0  0  0  0  0  0  0  0  0  0  0  0
   -3.4359   -2.9838   -0.2316 H   0  0  0  0  0  0  0  0  0  0  0  0
   -1.6779   -2.2719    0.7806 C   0  0  0  0  0  0  0  0  0  0  0  0
   -0.7418   -2.9072    1.2399 O   0  0  0  0  0  0  0  0  0  0  0  0
   -1.4704   -1.0130    0.2571 N   0  0  0  0  0  0  0  0  0  0  0  0
   -2.2892   -0.4862   -0.0428 H   0  0  0  0  0  0  0  0  0  0  0  0
   -0.1795   -0.3116    0.2486 C   0  0  1  0  0  0  0  0  0  0  0  0
    0.4925   -0.7796    0.9752 H   0  0  0  0  0  0  0  0  0  0  0  0
    0.4174   -0.4204   -1.1734 C   0  0  0  0  0  0  0  0  0  0  0  0
   -0.2796   -0.9211   -1.8548 H   0  0  0  0  0  0  0  0  0  0  0  0
    0.5626    0.5884   -1.5755 H   0  0  0  0  0  0  0  0  0  0  0  0
    1.7842   -1.1369   -1.1717 C   0  0  0  0  0  0  0  0  0  0  0  0
    2.3769   -0.7692   -2.0133 H   0  0  0  0  0  0  0  0  0  0  0  0
    2.3453   -0.9134   -0.2607 H   0  0  0  0  0  0  0  0  0  0  0  0
    1.6591   -2.6491   -1.3429 C   0  0  0  0  0  0  0  0  0  0  0  0
    0.9974   -3.0947   -2.2646 O   0  0  0  0  0  0  0  0  0  0  0  0
    2.3105   -3.4264   -0.4526 O   0  0  0  0  0  0  0  0  0  0  0  0
    2.0455   -4.3328   -0.6710 H   0  0  0  0  0  0  0  0  0  0  0  0
   -0.3487    1.1585    0.6842 C   0  0  0  0  0  0  0  0  0  0  0  0
   -1.2850    1.8188    0.2498 O   0  0  0  0  0  0  0  0  0  0  0  0
    0.5267    1.7323    1.5875 N   0  0  0  0  0  0  0  0  0  0  0  0
    1.2437    1.1369    1.9922 H   0  0  0  0  0  0  0  0  0  0  0  0
    0.3786    3.0949    2.0853 C   0  0  0  0  0  0  0  0  0  0  0  0
   -0.5669    3.2044    2.6268 H   0  0  0  0  0  0  0  0  0  0  0  0
    1.1985    3.3404    2.7671 H   0  0  0  0  0  0  0  0  0  0  0  0
    0.3946    3.8102    1.2560 H   0  0  0  0  0  0  0  0  0  0  0  0
  1  2  1  0  0  0  0
  2  3  1  0  0  0  0
  2  4  1  0  0  0  0
  2  5  1  0  0  0  0
  5  6  2  0  0  0  0
  5  7  1  0  0  0  0
  7  8  1  0  0  0  0
  7  9  1  0  0  0  0
  9 10  1  0  0  0  0
  9 11  1  0  0  0  0
  9 21  1  0  0  0  0
 11 12  1  0  0  0  0
 11 13  1  0  0  0  0
 11 14  1  0  0  0  0
 14 15  1  0  0  0  0
 14 16  1  0  0  0  0
 14 17  1  0  0  0  0
 17 18  2  0  0  0  0
 17 19  1  0  0  0  0
 19 20  1  0  0  0  0
 21 22  2  0  0  0  0
 21 23  1  0  0  0  0
 23 24  1  0  0  0  0
 23 25  1  0  0  0  0
 25 26  1  0  0  0  0
 25 27  1  0  0  0  0
 25 28  1  0  0  0  0
M  END
$$$$

  -OEChem-03222214033D

 28 27  0     1  0  0  0  0  0999 V2000
   -3.0914   -3.8201    1.2935 H   0  0  0  0  0  0  0  0  0  0  0  0
   -3.0917   -2.8439    0.8004 C   0  0  0  0  0  0  0  0  0  0  0  0
   -3.7692   -2.1772    1.3395 H   0  0  0  0  0  0  0  0  0  0  0  0
   -3.4507   -2.9669   -0.2244 H   0  0  0  0  0  0  0  0  0  0  0  0
   -1.6910   -2.2614    0.7898 C   0  0  0  0  0  0  0  0  0  0  0  0
   -0.7586   -2.8972    1.2555 O   0  0  0  0  0  0  0  0  0  0  0  0
   -1.4750   -1.0075    0.2583 N   0  0  0  0  0  0  0  0  0  0  0  0
   -2.2899   -0.4775   -0.0469 H   0  0  0  0  0  0  0  0  0  0  0  0
   -0.1821   -0.3096    0.2584 C   0  0  1  0  0  0  0  0  0  0  0  0
    0.4774   -0.7707    0.9998 H   0  0  0  0  0  0  0  0  0  0  0  0
    0.4321   -0.4243   -1.1569 C   0  0  0  0  0  0  0  0  0  0  0  0
   -0.2679   -0.9212   -1.8375 H   0  0  0  0  0  0  0  0  0  0  0  0
    0.5790    0.5831   -1.5622 H   0  0  0  0  0  0  0  0  0  0  0  0
    1.8030   -1.1429   -1.1595 C   0  0  0  0  0  0  0  0  0  0  0  0
    2.4866   -0.5924   -1.8108 H   0  0  0  0  0  0  0  0  0  0  0  0
    2.2508   -1.1508   -0.1629 H   0  0  0  0  0  0  0  0  0  0  0  0
    1.7424   -2.5745   -1.6901 C   0  0  0  0  0  0  0  0  0  0  0  0
    1.1437   -2.8057   -2.7263 O   0  0  0  0  0  0  0  0  0  0  0  0
    2.3948   -3.5229   -0.9857 O   0  0  0  0  0  0  0  0  0  0  0  0
    2.2099   -4.3529   -1.4504 H   0  0  0  0  0  0  0  0  0  0  0  0
   -0.3568    1.1639    0.6807 C   0  0  0  0  0  0  0  0  0  0  0  0
   -1.2934    1.8173    0.2367 O   0  0  0  0  0  0  0  0  0  0  0  0
    0.5074    1.7460    1.5897 N   0  0  0  0  0  0  0  0  0  0  0  0
    1.2272    1.1577    1.9999 H   0  0  0  0  0  0  0  0  0  0  0  0
    0.3452    3.1088    2.0823 C   0  0  0  0  0  0  0  0  0  0  0  0
   -0.6032    3.2114    2.6202 H   0  0  0  0  0  0  0  0  0  0  0  0
    1.1606    3.3646    2.7657 H   0  0  0  0  0  0  0  0  0  0  0  0
    0.3566    3.8213    1.2506 H   0  0  0  0  0  0  0  0  0  0  0  0
  1  2  1  0  0  0  0
  2  3  1  0  0  0  0
  2  4  1  0  0  0  0
  2  5  1  0  0  0  0
  5  6  2  0  0  0  0
  5  7  1  0  0  0  0
  7  8  1  0  0  0  0
  7  9  1  0  0  0  0
  9 10  1  0  0  0  0
  9 11  1  0  0  0  0
  9 21  1  0  0  0  0
 11 12  1  0  0  0  0
 11 13  1  0  0  0  0
 11 14  1  0  0  0  0
 14 15  1  0  0  0  0
 14 16  1  0  0  0  0
 14 17  1  0  0  0  0
 17 18  2  0  0  0  0
 17 19  1  0  0  0  0
 19 20  1  0  0  0  0
 21 22  2  0  0  0  0
 21 23  1  0  0  0  0
 23 24  1  0  0  0  0
 23 25  1  0  0  0  0
 25 26  1  0  0  0  0
 25 27  1  0  0  0  0
 25 28  1  0  0  0  0
M  END
$$$$

  -OEChem-03222214033D

 28 27  0     1  0  0  0  0  0999 V2000
   -3.0861   -3.8278    1.2703 H   0  0  0  0  0  0  0  0  0  0  0  0
   -3.0912   -2.8416    0.7977 C   0  0  0  0  0  0  0  0  0  0  0  0
   -3.7691   -2.1883    1.3521 H   0  0  0  0  0  0  0  0  0  0  0  0
   -3.4530   -2.9449   -0.2282 H   0  0  0  0  0  0  0  0  0  0  0  0
   -1.6922   -2.2558    0.7959 C   0  0  0  0  0  0  0  0  0  0  0  0
   -0.7624   -2.8870    1.2727 O   0  0  0  0  0  0  0  0  0  0  0  0
   -1.4724   -1.0059    0.2571 N   0  0  0  0  0  0  0  0  0  0  0  0
   -2.2855   -0.4745   -0.0508 H   0  0  0  0  0  0  0  0  0  0  0  0
   -0.1794   -0.3074    0.2661 C   0  0  1  0  0  0  0  0  0  0  0  0
    0.4715   -0.7593    1.0202 H   0  0  0  0  0  0  0  0  0  0  0  0
    0.4533   -0.4233   -1.1425 C   0  0  0  0  0  0  0  0  0  0  0  0
   -0.2423   -0.9448   -1.8095 H   0  0  0  0  0  0  0  0  0  0  0  0
    0.5855    0.5768   -1.5704 H   0  0  0  0  0  0  0  0  0  0  0  0
    1.8281   -1.1393   -1.1413 C   0  0  0  0  0  0  0  0  0  0  0  0
    2.5895   -0.4574   -1.5281 H   0  0  0  0  0  0  0  0  0  0  0  0
    2.1290   -1.4156   -0.1280 H   0  0  0  0  0  0  0  0  0  0  0  0
    1.8578   -2.4052   -1.9965 C   0  0  0  0  0  0  0  0  0  0  0  0
    1.3952   -2.3732   -3.1235 O   0  0  0  0  0  0  0  0  0  0  0  0
    2.4322   -3.5047   -1.4649 O   0  0  0  0  0  0  0  0  0  0  0  0
    2.3381   -4.1911   -2.1426 H   0  0  0  0  0  0  0  0  0  0  0  0
   -0.3624    1.1686    0.6759 C   0  0  0  0  0  0  0  0  0  0  0  0
   -1.2977    1.8156    0.2197 O   0  0  0  0  0  0  0  0  0  0  0  0
    0.4901    1.7591    1.5907 N   0  0  0  0  0  0  0  0  0  0  0  0
    1.2045    1.1743    2.0149 H   0  0  0  0  0  0  0  0  0  0  0  0
    0.3179    3.1242    2.0734 C   0  0  0  0  0  0  0  0  0  0  0  0
   -0.6286    3.2221    2.6155 H   0  0  0  0  0  0  0  0  0  0  0  0
    1.1347    3.3930    2.7501 H   0  0  0  0  0  0  0  0  0  0  0  0
    0.3189    3.8303    1.2363 H   0  0  0  0  0  0  0  0  0  0  0  0
  1  2  1  0  0  0  0
  2  3  1  0  0  0  0
  2  4  1  0  0  0  0
  2  5  1  0  0  0  0
  5  6  2  0  0  0  0
  5  7  1  0  0  0  0
  7  8  1  0  0  0  0
  7  9  1  0  0  0  0
  9 10  1  0  0  0  0
  9 11  1  0  0  0  0
  9 21  1  0  0  0  0
 11 12  1  0  0  0  0
 11 13  1  0  0  0  0
 11 14  1  0  0  0  0
 14 15  1  0  0  0  0
 14 16  1  0  0  0  0
 14 17  1  0  0  0  0
 17 18  2  0  0  0  0
 17 19  1  0  0  0  0
 19 20  1  0  0  0  0
 21 22  2  0  0  0  0
 21 23  1  0  0  0  0
 23 24  1  0  0  0  0
 23 25  1  0  0  0  0
 25 26  1  0  0  0  0
 25 27  1  0  0  0  0
 25 28  1  0  0  0  0
M  END
$$$$

  -OEChem-03222214033D

 28 27  0     1  0  0  0  0  0999 V2000
   -3.1108   -3.8078    1.2746 H   0  0  0  0  0  0  0  0  0  0  0  0
   -3.1131   -2.8183    0.8089 C   0  0  0  0  0  0  0  0  0  0  0  0
   -3.7739   -2.1613    1.3796 H   0  0  0  0  0  0  0  0  0  0  0  0
   -3.4940   -2.9101   -0.2110 H   0  0  0  0  0  0  0  0  0  0  0  0
   -1.7082   -2.2473    0.7860 C   0  0  0  0  0  0  0  0  0  0  0  0
   -0.7783   -2.8863    1.2525 O   0  0  0  0  0  0  0  0  0  0  0  0
   -1.4828   -1.0000    0.2435 N   0  0  0  0  0  0  0  0  0  0  0  0
   -2.2944   -0.4600   -0.0540 H   0  0  0  0  0  0  0  0  0  0  0  0
   -0.1868   -0.3074    0.2576 C   0  0  1  0  0  0  0  0  0  0  0  0
    0.4579   -0.7565    1.0188 H   0  0  0  0  0  0  0  0  0  0  0  0
    0.4639   -0.4231   -1.1425 C   0  0  0  0  0  0  0  0  0  0  0  0
   -0.2228   -0.9695   -1.7989 H   0  0  0  0  0  0  0  0  0  0  0  0
    0.5907    0.5681   -1.5924 H   0  0  0  0  0  0  0  0  0  0  0  0
    1.8358   -1.1429   -1.1172 C   0  0  0  0  0  0  0  0  0  0  0  0
    2.6417   -0.4084   -1.1895 H   0  0  0  0  0  0  0  0  0  0  0  0
    1.9638   -1.6810   -0.1741 H   0  0  0  0  0  0  0  0  0  0  0  0
    2.0082   -2.1789   -2.2279 C   0  0  0  0  0  0  0  0  0  0  0  0
    1.5641   -1.9442   -3.3382 O   0  0  0  0  0  0  0  0  0  0  0  0
    2.6865   -3.3069   -1.9285 O   0  0  0  0  0  0  0  0  0  0  0  0
    2.6851   -3.8254   -2.7474 H   0  0  0  0  0  0  0  0  0  0  0  0
   -0.3674    1.1704    0.6620 C   0  0  0  0  0  0  0  0  0  0  0  0
   -1.3074    1.8147    0.2116 O   0  0  0  0  0  0  0  0  0  0  0  0
    0.4821    1.7601    1.5801 N   0  0  0  0  0  0  0  0  0  0  0  0
    1.2006    1.1771    1.9997 H   0  0  0  0  0  0  0  0  0  0  0  0
    0.3019    3.1207    2.0730 C   0  0  0  0  0  0  0  0  0  0  0  0
   -0.6463    3.2093    2.6138 H   0  0  0  0  0  0  0  0  0  0  0  0
    1.1158    3.3882    2.7539 H   0  0  0  0  0  0  0  0  0  0  0  0
    0.3011    3.8337    1.2417 H   0  0  0  0  0  0  0  0  0  0  0  0
  1  2  1  0  0  0  0
  2  3  1  0  0  0  0
  2  4  1  0  0  0  0
  2  5  1  0  0  0  0
  5  6  2  0  0  0  0
  5  7  1  0  0  0  0
  7  8  1  0  0  0  0
  7  9  1  0  0  0  0
  9 10  1  0  0  0  0
  9 11  1  0  0  0  0
  9 21  1  0  0  0  0
 11 12  1  0  0  0  0
 11 13  1  0  0  0  0
 11 14  1  0  0  0  0
 14 15  1  0  0  0  0
 14 16  1  0  0  0  0
 14 17  1  0  0  0  0
 17 18  2  0  0  0  0
 17 19  1  0  0  0  0
 19 20  1  0  0  0  0
 21 22  2  0  0  0  0
 21 23  1  0  0  0  0
 23 24  1  0  0  0  0
 23 25  1  0  0  0  0
 25 26  1  0  0  0  0
 25 27  1  0  0  0  0
 25 28  1  0  0  0  0
M  END
$$$$

  -OEChem-03222214033D

 28 27  0     1  0  0  0  0  0999 V2000
   -3.1310   -3.7954    1.2783 H   0  0  0  0  0  0  0  0  0  0  0  0
   -3.1319   -2.8055    0.8133 C   0  0  0  0  0  0  0  0  0  0  0  0
   -3.7793   -2.1443    1.3944 H   0  0  0  0  0  0  0  0  0  0  0  0
   -3.5282   -2.8933   -0.2012 H   0  0  0  0  0  0  0  0  0  0  0  0
   -1.7225   -2.2461    0.7717 C   0  0  0  0  0  0  0  0  0  0  0  0
   -0.7900   -2.8970    1.2164 O   0  0  0  0  0  0  0  0  0  0  0  0
   -1.4949   -0.9970    0.2345 N   0  0  0  0  0  0  0  0  0  0  0  0
   -2.3071   -0.4486   -0.0457 H   0  0  0  0  0  0  0  0  0  0  0  0
   -0.1972   -0.3079    0.2496 C   0  0  1  0  0  0  0  0  0  0  0  0
    0.4495   -0.7624    1.0066 H   0  0  0  0  0  0  0  0  0  0  0  0
    0.4561   -0.4210   -1.1474 C   0  0  0  0  0  0  0  0  0  0  0  0
   -0.2212   -0.9800   -1.8032 H   0  0  0  0  0  0  0  0  0  0  0  0
    0.5851    0.5676   -1.6024 H   0  0  0  0  0  0  0  0  0  0  0  0
    1.8215   -1.1442   -1.0978 C   0  0  0  0  0  0  0  0  0  0  0  0
    2.6181   -0.4287   -0.8797 H   0  0  0  0  0  0  0  0  0  0  0  0
    1.8098   -1.8886   -0.2960 H   0  0  0  0  0  0  0  0  0  0  0  0
    2.1655   -1.9067   -2.3774 C   0  0  0  0  0  0  0  0  0  0  0  0
    1.7013   -1.5397   -3.4427 O   0  0  0  0  0  0  0  0  0  0  0  0
    3.0100   -2.9535   -2.2636 O   0  0  0  0  0  0  0  0  0  0  0  0
    3.1022   -3.3003   -3.1641 H   0  0  0  0  0  0  0  0  0  0  0  0
   -0.3741    1.1683    0.6608 C   0  0  0  0  0  0  0  0  0  0  0  0
   -1.3167    1.8148    0.2193 O   0  0  0  0  0  0  0  0  0  0  0  0
    0.4778    1.7524    1.5802 N   0  0  0  0  0  0  0  0  0  0  0  0
    1.2019    1.1695    1.9899 H   0  0  0  0  0  0  0  0  0  0  0  0
    0.3107    3.1166    2.0678 C   0  0  0  0  0  0  0  0  0  0  0  0
   -0.6441    3.2214    2.5938 H   0  0  0  0  0  0  0  0  0  0  0  0
    1.1177    3.3727    2.7612 H   0  0  0  0  0  0  0  0  0  0  0  0
    0.3337    3.8276    1.2350 H   0  0  0  0  0  0  0  0  0  0  0  0
  1  2  1  0  0  0  0
  2  3  1  0  0  0  0
  2  4  1  0  0  0  0
  2  5  1  0  0  0  0
  5  6  2  0  0  0  0
  5  7  1  0  0  0  0
  7  8  1  0  0  0  0
  7  9  1  0  0  0  0
  9 10  1  0  0  0  0
  9 11  1  0  0  0  0
  9 21  1  0  0  0  0
 11 12  1  0  0  0  0
 11 13  1  0  0  0  0
 11 14  1  0  0  0  0
 14 15  1  0  0  0  0
 14 16  1  0  0  0  0
 14 17  1  0  0  0  0
 17 18  2  0  0  0  0
 17 19  1  0  0  0  0
 19 20  1  0  0  0  0
 21 22  2  0  0  0  0
 21 23  1  0  0  0  0
 23 24  1  0  0  0  0
 23 25  1  0  0  0  0
 25 26  1  0  0  0  0
 25 27  1  0  0  0  0
 25 28  1  0  0  0  0
M  END
$$$$

  -OEChem-03222214033D

 28 27  0     1  0  0  0  0  0999 V2000
   -3.1434   -3.7929    1.2646 H   0  0  0  0  0  0  0  0  0  0  0  0
   -3.1448   -2.7985    0.8096 C   0  0  0  0  0  0  0  0  0  0  0  0
   -3.7883   -2.1416    1.3998 H   0  0  0  0  0  0  0  0  0  0  0  0
   -3.5455   -2.8757   -0.2040 H   0  0  0  0  0  0  0  0  0  0  0  0
   -1.7351   -2.2409    0.7673 C   0  0  0  0  0  0  0  0  0  0  0  0
   -0.8025   -2.8946    1.2080 O   0  0  0  0  0  0  0  0  0  0  0  0
   -1.5074   -0.9909    0.2324 N   0  0  0  0  0  0  0  0  0  0  0  0
   -2.3194   -0.4404   -0.0441 H   0  0  0  0  0  0  0  0  0  0  0  0
   -0.2078   -0.3052    0.2421 C   0  0  1  0  0  0  0  0  0  0  0  0
    0.4432   -0.7662    0.9921 H   0  0  0  0  0  0  0  0  0  0  0  0
    0.4385   -0.4235   -1.1560 C   0  0  0  0  0  0  0  0  0  0  0  0
   -0.2329   -0.9823   -1.8181 H   0  0  0  0  0  0  0  0  0  0  0  0
    0.5758    0.5662   -1.6067 H   0  0  0  0  0  0  0  0  0  0  0  0
    1.7968   -1.1516   -1.0878 C   0  0  0  0  0  0  0  0  0  0  0  0
    2.5450   -0.5020   -0.6272 H   0  0  0  0  0  0  0  0  0  0  0  0
    1.6923   -2.0436   -0.4623 H   0  0  0  0  0  0  0  0  0  0  0  0
    2.3214   -1.6213   -2.4449 C   0  0  0  0  0  0  0  0  0  0  0  0
    1.8251   -1.1933   -3.4723 O   0  0  0  0  0  0  0  0  0  0  0  0
    3.3523   -2.4921   -2.4329 O   0  0  0  0  0  0  0  0  0  0  0  0
    3.5419   -2.6685   -3.3672 H   0  0  0  0  0  0  0  0  0  0  0  0
   -0.3745    1.1710    0.6582 C   0  0  0  0  0  0  0  0  0  0  0  0
   -1.3166    1.8235    0.2245 O   0  0  0  0  0  0  0  0  0  0  0  0
    0.4865    1.7480    1.5737 N   0  0  0  0  0  0  0  0  0  0  0  0
    1.2120    1.1610    1.9750 H   0  0  0  0  0  0  0  0  0  0  0  0
    0.3277    3.1103    2.0689 C   0  0  0  0  0  0  0  0  0  0  0  0
   -0.6251    3.2167    2.5982 H   0  0  0  0  0  0  0  0  0  0  0  0
    1.1380    3.3587    2.7611 H   0  0  0  0  0  0  0  0  0  0  0  0
    0.3517    3.8253    1.2396 H   0  0  0  0  0  0  0  0  0  0  0  0
  1  2  1  0  0  0  0
  2  3  1  0  0  0  0
  2  4  1  0  0  0  0
  2  5  1  0  0  0  0
  5  6  2  0  0  0  0
  5  7  1  0  0  0  0
  7  8  1  0  0  0  0
  7  9  1  0  0  0  0
  9 10  1  0  0  0  0
  9 11  1  0  0  0  0
  9 21  1  0  0  0  0
 11 12  1  0  0  0  0
 11 13  1  0  0  0  0
 11 14  1  0  0  0  0
 14 15  1  0  0  0  0
 14 16  1  0  0  0  0
 14 17  1  0  0  0  0
 17 18  2  0  0  0  0
 17 19  1  0  0  0  0
 19 20  1  0  0  0  0
 21 22  2  0  0  0  0
 21 23  1  0  0  0  0
 23 24  1  0  0  0  0
 23 25  1  0  0  0  0
 25 26  1  0  0  0  0
 25 27  1  0  0  0  0
 25 28  1  0  0  0  0
M  END
$$$$

  -OEChem-03222214033D

 28 27  0     1  0  0  0  0  0999 V2000
   -3.1799   -3.7621    1.2784 H   0  0  0  0  0  0  0  0  0  0  0  0
   -3.1637   -2.7768    0.8045 C   0  0  0  0  0  0  0  0  0  0  0  0
   -3.8049   -2.1006    1.3752 H   0  0  0  0  0  0  0  0  0  0  0  0
   -3.5548   -2.8682   -0.2117 H   0  0  0  0  0  0  0  0  0  0  0  0
   -1.7461   -2.2382    0.7665 C   0  0  0  0  0  0  0  0  0  0  0  0
   -0.8232   -2.9048    1.2082 O   0  0  0  0  0  0  0  0  0  0  0  0
   -1.5002   -0.9915    0.2324 N   0  0  0  0  0  0  0  0  0  0  0  0
   -2.3049   -0.4291   -0.0419 H   0  0  0  0  0  0  0  0  0  0  0  0
   -0.1943   -0.3186    0.2531 C   0  0  1  0  0  0  0  0  0  0  0  0
    0.4593   -0.7804    1.0006 H   0  0  0  0  0  0  0  0  0  0  0  0
    0.4446   -0.4305   -1.1465 C   0  0  0  0  0  0  0  0  0  0  0  0
   -0.3159   -0.6939   -1.8906 H   0  0  0  0  0  0  0  0  0  0  0  0
    0.8610    0.5386   -1.4450 H   0  0  0  0  0  0  0  0  0  0  0  0
    1.5773   -1.4764   -1.1557 C   0  0  0  0  0  0  0  0  0  0  0  0
    2.3426   -1.1963   -0.4275 H   0  0  0  0  0  0  0  0  0  0  0  0
    1.1727   -2.4486   -0.8587 H   0  0  0  0  0  0  0  0  0  0  0  0
    2.2605   -1.6439   -2.5127 C   0  0  0  0  0  0  0  0  0  0  0  0
    1.8421   -1.0438   -3.4875 O   0  0  0  0  0  0  0  0  0  0  0  0
    3.3327   -2.4625   -2.5569 O   0  0  0  0  0  0  0  0  0  0  0  0
    3.6231   -2.4440   -3.4816 H   0  0  0  0  0  0  0  0  0  0  0  0
   -0.3665    1.1578    0.6672 C   0  0  0  0  0  0  0  0  0  0  0  0
   -1.3029    1.8104    0.2210 O   0  0  0  0  0  0  0  0  0  0  0  0
    0.4830    1.7357    1.5926 N   0  0  0  0  0  0  0  0  0  0  0  0
    1.2108    1.1527    1.9959 H   0  0  0  0  0  0  0  0  0  0  0  0
    0.3318    3.1060    2.0677 C   0  0  0  0  0  0  0  0  0  0  0  0
   -0.6406    3.2382    2.5541 H   0  0  0  0  0  0  0  0  0  0  0  0
    1.1163    3.3447    2.7924 H   0  0  0  0  0  0  0  0  0  0  0  0
    0.4072    3.8112    1.2332 H   0  0  0  0  0  0  0  0  0  0  0  0
  1  2  1  0  0  0  0
  2  3  1  0  0  0  0
  2  4  1  0  0  0  0
  2  5  1  0  0  0  0
  5  6  2  0  0  0  0
  5  7  1  0  0  0  0
  7  8  1  0  0  0  0
  7  9  1  0  0  0  0
  9 10  1  0  0  0  0
  9 11  1  0  0  0  0
  9 21  1  0  0  0  0
 11 12  1  0  0  0  0
 11 13  1  0  0  0  0
 11 14  1  0  0  0  0
 14 15  1  0  0  0  0
 14 16  1  0  0  0  0
 14 17  1  0  0  0  0
 17 18  2  0  0  0  0
 17 19  1  0  0  0  0
 19 20  1  0  0  0  0
 21 22  2  0  0  0  0
 21 23  1  0  0  0  0
 23 24  1  0  0  0  0
 23 25  1  0  0  0  0
 25 26  1  0  0  0  0
 25 27  1  0  0  0  0
 25 28  1  0  0  0  0
M  END
$$$$

  -OEChem-03222214033D

 28 27  0     1  0  0  0  0  0999 V2000
   -3.1907   -3.7490    1.2818 H   0  0  0  0  0  0  0  0  0  0  0  0
   -3.1727   -2.7620    0.8111 C   0  0  0  0  0  0  0  0  0  0  0  0
   -3.8011   -2.0830    1.3924 H   0  0  0  0  0  0  0  0  0  0  0  0
   -3.5780   -2.8459   -0.2002 H   0  0  0  0  0  0  0  0  0  0  0  0
   -1.7518   -2.2342    0.7572 C   0  0  0  0  0  0  0  0  0  0  0  0
   -0.8286   -2.9108    1.1830 O   0  0  0  0  0  0  0  0  0  0  0  0
   -1.5022   -0.9875    0.2247 N   0  0  0  0  0  0  0  0  0  0  0  0
   -2.3057   -0.4157   -0.0338 H   0  0  0  0  0  0  0  0  0  0  0  0
   -0.1933   -0.3211    0.2497 C   0  0  1  0  0  0  0  0  0  0  0  0
    0.4534   -0.7855    1.0011 H   0  0  0  0  0  0  0  0  0  0  0  0
    0.4442   -0.4411   -1.1503 C   0  0  0  0  0  0  0  0  0  0  0  0
   -0.3110   -0.6848   -1.9060 H   0  0  0  0  0  0  0  0  0  0  0  0
    0.8708    0.5296   -1.4291 H   0  0  0  0  0  0  0  0  0  0  0  0
    1.5731   -1.4933   -1.1686 C   0  0  0  0  0  0  0  0  0  0  0  0
    2.2138   -1.3604   -0.2931 H   0  0  0  0  0  0  0  0  0  0  0  0
    1.1385   -2.4953   -1.1115 H   0  0  0  0  0  0  0  0  0  0  0  0
    2.4757   -1.4134   -2.3994 C   0  0  0  0  0  0  0  0  0  0  0  0
    2.1088   -0.7963   -3.3841 O   0  0  0  0  0  0  0  0  0  0  0  0
    3.6649   -2.0477   -2.3295 O   0  0  0  0  0  0  0  0  0  0  0  0
    4.0791   -1.8977   -3.1932 H   0  0  0  0  0  0  0  0  0  0  0  0
   -0.3615    1.1556    0.6657 C   0  0  0  0  0  0  0  0  0  0  0  0
   -1.2995    1.8086    0.2237 O   0  0  0  0  0  0  0  0  0  0  0  0
    0.4863    1.7311    1.5943 N   0  0  0  0  0  0  0  0  0  0  0  0
    1.2194    1.1502    1.9907 H   0  0  0  0  0  0  0  0  0  0  0  0
    0.3322    3.0995    2.0744 C   0  0  0  0  0  0  0  0  0  0  0  0
   -0.6391    3.2268    2.5640 H   0  0  0  0  0  0  0  0  0  0  0  0
    1.1176    3.3381    2.7980 H   0  0  0  0  0  0  0  0  0  0  0  0
    0.4026    3.8081    1.2421 H   0  0  0  0  0  0  0  0  0  0  0  0
  1  2  1  0  0  0  0
  2  3  1  0  0  0  0
  2  4  1  0  0  0  0
  2  5  1  0  0  0  0
  5  6  2  0  0  0  0
  5  7  1  0  0  0  0
  7  8  1  0  0  0  0
  7  9  1  0  0  0  0
  9 10  1  0  0  0  0
  9 11  1  0  0  0  0
  9 21  1  0  0  0  0
 11 12  1  0  0  0  0
 11 13  1  0  0  0  0
 11 14  1  0  0  0  0
 14 15  1  0  0  0  0
 14 16  1  0  0  0  0
 14 17  1  0  0  0  0
 17 18  2  0  0  0  0
 17 19  1  0  0  0  0
 19 20  1  0  0  0  0
 21 22  2  0  0  0  0
 21 23  1  0  0  0  0
 23 24  1  0  0  0  0
 23 25  1  0  0  0  0
 25 26  1  0  0  0  0
 25 27  1  0  0  0  0
 25 28  1  0  0  0  0
M  END
$$$$

  -OEChem-03222214033D

 28 27  0     1  0  0  0  0  0999 V2000
   -3.2230   -3.7485    1.2356 H   0  0  0  0  0  0  0  0  0  0  0  0
   -3.1969   -2.7437    0.8048 C   0  0  0  0  0  0  0  0  0  0  0  0
   -3.8139   -2.0813    1.4167 H   0  0  0  0  0  0  0  0  0  0  0  0
   -3.6091   -2.7834   -0.2065 H   0  0  0  0  0  0  0  0  0  0  0  0
   -1.7706   -2.2294    0.7628 C   0  0  0  0  0  0  0  0  0  0  0  0
   -0.8574   -2.9131    1.1986 O   0  0  0  0  0  0  0  0  0  0  0  0
   -1.5053   -0.9872    0.2275 N   0  0  0  0  0  0  0  0  0  0  0  0
   -2.3014   -0.4086   -0.0384 H   0  0  0  0  0  0  0  0  0  0  0  0
   -0.1893   -0.3355    0.2536 C   0  0  1  0  0  0  0  0  0  0  0  0
    0.4489   -0.8020    1.0104 H   0  0  0  0  0  0  0  0  0  0  0  0
    0.4447   -0.4672   -1.1485 C   0  0  0  0  0  0  0  0  0  0  0  0
   -0.3133   -0.6943   -1.9063 H   0  0  0  0  0  0  0  0  0  0  0  0
    0.8787    0.5018   -1.4213 H   0  0  0  0  0  0  0  0  0  0  0  0
    1.5651   -1.5306   -1.1865 C   0  0  0  0  0  0  0  0  0  0  0  0
    2.0606   -1.5919   -0.2143 H   0  0  0  0  0  0  0  0  0  0  0  0
    1.1336   -2.5135   -1.3939 H   0  0  0  0  0  0  0  0  0  0  0  0
    2.6490   -1.2241   -2.2176 C   0  0  0  0  0  0  0  0  0  0  0  0
    2.3273   -0.7660   -3.2995 O   0  0  0  0  0  0  0  0  0  0  0  0
    3.9303   -1.4737   -1.8732 O   0  0  0  0  0  0  0  0  0  0  0  0
    4.4510   -1.2234   -2.6520 H   0  0  0  0  0  0  0  0  0  0  0  0
   -0.3435    1.1442    0.6649 C   0  0  0  0  0  0  0  0  0  0  0  0
   -1.2723    1.8058    0.2160 O   0  0  0  0  0  0  0  0  0  0  0  0
    0.5075    1.7141    1.5939 N   0  0  0  0  0  0  0  0  0  0  0  0
    1.2302    1.1253    1.9981 H   0  0  0  0  0  0  0  0  0  0  0  0
    0.3652    3.0849    2.0710 C   0  0  0  0  0  0  0  0  0  0  0  0
   -0.5797    3.2066    2.6112 H   0  0  0  0  0  0  0  0  0  0  0  0
    1.1866    3.3377    2.7485 H   0  0  0  0  0  0  0  0  0  0  0  0
    0.3836    3.7878    1.2310 H   0  0  0  0  0  0  0  0  0  0  0  0
  1  2  1  0  0  0  0
  2  3  1  0  0  0  0
  2  4  1  0  0  0  0
  2  5  1  0  0  0  0
  5  6  2  0  0  0  0
  5  7  1  0  0  0  0
  7  8  1  0  0  0  0
  7  9  1  0  0  0  0
  9 10  1  0  0  0  0
  9 11  1  0  0  0  0
  9 21  1  0  0  0  0
 11 12  1  0  0  0  0
 11 13  1  0  0  0  0
 11 14  1  0  0  0  0
 14 15  1  0  0  0  0
 14 16  1  0  0  0  0
 14 17  1  0  0  0  0
 17 18  2  0  0  0  0
 17 19  1  0  0  0  0
 19 20  1  0  0  0  0
 21 22  2  0  0  0  0
 21 23  1  0  0  0  0
 23 24  1  0  0  0  0
 23 25  1  0  0  0  0
 25 26  1  0  0  0  0
 25 27  1  0  0  0  0
 25 28  1  0  0  0  0
M  END
$$$$

  -OEChem-03222214033D

 28 27  0     1  0  0  0  0  0999 V2000
   -3.3020   -3.7164    1.2032 H   0  0  0  0  0  0  0  0  0  0  0  0
   -3.2524   -2.7061    0.7875 C   0  0  0  0  0  0  0  0  0  0  0  0
   -3.8423   -2.0362    1.4177 H   0  0  0  0  0  0  0  0  0  0  0  0
   -3.6787   -2.7184   -0.2185 H   0  0  0  0  0  0  0  0  0  0  0  0
   -1.8124   -2.2329    0.7353 C   0  0  0  0  0  0  0  0  0  0  0  0
   -0.9157   -2.9475    1.1553 O   0  0  0  0  0  0  0  0  0  0  0  0
   -1.5149   -0.9928    0.2119 N   0  0  0  0  0  0  0  0  0  0  0  0
   -2.2962   -0.3845   -0.0305 H   0  0  0  0  0  0  0  0  0  0  0  0
   -0.1808   -0.3791    0.2479 C   0  0  1  0  0  0  0  0  0  0  0  0
    0.4397   -0.8679    1.0051 H   0  0  0  0  0  0  0  0  0  0  0  0
    0.4606   -0.5085   -1.1516 C   0  0  0  0  0  0  0  0  0  0  0  0
   -0.3024   -0.7137   -1.9104 H   0  0  0  0  0  0  0  0  0  0  0  0
    0.9084    0.4559   -1.4187 H   0  0  0  0  0  0  0  0  0  0  0  0
    1.5542   -1.5994   -1.2053 C   0  0  0  0  0  0  0  0  0  0  0  0
    1.8666   -1.8996   -0.2025 H   0  0  0  0  0  0  0  0  0  0  0  0
    1.1555   -2.4917   -1.6972 H   0  0  0  0  0  0  0  0  0  0  0  0
    2.7984   -1.1178   -1.9402 C   0  0  0  0  0  0  0  0  0  0  0  0
    3.0441   -1.5786   -3.0394 O   0  0  0  0  0  0  0  0  0  0  0  0
    3.5741   -0.1939   -1.3318 O   0  0  0  0  0  0  0  0  0  0  0  0
    4.2981   -0.0306   -1.9562 H   0  0  0  0  0  0  0  0  0  0  0  0
   -0.2903    1.1002    0.6736 C   0  0  0  0  0  0  0  0  0  0  0  0
   -1.1967    1.7948    0.2283 O   0  0  0  0  0  0  0  0  0  0  0  0
    0.5766    1.6325    1.6097 N   0  0  0  0  0  0  0  0  0  0  0  0
    1.3082    1.0287    1.9745 H   0  0  0  0  0  0  0  0  0  0  0  0
    0.4961    3.0094    2.0821 C   0  0  0  0  0  0  0  0  0  0  0  0
   -0.4641    3.1888    2.5772 H   0  0  0  0  0  0  0  0  0  0  0  0
    1.2980    3.2115    2.7988 H   0  0  0  0  0  0  0  0  0  0  0  0
    0.5969    3.7087    1.2452 H   0  0  0  0  0  0  0  0  0  0  0  0
  1  2  1  0  0  0  0
  2  3  1  0  0  0  0
  2  4  1  0  0  0  0
  2  5  1  0  0  0  0
  5  6  2  0  0  0  0
  5  7  1  0  0  0  0
  7  8  1  0  0  0  0
  7  9  1  0  0  0  0
  9 10  1  0  0  0  0
  9 11  1  0  0  0  0
  9 21  1  0  0  0  0
 11 12  1  0  0  0  0
 11 13  1  0  0  0  0
 11 14  1  0  0  0  0
 14 15  1  0  0  0  0
 14 16  1  0  0  0  0
 14 17  1  0  0  0  0
 17 18  2  0  0  0  0
 17 19  1  0  0  0  0
 19 20  1  0  0  0  0
 21 22  2  0  0  0  0
 21 23  1  0  0  0  0
 23 24  1  0  0  0  0
 23 25  1  0  0  0  0
 25 26  1  0  0  0  0
 25 27  1  0  0  0  0
 25 28  1  0  0  0  0
M  END
$$$$

  -OEChem-03222214033D

 28 27  0     1  0  0  0  0  0999 V2000
   -3.2306   -3.7608    1.2497 H   0  0  0  0  0  0  0  0  0  0  0  0
   -3.2025   -2.7632    0.8024 C   0  0  0  0  0  0  0  0  0  0  0  0
   -3.8287   -2.0929    1.3963 H   0  0  0  0  0  0  0  0  0  0  0  0
   -3.6031   -2.8209   -0.2126 H   0  0  0  0  0  0  0  0  0  0  0  0
   -1.7769   -2.2455    0.7681 C   0  0  0  0  0  0  0  0  0  0  0  0
   -0.8676   -2.9204    1.2249 O   0  0  0  0  0  0  0  0  0  0  0  0
   -1.5073   -1.0147    0.2090 N   0  0  0  0  0  0  0  0  0  0  0  0
   -2.3041   -0.4383   -0.0592 H   0  0  0  0  0  0  0  0  0  0  0  0
   -0.2022   -0.3434    0.2794 C   0  0  1  0  0  0  0  0  0  0  0  0
    0.3961   -0.7720    1.0895 H   0  0  0  0  0  0  0  0  0  0  0  0
    0.5322   -0.4919   -1.0694 C   0  0  0  0  0  0  0  0  0  0  0  0
   -0.1791   -0.7850   -1.8489 H   0  0  0  0  0  0  0  0  0  0  0  0
    0.9379    0.4797   -1.3753 H   0  0  0  0  0  0  0  0  0  0  0  0
    1.6743   -1.5331   -1.0002 C   0  0  0  0  0  0  0  0  0  0  0  0
    1.7313   -2.0156   -0.0209 H   0  0  0  0  0  0  0  0  0  0  0  0
    1.4732   -2.3247   -1.7273 H   0  0  0  0  0  0  0  0  0  0  0  0
    3.0314   -0.9196   -1.3208 C   0  0  0  0  0  0  0  0  0  0  0  0
    3.4455   -0.0342   -0.5920 O   0  0  0  0  0  0  0  0  0  0  0  0
    3.7068   -1.3735   -2.3978 O   0  0  0  0  0  0  0  0  0  0  0  0
    4.5273   -0.8577   -2.4185 H   0  0  0  0  0  0  0  0  0  0  0  0
   -0.3846    1.1457    0.6397 C   0  0  0  0  0  0  0  0  0  0  0  0
   -1.3164    1.7773    0.1535 O   0  0  0  0  0  0  0  0  0  0  0  0
    0.4219    1.7438    1.5895 N   0  0  0  0  0  0  0  0  0  0  0  0
    1.2259    1.2150    1.9187 H   0  0  0  0  0  0  0  0  0  0  0  0
    0.3012    3.1462    1.9686 C   0  0  0  0  0  0  0  0  0  0  0  0
   -0.6905    3.3455    2.3883 H   0  0  0  0  0  0  0  0  0  0  0  0
    1.0522    3.3999    2.7231 H   0  0  0  0  0  0  0  0  0  0  0  0
    0.4522    3.7936    1.0982 H   0  0  0  0  0  0  0  0  0  0  0  0
  1  2  1  0  0  0  0
  2  3  1  0  0  0  0
  2  4  1  0  0  0  0
  2  5  1  0  0  0  0
  5  6  2  0  0  0  0
  5  7  1  0  0  0  0
  7  8  1  0  0  0  0
  7  9  1  0  0  0  0
  9 10  1  0  0  0  0
  9 11  1  0  0  0  0
  9 21  1  0  0  0  0
 11 12  1  0  0  0  0
 11 13  1  0  0  0  0
 11 14  1  0  0  0  0
 14 15  1  0  0  0  0
 14 16  1  0  0  0  0
 14 17  1  0  0  0  0
 17 18  2  0  0  0  0
 17 19  1  0  0  0  0
 19 20  1  0  0  0  0
 21 22  2  0  0  0  0
 21 23  1  0  0  0  0
 23 24  1  0  0  0  0
 23 25  1  0  0  0  0
 25 26  1  0  0  0  0
 25 27  1  0  0  0  0
 25 28  1  0  0  0  0
M  END
$$$$

  -OEChem-03222214033D

 28 27  0     1  0  0  0  0  0999 V2000
   -3.2535   -3.7442    1.2798 H   0  0  0  0  0  0  0  0  0  0  0  0
   -3.2241   -2.7557    0.8131 C   0  0  0  0  0  0  0  0  0  0  0  0
   -3.8357   -2.0692    1.4034 H   0  0  0  0  0  0  0  0  0  0  0  0
   -3.6400   -2.8291   -0.1946 H   0  0  0  0  0  0  0  0  0  0  0  0
   -1.7953   -2.2510    0.7477 C   0  0  0  0  0  0  0  0  0  0  0  0
   -0.8817   -2.9398    1.1742 O   0  0  0  0  0  0  0  0  0  0  0  0
   -1.5302   -1.0156    0.1964 N   0  0  0  0  0  0  0  0  0  0  0  0
   -2.3305   -0.4315   -0.0433 H   0  0  0  0  0  0  0  0  0  0  0  0
   -0.2230   -0.3464    0.2538 C   0  0  1  0  0  0  0  0  0  0  0  0
    0.3792   -0.7845    1.0568 H   0  0  0  0  0  0  0  0  0  0  0  0
    0.5151   -0.4873   -1.0924 C   0  0  0  0  0  0  0  0  0  0  0  0
   -0.1977   -0.8024   -1.8621 H   0  0  0  0  0  0  0  0  0  0  0  0
    0.9147    0.4803   -1.4188 H   0  0  0  0  0  0  0  0  0  0  0  0
    1.6531   -1.5272   -1.0001 C   0  0  0  0  0  0  0  0  0  0  0  0
    1.5279   -2.1992   -0.1463 H   0  0  0  0  0  0  0  0  0  0  0  0
    1.6279   -2.1505   -1.8979 H   0  0  0  0  0  0  0  0  0  0  0  0
    3.0228   -0.8618   -0.9366 C   0  0  0  0  0  0  0  0  0  0  0  0
    3.2090   -0.0171   -0.0753 O   0  0  0  0  0  0  0  0  0  0  0  0
    3.9614   -1.2276   -1.8356 O   0  0  0  0  0  0  0  0  0  0  0  0
    4.7422   -0.6950   -1.6204 H   0  0  0  0  0  0  0  0  0  0  0  0
   -0.3825    1.1405    0.6291 C   0  0  0  0  0  0  0  0  0  0  0  0
   -1.3242    1.7829    0.1770 O   0  0  0  0  0  0  0  0  0  0  0  0
    0.4502    1.7153    1.5702 N   0  0  0  0  0  0  0  0  0  0  0  0
    1.2829    1.1899    1.8294 H   0  0  0  0  0  0  0  0  0  0  0  0
    0.3553    3.1145    1.9664 C   0  0  0  0  0  0  0  0  0  0  0  0
   -0.6330    3.3276    2.3875 H   0  0  0  0  0  0  0  0  0  0  0  0
    1.1092    3.3439    2.7256 H   0  0  0  0  0  0  0  0  0  0  0  0
    0.5202    3.7691    1.1042 H   0  0  0  0  0  0  0  0  0  0  0  0
  1  2  1  0  0  0  0
  2  3  1  0  0  0  0
  2  4  1  0  0  0  0
  2  5  1  0  0  0  0
  5  6  2  0  0  0  0
  5  7  1  0  0  0  0
  7  8  1  0  0  0  0
  7  9  1  0  0  0  0
  9 10  1  0  0  0  0
  9 11  1  0  0  0  0
  9 21  1  0  0  0  0
 11 12  1  0  0  0  0
 11 13  1  0  0  0  0
 11 14  1  0  0  0  0
 14 15  1  0  0  0  0
 14 16  1  0  0  0  0
 14 17  1  0  0  0  0
 17 18  2  0  0  0  0
 17 19  1  0  0  0  0
 19 20  1  0  0  0  0
 21 22  2  0  0  0  0
 21 23  1  0  0  0  0
 23 24  1  0  0  0  0
 23 25  1  0  0  0  0
 25 26  1  0  0  0  0
 25 27  1  0  0  0  0
 25 28  1  0  0  0  0
M  END
$$$$

  -OEChem-03222214033D

 28 27  0     1  0  0  0  0  0999 V2000
   -3.2492   -3.7479    1.2961 H   0  0  0  0  0  0  0  0  0  0  0  0
   -3.2288   -2.7654    0.8163 C   0  0  0  0  0  0  0  0  0  0  0  0
   -3.8346   -2.0733    1.4061 H   0  0  0  0  0  0  0  0  0  0  0  0
   -3.6579   -2.8525   -0.1848 H   0  0  0  0  0  0  0  0  0  0  0  0
   -1.8020   -2.2581    0.7259 C   0  0  0  0  0  0  0  0  0  0  0  0
   -0.8800   -2.9538    1.1217 O   0  0  0  0  0  0  0  0  0  0  0  0
   -1.5493   -1.0138    0.1881 N   0  0  0  0  0  0  0  0  0  0  0  0
   -2.3552   -0.4274   -0.0256 H   0  0  0  0  0  0  0  0  0  0  0  0
   -0.2436   -0.3400    0.2323 C   0  0  1  0  0  0  0  0  0  0  0  0
    0.3642   -0.7919    1.0237 H   0  0  0  0  0  0  0  0  0  0  0  0
    0.4922   -0.4696   -1.1155 C   0  0  0  0  0  0  0  0  0  0  0  0
   -0.2200   -0.7911   -1.8828 H   0  0  0  0  0  0  0  0  0  0  0  0
    0.8913    0.4984   -1.4412 H   0  0  0  0  0  0  0  0  0  0  0  0
    1.6333   -1.5022   -1.0164 C   0  0  0  0  0  0  0  0  0  0  0  0
    1.3748   -2.3191   -0.3364 H   0  0  0  0  0  0  0  0  0  0  0  0
    1.7886   -1.9436   -2.0044 H   0  0  0  0  0  0  0  0  0  0  0  0
    2.9521   -0.8647   -0.5837 C   0  0  0  0  0  0  0  0  0  0  0  0
    2.9341   -0.0253    0.3044 O   0  0  0  0  0  0  0  0  0  0  0  0
    4.0821   -1.2599   -1.2075 O   0  0  0  0  0  0  0  0  0  0  0  0
    4.7957   -0.7534   -0.7907 H   0  0  0  0  0  0  0  0  0  0  0  0
   -0.3860    1.1415    0.6302 C   0  0  0  0  0  0  0  0  0  0  0  0
   -1.3390    1.7935    0.2169 O   0  0  0  0  0  0  0  0  0  0  0  0
    0.4732    1.6907    1.5620 N   0  0  0  0  0  0  0  0  0  0  0  0
    1.3299    1.1687    1.7467 H   0  0  0  0  0  0  0  0  0  0  0  0
    0.4024    3.0846    1.9804 C   0  0  0  0  0  0  0  0  0  0  0  0
   -0.5784    3.3053    2.4145 H   0  0  0  0  0  0  0  0  0  0  0  0
    1.1666    3.2908    2.7359 H   0  0  0  0  0  0  0  0  0  0  0  0
    0.5681    3.7504    1.1271 H   0  0  0  0  0  0  0  0  0  0  0  0
  1  2  1  0  0  0  0
  2  3  1  0  0  0  0
  2  4  1  0  0  0  0
  2  5  1  0  0  0  0
  5  6  2  0  0  0  0
  5  7  1  0  0  0  0
  7  8  1  0  0  0  0
  7  9  1  0  0  0  0
  9 10  1  0  0  0  0
  9 11  1  0  0  0  0
  9 21  1  0  0  0  0
 11 12  1  0  0  0  0
 11 13  1  0  0  0  0
 11 14  1  0  0  0  0
 14 15  1  0  0  0  0
 14 16  1  0  0  0  0
 14 17  1  0  0  0  0
 17 18  2  0  0  0  0
 17 19  1  0  0  0  0
 19 20  1  0  0  0  0
 21 22  2  0  0  0  0
 21 23  1  0  0  0  0
 23 24  1  0  0  0  0
 23 25  1  0  0  0  0
 25 26  1  0  0  0  0
 25 27  1  0  0  0  0
 25 28  1  0  0  0  0
M  END
$$$$

  -OEChem-03222214033D

 28 27  0     1  0  0  0  0  0999 V2000
   -3.2163   -3.7607    1.3067 H   0  0  0  0  0  0  0  0  0  0  0  0
   -3.2047   -2.7866    0.8098 C   0  0  0  0  0  0  0  0  0  0  0  0
   -3.8250   -2.0926    1.3821 H   0  0  0  0  0  0  0  0  0  0  0  0
   -3.6234   -2.8969   -0.1933 H   0  0  0  0  0  0  0  0  0  0  0  0
   -1.7841   -2.2618    0.7221 C   0  0  0  0  0  0  0  0  0  0  0  0
   -0.8516   -2.9559    1.0958 O   0  0  0  0  0  0  0  0  0  0  0  0
   -1.5488   -1.0083    0.1983 N   0  0  0  0  0  0  0  0  0  0  0  0
   -2.3628   -0.4271    0.0023 H   0  0  0  0  0  0  0  0  0  0  0  0
   -0.2501   -0.3212    0.2386 C   0  0  1  0  0  0  0  0  0  0  0  0
    0.3638   -0.7816    1.0197 H   0  0  0  0  0  0  0  0  0  0  0  0
    0.4707   -0.4380   -1.1200 C   0  0  0  0  0  0  0  0  0  0  0  0
   -0.2468   -0.7493   -1.8865 H   0  0  0  0  0  0  0  0  0  0  0  0
    0.8662    0.5356   -1.4314 H   0  0  0  0  0  0  0  0  0  0  0  0
    1.6263   -1.4582   -1.0583 C   0  0  0  0  0  0  0  0  0  0  0  0
    1.2837   -2.3846   -0.5881 H   0  0  0  0  0  0  0  0  0  0  0  0
    1.9275   -1.7031   -2.0800 H   0  0  0  0  0  0  0  0  0  0  0  0
    2.8710   -0.9580   -0.3187 C   0  0  0  0  0  0  0  0  0  0  0  0
    2.7855   -0.0180    0.4583 O   0  0  0  0  0  0  0  0  0  0  0  0
    4.0307   -1.6000   -0.5731 O   0  0  0  0  0  0  0  0  0  0  0  0
    4.6941   -1.1631   -0.0178 H   0  0  0  0  0  0  0  0  0  0  0  0
   -0.4028    1.1542    0.6565 C   0  0  0  0  0  0  0  0  0  0  0  0
   -1.3696    1.7998    0.2657 O   0  0  0  0  0  0  0  0  0  0  0  0
    0.4605    1.6996    1.5864 N   0  0  0  0  0  0  0  0  0  0  0  0
    1.3322    1.1890    1.7344 H   0  0  0  0  0  0  0  0  0  0  0  0
    0.3904    3.0924    2.0082 C   0  0  0  0  0  0  0  0  0  0  0  0
   -0.5891    3.3120    2.4459 H   0  0  0  0  0  0  0  0  0  0  0  0
    1.1570    3.2973    2.7618 H   0  0  0  0  0  0  0  0  0  0  0  0
    0.5532    3.7597    1.1554 H   0  0  0  0  0  0  0  0  0  0  0  0
  1  2  1  0  0  0  0
  2  3  1  0  0  0  0
  2  4  1  0  0  0  0
  2  5  1  0  0  0  0
  5  6  2  0  0  0  0
  5  7  1  0  0  0  0
  7  8  1  0  0  0  0
  7  9  1  0  0  0  0
  9 10  1  0  0  0  0
  9 11  1  0  0  0  0
  9 21  1  0  0  0  0
 11 12  1  0  0  0  0
 11 13  1  0  0  0  0
 11 14  1  0  0  0  0
 14 15  1  0  0  0  0
 14 16  1  0  0  0  0
 14 17  1  0  0  0  0
 17 18  2  0  0  0  0
 17 19  1  0  0  0  0
 19 20  1  0  0  0  0
 21 22  2  0  0  0  0
 21 23  1  0  0  0  0
 23 24  1  0  0  0  0
 23 25  1  0  0  0  0
 25 26  1  0  0  0  0
 25 27  1  0  0  0  0
 25 28  1  0  0  0  0
M  END
$$$$

  -OEChem-03222214033D

 28 27  0     1  0  0  0  0  0999 V2000
   -3.1729   -3.7852    1.2990 H   0  0  0  0  0  0  0  0  0  0  0  0
   -3.1778   -2.7996    0.8252 C   0  0  0  0  0  0  0  0  0  0  0  0
   -3.7863   -2.1226    1.4296 H   0  0  0  0  0  0  0  0  0  0  0  0
   -3.6212   -2.8879   -0.1696 H   0  0  0  0  0  0  0  0  0  0  0  0
   -1.7621   -2.2658    0.7150 C   0  0  0  0  0  0  0  0  0  0  0  0
   -0.8187   -2.9553    1.0695 O   0  0  0  0  0  0  0  0  0  0  0  0
   -1.5430   -1.0072    0.1962 N   0  0  0  0  0  0  0  0  0  0  0  0
   -2.3641   -0.4314    0.0141 H   0  0  0  0  0  0  0  0  0  0  0  0
   -0.2511   -0.3073    0.2375 C   0  0  1  0  0  0  0  0  0  0  0  0
    0.3588   -0.7680    1.0200 H   0  0  0  0  0  0  0  0  0  0  0  0
    0.4673   -0.4190   -1.1249 C   0  0  0  0  0  0  0  0  0  0  0  0
   -0.2493   -0.7158   -1.8979 H   0  0  0  0  0  0  0  0  0  0  0  0
    0.8607    0.5617   -1.4157 H   0  0  0  0  0  0  0  0  0  0  0  0
    1.6405   -1.4234   -1.0991 C   0  0  0  0  0  0  0  0  0  0  0  0
    1.2476   -2.4156   -0.8575 H   0  0  0  0  0  0  0  0  0  0  0  0
    2.0830   -1.4783   -2.0967 H   0  0  0  0  0  0  0  0  0  0  0  0
    2.7637   -1.1097   -0.1038 C   0  0  0  0  0  0  0  0  0  0  0  0
    2.7489   -0.0675    0.5357 O   0  0  0  0  0  0  0  0  0  0  0  0
    3.7516   -2.0230    0.0016 O   0  0  0  0  0  0  0  0  0  0  0  0
    4.3601   -1.6703    0.6682 H   0  0  0  0  0  0  0  0  0  0  0  0
   -0.4150    1.1648    0.6626 C   0  0  0  0  0  0  0  0  0  0  0  0
   -1.3892    1.8036    0.2794 O   0  0  0  0  0  0  0  0  0  0  0  0
    0.4466    1.7119    1.5931 N   0  0  0  0  0  0  0  0  0  0  0  0
    1.3209    1.2056    1.7401 H   0  0  0  0  0  0  0  0  0  0  0  0
    0.3620    3.0985    2.0323 C   0  0  0  0  0  0  0  0  0  0  0  0
   -0.6244    3.3056    2.4605 H   0  0  0  0  0  0  0  0  0  0  0  0
    1.1173    3.2980    2.7986 H   0  0  0  0  0  0  0  0  0  0  0  0
    0.5308    3.7784    1.1908 H   0  0  0  0  0  0  0  0  0  0  0  0
  1  2  1  0  0  0  0
  2  3  1  0  0  0  0
  2  4  1  0  0  0  0
  2  5  1  0  0  0  0
  5  6  2  0  0  0  0
  5  7  1  0  0  0  0
  7  8  1  0  0  0  0
  7  9  1  0  0  0  0
  9 10  1  0  0  0  0
  9 11  1  0  0  0  0
  9 21  1  0  0  0  0
 11 12  1  0  0  0  0
 11 13  1  0  0  0  0
 11 14  1  0  0  0  0
 14 15  1  0  0  0  0
 14 16  1  0  0  0  0
 14 17  1  0  0  0  0
 17 18  2  0  0  0  0
 17 19  1  0  0  0  0
 19 20  1  0  0  0  0
 21 22  2  0  0  0  0
 21 23  1  0  0  0  0
 23 24  1  0  0  0  0
 23 25  1  0  0  0  0
 25 26  1  0  0  0  0
 25 27  1  0  0  0  0
 25 28  1  0  0  0  0
M  END
$$$$

  -OEChem-03222214033D

 28 27  0     1  0  0  0  0  0999 V2000
   -3.1519   -3.8055    1.2976 H   0  0  0  0  0  0  0  0  0  0  0  0
   -3.1627   -2.8251    0.8132 C   0  0  0  0  0  0  0  0  0  0  0  0
   -3.7957   -2.1517    1.3962 H   0  0  0  0  0  0  0  0  0  0  0  0
   -3.5824   -2.9318   -0.1899 H   0  0  0  0  0  0  0  0  0  0  0  0
   -1.7539   -2.2690    0.7281 C   0  0  0  0  0  0  0  0  0  0  0  0
   -0.8069   -2.9422    1.1034 O   0  0  0  0  0  0  0  0  0  0  0  0
   -1.5442   -1.0093    0.2076 N   0  0  0  0  0  0  0  0  0  0  0  0
   -2.3698   -0.4469    0.0062 H   0  0  0  0  0  0  0  0  0  0  0  0
   -0.2602   -0.2959    0.2555 C   0  0  1  0  0  0  0  0  0  0  0  0
    0.3343   -0.7491    1.0517 H   0  0  0  0  0  0  0  0  0  0  0  0
    0.4653   -0.4166   -1.1052 C   0  0  0  0  0  0  0  0  0  0  0  0
   -0.2487   -0.7031   -1.8844 H   0  0  0  0  0  0  0  0  0  0  0  0
    0.8546    0.5695   -1.3828 H   0  0  0  0  0  0  0  0  0  0  0  0
    1.6588   -1.4019   -1.1144 C   0  0  0  0  0  0  0  0  0  0  0  0
    1.2535   -2.4181   -1.1155 H   0  0  0  0  0  0  0  0  0  0  0  0
    2.2287   -1.2733   -2.0379 H   0  0  0  0  0  0  0  0  0  0  0  0
    2.6292   -1.3118    0.0677 C   0  0  0  0  0  0  0  0  0  0  0  0
    2.7375   -0.2598    0.6820 O   0  0  0  0  0  0  0  0  0  0  0  0
    3.3571   -2.4119    0.3533 O   0  0  0  0  0  0  0  0  0  0  0  0
    3.8959   -2.1756    1.1230 H   0  0  0  0  0  0  0  0  0  0  0  0
   -0.4265    1.1767    0.6743 C   0  0  0  0  0  0  0  0  0  0  0  0
   -1.3916    1.8196    0.2759 O   0  0  0  0  0  0  0  0  0  0  0  0
    0.4334    1.7234    1.6065 N   0  0  0  0  0  0  0  0  0  0  0  0
    1.2924    1.2014    1.7843 H   0  0  0  0  0  0  0  0  0  0  0  0
    0.3553    3.1116    2.0414 C   0  0  0  0  0  0  0  0  0  0  0  0
   -0.6305    3.3253    2.4677 H   0  0  0  0  0  0  0  0  0  0  0  0
    1.1110    3.3099    2.8076 H   0  0  0  0  0  0  0  0  0  0  0  0
    0.5289    3.7879    1.1979 H   0  0  0  0  0  0  0  0  0  0  0  0
  1  2  1  0  0  0  0
  2  3  1  0  0  0  0
  2  4  1  0  0  0  0
  2  5  1  0  0  0  0
  5  6  2  0  0  0  0
  5  7  1  0  0  0  0
  7  8  1  0  0  0  0
  7  9  1  0  0  0  0
  9 10  1  0  0  0  0
  9 11  1  0  0  0  0
  9 21  1  0  0  0  0
 11 12  1  0  0  0  0
 11 13  1  0  0  0  0
 11 14  1  0  0  0  0
 14 15  1  0  0  0  0
 14 16  1  0  0  0  0
 14 17  1  0  0  0  0
 17 18  2  0  0  0  0
 17 19  1  0  0  0  0
 19 20  1  0  0  0  0
 21 22  2  0  0  0  0
 21 23  1  0  0  0  0
 23 24  1  0  0  0  0
 23 25  1  0  0  0  0
 25 26  1  0  0  0  0
 25 27  1  0  0  0  0
 25 28  1  0  0  0  0
M  END
$$$$

  -OEChem-03222214033D

 28 27  0     1  0  0  0  0  0999 V2000
   -3.1475   -3.8124    1.2813 H   0  0  0  0  0  0  0  0  0  0  0  0
   -3.1535   -2.8291    0.8025 C   0  0  0  0  0  0  0  0  0  0  0  0
   -3.8076   -2.1643    1.3719 H   0  0  0  0  0  0  0  0  0  0  0  0
   -3.5450   -2.9339   -0.2122 H   0  0  0  0  0  0  0  0  0  0  0  0
   -1.7478   -2.2608    0.7583 C   0  0  0  0  0  0  0  0  0  0  0  0
   -0.8102   -2.9168    1.1836 O   0  0  0  0  0  0  0  0  0  0  0  0
   -1.5306   -1.0082    0.2235 N   0  0  0  0  0  0  0  0  0  0  0  0
   -2.3521   -0.4560   -0.0185 H   0  0  0  0  0  0  0  0  0  0  0  0
   -0.2494   -0.2909    0.2850 C   0  0  1  0  0  0  0  0  0  0  0  0
    0.3298   -0.7260    1.0997 H   0  0  0  0  0  0  0  0  0  0  0  0
    0.4827   -0.4262   -1.0749 C   0  0  0  0  0  0  0  0  0  0  0  0
   -0.2327   -0.6974   -1.8584 H   0  0  0  0  0  0  0  0  0  0  0  0
    0.8743    0.5613   -1.3431 H   0  0  0  0  0  0  0  0  0  0  0  0
    1.6859   -1.4032   -1.1214 C   0  0  0  0  0  0  0  0  0  0  0  0
    1.2937   -2.3898   -1.3848 H   0  0  0  0  0  0  0  0  0  0  0  0
    2.3713   -1.1023   -1.9175 H   0  0  0  0  0  0  0  0  0  0  0  0
    2.4893   -1.5886    0.1672 C   0  0  0  0  0  0  0  0  0  0  0  0
    2.7535   -0.6042    0.8429 O   0  0  0  0  0  0  0  0  0  0  0  0
    2.9081   -2.8342    0.4754 O   0  0  0  0  0  0  0  0  0  0  0  0
    3.3623   -2.7529    1.3271 H   0  0  0  0  0  0  0  0  0  0  0  0
   -0.4302    1.1864    0.6793 C   0  0  0  0  0  0  0  0  0  0  0  0
   -1.3772    1.8264    0.2361 O   0  0  0  0  0  0  0  0  0  0  0  0
    0.4079    1.7521    1.6206 N   0  0  0  0  0  0  0  0  0  0  0  0
    1.2322    1.2123    1.8835 H   0  0  0  0  0  0  0  0  0  0  0  0
    0.3099    3.1425    2.0450 C   0  0  0  0  0  0  0  0  0  0  0  0
   -0.6829    3.3474    2.4592 H   0  0  0  0  0  0  0  0  0  0  0  0
    1.0555    3.3548    2.8173 H   0  0  0  0  0  0  0  0  0  0  0  0
    0.4850    3.8148    1.1987 H   0  0  0  0  0  0  0  0  0  0  0  0
  1  2  1  0  0  0  0
  2  3  1  0  0  0  0
  2  4  1  0  0  0  0
  2  5  1  0  0  0  0
  5  6  2  0  0  0  0
  5  7  1  0  0  0  0
  7  8  1  0  0  0  0
  7  9  1  0  0  0  0
  9 10  1  0  0  0  0
  9 11  1  0  0  0  0
  9 21  1  0  0  0  0
 11 12  1  0  0  0  0
 11 13  1  0  0  0  0
 11 14  1  0  0  0  0
 14 15  1  0  0  0  0
 14 16  1  0  0  0  0
 14 17  1  0  0  0  0
 17 18  2  0  0  0  0
 17 19  1  0  0  0  0
 19 20  1  0  0  0  0
 21 22  2  0  0  0  0
 21 23  1  0  0  0  0
 23 24  1  0  0  0  0
 23 25  1  0  0  0  0
 25 26  1  0  0  0  0
 25 27  1  0  0  0  0
 25 28  1  0  0  0  0
M  END
$$$$

  -OEChem-03222214033D

 28 27  0     1  0  0  0  0  0999 V2000
   -3.2232   -4.0588    0.6772 H   0  0  0  0  0  0  0  0  0  0  0  0
   -3.2545   -2.9670    0.7318 C   0  0  0  0  0  0  0  0  0  0  0  0
   -3.4055   -2.6718    1.7730 H   0  0  0  0  0  0  0  0  0  0  0  0
   -4.0951   -2.6094    0.1324 H   0  0  0  0  0  0  0  0  0  0  0  0
   -1.9574   -2.3780    0.2095 C   0  0  0  0  0  0  0  0  0  0  0  0
   -1.0614   -3.1377   -0.1187 O   0  0  0  0  0  0  0  0  0  0  0  0
   -1.8283   -1.0004    0.1751 N   0  0  0  0  0  0  0  0  0  0  0  0
   -2.5967   -0.4868    0.6048 H   0  0  0  0  0  0  0  0  0  0  0  0
   -0.6827   -0.1601   -0.2366 C   0  0  1  0  0  0  0  0  0  0  0  0
   -1.1840    0.4484   -0.9974 H   0  0  0  0  0  0  0  0  0  0  0  0
    0.3517   -0.8451   -1.1942 C   0  0  0  0  0  0  0  0  0  0  0  0
   -0.1431   -1.6251   -1.7796 H   0  0  0  0  0  0  0  0  0  0  0  0
    0.5940   -0.0643   -1.9237 H   0  0  0  0  0  0  0  0  0  0  0  0
    1.7457   -1.3659   -0.7486 C   0  0  0  0  0  0  0  0  0  0  0  0
    1.6697   -2.4563   -0.6985 H   0  0  0  0  0  0  0  0  0  0  0  0
    2.4736   -1.1387   -1.5331 H   0  0  0  0  0  0  0  0  0  0  0  0
    2.3341   -0.9433    0.5832 C   0  0  0  0  0  0  0  0  0  0  0  0
    3.1671   -0.0531    0.5776 O   0  0  0  0  0  0  0  0  0  0  0  0
    1.8995   -1.5489    1.7080 O   0  0  0  0  0  0  0  0  0  0  0  0
    2.3920   -1.1463    2.4384 H   0  0  0  0  0  0  0  0  0  0  0  0
   -0.4063    1.0037    0.7606 C   0  0  0  0  0  0  0  0  0  0  0  0
   -1.4004    1.5542    1.2233 O   0  0  0  0  0  0  0  0  0  0  0  0
    0.8130    1.4192    1.2601 N   0  0  0  0  0  0  0  0  0  0  0  0
    1.6571    1.0540    0.8221 H   0  0  0  0  0  0  0  0  0  0  0  0
    0.9646    2.5027    2.2248 C   0  0  0  0  0  0  0  0  0  0  0  0
    0.4347    2.2668    3.1535 H   0  0  0  0  0  0  0  0  0  0  0  0
    2.0231    2.6504    2.4602 H   0  0  0  0  0  0  0  0  0  0  0  0
    0.5666    3.4384    1.8186 H   0  0  0  0  0  0  0  0  0  0  0  0
  1  2  1  0  0  0  0
  2  3  1  0  0  0  0
  2  4  1  0  0  0  0
  2  5  1  0  0  0  0
  5  6  2  0  0  0  0
  5  7  1  0  0  0  0
  7  8  1  0  0  0  0
  7  9  1  0  0  0  0
  9 10  1  0  0  0  0
  9 11  1  0  0  0  0
  9 21  1  0  0  0  0
 11 12  1  0  0  0  0
 11 13  1  0  0  0  0
 11 14  1  0  0  0  0
 14 15  1  0  0  0  0
 14 16  1  0  0  0  0
 14 17  1  0  0  0  0
 17 18  2  0  0  0  0
 17 19  1  0  0  0  0
 19 20  1  0  0  0  0
 21 22  2  0  0  0  0
 21 23  1  0  0  0  0
 23 24  1  0  0  0  0
 23 25  1  0  0  0  0
 25 26  1  0  0  0  0
 25 27  1  0  0  0  0
 25 28  1  0  0  0  0
M  END
$$$$

  -OEChem-03222214033D

 28 27  0     1  0  0  0  0  0999 V2000
   -3.1676   -3.8004    1.2526 H   0  0  0  0  0  0  0  0  0  0  0  0
   -3.1369   -2.8170    0.7754 C   0  0  0  0  0  0  0  0  0  0  0  0
   -3.8425   -2.1560    1.2843 H   0  0  0  0  0  0  0  0  0  0  0  0
   -3.4362   -2.9242   -0.2699 H   0  0  0  0  0  0  0  0  0  0  0  0
   -1.7364   -2.2403    0.8570 C   0  0  0  0  0  0  0  0  0  0  0  0
   -0.8622   -2.8461    1.4559 O   0  0  0  0  0  0  0  0  0  0  0  0
   -1.4678   -1.0160    0.2815 N   0  0  0  0  0  0  0  0  0  0  0  0
   -2.2567   -0.4912   -0.0933 H   0  0  0  0  0  0  0  0  0  0  0  0
   -0.1779   -0.3151    0.3589 C   0  0  1  0  0  0  0  0  0  0  0  0
    0.4094   -0.7098    1.1885 H   0  0  0  0  0  0  0  0  0  0  0  0
    0.5541   -0.4462   -1.0071 C   0  0  0  0  0  0  0  0  0  0  0  0
   -0.1796   -0.7065   -1.7776 H   0  0  0  0  0  0  0  0  0  0  0  0
    0.9419    0.5408   -1.2832 H   0  0  0  0  0  0  0  0  0  0  0  0
    1.7496   -1.4328   -1.1129 C   0  0  0  0  0  0  0  0  0  0  0  0
    1.5231   -2.1627   -1.8951 H   0  0  0  0  0  0  0  0  0  0  0  0
    2.6364   -0.8822   -1.4387 H   0  0  0  0  0  0  0  0  0  0  0  0
    2.1308   -2.2143    0.1395 C   0  0  0  0  0  0  0  0  0  0  0  0
    2.6817   -1.6155    1.0495 O   0  0  0  0  0  0  0  0  0  0  0  0
    1.8546   -3.5347    0.1696 O   0  0  0  0  0  0  0  0  0  0  0  0
    2.0320   -3.8133    1.0810 H   0  0  0  0  0  0  0  0  0  0  0  0
   -0.4045    1.1747    0.6864 C   0  0  0  0  0  0  0  0  0  0  0  0
   -1.3029    1.7940    0.1272 O   0  0  0  0  0  0  0  0  0  0  0  0
    0.3725    1.8054    1.6394 N   0  0  0  0  0  0  0  0  0  0  0  0
    1.1023    1.2560    2.0883 H   0  0  0  0  0  0  0  0  0  0  0  0
    0.2038    3.2032    2.0160 C   0  0  0  0  0  0  0  0  0  0  0  0
   -0.8023    3.3753    2.4126 H   0  0  0  0  0  0  0  0  0  0  0  0
    0.9302    3.4774    2.7871 H   0  0  0  0  0  0  0  0  0  0  0  0
    0.3572    3.8545    1.1492 H   0  0  0  0  0  0  0  0  0  0  0  0
  1  2  1  0  0  0  0
  2  3  1  0  0  0  0
  2  4  1  0  0  0  0
  2  5  1  0  0  0  0
  5  6  2  0  0  0  0
  5  7  1  0  0  0  0
  7  8  1  0  0  0  0
  7  9  1  0  0  0  0
  9 10  1  0  0  0  0
  9 11  1  0  0  0  0
  9 21  1  0  0  0  0
 11 12  1  0  0  0  0
 11 13  1  0  0  0  0
 11 14  1  0  0  0  0
 14 15  1  0  0  0  0
 14 16  1  0  0  0  0
 14 17  1  0  0  0  0
 17 18  2  0  0  0  0
 17 19  1  0  0  0  0
 19 20  1  0  0  0  0
 21 22  2  0  0  0  0
 21 23  1  0  0  0  0
 23 24  1  0  0  0  0
 23 25  1  0  0  0  0
 25 26  1  0  0  0  0
 25 27  1  0  0  0  0
 25 28  1  0  0  0  0
M  END
$$$$

  -OEChem-03222214033D

 28 27  0     1  0  0  0  0  0999 V2000
   -3.1684   -3.8085    1.2338 H   0  0  0  0  0  0  0  0  0  0  0  0
   -3.1194   -2.8297    0.7487 C   0  0  0  0  0  0  0  0  0  0  0  0
   -3.8502   -2.1666    1.2179 H   0  0  0  0  0  0  0  0  0  0  0  0
   -3.3699   -2.9484   -0.3082 H   0  0  0  0  0  0  0  0  0  0  0  0
   -1.7264   -2.2461    0.8882 C   0  0  0  0  0  0  0  0  0  0  0  0
   -0.8869   -2.8331    1.5523 O   0  0  0  0  0  0  0  0  0  0  0  0
   -1.4370   -1.0310    0.3025 N   0  0  0  0  0  0  0  0  0  0  0  0
   -2.2108   -0.5224   -0.1227 H   0  0  0  0  0  0  0  0  0  0  0  0
   -0.1434   -0.3341    0.3728 C   0  0  1  0  0  0  0  0  0  0  0  0
    0.4586   -0.7226    1.1971 H   0  0  0  0  0  0  0  0  0  0  0  0
    0.5871   -0.4571   -0.9965 C   0  0  0  0  0  0  0  0  0  0  0  0
   -0.1527   -0.7404   -1.7531 H   0  0  0  0  0  0  0  0  0  0  0  0
    0.9624    0.5283   -1.2950 H   0  0  0  0  0  0  0  0  0  0  0  0
    1.7782   -1.4457   -1.0981 C   0  0  0  0  0  0  0  0  0  0  0  0
    1.7117   -1.9883   -2.0449 H   0  0  0  0  0  0  0  0  0  0  0  0
    2.7082   -0.8707   -1.1223 H   0  0  0  0  0  0  0  0  0  0  0  0
    1.9095   -2.4637    0.0264 C   0  0  0  0  0  0  0  0  0  0  0  0
    2.5168   -2.1389    1.0332 O   0  0  0  0  0  0  0  0  0  0  0  0
    1.3360   -3.6720   -0.1501 O   0  0  0  0  0  0  0  0  0  0  0  0
    1.3409   -4.0807    0.7306 H   0  0  0  0  0  0  0  0  0  0  0  0
   -0.3806    1.1585    0.6818 C   0  0  0  0  0  0  0  0  0  0  0  0
   -1.2729    1.7681    0.1024 O   0  0  0  0  0  0  0  0  0  0  0  0
    0.3872    1.8086    1.6295 N   0  0  0  0  0  0  0  0  0  0  0  0
    1.0878    1.2605    2.1231 H   0  0  0  0  0  0  0  0  0  0  0  0
    0.1798    3.2004    2.0102 C   0  0  0  0  0  0  0  0  0  0  0  0
   -0.8293    3.3414    2.4118 H   0  0  0  0  0  0  0  0  0  0  0  0
    0.9016    3.4945    2.7783 H   0  0  0  0  0  0  0  0  0  0  0  0
    0.3098    3.8583    1.1443 H   0  0  0  0  0  0  0  0  0  0  0  0
  1  2  1  0  0  0  0
  2  3  1  0  0  0  0
  2  4  1  0  0  0  0
  2  5  1  0  0  0  0
  5  6  2  0  0  0  0
  5  7  1  0  0  0  0
  7  8  1  0  0  0  0
  7  9  1  0  0  0  0
  9 10  1  0  0  0  0
  9 11  1  0  0  0  0
  9 21  1  0  0  0  0
 11 12  1  0  0  0  0
 11 13  1  0  0  0  0
 11 14  1  0  0  0  0
 14 15  1  0  0  0  0
 14 16  1  0  0  0  0
 14 17  1  0  0  0  0
 17 18  2  0  0  0  0
 17 19  1  0  0  0  0
 19 20  1  0  0  0  0
 21 22  2  0  0  0  0
 21 23  1  0  0  0  0
 23 24  1  0  0  0  0
 23 25  1  0  0  0  0
 25 26  1  0  0  0  0
 25 27  1  0  0  0  0
 25 28  1  0  0  0  0
M  END
$$$$

  -OEChem-03222214033D

 28 27  0     1  0  0  0  0  0999 V2000
   -3.1349   -3.8443    1.2770 H   0  0  0  0  0  0  0  0  0  0  0  0
   -3.0906   -2.8668    0.7886 C   0  0  0  0  0  0  0  0  0  0  0  0
   -3.8282   -2.2073    1.2523 H   0  0  0  0  0  0  0  0  0  0  0  0
   -3.3356   -2.9913   -0.2690 H   0  0  0  0  0  0  0  0  0  0  0  0
   -1.7023   -2.2729    0.9317 C   0  0  0  0  0  0  0  0  0  0  0  0
   -0.8638   -2.8533    1.6019 O   0  0  0  0  0  0  0  0  0  0  0  0
   -1.4212   -1.0587    0.3404 N   0  0  0  0  0  0  0  0  0  0  0  0
   -2.1993   -0.5697   -0.0993 H   0  0  0  0  0  0  0  0  0  0  0  0
   -0.1319   -0.3481    0.3715 C   0  0  1  0  0  0  0  0  0  0  0  0
    0.5072   -0.7397    1.1687 H   0  0  0  0  0  0  0  0  0  0  0  0
    0.5626   -0.4675   -1.0160 C   0  0  0  0  0  0  0  0  0  0  0  0
   -0.1905   -0.7752   -1.7498 H   0  0  0  0  0  0  0  0  0  0  0  0
    0.9189    0.5177   -1.3375 H   0  0  0  0  0  0  0  0  0  0  0  0
    1.7564   -1.4464   -1.1161 C   0  0  0  0  0  0  0  0  0  0  0  0
    1.8411   -1.8113   -2.1429 H   0  0  0  0  0  0  0  0  0  0  0  0
    2.6760   -0.8994   -0.8886 H   0  0  0  0  0  0  0  0  0  0  0  0
    1.6935   -2.6451   -0.1815 C   0  0  0  0  0  0  0  0  0  0  0  0
    2.3509   -2.6047    0.8442 O   0  0  0  0  0  0  0  0  0  0  0  0
    0.9055   -3.6836   -0.5295 O   0  0  0  0  0  0  0  0  0  0  0  0
    0.8483   -4.2194    0.2795 H   0  0  0  0  0  0  0  0  0  0  0  0
   -0.3742    1.1437    0.6814 C   0  0  0  0  0  0  0  0  0  0  0  0
   -1.2791    1.7460    0.1144 O   0  0  0  0  0  0  0  0  0  0  0  0
    0.4133    1.8054    1.6047 N   0  0  0  0  0  0  0  0  0  0  0  0
    1.1111    1.2591    2.1035 H   0  0  0  0  0  0  0  0  0  0  0  0
    0.2031    3.1976    1.9828 C   0  0  0  0  0  0  0  0  0  0  0  0
   -0.7956    3.3321    2.4111 H   0  0  0  0  0  0  0  0  0  0  0  0
    0.9432    3.5029    2.7287 H   0  0  0  0  0  0  0  0  0  0  0  0
    0.3028    3.8517    1.1101 H   0  0  0  0  0  0  0  0  0  0  0  0
  1  2  1  0  0  0  0
  2  3  1  0  0  0  0
  2  4  1  0  0  0  0
  2  5  1  0  0  0  0
  5  6  2  0  0  0  0
  5  7  1  0  0  0  0
  7  8  1  0  0  0  0
  7  9  1  0  0  0  0
  9 10  1  0  0  0  0
  9 11  1  0  0  0  0
  9 21  1  0  0  0  0
 11 12  1  0  0  0  0
 11 13  1  0  0  0  0
 11 14  1  0  0  0  0
 14 15  1  0  0  0  0
 14 16  1  0  0  0  0
 14 17  1  0  0  0  0
 17 18  2  0  0  0  0
 17 19  1  0  0  0  0
 19 20  1  0  0  0  0
 21 22  2  0  0  0  0
 21 23  1  0  0  0  0
 23 24  1  0  0  0  0
 23 25  1  0  0  0  0
 25 26  1  0  0  0  0
 25 27  1  0  0  0  0
 25 28  1  0  0  0  0
M  END
$$$$

  -OEChem-03222214033D

 28 27  0     1  0  0  0  0  0999 V2000
   -3.1745   -3.8480    1.1983 H   0  0  0  0  0  0  0  0  0  0  0  0
   -3.1231   -2.8771    0.6977 C   0  0  0  0  0  0  0  0  0  0  0  0
   -3.8839   -2.2192    1.1243 H   0  0  0  0  0  0  0  0  0  0  0  0
   -3.3272   -3.0197   -0.3663 H   0  0  0  0  0  0  0  0  0  0  0  0
   -1.7471   -2.2669    0.8807 C   0  0  0  0  0  0  0  0  0  0  0  0
   -0.9104   -2.8466    1.5576 O   0  0  0  0  0  0  0  0  0  0  0  0
   -1.4714   -1.0300    0.3330 N   0  0  0  0  0  0  0  0  0  0  0  0
   -2.2367   -0.5447   -0.1315 H   0  0  0  0  0  0  0  0  0  0  0  0
   -0.1569   -0.3687    0.3287 C   0  0  1  0  0  0  0  0  0  0  0  0
    0.5182   -0.8297    1.0567 H   0  0  0  0  0  0  0  0  0  0  0  0
    0.4477   -0.4303   -1.1020 C   0  0  0  0  0  0  0  0  0  0  0  0
   -0.3507   -0.6629   -1.8152 H   0  0  0  0  0  0  0  0  0  0  0  0
    0.8411    0.5527   -1.3844 H   0  0  0  0  0  0  0  0  0  0  0  0
    1.5846   -1.4569   -1.2837 C   0  0  0  0  0  0  0  0  0  0  0  0
    1.7897   -1.5972   -2.3484 H   0  0  0  0  0  0  0  0  0  0  0  0
    2.4960   -1.0712   -0.8192 H   0  0  0  0  0  0  0  0  0  0  0  0
    1.2726   -2.8082   -0.6584 C   0  0  0  0  0  0  0  0  0  0  0  0
    0.4913   -3.5432   -1.2373 O   0  0  0  0  0  0  0  0  0  0  0  0
    1.8290   -3.0925    0.5384 O   0  0  0  0  0  0  0  0  0  0  0  0
    1.3171   -3.8499    0.8704 H   0  0  0  0  0  0  0  0  0  0  0  0
   -0.3241    1.1119    0.7302 C   0  0  0  0  0  0  0  0  0  0  0  0
   -1.2168    1.7865    0.2297 O   0  0  0  0  0  0  0  0  0  0  0  0
    0.5384    1.6919    1.6417 N   0  0  0  0  0  0  0  0  0  0  0  0
    1.2174    1.0868    2.0952 H   0  0  0  0  0  0  0  0  0  0  0  0
    0.4060    3.0697    2.0995 C   0  0  0  0  0  0  0  0  0  0  0  0
   -0.5649    3.2209    2.5830 H   0  0  0  0  0  0  0  0  0  0  0  0
    1.1929    3.3057    2.8222 H   0  0  0  0  0  0  0  0  0  0  0  0
    0.4921    3.7637    1.2567 H   0  0  0  0  0  0  0  0  0  0  0  0
  1  2  1  0  0  0  0
  2  3  1  0  0  0  0
  2  4  1  0  0  0  0
  2  5  1  0  0  0  0
  5  6  2  0  0  0  0
  5  7  1  0  0  0  0
  7  8  1  0  0  0  0
  7  9  1  0  0  0  0
  9 10  1  0  0  0  0
  9 11  1  0  0  0  0
  9 21  1  0  0  0  0
 11 12  1  0  0  0  0
 11 13  1  0  0  0  0
 11 14  1  0  0  0  0
 14 15  1  0  0  0  0
 14 16  1  0  0  0  0
 14 17  1  0  0  0  0
 17 18  2  0  0  0  0
 17 19  1  0  0  0  0
 19 20  1  0  0  0  0
 21 22  2  0  0  0  0
 21 23  1  0  0  0  0
 23 24  1  0  0  0  0
 23 25  1  0  0  0  0
 25 26  1  0  0  0  0
 25 27  1  0  0  0  0
 25 28  1  0  0  0  0
M  END
$$$$

  -OEChem-03222214033D

 28 27  0     1  0  0  0  0  0999 V2000
   -3.1323   -3.8486    1.2592 H   0  0  0  0  0  0  0  0  0  0  0  0
   -3.0985   -2.8833    0.7468 C   0  0  0  0  0  0  0  0  0  0  0  0
   -3.8491   -2.2233    1.1880 H   0  0  0  0  0  0  0  0  0  0  0  0
   -3.3325   -3.0382   -0.3093 H   0  0  0  0  0  0  0  0  0  0  0  0
   -1.7196   -2.2668    0.8831 C   0  0  0  0  0  0  0  0  0  0  0  0
   -0.8490   -2.8531    1.5086 O   0  0  0  0  0  0  0  0  0  0  0  0
   -1.4694   -1.0251    0.3356 N   0  0  0  0  0  0  0  0  0  0  0  0
   -2.2514   -0.5431   -0.1037 H   0  0  0  0  0  0  0  0  0  0  0  0
   -0.1628   -0.3501    0.3055 C   0  0  1  0  0  0  0  0  0  0  0  0
    0.5305   -0.8147    1.0146 H   0  0  0  0  0  0  0  0  0  0  0  0
    0.4092   -0.4276   -1.1337 C   0  0  0  0  0  0  0  0  0  0  0  0
   -0.3931   -0.6637   -1.8420 H   0  0  0  0  0  0  0  0  0  0  0  0
    0.8056    0.5513   -1.4247 H   0  0  0  0  0  0  0  0  0  0  0  0
    1.5471   -1.4551   -1.2837 C   0  0  0  0  0  0  0  0  0  0  0  0
    1.9108   -1.4500   -2.3144 H   0  0  0  0  0  0  0  0  0  0  0  0
    2.3824   -1.1750   -0.6362 H   0  0  0  0  0  0  0  0  0  0  0  0
    1.1131   -2.8739   -0.9388 C   0  0  0  0  0  0  0  0  0  0  0  0
    0.1962   -3.3773   -1.5664 O   0  0  0  0  0  0  0  0  0  0  0  0
    1.7522   -3.4886    0.0787 O   0  0  0  0  0  0  0  0  0  0  0  0
    1.2168   -4.2753    0.2693 H   0  0  0  0  0  0  0  0  0  0  0  0
   -0.3256    1.1288    0.7156 C   0  0  0  0  0  0  0  0  0  0  0  0
   -1.2315    1.8014    0.2369 O   0  0  0  0  0  0  0  0  0  0  0  0
    0.5550    1.7113    1.6082 N   0  0  0  0  0  0  0  0  0  0  0  0
    1.2459    1.1088    2.0468 H   0  0  0  0  0  0  0  0  0  0  0  0
    0.4257    3.0881    2.0705 C   0  0  0  0  0  0  0  0  0  0  0  0
   -0.5407    3.2381    2.5633 H   0  0  0  0  0  0  0  0  0  0  0  0
    1.2191    3.3235    2.7863 H   0  0  0  0  0  0  0  0  0  0  0  0
    0.5033    3.7838    1.2284 H   0  0  0  0  0  0  0  0  0  0  0  0
  1  2  1  0  0  0  0
  2  3  1  0  0  0  0
  2  4  1  0  0  0  0
  2  5  1  0  0  0  0
  5  6  2  0  0  0  0
  5  7  1  0  0  0  0
  7  8  1  0  0  0  0
  7  9  1  0  0  0  0
  9 10  1  0  0  0  0
  9 11  1  0  0  0  0
  9 21  1  0  0  0  0
 11 12  1  0  0  0  0
 11 13  1  0  0  0  0
 11 14  1  0  0  0  0
 14 15  1  0  0  0  0
 14 16  1  0  0  0  0
 14 17  1  0  0  0  0
 17 18  2  0  0  0  0
 17 19  1  0  0  0  0
 19 20  1  0  0  0  0
 21 22  2  0  0  0  0
 21 23  1  0  0  0  0
 23 24  1  0  0  0  0
 23 25  1  0  0  0  0
 25 26  1  0  0  0  0
 25 27  1  0  0  0  0
 25 28  1  0  0  0  0
M  END
$$$$

  -OEChem-03222214033D

 28 27  0     1  0  0  0  0  0999 V2000
   -3.1022   -3.8476    1.2511 H   0  0  0  0  0  0  0  0  0  0  0  0
   -3.0837   -2.8806    0.7410 C   0  0  0  0  0  0  0  0  0  0  0  0
   -3.8265   -2.2246    1.2011 H   0  0  0  0  0  0  0  0  0  0  0  0
   -3.3410   -3.0320   -0.3103 H   0  0  0  0  0  0  0  0  0  0  0  0
   -1.7046   -2.2592    0.8476 C   0  0  0  0  0  0  0  0  0  0  0  0
   -0.8071   -2.8559    1.4231 O   0  0  0  0  0  0  0  0  0  0  0  0
   -1.4727   -1.0113    0.3081 N   0  0  0  0  0  0  0  0  0  0  0  0
   -2.2633   -0.5239   -0.1092 H   0  0  0  0  0  0  0  0  0  0  0  0
   -0.1720   -0.3284    0.2941 C   0  0  1  0  0  0  0  0  0  0  0  0
    0.5137   -0.7905    1.0120 H   0  0  0  0  0  0  0  0  0  0  0  0
    0.4053   -0.4213   -1.1378 C   0  0  0  0  0  0  0  0  0  0  0  0
   -0.3851   -0.6403   -1.8647 H   0  0  0  0  0  0  0  0  0  0  0  0
    0.8215    0.5526   -1.4178 H   0  0  0  0  0  0  0  0  0  0  0  0
    1.5442   -1.4553   -1.2388 C   0  0  0  0  0  0  0  0  0  0  0  0
    2.0831   -1.3042   -2.1775 H   0  0  0  0  0  0  0  0  0  0  0  0
    2.2585   -1.3107   -0.4240 H   0  0  0  0  0  0  0  0  0  0  0  0
    1.0503   -2.9009   -1.2238 C   0  0  0  0  0  0  0  0  0  0  0  0
    0.0577   -3.2046   -1.8651 O   0  0  0  0  0  0  0  0  0  0  0  0
    1.7583   -3.7839   -0.4889 O   0  0  0  0  0  0  0  0  0  0  0  0
    1.2391   -4.6020   -0.5153 H   0  0  0  0  0  0  0  0  0  0  0  0
   -0.3417    1.1474    0.7115 C   0  0  0  0  0  0  0  0  0  0  0  0
   -1.2485    1.8185    0.2327 O   0  0  0  0  0  0  0  0  0  0  0  0
    0.5298    1.7286    1.6142 N   0  0  0  0  0  0  0  0  0  0  0  0
    1.2260    1.1295    2.0489 H   0  0  0  0  0  0  0  0  0  0  0  0
    0.4021    3.1076    2.0707 C   0  0  0  0  0  0  0  0  0  0  0  0
   -0.5723    3.2666    2.5449 H   0  0  0  0  0  0  0  0  0  0  0  0
    1.1837    3.3385    2.8010 H   0  0  0  0  0  0  0  0  0  0  0  0
    0.5009    3.8004    1.2283 H   0  0  0  0  0  0  0  0  0  0  0  0
  1  2  1  0  0  0  0
  2  3  1  0  0  0  0
  2  4  1  0  0  0  0
  2  5  1  0  0  0  0
  5  6  2  0  0  0  0
  5  7  1  0  0  0  0
  7  8  1  0  0  0  0
  7  9  1  0  0  0  0
  9 10  1  0  0  0  0
  9 11  1  0  0  0  0
  9 21  1  0  0  0  0
 11 12  1  0  0  0  0
 11 13  1  0  0  0  0
 11 14  1  0  0  0  0
 14 15  1  0  0  0  0
 14 16  1  0  0  0  0
 14 17  1  0  0  0  0
 17 18  2  0  0  0  0
 17 19  1  0  0  0  0
 19 20  1  0  0  0  0
 21 22  2  0  0  0  0
 21 23  1  0  0  0  0
 23 24  1  0  0  0  0
 23 25  1  0  0  0  0
 25 26  1  0  0  0  0
 25 27  1  0  0  0  0
 25 28  1  0  0  0  0
M  END
$$$$

  -OEChem-03222214033D

 28 27  0     1  0  0  0  0  0999 V2000
   -3.0966   -3.8378    1.2224 H   0  0  0  0  0  0  0  0  0  0  0  0
   -3.0840   -2.8674    0.7186 C   0  0  0  0  0  0  0  0  0  0  0  0
   -3.8373   -2.2217    1.1760 H   0  0  0  0  0  0  0  0  0  0  0  0
   -3.3302   -3.0150   -0.3359 H   0  0  0  0  0  0  0  0  0  0  0  0
   -1.7120   -2.2334    0.8403 C   0  0  0  0  0  0  0  0  0  0  0  0
   -0.8099   -2.8268    1.4128 O   0  0  0  0  0  0  0  0  0  0  0  0
   -1.4823   -0.9870    0.2967 N   0  0  0  0  0  0  0  0  0  0  0  0
   -2.2676   -0.5051   -0.1365 H   0  0  0  0  0  0  0  0  0  0  0  0
   -0.1812   -0.3072    0.2986 C   0  0  1  0  0  0  0  0  0  0  0  0
    0.4904   -0.7625    1.0329 H   0  0  0  0  0  0  0  0  0  0  0  0
    0.4024   -0.4307   -1.1262 C   0  0  0  0  0  0  0  0  0  0  0  0
   -0.3826   -0.6278   -1.8647 H   0  0  0  0  0  0  0  0  0  0  0  0
    0.8401    0.5346   -1.4033 H   0  0  0  0  0  0  0  0  0  0  0  0
    1.5367   -1.4783   -1.1952 C   0  0  0  0  0  0  0  0  0  0  0  0
    2.2258   -1.1918   -1.9936 H   0  0  0  0  0  0  0  0  0  0  0  0
    2.1101   -1.4941   -0.2651 H   0  0  0  0  0  0  0  0  0  0  0  0
    1.0642   -2.8992   -1.5149 C   0  0  0  0  0  0  0  0  0  0  0  0
   -0.0024   -3.0858   -2.0769 O   0  0  0  0  0  0  0  0  0  0  0  0
    1.8941   -3.9023   -1.1596 O   0  0  0  0  0  0  0  0  0  0  0  0
    1.4151   -4.7128   -1.3898 H   0  0  0  0  0  0  0  0  0  0  0  0
   -0.3469    1.1718    0.7069 C   0  0  0  0  0  0  0  0  0  0  0  0
   -1.2441    1.8460    0.2149 O   0  0  0  0  0  0  0  0  0  0  0  0
    0.5161    1.7522    1.6183 N   0  0  0  0  0  0  0  0  0  0  0  0
    1.2030    1.1511    2.0647 H   0  0  0  0  0  0  0  0  0  0  0  0
    0.3817    3.1301    2.0761 C   0  0  0  0  0  0  0  0  0  0  0  0
   -0.5922    3.2825    2.5532 H   0  0  0  0  0  0  0  0  0  0  0  0
    1.1638    3.3653    2.8042 H   0  0  0  0  0  0  0  0  0  0  0  0
    0.4743    3.8244    1.2343 H   0  0  0  0  0  0  0  0  0  0  0  0
  1  2  1  0  0  0  0
  2  3  1  0  0  0  0
  2  4  1  0  0  0  0
  2  5  1  0  0  0  0
  5  6  2  0  0  0  0
  5  7  1  0  0  0  0
  7  8  1  0  0  0  0
  7  9  1  0  0  0  0
  9 10  1  0  0  0  0
  9 11  1  0  0  0  0
  9 21  1  0  0  0  0
 11 12  1  0  0  0  0
 11 13  1  0  0  0  0
 11 14  1  0  0  0  0
 14 15  1  0  0  0  0
 14 16  1  0  0  0  0
 14 17  1  0  0  0  0
 17 18  2  0  0  0  0
 17 19  1  0  0  0  0
 19 20  1  0  0  0  0
 21 22  2  0  0  0  0
 21 23  1  0  0  0  0
 23 24  1  0  0  0  0
 23 25  1  0  0  0  0
 25 26  1  0  0  0  0
 25 27  1  0  0  0  0
 25 28  1  0  0  0  0
M  END
$$$$

  -OEChem-03222214033D

 28 27  0     1  0  0  0  0  0999 V2000
   -3.1439   -3.8093    1.2083 H   0  0  0  0  0  0  0  0  0  0  0  0
   -3.1226   -2.8302    0.7219 C   0  0  0  0  0  0  0  0  0  0  0  0
   -3.8681   -2.1851    1.1928 H   0  0  0  0  0  0  0  0  0  0  0  0
   -3.3730   -2.9566   -0.3345 H   0  0  0  0  0  0  0  0  0  0  0  0
   -1.7443   -2.2116    0.8529 C   0  0  0  0  0  0  0  0  0  0  0  0
   -0.8611   -2.8005    1.4588 O   0  0  0  0  0  0  0  0  0  0  0  0
   -1.4922   -0.9758    0.2956 N   0  0  0  0  0  0  0  0  0  0  0  0
   -2.2641   -0.4902   -0.1573 H   0  0  0  0  0  0  0  0  0  0  0  0
   -0.1840   -0.3111    0.3172 C   0  0  1  0  0  0  0  0  0  0  0  0
    0.4666   -0.7593    1.0740 H   0  0  0  0  0  0  0  0  0  0  0  0
    0.4255   -0.4581   -1.0953 C   0  0  0  0  0  0  0  0  0  0  0  0
   -0.3518   -0.6430   -1.8446 H   0  0  0  0  0  0  0  0  0  0  0  0
    0.8794    0.4998   -1.3721 H   0  0  0  0  0  0  0  0  0  0  0  0
    1.5523   -1.5206   -1.1456 C   0  0  0  0  0  0  0  0  0  0  0  0
    2.3811   -1.1132   -1.7303 H   0  0  0  0  0  0  0  0  0  0  0  0
    1.9404   -1.7368   -0.1476 H   0  0  0  0  0  0  0  0  0  0  0  0
    1.1634   -2.8475   -1.8052 C   0  0  0  0  0  0  0  0  0  0  0  0
    0.0160   -3.0600   -2.1597 O   0  0  0  0  0  0  0  0  0  0  0  0
    2.1588   -3.7445   -1.9679 O   0  0  0  0  0  0  0  0  0  0  0  0
    1.7326   -4.5174   -2.3689 H   0  0  0  0  0  0  0  0  0  0  0  0
   -0.3479    1.1750    0.7010 C   0  0  0  0  0  0  0  0  0  0  0  0
   -1.2294    1.8477    0.1792 O   0  0  0  0  0  0  0  0  0  0  0  0
    0.4967    1.7638    1.6244 N   0  0  0  0  0  0  0  0  0  0  0  0
    1.1696    1.1658    2.0956 H   0  0  0  0  0  0  0  0  0  0  0  0
    0.3595    3.1494    2.0579 C   0  0  0  0  0  0  0  0  0  0  0  0
   -0.6221    3.3127    2.5155 H   0  0  0  0  0  0  0  0  0  0  0  0
    1.1298    3.3942    2.7955 H   0  0  0  0  0  0  0  0  0  0  0  0
    0.4683    3.8295    1.2063 H   0  0  0  0  0  0  0  0  0  0  0  0
  1  2  1  0  0  0  0
  2  3  1  0  0  0  0
  2  4  1  0  0  0  0
  2  5  1  0  0  0  0
  5  6  2  0  0  0  0
  5  7  1  0  0  0  0
  7  8  1  0  0  0  0
  7  9  1  0  0  0  0
  9 10  1  0  0  0  0
  9 11  1  0  0  0  0
  9 21  1  0  0  0  0
 11 12  1  0  0  0  0
 11 13  1  0  0  0  0
 11 14  1  0  0  0  0
 14 15  1  0  0  0  0
 14 16  1  0  0  0  0
 14 17  1  0  0  0  0
 17 18  2  0  0  0  0
 17 19  1  0  0  0  0
 19 20  1  0  0  0  0
 21 22  2  0  0  0  0
 21 23  1  0  0  0  0
 23 24  1  0  0  0  0
 23 25  1  0  0  0  0
 25 26  1  0  0  0  0
 25 27  1  0  0  0  0
 25 28  1  0  0  0  0
M  END
$$$$

  -OEChem-03222214033D

 28 27  0     1  0  0  0  0  0999 V2000
   -3.2160   -3.7562    1.2404 H   0  0  0  0  0  0  0  0  0  0  0  0
   -3.1666   -2.7942    0.7232 C   0  0  0  0  0  0  0  0  0  0  0  0
   -3.9057   -2.1193    1.1613 H   0  0  0  0  0  0  0  0  0  0  0  0
   -3.4039   -2.9497   -0.3322 H   0  0  0  0  0  0  0  0  0  0  0  0
   -1.7776   -2.2001    0.8561 C   0  0  0  0  0  0  0  0  0  0  0  0
   -0.9129   -2.7927    1.4843 O   0  0  0  0  0  0  0  0  0  0  0  0
   -1.4974   -0.9769    0.2842 N   0  0  0  0  0  0  0  0  0  0  0  0
   -2.2575   -0.4801   -0.1767 H   0  0  0  0  0  0  0  0  0  0  0  0
   -0.1816   -0.3280    0.3258 C   0  0  1  0  0  0  0  0  0  0  0  0
    0.4469   -0.7687    1.1052 H   0  0  0  0  0  0  0  0  0  0  0  0
    0.4661   -0.4925   -1.0678 C   0  0  0  0  0  0  0  0  0  0  0  0
   -0.3028   -0.6991   -1.8205 H   0  0  0  0  0  0  0  0  0  0  0  0
    0.9226    0.4586   -1.3633 H   0  0  0  0  0  0  0  0  0  0  0  0
    1.5837   -1.5658   -1.0823 C   0  0  0  0  0  0  0  0  0  0  0  0
    2.5255   -1.0905   -1.3692 H   0  0  0  0  0  0  0  0  0  0  0  0
    1.7291   -2.0026   -0.0913 H   0  0  0  0  0  0  0  0  0  0  0  0
    1.3219   -2.7233   -2.0478 C   0  0  0  0  0  0  0  0  0  0  0  0
    0.1832   -3.1120   -2.2442 O   0  0  0  0  0  0  0  0  0  0  0  0
    2.3996   -3.2716   -2.6479 O   0  0  0  0  0  0  0  0  0  0  0  0
    2.0408   -3.9831   -3.2002 H   0  0  0  0  0  0  0  0  0  0  0  0
   -0.3392    1.1656    0.6814 C   0  0  0  0  0  0  0  0  0  0  0  0
   -1.2028    1.8381    0.1302 O   0  0  0  0  0  0  0  0  0  0  0  0
    0.4900    1.7595    1.6154 N   0  0  0  0  0  0  0  0  0  0  0  0
    1.1376    1.1586    2.1174 H   0  0  0  0  0  0  0  0  0  0  0  0
    0.3517    3.1499    2.0331 C   0  0  0  0  0  0  0  0  0  0  0  0
   -0.6055    3.3029    2.5426 H   0  0  0  0  0  0  0  0  0  0  0  0
    1.1586    3.4211    2.7209 H   0  0  0  0  0  0  0  0  0  0  0  0
    0.4002    3.8185    1.1669 H   0  0  0  0  0  0  0  0  0  0  0  0
  1  2  1  0  0  0  0
  2  3  1  0  0  0  0
  2  4  1  0  0  0  0
  2  5  1  0  0  0  0
  5  6  2  0  0  0  0
  5  7  1  0  0  0  0
  7  8  1  0  0  0  0
  7  9  1  0  0  0  0
  9 10  1  0  0  0  0
  9 11  1  0  0  0  0
  9 21  1  0  0  0  0
 11 12  1  0  0  0  0
 11 13  1  0  0  0  0
 11 14  1  0  0  0  0
 14 15  1  0  0  0  0
 14 16  1  0  0  0  0
 14 17  1  0  0  0  0
 17 18  2  0  0  0  0
 17 19  1  0  0  0  0
 19 20  1  0  0  0  0
 21 22  2  0  0  0  0
 21 23  1  0  0  0  0
 23 24  1  0  0  0  0
 23 25  1  0  0  0  0
 25 26  1  0  0  0  0
 25 27  1  0  0  0  0
 25 28  1  0  0  0  0
M  END
$$$$

  -OEChem-03222214033D

 28 27  0     1  0  0  0  0  0999 V2000
   -3.1009   -3.8190    1.2372 H   0  0  0  0  0  0  0  0  0  0  0  0
   -3.1015   -2.8209    0.7904 C   0  0  0  0  0  0  0  0  0  0  0  0
   -3.7666   -2.1757    1.3694 H   0  0  0  0  0  0  0  0  0  0  0  0
   -3.4758   -2.8940   -0.2337 H   0  0  0  0  0  0  0  0  0  0  0  0
   -1.6969   -2.2486    0.7875 C   0  0  0  0  0  0  0  0  0  0  0  0
   -0.7728   -2.8856    1.2683 O   0  0  0  0  0  0  0  0  0  0  0  0
   -1.4631   -1.0041    0.2431 N   0  0  0  0  0  0  0  0  0  0  0  0
   -2.2708   -0.4615   -0.0605 H   0  0  0  0  0  0  0  0  0  0  0  0
   -0.1653   -0.3159    0.2678 C   0  0  1  0  0  0  0  0  0  0  0  0
    0.4896   -0.7553    1.0271 H   0  0  0  0  0  0  0  0  0  0  0  0
    0.4809   -0.4227   -1.1318 C   0  0  0  0  0  0  0  0  0  0  0  0
   -0.2951   -0.6860   -1.8597 H   0  0  0  0  0  0  0  0  0  0  0  0
    0.8786    0.5493   -1.4440 H   0  0  0  0  0  0  0  0  0  0  0  0
    1.6354   -1.4538   -1.1702 C   0  0  0  0  0  0  0  0  0  0  0  0
    2.5985   -0.9384   -1.1448 H   0  0  0  0  0  0  0  0  0  0  0  0
    1.5848   -2.1038   -0.2916 H   0  0  0  0  0  0  0  0  0  0  0  0
    1.5967   -2.3750   -2.3890 C   0  0  0  0  0  0  0  0  0  0  0  0
    1.2625   -1.9216   -3.4698 O   0  0  0  0  0  0  0  0  0  0  0  0
    1.9701   -3.6602   -2.2124 O   0  0  0  0  0  0  0  0  0  0  0  0
    1.8770   -4.0721   -3.0846 H   0  0  0  0  0  0  0  0  0  0  0  0
   -0.3631    1.1615    0.6669 C   0  0  0  0  0  0  0  0  0  0  0  0
   -1.2982    1.8001    0.1982 O   0  0  0  0  0  0  0  0  0  0  0  0
    0.4698    1.7593    1.5947 N   0  0  0  0  0  0  0  0  0  0  0  0
    1.1885    1.1833    2.0235 H   0  0  0  0  0  0  0  0  0  0  0  0
    0.2847    3.1255    2.0698 C   0  0  0  0  0  0  0  0  0  0  0  0
   -0.6755    3.2244    2.5871 H   0  0  0  0  0  0  0  0  0  0  0  0
    1.0836    3.3953    2.7674 H   0  0  0  0  0  0  0  0  0  0  0  0
    0.3071    3.8302    1.2316 H   0  0  0  0  0  0  0  0  0  0  0  0
  1  2  1  0  0  0  0
  2  3  1  0  0  0  0
  2  4  1  0  0  0  0
  2  5  1  0  0  0  0
  5  6  2  0  0  0  0
  5  7  1  0  0  0  0
  7  8  1  0  0  0  0
  7  9  1  0  0  0  0
  9 10  1  0  0  0  0
  9 11  1  0  0  0  0
  9 21  1  0  0  0  0
 11 12  1  0  0  0  0
 11 13  1  0  0  0  0
 11 14  1  0  0  0  0
 14 15  1  0  0  0  0
 14 16  1  0  0  0  0
 14 17  1  0  0  0  0
 17 18  2  0  0  0  0
 17 19  1  0  0  0  0
 19 20  1  0  0  0  0
 21 22  2  0  0  0  0
 21 23  1  0  0  0  0
 23 24  1  0  0  0  0
 23 25  1  0  0  0  0
 25 26  1  0  0  0  0
 25 27  1  0  0  0  0
 25 28  1  0  0  0  0
M  END
$$$$

  -OEChem-03222214033D

 28 27  0     1  0  0  0  0  0999 V2000
   -3.1284   -3.7926    1.2450 H   0  0  0  0  0  0  0  0  0  0  0  0
   -3.1220   -2.7943    0.7988 C   0  0  0  0  0  0  0  0  0  0  0  0
   -3.7688   -2.1401    1.3886 H   0  0  0  0  0  0  0  0  0  0  0  0
   -3.5134   -2.8613   -0.2192 H   0  0  0  0  0  0  0  0  0  0  0  0
   -1.7097   -2.2416    0.7753 C   0  0  0  0  0  0  0  0  0  0  0  0
   -0.7870   -2.8909    1.2422 O   0  0  0  0  0  0  0  0  0  0  0  0
   -1.4696   -0.9973    0.2332 N   0  0  0  0  0  0  0  0  0  0  0  0
   -2.2759   -0.4468   -0.0599 H   0  0  0  0  0  0  0  0  0  0  0  0
   -0.1691   -0.3134    0.2569 C   0  0  1  0  0  0  0  0  0  0  0  0
    0.4861   -0.7598    1.0125 H   0  0  0  0  0  0  0  0  0  0  0  0
    0.4795   -0.4222   -1.1401 C   0  0  0  0  0  0  0  0  0  0  0  0
   -0.2916   -0.7014   -1.8675 H   0  0  0  0  0  0  0  0  0  0  0  0
    0.8775    0.5469   -1.4614 H   0  0  0  0  0  0  0  0  0  0  0  0
    1.6263   -1.4577   -1.1566 C   0  0  0  0  0  0  0  0  0  0  0  0
    2.5636   -0.9861   -0.8516 H   0  0  0  0  0  0  0  0  0  0  0  0
    1.4039   -2.2539   -0.4395 H   0  0  0  0  0  0  0  0  0  0  0  0
    1.8236   -2.1402   -2.5098 C   0  0  0  0  0  0  0  0  0  0  0  0
    1.5091   -1.5553   -3.5318 O   0  0  0  0  0  0  0  0  0  0  0  0
    2.3747   -3.3721   -2.5064 O   0  0  0  0  0  0  0  0  0  0  0  0
    2.4166   -3.6308   -3.4395 H   0  0  0  0  0  0  0  0  0  0  0  0
   -0.3618    1.1640    0.6588 C   0  0  0  0  0  0  0  0  0  0  0  0
   -1.3037    1.8013    0.2023 O   0  0  0  0  0  0  0  0  0  0  0  0
    0.4736    1.7594    1.5861 N   0  0  0  0  0  0  0  0  0  0  0  0
    1.1959    1.1835    2.0088 H   0  0  0  0  0  0  0  0  0  0  0  0
    0.2789    3.1188    2.0768 C   0  0  0  0  0  0  0  0  0  0  0  0
   -0.6723    3.1999    2.6135 H   0  0  0  0  0  0  0  0  0  0  0  0
    1.0872    3.3940    2.7611 H   0  0  0  0  0  0  0  0  0  0  0  0
    0.2753    3.8308    1.2446 H   0  0  0  0  0  0  0  0  0  0  0  0
  1  2  1  0  0  0  0
  2  3  1  0  0  0  0
  2  4  1  0  0  0  0
  2  5  1  0  0  0  0
  5  6  2  0  0  0  0
  5  7  1  0  0  0  0
  7  8  1  0  0  0  0
  7  9  1  0  0  0  0
  9 10  1  0  0  0  0
  9 11  1  0  0  0  0
  9 21  1  0  0  0  0
 11 12  1  0  0  0  0
 11 13  1  0  0  0  0
 11 14  1  0  0  0  0
 14 15  1  0  0  0  0
 14 16  1  0  0  0  0
 14 17  1  0  0  0  0
 17 18  2  0  0  0  0
 17 19  1  0  0  0  0
 19 20  1  0  0  0  0
 21 22  2  0  0  0  0
 21 23  1  0  0  0  0
 23 24  1  0  0  0  0
 23 25  1  0  0  0  0
 25 26  1  0  0  0  0
 25 27  1  0  0  0  0
 25 28  1  0  0  0  0
M  END
$$$$

  -OEChem-03222214033D

 28 27  0     1  0  0  0  0  0999 V2000
   -3.1462   -3.7856    1.2465 H   0  0  0  0  0  0  0  0  0  0  0  0
   -3.1394   -2.7877    0.7991 C   0  0  0  0  0  0  0  0  0  0  0  0
   -3.7825   -2.1316    1.3905 H   0  0  0  0  0  0  0  0  0  0  0  0
   -3.5349   -2.8544   -0.2173 H   0  0  0  0  0  0  0  0  0  0  0  0
   -1.7261   -2.2382    0.7696 C   0  0  0  0  0  0  0  0  0  0  0  0
   -0.8020   -2.8940    1.2246 O   0  0  0  0  0  0  0  0  0  0  0  0
   -1.4858   -0.9924    0.2311 N   0  0  0  0  0  0  0  0  0  0  0  0
   -2.2929   -0.4371   -0.0508 H   0  0  0  0  0  0  0  0  0  0  0  0
   -0.1837   -0.3115    0.2518 C   0  0  1  0  0  0  0  0  0  0  0  0
    0.4715   -0.7652    1.0029 H   0  0  0  0  0  0  0  0  0  0  0  0
    0.4633   -0.4217   -1.1445 C   0  0  0  0  0  0  0  0  0  0  0  0
   -0.3003   -0.7008   -1.8797 H   0  0  0  0  0  0  0  0  0  0  0  0
    0.8686    0.5470   -1.4587 H   0  0  0  0  0  0  0  0  0  0  0  0
    1.6044   -1.4599   -1.1482 C   0  0  0  0  0  0  0  0  0  0  0  0
    2.4691   -1.0663   -0.6087 H   0  0  0  0  0  0  0  0  0  0  0  0
    1.2679   -2.3624   -0.6287 H   0  0  0  0  0  0  0  0  0  0  0  0
    2.0510   -1.8875   -2.5462 C   0  0  0  0  0  0  0  0  0  0  0  0
    1.7209   -1.2306   -3.5183 O   0  0  0  0  0  0  0  0  0  0  0  0
    2.8274   -2.9882   -2.6311 O   0  0  0  0  0  0  0  0  0  0  0  0
    3.0041   -3.0980   -3.5778 H   0  0  0  0  0  0  0  0  0  0  0  0
   -0.3670    1.1654    0.6596 C   0  0  0  0  0  0  0  0  0  0  0  0
   -1.3111    1.8075    0.2145 O   0  0  0  0  0  0  0  0  0  0  0  0
    0.4766    1.7524    1.5847 N   0  0  0  0  0  0  0  0  0  0  0  0
    1.2070    1.1751    1.9913 H   0  0  0  0  0  0  0  0  0  0  0  0
    0.2996    3.1143    2.0748 C   0  0  0  0  0  0  0  0  0  0  0  0
   -0.6563    3.2107    2.6004 H   0  0  0  0  0  0  0  0  0  0  0  0
    1.1042    3.3743    2.7693 H   0  0  0  0  0  0  0  0  0  0  0  0
    0.3180    3.8274    1.2438 H   0  0  0  0  0  0  0  0  0  0  0  0
  1  2  1  0  0  0  0
  2  3  1  0  0  0  0
  2  4  1  0  0  0  0
  2  5  1  0  0  0  0
  5  6  2  0  0  0  0
  5  7  1  0  0  0  0
  7  8  1  0  0  0  0
  7  9  1  0  0  0  0
  9 10  1  0  0  0  0
  9 11  1  0  0  0  0
  9 21  1  0  0  0  0
 11 12  1  0  0  0  0
 11 13  1  0  0  0  0
 11 14  1  0  0  0  0
 14 15  1  0  0  0  0
 14 16  1  0  0  0  0
 14 17  1  0  0  0  0
 17 18  2  0  0  0  0
 17 19  1  0  0  0  0
 19 20  1  0  0  0  0
 21 22  2  0  0  0  0
 21 23  1  0  0  0  0
 23 24  1  0  0  0  0
 23 25  1  0  0  0  0
 25 26  1  0  0  0  0
 25 27  1  0  0  0  0
 25 28  1  0  0  0  0
M  END
$$$$

  -OEChem-03222214033D

 28 27  0     1  0  0  0  0  0999 V2000
   -3.1981   -3.7434    1.2966 H   0  0  0  0  0  0  0  0  0  0  0  0
   -3.1708   -2.7645    0.8100 C   0  0  0  0  0  0  0  0  0  0  0  0
   -3.8066   -2.0751    1.3710 H   0  0  0  0  0  0  0  0  0  0  0  0
   -3.5608   -2.8647   -0.2057 H   0  0  0  0  0  0  0  0  0  0  0  0
   -1.7480   -2.2406    0.7694 C   0  0  0  0  0  0  0  0  0  0  0  0
   -0.8335   -2.9105    1.2229 O   0  0  0  0  0  0  0  0  0  0  0  0
   -1.4894   -0.9990    0.2297 N   0  0  0  0  0  0  0  0  0  0  0  0
   -2.2896   -0.4314   -0.0476 H   0  0  0  0  0  0  0  0  0  0  0  0
   -0.1813   -0.3301    0.2609 C   0  0  1  0  0  0  0  0  0  0  0  0
    0.4711   -0.7890    1.0113 H   0  0  0  0  0  0  0  0  0  0  0  0
    0.4686   -0.4324   -1.1310 C   0  0  0  0  0  0  0  0  0  0  0  0
   -0.3046   -0.4122   -1.9077 H   0  0  0  0  0  0  0  0  0  0  0  0
    1.1170    0.4353   -1.2971 H   0  0  0  0  0  0  0  0  0  0  0  0
    1.3254   -1.7089   -1.2561 C   0  0  0  0  0  0  0  0  0  0  0  0
    2.1045   -1.7067   -0.4897 H   0  0  0  0  0  0  0  0  0  0  0  0
    0.6960   -2.5868   -1.0861 H   0  0  0  0  0  0  0  0  0  0  0  0
    2.0015   -1.8726   -2.6173 C   0  0  0  0  0  0  0  0  0  0  0  0
    1.7862   -1.0688   -3.5079 O   0  0  0  0  0  0  0  0  0  0  0  0
    2.8363   -2.9230   -2.7615 O   0  0  0  0  0  0  0  0  0  0  0  0
    3.1603   -2.8616   -3.6730 H   0  0  0  0  0  0  0  0  0  0  0  0
   -0.3611    1.1486    0.6629 C   0  0  0  0  0  0  0  0  0  0  0  0
   -1.2975    1.7946    0.2069 O   0  0  0  0  0  0  0  0  0  0  0  0
    0.4760    1.7327    1.5955 N   0  0  0  0  0  0  0  0  0  0  0  0
    1.2084    1.1567    2.0007 H   0  0  0  0  0  0  0  0  0  0  0  0
    0.3148    3.1040    2.0642 C   0  0  0  0  0  0  0  0  0  0  0  0
   -0.6675    3.2375    2.5297 H   0  0  0  0  0  0  0  0  0  0  0  0
    1.0836    3.3439    2.8051 H   0  0  0  0  0  0  0  0  0  0  0  0
    0.4074    3.8068    1.2294 H   0  0  0  0  0  0  0  0  0  0  0  0
  1  2  1  0  0  0  0
  2  3  1  0  0  0  0
  2  4  1  0  0  0  0
  2  5  1  0  0  0  0
  5  6  2  0  0  0  0
  5  7  1  0  0  0  0
  7  8  1  0  0  0  0
  7  9  1  0  0  0  0
  9 10  1  0  0  0  0
  9 11  1  0  0  0  0
  9 21  1  0  0  0  0
 11 12  1  0  0  0  0
 11 13  1  0  0  0  0
 11 14  1  0  0  0  0
 14 15  1  0  0  0  0
 14 16  1  0  0  0  0
 14 17  1  0  0  0  0
 17 18  2  0  0  0  0
 17 19  1  0  0  0  0
 19 20  1  0  0  0  0
 21 22  2  0  0  0  0
 21 23  1  0  0  0  0
 23 24  1  0  0  0  0
 23 25  1  0  0  0  0
 25 26  1  0  0  0  0
 25 27  1  0  0  0  0
 25 28  1  0  0  0  0
M  END
$$$$

  -OEChem-03222214033D

 28 27  0     1  0  0  0  0  0999 V2000
   -3.1898   -3.7455    1.2899 H   0  0  0  0  0  0  0  0  0  0  0  0
   -3.1670   -2.7662    0.8039 C   0  0  0  0  0  0  0  0  0  0  0  0
   -3.8049   -2.0795    1.3657 H   0  0  0  0  0  0  0  0  0  0  0  0
   -3.5573   -2.8675   -0.2116 H   0  0  0  0  0  0  0  0  0  0  0  0
   -1.7460   -2.2373    0.7616 C   0  0  0  0  0  0  0  0  0  0  0  0
   -0.8264   -2.9114    1.1987 O   0  0  0  0  0  0  0  0  0  0  0  0
   -1.4916   -0.9929    0.2263 N   0  0  0  0  0  0  0  0  0  0  0  0
   -2.2934   -0.4219   -0.0393 H   0  0  0  0  0  0  0  0  0  0  0  0
   -0.1833   -0.3252    0.2605 C   0  0  1  0  0  0  0  0  0  0  0  0
    0.4673   -0.7848    1.0115 H   0  0  0  0  0  0  0  0  0  0  0  0
    0.4590   -0.4313   -1.1346 C   0  0  0  0  0  0  0  0  0  0  0  0
   -0.3052   -0.3967   -1.9190 H   0  0  0  0  0  0  0  0  0  0  0  0
    1.1132    0.4356   -1.2828 H   0  0  0  0  0  0  0  0  0  0  0  0
    1.3125   -1.7109   -1.2658 C   0  0  0  0  0  0  0  0  0  0  0  0
    1.9294   -1.8353   -0.3721 H   0  0  0  0  0  0  0  0  0  0  0  0
    0.6554   -2.5820   -1.3345 H   0  0  0  0  0  0  0  0  0  0  0  0
    2.2567   -1.7111   -2.4679 C   0  0  0  0  0  0  0  0  0  0  0  0
    2.1357   -0.8666   -3.3383 O   0  0  0  0  0  0  0  0  0  0  0  0
    3.2029   -2.6729   -2.5033 O   0  0  0  0  0  0  0  0  0  0  0  0
    3.6865   -2.5178   -3.3290 H   0  0  0  0  0  0  0  0  0  0  0  0
   -0.3613    1.1521    0.6691 C   0  0  0  0  0  0  0  0  0  0  0  0
   -1.2977    1.8007    0.2167 O   0  0  0  0  0  0  0  0  0  0  0  0
    0.4763    1.7318    1.6040 N   0  0  0  0  0  0  0  0  0  0  0  0
    1.2137    1.1564    2.0008 H   0  0  0  0  0  0  0  0  0  0  0  0
    0.3222    3.1045    2.0709 C   0  0  0  0  0  0  0  0  0  0  0  0
   -0.6646    3.2475    2.5242 H   0  0  0  0  0  0  0  0  0  0  0  0
    1.0837    3.3373    2.8214 H   0  0  0  0  0  0  0  0  0  0  0  0
    0.4318    3.8063    1.2374 H   0  0  0  0  0  0  0  0  0  0  0  0
  1  2  1  0  0  0  0
  2  3  1  0  0  0  0
  2  4  1  0  0  0  0
  2  5  1  0  0  0  0
  5  6  2  0  0  0  0
  5  7  1  0  0  0  0
  7  8  1  0  0  0  0
  7  9  1  0  0  0  0
  9 10  1  0  0  0  0
  9 11  1  0  0  0  0
  9 21  1  0  0  0  0
 11 12  1  0  0  0  0
 11 13  1  0  0  0  0
 11 14  1  0  0  0  0
 14 15  1  0  0  0  0
 14 16  1  0  0  0  0
 14 17  1  0  0  0  0
 17 18  2  0  0  0  0
 17 19  1  0  0  0  0
 19 20  1  0  0  0  0
 21 22  2  0  0  0  0
 21 23  1  0  0  0  0
 23 24  1  0  0  0  0
 23 25  1  0  0  0  0
 25 26  1  0  0  0  0
 25 27  1  0  0  0  0
 25 28  1  0  0  0  0
M  END
$$$$

  -OEChem-03222214033D

 28 27  0     1  0  0  0  0  0999 V2000
   -3.2061   -3.7551    1.2372 H   0  0  0  0  0  0  0  0  0  0  0  0
   -3.1847   -2.7518    0.8026 C   0  0  0  0  0  0  0  0  0  0  0  0
   -3.8038   -2.0898    1.4130 H   0  0  0  0  0  0  0  0  0  0  0  0
   -3.5979   -2.7970   -0.2080 H   0  0  0  0  0  0  0  0  0  0  0  0
   -1.7602   -2.2329    0.7574 C   0  0  0  0  0  0  0  0  0  0  0  0
   -0.8441   -2.9152    1.1889 O   0  0  0  0  0  0  0  0  0  0  0  0
   -1.4983   -0.9899    0.2226 N   0  0  0  0  0  0  0  0  0  0  0  0
   -2.2968   -0.4115   -0.0366 H   0  0  0  0  0  0  0  0  0  0  0  0
   -0.1853   -0.3320    0.2557 C   0  0  1  0  0  0  0  0  0  0  0  0
    0.4611   -0.7937    1.0090 H   0  0  0  0  0  0  0  0  0  0  0  0
    0.4515   -0.4452   -1.1421 C   0  0  0  0  0  0  0  0  0  0  0  0
   -0.3108   -0.3971   -1.9276 H   0  0  0  0  0  0  0  0  0  0  0  0
    1.1094    0.4200   -1.2837 H   0  0  0  0  0  0  0  0  0  0  0  0
    1.2980   -1.7305   -1.2878 C   0  0  0  0  0  0  0  0  0  0  0  0
    1.7211   -2.0119   -0.3198 H   0  0  0  0  0  0  0  0  0  0  0  0
    0.6594   -2.5557   -1.6128 H   0  0  0  0  0  0  0  0  0  0  0  0
    2.4685   -1.5879   -2.2589 C   0  0  0  0  0  0  0  0  0  0  0  0
    2.3649   -0.8434   -3.2180 O   0  0  0  0  0  0  0  0  0  0  0  0
    3.5819   -2.3061   -2.0001 O   0  0  0  0  0  0  0  0  0  0  0  0
    4.1917   -2.0915   -2.7225 H   0  0  0  0  0  0  0  0  0  0  0  0
   -0.3501    1.1464    0.6655 C   0  0  0  0  0  0  0  0  0  0  0  0
   -1.2836    1.8016    0.2169 O   0  0  0  0  0  0  0  0  0  0  0  0
    0.4938    1.7187    1.5993 N   0  0  0  0  0  0  0  0  0  0  0  0
    1.2266    1.1367    1.9950 H   0  0  0  0  0  0  0  0  0  0  0  0
    0.3456    3.0888    2.0752 C   0  0  0  0  0  0  0  0  0  0  0  0
   -0.6051    3.2094    2.6052 H   0  0  0  0  0  0  0  0  0  0  0  0
    1.1596    3.3416    2.7615 H   0  0  0  0  0  0  0  0  0  0  0  0
    0.3724    3.7915    1.2356 H   0  0  0  0  0  0  0  0  0  0  0  0
  1  2  1  0  0  0  0
  2  3  1  0  0  0  0
  2  4  1  0  0  0  0
  2  5  1  0  0  0  0
  5  6  2  0  0  0  0
  5  7  1  0  0  0  0
  7  8  1  0  0  0  0
  7  9  1  0  0  0  0
  9 10  1  0  0  0  0
  9 11  1  0  0  0  0
  9 21  1  0  0  0  0
 11 12  1  0  0  0  0
 11 13  1  0  0  0  0
 11 14  1  0  0  0  0
 14 15  1  0  0  0  0
 14 16  1  0  0  0  0
 14 17  1  0  0  0  0
 17 18  2  0  0  0  0
 17 19  1  0  0  0  0
 19 20  1  0  0  0  0
 21 22  2  0  0  0  0
 21 23  1  0  0  0  0
 23 24  1  0  0  0  0
 23 25  1  0  0  0  0
 25 26  1  0  0  0  0
 25 27  1  0  0  0  0
 25 28  1  0  0  0  0
M  END
$$$$

  -OEChem-03222214033D

 28 27  0     1  0  0  0  0  0999 V2000
   -3.3070   -3.7185    1.2114 H   0  0  0  0  0  0  0  0  0  0  0  0
   -3.2512   -2.7200    0.7687 C   0  0  0  0  0  0  0  0  0  0  0  0
   -3.8622   -2.0364    1.3630 H   0  0  0  0  0  0  0  0  0  0  0  0
   -3.6489   -2.7630   -0.2481 H   0  0  0  0  0  0  0  0  0  0  0  0
   -1.8127   -2.2395    0.7420 C   0  0  0  0  0  0  0  0  0  0  0  0
   -0.9200   -2.9493    1.1782 O   0  0  0  0  0  0  0  0  0  0  0  0
   -1.5121   -1.0002    0.2187 N   0  0  0  0  0  0  0  0  0  0  0  0
   -2.2918   -0.3980   -0.0431 H   0  0  0  0  0  0  0  0  0  0  0  0
   -0.1786   -0.3849    0.2547 C   0  0  1  0  0  0  0  0  0  0  0  0
    0.4573   -0.8736    1.0000 H   0  0  0  0  0  0  0  0  0  0  0  0
    0.4506   -0.4994   -1.1467 C   0  0  0  0  0  0  0  0  0  0  0  0
   -0.3182   -0.4247   -1.9236 H   0  0  0  0  0  0  0  0  0  0  0  0
    1.1249    0.3530   -1.2895 H   0  0  0  0  0  0  0  0  0  0  0  0
    1.2564   -1.8063   -1.3171 C   0  0  0  0  0  0  0  0  0  0  0  0
    1.4535   -2.2763   -0.3501 H   0  0  0  0  0  0  0  0  0  0  0  0
    0.6741   -2.5199   -1.9072 H   0  0  0  0  0  0  0  0  0  0  0  0
    2.6020   -1.5607   -1.9870 C   0  0  0  0  0  0  0  0  0  0  0  0
    2.7733   -1.9685   -3.1208 O   0  0  0  0  0  0  0  0  0  0  0  0
    3.5456   -0.8925   -1.2876 O   0  0  0  0  0  0  0  0  0  0  0  0
    4.3104   -0.8512   -1.8824 H   0  0  0  0  0  0  0  0  0  0  0  0
   -0.2916    1.0939    0.6792 C   0  0  0  0  0  0  0  0  0  0  0  0
   -1.1945    1.7890    0.2278 O   0  0  0  0  0  0  0  0  0  0  0  0
    0.5743    1.6273    1.6157 N   0  0  0  0  0  0  0  0  0  0  0  0
    1.2981    1.0201    1.9906 H   0  0  0  0  0  0  0  0  0  0  0  0
    0.4908    3.0035    2.0897 C   0  0  0  0  0  0  0  0  0  0  0  0
   -0.4778    3.1861    2.5672 H   0  0  0  0  0  0  0  0  0  0  0  0
    1.2795    3.2005    2.8223 H   0  0  0  0  0  0  0  0  0  0  0  0
    0.6106    3.7037    1.2562 H   0  0  0  0  0  0  0  0  0  0  0  0
  1  2  1  0  0  0  0
  2  3  1  0  0  0  0
  2  4  1  0  0  0  0
  2  5  1  0  0  0  0
  5  6  2  0  0  0  0
  5  7  1  0  0  0  0
  7  8  1  0  0  0  0
  7  9  1  0  0  0  0
  9 10  1  0  0  0  0
  9 11  1  0  0  0  0
  9 21  1  0  0  0  0
 11 12  1  0  0  0  0
 11 13  1  0  0  0  0
 11 14  1  0  0  0  0
 14 15  1  0  0  0  0
 14 16  1  0  0  0  0
 14 17  1  0  0  0  0
 17 18  2  0  0  0  0
 17 19  1  0  0  0  0
 19 20  1  0  0  0  0
 21 22  2  0  0  0  0
 21 23  1  0  0  0  0
 23 24  1  0  0  0  0
 23 25  1  0  0  0  0
 25 26  1  0  0  0  0
 25 27  1  0  0  0  0
 25 28  1  0  0  0  0
M  END
$$$$

  -OEChem-03222214033D

 28 27  0     1  0  0  0  0  0999 V2000
   -3.2524   -3.7342    1.2777 H   0  0  0  0  0  0  0  0  0  0  0  0
   -3.2087   -2.7418    0.8201 C   0  0  0  0  0  0  0  0  0  0  0  0
   -3.8318   -2.0577    1.4014 H   0  0  0  0  0  0  0  0  0  0  0  0
   -3.6016   -2.8058   -0.1975 H   0  0  0  0  0  0  0  0  0  0  0  0
   -1.7772   -2.2408    0.7928 C   0  0  0  0  0  0  0  0  0  0  0  0
   -0.8825   -2.9157    1.2764 O   0  0  0  0  0  0  0  0  0  0  0  0
   -1.4916   -1.0180    0.2242 N   0  0  0  0  0  0  0  0  0  0  0  0
   -2.2818   -0.4439   -0.0671 H   0  0  0  0  0  0  0  0  0  0  0  0
   -0.1834   -0.3511    0.2877 C   0  0  1  0  0  0  0  0  0  0  0  0
    0.4326   -0.7800    1.0853 H   0  0  0  0  0  0  0  0  0  0  0  0
    0.5322   -0.4981   -1.0676 C   0  0  0  0  0  0  0  0  0  0  0  0
   -0.2066   -0.5127   -1.8761 H   0  0  0  0  0  0  0  0  0  0  0  0
    1.1638    0.3812   -1.2397 H   0  0  0  0  0  0  0  0  0  0  0  0
    1.3990   -1.7776   -1.1266 C   0  0  0  0  0  0  0  0  0  0  0  0
    1.3165   -2.3614   -0.2059 H   0  0  0  0  0  0  0  0  0  0  0  0
    1.0371   -2.4137   -1.9388 H   0  0  0  0  0  0  0  0  0  0  0  0
    2.8733   -1.4741   -1.3689 C   0  0  0  0  0  0  0  0  0  0  0  0
    3.4463   -0.7292   -0.5919 O   0  0  0  0  0  0  0  0  0  0  0  0
    3.4750   -2.0358   -2.4391 O   0  0  0  0  0  0  0  0  0  0  0  0
    4.3915   -1.7218   -2.4074 H   0  0  0  0  0  0  0  0  0  0  0  0
   -0.3691    1.1404    0.6328 C   0  0  0  0  0  0  0  0  0  0  0  0
   -1.2915    1.7700    0.1265 O   0  0  0  0  0  0  0  0  0  0  0  0
    0.4339    1.7501    1.5780 N   0  0  0  0  0  0  0  0  0  0  0  0
    1.2008    1.2062    1.9654 H   0  0  0  0  0  0  0  0  0  0  0  0
    0.2880    3.1461    1.9716 C   0  0  0  0  0  0  0  0  0  0  0  0
   -0.6915    3.3138    2.4316 H   0  0  0  0  0  0  0  0  0  0  0  0
    1.0616    3.4174    2.6964 H   0  0  0  0  0  0  0  0  0  0  0  0
    0.3855    3.8032    1.1010 H   0  0  0  0  0  0  0  0  0  0  0  0
  1  2  1  0  0  0  0
  2  3  1  0  0  0  0
  2  4  1  0  0  0  0
  2  5  1  0  0  0  0
  5  6  2  0  0  0  0
  5  7  1  0  0  0  0
  7  8  1  0  0  0  0
  7  9  1  0  0  0  0
  9 10  1  0  0  0  0
  9 11  1  0  0  0  0
  9 21  1  0  0  0  0
 11 12  1  0  0  0  0
 11 13  1  0  0  0  0
 11 14  1  0  0  0  0
 14 15  1  0  0  0  0
 14 16  1  0  0  0  0
 14 17  1  0  0  0  0
 17 18  2  0  0  0  0
 17 19  1  0  0  0  0
 19 20  1  0  0  0  0
 21 22  2  0  0  0  0
 21 23  1  0  0  0  0
 23 24  1  0  0  0  0
 23 25  1  0  0  0  0
 25 26  1  0  0  0  0
 25 27  1  0  0  0  0
 25 28  1  0  0  0  0
M  END
$$$$

  -OEChem-03222214033D

 28 27  0     1  0  0  0  0  0999 V2000
   -3.2706   -3.7279    1.2965 H   0  0  0  0  0  0  0  0  0  0  0  0
   -3.2236   -2.7468    0.8156 C   0  0  0  0  0  0  0  0  0  0  0  0
   -3.8536   -2.0503    1.3742 H   0  0  0  0  0  0  0  0  0  0  0  0
   -3.6052   -2.8353   -0.2044 H   0  0  0  0  0  0  0  0  0  0  0  0
   -1.7927   -2.2440    0.7904 C   0  0  0  0  0  0  0  0  0  0  0  0
   -0.8981   -2.9212    1.2709 O   0  0  0  0  0  0  0  0  0  0  0  0
   -1.5108   -1.0169    0.2287 N   0  0  0  0  0  0  0  0  0  0  0  0
   -2.3036   -0.4416   -0.0532 H   0  0  0  0  0  0  0  0  0  0  0  0
   -0.2013   -0.3495    0.2760 C   0  0  1  0  0  0  0  0  0  0  0  0
    0.4238   -0.7879    1.0618 H   0  0  0  0  0  0  0  0  0  0  0  0
    0.5109   -0.4833   -1.0825 C   0  0  0  0  0  0  0  0  0  0  0  0
   -0.2415   -0.5155   -1.8778 H   0  0  0  0  0  0  0  0  0  0  0  0
    1.1315    0.3993   -1.2765 H   0  0  0  0  0  0  0  0  0  0  0  0
    1.3798   -1.7593   -1.1418 C   0  0  0  0  0  0  0  0  0  0  0  0
    1.0919   -2.4805   -0.3729 H   0  0  0  0  0  0  0  0  0  0  0  0
    1.2221   -2.2434   -2.1092 H   0  0  0  0  0  0  0  0  0  0  0  0
    2.8697   -1.4575   -1.0115 C   0  0  0  0  0  0  0  0  0  0  0  0
    3.2331   -0.6760   -0.1475 O   0  0  0  0  0  0  0  0  0  0  0  0
    3.7202   -2.0697   -1.8627 O   0  0  0  0  0  0  0  0  0  0  0  0
    4.6016   -1.7560   -1.6093 H   0  0  0  0  0  0  0  0  0  0  0  0
   -0.3721    1.1397    0.6357 C   0  0  0  0  0  0  0  0  0  0  0  0
   -1.3037    1.7781    0.1577 O   0  0  0  0  0  0  0  0  0  0  0  0
    0.4546    1.7317    1.5714 N   0  0  0  0  0  0  0  0  0  0  0  0
    1.2457    1.1867    1.9069 H   0  0  0  0  0  0  0  0  0  0  0  0
    0.3311    3.1249    1.9815 C   0  0  0  0  0  0  0  0  0  0  0  0
   -0.6572    3.3103    2.4155 H   0  0  0  0  0  0  0  0  0  0  0  0
    1.0884    3.3658    2.7339 H   0  0  0  0  0  0  0  0  0  0  0  0
    0.4703    3.7911    1.1235 H   0  0  0  0  0  0  0  0  0  0  0  0
  1  2  1  0  0  0  0
  2  3  1  0  0  0  0
  2  4  1  0  0  0  0
  2  5  1  0  0  0  0
  5  6  2  0  0  0  0
  5  7  1  0  0  0  0
  7  8  1  0  0  0  0
  7  9  1  0  0  0  0
  9 10  1  0  0  0  0
  9 11  1  0  0  0  0
  9 21  1  0  0  0  0
 11 12  1  0  0  0  0
 11 13  1  0  0  0  0
 11 14  1  0  0  0  0
 14 15  1  0  0  0  0
 14 16  1  0  0  0  0
 14 17  1  0  0  0  0
 17 18  2  0  0  0  0
 17 19  1  0  0  0  0
 19 20  1  0  0  0  0
 21 22  2  0  0  0  0
 21 23  1  0  0  0  0
 23 24  1  0  0  0  0
 23 25  1  0  0  0  0
 25 26  1  0  0  0  0
 25 27  1  0  0  0  0
 25 28  1  0  0  0  0
M  END
$$$$

  -OEChem-03222214033D

 28 27  0     1  0  0  0  0  0999 V2000
   -3.2655   -3.7418    1.2929 H   0  0  0  0  0  0  0  0  0  0  0  0
   -3.2242   -2.7628    0.8071 C   0  0  0  0  0  0  0  0  0  0  0  0
   -3.8574   -2.0671    1.3632 H   0  0  0  0  0  0  0  0  0  0  0  0
   -3.6065   -2.8586   -0.2120 H   0  0  0  0  0  0  0  0  0  0  0  0
   -1.7961   -2.2529    0.7775 C   0  0  0  0  0  0  0  0  0  0  0  0
   -0.8946   -2.9347    1.2380 O   0  0  0  0  0  0  0  0  0  0  0  0
   -1.5252   -1.0174    0.2291 N   0  0  0  0  0  0  0  0  0  0  0  0
   -2.3245   -0.4425   -0.0341 H   0  0  0  0  0  0  0  0  0  0  0  0
   -0.2186   -0.3434    0.2688 C   0  0  1  0  0  0  0  0  0  0  0  0
    0.4097   -0.7928    1.0457 H   0  0  0  0  0  0  0  0  0  0  0  0
    0.4899   -0.4607   -1.0938 C   0  0  0  0  0  0  0  0  0  0  0  0
   -0.2673   -0.4949   -1.8844 H   0  0  0  0  0  0  0  0  0  0  0  0
    1.1068    0.4245   -1.2873 H   0  0  0  0  0  0  0  0  0  0  0  0
    1.3668   -1.7283   -1.1649 C   0  0  0  0  0  0  0  0  0  0  0  0
    0.9237   -2.5493   -0.5963 H   0  0  0  0  0  0  0  0  0  0  0  0
    1.4237   -2.0511   -2.2077 H   0  0  0  0  0  0  0  0  0  0  0  0
    2.7977   -1.4909   -0.6816 C   0  0  0  0  0  0  0  0  0  0  0  0
    3.0057   -0.6499    0.1797 O   0  0  0  0  0  0  0  0  0  0  0  0
    3.7766   -2.2333   -1.2412 O   0  0  0  0  0  0  0  0  0  0  0  0
    4.5927   -1.9508   -0.8012 H   0  0  0  0  0  0  0  0  0  0  0  0
   -0.3794    1.1410    0.6487 C   0  0  0  0  0  0  0  0  0  0  0  0
   -1.3166    1.7880    0.1940 O   0  0  0  0  0  0  0  0  0  0  0  0
    0.4643    1.7163    1.5795 N   0  0  0  0  0  0  0  0  0  0  0  0
    1.2717    1.1696    1.8729 H   0  0  0  0  0  0  0  0  0  0  0  0
    0.3655    3.1097    1.9954 C   0  0  0  0  0  0  0  0  0  0  0  0
   -0.6193    3.3110    2.4301 H   0  0  0  0  0  0  0  0  0  0  0  0
    1.1265    3.3340    2.7492 H   0  0  0  0  0  0  0  0  0  0  0  0
    0.5166    3.7771    1.1405 H   0  0  0  0  0  0  0  0  0  0  0  0
  1  2  1  0  0  0  0
  2  3  1  0  0  0  0
  2  4  1  0  0  0  0
  2  5  1  0  0  0  0
  5  6  2  0  0  0  0
  5  7  1  0  0  0  0
  7  8  1  0  0  0  0
  7  9  1  0  0  0  0
  9 10  1  0  0  0  0
  9 11  1  0  0  0  0
  9 21  1  0  0  0  0
 11 12  1  0  0  0  0
 11 13  1  0  0  0  0
 11 14  1  0  0  0  0
 14 15  1  0  0  0  0
 14 16  1  0  0  0  0
 14 17  1  0  0  0  0
 17 18  2  0  0  0  0
 17 19  1  0  0  0  0
 19 20  1  0  0  0  0
 21 22  2  0  0  0  0
 21 23  1  0  0  0  0
 23 24  1  0  0  0  0
 23 25  1  0  0  0  0
 25 26  1  0  0  0  0
 25 27  1  0  0  0  0
 25 28  1  0  0  0  0
M  END
$$$$

  -OEChem-03222214033D

 28 27  0     1  0  0  0  0  0999 V2000
   -3.2210   -3.7684    1.2948 H   0  0  0  0  0  0  0  0  0  0  0  0
   -3.1987   -2.7922    0.8024 C   0  0  0  0  0  0  0  0  0  0  0  0
   -3.8380   -2.1029    1.3595 H   0  0  0  0  0  0  0  0  0  0  0  0
   -3.5881   -2.9006   -0.2127 H   0  0  0  0  0  0  0  0  0  0  0  0
   -1.7783   -2.2617    0.7577 C   0  0  0  0  0  0  0  0  0  0  0  0
   -0.8589   -2.9413    1.1855 O   0  0  0  0  0  0  0  0  0  0  0  0
   -1.5310   -1.0146    0.2243 N   0  0  0  0  0  0  0  0  0  0  0  0
   -2.3402   -0.4444   -0.0178 H   0  0  0  0  0  0  0  0  0  0  0  0
   -0.2324   -0.3258    0.2651 C   0  0  1  0  0  0  0  0  0  0  0  0
    0.3941   -0.7798    1.0397 H   0  0  0  0  0  0  0  0  0  0  0  0
    0.4718   -0.4289   -1.1022 C   0  0  0  0  0  0  0  0  0  0  0  0
   -0.2840   -0.4568   -1.8941 H   0  0  0  0  0  0  0  0  0  0  0  0
    1.0874    0.4601   -1.2814 H   0  0  0  0  0  0  0  0  0  0  0  0
    1.3652   -1.6832   -1.1937 C   0  0  0  0  0  0  0  0  0  0  0  0
    0.8165   -2.5628   -0.8476 H   0  0  0  0  0  0  0  0  0  0  0  0
    1.6235   -1.8516   -2.2421 H   0  0  0  0  0  0  0  0  0  0  0  0
    2.6768   -1.5804   -0.4097 C   0  0  0  0  0  0  0  0  0  0  0  0
    2.8701   -0.6368    0.3428 O   0  0  0  0  0  0  0  0  0  0  0  0
    3.5826   -2.5610   -0.6083 O   0  0  0  0  0  0  0  0  0  0  0  0
    4.3275   -2.3413   -0.0287 H   0  0  0  0  0  0  0  0  0  0  0  0
   -0.3954    1.1520    0.6664 C   0  0  0  0  0  0  0  0  0  0  0  0
   -1.3404    1.8016    0.2318 O   0  0  0  0  0  0  0  0  0  0  0  0
    0.4566    1.7136    1.5977 N   0  0  0  0  0  0  0  0  0  0  0  0
    1.2763    1.1678    1.8585 H   0  0  0  0  0  0  0  0  0  0  0  0
    0.3758    3.1076    2.0141 C   0  0  0  0  0  0  0  0  0  0  0  0
   -0.6057    3.3214    2.4505 H   0  0  0  0  0  0  0  0  0  0  0  0
    1.1409    3.3223    2.7665 H   0  0  0  0  0  0  0  0  0  0  0  0
    0.5337    3.7726    1.1585 H   0  0  0  0  0  0  0  0  0  0  0  0
  1  2  1  0  0  0  0
  2  3  1  0  0  0  0
  2  4  1  0  0  0  0
  2  5  1  0  0  0  0
  5  6  2  0  0  0  0
  5  7  1  0  0  0  0
  7  8  1  0  0  0  0
  7  9  1  0  0  0  0
  9 10  1  0  0  0  0
  9 11  1  0  0  0  0
  9 21  1  0  0  0  0
 11 12  1  0  0  0  0
 11 13  1  0  0  0  0
 11 14  1  0  0  0  0
 14 15  1  0  0  0  0
 14 16  1  0  0  0  0
 14 17  1  0  0  0  0
 17 18  2  0  0  0  0
 17 19  1  0  0  0  0
 19 20  1  0  0  0  0
 21 22  2  0  0  0  0
 21 23  1  0  0  0  0
 23 24  1  0  0  0  0
 23 25  1  0  0  0  0
 25 26  1  0  0  0  0
 25 27  1  0  0  0  0
 25 28  1  0  0  0  0
M  END
$$$$

  -OEChem-03222214033D

 28 27  0     1  0  0  0  0  0999 V2000
   -3.1736   -3.7851    1.2973 H   0  0  0  0  0  0  0  0  0  0  0  0
   -3.1673   -2.8057    0.8108 C   0  0  0  0  0  0  0  0  0  0  0  0
   -3.8018   -2.1248    1.3832 H   0  0  0  0  0  0  0  0  0  0  0  0
   -3.5735   -2.9102   -0.1981 H   0  0  0  0  0  0  0  0  0  0  0  0
   -1.7520   -2.2638    0.7457 C   0  0  0  0  0  0  0  0  0  0  0  0
   -0.8192   -2.9393    1.1506 O   0  0  0  0  0  0  0  0  0  0  0  0
   -1.5212   -1.0118    0.2162 N   0  0  0  0  0  0  0  0  0  0  0  0
   -2.3372   -0.4441   -0.0084 H   0  0  0  0  0  0  0  0  0  0  0  0
   -0.2290   -0.3131    0.2654 C   0  0  1  0  0  0  0  0  0  0  0  0
    0.3886   -0.7620    1.0480 H   0  0  0  0  0  0  0  0  0  0  0  0
    0.4737   -0.4159   -1.1046 C   0  0  0  0  0  0  0  0  0  0  0  0
   -0.2766   -0.4261   -1.9021 H   0  0  0  0  0  0  0  0  0  0  0  0
    1.0947    0.4734   -1.2618 H   0  0  0  0  0  0  0  0  0  0  0  0
    1.3820   -1.6590   -1.2247 C   0  0  0  0  0  0  0  0  0  0  0  0
    0.7696   -2.5579   -1.1105 H   0  0  0  0  0  0  0  0  0  0  0  0
    1.8224   -1.6853   -2.2243 H   0  0  0  0  0  0  0  0  0  0  0  0
    2.5226   -1.7355   -0.2054 C   0  0  0  0  0  0  0  0  0  0  0  0
    2.8244   -0.7471    0.4478 O   0  0  0  0  0  0  0  0  0  0  0  0
    3.1730   -2.9136   -0.1031 O   0  0  0  0  0  0  0  0  0  0  0  0
    3.8360   -2.7818    0.5908 H   0  0  0  0  0  0  0  0  0  0  0  0
   -0.4033    1.1618    0.6721 C   0  0  0  0  0  0  0  0  0  0  0  0
   -1.3513    1.8069    0.2379 O   0  0  0  0  0  0  0  0  0  0  0  0
    0.4419    1.7243    1.6090 N   0  0  0  0  0  0  0  0  0  0  0  0
    1.2622    1.1811    1.8731 H   0  0  0  0  0  0  0  0  0  0  0  0
    0.3485    3.1143    2.0362 C   0  0  0  0  0  0  0  0  0  0  0  0
   -0.6387    3.3188    2.4638 H   0  0  0  0  0  0  0  0  0  0  0  0
    1.1042    3.3267    2.7987 H   0  0  0  0  0  0  0  0  0  0  0  0
    0.5117    3.7875    1.1880 H   0  0  0  0  0  0  0  0  0  0  0  0
  1  2  1  0  0  0  0
  2  3  1  0  0  0  0
  2  4  1  0  0  0  0
  2  5  1  0  0  0  0
  5  6  2  0  0  0  0
  5  7  1  0  0  0  0
  7  8  1  0  0  0  0
  7  9  1  0  0  0  0
  9 10  1  0  0  0  0
  9 11  1  0  0  0  0
  9 21  1  0  0  0  0
 11 12  1  0  0  0  0
 11 13  1  0  0  0  0
 11 14  1  0  0  0  0
 14 15  1  0  0  0  0
 14 16  1  0  0  0  0
 14 17  1  0  0  0  0
 17 18  2  0  0  0  0
 17 19  1  0  0  0  0
 19 20  1  0  0  0  0
 21 22  2  0  0  0  0
 21 23  1  0  0  0  0
 23 24  1  0  0  0  0
 23 25  1  0  0  0  0
 25 26  1  0  0  0  0
 25 27  1  0  0  0  0
 25 28  1  0  0  0  0
M  END
$$$$

  -OEChem-03222214033D

 28 27  0     1  0  0  0  0  0999 V2000
   -3.1577   -3.7903    1.2881 H   0  0  0  0  0  0  0  0  0  0  0  0
   -3.1499   -2.8087    0.8060 C   0  0  0  0  0  0  0  0  0  0  0  0
   -3.8037   -2.1363    1.3665 H   0  0  0  0  0  0  0  0  0  0  0  0
   -3.5325   -2.9130   -0.2121 H   0  0  0  0  0  0  0  0  0  0  0  0
   -1.7386   -2.2539    0.7743 C   0  0  0  0  0  0  0  0  0  0  0  0
   -0.8118   -2.9147    1.2148 O   0  0  0  0  0  0  0  0  0  0  0  0
   -1.5036   -1.0084    0.2319 N   0  0  0  0  0  0  0  0  0  0  0  0
   -2.3167   -0.4504   -0.0249 H   0  0  0  0  0  0  0  0  0  0  0  0
   -0.2142   -0.3063    0.2925 C   0  0  1  0  0  0  0  0  0  0  0  0
    0.3921   -0.7387    1.0910 H   0  0  0  0  0  0  0  0  0  0  0  0
    0.4872   -0.4249   -1.0795 C   0  0  0  0  0  0  0  0  0  0  0  0
   -0.2589   -0.4124   -1.8809 H   0  0  0  0  0  0  0  0  0  0  0  0
    1.1169    0.4611   -1.2183 H   0  0  0  0  0  0  0  0  0  0  0  0
    1.4067   -1.6587   -1.2386 C   0  0  0  0  0  0  0  0  0  0  0  0
    0.7695   -2.5380   -1.3692 H   0  0  0  0  0  0  0  0  0  0  0  0
    2.0089   -1.5503   -2.1438 H   0  0  0  0  0  0  0  0  0  0  0  0
    2.3461   -1.9586   -0.0691 C   0  0  0  0  0  0  0  0  0  0  0  0
    2.7854   -1.0314    0.5949 O   0  0  0  0  0  0  0  0  0  0  0  0
    2.6896   -3.2471    0.1397 O   0  0  0  0  0  0  0  0  0  0  0  0
    3.2514   -3.2387    0.9286 H   0  0  0  0  0  0  0  0  0  0  0  0
   -0.4030    1.1730    0.6775 C   0  0  0  0  0  0  0  0  0  0  0  0
   -1.3395    1.8108    0.2091 O   0  0  0  0  0  0  0  0  0  0  0  0
    0.4218    1.7541    1.6214 N   0  0  0  0  0  0  0  0  0  0  0  0
    1.2198    1.2075    1.9401 H   0  0  0  0  0  0  0  0  0  0  0  0
    0.3000    3.1429    2.0454 C   0  0  0  0  0  0  0  0  0  0  0  0
   -0.6961    3.3312    2.4598 H   0  0  0  0  0  0  0  0  0  0  0  0
    1.0422    3.3687    2.8173 H   0  0  0  0  0  0  0  0  0  0  0  0
    0.4632    3.8181    1.1989 H   0  0  0  0  0  0  0  0  0  0  0  0
  1  2  1  0  0  0  0
  2  3  1  0  0  0  0
  2  4  1  0  0  0  0
  2  5  1  0  0  0  0
  5  6  2  0  0  0  0
  5  7  1  0  0  0  0
  7  8  1  0  0  0  0
  7  9  1  0  0  0  0
  9 10  1  0  0  0  0
  9 11  1  0  0  0  0
  9 21  1  0  0  0  0
 11 12  1  0  0  0  0
 11 13  1  0  0  0  0
 11 14  1  0  0  0  0
 14 15  1  0  0  0  0
 14 16  1  0  0  0  0
 14 17  1  0  0  0  0
 17 18  2  0  0  0  0
 17 19  1  0  0  0  0
 19 20  1  0  0  0  0
 21 22  2  0  0  0  0
 21 23  1  0  0  0  0
 23 24  1  0  0  0  0
 23 25  1  0  0  0  0
 25 26  1  0  0  0  0
 25 27  1  0  0  0  0
 25 28  1  0  0  0  0
M  END
$$$$

  -OEChem-03222214033D

 28 27  0     1  0  0  0  0  0999 V2000
   -3.1684   -3.7902    1.2736 H   0  0  0  0  0  0  0  0  0  0  0  0
   -3.1436   -2.8077    0.7939 C   0  0  0  0  0  0  0  0  0  0  0  0
   -3.8287   -2.1403    1.3221 H   0  0  0  0  0  0  0  0  0  0  0  0
   -3.4742   -2.9133   -0.2422 H   0  0  0  0  0  0  0  0  0  0  0  0
   -1.7365   -2.2424    0.8323 C   0  0  0  0  0  0  0  0  0  0  0  0
   -0.8385   -2.8742    1.3649 O   0  0  0  0  0  0  0  0  0  0  0  0
   -1.4791   -1.0104    0.2692 N   0  0  0  0  0  0  0  0  0  0  0  0
   -2.2782   -0.4682   -0.0563 H   0  0  0  0  0  0  0  0  0  0  0  0
   -0.1877   -0.3129    0.3393 C   0  0  1  0  0  0  0  0  0  0  0  0
    0.4157   -0.7250    1.1498 H   0  0  0  0  0  0  0  0  0  0  0  0
    0.5142   -0.4355   -1.0356 C   0  0  0  0  0  0  0  0  0  0  0  0
   -0.2298   -0.3953   -1.8383 H   0  0  0  0  0  0  0  0  0  0  0  0
    1.1520    0.4475   -1.1549 H   0  0  0  0  0  0  0  0  0  0  0  0
    1.4383   -1.6618   -1.2432 C   0  0  0  0  0  0  0  0  0  0  0  0
    0.8213   -2.4727   -1.6403 H   0  0  0  0  0  0  0  0  0  0  0  0
    2.1931   -1.4281   -1.9982 H   0  0  0  0  0  0  0  0  0  0  0  0
    2.1447   -2.2198   -0.0092 C   0  0  0  0  0  0  0  0  0  0  0  0
    2.7186   -1.4423    0.7376 O   0  0  0  0  0  0  0  0  0  0  0  0
    2.1443   -3.5581    0.1667 O   0  0  0  0  0  0  0  0  0  0  0  0
    2.5648   -3.7036    1.0270 H   0  0  0  0  0  0  0  0  0  0  0  0
   -0.3993    1.1731    0.6898 C   0  0  0  0  0  0  0  0  0  0  0  0
   -1.3146    1.7995    0.1667 O   0  0  0  0  0  0  0  0  0  0  0  0
    0.3957    1.7859    1.6396 N   0  0  0  0  0  0  0  0  0  0  0  0
    1.1542    1.2376    2.0398 H   0  0  0  0  0  0  0  0  0  0  0  0
    0.2471    3.1826    2.0290 C   0  0  0  0  0  0  0  0  0  0  0  0
   -0.7553    3.3640    2.4309 H   0  0  0  0  0  0  0  0  0  0  0  0
    0.9797    3.4405    2.7997 H   0  0  0  0  0  0  0  0  0  0  0  0
    0.4054    3.8392    1.1670 H   0  0  0  0  0  0  0  0  0  0  0  0
  1  2  1  0  0  0  0
  2  3  1  0  0  0  0
  2  4  1  0  0  0  0
  2  5  1  0  0  0  0
  5  6  2  0  0  0  0
  5  7  1  0  0  0  0
  7  8  1  0  0  0  0
  7  9  1  0  0  0  0
  9 10  1  0  0  0  0
  9 11  1  0  0  0  0
  9 21  1  0  0  0  0
 11 12  1  0  0  0  0
 11 13  1  0  0  0  0
 11 14  1  0  0  0  0
 14 15  1  0  0  0  0
 14 16  1  0  0  0  0
 14 17  1  0  0  0  0
 17 18  2  0  0  0  0
 17 19  1  0  0  0  0
 19 20  1  0  0  0  0
 21 22  2  0  0  0  0
 21 23  1  0  0  0  0
 23 24  1  0  0  0  0
 23 25  1  0  0  0  0
 25 26  1  0  0  0  0
 25 27  1  0  0  0  0
 25 28  1  0  0  0  0
M  END
$$$$

  -OEChem-03222214033D

 28 27  0     1  0  0  0  0  0999 V2000
   -3.1894   -3.7892    1.2601 H   0  0  0  0  0  0  0  0  0  0  0  0
   -3.1445   -2.8075    0.7803 C   0  0  0  0  0  0  0  0  0  0  0  0
   -3.8609   -2.1427    1.2691 H   0  0  0  0  0  0  0  0  0  0  0  0
   -3.4182   -2.9177   -0.2717 H   0  0  0  0  0  0  0  0  0  0  0  0
   -1.7454   -2.2331    0.8941 C   0  0  0  0  0  0  0  0  0  0  0  0
   -0.8936   -2.8276    1.5344 O   0  0  0  0  0  0  0  0  0  0  0  0
   -1.4585   -1.0177    0.3089 N   0  0  0  0  0  0  0  0  0  0  0  0
   -2.2359   -0.4981   -0.0957 H   0  0  0  0  0  0  0  0  0  0  0  0
   -0.1624   -0.3279    0.3796 C   0  0  1  0  0  0  0  0  0  0  0  0
    0.4441   -0.7238    1.1965 H   0  0  0  0  0  0  0  0  0  0  0  0
    0.5435   -0.4514   -0.9963 C   0  0  0  0  0  0  0  0  0  0  0  0
   -0.2037   -0.4007   -1.7957 H   0  0  0  0  0  0  0  0  0  0  0  0
    1.1805    0.4326   -1.1125 H   0  0  0  0  0  0  0  0  0  0  0  0
    1.4694   -1.6728   -1.2358 C   0  0  0  0  0  0  0  0  0  0  0  0
    0.9376   -2.3681   -1.8910 H   0  0  0  0  0  0  0  0  0  0  0  0
    2.3663   -1.3499   -1.7709 H   0  0  0  0  0  0  0  0  0  0  0  0
    1.9063   -2.4717   -0.0126 C   0  0  0  0  0  0  0  0  0  0  0  0
    2.5642   -1.9051    0.8451 O   0  0  0  0  0  0  0  0  0  0  0  0
    1.5744   -3.7790    0.0401 O   0  0  0  0  0  0  0  0  0  0  0  0
    1.8140   -4.0645    0.9349 H   0  0  0  0  0  0  0  0  0  0  0  0
   -0.3864    1.1656    0.6927 C   0  0  0  0  0  0  0  0  0  0  0  0
   -1.2772    1.7829    0.1189 O   0  0  0  0  0  0  0  0  0  0  0  0
    0.3886    1.8066    1.6405 N   0  0  0  0  0  0  0  0  0  0  0  0
    1.1042    1.2580    2.1117 H   0  0  0  0  0  0  0  0  0  0  0  0
    0.2144    3.2074    2.0040 C   0  0  0  0  0  0  0  0  0  0  0  0
   -0.7919    3.3782    2.4010 H   0  0  0  0  0  0  0  0  0  0  0  0
    0.9412    3.4930    2.7706 H   0  0  0  0  0  0  0  0  0  0  0  0
    0.3626    3.8513    1.1307 H   0  0  0  0  0  0  0  0  0  0  0  0
  1  2  1  0  0  0  0
  2  3  1  0  0  0  0
  2  4  1  0  0  0  0
  2  5  1  0  0  0  0
  5  6  2  0  0  0  0
  5  7  1  0  0  0  0
  7  8  1  0  0  0  0
  7  9  1  0  0  0  0
  9 10  1  0  0  0  0
  9 11  1  0  0  0  0
  9 21  1  0  0  0  0
 11 12  1  0  0  0  0
 11 13  1  0  0  0  0
 11 14  1  0  0  0  0
 14 15  1  0  0  0  0
 14 16  1  0  0  0  0
 14 17  1  0  0  0  0
 17 18  2  0  0  0  0
 17 19  1  0  0  0  0
 19 20  1  0  0  0  0
 21 22  2  0  0  0  0
 21 23  1  0  0  0  0
 23 24  1  0  0  0  0
 23 25  1  0  0  0  0
 25 26  1  0  0  0  0
 25 27  1  0  0  0  0
 25 28  1  0  0  0  0
M  END
$$$$

  -OEChem-03222214033D

 28 27  0     1  0  0  0  0  0999 V2000
   -3.1997   -3.7979    1.2483 H   0  0  0  0  0  0  0  0  0  0  0  0
   -3.1365   -2.8212    0.7605 C   0  0  0  0  0  0  0  0  0  0  0  0
   -3.8859   -2.1582    1.1993 H   0  0  0  0  0  0  0  0  0  0  0  0
   -3.3482   -2.9463   -0.3041 H   0  0  0  0  0  0  0  0  0  0  0  0
   -1.7516   -2.2316    0.9475 C   0  0  0  0  0  0  0  0  0  0  0  0
   -0.9480   -2.7915    1.6761 O   0  0  0  0  0  0  0  0  0  0  0  0
   -1.4393   -1.0299    0.3464 N   0  0  0  0  0  0  0  0  0  0  0  0
   -2.1943   -0.5385   -0.1293 H   0  0  0  0  0  0  0  0  0  0  0  0
   -0.1375   -0.3468    0.4048 C   0  0  1  0  0  0  0  0  0  0  0  0
    0.4820   -0.7367    1.2168 H   0  0  0  0  0  0  0  0  0  0  0  0
    0.5669   -0.4669   -0.9750 C   0  0  0  0  0  0  0  0  0  0  0  0
   -0.1947   -0.4301   -1.7616 H   0  0  0  0  0  0  0  0  0  0  0  0
    1.1919    0.4228   -1.1118 H   0  0  0  0  0  0  0  0  0  0  0  0
    1.4917   -1.6864   -1.2301 C   0  0  0  0  0  0  0  0  0  0  0  0
    1.1134   -2.2328   -2.0984 H   0  0  0  0  0  0  0  0  0  0  0  0
    2.4922   -1.3291   -1.4889 H   0  0  0  0  0  0  0  0  0  0  0  0
    1.6394   -2.6846   -0.0906 C   0  0  0  0  0  0  0  0  0  0  0  0
    2.3439   -2.3780    0.8567 O   0  0  0  0  0  0  0  0  0  0  0  0
    0.9865   -3.8615   -0.1924 O   0  0  0  0  0  0  0  0  0  0  0  0
    1.0420   -4.2488    0.6964 H   0  0  0  0  0  0  0  0  0  0  0  0
   -0.3678    1.1516    0.6925 C   0  0  0  0  0  0  0  0  0  0  0  0
   -1.2491    1.7603    0.0952 O   0  0  0  0  0  0  0  0  0  0  0  0
    0.4024    1.8124    1.6309 N   0  0  0  0  0  0  0  0  0  0  0  0
    1.0898    1.2653    2.1435 H   0  0  0  0  0  0  0  0  0  0  0  0
    0.1997    3.2104    1.9912 C   0  0  0  0  0  0  0  0  0  0  0  0
   -0.8092    3.3607    2.3899 H   0  0  0  0  0  0  0  0  0  0  0  0
    0.9221    3.5133    2.7553 H   0  0  0  0  0  0  0  0  0  0  0  0
    0.3322    3.8550    1.1159 H   0  0  0  0  0  0  0  0  0  0  0  0
  1  2  1  0  0  0  0
  2  3  1  0  0  0  0
  2  4  1  0  0  0  0
  2  5  1  0  0  0  0
  5  6  2  0  0  0  0
  5  7  1  0  0  0  0
  7  8  1  0  0  0  0
  7  9  1  0  0  0  0
  9 10  1  0  0  0  0
  9 11  1  0  0  0  0
  9 21  1  0  0  0  0
 11 12  1  0  0  0  0
 11 13  1  0  0  0  0
 11 14  1  0  0  0  0
 14 15  1  0  0  0  0
 14 16  1  0  0  0  0
 14 17  1  0  0  0  0
 17 18  2  0  0  0  0
 17 19  1  0  0  0  0
 19 20  1  0  0  0  0
 21 22  2  0  0  0  0
 21 23  1  0  0  0  0
 23 24  1  0  0  0  0
 23 25  1  0  0  0  0
 25 26  1  0  0  0  0
 25 27  1  0  0  0  0
 25 28  1  0  0  0  0
M  END
$$$$

  -OEChem-03222214033D

 28 27  0     1  0  0  0  0  0999 V2000
   -3.1370   -3.8834    1.2739 H   0  0  0  0  0  0  0  0  0  0  0  0
   -3.0867   -2.9103    0.7776 C   0  0  0  0  0  0  0  0  0  0  0  0
   -3.8521   -2.2569    1.2033 H   0  0  0  0  0  0  0  0  0  0  0  0
   -3.2860   -3.0486   -0.2878 H   0  0  0  0  0  0  0  0  0  0  0  0
   -1.7140   -2.2950    0.9715 C   0  0  0  0  0  0  0  0  0  0  0  0
   -0.9027   -2.8471    1.6966 O   0  0  0  0  0  0  0  0  0  0  0  0
   -1.4268   -1.0822    0.3808 N   0  0  0  0  0  0  0  0  0  0  0  0
   -2.1953   -0.6138   -0.0964 H   0  0  0  0  0  0  0  0  0  0  0  0
   -0.1428   -0.3608    0.4160 C   0  0  1  0  0  0  0  0  0  0  0  0
    0.5116   -0.7517    1.2019 H   0  0  0  0  0  0  0  0  0  0  0  0
    0.5452   -0.4390   -0.9762 C   0  0  0  0  0  0  0  0  0  0  0  0
   -0.2407   -0.4453   -1.7394 H   0  0  0  0  0  0  0  0  0  0  0  0
    1.1218    0.4790   -1.1367 H   0  0  0  0  0  0  0  0  0  0  0  0
    1.5063   -1.6209   -1.2578 C   0  0  0  0  0  0  0  0  0  0  0  0
    1.3220   -1.9971   -2.2676 H   0  0  0  0  0  0  0  0  0  0  0  0
    2.5339   -1.2467   -1.2376 H   0  0  0  0  0  0  0  0  0  0  0  0
    1.4370   -2.7954   -0.2954 C   0  0  0  0  0  0  0  0  0  0  0  0
    2.1591   -2.7661    0.6860 O   0  0  0  0  0  0  0  0  0  0  0  0
    0.5949   -3.8113   -0.5785 O   0  0  0  0  0  0  0  0  0  0  0  0
    0.5853   -4.3390    0.2378 H   0  0  0  0  0  0  0  0  0  0  0  0
   -0.4117    1.1279    0.7200 C   0  0  0  0  0  0  0  0  0  0  0  0
   -1.3149    1.7175    0.1367 O   0  0  0  0  0  0  0  0  0  0  0  0
    0.3584    1.8050    1.6467 N   0  0  0  0  0  0  0  0  0  0  0  0
    1.0532    1.2693    2.1609 H   0  0  0  0  0  0  0  0  0  0  0  0
    0.1218    3.1946    2.0184 C   0  0  0  0  0  0  0  0  0  0  0  0
   -0.8861    3.3149    2.4297 H   0  0  0  0  0  0  0  0  0  0  0  0
    0.8446    3.5124    2.7761 H   0  0  0  0  0  0  0  0  0  0  0  0
    0.2267    3.8479    1.1457 H   0  0  0  0  0  0  0  0  0  0  0  0
  1  2  1  0  0  0  0
  2  3  1  0  0  0  0
  2  4  1  0  0  0  0
  2  5  1  0  0  0  0
  5  6  2  0  0  0  0
  5  7  1  0  0  0  0
  7  8  1  0  0  0  0
  7  9  1  0  0  0  0
  9 10  1  0  0  0  0
  9 11  1  0  0  0  0
  9 21  1  0  0  0  0
 11 12  1  0  0  0  0
 11 13  1  0  0  0  0
 11 14  1  0  0  0  0
 14 15  1  0  0  0  0
 14 16  1  0  0  0  0
 14 17  1  0  0  0  0
 17 18  2  0  0  0  0
 17 19  1  0  0  0  0
 19 20  1  0  0  0  0
 21 22  2  0  0  0  0
 21 23  1  0  0  0  0
 23 24  1  0  0  0  0
 23 25  1  0  0  0  0
 25 26  1  0  0  0  0
 25 27  1  0  0  0  0
 25 28  1  0  0  0  0
M  END
$$$$

  -OEChem-03222214033D

 28 27  0     1  0  0  0  0  0999 V2000
   -3.1055   -3.9666    1.2274 H   0  0  0  0  0  0  0  0  0  0  0  0
   -3.0675   -3.0073    0.7042 C   0  0  0  0  0  0  0  0  0  0  0  0
   -3.8739   -2.3702    1.0751 H   0  0  0  0  0  0  0  0  0  0  0  0
   -3.2123   -3.1845   -0.3643 H   0  0  0  0  0  0  0  0  0  0  0  0
   -1.7270   -2.3377    0.9365 C   0  0  0  0  0  0  0  0  0  0  0  0
   -0.8970   -2.8706    1.6593 O   0  0  0  0  0  0  0  0  0  0  0  0
   -1.4800   -1.0958    0.3861 N   0  0  0  0  0  0  0  0  0  0  0  0
   -2.2479   -0.6543   -0.1159 H   0  0  0  0  0  0  0  0  0  0  0  0
   -0.1874   -0.3890    0.3801 C   0  0  1  0  0  0  0  0  0  0  0  0
    0.5140   -0.8295    1.0962 H   0  0  0  0  0  0  0  0  0  0  0  0
    0.4191   -0.3838   -1.0526 C   0  0  0  0  0  0  0  0  0  0  0  0
   -0.4105   -0.3492   -1.7673 H   0  0  0  0  0  0  0  0  0  0  0  0
    0.9956    0.5363   -1.1998 H   0  0  0  0  0  0  0  0  0  0  0  0
    1.3428   -1.5628   -1.4393 C   0  0  0  0  0  0  0  0  0  0  0  0
    1.3126   -1.7112   -2.5224 H   0  0  0  0  0  0  0  0  0  0  0  0
    2.3715   -1.3041   -1.1748 H   0  0  0  0  0  0  0  0  0  0  0  0
    1.0219   -2.8785   -0.7517 C   0  0  0  0  0  0  0  0  0  0  0  0
    0.1647   -3.5930   -1.2434 O   0  0  0  0  0  0  0  0  0  0  0  0
    1.6699   -3.1584    0.3995 O   0  0  0  0  0  0  0  0  0  0  0  0
    1.1464   -3.8686    0.8098 H   0  0  0  0  0  0  0  0  0  0  0  0
   -0.4225    1.0843    0.7771 C   0  0  0  0  0  0  0  0  0  0  0  0
   -1.3332    1.7214    0.2597 O   0  0  0  0  0  0  0  0  0  0  0  0
    0.4090    1.7061    1.6900 N   0  0  0  0  0  0  0  0  0  0  0  0
    1.1015    1.1299    2.1605 H   0  0  0  0  0  0  0  0  0  0  0  0
    0.2121    3.0790    2.1401 C   0  0  0  0  0  0  0  0  0  0  0  0
   -0.7602    3.1848    2.6331 H   0  0  0  0  0  0  0  0  0  0  0  0
    0.9942    3.3596    2.8522 H   0  0  0  0  0  0  0  0  0  0  0  0
    0.2540    3.7710    1.2922 H   0  0  0  0  0  0  0  0  0  0  0  0
  1  2  1  0  0  0  0
  2  3  1  0  0  0  0
  2  4  1  0  0  0  0
  2  5  1  0  0  0  0
  5  6  2  0  0  0  0
  5  7  1  0  0  0  0
  7  8  1  0  0  0  0
  7  9  1  0  0  0  0
  9 10  1  0  0  0  0
  9 11  1  0  0  0  0
  9 21  1  0  0  0  0
 11 12  1  0  0  0  0
 11 13  1  0  0  0  0
 11 14  1  0  0  0  0
 14 15  1  0  0  0  0
 14 16  1  0  0  0  0
 14 17  1  0  0  0  0
 17 18  2  0  0  0  0
 17 19  1  0  0  0  0
 19 20  1  0  0  0  0
 21 22  2  0  0  0  0
 21 23  1  0  0  0  0
 23 24  1  0  0  0  0
 23 25  1  0  0  0  0
 25 26  1  0  0  0  0
 25 27  1  0  0  0  0
 25 28  1  0  0  0  0
M  END
$$$$

  -OEChem-03222214033D

 28 27  0     1  0  0  0  0  0999 V2000
   -3.2465   -3.8130    1.2835 H   0  0  0  0  0  0  0  0  0  0  0  0
   -3.1714   -2.8602    0.7527 C   0  0  0  0  0  0  0  0  0  0  0  0
   -3.9359   -2.1807    1.1368 H   0  0  0  0  0  0  0  0  0  0  0  0
   -3.3487   -3.0362   -0.3113 H   0  0  0  0  0  0  0  0  0  0  0  0
   -1.7940   -2.2578    0.9495 C   0  0  0  0  0  0  0  0  0  0  0  0
   -0.9653   -2.8401    1.6332 O   0  0  0  0  0  0  0  0  0  0  0  0
   -1.5001   -1.0316    0.3896 N   0  0  0  0  0  0  0  0  0  0  0  0
   -2.2556   -0.5589   -0.1029 H   0  0  0  0  0  0  0  0  0  0  0  0
   -0.1789   -0.3830    0.3586 C   0  0  1  0  0  0  0  0  0  0  0  0
    0.5098   -0.8564    1.0665 H   0  0  0  0  0  0  0  0  0  0  0  0
    0.4149   -0.4269   -1.0759 C   0  0  0  0  0  0  0  0  0  0  0  0
   -0.4120   -0.3664   -1.7922 H   0  0  0  0  0  0  0  0  0  0  0  0
    1.0375    0.4601   -1.2381 H   0  0  0  0  0  0  0  0  0  0  0  0
    1.2797   -1.6582   -1.4234 C   0  0  0  0  0  0  0  0  0  0  0  0
    1.4508   -1.6898   -2.5026 H   0  0  0  0  0  0  0  0  0  0  0  0
    2.2547   -1.5489   -0.9409 H   0  0  0  0  0  0  0  0  0  0  0  0
    0.6989   -2.9945   -0.9895 C   0  0  0  0  0  0  0  0  0  0  0  0
   -0.3204   -3.3934   -1.5286 O   0  0  0  0  0  0  0  0  0  0  0  0
    1.3388   -3.6587   -0.0038 O   0  0  0  0  0  0  0  0  0  0  0  0
    0.7180   -4.3493    0.2794 H   0  0  0  0  0  0  0  0  0  0  0  0
   -0.3366    1.1016    0.7506 C   0  0  0  0  0  0  0  0  0  0  0  0
   -1.2261    1.7786    0.2473 O   0  0  0  0  0  0  0  0  0  0  0  0
    0.5394    1.6876    1.6454 N   0  0  0  0  0  0  0  0  0  0  0  0
    1.2177    1.0840    2.1019 H   0  0  0  0  0  0  0  0  0  0  0  0
    0.4173    3.0714    2.0880 C   0  0  0  0  0  0  0  0  0  0  0  0
   -0.5514    3.2353    2.5721 H   0  0  0  0  0  0  0  0  0  0  0  0
    1.2076    3.3106    2.8060 H   0  0  0  0  0  0  0  0  0  0  0  0
    0.5057    3.7547    1.2368 H   0  0  0  0  0  0  0  0  0  0  0  0
  1  2  1  0  0  0  0
  2  3  1  0  0  0  0
  2  4  1  0  0  0  0
  2  5  1  0  0  0  0
  5  6  2  0  0  0  0
  5  7  1  0  0  0  0
  7  8  1  0  0  0  0
  7  9  1  0  0  0  0
  9 10  1  0  0  0  0
  9 11  1  0  0  0  0
  9 21  1  0  0  0  0
 11 12  1  0  0  0  0
 11 13  1  0  0  0  0
 11 14  1  0  0  0  0
 14 15  1  0  0  0  0
 14 16  1  0  0  0  0
 14 17  1  0  0  0  0
 17 18  2  0  0  0  0
 17 19  1  0  0  0  0
 19 20  1  0  0  0  0
 21 22  2  0  0  0  0
 21 23  1  0  0  0  0
 23 24  1  0  0  0  0
 23 25  1  0  0  0  0
 25 26  1  0  0  0  0
 25 27  1  0  0  0  0
 25 28  1  0  0  0  0
M  END
$$$$

  -OEChem-03222214033D

 28 27  0     1  0  0  0  0  0999 V2000
   -3.2123   -3.8065    1.2883 H   0  0  0  0  0  0  0  0  0  0  0  0
   -3.1597   -2.8443    0.7718 C   0  0  0  0  0  0  0  0  0  0  0  0
   -3.9102   -2.1736    1.1967 H   0  0  0  0  0  0  0  0  0  0  0  0
   -3.3774   -3.0009   -0.2879 H   0  0  0  0  0  0  0  0  0  0  0  0
   -1.7776   -2.2406    0.9272 C   0  0  0  0  0  0  0  0  0  0  0  0
   -0.9197   -2.8282    1.5684 O   0  0  0  0  0  0  0  0  0  0  0  0
   -1.5014   -1.0142    0.3611 N   0  0  0  0  0  0  0  0  0  0  0  0
   -2.2641   -0.5439   -0.1225 H   0  0  0  0  0  0  0  0  0  0  0  0
   -0.1851   -0.3604    0.3336 C   0  0  1  0  0  0  0  0  0  0  0  0
    0.4979   -0.8250    1.0523 H   0  0  0  0  0  0  0  0  0  0  0  0
    0.4166   -0.4371   -1.0919 C   0  0  0  0  0  0  0  0  0  0  0  0
   -0.3926   -0.3825   -1.8289 H   0  0  0  0  0  0  0  0  0  0  0  0
    1.0543    0.4383   -1.2572 H   0  0  0  0  0  0  0  0  0  0  0  0
    1.2800   -1.6869   -1.3666 C   0  0  0  0  0  0  0  0  0  0  0  0
    1.6743   -1.6330   -2.3845 H   0  0  0  0  0  0  0  0  0  0  0  0
    2.1336   -1.6850   -0.6834 H   0  0  0  0  0  0  0  0  0  0  0  0
    0.5582   -3.0217   -1.2196 C   0  0  0  0  0  0  0  0  0  0  0  0
   -0.5180   -3.1799   -1.7729 O   0  0  0  0  0  0  0  0  0  0  0  0
    1.1704   -3.9789   -0.4904 O   0  0  0  0  0  0  0  0  0  0  0  0
    0.5211   -4.6942   -0.4138 H   0  0  0  0  0  0  0  0  0  0  0  0
   -0.3411    1.1266    0.7174 C   0  0  0  0  0  0  0  0  0  0  0  0
   -1.2279    1.8030    0.2091 O   0  0  0  0  0  0  0  0  0  0  0  0
    0.5333    1.7160    1.6119 N   0  0  0  0  0  0  0  0  0  0  0  0
    1.2041    1.1123    2.0790 H   0  0  0  0  0  0  0  0  0  0  0  0
    0.4120    3.1026    2.0466 C   0  0  0  0  0  0  0  0  0  0  0  0
   -0.5580    3.2703    2.5268 H   0  0  0  0  0  0  0  0  0  0  0  0
    1.2008    3.3445    2.7656 H   0  0  0  0  0  0  0  0  0  0  0  0
    0.5038    3.7817    1.1923 H   0  0  0  0  0  0  0  0  0  0  0  0
  1  2  1  0  0  0  0
  2  3  1  0  0  0  0
  2  4  1  0  0  0  0
  2  5  1  0  0  0  0
  5  6  2  0  0  0  0
  5  7  1  0  0  0  0
  7  8  1  0  0  0  0
  7  9  1  0  0  0  0
  9 10  1  0  0  0  0
  9 11  1  0  0  0  0
  9 21  1  0  0  0  0
 11 12  1  0  0  0  0
 11 13  1  0  0  0  0
 11 14  1  0  0  0  0
 14 15  1  0  0  0  0
 14 16  1  0  0  0  0
 14 17  1  0  0  0  0
 17 18  2  0  0  0  0
 17 19  1  0  0  0  0
 19 20  1  0  0  0  0
 21 22  2  0  0  0  0
 21 23  1  0  0  0  0
 23 24  1  0  0  0  0
 23 25  1  0  0  0  0
 25 26  1  0  0  0  0
 25 27  1  0  0  0  0
 25 28  1  0  0  0  0
M  END
$$$$

  -OEChem-03222214033D

 28 27  0     1  0  0  0  0  0999 V2000
   -3.1584   -3.8251    1.2524 H   0  0  0  0  0  0  0  0  0  0  0  0
   -3.1282   -2.8553    0.7483 C   0  0  0  0  0  0  0  0  0  0  0  0
   -3.8753   -2.1987    1.2005 H   0  0  0  0  0  0  0  0  0  0  0  0
   -3.3697   -2.9991   -0.3081 H   0  0  0  0  0  0  0  0  0  0  0  0
   -1.7487   -2.2401    0.8803 C   0  0  0  0  0  0  0  0  0  0  0  0
   -0.8644   -2.8368    1.4760 O   0  0  0  0  0  0  0  0  0  0  0  0
   -1.4938   -1.0042    0.3253 N   0  0  0  0  0  0  0  0  0  0  0  0
   -2.2653   -0.5317   -0.1417 H   0  0  0  0  0  0  0  0  0  0  0  0
   -0.1857   -0.3366    0.3138 C   0  0  1  0  0  0  0  0  0  0  0  0
    0.4933   -0.7958    1.0395 H   0  0  0  0  0  0  0  0  0  0  0  0
    0.4158   -0.4297   -1.1066 C   0  0  0  0  0  0  0  0  0  0  0  0
   -0.3767   -0.3689   -1.8612 H   0  0  0  0  0  0  0  0  0  0  0  0
    1.0680    0.4361   -1.2657 H   0  0  0  0  0  0  0  0  0  0  0  0
    1.2781   -1.6926   -1.3191 C   0  0  0  0  0  0  0  0  0  0  0  0
    1.8772   -1.5625   -2.2239 H   0  0  0  0  0  0  0  0  0  0  0  0
    1.9709   -1.8098   -0.4817 H   0  0  0  0  0  0  0  0  0  0  0  0
    0.4916   -2.9928   -1.4844 C   0  0  0  0  0  0  0  0  0  0  0  0
   -0.6063   -2.9780   -2.0173 O   0  0  0  0  0  0  0  0  0  0  0  0
    1.0860   -4.1228   -1.0467 O   0  0  0  0  0  0  0  0  0  0  0  0
    0.4252   -4.8199   -1.1725 H   0  0  0  0  0  0  0  0  0  0  0  0
   -0.3489    1.1462    0.7081 C   0  0  0  0  0  0  0  0  0  0  0  0
   -1.2414    1.8207    0.2077 O   0  0  0  0  0  0  0  0  0  0  0  0
    0.5184    1.7315    1.6121 N   0  0  0  0  0  0  0  0  0  0  0  0
    1.2002    1.1302    2.0657 H   0  0  0  0  0  0  0  0  0  0  0  0
    0.3930    3.1146    2.0565 C   0  0  0  0  0  0  0  0  0  0  0  0
   -0.5809    3.2793    2.5293 H   0  0  0  0  0  0  0  0  0  0  0  0
    1.1751    3.3501    2.7847 H   0  0  0  0  0  0  0  0  0  0  0  0
    0.4931    3.8001    1.2084 H   0  0  0  0  0  0  0  0  0  0  0  0
  1  2  1  0  0  0  0
  2  3  1  0  0  0  0
  2  4  1  0  0  0  0
  2  5  1  0  0  0  0
  5  6  2  0  0  0  0
  5  7  1  0  0  0  0
  7  8  1  0  0  0  0
  7  9  1  0  0  0  0
  9 10  1  0  0  0  0
  9 11  1  0  0  0  0
  9 21  1  0  0  0  0
 11 12  1  0  0  0  0
 11 13  1  0  0  0  0
 11 14  1  0  0  0  0
 14 15  1  0  0  0  0
 14 16  1  0  0  0  0
 14 17  1  0  0  0  0
 17 18  2  0  0  0  0
 17 19  1  0  0  0  0
 19 20  1  0  0  0  0
 21 22  2  0  0  0  0
 21 23  1  0  0  0  0
 23 24  1  0  0  0  0
 23 25  1  0  0  0  0
 25 26  1  0  0  0  0
 25 27  1  0  0  0  0
 25 28  1  0  0  0  0
M  END
$$$$

  -OEChem-03222214033D

 28 27  0     1  0  0  0  0  0999 V2000
   -3.1359   -3.8258    1.2129 H   0  0  0  0  0  0  0  0  0  0  0  0
   -3.1133   -2.8505    0.7192 C   0  0  0  0  0  0  0  0  0  0  0  0
   -3.8659   -2.2044    1.1772 H   0  0  0  0  0  0  0  0  0  0  0  0
   -3.3522   -2.9855   -0.3387 H   0  0  0  0  0  0  0  0  0  0  0  0
   -1.7389   -2.2252    0.8580 C   0  0  0  0  0  0  0  0  0  0  0  0
   -0.8481   -2.8204    1.4462 O   0  0  0  0  0  0  0  0  0  0  0  0
   -1.4901   -0.9871    0.3054 N   0  0  0  0  0  0  0  0  0  0  0  0
   -2.2590   -0.5175   -0.1686 H   0  0  0  0  0  0  0  0  0  0  0  0
   -0.1847   -0.3169    0.3136 C   0  0  1  0  0  0  0  0  0  0  0  0
    0.4848   -0.7689    1.0520 H   0  0  0  0  0  0  0  0  0  0  0  0
    0.4157   -0.4378   -1.1018 C   0  0  0  0  0  0  0  0  0  0  0  0
   -0.3644   -0.3653   -1.8680 H   0  0  0  0  0  0  0  0  0  0  0  0
    1.0835    0.4158   -1.2603 H   0  0  0  0  0  0  0  0  0  0  0  0
    1.2689   -1.7175   -1.2675 C   0  0  0  0  0  0  0  0  0  0  0  0
    2.0456   -1.5202   -2.0106 H   0  0  0  0  0  0  0  0  0  0  0  0
    1.7727   -1.9660   -0.3298 H   0  0  0  0  0  0  0  0  0  0  0  0
    0.5056   -2.9541   -1.7514 C   0  0  0  0  0  0  0  0  0  0  0  0
   -0.6407   -2.8611   -2.1598 O   0  0  0  0  0  0  0  0  0  0  0  0
    1.1814   -4.1222   -1.7203 O   0  0  0  0  0  0  0  0  0  0  0  0
    0.5470   -4.7862   -2.0290 H   0  0  0  0  0  0  0  0  0  0  0  0
   -0.3491    1.1663    0.7052 C   0  0  0  0  0  0  0  0  0  0  0  0
   -1.2335    1.8421    0.1927 O   0  0  0  0  0  0  0  0  0  0  0  0
    0.5064    1.7513    1.6206 N   0  0  0  0  0  0  0  0  0  0  0  0
    1.1833    1.1505    2.0820 H   0  0  0  0  0  0  0  0  0  0  0  0
    0.3788    3.1362    2.0588 C   0  0  0  0  0  0  0  0  0  0  0  0
   -0.5987    3.3033    2.5237 H   0  0  0  0  0  0  0  0  0  0  0  0
    1.1556    3.3745    2.7918 H   0  0  0  0  0  0  0  0  0  0  0  0
    0.4856    3.8186    1.2090 H   0  0  0  0  0  0  0  0  0  0  0  0
  1  2  1  0  0  0  0
  2  3  1  0  0  0  0
  2  4  1  0  0  0  0
  2  5  1  0  0  0  0
  5  6  2  0  0  0  0
  5  7  1  0  0  0  0
  7  8  1  0  0  0  0
  7  9  1  0  0  0  0
  9 10  1  0  0  0  0
  9 11  1  0  0  0  0
  9 21  1  0  0  0  0
 11 12  1  0  0  0  0
 11 13  1  0  0  0  0
 11 14  1  0  0  0  0
 14 15  1  0  0  0  0
 14 16  1  0  0  0  0
 14 17  1  0  0  0  0
 17 18  2  0  0  0  0
 17 19  1  0  0  0  0
 19 20  1  0  0  0  0
 21 22  2  0  0  0  0
 21 23  1  0  0  0  0
 23 24  1  0  0  0  0
 23 25  1  0  0  0  0
 25 26  1  0  0  0  0
 25 27  1  0  0  0  0
 25 28  1  0  0  0  0
M  END
$$$$

  -OEChem-03222214033D

 28 27  0     1  0  0  0  0  0999 V2000
   -3.1469   -3.8105    1.1976 H   0  0  0  0  0  0  0  0  0  0  0  0
   -3.1166   -2.8399    0.6950 C   0  0  0  0  0  0  0  0  0  0  0  0
   -3.8881   -2.1957    1.1231 H   0  0  0  0  0  0  0  0  0  0  0  0
   -3.3211   -2.9873   -0.3686 H   0  0  0  0  0  0  0  0  0  0  0  0
   -1.7521   -2.2026    0.8705 C   0  0  0  0  0  0  0  0  0  0  0  0
   -0.8803   -2.7784    1.5054 O   0  0  0  0  0  0  0  0  0  0  0  0
   -1.4917   -0.9732    0.3033 N   0  0  0  0  0  0  0  0  0  0  0  0
   -2.2418   -0.5225   -0.2167 H   0  0  0  0  0  0  0  0  0  0  0  0
   -0.1826   -0.3118    0.3275 C   0  0  1  0  0  0  0  0  0  0  0  0
    0.4720   -0.7552    1.0842 H   0  0  0  0  0  0  0  0  0  0  0  0
    0.4300   -0.4672   -1.0781 C   0  0  0  0  0  0  0  0  0  0  0  0
   -0.3420   -0.3991   -1.8530 H   0  0  0  0  0  0  0  0  0  0  0  0
    1.1081    0.3762   -1.2478 H   0  0  0  0  0  0  0  0  0  0  0  0
    1.2703   -1.7619   -1.2039 C   0  0  0  0  0  0  0  0  0  0  0  0
    2.2015   -1.5186   -1.7221 H   0  0  0  0  0  0  0  0  0  0  0  0
    1.5412   -2.1552   -0.2208 H   0  0  0  0  0  0  0  0  0  0  0  0
    0.5977   -2.8856   -1.9978 C   0  0  0  0  0  0  0  0  0  0  0  0
   -0.6100   -2.8875   -2.1726 O   0  0  0  0  0  0  0  0  0  0  0  0
    1.4104   -3.8495   -2.4807 O   0  0  0  0  0  0  0  0  0  0  0  0
    0.8187   -4.4725   -2.9294 H   0  0  0  0  0  0  0  0  0  0  0  0
   -0.3395    1.1786    0.6946 C   0  0  0  0  0  0  0  0  0  0  0  0
   -1.2026    1.8577    0.1509 O   0  0  0  0  0  0  0  0  0  0  0  0
    0.5048    1.7683    1.6176 N   0  0  0  0  0  0  0  0  0  0  0  0
    1.1570    1.1644    2.1098 H   0  0  0  0  0  0  0  0  0  0  0  0
    0.3740    3.1571    2.0420 C   0  0  0  0  0  0  0  0  0  0  0  0
   -0.5996    3.3227    2.5152 H   0  0  0  0  0  0  0  0  0  0  0  0
    1.1573    3.4077    2.7639 H   0  0  0  0  0  0  0  0  0  0  0  0
    0.4677    3.8310    1.1838 H   0  0  0  0  0  0  0  0  0  0  0  0
  1  2  1  0  0  0  0
  2  3  1  0  0  0  0
  2  4  1  0  0  0  0
  2  5  1  0  0  0  0
  5  6  2  0  0  0  0
  5  7  1  0  0  0  0
  7  8  1  0  0  0  0
  7  9  1  0  0  0  0
  9 10  1  0  0  0  0
  9 11  1  0  0  0  0
  9 21  1  0  0  0  0
 11 12  1  0  0  0  0
 11 13  1  0  0  0  0
 11 14  1  0  0  0  0
 14 15  1  0  0  0  0
 14 16  1  0  0  0  0
 14 17  1  0  0  0  0
 17 18  2  0  0  0  0
 17 19  1  0  0  0  0
 19 20  1  0  0  0  0
 21 22  2  0  0  0  0
 21 23  1  0  0  0  0
 23 24  1  0  0  0  0
 23 25  1  0  0  0  0
 25 26  1  0  0  0  0
 25 27  1  0  0  0  0
 25 28  1  0  0  0  0
M  END
$$$$

  -OEChem-03222214033D

 28 27  0     1  0  0  0  0  0999 V2000
   -3.2044   -3.7786    1.2128 H   0  0  0  0  0  0  0  0  0  0  0  0
   -3.1539   -2.8151    0.6985 C   0  0  0  0  0  0  0  0  0  0  0  0
   -3.9150   -2.1514    1.1154 H   0  0  0  0  0  0  0  0  0  0  0  0
   -3.3579   -2.9721   -0.3637 H   0  0  0  0  0  0  0  0  0  0  0  0
   -1.7781   -2.2013    0.8721 C   0  0  0  0  0  0  0  0  0  0  0  0
   -0.9234   -2.7808    1.5260 O   0  0  0  0  0  0  0  0  0  0  0  0
   -1.4929   -0.9825    0.2941 N   0  0  0  0  0  0  0  0  0  0  0  0
   -2.2384   -0.5140   -0.2168 H   0  0  0  0  0  0  0  0  0  0  0  0
   -0.1783   -0.3305    0.3360 C   0  0  1  0  0  0  0  0  0  0  0  0
    0.4600   -0.7691    1.1098 H   0  0  0  0  0  0  0  0  0  0  0  0
    0.4605   -0.5042   -1.0552 C   0  0  0  0  0  0  0  0  0  0  0  0
   -0.3097   -0.4565   -1.8337 H   0  0  0  0  0  0  0  0  0  0  0  0
    1.1377    0.3363   -1.2420 H   0  0  0  0  0  0  0  0  0  0  0  0
    1.2922   -1.8058   -1.1495 C   0  0  0  0  0  0  0  0  0  0  0  0
    2.3314   -1.5503   -1.3733 H   0  0  0  0  0  0  0  0  0  0  0  0
    1.2875   -2.3498   -0.2011 H   0  0  0  0  0  0  0  0  0  0  0  0
    0.7893   -2.7621   -2.2296 C   0  0  0  0  0  0  0  0  0  0  0  0
   -0.4076   -2.9699   -2.3392 O   0  0  0  0  0  0  0  0  0  0  0  0
    1.7146   -3.3413   -3.0244 O   0  0  0  0  0  0  0  0  0  0  0  0
    1.2074   -3.9084   -3.6250 H   0  0  0  0  0  0  0  0  0  0  0  0
   -0.3304    1.1659    0.6789 C   0  0  0  0  0  0  0  0  0  0  0  0
   -1.1816    1.8412    0.1123 O   0  0  0  0  0  0  0  0  0  0  0  0
    0.4998    1.7621    1.6104 N   0  0  0  0  0  0  0  0  0  0  0  0
    1.1441    1.1620    2.1173 H   0  0  0  0  0  0  0  0  0  0  0  0
    0.3772    3.1596    2.0082 C   0  0  0  0  0  0  0  0  0  0  0  0
   -0.5922    3.3386    2.4852 H   0  0  0  0  0  0  0  0  0  0  0  0
    1.1671    3.4216    2.7187 H   0  0  0  0  0  0  0  0  0  0  0  0
    0.4671    3.8166    1.1365 H   0  0  0  0  0  0  0  0  0  0  0  0
  1  2  1  0  0  0  0
  2  3  1  0  0  0  0
  2  4  1  0  0  0  0
  2  5  1  0  0  0  0
  5  6  2  0  0  0  0
  5  7  1  0  0  0  0
  7  8  1  0  0  0  0
  7  9  1  0  0  0  0
  9 10  1  0  0  0  0
  9 11  1  0  0  0  0
  9 21  1  0  0  0  0
 11 12  1  0  0  0  0
 11 13  1  0  0  0  0
 11 14  1  0  0  0  0
 14 15  1  0  0  0  0
 14 16  1  0  0  0  0
 14 17  1  0  0  0  0
 17 18  2  0  0  0  0
 17 19  1  0  0  0  0
 19 20  1  0  0  0  0
 21 22  2  0  0  0  0
 21 23  1  0  0  0  0
 23 24  1  0  0  0  0
 23 25  1  0  0  0  0
 25 26  1  0  0  0  0
 25 27  1  0  0  0  0
 25 28  1  0  0  0  0
M  END
$$$$

  -OEChem-03222214033D

 28 27  0     1  0  0  0  0  0999 V2000
   -3.2666   -3.7395    1.2325 H   0  0  0  0  0  0  0  0  0  0  0  0
   -3.1991   -2.7775    0.7169 C   0  0  0  0  0  0  0  0  0  0  0  0
   -3.9356   -2.0944    1.1464 H   0  0  0  0  0  0  0  0  0  0  0  0
   -3.4255   -2.9295   -0.3415 H   0  0  0  0  0  0  0  0  0  0  0  0
   -1.8047   -2.2000    0.8669 C   0  0  0  0  0  0  0  0  0  0  0  0
   -0.9557   -2.8026    1.5062 O   0  0  0  0  0  0  0  0  0  0  0  0
   -1.4964   -0.9883    0.2854 N   0  0  0  0  0  0  0  0  0  0  0  0
   -2.2443   -0.4871   -0.1907 H   0  0  0  0  0  0  0  0  0  0  0  0
   -0.1734   -0.3515    0.3307 C   0  0  1  0  0  0  0  0  0  0  0  0
    0.4569   -0.7962    1.1077 H   0  0  0  0  0  0  0  0  0  0  0  0
    0.4795   -0.5288   -1.0534 C   0  0  0  0  0  0  0  0  0  0  0  0
   -0.2979   -0.4970   -1.8258 H   0  0  0  0  0  0  0  0  0  0  0  0
    1.1557    0.3090   -1.2564 H   0  0  0  0  0  0  0  0  0  0  0  0
    1.2989   -1.8362   -1.1369 C   0  0  0  0  0  0  0  0  0  0  0  0
    2.3653   -1.6108   -1.0532 H   0  0  0  0  0  0  0  0  0  0  0  0
    1.0403   -2.5083   -0.3139 H   0  0  0  0  0  0  0  0  0  0  0  0
    1.0418   -2.5997   -2.4322 C   0  0  0  0  0  0  0  0  0  0  0  0
   -0.0932   -2.9633   -2.6877 O   0  0  0  0  0  0  0  0  0  0  0  0
    2.0932   -2.8279   -3.2481 O   0  0  0  0  0  0  0  0  0  0  0  0
    1.7237   -3.3161   -3.9998 H   0  0  0  0  0  0  0  0  0  0  0  0
   -0.3157    1.1480    0.6652 C   0  0  0  0  0  0  0  0  0  0  0  0
   -1.1696    1.8219    0.1009 O   0  0  0  0  0  0  0  0  0  0  0  0
    0.5122    1.7449    1.5982 N   0  0  0  0  0  0  0  0  0  0  0  0
    1.1589    1.1468    2.1048 H   0  0  0  0  0  0  0  0  0  0  0  0
    0.3879    3.1431    1.9934 C   0  0  0  0  0  0  0  0  0  0  0  0
   -0.5877    3.3252    2.4566 H   0  0  0  0  0  0  0  0  0  0  0  0
    1.1682    3.4042    2.7148 H   0  0  0  0  0  0  0  0  0  0  0  0
    0.4914    3.7987    1.1222 H   0  0  0  0  0  0  0  0  0  0  0  0
  1  2  1  0  0  0  0
  2  3  1  0  0  0  0
  2  4  1  0  0  0  0
  2  5  1  0  0  0  0
  5  6  2  0  0  0  0
  5  7  1  0  0  0  0
  7  8  1  0  0  0  0
  7  9  1  0  0  0  0
  9 10  1  0  0  0  0
  9 11  1  0  0  0  0
  9 21  1  0  0  0  0
 11 12  1  0  0  0  0
 11 13  1  0  0  0  0
 11 14  1  0  0  0  0
 14 15  1  0  0  0  0
 14 16  1  0  0  0  0
 14 17  1  0  0  0  0
 17 18  2  0  0  0  0
 17 19  1  0  0  0  0
 19 20  1  0  0  0  0
 21 22  2  0  0  0  0
 21 23  1  0  0  0  0
 23 24  1  0  0  0  0
 23 25  1  0  0  0  0
 25 26  1  0  0  0  0
 25 27  1  0  0  0  0
 25 28  1  0  0  0  0
M  END
$$$$

  -OEChem-03222214033D

 28 27  0     1  0  0  0  0  0999 V2000
   -3.1396   -3.8061    1.2190 H   0  0  0  0  0  0  0  0  0  0  0  0
   -3.1217   -2.8089    0.7707 C   0  0  0  0  0  0  0  0  0  0  0  0
   -3.7959   -2.1575    1.3321 H   0  0  0  0  0  0  0  0  0  0  0  0
   -3.4717   -2.8812   -0.2619 H   0  0  0  0  0  0  0  0  0  0  0  0
   -1.7129   -2.2478    0.8018 C   0  0  0  0  0  0  0  0  0  0  0  0
   -0.8115   -2.8820    1.3268 O   0  0  0  0  0  0  0  0  0  0  0  0
   -1.4541   -1.0125    0.2474 N   0  0  0  0  0  0  0  0  0  0  0  0
   -2.2503   -0.4714   -0.0877 H   0  0  0  0  0  0  0  0  0  0  0  0
   -0.1526   -0.3296    0.2809 C   0  0  1  0  0  0  0  0  0  0  0  0
    0.5024   -0.7714    1.0393 H   0  0  0  0  0  0  0  0  0  0  0  0
    0.5074   -0.4338   -1.1076 C   0  0  0  0  0  0  0  0  0  0  0  0
   -0.2794   -0.4333   -1.8709 H   0  0  0  0  0  0  0  0  0  0  0  0
    1.1370    0.4423   -1.2992 H   0  0  0  0  0  0  0  0  0  0  0  0
    1.3839   -1.6991   -1.2358 C   0  0  0  0  0  0  0  0  0  0  0  0
    2.3947   -1.4949   -0.8749 H   0  0  0  0  0  0  0  0  0  0  0  0
    0.9675   -2.4975   -0.6156 H   0  0  0  0  0  0  0  0  0  0  0  0
    1.4600   -2.2400   -2.6624 C   0  0  0  0  0  0  0  0  0  0  0  0
    1.4398   -1.4592   -3.5979 O   0  0  0  0  0  0  0  0  0  0  0  0
    1.5677   -3.5764   -2.8198 O   0  0  0  0  0  0  0  0  0  0  0  0
    1.6088   -3.7139   -3.7782 H   0  0  0  0  0  0  0  0  0  0  0  0
   -0.3528    1.1530    0.6583 C   0  0  0  0  0  0  0  0  0  0  0  0
   -1.2856    1.7843    0.1751 O   0  0  0  0  0  0  0  0  0  0  0  0
    0.4683    1.7609    1.5901 N   0  0  0  0  0  0  0  0  0  0  0  0
    1.1831    1.1904    2.0325 H   0  0  0  0  0  0  0  0  0  0  0  0
    0.2709    3.1290    2.0549 C   0  0  0  0  0  0  0  0  0  0  0  0
   -0.6748    3.2146    2.6008 H   0  0  0  0  0  0  0  0  0  0  0  0
    1.0859    3.4233    2.7234 H   0  0  0  0  0  0  0  0  0  0  0  0
    0.2531    3.8242    1.2087 H   0  0  0  0  0  0  0  0  0  0  0  0
  1  2  1  0  0  0  0
  2  3  1  0  0  0  0
  2  4  1  0  0  0  0
  2  5  1  0  0  0  0
  5  6  2  0  0  0  0
  5  7  1  0  0  0  0
  7  8  1  0  0  0  0
  7  9  1  0  0  0  0
  9 10  1  0  0  0  0
  9 11  1  0  0  0  0
  9 21  1  0  0  0  0
 11 12  1  0  0  0  0
 11 13  1  0  0  0  0
 11 14  1  0  0  0  0
 14 15  1  0  0  0  0
 14 16  1  0  0  0  0
 14 17  1  0  0  0  0
 17 18  2  0  0  0  0
 17 19  1  0  0  0  0
 19 20  1  0  0  0  0
 21 22  2  0  0  0  0
 21 23  1  0  0  0  0
 23 24  1  0  0  0  0
 23 25  1  0  0  0  0
 25 26  1  0  0  0  0
 25 27  1  0  0  0  0
 25 28  1  0  0  0  0
M  END
$$$$

  -OEChem-03222214033D

 28 27  0     1  0  0  0  0  0999 V2000
   -3.1637   -3.7827    1.2343 H   0  0  0  0  0  0  0  0  0  0  0  0
   -3.1408   -2.7858    0.7852 C   0  0  0  0  0  0  0  0  0  0  0  0
   -3.7958   -2.1254    1.3587 H   0  0  0  0  0  0  0  0  0  0  0  0
   -3.5107   -2.8536   -0.2408 H   0  0  0  0  0  0  0  0  0  0  0  0
   -1.7250   -2.2419    0.7894 C   0  0  0  0  0  0  0  0  0  0  0  0
   -0.8182   -2.8919    1.2851 O   0  0  0  0  0  0  0  0  0  0  0  0
   -1.4653   -1.0048    0.2400 N   0  0  0  0  0  0  0  0  0  0  0  0
   -2.2635   -0.4513   -0.0696 H   0  0  0  0  0  0  0  0  0  0  0  0
   -0.1616   -0.3271    0.2724 C   0  0  1  0  0  0  0  0  0  0  0  0
    0.4925   -0.7751    1.0278 H   0  0  0  0  0  0  0  0  0  0  0  0
    0.4974   -0.4317   -1.1160 C   0  0  0  0  0  0  0  0  0  0  0  0
   -0.2818   -0.4297   -1.8869 H   0  0  0  0  0  0  0  0  0  0  0  0
    1.1341    0.4412   -1.3000 H   0  0  0  0  0  0  0  0  0  0  0  0
    1.3656   -1.7016   -1.2347 C   0  0  0  0  0  0  0  0  0  0  0  0
    2.2781   -1.5877   -0.6448 H   0  0  0  0  0  0  0  0  0  0  0  0
    0.8143   -2.5554   -0.8313 H   0  0  0  0  0  0  0  0  0  0  0  0
    1.7479   -2.0494   -2.6728 C   0  0  0  0  0  0  0  0  0  0  0  0
    1.7304   -1.1819   -3.5286 O   0  0  0  0  0  0  0  0  0  0  0  0
    2.1127   -3.3241   -2.9246 O   0  0  0  0  0  0  0  0  0  0  0  0
    2.3203   -3.3432   -3.8712 H   0  0  0  0  0  0  0  0  0  0  0  0
   -0.3565    1.1542    0.6582 C   0  0  0  0  0  0  0  0  0  0  0  0
   -1.2947    1.7874    0.1881 O   0  0  0  0  0  0  0  0  0  0  0  0
    0.4687    1.7560    1.5904 N   0  0  0  0  0  0  0  0  0  0  0  0
    1.1948    1.1871    2.0161 H   0  0  0  0  0  0  0  0  0  0  0  0
    0.2764    3.1227    2.0608 C   0  0  0  0  0  0  0  0  0  0  0  0
   -0.6809    3.2155    2.5845 H   0  0  0  0  0  0  0  0  0  0  0  0
    1.0780    3.4028    2.7509 H   0  0  0  0  0  0  0  0  0  0  0  0
    0.2867    3.8235    1.2192 H   0  0  0  0  0  0  0  0  0  0  0  0
  1  2  1  0  0  0  0
  2  3  1  0  0  0  0
  2  4  1  0  0  0  0
  2  5  1  0  0  0  0
  5  6  2  0  0  0  0
  5  7  1  0  0  0  0
  7  8  1  0  0  0  0
  7  9  1  0  0  0  0
  9 10  1  0  0  0  0
  9 11  1  0  0  0  0
  9 21  1  0  0  0  0
 11 12  1  0  0  0  0
 11 13  1  0  0  0  0
 11 14  1  0  0  0  0
 14 15  1  0  0  0  0
 14 16  1  0  0  0  0
 14 17  1  0  0  0  0
 17 18  2  0  0  0  0
 17 19  1  0  0  0  0
 19 20  1  0  0  0  0
 21 22  2  0  0  0  0
 21 23  1  0  0  0  0
 23 24  1  0  0  0  0
 23 25  1  0  0  0  0
 25 26  1  0  0  0  0
 25 27  1  0  0  0  0
 25 28  1  0  0  0  0
M  END
$$$$

  -OEChem-03222214033D

 28 27  0     1  0  0  0  0  0999 V2000
   -3.1890   -3.7660    1.2553 H   0  0  0  0  0  0  0  0  0  0  0  0
   -3.1663   -2.7694    0.8053 C   0  0  0  0  0  0  0  0  0  0  0  0
   -3.8039   -2.1031    1.3916 H   0  0  0  0  0  0  0  0  0  0  0  0
   -3.5572   -2.8336   -0.2131 H   0  0  0  0  0  0  0  0  0  0  0  0
   -1.7455   -2.2393    0.7821 C   0  0  0  0  0  0  0  0  0  0  0  0
   -0.8350   -2.9035    1.2516 O   0  0  0  0  0  0  0  0  0  0  0  0
   -1.4826   -1.0036    0.2302 N   0  0  0  0  0  0  0  0  0  0  0  0
   -2.2810   -0.4388   -0.0578 H   0  0  0  0  0  0  0  0  0  0  0  0
   -0.1759   -0.3309    0.2659 C   0  0  1  0  0  0  0  0  0  0  0  0
    0.4701   -0.7847    1.0249 H   0  0  0  0  0  0  0  0  0  0  0  0
    0.5003   -0.4402   -1.1113 C   0  0  0  0  0  0  0  0  0  0  0  0
   -0.2167   -0.1736   -1.8962 H   0  0  0  0  0  0  0  0  0  0  0  0
    1.3263    0.2782   -1.1646 H   0  0  0  0  0  0  0  0  0  0  0  0
    1.0579   -1.8572   -1.3636 C   0  0  0  0  0  0  0  0  0  0  0  0
    1.7777   -2.1166   -0.5835 H   0  0  0  0  0  0  0  0  0  0  0  0
    0.2427   -2.5833   -1.3146 H   0  0  0  0  0  0  0  0  0  0  0  0
    1.7421   -2.0208   -2.7201 C   0  0  0  0  0  0  0  0  0  0  0  0
    2.0151   -1.0372   -3.3865 O   0  0  0  0  0  0  0  0  0  0  0  0
    2.0263   -3.2795   -3.1156 O   0  0  0  0  0  0  0  0  0  0  0  0
    2.4542   -3.1802   -3.9796 H   0  0  0  0  0  0  0  0  0  0  0  0
   -0.3585    1.1522    0.6481 C   0  0  0  0  0  0  0  0  0  0  0  0
   -1.2987    1.7885    0.1861 O   0  0  0  0  0  0  0  0  0  0  0  0
    0.4708    1.7472    1.5808 N   0  0  0  0  0  0  0  0  0  0  0  0
    1.2015    1.1761    1.9958 H   0  0  0  0  0  0  0  0  0  0  0  0
    0.2877    3.1134    2.0561 C   0  0  0  0  0  0  0  0  0  0  0  0
   -0.6775    3.2163    2.5632 H   0  0  0  0  0  0  0  0  0  0  0  0
    1.0799    3.3777    2.7632 H   0  0  0  0  0  0  0  0  0  0  0  0
    0.3231    3.8192    1.2194 H   0  0  0  0  0  0  0  0  0  0  0  0
  1  2  1  0  0  0  0
  2  3  1  0  0  0  0
  2  4  1  0  0  0  0
  2  5  1  0  0  0  0
  5  6  2  0  0  0  0
  5  7  1  0  0  0  0
  7  8  1  0  0  0  0
  7  9  1  0  0  0  0
  9 10  1  0  0  0  0
  9 11  1  0  0  0  0
  9 21  1  0  0  0  0
 11 12  1  0  0  0  0
 11 13  1  0  0  0  0
 11 14  1  0  0  0  0
 14 15  1  0  0  0  0
 14 16  1  0  0  0  0
 14 17  1  0  0  0  0
 17 18  2  0  0  0  0
 17 19  1  0  0  0  0
 19 20  1  0  0  0  0
 21 22  2  0  0  0  0
 21 23  1  0  0  0  0
 23 24  1  0  0  0  0
 23 25  1  0  0  0  0
 25 26  1  0  0  0  0
 25 27  1  0  0  0  0
 25 28  1  0  0  0  0
M  END
$$$$

  -OEChem-03222214033D

 28 27  0     1  0  0  0  0  0999 V2000
   -3.2061   -3.7467    1.2920 H   0  0  0  0  0  0  0  0  0  0  0  0
   -3.1776   -2.7678    0.8051 C   0  0  0  0  0  0  0  0  0  0  0  0
   -3.8144   -2.0779    1.3642 H   0  0  0  0  0  0  0  0  0  0  0  0
   -3.5652   -2.8686   -0.2116 H   0  0  0  0  0  0  0  0  0  0  0  0
   -1.7545   -2.2444    0.7670 C   0  0  0  0  0  0  0  0  0  0  0  0
   -0.8396   -2.9198    1.2116 O   0  0  0  0  0  0  0  0  0  0  0  0
   -1.4938   -1.0024    0.2285 N   0  0  0  0  0  0  0  0  0  0  0  0
   -2.2937   -0.4310   -0.0413 H   0  0  0  0  0  0  0  0  0  0  0  0
   -0.1856   -0.3330    0.2669 C   0  0  1  0  0  0  0  0  0  0  0  0
    0.4631   -0.7960    1.0176 H   0  0  0  0  0  0  0  0  0  0  0  0
    0.4745   -0.4332   -1.1179 C   0  0  0  0  0  0  0  0  0  0  0  0
   -0.2352   -0.1462   -1.9018 H   0  0  0  0  0  0  0  0  0  0  0  0
    1.3072    0.2784   -1.1535 H   0  0  0  0  0  0  0  0  0  0  0  0
    1.0225   -1.8515   -1.3876 C   0  0  0  0  0  0  0  0  0  0  0  0
    1.5531   -2.2134   -0.5027 H   0  0  0  0  0  0  0  0  0  0  0  0
    0.1911   -2.5361   -1.5734 H   0  0  0  0  0  0  0  0  0  0  0  0
    1.9922   -1.9342   -2.5665 C   0  0  0  0  0  0  0  0  0  0  0  0
    2.1540   -0.9688   -3.2930 O   0  0  0  0  0  0  0  0  0  0  0  0
    2.6368   -3.1060   -2.7471 O   0  0  0  0  0  0  0  0  0  0  0  0
    3.1908   -2.9693   -3.5306 H   0  0  0  0  0  0  0  0  0  0  0  0
   -0.3606    1.1464    0.6675 C   0  0  0  0  0  0  0  0  0  0  0  0
   -1.2954    1.7936    0.2099 O   0  0  0  0  0  0  0  0  0  0  0  0
    0.4740    1.7294    1.6031 N   0  0  0  0  0  0  0  0  0  0  0  0
    1.2125    1.1565    2.0013 H   0  0  0  0  0  0  0  0  0  0  0  0
    0.3238    3.1064    2.0587 C   0  0  0  0  0  0  0  0  0  0  0  0
   -0.6620    3.2555    2.5119 H   0  0  0  0  0  0  0  0  0  0  0  0
    1.0868    3.3437    2.8063 H   0  0  0  0  0  0  0  0  0  0  0  0
    0.4343    3.8010    1.2193 H   0  0  0  0  0  0  0  0  0  0  0  0
  1  2  1  0  0  0  0
  2  3  1  0  0  0  0
  2  4  1  0  0  0  0
  2  5  1  0  0  0  0
  5  6  2  0  0  0  0
  5  7  1  0  0  0  0
  7  8  1  0  0  0  0
  7  9  1  0  0  0  0
  9 10  1  0  0  0  0
  9 11  1  0  0  0  0
  9 21  1  0  0  0  0
 11 12  1  0  0  0  0
 11 13  1  0  0  0  0
 11 14  1  0  0  0  0
 14 15  1  0  0  0  0
 14 16  1  0  0  0  0
 14 17  1  0  0  0  0
 17 18  2  0  0  0  0
 17 19  1  0  0  0  0
 19 20  1  0  0  0  0
 21 22  2  0  0  0  0
 21 23  1  0  0  0  0
 23 24  1  0  0  0  0
 23 25  1  0  0  0  0
 25 26  1  0  0  0  0
 25 27  1  0  0  0  0
 25 28  1  0  0  0  0
M  END
$$$$

  -OEChem-03222214033D

 28 27  0     1  0  0  0  0  0999 V2000
   -3.2077   -3.7589    1.2387 H   0  0  0  0  0  0  0  0  0  0  0  0
   -3.1816   -2.7589    0.7967 C   0  0  0  0  0  0  0  0  0  0  0  0
   -3.8086   -2.0932    1.3946 H   0  0  0  0  0  0  0  0  0  0  0  0
   -3.5826   -2.8117   -0.2183 H   0  0  0  0  0  0  0  0  0  0  0  0
   -1.7573   -2.2385    0.7640 C   0  0  0  0  0  0  0  0  0  0  0  0
   -0.8459   -2.9162    1.2117 O   0  0  0  0  0  0  0  0  0  0  0  0
   -1.4927   -0.9965    0.2275 N   0  0  0  0  0  0  0  0  0  0  0  0
   -2.2906   -0.4226   -0.0427 H   0  0  0  0  0  0  0  0  0  0  0  0
   -0.1827   -0.3312    0.2621 C   0  0  1  0  0  0  0  0  0  0  0  0
    0.4683   -0.7956    1.0100 H   0  0  0  0  0  0  0  0  0  0  0  0
    0.4670   -0.4328   -1.1281 C   0  0  0  0  0  0  0  0  0  0  0  0
   -0.2402   -0.1361   -1.9104 H   0  0  0  0  0  0  0  0  0  0  0  0
    1.3003    0.2784   -1.1580 H   0  0  0  0  0  0  0  0  0  0  0  0
    1.0096   -1.8537   -1.4079 C   0  0  0  0  0  0  0  0  0  0  0  0
    1.3173   -2.3208   -0.4682 H   0  0  0  0  0  0  0  0  0  0  0  0
    0.2153   -2.4726   -1.8324 H   0  0  0  0  0  0  0  0  0  0  0  0
    2.2214   -1.8924   -2.3383 C   0  0  0  0  0  0  0  0  0  0  0  0
    2.4250   -0.9683   -3.1065 O   0  0  0  0  0  0  0  0  0  0  0  0
    3.0203   -2.9778   -2.2654 O   0  0  0  0  0  0  0  0  0  0  0  0
    3.7130   -2.8252   -2.9260 H   0  0  0  0  0  0  0  0  0  0  0  0
   -0.3532    1.1478    0.6660 C   0  0  0  0  0  0  0  0  0  0  0  0
   -1.2907    1.7965    0.2156 O   0  0  0  0  0  0  0  0  0  0  0  0
    0.4866    1.7261    1.5997 N   0  0  0  0  0  0  0  0  0  0  0  0
    1.2193    1.1471    2.0000 H   0  0  0  0  0  0  0  0  0  0  0  0
    0.3313    3.0965    2.0726 C   0  0  0  0  0  0  0  0  0  0  0  0
   -0.6275    3.2173    2.5877 H   0  0  0  0  0  0  0  0  0  0  0  0
    1.1344    3.3494    2.7714 H   0  0  0  0  0  0  0  0  0  0  0  0
    0.3710    3.7991    1.2335 H   0  0  0  0  0  0  0  0  0  0  0  0
  1  2  1  0  0  0  0
  2  3  1  0  0  0  0
  2  4  1  0  0  0  0
  2  5  1  0  0  0  0
  5  6  2  0  0  0  0
  5  7  1  0  0  0  0
  7  8  1  0  0  0  0
  7  9  1  0  0  0  0
  9 10  1  0  0  0  0
  9 11  1  0  0  0  0
  9 21  1  0  0  0  0
 11 12  1  0  0  0  0
 11 13  1  0  0  0  0
 11 14  1  0  0  0  0
 14 15  1  0  0  0  0
 14 16  1  0  0  0  0
 14 17  1  0  0  0  0
 17 18  2  0  0  0  0
 17 19  1  0  0  0  0
 19 20  1  0  0  0  0
 21 22  2  0  0  0  0
 21 23  1  0  0  0  0
 23 24  1  0  0  0  0
 23 25  1  0  0  0  0
 25 26  1  0  0  0  0
 25 27  1  0  0  0  0
 25 28  1  0  0  0  0
M  END
$$$$

  -OEChem-03222214033D

 28 27  0     1  0  0  0  0  0999 V2000
   -3.2499   -3.7570    1.2089 H   0  0  0  0  0  0  0  0  0  0  0  0
   -3.2106   -2.7496    0.7853 C   0  0  0  0  0  0  0  0  0  0  0  0
   -3.8375   -2.0888    1.3889 H   0  0  0  0  0  0  0  0  0  0  0  0
   -3.6022   -2.7816   -0.2343 H   0  0  0  0  0  0  0  0  0  0  0  0
   -1.7815   -2.2413    0.7759 C   0  0  0  0  0  0  0  0  0  0  0  0
   -0.8864   -2.9223    1.2497 O   0  0  0  0  0  0  0  0  0  0  0  0
   -1.4977   -1.0039    0.2384 N   0  0  0  0  0  0  0  0  0  0  0  0
   -2.2872   -0.4269   -0.0493 H   0  0  0  0  0  0  0  0  0  0  0  0
   -0.1787   -0.3548    0.2620 C   0  0  1  0  0  0  0  0  0  0  0  0
    0.4759   -0.8300    1.0003 H   0  0  0  0  0  0  0  0  0  0  0  0
    0.4534   -0.4553   -1.1375 C   0  0  0  0  0  0  0  0  0  0  0  0
   -0.2662   -0.1489   -1.9047 H   0  0  0  0  0  0  0  0  0  0  0  0
    1.2886    0.2534   -1.1821 H   0  0  0  0  0  0  0  0  0  0  0  0
    0.9800   -1.8755   -1.4465 C   0  0  0  0  0  0  0  0  0  0  0  0
    1.0471   -2.4626   -0.5265 H   0  0  0  0  0  0  0  0  0  0  0  0
    0.2831   -2.3934   -2.1101 H   0  0  0  0  0  0  0  0  0  0  0  0
    2.3667   -1.8674   -2.0821 C   0  0  0  0  0  0  0  0  0  0  0  0
    2.5516   -1.1824   -3.0723 O   0  0  0  0  0  0  0  0  0  0  0  0
    3.3350   -2.6115   -1.5063 O   0  0  0  0  0  0  0  0  0  0  0  0
    4.1200   -2.4743   -2.0580 H   0  0  0  0  0  0  0  0  0  0  0  0
   -0.3269    1.1263    0.6663 C   0  0  0  0  0  0  0  0  0  0  0  0
   -1.2527    1.7900    0.2140 O   0  0  0  0  0  0  0  0  0  0  0  0
    0.5276    1.6944    1.5929 N   0  0  0  0  0  0  0  0  0  0  0  0
    1.2464    1.1018    1.9989 H   0  0  0  0  0  0  0  0  0  0  0  0
    0.3834    3.0621    2.0773 C   0  0  0  0  0  0  0  0  0  0  0  0
   -0.5727    3.1847    2.5971 H   0  0  0  0  0  0  0  0  0  0  0  0
    1.1908    3.3043    2.7751 H   0  0  0  0  0  0  0  0  0  0  0  0
    0.4242    3.7709    1.2435 H   0  0  0  0  0  0  0  0  0  0  0  0
  1  2  1  0  0  0  0
  2  3  1  0  0  0  0
  2  4  1  0  0  0  0
  2  5  1  0  0  0  0
  5  6  2  0  0  0  0
  5  7  1  0  0  0  0
  7  8  1  0  0  0  0
  7  9  1  0  0  0  0
  9 10  1  0  0  0  0
  9 11  1  0  0  0  0
  9 21  1  0  0  0  0
 11 12  1  0  0  0  0
 11 13  1  0  0  0  0
 11 14  1  0  0  0  0
 14 15  1  0  0  0  0
 14 16  1  0  0  0  0
 14 17  1  0  0  0  0
 17 18  2  0  0  0  0
 17 19  1  0  0  0  0
 19 20  1  0  0  0  0
 21 22  2  0  0  0  0
 21 23  1  0  0  0  0
 23 24  1  0  0  0  0
 23 25  1  0  0  0  0
 25 26  1  0  0  0  0
 25 27  1  0  0  0  0
 25 28  1  0  0  0  0
M  END
$$$$

  -OEChem-03222214033D

 28 27  0     1  0  0  0  0  0999 V2000
   -3.2839   -3.7276    1.3068 H   0  0  0  0  0  0  0  0  0  0  0  0
   -3.2267   -2.7488    0.8223 C   0  0  0  0  0  0  0  0  0  0  0  0
   -3.8754   -2.0518    1.3582 H   0  0  0  0  0  0  0  0  0  0  0  0
   -3.5786   -2.8447   -0.2077 H   0  0  0  0  0  0  0  0  0  0  0  0
   -1.7974   -2.2412    0.8373 C   0  0  0  0  0  0  0  0  0  0  0  0
   -0.9228   -2.8990    1.3769 O   0  0  0  0  0  0  0  0  0  0  0  0
   -1.4982   -1.0256    0.2594 N   0  0  0  0  0  0  0  0  0  0  0  0
   -2.2820   -0.4648   -0.0719 H   0  0  0  0  0  0  0  0  0  0  0  0
   -0.1870   -0.3594    0.3049 C   0  0  1  0  0  0  0  0  0  0  0  0
    0.4403   -0.7965    1.0895 H   0  0  0  0  0  0  0  0  0  0  0  0
    0.5213   -0.5005   -1.0542 C   0  0  0  0  0  0  0  0  0  0  0  0
   -0.1846   -0.2564   -1.8555 H   0  0  0  0  0  0  0  0  0  0  0  0
    1.3284    0.2384   -1.1136 H   0  0  0  0  0  0  0  0  0  0  0  0
    1.0889   -1.9214   -1.2840 C   0  0  0  0  0  0  0  0  0  0  0  0
    0.8654   -2.5774   -0.4405 H   0  0  0  0  0  0  0  0  0  0  0  0
    0.6129   -2.3571   -2.1662 H   0  0  0  0  0  0  0  0  0  0  0  0
    2.6012   -1.9370   -1.4878 C   0  0  0  0  0  0  0  0  0  0  0  0
    3.3071   -1.3310   -0.6994 O   0  0  0  0  0  0  0  0  0  0  0  0
    3.0905   -2.6252   -2.5415 O   0  0  0  0  0  0  0  0  0  0  0  0
    4.0525   -2.5196   -2.4854 H   0  0  0  0  0  0  0  0  0  0  0  0
   -0.3612    1.1361    0.6374 C   0  0  0  0  0  0  0  0  0  0  0  0
   -1.2758    1.7707    0.1234 O   0  0  0  0  0  0  0  0  0  0  0  0
    0.4551    1.7490    1.5693 N   0  0  0  0  0  0  0  0  0  0  0  0
    1.1959    1.1911    1.9862 H   0  0  0  0  0  0  0  0  0  0  0  0
    0.3117    3.1442    1.9665 C   0  0  0  0  0  0  0  0  0  0  0  0
   -0.6626    3.3097    2.4380 H   0  0  0  0  0  0  0  0  0  0  0  0
    1.0932    3.4156    2.6827 H   0  0  0  0  0  0  0  0  0  0  0  0
    0.3984    3.8023    1.0955 H   0  0  0  0  0  0  0  0  0  0  0  0
  1  2  1  0  0  0  0
  2  3  1  0  0  0  0
  2  4  1  0  0  0  0
  2  5  1  0  0  0  0
  5  6  2  0  0  0  0
  5  7  1  0  0  0  0
  7  8  1  0  0  0  0
  7  9  1  0  0  0  0
  9 10  1  0  0  0  0
  9 11  1  0  0  0  0
  9 21  1  0  0  0  0
 11 12  1  0  0  0  0
 11 13  1  0  0  0  0
 11 14  1  0  0  0  0
 14 15  1  0  0  0  0
 14 16  1  0  0  0  0
 14 17  1  0  0  0  0
 17 18  2  0  0  0  0
 17 19  1  0  0  0  0
 19 20  1  0  0  0  0
 21 22  2  0  0  0  0
 21 23  1  0  0  0  0
 23 24  1  0  0  0  0
 23 25  1  0  0  0  0
 25 26  1  0  0  0  0
 25 27  1  0  0  0  0
 25 28  1  0  0  0  0
M  END
$$$$

  -OEChem-03222214033D

 28 27  0     1  0  0  0  0  0999 V2000
   -3.2994   -3.7227    1.3125 H   0  0  0  0  0  0  0  0  0  0  0  0
   -3.2390   -2.7472    0.8220 C   0  0  0  0  0  0  0  0  0  0  0  0
   -3.8873   -2.0457    1.3528 H   0  0  0  0  0  0  0  0  0  0  0  0
   -3.5883   -2.8490   -0.2083 H   0  0  0  0  0  0  0  0  0  0  0  0
   -1.8091   -2.2418    0.8363 C   0  0  0  0  0  0  0  0  0  0  0  0
   -0.9339   -2.9037    1.3699 O   0  0  0  0  0  0  0  0  0  0  0  0
   -1.5110   -1.0233    0.2638 N   0  0  0  0  0  0  0  0  0  0  0  0
   -2.2957   -0.4591   -0.0595 H   0  0  0  0  0  0  0  0  0  0  0  0
   -0.1977   -0.3603    0.3021 C   0  0  1  0  0  0  0  0  0  0  0  0
    0.4341   -0.8066    1.0782 H   0  0  0  0  0  0  0  0  0  0  0  0
    0.5107   -0.4849   -1.0593 C   0  0  0  0  0  0  0  0  0  0  0  0
   -0.2129   -0.2485   -1.8471 H   0  0  0  0  0  0  0  0  0  0  0  0
    1.3101    0.2611   -1.1358 H   0  0  0  0  0  0  0  0  0  0  0  0
    1.0798   -1.9010   -1.3061 C   0  0  0  0  0  0  0  0  0  0  0  0
    0.6234   -2.6398   -0.6457 H   0  0  0  0  0  0  0  0  0  0  0  0
    0.8418   -2.1958   -2.3315 H   0  0  0  0  0  0  0  0  0  0  0  0
    2.5969   -1.9750   -1.1461 C   0  0  0  0  0  0  0  0  0  0  0  0
    3.1351   -1.3141   -0.2730 O   0  0  0  0  0  0  0  0  0  0  0  0
    3.2779   -2.7805   -1.9887 O   0  0  0  0  0  0  0  0  0  0  0  0
    4.2050   -2.7023   -1.7169 H   0  0  0  0  0  0  0  0  0  0  0  0
   -0.3643    1.1330    0.6460 C   0  0  0  0  0  0  0  0  0  0  0  0
   -1.2811    1.7741    0.1441 O   0  0  0  0  0  0  0  0  0  0  0  0
    0.4629    1.7359    1.5746 N   0  0  0  0  0  0  0  0  0  0  0  0
    1.2152    1.1754    1.9677 H   0  0  0  0  0  0  0  0  0  0  0  0
    0.3342    3.1310    1.9768 C   0  0  0  0  0  0  0  0  0  0  0  0
   -0.6496    3.3118    2.4224 H   0  0  0  0  0  0  0  0  0  0  0  0
    1.1000    3.3837    2.7165 H   0  0  0  0  0  0  0  0  0  0  0  0
    0.4563    3.7924    1.1127 H   0  0  0  0  0  0  0  0  0  0  0  0
  1  2  1  0  0  0  0
  2  3  1  0  0  0  0
  2  4  1  0  0  0  0
  2  5  1  0  0  0  0
  5  6  2  0  0  0  0
  5  7  1  0  0  0  0
  7  8  1  0  0  0  0
  7  9  1  0  0  0  0
  9 10  1  0  0  0  0
  9 11  1  0  0  0  0
  9 21  1  0  0  0  0
 11 12  1  0  0  0  0
 11 13  1  0  0  0  0
 11 14  1  0  0  0  0
 14 15  1  0  0  0  0
 14 16  1  0  0  0  0
 14 17  1  0  0  0  0
 17 18  2  0  0  0  0
 17 19  1  0  0  0  0
 19 20  1  0  0  0  0
 21 22  2  0  0  0  0
 21 23  1  0  0  0  0
 23 24  1  0  0  0  0
 23 25  1  0  0  0  0
 25 26  1  0  0  0  0
 25 27  1  0  0  0  0
 25 28  1  0  0  0  0
M  END
$$$$

  -OEChem-03222214033D

 28 27  0     1  0  0  0  0  0999 V2000
   -3.2775   -3.7378    1.3042 H   0  0  0  0  0  0  0  0  0  0  0  0
   -3.2289   -2.7607    0.8152 C   0  0  0  0  0  0  0  0  0  0  0  0
   -3.8762   -2.0647    1.3542 H   0  0  0  0  0  0  0  0  0  0  0  0
   -3.5888   -2.8622   -0.2115 H   0  0  0  0  0  0  0  0  0  0  0  0
   -1.8019   -2.2468    0.8146 C   0  0  0  0  0  0  0  0  0  0  0  0
   -0.9120   -2.9188    1.3104 O   0  0  0  0  0  0  0  0  0  0  0  0
   -1.5187   -1.0184    0.2554 N   0  0  0  0  0  0  0  0  0  0  0  0
   -2.3112   -0.4496   -0.0397 H   0  0  0  0  0  0  0  0  0  0  0  0
   -0.2082   -0.3493    0.2928 C   0  0  1  0  0  0  0  0  0  0  0  0
    0.4259   -0.8016    1.0635 H   0  0  0  0  0  0  0  0  0  0  0  0
    0.4988   -0.4584   -1.0710 C   0  0  0  0  0  0  0  0  0  0  0  0
   -0.2293   -0.2218   -1.8543 H   0  0  0  0  0  0  0  0  0  0  0  0
    1.2977    0.2880   -1.1476 H   0  0  0  0  0  0  0  0  0  0  0  0
    1.0737   -1.8690   -1.3267 C   0  0  0  0  0  0  0  0  0  0  0  0
    0.4441   -2.6422   -0.8836 H   0  0  0  0  0  0  0  0  0  0  0  0
    1.0851   -2.0434   -2.4057 H   0  0  0  0  0  0  0  0  0  0  0  0
    2.5085   -2.0462   -0.8283 C   0  0  0  0  0  0  0  0  0  0  0  0
    2.9479   -1.2994    0.0319 O   0  0  0  0  0  0  0  0  0  0  0  0
    3.2343   -3.0405   -1.3822 O   0  0  0  0  0  0  0  0  0  0  0  0
    4.0913   -3.0078   -0.9308 H   0  0  0  0  0  0  0  0  0  0  0  0
   -0.3729    1.1386    0.6577 C   0  0  0  0  0  0  0  0  0  0  0  0
   -1.2958    1.7855    0.1745 O   0  0  0  0  0  0  0  0  0  0  0  0
    0.4625    1.7286    1.5870 N   0  0  0  0  0  0  0  0  0  0  0  0
    1.2300    1.1678    1.9498 H   0  0  0  0  0  0  0  0  0  0  0  0
    0.3469    3.1225    1.9976 C   0  0  0  0  0  0  0  0  0  0  0  0
   -0.6380    3.3118    2.4378 H   0  0  0  0  0  0  0  0  0  0  0  0
    1.1101    3.3618    2.7445 H   0  0  0  0  0  0  0  0  0  0  0  0
    0.4826    3.7878    1.1383 H   0  0  0  0  0  0  0  0  0  0  0  0
  1  2  1  0  0  0  0
  2  3  1  0  0  0  0
  2  4  1  0  0  0  0
  2  5  1  0  0  0  0
  5  6  2  0  0  0  0
  5  7  1  0  0  0  0
  7  8  1  0  0  0  0
  7  9  1  0  0  0  0
  9 10  1  0  0  0  0
  9 11  1  0  0  0  0
  9 21  1  0  0  0  0
 11 12  1  0  0  0  0
 11 13  1  0  0  0  0
 11 14  1  0  0  0  0
 14 15  1  0  0  0  0
 14 16  1  0  0  0  0
 14 17  1  0  0  0  0
 17 18  2  0  0  0  0
 17 19  1  0  0  0  0
 19 20  1  0  0  0  0
 21 22  2  0  0  0  0
 21 23  1  0  0  0  0
 23 24  1  0  0  0  0
 23 25  1  0  0  0  0
 25 26  1  0  0  0  0
 25 27  1  0  0  0  0
 25 28  1  0  0  0  0
M  END
$$$$

  -OEChem-03222214033D

 28 27  0     1  0  0  0  0  0999 V2000
   -3.2298   -3.7572    1.2989 H   0  0  0  0  0  0  0  0  0  0  0  0
   -3.2000   -2.7764    0.8163 C   0  0  0  0  0  0  0  0  0  0  0  0
   -3.8378   -2.0890    1.3771 H   0  0  0  0  0  0  0  0  0  0  0  0
   -3.5855   -2.8728   -0.2015 H   0  0  0  0  0  0  0  0  0  0  0  0
   -1.7766   -2.2533    0.7832 C   0  0  0  0  0  0  0  0  0  0  0  0
   -0.8665   -2.9301    1.2341 O   0  0  0  0  0  0  0  0  0  0  0  0
   -1.5154   -1.0145    0.2365 N   0  0  0  0  0  0  0  0  0  0  0  0
   -2.3184   -0.4443   -0.0259 H   0  0  0  0  0  0  0  0  0  0  0  0
   -0.2123   -0.3327    0.2785 C   0  0  1  0  0  0  0  0  0  0  0  0
    0.4188   -0.7845    1.0507 H   0  0  0  0  0  0  0  0  0  0  0  0
    0.4924   -0.4341   -1.0877 C   0  0  0  0  0  0  0  0  0  0  0  0
   -0.2313   -0.1930   -1.8736 H   0  0  0  0  0  0  0  0  0  0  0  0
    1.2944    0.3099   -1.1523 H   0  0  0  0  0  0  0  0  0  0  0  0
    1.0793   -1.8380   -1.3492 C   0  0  0  0  0  0  0  0  0  0  0  0
    0.3374   -2.6085   -1.1281 H   0  0  0  0  0  0  0  0  0  0  0  0
    1.3249   -1.9197   -2.4108 H   0  0  0  0  0  0  0  0  0  0  0  0
    2.3563   -2.1465   -0.5637 C   0  0  0  0  0  0  0  0  0  0  0  0
    2.8228   -1.3150    0.2000 O   0  0  0  0  0  0  0  0  0  0  0  0
    2.9297   -3.3486   -0.7829 O   0  0  0  0  0  0  0  0  0  0  0  0
    3.6974   -3.3735   -0.1922 H   0  0  0  0  0  0  0  0  0  0  0  0
   -0.3826    1.1492    0.6617 C   0  0  0  0  0  0  0  0  0  0  0  0
   -1.3145    1.7963    0.1966 O   0  0  0  0  0  0  0  0  0  0  0  0
    0.4559    1.7283    1.5948 N   0  0  0  0  0  0  0  0  0  0  0  0
    1.2318    1.1663    1.9383 H   0  0  0  0  0  0  0  0  0  0  0  0
    0.3405    3.1163    2.0238 C   0  0  0  0  0  0  0  0  0  0  0  0
   -0.6460    3.3013    2.4615 H   0  0  0  0  0  0  0  0  0  0  0  0
    1.1004    3.3436    2.7776 H   0  0  0  0  0  0  0  0  0  0  0  0
    0.4817    3.7925    1.1741 H   0  0  0  0  0  0  0  0  0  0  0  0
  1  2  1  0  0  0  0
  2  3  1  0  0  0  0
  2  4  1  0  0  0  0
  2  5  1  0  0  0  0
  5  6  2  0  0  0  0
  5  7  1  0  0  0  0
  7  8  1  0  0  0  0
  7  9  1  0  0  0  0
  9 10  1  0  0  0  0
  9 11  1  0  0  0  0
  9 21  1  0  0  0  0
 11 12  1  0  0  0  0
 11 13  1  0  0  0  0
 11 14  1  0  0  0  0
 14 15  1  0  0  0  0
 14 16  1  0  0  0  0
 14 17  1  0  0  0  0
 17 18  2  0  0  0  0
 17 19  1  0  0  0  0
 19 20  1  0  0  0  0
 21 22  2  0  0  0  0
 21 23  1  0  0  0  0
 23 24  1  0  0  0  0
 23 25  1  0  0  0  0
 25 26  1  0  0  0  0
 25 27  1  0  0  0  0
 25 28  1  0  0  0  0
M  END
$$$$

  -OEChem-03222214033D

 28 27  0     1  0  0  0  0  0999 V2000
   -3.1868   -3.7718    1.2961 H   0  0  0  0  0  0  0  0  0  0  0  0
   -3.1670   -2.7908    0.8134 C   0  0  0  0  0  0  0  0  0  0  0  0
   -3.8102   -2.1090    1.3752 H   0  0  0  0  0  0  0  0  0  0  0  0
   -3.5531   -2.8907   -0.2038 H   0  0  0  0  0  0  0  0  0  0  0  0
   -1.7487   -2.2547    0.7783 C   0  0  0  0  0  0  0  0  0  0  0  0
   -0.8311   -2.9232    1.2263 O   0  0  0  0  0  0  0  0  0  0  0  0
   -1.4988   -1.0133    0.2327 N   0  0  0  0  0  0  0  0  0  0  0  0
   -2.3058   -0.4486   -0.0292 H   0  0  0  0  0  0  0  0  0  0  0  0
   -0.2012   -0.3236    0.2837 C   0  0  1  0  0  0  0  0  0  0  0  0
    0.4246   -0.7670    1.0637 H   0  0  0  0  0  0  0  0  0  0  0  0
    0.4964   -0.4269   -1.0878 C   0  0  0  0  0  0  0  0  0  0  0  0
   -0.2190   -0.1690   -1.8760 H   0  0  0  0  0  0  0  0  0  0  0  0
    1.3069    0.3093   -1.1334 H   0  0  0  0  0  0  0  0  0  0  0  0
    1.0930   -1.8233   -1.3712 C   0  0  0  0  0  0  0  0  0  0  0  0
    0.2885   -2.5630   -1.3761 H   0  0  0  0  0  0  0  0  0  0  0  0
    1.5451   -1.8243   -2.3658 H   0  0  0  0  0  0  0  0  0  0  0  0
    2.1553   -2.2892   -0.3735 C   0  0  0  0  0  0  0  0  0  0  0  0
    2.7372   -1.4679    0.3186 O   0  0  0  0  0  0  0  0  0  0  0  0
    2.4316   -3.6099   -0.3424 O   0  0  0  0  0  0  0  0  0  0  0  0
    3.0852   -3.7156    0.3647 H   0  0  0  0  0  0  0  0  0  0  0  0
   -0.3835    1.1570    0.6672 C   0  0  0  0  0  0  0  0  0  0  0  0
   -1.3157    1.7990    0.1960 O   0  0  0  0  0  0  0  0  0  0  0  0
    0.4452    1.7407    1.6063 N   0  0  0  0  0  0  0  0  0  0  0  0
    1.2166    1.1804    1.9621 H   0  0  0  0  0  0  0  0  0  0  0  0
    0.3143    3.1252    2.0424 C   0  0  0  0  0  0  0  0  0  0  0  0
   -0.6782    3.3001    2.4710 H   0  0  0  0  0  0  0  0  0  0  0  0
    1.0646    3.3537    2.8056 H   0  0  0  0  0  0  0  0  0  0  0  0
    0.4592    3.8079    1.1985 H   0  0  0  0  0  0  0  0  0  0  0  0
  1  2  1  0  0  0  0
  2  3  1  0  0  0  0
  2  4  1  0  0  0  0
  2  5  1  0  0  0  0
  5  6  2  0  0  0  0
  5  7  1  0  0  0  0
  7  8  1  0  0  0  0
  7  9  1  0  0  0  0
  9 10  1  0  0  0  0
  9 11  1  0  0  0  0
  9 21  1  0  0  0  0
 11 12  1  0  0  0  0
 11 13  1  0  0  0  0
 11 14  1  0  0  0  0
 14 15  1  0  0  0  0
 14 16  1  0  0  0  0
 14 17  1  0  0  0  0
 17 18  2  0  0  0  0
 17 19  1  0  0  0  0
 19 20  1  0  0  0  0
 21 22  2  0  0  0  0
 21 23  1  0  0  0  0
 23 24  1  0  0  0  0
 23 25  1  0  0  0  0
 25 26  1  0  0  0  0
 25 27  1  0  0  0  0
 25 28  1  0  0  0  0
M  END
$$$$

  -OEChem-03222214033D

 28 27  0     1  0  0  0  0  0999 V2000
   -3.1834   -3.7897    1.2728 H   0  0  0  0  0  0  0  0  0  0  0  0
   -3.1535   -2.8081    0.7913 C   0  0  0  0  0  0  0  0  0  0  0  0
   -3.8363   -2.1365    1.3176 H   0  0  0  0  0  0  0  0  0  0  0  0
   -3.4834   -2.9143   -0.2449 H   0  0  0  0  0  0  0  0  0  0  0  0
   -1.7438   -2.2498    0.8303 C   0  0  0  0  0  0  0  0  0  0  0  0
   -0.8490   -2.8888    1.3587 O   0  0  0  0  0  0  0  0  0  0  0  0
   -1.4808   -1.0175    0.2705 N   0  0  0  0  0  0  0  0  0  0  0  0
   -2.2782   -0.4727   -0.0544 H   0  0  0  0  0  0  0  0  0  0  0  0
   -0.1853   -0.3249    0.3277 C   0  0  1  0  0  0  0  0  0  0  0  0
    0.4375   -0.7520    1.1180 H   0  0  0  0  0  0  0  0  0  0  0  0
    0.5038   -0.4348   -1.0499 C   0  0  0  0  0  0  0  0  0  0  0  0
   -0.2048   -0.1535   -1.8364 H   0  0  0  0  0  0  0  0  0  0  0  0
    1.3213    0.2943   -1.0766 H   0  0  0  0  0  0  0  0  0  0  0  0
    1.1124   -1.8183   -1.3766 C   0  0  0  0  0  0  0  0  0  0  0  0
    0.2937   -2.5003   -1.6214 H   0  0  0  0  0  0  0  0  0  0  0  0
    1.7488   -1.7370   -2.2610 H   0  0  0  0  0  0  0  0  0  0  0  0
    1.9239   -2.4734   -0.2598 C   0  0  0  0  0  0  0  0  0  0  0  0
    2.6069   -1.7695    0.4679 O   0  0  0  0  0  0  0  0  0  0  0  0
    1.8896   -3.8199   -0.1716 O   0  0  0  0  0  0  0  0  0  0  0  0
    2.3949   -4.0338    0.6266 H   0  0  0  0  0  0  0  0  0  0  0  0
   -0.3813    1.1609    0.6852 C   0  0  0  0  0  0  0  0  0  0  0  0
   -1.2969    1.7958    0.1733 O   0  0  0  0  0  0  0  0  0  0  0  0
    0.4292    1.7660    1.6267 N   0  0  0  0  0  0  0  0  0  0  0  0
    1.1765    1.2065    2.0312 H   0  0  0  0  0  0  0  0  0  0  0  0
    0.2878    3.1593    2.0298 C   0  0  0  0  0  0  0  0  0  0  0  0
   -0.7086    3.3381    2.4476 H   0  0  0  0  0  0  0  0  0  0  0  0
    1.0318    3.4100    2.7919 H   0  0  0  0  0  0  0  0  0  0  0  0
    0.4346    3.8231    1.1712 H   0  0  0  0  0  0  0  0  0  0  0  0
  1  2  1  0  0  0  0
  2  3  1  0  0  0  0
  2  4  1  0  0  0  0
  2  5  1  0  0  0  0
  5  6  2  0  0  0  0
  5  7  1  0  0  0  0
  7  8  1  0  0  0  0
  7  9  1  0  0  0  0
  9 10  1  0  0  0  0
  9 11  1  0  0  0  0
  9 21  1  0  0  0  0
 11 12  1  0  0  0  0
 11 13  1  0  0  0  0
 11 14  1  0  0  0  0
 14 15  1  0  0  0  0
 14 16  1  0  0  0  0
 14 17  1  0  0  0  0
 17 18  2  0  0  0  0
 17 19  1  0  0  0  0
 19 20  1  0  0  0  0
 21 22  2  0  0  0  0
 21 23  1  0  0  0  0
 23 24  1  0  0  0  0
 23 25  1  0  0  0  0
 25 26  1  0  0  0  0
 25 27  1  0  0  0  0
 25 28  1  0  0  0  0
M  END
$$$$

  -OEChem-03222214033D

 28 27  0     1  0  0  0  0  0999 V2000
   -3.1993   -3.7971    1.2579 H   0  0  0  0  0  0  0  0  0  0  0  0
   -3.1509   -2.8160    0.7773 C   0  0  0  0  0  0  0  0  0  0  0  0
   -3.8740   -2.1519    1.2570 H   0  0  0  0  0  0  0  0  0  0  0  0
   -3.4129   -2.9282   -0.2775 H   0  0  0  0  0  0  0  0  0  0  0  0
   -1.7540   -2.2391    0.9059 C   0  0  0  0  0  0  0  0  0  0  0  0
   -0.9108   -2.8278    1.5624 O   0  0  0  0  0  0  0  0  0  0  0  0
   -1.4627   -1.0247    0.3209 N   0  0  0  0  0  0  0  0  0  0  0  0
   -2.2367   -0.5107   -0.0972 H   0  0  0  0  0  0  0  0  0  0  0  0
   -0.1634   -0.3382    0.3768 C   0  0  1  0  0  0  0  0  0  0  0  0
    0.4618   -0.7500    1.1736 H   0  0  0  0  0  0  0  0  0  0  0  0
    0.5243   -0.4506   -1.0051 C   0  0  0  0  0  0  0  0  0  0  0  0
   -0.1782   -0.1462   -1.7885 H   0  0  0  0  0  0  0  0  0  0  0  0
    1.3461    0.2741   -1.0155 H   0  0  0  0  0  0  0  0  0  0  0  0
    1.1415   -1.8200   -1.3793 C   0  0  0  0  0  0  0  0  0  0  0  0
    0.3672   -2.4083   -1.8792 H   0  0  0  0  0  0  0  0  0  0  0  0
    1.9522   -1.6728   -2.0972 H   0  0  0  0  0  0  0  0  0  0  0  0
    1.6641   -2.6711   -0.2263 C   0  0  0  0  0  0  0  0  0  0  0  0
    2.4243   -2.1583    0.5790 O   0  0  0  0  0  0  0  0  0  0  0  0
    1.2943   -3.9687   -0.1835 O   0  0  0  0  0  0  0  0  0  0  0  0
    1.6192   -4.2921    0.6707 H   0  0  0  0  0  0  0  0  0  0  0  0
   -0.3713    1.1564    0.6937 C   0  0  0  0  0  0  0  0  0  0  0  0
   -1.2646    1.7813    0.1321 O   0  0  0  0  0  0  0  0  0  0  0  0
    0.4207    1.7909    1.6318 N   0  0  0  0  0  0  0  0  0  0  0  0
    1.1292    1.2333    2.1026 H   0  0  0  0  0  0  0  0  0  0  0  0
    0.2562    3.1905    2.0046 C   0  0  0  0  0  0  0  0  0  0  0  0
   -0.7445    3.3627    2.4147 H   0  0  0  0  0  0  0  0  0  0  0  0
    0.9936    3.4691    2.7636 H   0  0  0  0  0  0  0  0  0  0  0  0
    0.3962    3.8382    1.1327 H   0  0  0  0  0  0  0  0  0  0  0  0
  1  2  1  0  0  0  0
  2  3  1  0  0  0  0
  2  4  1  0  0  0  0
  2  5  1  0  0  0  0
  5  6  2  0  0  0  0
  5  7  1  0  0  0  0
  7  8  1  0  0  0  0
  7  9  1  0  0  0  0
  9 10  1  0  0  0  0
  9 11  1  0  0  0  0
  9 21  1  0  0  0  0
 11 12  1  0  0  0  0
 11 13  1  0  0  0  0
 11 14  1  0  0  0  0
 14 15  1  0  0  0  0
 14 16  1  0  0  0  0
 14 17  1  0  0  0  0
 17 18  2  0  0  0  0
 17 19  1  0  0  0  0
 19 20  1  0  0  0  0
 21 22  2  0  0  0  0
 21 23  1  0  0  0  0
 23 24  1  0  0  0  0
 23 25  1  0  0  0  0
 25 26  1  0  0  0  0
 25 27  1  0  0  0  0
 25 28  1  0  0  0  0
M  END
$$$$

  -OEChem-03222214033D

 28 27  0     1  0  0  0  0  0999 V2000
   -3.2245   -3.8007    1.2598 H   0  0  0  0  0  0  0  0  0  0  0  0
   -3.1565   -2.8270    0.7666 C   0  0  0  0  0  0  0  0  0  0  0  0
   -3.9146   -2.1631    1.1892 H   0  0  0  0  0  0  0  0  0  0  0  0
   -3.3513   -2.9598   -0.3004 H   0  0  0  0  0  0  0  0  0  0  0  0
   -1.7763   -2.2324    0.9714 C   0  0  0  0  0  0  0  0  0  0  0  0
   -0.9866   -2.7804    1.7238 O   0  0  0  0  0  0  0  0  0  0  0  0
   -1.4565   -1.0347    0.3662 N   0  0  0  0  0  0  0  0  0  0  0  0
   -2.2056   -0.5518   -0.1268 H   0  0  0  0  0  0  0  0  0  0  0  0
   -0.1513   -0.3556    0.4122 C   0  0  1  0  0  0  0  0  0  0  0  0
    0.4790   -0.7615    1.2094 H   0  0  0  0  0  0  0  0  0  0  0  0
    0.5427   -0.4702   -0.9705 C   0  0  0  0  0  0  0  0  0  0  0  0
   -0.1622   -0.1611   -1.7502 H   0  0  0  0  0  0  0  0  0  0  0  0
    1.3600    0.2595   -0.9789 H   0  0  0  0  0  0  0  0  0  0  0  0
    1.1701   -1.8281   -1.3758 C   0  0  0  0  0  0  0  0  0  0  0  0
    0.5137   -2.2971   -2.1137 H   0  0  0  0  0  0  0  0  0  0  0  0
    2.1320   -1.6546   -1.8656 H   0  0  0  0  0  0  0  0  0  0  0  0
    1.3772   -2.8420   -0.2595 C   0  0  0  0  0  0  0  0  0  0  0  0
    2.1704   -2.5671    0.6252 O   0  0  0  0  0  0  0  0  0  0  0  0
    0.6880   -4.0018   -0.3163 O   0  0  0  0  0  0  0  0  0  0  0  0
    0.8272   -4.4076    0.5549 H   0  0  0  0  0  0  0  0  0  0  0  0
   -0.3616    1.1461    0.6964 C   0  0  0  0  0  0  0  0  0  0  0  0
   -1.2381    1.7644    0.1019 O   0  0  0  0  0  0  0  0  0  0  0  0
    0.4251    1.8010    1.6253 N   0  0  0  0  0  0  0  0  0  0  0  0
    1.1038    1.2456    2.1402 H   0  0  0  0  0  0  0  0  0  0  0  0
    0.2452    3.2040    1.9786 C   0  0  0  0  0  0  0  0  0  0  0  0
   -0.7558    3.3700    2.3905 H   0  0  0  0  0  0  0  0  0  0  0  0
    0.9825    3.5028    2.7300 H   0  0  0  0  0  0  0  0  0  0  0  0
    0.3735    3.8410    1.0970 H   0  0  0  0  0  0  0  0  0  0  0  0
  1  2  1  0  0  0  0
  2  3  1  0  0  0  0
  2  4  1  0  0  0  0
  2  5  1  0  0  0  0
  5  6  2  0  0  0  0
  5  7  1  0  0  0  0
  7  8  1  0  0  0  0
  7  9  1  0  0  0  0
  9 10  1  0  0  0  0
  9 11  1  0  0  0  0
  9 21  1  0  0  0  0
 11 12  1  0  0  0  0
 11 13  1  0  0  0  0
 11 14  1  0  0  0  0
 14 15  1  0  0  0  0
 14 16  1  0  0  0  0
 14 17  1  0  0  0  0
 17 18  2  0  0  0  0
 17 19  1  0  0  0  0
 19 20  1  0  0  0  0
 21 22  2  0  0  0  0
 21 23  1  0  0  0  0
 23 24  1  0  0  0  0
 23 25  1  0  0  0  0
 25 26  1  0  0  0  0
 25 27  1  0  0  0  0
 25 28  1  0  0  0  0
M  END
$$$$

  -OEChem-03222214033D

 28 27  0     1  0  0  0  0  0999 V2000
   -3.2464   -3.8134    1.3127 H   0  0  0  0  0  0  0  0  0  0  0  0
   -3.1405   -2.8846    0.7453 C   0  0  0  0  0  0  0  0  0  0  0  0
   -3.9208   -2.1880    1.0612 H   0  0  0  0  0  0  0  0  0  0  0  0
   -3.2661   -3.1055   -0.3174 H   0  0  0  0  0  0  0  0  0  0  0  0
   -1.7724   -2.2760    0.9873 C   0  0  0  0  0  0  0  0  0  0  0  0
   -0.9973   -2.8185    1.7579 O   0  0  0  0  0  0  0  0  0  0  0  0
   -1.4517   -1.0750    0.3901 N   0  0  0  0  0  0  0  0  0  0  0  0
   -2.1973   -0.6122   -0.1266 H   0  0  0  0  0  0  0  0  0  0  0  0
   -0.1588   -0.3696    0.4383 C   0  0  1  0  0  0  0  0  0  0  0  0
    0.4812   -0.7736    1.2301 H   0  0  0  0  0  0  0  0  0  0  0  0
    0.5554   -0.4502   -0.9393 C   0  0  0  0  0  0  0  0  0  0  0  0
   -0.1668   -0.1653   -1.7126 H   0  0  0  0  0  0  0  0  0  0  0  0
    1.3389    0.3158   -0.9482 H   0  0  0  0  0  0  0  0  0  0  0  0
    1.2332   -1.7742   -1.3767 C   0  0  0  0  0  0  0  0  0  0  0  0
    0.7778   -2.1035   -2.3145 H   0  0  0  0  0  0  0  0  0  0  0  0
    2.2896   -1.5823   -1.5850 H   0  0  0  0  0  0  0  0  0  0  0  0
    1.1590   -2.9383   -0.4028 C   0  0  0  0  0  0  0  0  0  0  0  0
    1.9396   -2.9347    0.5329 O   0  0  0  0  0  0  0  0  0  0  0  0
    0.2671   -3.9258   -0.6318 O   0  0  0  0  0  0  0  0  0  0  0  0
    0.3063   -4.4640    0.1766 H   0  0  0  0  0  0  0  0  0  0  0  0
   -0.4083    1.1267    0.7212 C   0  0  0  0  0  0  0  0  0  0  0  0
   -1.2938    1.7245    0.1190 O   0  0  0  0  0  0  0  0  0  0  0  0
    0.3585    1.8013    1.6525 N   0  0  0  0  0  0  0  0  0  0  0  0
    1.0302    1.2574    2.1881 H   0  0  0  0  0  0  0  0  0  0  0  0
    0.1303    3.1950    2.0146 C   0  0  0  0  0  0  0  0  0  0  0  0
   -0.8714    3.3212    2.4390 H   0  0  0  0  0  0  0  0  0  0  0  0
    0.8649    3.5181    2.7586 H   0  0  0  0  0  0  0  0  0  0  0  0
    0.2241    3.8406    1.1349 H   0  0  0  0  0  0  0  0  0  0  0  0
  1  2  1  0  0  0  0
  2  3  1  0  0  0  0
  2  4  1  0  0  0  0
  2  5  1  0  0  0  0
  5  6  2  0  0  0  0
  5  7  1  0  0  0  0
  7  8  1  0  0  0  0
  7  9  1  0  0  0  0
  9 10  1  0  0  0  0
  9 11  1  0  0  0  0
  9 21  1  0  0  0  0
 11 12  1  0  0  0  0
 11 13  1  0  0  0  0
 11 14  1  0  0  0  0
 14 15  1  0  0  0  0
 14 16  1  0  0  0  0
 14 17  1  0  0  0  0
 17 18  2  0  0  0  0
 17 19  1  0  0  0  0
 19 20  1  0  0  0  0
 21 22  2  0  0  0  0
 21 23  1  0  0  0  0
 23 24  1  0  0  0  0
 23 25  1  0  0  0  0
 25 26  1  0  0  0  0
 25 27  1  0  0  0  0
 25 28  1  0  0  0  0
M  END
$$$$

  -OEChem-03222214033D

 28 27  0     1  0  0  0  0  0999 V2000
   -3.2198   -3.9611    1.1138 H   0  0  0  0  0  0  0  0  0  0  0  0
   -3.1434   -3.0006    0.5969 C   0  0  0  0  0  0  0  0  0  0  0  0
   -3.9581   -2.3539    0.9306 H   0  0  0  0  0  0  0  0  0  0  0  0
   -3.2384   -3.1726   -0.4782 H   0  0  0  0  0  0  0  0  0  0  0  0
   -1.8065   -2.3504    0.8956 C   0  0  0  0  0  0  0  0  0  0  0  0
   -1.0149   -2.9020    1.6469 O   0  0  0  0  0  0  0  0  0  0  0  0
   -1.5205   -1.1054    0.3713 N   0  0  0  0  0  0  0  0  0  0  0  0
   -2.2629   -0.6523   -0.1581 H   0  0  0  0  0  0  0  0  0  0  0  0
   -0.2245   -0.4052    0.4243 C   0  0  1  0  0  0  0  0  0  0  0  0
    0.4437   -0.8681    1.1581 H   0  0  0  0  0  0  0  0  0  0  0  0
    0.4597   -0.3580   -0.9729 C   0  0  0  0  0  0  0  0  0  0  0  0
   -0.2998   -0.0338   -1.6934 H   0  0  0  0  0  0  0  0  0  0  0  0
    1.2276    0.4235   -0.9567 H   0  0  0  0  0  0  0  0  0  0  0  0
    1.1285   -1.6350   -1.5432 C   0  0  0  0  0  0  0  0  0  0  0  0
    0.8906   -1.7202   -2.6074 H   0  0  0  0  0  0  0  0  0  0  0  0
    2.2132   -1.5233   -1.4643 H   0  0  0  0  0  0  0  0  0  0  0  0
    0.7719   -2.9432   -0.8619 C   0  0  0  0  0  0  0  0  0  0  0  0
   -0.1228   -3.6224   -1.3376 O   0  0  0  0  0  0  0  0  0  0  0  0
    1.4533   -3.2667    0.2585 O   0  0  0  0  0  0  0  0  0  0  0  0
    0.9215   -3.9639    0.6798 H   0  0  0  0  0  0  0  0  0  0  0  0
   -0.4658    1.0656    0.8273 C   0  0  0  0  0  0  0  0  0  0  0  0
   -1.3521    1.7148    0.2828 O   0  0  0  0  0  0  0  0  0  0  0  0
    0.3331    1.6720    1.7788 N   0  0  0  0  0  0  0  0  0  0  0  0
    1.0075    1.0882    2.2660 H   0  0  0  0  0  0  0  0  0  0  0  0
    0.1366    3.0458    2.2258 C   0  0  0  0  0  0  0  0  0  0  0  0
   -0.8503    3.1618    2.6863 H   0  0  0  0  0  0  0  0  0  0  0  0
    0.8975    3.3162    2.9642 H   0  0  0  0  0  0  0  0  0  0  0  0
    0.2145    3.7388    1.3814 H   0  0  0  0  0  0  0  0  0  0  0  0
  1  2  1  0  0  0  0
  2  3  1  0  0  0  0
  2  4  1  0  0  0  0
  2  5  1  0  0  0  0
  5  6  2  0  0  0  0
  5  7  1  0  0  0  0
  7  8  1  0  0  0  0
  7  9  1  0  0  0  0
  9 10  1  0  0  0  0
  9 11  1  0  0  0  0
  9 21  1  0  0  0  0
 11 12  1  0  0  0  0
 11 13  1  0  0  0  0
 11 14  1  0  0  0  0
 14 15  1  0  0  0  0
 14 16  1  0  0  0  0
 14 17  1  0  0  0  0
 17 18  2  0  0  0  0
 17 19  1  0  0  0  0
 19 20  1  0  0  0  0
 21 22  2  0  0  0  0
 21 23  1  0  0  0  0
 23 24  1  0  0  0  0
 23 25  1  0  0  0  0
 25 26  1  0  0  0  0
 25 27  1  0  0  0  0
 25 28  1  0  0  0  0
M  END
$$$$

  -OEChem-03222214033D

 28 27  0     1  0  0  0  0  0999 V2000
   -3.1849   -3.8869    1.4706 H   0  0  0  0  0  0  0  0  0  0  0  0
   -3.1478   -2.9376    0.9293 C   0  0  0  0  0  0  0  0  0  0  0  0
   -3.8936   -2.2604    1.3525 H   0  0  0  0  0  0  0  0  0  0  0  0
   -3.3859   -3.1223   -0.1215 H   0  0  0  0  0  0  0  0  0  0  0  0
   -1.7654   -2.3241    1.0415 C   0  0  0  0  0  0  0  0  0  0  0  0
   -0.8859   -2.9095    1.6553 O   0  0  0  0  0  0  0  0  0  0  0  0
   -1.5236   -1.0831    0.4891 N   0  0  0  0  0  0  0  0  0  0  0  0
   -2.3182   -0.6155    0.0569 H   0  0  0  0  0  0  0  0  0  0  0  0
   -0.2223   -0.3997    0.3905 C   0  0  1  0  0  0  0  0  0  0  0  0
    0.5157   -0.8743    1.0458 H   0  0  0  0  0  0  0  0  0  0  0  0
    0.3150   -0.3650   -1.0689 C   0  0  0  0  0  0  0  0  0  0  0  0
   -0.5169   -0.0449   -1.7067 H   0  0  0  0  0  0  0  0  0  0  0  0
    1.0841    0.4118   -1.1430 H   0  0  0  0  0  0  0  0  0  0  0  0
    0.9088   -1.6510   -1.6952 C   0  0  0  0  0  0  0  0  0  0  0  0
    0.7966   -1.6061   -2.7818 H   0  0  0  0  0  0  0  0  0  0  0  0
    1.9812   -1.6668   -1.4833 H   0  0  0  0  0  0  0  0  0  0  0  0
    0.3491   -2.9771   -1.2118 C   0  0  0  0  0  0  0  0  0  0  0  0
   -0.7367   -3.3441   -1.6302 O   0  0  0  0  0  0  0  0  0  0  0  0
    1.0966   -3.6812   -0.3349 O   0  0  0  0  0  0  0  0  0  0  0  0
    0.5049   -4.3673    0.0134 H   0  0  0  0  0  0  0  0  0  0  0  0
   -0.3975    1.0733    0.8194 C   0  0  0  0  0  0  0  0  0  0  0  0
   -1.3360    1.7326    0.3863 O   0  0  0  0  0  0  0  0  0  0  0  0
    0.5136    1.6695    1.6715 N   0  0  0  0  0  0  0  0  0  0  0  0
    1.2354    1.0787    2.0747 H   0  0  0  0  0  0  0  0  0  0  0  0
    0.3813    3.0426    2.1440 C   0  0  0  0  0  0  0  0  0  0  0  0
   -0.5571    3.1703    2.6942 H   0  0  0  0  0  0  0  0  0  0  0  0
    1.2108    3.2952    2.8115 H   0  0  0  0  0  0  0  0  0  0  0  0
    0.3925    3.7408    1.3003 H   0  0  0  0  0  0  0  0  0  0  0  0
  1  2  1  0  0  0  0
  2  3  1  0  0  0  0
  2  4  1  0  0  0  0
  2  5  1  0  0  0  0
  5  6  2  0  0  0  0
  5  7  1  0  0  0  0
  7  8  1  0  0  0  0
  7  9  1  0  0  0  0
  9 10  1  0  0  0  0
  9 11  1  0  0  0  0
  9 21  1  0  0  0  0
 11 12  1  0  0  0  0
 11 13  1  0  0  0  0
 11 14  1  0  0  0  0
 14 15  1  0  0  0  0
 14 16  1  0  0  0  0
 14 17  1  0  0  0  0
 17 18  2  0  0  0  0
 17 19  1  0  0  0  0
 19 20  1  0  0  0  0
 21 22  2  0  0  0  0
 21 23  1  0  0  0  0
 23 24  1  0  0  0  0
 23 25  1  0  0  0  0
 25 26  1  0  0  0  0
 25 27  1  0  0  0  0
 25 28  1  0  0  0  0
M  END
$$$$

  -OEChem-03222214033D

 28 27  0     1  0  0  0  0  0999 V2000
   -3.3833   -3.7206    1.3351 H   0  0  0  0  0  0  0  0  0  0  0  0
   -3.2916   -2.7657    0.8103 C   0  0  0  0  0  0  0  0  0  0  0  0
   -4.0229   -2.0651    1.2199 H   0  0  0  0  0  0  0  0  0  0  0  0
   -3.5027   -2.9248   -0.2504 H   0  0  0  0  0  0  0  0  0  0  0  0
   -1.8912   -2.2083    0.9769 C   0  0  0  0  0  0  0  0  0  0  0  0
   -1.0701   -2.8080    1.6535 O   0  0  0  0  0  0  0  0  0  0  0  0
   -1.5584   -1.0079    0.3854 N   0  0  0  0  0  0  0  0  0  0  0  0
   -2.2930   -0.5338   -0.1367 H   0  0  0  0  0  0  0  0  0  0  0  0
   -0.2244   -0.3881    0.3726 C   0  0  1  0  0  0  0  0  0  0  0  0
    0.4221   -0.8549    1.1227 H   0  0  0  0  0  0  0  0  0  0  0  0
    0.4561   -0.4750   -1.0199 C   0  0  0  0  0  0  0  0  0  0  0  0
   -0.2836   -0.1633   -1.7661 H   0  0  0  0  0  0  0  0  0  0  0  0
    1.2726    0.2543   -1.0580 H   0  0  0  0  0  0  0  0  0  0  0  0
    1.0385   -1.8352   -1.4729 C   0  0  0  0  0  0  0  0  0  0  0  0
    1.2849   -1.7811   -2.5363 H   0  0  0  0  0  0  0  0  0  0  0  0
    1.9745   -1.9964   -0.9311 H   0  0  0  0  0  0  0  0  0  0  0  0
    0.1804   -3.0734   -1.2555 C   0  0  0  0  0  0  0  0  0  0  0  0
   -0.9199   -3.1286   -1.7805 O   0  0  0  0  0  0  0  0  0  0  0  0
    0.7079   -4.0741   -0.5181 O   0  0  0  0  0  0  0  0  0  0  0  0
   -0.0104   -4.7134   -0.4000 H   0  0  0  0  0  0  0  0  0  0  0  0
   -0.3589    1.1123    0.7107 C   0  0  0  0  0  0  0  0  0  0  0  0
   -1.2189    1.7929    0.1633 O   0  0  0  0  0  0  0  0  0  0  0  0
    0.5052    1.7077    1.6112 N   0  0  0  0  0  0  0  0  0  0  0  0
    1.1550    1.1042    2.1075 H   0  0  0  0  0  0  0  0  0  0  0  0
    0.4079    3.1096    2.0004 C   0  0  0  0  0  0  0  0  0  0  0  0
   -0.5600    3.3100    2.4722 H   0  0  0  0  0  0  0  0  0  0  0  0
    1.1994    3.3608    2.7131 H   0  0  0  0  0  0  0  0  0  0  0  0
    0.5139    3.7587    1.1246 H   0  0  0  0  0  0  0  0  0  0  0  0
  1  2  1  0  0  0  0
  2  3  1  0  0  0  0
  2  4  1  0  0  0  0
  2  5  1  0  0  0  0
  5  6  2  0  0  0  0
  5  7  1  0  0  0  0
  7  8  1  0  0  0  0
  7  9  1  0  0  0  0
  9 10  1  0  0  0  0
  9 11  1  0  0  0  0
  9 21  1  0  0  0  0
 11 12  1  0  0  0  0
 11 13  1  0  0  0  0
 11 14  1  0  0  0  0
 14 15  1  0  0  0  0
 14 16  1  0  0  0  0
 14 17  1  0  0  0  0
 17 18  2  0  0  0  0
 17 19  1  0  0  0  0
 19 20  1  0  0  0  0
 21 22  2  0  0  0  0
 21 23  1  0  0  0  0
 23 24  1  0  0  0  0
 23 25  1  0  0  0  0
 25 26  1  0  0  0  0
 25 27  1  0  0  0  0
 25 28  1  0  0  0  0
M  END
$$$$

  -OEChem-03222214033D

 28 27  0     1  0  0  0  0  0999 V2000
   -3.2723   -3.7820    1.3255 H   0  0  0  0  0  0  0  0  0  0  0  0
   -3.2245   -2.8071    0.8331 C   0  0  0  0  0  0  0  0  0  0  0  0
   -3.9503   -2.1383    1.3018 H   0  0  0  0  0  0  0  0  0  0  0  0
   -3.4821   -2.9317   -0.2218 H   0  0  0  0  0  0  0  0  0  0  0  0
   -1.8291   -2.2258    0.9560 C   0  0  0  0  0  0  0  0  0  0  0  0
   -0.9636   -2.8303    1.5702 O   0  0  0  0  0  0  0  0  0  0  0  0
   -1.5415   -1.0079    0.3779 N   0  0  0  0  0  0  0  0  0  0  0  0
   -2.2969   -0.5411   -0.1208 H   0  0  0  0  0  0  0  0  0  0  0  0
   -0.2196   -0.3669    0.3461 C   0  0  1  0  0  0  0  0  0  0  0  0
    0.4501   -0.8331    1.0762 H   0  0  0  0  0  0  0  0  0  0  0  0
    0.4233   -0.4476   -1.0605 C   0  0  0  0  0  0  0  0  0  0  0  0
   -0.3213   -0.1345   -1.8014 H   0  0  0  0  0  0  0  0  0  0  0  0
    1.2450    0.2751   -1.1083 H   0  0  0  0  0  0  0  0  0  0  0  0
    0.9954   -1.8213   -1.4813 C   0  0  0  0  0  0  0  0  0  0  0  0
    1.4468   -1.7272   -2.4720 H   0  0  0  0  0  0  0  0  0  0  0  0
    1.7923   -2.0905   -0.7829 H   0  0  0  0  0  0  0  0  0  0  0  0
    0.0167   -2.9908   -1.5357 C   0  0  0  0  0  0  0  0  0  0  0  0
   -1.0870   -2.8268   -2.0299 O   0  0  0  0  0  0  0  0  0  0  0  0
    0.4539   -4.1824   -1.0758 O   0  0  0  0  0  0  0  0  0  0  0  0
   -0.3048   -4.7798   -1.1473 H   0  0  0  0  0  0  0  0  0  0  0  0
   -0.3605    1.1254    0.7145 C   0  0  0  0  0  0  0  0  0  0  0  0
   -1.2420    1.8060    0.2028 O   0  0  0  0  0  0  0  0  0  0  0  0
    0.5196    1.7135    1.6043 N   0  0  0  0  0  0  0  0  0  0  0  0
    1.1898    1.1086    2.0704 H   0  0  0  0  0  0  0  0  0  0  0  0
    0.4159    3.1059    2.0243 C   0  0  0  0  0  0  0  0  0  0  0  0
   -0.5505    3.2899    2.5057 H   0  0  0  0  0  0  0  0  0  0  0  0
    1.2096    3.3461    2.7384 H   0  0  0  0  0  0  0  0  0  0  0  0
    0.5134    3.7752    1.1628 H   0  0  0  0  0  0  0  0  0  0  0  0
  1  2  1  0  0  0  0
  2  3  1  0  0  0  0
  2  4  1  0  0  0  0
  2  5  1  0  0  0  0
  5  6  2  0  0  0  0
  5  7  1  0  0  0  0
  7  8  1  0  0  0  0
  7  9  1  0  0  0  0
  9 10  1  0  0  0  0
  9 11  1  0  0  0  0
  9 21  1  0  0  0  0
 11 12  1  0  0  0  0
 11 13  1  0  0  0  0
 11 14  1  0  0  0  0
 14 15  1  0  0  0  0
 14 16  1  0  0  0  0
 14 17  1  0  0  0  0
 17 18  2  0  0  0  0
 17 19  1  0  0  0  0
 19 20  1  0  0  0  0
 21 22  2  0  0  0  0
 21 23  1  0  0  0  0
 23 24  1  0  0  0  0
 23 25  1  0  0  0  0
 25 26  1  0  0  0  0
 25 27  1  0  0  0  0
 25 28  1  0  0  0  0
M  END
$$$$

  -OEChem-03222214033D

 28 27  0     1  0  0  0  0  0999 V2000
   -3.2050   -3.8134    1.2654 H   0  0  0  0  0  0  0  0  0  0  0  0
   -3.1756   -2.8326    0.7832 C   0  0  0  0  0  0  0  0  0  0  0  0
   -3.9048   -2.1788    1.2672 H   0  0  0  0  0  0  0  0  0  0  0  0
   -3.4426   -2.9486   -0.2703 H   0  0  0  0  0  0  0  0  0  0  0  0
   -1.7873   -2.2341    0.8986 C   0  0  0  0  0  0  0  0  0  0  0  0
   -0.8994   -2.8452    1.4736 O   0  0  0  0  0  0  0  0  0  0  0  0
   -1.5235   -1.0032    0.3379 N   0  0  0  0  0  0  0  0  0  0  0  0
   -2.2872   -0.5371   -0.1489 H   0  0  0  0  0  0  0  0  0  0  0  0
   -0.2118   -0.3438    0.3231 C   0  0  1  0  0  0  0  0  0  0  0  0
    0.4588   -0.8069    1.0542 H   0  0  0  0  0  0  0  0  0  0  0  0
    0.4223   -0.4361   -1.0822 C   0  0  0  0  0  0  0  0  0  0  0  0
   -0.3061   -0.1215   -1.8384 H   0  0  0  0  0  0  0  0  0  0  0  0
    1.2548    0.2739   -1.1279 H   0  0  0  0  0  0  0  0  0  0  0  0
    0.9848   -1.8329   -1.4338 C   0  0  0  0  0  0  0  0  0  0  0  0
    1.6467   -1.7371   -2.2978 H   0  0  0  0  0  0  0  0  0  0  0  0
    1.5877   -2.1968   -0.5972 H   0  0  0  0  0  0  0  0  0  0  0  0
   -0.0457   -2.9096   -1.7783 C   0  0  0  0  0  0  0  0  0  0  0  0
   -1.1307   -2.5951   -2.2401 O   0  0  0  0  0  0  0  0  0  0  0  0
    0.3304   -4.1922   -1.5892 O   0  0  0  0  0  0  0  0  0  0  0  0
   -0.4406   -4.7229   -1.8380 H   0  0  0  0  0  0  0  0  0  0  0  0
   -0.3621    1.1425    0.7094 C   0  0  0  0  0  0  0  0  0  0  0  0
   -1.2506    1.8218    0.2089 O   0  0  0  0  0  0  0  0  0  0  0  0
    0.5103    1.7263    1.6097 N   0  0  0  0  0  0  0  0  0  0  0  0
    1.1936    1.1249    2.0610 H   0  0  0  0  0  0  0  0  0  0  0  0
    0.4007    3.1159    2.0375 C   0  0  0  0  0  0  0  0  0  0  0  0
   -0.5699    3.2956    2.5117 H   0  0  0  0  0  0  0  0  0  0  0  0
    1.1879    3.3541    2.7592 H   0  0  0  0  0  0  0  0  0  0  0  0
    0.5034    3.7890    1.1798 H   0  0  0  0  0  0  0  0  0  0  0  0
  1  2  1  0  0  0  0
  2  3  1  0  0  0  0
  2  4  1  0  0  0  0
  2  5  1  0  0  0  0
  5  6  2  0  0  0  0
  5  7  1  0  0  0  0
  7  8  1  0  0  0  0
  7  9  1  0  0  0  0
  9 10  1  0  0  0  0
  9 11  1  0  0  0  0
  9 21  1  0  0  0  0
 11 12  1  0  0  0  0
 11 13  1  0  0  0  0
 11 14  1  0  0  0  0
 14 15  1  0  0  0  0
 14 16  1  0  0  0  0
 14 17  1  0  0  0  0
 17 18  2  0  0  0  0
 17 19  1  0  0  0  0
 19 20  1  0  0  0  0
 21 22  2  0  0  0  0
 21 23  1  0  0  0  0
 23 24  1  0  0  0  0
 23 25  1  0  0  0  0
 25 26  1  0  0  0  0
 25 27  1  0  0  0  0
 25 28  1  0  0  0  0
M  END
$$$$

  -OEChem-03222214033D

 28 27  0     1  0  0  0  0  0999 V2000
   -3.1707   -3.8233    1.2078 H   0  0  0  0  0  0  0  0  0  0  0  0
   -3.1453   -2.8400    0.7304 C   0  0  0  0  0  0  0  0  0  0  0  0
   -3.8922   -2.1980    1.2032 H   0  0  0  0  0  0  0  0  0  0  0  0
   -3.3913   -2.9554   -0.3284 H   0  0  0  0  0  0  0  0  0  0  0  0
   -1.7676   -2.2231    0.8733 C   0  0  0  0  0  0  0  0  0  0  0  0
   -0.8797   -2.8262    1.4574 O   0  0  0  0  0  0  0  0  0  0  0  0
   -1.5095   -0.9890    0.3171 N   0  0  0  0  0  0  0  0  0  0  0  0
   -2.2674   -0.5350   -0.1895 H   0  0  0  0  0  0  0  0  0  0  0  0
   -0.2024   -0.3220    0.3195 C   0  0  1  0  0  0  0  0  0  0  0  0
    0.4649   -0.7802    1.0564 H   0  0  0  0  0  0  0  0  0  0  0  0
    0.4185   -0.4414   -1.0864 C   0  0  0  0  0  0  0  0  0  0  0  0
   -0.2995   -0.1251   -1.8516 H   0  0  0  0  0  0  0  0  0  0  0  0
    1.2626    0.2543   -1.1414 H   0  0  0  0  0  0  0  0  0  0  0  0
    0.9640   -1.8597   -1.3807 C   0  0  0  0  0  0  0  0  0  0  0  0
    1.8015   -1.7677   -2.0766 H   0  0  0  0  0  0  0  0  0  0  0  0
    1.3514   -2.3099   -0.4624 H   0  0  0  0  0  0  0  0  0  0  0  0
   -0.0253   -2.8411   -2.0168 C   0  0  0  0  0  0  0  0  0  0  0  0
   -1.1463   -2.4820   -2.3385 O   0  0  0  0  0  0  0  0  0  0  0  0
    0.4272   -4.0970   -2.2158 O   0  0  0  0  0  0  0  0  0  0  0  0
   -0.3185   -4.5739   -2.6096 H   0  0  0  0  0  0  0  0  0  0  0  0
   -0.3536    1.1643    0.7045 C   0  0  0  0  0  0  0  0  0  0  0  0
   -1.2329    1.8459    0.1912 O   0  0  0  0  0  0  0  0  0  0  0  0
    0.5100    1.7473    1.6141 N   0  0  0  0  0  0  0  0  0  0  0  0
    1.1822    1.1435    2.0786 H   0  0  0  0  0  0  0  0  0  0  0  0
    0.3944    3.1359    2.0437 C   0  0  0  0  0  0  0  0  0  0  0  0
   -0.5768    3.3104    2.5187 H   0  0  0  0  0  0  0  0  0  0  0  0
    1.1807    3.3767    2.7655 H   0  0  0  0  0  0  0  0  0  0  0  0
    0.4939    3.8111    1.1872 H   0  0  0  0  0  0  0  0  0  0  0  0
  1  2  1  0  0  0  0
  2  3  1  0  0  0  0
  2  4  1  0  0  0  0
  2  5  1  0  0  0  0
  5  6  2  0  0  0  0
  5  7  1  0  0  0  0
  7  8  1  0  0  0  0
  7  9  1  0  0  0  0
  9 10  1  0  0  0  0
  9 11  1  0  0  0  0
  9 21  1  0  0  0  0
 11 12  1  0  0  0  0
 11 13  1  0  0  0  0
 11 14  1  0  0  0  0
 14 15  1  0  0  0  0
 14 16  1  0  0  0  0
 14 17  1  0  0  0  0
 17 18  2  0  0  0  0
 17 19  1  0  0  0  0
 19 20  1  0  0  0  0
 21 22  2  0  0  0  0
 21 23  1  0  0  0  0
 23 24  1  0  0  0  0
 23 25  1  0  0  0  0
 25 26  1  0  0  0  0
 25 27  1  0  0  0  0
 25 28  1  0  0  0  0
M  END
$$$$

  -OEChem-03222214033D

 28 27  0     1  0  0  0  0  0999 V2000
   -3.1782   -3.8179    1.1941 H   0  0  0  0  0  0  0  0  0  0  0  0
   -3.1460   -2.8402    0.7056 C   0  0  0  0  0  0  0  0  0  0  0  0
   -3.9166   -2.2004    1.1421 H   0  0  0  0  0  0  0  0  0  0  0  0
   -3.3513   -2.9720   -0.3598 H   0  0  0  0  0  0  0  0  0  0  0  0
   -1.7808   -2.2069    0.8906 C   0  0  0  0  0  0  0  0  0  0  0  0
   -0.9153   -2.7859    1.5307 O   0  0  0  0  0  0  0  0  0  0  0  0
   -1.5105   -0.9825    0.3180 N   0  0  0  0  0  0  0  0  0  0  0  0
   -2.2472   -0.5551   -0.2399 H   0  0  0  0  0  0  0  0  0  0  0  0
   -0.2004   -0.3205    0.3343 C   0  0  1  0  0  0  0  0  0  0  0  0
    0.4550   -0.7699    1.0872 H   0  0  0  0  0  0  0  0  0  0  0  0
    0.4278   -0.4759   -1.0631 C   0  0  0  0  0  0  0  0  0  0  0  0
   -0.2845   -0.1729   -1.8392 H   0  0  0  0  0  0  0  0  0  0  0  0
    1.2769    0.2124   -1.1324 H   0  0  0  0  0  0  0  0  0  0  0  0
    0.9593   -1.9085   -1.3115 C   0  0  0  0  0  0  0  0  0  0  0  0
    1.9457   -1.8328   -1.7764 H   0  0  0  0  0  0  0  0  0  0  0  0
    1.0886   -2.4460   -0.3682 H   0  0  0  0  0  0  0  0  0  0  0  0
    0.0903   -2.7616   -2.2390 C   0  0  0  0  0  0  0  0  0  0  0  0
   -1.1091   -2.5554   -2.3252 O   0  0  0  0  0  0  0  0  0  0  0  0
    0.7200   -3.7305   -2.9371 O   0  0  0  0  0  0  0  0  0  0  0  0
    0.0215   -4.1636   -3.4508 H   0  0  0  0  0  0  0  0  0  0  0  0
   -0.3432    1.1735    0.6911 C   0  0  0  0  0  0  0  0  0  0  0  0
   -1.1983    1.8586    0.1427 O   0  0  0  0  0  0  0  0  0  0  0  0
    0.5113    1.7608    1.6061 N   0  0  0  0  0  0  0  0  0  0  0  0
    1.1597    1.1536    2.0993 H   0  0  0  0  0  0  0  0  0  0  0  0
    0.4025    3.1562    2.0149 C   0  0  0  0  0  0  0  0  0  0  0  0
   -0.5640    3.3400    2.4958 H   0  0  0  0  0  0  0  0  0  0  0  0
    1.1965    3.4060    2.7252 H   0  0  0  0  0  0  0  0  0  0  0  0
    0.4958    3.8185    1.1477 H   0  0  0  0  0  0  0  0  0  0  0  0
  1  2  1  0  0  0  0
  2  3  1  0  0  0  0
  2  4  1  0  0  0  0
  2  5  1  0  0  0  0
  5  6  2  0  0  0  0
  5  7  1  0  0  0  0
  7  8  1  0  0  0  0
  7  9  1  0  0  0  0
  9 10  1  0  0  0  0
  9 11  1  0  0  0  0
  9 21  1  0  0  0  0
 11 12  1  0  0  0  0
 11 13  1  0  0  0  0
 11 14  1  0  0  0  0
 14 15  1  0  0  0  0
 14 16  1  0  0  0  0
 14 17  1  0  0  0  0
 17 18  2  0  0  0  0
 17 19  1  0  0  0  0
 19 20  1  0  0  0  0
 21 22  2  0  0  0  0
 21 23  1  0  0  0  0
 23 24  1  0  0  0  0
 23 25  1  0  0  0  0
 25 26  1  0  0  0  0
 25 27  1  0  0  0  0
 25 28  1  0  0  0  0
M  END
$$$$

  -OEChem-03222214033D

 28 27  0     1  0  0  0  0  0999 V2000
   -3.2435   -3.7707    1.2496 H   0  0  0  0  0  0  0  0  0  0  0  0
   -3.1663   -2.8328    0.6929 C   0  0  0  0  0  0  0  0  0  0  0  0
   -3.9529   -2.1546    1.0320 H   0  0  0  0  0  0  0  0  0  0  0  0
   -3.3070   -3.0416   -0.3708 H   0  0  0  0  0  0  0  0  0  0  0  0
   -1.8051   -2.2026    0.9155 C   0  0  0  0  0  0  0  0  0  0  0  0
   -0.9734   -2.7635    1.6135 O   0  0  0  0  0  0  0  0  0  0  0  0
   -1.5043   -0.9953    0.3218 N   0  0  0  0  0  0  0  0  0  0  0  0
   -2.2263   -0.5652   -0.2530 H   0  0  0  0  0  0  0  0  0  0  0  0
   -0.1866   -0.3460    0.3539 C   0  0  1  0  0  0  0  0  0  0  0  0
    0.4536   -0.7894    1.1235 H   0  0  0  0  0  0  0  0  0  0  0  0
    0.4535   -0.5317   -1.0330 C   0  0  0  0  0  0  0  0  0  0  0  0
   -0.2651   -0.2471   -1.8107 H   0  0  0  0  0  0  0  0  0  0  0  0
    1.3044    0.1518   -1.1252 H   0  0  0  0  0  0  0  0  0  0  0  0
    0.9676   -1.9735   -1.2503 C   0  0  0  0  0  0  0  0  0  0  0  0
    2.0449   -1.9460   -1.4346 H   0  0  0  0  0  0  0  0  0  0  0  0
    0.8101   -2.5918   -0.3631 H   0  0  0  0  0  0  0  0  0  0  0  0
    0.2929   -2.6567   -2.4360 C   0  0  0  0  0  0  0  0  0  0  0  0
   -0.9210   -2.7755   -2.4334 O   0  0  0  0  0  0  0  0  0  0  0  0
    1.0775   -3.0920   -3.4452 O   0  0  0  0  0  0  0  0  0  0  0  0
    0.4667   -3.4885   -4.0850 H   0  0  0  0  0  0  0  0  0  0  0  0
   -0.3220    1.1570    0.6723 C   0  0  0  0  0  0  0  0  0  0  0  0
   -1.1585    1.8353    0.0880 O   0  0  0  0  0  0  0  0  0  0  0  0
    0.5161    1.7583    1.5932 N   0  0  0  0  0  0  0  0  0  0  0  0
    1.1494    1.1583    2.1139 H   0  0  0  0  0  0  0  0  0  0  0  0
    0.4142    3.1650    1.9632 C   0  0  0  0  0  0  0  0  0  0  0  0
   -0.5630    3.3736    2.4114 H   0  0  0  0  0  0  0  0  0  0  0  0
    1.1909    3.4227    2.6896 H   0  0  0  0  0  0  0  0  0  0  0  0
    0.5409    3.8034    1.0823 H   0  0  0  0  0  0  0  0  0  0  0  0
  1  2  1  0  0  0  0
  2  3  1  0  0  0  0
  2  4  1  0  0  0  0
  2  5  1  0  0  0  0
  5  6  2  0  0  0  0
  5  7  1  0  0  0  0
  7  8  1  0  0  0  0
  7  9  1  0  0  0  0
  9 10  1  0  0  0  0
  9 11  1  0  0  0  0
  9 21  1  0  0  0  0
 11 12  1  0  0  0  0
 11 13  1  0  0  0  0
 11 14  1  0  0  0  0
 14 15  1  0  0  0  0
 14 16  1  0  0  0  0
 14 17  1  0  0  0  0
 17 18  2  0  0  0  0
 17 19  1  0  0  0  0
 19 20  1  0  0  0  0
 21 22  2  0  0  0  0
 21 23  1  0  0  0  0
 23 24  1  0  0  0  0
 23 25  1  0  0  0  0
 25 26  1  0  0  0  0
 25 27  1  0  0  0  0
 25 28  1  0  0  0  0
M  END
$$$$

  -OEChem-03222214033D

 28 27  0     1  0  0  0  0  0999 V2000
   -3.3167   -3.7286    1.2767 H   0  0  0  0  0  0  0  0  0  0  0  0
   -3.2330   -2.7791    0.7408 C   0  0  0  0  0  0  0  0  0  0  0  0
   -3.9757   -2.0831    1.1378 H   0  0  0  0  0  0  0  0  0  0  0  0
   -3.4356   -2.9538   -0.3189 H   0  0  0  0  0  0  0  0  0  0  0  0
   -1.8400   -2.2038    0.9095 C   0  0  0  0  0  0  0  0  0  0  0  0
   -1.0069   -2.7954    1.5791 O   0  0  0  0  0  0  0  0  0  0  0  0
   -1.5166   -1.0046    0.3106 N   0  0  0  0  0  0  0  0  0  0  0  0
   -2.2528   -0.5231   -0.2030 H   0  0  0  0  0  0  0  0  0  0  0  0
   -0.1895   -0.3715    0.3403 C   0  0  1  0  0  0  0  0  0  0  0  0
    0.4413   -0.8198    1.1149 H   0  0  0  0  0  0  0  0  0  0  0  0
    0.4692   -0.5606   -1.0384 C   0  0  0  0  0  0  0  0  0  0  0  0
   -0.2575   -0.2872   -1.8127 H   0  0  0  0  0  0  0  0  0  0  0  0
    1.3164    0.1261   -1.1417 H   0  0  0  0  0  0  0  0  0  0  0  0
    0.9787   -2.0019   -1.2580 C   0  0  0  0  0  0  0  0  0  0  0  0
    2.0654   -2.0301   -1.1425 H   0  0  0  0  0  0  0  0  0  0  0  0
    0.5591   -2.6871   -0.5183 H   0  0  0  0  0  0  0  0  0  0  0  0
    0.6058   -2.5285   -2.6378 C   0  0  0  0  0  0  0  0  0  0  0  0
   -0.5603   -2.8044   -2.8596 O   0  0  0  0  0  0  0  0  0  0  0  0
    1.5848   -2.6463   -3.5598 O   0  0  0  0  0  0  0  0  0  0  0  0
    1.1423   -2.9871   -4.3521 H   0  0  0  0  0  0  0  0  0  0  0  0
   -0.3124    1.1344    0.6502 C   0  0  0  0  0  0  0  0  0  0  0  0
   -1.1573    1.8118    0.0768 O   0  0  0  0  0  0  0  0  0  0  0  0
    0.5298    1.7328    1.5693 N   0  0  0  0  0  0  0  0  0  0  0  0
    1.1649    1.1306    2.0854 H   0  0  0  0  0  0  0  0  0  0  0  0
    0.4287    3.1377    1.9463 C   0  0  0  0  0  0  0  0  0  0  0  0
   -0.5402    3.3397    2.4149 H   0  0  0  0  0  0  0  0  0  0  0  0
    1.2187    3.3966    2.6579 H   0  0  0  0  0  0  0  0  0  0  0  0
    0.5343    3.7799    1.0655 H   0  0  0  0  0  0  0  0  0  0  0  0
  1  2  1  0  0  0  0
  2  3  1  0  0  0  0
  2  4  1  0  0  0  0
  2  5  1  0  0  0  0
  5  6  2  0  0  0  0
  5  7  1  0  0  0  0
  7  8  1  0  0  0  0
  7  9  1  0  0  0  0
  9 10  1  0  0  0  0
  9 11  1  0  0  0  0
  9 21  1  0  0  0  0
 11 12  1  0  0  0  0
 11 13  1  0  0  0  0
 11 14  1  0  0  0  0
 14 15  1  0  0  0  0
 14 16  1  0  0  0  0
 14 17  1  0  0  0  0
 17 18  2  0  0  0  0
 17 19  1  0  0  0  0
 19 20  1  0  0  0  0
 21 22  2  0  0  0  0
 21 23  1  0  0  0  0
 23 24  1  0  0  0  0
 23 25  1  0  0  0  0
 25 26  1  0  0  0  0
 25 27  1  0  0  0  0
 25 28  1  0  0  0  0
M  END
$$$$

  -OEChem-03222214033D

 28 27  0     1  0  0  0  0  0999 V2000
   -3.1525   -3.8323    1.2381 H   0  0  0  0  0  0  0  0  0  0  0  0
   -3.1240   -2.8488    0.7610 C   0  0  0  0  0  0  0  0  0  0  0  0
   -3.8286   -2.1883    1.2721 H   0  0  0  0  0  0  0  0  0  0  0  0
   -3.4269   -2.9556   -0.2835 H   0  0  0  0  0  0  0  0  0  0  0  0
   -1.7235   -2.2718    0.8365 C   0  0  0  0  0  0  0  0  0  0  0  0
   -0.8375   -2.8854    1.4103 O   0  0  0  0  0  0  0  0  0  0  0  0
   -1.4551   -1.0461    0.2646 N   0  0  0  0  0  0  0  0  0  0  0  0
   -2.2436   -0.5213   -0.1118 H   0  0  0  0  0  0  0  0  0  0  0  0
   -0.1561   -0.3569    0.3064 C   0  0  1  0  0  0  0  0  0  0  0  0
    0.4885   -0.7914    1.0778 H   0  0  0  0  0  0  0  0  0  0  0  0
    0.5374   -0.4685   -1.0640 C   0  0  0  0  0  0  0  0  0  0  0  0
   -0.1965   -0.2219   -1.8403 H   0  0  0  0  0  0  0  0  0  0  0  0
    1.3450    0.2680   -1.1407 H   0  0  0  0  0  0  0  0  0  0  0  0
    1.1259   -1.8713   -1.3242 C   0  0  0  0  0  0  0  0  0  0  0  0
    2.1420   -1.9340   -0.9273 H   0  0  0  0  0  0  0  0  0  0  0  0
    0.5310   -2.6337   -0.8175 H   0  0  0  0  0  0  0  0  0  0  0  0
    1.1384   -2.2197   -2.8085 C   0  0  0  0  0  0  0  0  0  0  0  0
    1.6698   -1.4438   -3.5830 O   0  0  0  0  0  0  0  0  0  0  0  0
    0.5516   -3.3711   -3.2002 O   0  0  0  0  0  0  0  0  0  0  0  0
    0.6710   -3.3982   -4.1617 H   0  0  0  0  0  0  0  0  0  0  0  0
   -0.3596    1.1326    0.6528 C   0  0  0  0  0  0  0  0  0  0  0  0
   -1.2783    1.7582    0.1361 O   0  0  0  0  0  0  0  0  0  0  0  0
    0.4484    1.7570    1.5850 N   0  0  0  0  0  0  0  0  0  0  0  0
    1.1608    1.1965    2.0441 H   0  0  0  0  0  0  0  0  0  0  0  0
    0.2722    3.1462    1.9916 C   0  0  0  0  0  0  0  0  0  0  0  0
   -0.6976    3.2817    2.4815 H   0  0  0  0  0  0  0  0  0  0  0  0
    1.0592    3.4382    2.6935 H   0  0  0  0  0  0  0  0  0  0  0  0
    0.3234    3.8102    1.1221 H   0  0  0  0  0  0  0  0  0  0  0  0
  1  2  1  0  0  0  0
  2  3  1  0  0  0  0
  2  4  1  0  0  0  0
  2  5  1  0  0  0  0
  5  6  2  0  0  0  0
  5  7  1  0  0  0  0
  7  8  1  0  0  0  0
  7  9  1  0  0  0  0
  9 10  1  0  0  0  0
  9 11  1  0  0  0  0
  9 21  1  0  0  0  0
 11 12  1  0  0  0  0
 11 13  1  0  0  0  0
 11 14  1  0  0  0  0
 14 15  1  0  0  0  0
 14 16  1  0  0  0  0
 14 17  1  0  0  0  0
 17 18  2  0  0  0  0
 17 19  1  0  0  0  0
 19 20  1  0  0  0  0
 21 22  2  0  0  0  0
 21 23  1  0  0  0  0
 23 24  1  0  0  0  0
 23 25  1  0  0  0  0
 25 26  1  0  0  0  0
 25 27  1  0  0  0  0
 25 28  1  0  0  0  0
M  END
$$$$

  -OEChem-03222214033D

 28 27  0     1  0  0  0  0  0999 V2000
   -3.1882   -3.7905    1.2581 H   0  0  0  0  0  0  0  0  0  0  0  0
   -3.1577   -2.8020    0.7915 C   0  0  0  0  0  0  0  0  0  0  0  0
   -3.8232   -2.1316    1.3406 H   0  0  0  0  0  0  0  0  0  0  0  0
   -3.5089   -2.8885   -0.2396 H   0  0  0  0  0  0  0  0  0  0  0  0
   -1.7423   -2.2573    0.8124 C   0  0  0  0  0  0  0  0  0  0  0  0
   -0.8442   -2.9011    1.3318 O   0  0  0  0  0  0  0  0  0  0  0  0
   -1.4722   -1.0278    0.2496 N   0  0  0  0  0  0  0  0  0  0  0  0
   -2.2652   -0.4789   -0.0805 H   0  0  0  0  0  0  0  0  0  0  0  0
   -0.1678   -0.3492    0.2908 C   0  0  1  0  0  0  0  0  0  0  0  0
    0.4748   -0.7943    1.0577 H   0  0  0  0  0  0  0  0  0  0  0  0
    0.5235   -0.4574   -1.0800 C   0  0  0  0  0  0  0  0  0  0  0  0
   -0.2001   -0.2003   -1.8621 H   0  0  0  0  0  0  0  0  0  0  0  0
    1.3409    0.2696   -1.1421 H   0  0  0  0  0  0  0  0  0  0  0  0
    1.0974   -1.8662   -1.3387 C   0  0  0  0  0  0  0  0  0  0  0  0
    1.9846   -2.0297   -0.7223 H   0  0  0  0  0  0  0  0  0  0  0  0
    0.3597   -2.6230   -1.0622 H   0  0  0  0  0  0  0  0  0  0  0  0
    1.4577   -2.1017   -2.8035 C   0  0  0  0  0  0  0  0  0  0  0  0
    1.8731   -1.1713   -3.4721 O   0  0  0  0  0  0  0  0  0  0  0  0
    1.3032   -3.3504   -3.2929 O   0  0  0  0  0  0  0  0  0  0  0  0
    1.5837   -3.2938   -4.2190 H   0  0  0  0  0  0  0  0  0  0  0  0
   -0.3615    1.1380    0.6528 C   0  0  0  0  0  0  0  0  0  0  0  0
   -1.2884    1.7690    0.1576 O   0  0  0  0  0  0  0  0  0  0  0  0
    0.4541    1.7496    1.5868 N   0  0  0  0  0  0  0  0  0  0  0  0
    1.1750    1.1849    2.0270 H   0  0  0  0  0  0  0  0  0  0  0  0
    0.2811    3.1330    2.0143 C   0  0  0  0  0  0  0  0  0  0  0  0
   -0.6874    3.2628    2.5089 H   0  0  0  0  0  0  0  0  0  0  0  0
    1.0703    3.4133    2.7186 H   0  0  0  0  0  0  0  0  0  0  0  0
    0.3310    3.8098    1.1546 H   0  0  0  0  0  0  0  0  0  0  0  0
  1  2  1  0  0  0  0
  2  3  1  0  0  0  0
  2  4  1  0  0  0  0
  2  5  1  0  0  0  0
  5  6  2  0  0  0  0
  5  7  1  0  0  0  0
  7  8  1  0  0  0  0
  7  9  1  0  0  0  0
  9 10  1  0  0  0  0
  9 11  1  0  0  0  0
  9 21  1  0  0  0  0
 11 12  1  0  0  0  0
 11 13  1  0  0  0  0
 11 14  1  0  0  0  0
 14 15  1  0  0  0  0
 14 16  1  0  0  0  0
 14 17  1  0  0  0  0
 17 18  2  0  0  0  0
 17 19  1  0  0  0  0
 19 20  1  0  0  0  0
 21 22  2  0  0  0  0
 21 23  1  0  0  0  0
 23 24  1  0  0  0  0
 23 25  1  0  0  0  0
 25 26  1  0  0  0  0
 25 27  1  0  0  0  0
 25 28  1  0  0  0  0
M  END
$$$$

  -OEChem-03222214033D

 28 27  0     1  0  0  0  0  0999 V2000
   -3.2240   -3.7679    1.2852 H   0  0  0  0  0  0  0  0  0  0  0  0
   -3.1967   -2.7735    0.8310 C   0  0  0  0  0  0  0  0  0  0  0  0
   -3.8295   -2.1013    1.4156 H   0  0  0  0  0  0  0  0  0  0  0  0
   -3.5901   -2.8401   -0.1862 H   0  0  0  0  0  0  0  0  0  0  0  0
   -1.7734   -2.2505    0.8021 C   0  0  0  0  0  0  0  0  0  0  0  0
   -0.8636   -2.9187    1.2672 O   0  0  0  0  0  0  0  0  0  0  0  0
   -1.5074   -1.0185    0.2427 N   0  0  0  0  0  0  0  0  0  0  0  0
   -2.3058   -0.4531   -0.0439 H   0  0  0  0  0  0  0  0  0  0  0  0
   -0.1994   -0.3456    0.2715 C   0  0  1  0  0  0  0  0  0  0  0  0
    0.4361   -0.8021    1.0376 H   0  0  0  0  0  0  0  0  0  0  0  0
    0.5084   -0.4652   -1.0901 C   0  0  0  0  0  0  0  0  0  0  0  0
   -0.1017    0.0246   -1.8577 H   0  0  0  0  0  0  0  0  0  0  0  0
    1.4649    0.0670   -1.0405 H   0  0  0  0  0  0  0  0  0  0  0  0
    0.7635   -1.9307   -1.5043 C   0  0  0  0  0  0  0  0  0  0  0  0
    1.3701   -2.4291   -0.7438 H   0  0  0  0  0  0  0  0  0  0  0  0
   -0.1864   -2.4657   -1.5724 H   0  0  0  0  0  0  0  0  0  0  0  0
    1.4665   -2.0725   -2.8533 C   0  0  0  0  0  0  0  0  0  0  0  0
    2.0865   -1.1303   -3.3158 O   0  0  0  0  0  0  0  0  0  0  0  0
    1.3667   -3.2652   -3.4771 O   0  0  0  0  0  0  0  0  0  0  0  0
    1.8719   -3.1619   -4.2978 H   0  0  0  0  0  0  0  0  0  0  0  0
   -0.3700    1.1415    0.6436 C   0  0  0  0  0  0  0  0  0  0  0  0
   -1.3084    1.7795    0.1801 O   0  0  0  0  0  0  0  0  0  0  0  0
    0.4663    1.7386    1.5686 N   0  0  0  0  0  0  0  0  0  0  0  0
    1.2036    1.1703    1.9758 H   0  0  0  0  0  0  0  0  0  0  0  0
    0.3051    3.1157    2.0198 C   0  0  0  0  0  0  0  0  0  0  0  0
   -0.6600    3.2439    2.5213 H   0  0  0  0  0  0  0  0  0  0  0  0
    1.0993    3.3784    2.7252 H   0  0  0  0  0  0  0  0  0  0  0  0
    0.3554    3.8064    1.1714 H   0  0  0  0  0  0  0  0  0  0  0  0
  1  2  1  0  0  0  0
  2  3  1  0  0  0  0
  2  4  1  0  0  0  0
  2  5  1  0  0  0  0
  5  6  2  0  0  0  0
  5  7  1  0  0  0  0
  7  8  1  0  0  0  0
  7  9  1  0  0  0  0
  9 10  1  0  0  0  0
  9 11  1  0  0  0  0
  9 21  1  0  0  0  0
 11 12  1  0  0  0  0
 11 13  1  0  0  0  0
 11 14  1  0  0  0  0
 14 15  1  0  0  0  0
 14 16  1  0  0  0  0
 14 17  1  0  0  0  0
 17 18  2  0  0  0  0
 17 19  1  0  0  0  0
 19 20  1  0  0  0  0
 21 22  2  0  0  0  0
 21 23  1  0  0  0  0
 23 24  1  0  0  0  0
 23 25  1  0  0  0  0
 25 26  1  0  0  0  0
 25 27  1  0  0  0  0
 25 28  1  0  0  0  0
M  END
$$$$

  -OEChem-03222214033D

 28 27  0     1  0  0  0  0  0999 V2000
   -3.2326   -3.7562    1.3012 H   0  0  0  0  0  0  0  0  0  0  0  0
   -3.2014   -2.7785    0.8122 C   0  0  0  0  0  0  0  0  0  0  0  0
   -3.8472   -2.0895    1.3620 H   0  0  0  0  0  0  0  0  0  0  0  0
   -3.5769   -2.8835   -0.2086 H   0  0  0  0  0  0  0  0  0  0  0  0
   -1.7796   -2.2506    0.7895 C   0  0  0  0  0  0  0  0  0  0  0  0
   -0.8701   -2.9203    1.2524 O   0  0  0  0  0  0  0  0  0  0  0  0
   -1.5158   -1.0118    0.2445 N   0  0  0  0  0  0  0  0  0  0  0  0
   -2.3149   -0.4452   -0.0375 H   0  0  0  0  0  0  0  0  0  0  0  0
   -0.2069   -0.3407    0.2736 C   0  0  1  0  0  0  0  0  0  0  0  0
    0.4366   -0.8090    1.0259 H   0  0  0  0  0  0  0  0  0  0  0  0
    0.4780   -0.4444   -1.1002 C   0  0  0  0  0  0  0  0  0  0  0  0
   -0.1265    0.0646   -1.8595 H   0  0  0  0  0  0  0  0  0  0  0  0
    1.4396    0.0777   -1.0408 H   0  0  0  0  0  0  0  0  0  0  0  0
    0.7178   -1.9079   -1.5323 C   0  0  0  0  0  0  0  0  0  0  0  0
    1.1185   -2.4742   -0.6868 H   0  0  0  0  0  0  0  0  0  0  0  0
   -0.2310   -2.3680   -1.8184 H   0  0  0  0  0  0  0  0  0  0  0  0
    1.6989   -2.0657   -2.6940 C   0  0  0  0  0  0  0  0  0  0  0  0
    2.1473   -1.0803   -3.2546 O   0  0  0  0  0  0  0  0  0  0  0  0
    2.0246   -3.3257   -3.0508 O   0  0  0  0  0  0  0  0  0  0  0  0
    2.6431   -3.2251   -3.7902 H   0  0  0  0  0  0  0  0  0  0  0  0
   -0.3679    1.1420    0.6656 C   0  0  0  0  0  0  0  0  0  0  0  0
   -1.2994    1.7938    0.2077 O   0  0  0  0  0  0  0  0  0  0  0  0
    0.4778    1.7232    1.5921 N   0  0  0  0  0  0  0  0  0  0  0  0
    1.2151    1.1466    1.9874 H   0  0  0  0  0  0  0  0  0  0  0  0
    0.3479    3.1063    2.0350 C   0  0  0  0  0  0  0  0  0  0  0  0
   -0.6320    3.2711    2.4954 H   0  0  0  0  0  0  0  0  0  0  0  0
    1.1204    3.3419    2.7733 H   0  0  0  0  0  0  0  0  0  0  0  0
    0.4591    3.7916    1.1880 H   0  0  0  0  0  0  0  0  0  0  0  0
  1  2  1  0  0  0  0
  2  3  1  0  0  0  0
  2  4  1  0  0  0  0
  2  5  1  0  0  0  0
  5  6  2  0  0  0  0
  5  7  1  0  0  0  0
  7  8  1  0  0  0  0
  7  9  1  0  0  0  0
  9 10  1  0  0  0  0
  9 11  1  0  0  0  0
  9 21  1  0  0  0  0
 11 12  1  0  0  0  0
 11 13  1  0  0  0  0
 11 14  1  0  0  0  0
 14 15  1  0  0  0  0
 14 16  1  0  0  0  0
 14 17  1  0  0  0  0
 17 18  2  0  0  0  0
 17 19  1  0  0  0  0
 19 20  1  0  0  0  0
 21 22  2  0  0  0  0
 21 23  1  0  0  0  0
 23 24  1  0  0  0  0
 23 25  1  0  0  0  0
 25 26  1  0  0  0  0
 25 27  1  0  0  0  0
 25 28  1  0  0  0  0
M  END
$$$$

  -OEChem-03222214033D

 28 27  0     1  0  0  0  0  0999 V2000
   -3.2376   -3.7607    1.2779 H   0  0  0  0  0  0  0  0  0  0  0  0
   -3.1985   -2.7812    0.7931 C   0  0  0  0  0  0  0  0  0  0  0  0
   -3.8576   -2.0956    1.3310 H   0  0  0  0  0  0  0  0  0  0  0  0
   -3.5516   -2.8832   -0.2358 H   0  0  0  0  0  0  0  0  0  0  0  0
   -1.7780   -2.2494    0.8019 C   0  0  0  0  0  0  0  0  0  0  0  0
   -0.8800   -2.9112    1.2971 O   0  0  0  0  0  0  0  0  0  0  0  0
   -1.5055   -1.0125    0.2564 N   0  0  0  0  0  0  0  0  0  0  0  0
   -2.2996   -0.4511   -0.0487 H   0  0  0  0  0  0  0  0  0  0  0  0
   -0.1958   -0.3427    0.2874 C   0  0  1  0  0  0  0  0  0  0  0  0
    0.4507   -0.8117    1.0364 H   0  0  0  0  0  0  0  0  0  0  0  0
    0.4787   -0.4392   -1.0929 C   0  0  0  0  0  0  0  0  0  0  0  0
   -0.1218    0.0809   -1.8476 H   0  0  0  0  0  0  0  0  0  0  0  0
    1.4382    0.0847   -1.0214 H   0  0  0  0  0  0  0  0  0  0  0  0
    0.7164   -1.8996   -1.5448 C   0  0  0  0  0  0  0  0  0  0  0  0
    0.8842   -2.5258   -0.6645 H   0  0  0  0  0  0  0  0  0  0  0  0
   -0.1749   -2.2772   -2.0519 H   0  0  0  0  0  0  0  0  0  0  0  0
    1.9299   -2.1018   -2.4537 C   0  0  0  0  0  0  0  0  0  0  0  0
    2.4951   -1.1396   -2.9442 O   0  0  0  0  0  0  0  0  0  0  0  0
    2.3138   -3.3750   -2.6843 O   0  0  0  0  0  0  0  0  0  0  0  0
    3.0782   -3.3043   -3.2759 H   0  0  0  0  0  0  0  0  0  0  0  0
   -0.3609    1.1405    0.6766 C   0  0  0  0  0  0  0  0  0  0  0  0
   -1.2881    1.7912    0.2083 O   0  0  0  0  0  0  0  0  0  0  0  0
    0.4797    1.7265    1.6046 N   0  0  0  0  0  0  0  0  0  0  0  0
    1.2138    1.1516    2.0085 H   0  0  0  0  0  0  0  0  0  0  0  0
    0.3458    3.1116    2.0400 C   0  0  0  0  0  0  0  0  0  0  0  0
   -0.6376    3.2785    2.4920 H   0  0  0  0  0  0  0  0  0  0  0  0
    1.1124    3.3513    2.7831 H   0  0  0  0  0  0  0  0  0  0  0  0
    0.4631    3.7924    1.1903 H   0  0  0  0  0  0  0  0  0  0  0  0
  1  2  1  0  0  0  0
  2  3  1  0  0  0  0
  2  4  1  0  0  0  0
  2  5  1  0  0  0  0
  5  6  2  0  0  0  0
  5  7  1  0  0  0  0
  7  8  1  0  0  0  0
  7  9  1  0  0  0  0
  9 10  1  0  0  0  0
  9 11  1  0  0  0  0
  9 21  1  0  0  0  0
 11 12  1  0  0  0  0
 11 13  1  0  0  0  0
 11 14  1  0  0  0  0
 14 15  1  0  0  0  0
 14 16  1  0  0  0  0
 14 17  1  0  0  0  0
 17 18  2  0  0  0  0
 17 19  1  0  0  0  0
 19 20  1  0  0  0  0
 21 22  2  0  0  0  0
 21 23  1  0  0  0  0
 23 24  1  0  0  0  0
 23 25  1  0  0  0  0
 25 26  1  0  0  0  0
 25 27  1  0  0  0  0
 25 28  1  0  0  0  0
M  END
$$$$

  -OEChem-03222214033D

 28 27  0     1  0  0  0  0  0999 V2000
   -3.2451   -3.7631    1.2763 H   0  0  0  0  0  0  0  0  0  0  0  0
   -3.2014   -2.7839    0.7912 C   0  0  0  0  0  0  0  0  0  0  0  0
   -3.8689   -2.0990    1.3196 H   0  0  0  0  0  0  0  0  0  0  0  0
   -3.5402   -2.8876   -0.2424 H   0  0  0  0  0  0  0  0  0  0  0  0
   -1.7823   -2.2494    0.8196 C   0  0  0  0  0  0  0  0  0  0  0  0
   -0.8952   -2.8999    1.3481 O   0  0  0  0  0  0  0  0  0  0  0  0
   -1.5036   -1.0161    0.2686 N   0  0  0  0  0  0  0  0  0  0  0  0
   -2.2943   -0.4609   -0.0561 H   0  0  0  0  0  0  0  0  0  0  0  0
   -0.1939   -0.3453    0.2997 C   0  0  1  0  0  0  0  0  0  0  0  0
    0.4523   -0.8114    1.0513 H   0  0  0  0  0  0  0  0  0  0  0  0
    0.4872   -0.4338   -1.0794 C   0  0  0  0  0  0  0  0  0  0  0  0
   -0.1201    0.0848   -1.8294 H   0  0  0  0  0  0  0  0  0  0  0  0
    1.4340    0.1106   -1.0032 H   0  0  0  0  0  0  0  0  0  0  0  0
    0.7388   -1.8890   -1.5535 C   0  0  0  0  0  0  0  0  0  0  0  0
    0.6423   -2.5698   -0.7053 H   0  0  0  0  0  0  0  0  0  0  0  0
   -0.0233   -2.1697   -2.2845 H   0  0  0  0  0  0  0  0  0  0  0  0
    2.1205   -2.1646   -2.1519 C   0  0  0  0  0  0  0  0  0  0  0  0
    2.8605   -1.2434   -2.4511 O   0  0  0  0  0  0  0  0  0  0  0  0
    2.4497   -3.4597   -2.3411 O   0  0  0  0  0  0  0  0  0  0  0  0
    3.3395   -3.4391   -2.7248 H   0  0  0  0  0  0  0  0  0  0  0  0
   -0.3637    1.1396    0.6796 C   0  0  0  0  0  0  0  0  0  0  0  0
   -1.2867    1.7882    0.1998 O   0  0  0  0  0  0  0  0  0  0  0  0
    0.4734    1.7304    1.6075 N   0  0  0  0  0  0  0  0  0  0  0  0
    1.2086    1.1581    2.0135 H   0  0  0  0  0  0  0  0  0  0  0  0
    0.3374    3.1165    2.0384 C   0  0  0  0  0  0  0  0  0  0  0  0
   -0.6468    3.2835    2.4891 H   0  0  0  0  0  0  0  0  0  0  0  0
    1.1031    3.3591    2.7816 H   0  0  0  0  0  0  0  0  0  0  0  0
    0.4548    3.7953    1.1870 H   0  0  0  0  0  0  0  0  0  0  0  0
  1  2  1  0  0  0  0
  2  3  1  0  0  0  0
  2  4  1  0  0  0  0
  2  5  1  0  0  0  0
  5  6  2  0  0  0  0
  5  7  1  0  0  0  0
  7  8  1  0  0  0  0
  7  9  1  0  0  0  0
  9 10  1  0  0  0  0
  9 11  1  0  0  0  0
  9 21  1  0  0  0  0
 11 12  1  0  0  0  0
 11 13  1  0  0  0  0
 11 14  1  0  0  0  0
 14 15  1  0  0  0  0
 14 16  1  0  0  0  0
 14 17  1  0  0  0  0
 17 18  2  0  0  0  0
 17 19  1  0  0  0  0
 19 20  1  0  0  0  0
 21 22  2  0  0  0  0
 21 23  1  0  0  0  0
 23 24  1  0  0  0  0
 23 25  1  0  0  0  0
 25 26  1  0  0  0  0
 25 27  1  0  0  0  0
 25 28  1  0  0  0  0
M  END
$$$$

  -OEChem-03222214033D

 28 27  0     1  0  0  0  0  0999 V2000
   -3.3343   -3.7109    1.3526 H   0  0  0  0  0  0  0  0  0  0  0  0
   -3.2659   -2.7386    0.8565 C   0  0  0  0  0  0  0  0  0  0  0  0
   -3.9143   -2.0303    1.3779 H   0  0  0  0  0  0  0  0  0  0  0  0
   -3.6085   -2.8447   -0.1756 H   0  0  0  0  0  0  0  0  0  0  0  0
   -1.8337   -2.2403    0.8778 C   0  0  0  0  0  0  0  0  0  0  0  0
   -0.9684   -2.8940    1.4366 O   0  0  0  0  0  0  0  0  0  0  0  0
   -1.5233   -1.0331    0.2877 N   0  0  0  0  0  0  0  0  0  0  0  0
   -2.3018   -0.4738   -0.0586 H   0  0  0  0  0  0  0  0  0  0  0  0
   -0.2048   -0.3776    0.3145 C   0  0  1  0  0  0  0  0  0  0  0  0
    0.4206   -0.8253    1.0948 H   0  0  0  0  0  0  0  0  0  0  0  0
    0.5160   -0.5193   -1.0406 C   0  0  0  0  0  0  0  0  0  0  0  0
   -0.0954   -0.0388   -1.8125 H   0  0  0  0  0  0  0  0  0  0  0  0
    1.4582    0.0380   -0.9976 H   0  0  0  0  0  0  0  0  0  0  0  0
    0.7756   -1.9848   -1.4673 C   0  0  0  0  0  0  0  0  0  0  0  0
    0.3867   -2.6879   -0.7303 H   0  0  0  0  0  0  0  0  0  0  0  0
    0.2547   -2.1791   -2.4085 H   0  0  0  0  0  0  0  0  0  0  0  0
    2.2563   -2.3072   -1.6546 C   0  0  0  0  0  0  0  0  0  0  0  0
    3.0612   -1.9106   -0.8290 O   0  0  0  0  0  0  0  0  0  0  0  0
    2.6075   -3.0238   -2.7438 O   0  0  0  0  0  0  0  0  0  0  0  0
    3.5687   -3.1290   -2.6749 H   0  0  0  0  0  0  0  0  0  0  0  0
   -0.3604    1.1221    0.6359 C   0  0  0  0  0  0  0  0  0  0  0  0
   -1.2680    1.7639    0.1185 O   0  0  0  0  0  0  0  0  0  0  0  0
    0.4713    1.7347    1.5541 N   0  0  0  0  0  0  0  0  0  0  0  0
    1.1884    1.1641    1.9943 H   0  0  0  0  0  0  0  0  0  0  0  0
    0.3376    3.1317    1.9485 C   0  0  0  0  0  0  0  0  0  0  0  0
   -0.6264    3.3003    2.4400 H   0  0  0  0  0  0  0  0  0  0  0  0
    1.1347    3.4057    2.6463 H   0  0  0  0  0  0  0  0  0  0  0  0
    0.4061    3.7862    1.0731 H   0  0  0  0  0  0  0  0  0  0  0  0
  1  2  1  0  0  0  0
  2  3  1  0  0  0  0
  2  4  1  0  0  0  0
  2  5  1  0  0  0  0
  5  6  2  0  0  0  0
  5  7  1  0  0  0  0
  7  8  1  0  0  0  0
  7  9  1  0  0  0  0
  9 10  1  0  0  0  0
  9 11  1  0  0  0  0
  9 21  1  0  0  0  0
 11 12  1  0  0  0  0
 11 13  1  0  0  0  0
 11 14  1  0  0  0  0
 14 15  1  0  0  0  0
 14 16  1  0  0  0  0
 14 17  1  0  0  0  0
 17 18  2  0  0  0  0
 17 19  1  0  0  0  0
 19 20  1  0  0  0  0
 21 22  2  0  0  0  0
 21 23  1  0  0  0  0
 23 24  1  0  0  0  0
 23 25  1  0  0  0  0
 25 26  1  0  0  0  0
 25 27  1  0  0  0  0
 25 28  1  0  0  0  0
M  END
$$$$

  -OEChem-03222214033D

 28 27  0     1  0  0  0  0  0999 V2000
   -3.3357   -3.6987    1.3639 H   0  0  0  0  0  0  0  0  0  0  0  0
   -3.2709   -2.7271    0.8660 C   0  0  0  0  0  0  0  0  0  0  0  0
   -3.9034   -2.0146    1.4012 H   0  0  0  0  0  0  0  0  0  0  0  0
   -3.6367   -2.8311   -0.1583 H   0  0  0  0  0  0  0  0  0  0  0  0
   -1.8346   -2.2388    0.8566 C   0  0  0  0  0  0  0  0  0  0  0  0
   -0.9580   -2.9118    1.3735 O   0  0  0  0  0  0  0  0  0  0  0  0
   -1.5301   -1.0247    0.2767 N   0  0  0  0  0  0  0  0  0  0  0  0
   -2.3136   -0.4526   -0.0355 H   0  0  0  0  0  0  0  0  0  0  0  0
   -0.2106   -0.3699    0.3009 C   0  0  1  0  0  0  0  0  0  0  0  0
    0.4163   -0.8244    1.0763 H   0  0  0  0  0  0  0  0  0  0  0  0
    0.5164   -0.4976   -1.0528 C   0  0  0  0  0  0  0  0  0  0  0  0
   -0.1149   -0.0253   -1.8135 H   0  0  0  0  0  0  0  0  0  0  0  0
    1.4507    0.0742   -1.0271 H   0  0  0  0  0  0  0  0  0  0  0  0
    0.7833   -1.9575   -1.4950 C   0  0  0  0  0  0  0  0  0  0  0  0
    0.1530   -2.6674   -0.9603 H   0  0  0  0  0  0  0  0  0  0  0  0
    0.5349   -2.0457   -2.5558 H   0  0  0  0  0  0  0  0  0  0  0  0
    2.2392   -2.3933   -1.3317 C   0  0  0  0  0  0  0  0  0  0  0  0
    2.9283   -1.8872   -0.4615 O   0  0  0  0  0  0  0  0  0  0  0  0
    2.6992   -3.3377   -2.1798 O   0  0  0  0  0  0  0  0  0  0  0  0
    3.6177   -3.4899   -1.9099 H   0  0  0  0  0  0  0  0  0  0  0  0
   -0.3640    1.1263    0.6399 C   0  0  0  0  0  0  0  0  0  0  0  0
   -1.2818    1.7708    0.1441 O   0  0  0  0  0  0  0  0  0  0  0  0
    0.4739    1.7296    1.5587 N   0  0  0  0  0  0  0  0  0  0  0  0
    1.2051    1.1586    1.9748 H   0  0  0  0  0  0  0  0  0  0  0  0
    0.3331    3.1181    1.9803 C   0  0  0  0  0  0  0  0  0  0  0  0
   -0.6479    3.2816    2.4389 H   0  0  0  0  0  0  0  0  0  0  0  0
    1.1038    3.3707    2.7149 H   0  0  0  0  0  0  0  0  0  0  0  0
    0.4384    3.7919    1.1234 H   0  0  0  0  0  0  0  0  0  0  0  0
  1  2  1  0  0  0  0
  2  3  1  0  0  0  0
  2  4  1  0  0  0  0
  2  5  1  0  0  0  0
  5  6  2  0  0  0  0
  5  7  1  0  0  0  0
  7  8  1  0  0  0  0
  7  9  1  0  0  0  0
  9 10  1  0  0  0  0
  9 11  1  0  0  0  0
  9 21  1  0  0  0  0
 11 12  1  0  0  0  0
 11 13  1  0  0  0  0
 11 14  1  0  0  0  0
 14 15  1  0  0  0  0
 14 16  1  0  0  0  0
 14 17  1  0  0  0  0
 17 18  2  0  0  0  0
 17 19  1  0  0  0  0
 19 20  1  0  0  0  0
 21 22  2  0  0  0  0
 21 23  1  0  0  0  0
 23 24  1  0  0  0  0
 23 25  1  0  0  0  0
 25 26  1  0  0  0  0
 25 27  1  0  0  0  0
 25 28  1  0  0  0  0
M  END
$$$$

  -OEChem-03222214033D

 28 27  0     1  0  0  0  0  0999 V2000
   -3.3010   -3.7237    1.3456 H   0  0  0  0  0  0  0  0  0  0  0  0
   -3.2521   -2.7499    0.8505 C   0  0  0  0  0  0  0  0  0  0  0  0
   -3.8835   -2.0453    1.3971 H   0  0  0  0  0  0  0  0  0  0  0  0
   -3.6311   -2.8535   -0.1690 H   0  0  0  0  0  0  0  0  0  0  0  0
   -1.8210   -2.2485    0.8223 C   0  0  0  0  0  0  0  0  0  0  0  0
   -0.9257   -2.9314    1.2921 O   0  0  0  0  0  0  0  0  0  0  0  0
   -1.5378   -1.0206    0.2610 N   0  0  0  0  0  0  0  0  0  0  0  0
   -2.3312   -0.4470   -0.0220 H   0  0  0  0  0  0  0  0  0  0  0  0
   -0.2241   -0.3553    0.2893 C   0  0  1  0  0  0  0  0  0  0  0  0
    0.4047   -0.8169    1.0587 H   0  0  0  0  0  0  0  0  0  0  0  0
    0.5061   -0.4652   -1.0640 C   0  0  0  0  0  0  0  0  0  0  0  0
   -0.1303    0.0048   -1.8218 H   0  0  0  0  0  0  0  0  0  0  0  0
    1.4392    0.1088   -1.0373 H   0  0  0  0  0  0  0  0  0  0  0  0
    0.7814   -1.9211   -1.5079 C   0  0  0  0  0  0  0  0  0  0  0  0
   -0.0164   -2.5967   -1.1988 H   0  0  0  0  0  0  0  0  0  0  0  0
    0.8103   -1.9431   -2.6002 H   0  0  0  0  0  0  0  0  0  0  0  0
    2.1205   -2.4766   -1.0200 C   0  0  0  0  0  0  0  0  0  0  0  0
    2.7608   -1.8754   -0.1723 O   0  0  0  0  0  0  0  0  0  0  0  0
    2.5395   -3.6329   -1.5763 O   0  0  0  0  0  0  0  0  0  0  0  0
    3.3739   -3.8373   -1.1278 H   0  0  0  0  0  0  0  0  0  0  0  0
   -0.3784    1.1334    0.6558 C   0  0  0  0  0  0  0  0  0  0  0  0
   -1.2995    1.7856    0.1769 O   0  0  0  0  0  0  0  0  0  0  0  0
    0.4661    1.7207    1.5789 N   0  0  0  0  0  0  0  0  0  0  0  0
    1.2108    1.1468    1.9670 H   0  0  0  0  0  0  0  0  0  0  0  0
    0.3505    3.1117    1.9995 C   0  0  0  0  0  0  0  0  0  0  0  0
   -0.6287    3.2940    2.4547 H   0  0  0  0  0  0  0  0  0  0  0  0
    1.1235    3.3502    2.7364 H   0  0  0  0  0  0  0  0  0  0  0  0
    0.4713    3.7824    1.1423 H   0  0  0  0  0  0  0  0  0  0  0  0
  1  2  1  0  0  0  0
  2  3  1  0  0  0  0
  2  4  1  0  0  0  0
  2  5  1  0  0  0  0
  5  6  2  0  0  0  0
  5  7  1  0  0  0  0
  7  8  1  0  0  0  0
  7  9  1  0  0  0  0
  9 10  1  0  0  0  0
  9 11  1  0  0  0  0
  9 21  1  0  0  0  0
 11 12  1  0  0  0  0
 11 13  1  0  0  0  0
 11 14  1  0  0  0  0
 14 15  1  0  0  0  0
 14 16  1  0  0  0  0
 14 17  1  0  0  0  0
 17 18  2  0  0  0  0
 17 19  1  0  0  0  0
 19 20  1  0  0  0  0
 21 22  2  0  0  0  0
 21 23  1  0  0  0  0
 23 24  1  0  0  0  0
 23 25  1  0  0  0  0
 25 26  1  0  0  0  0
 25 27  1  0  0  0  0
 25 28  1  0  0  0  0
M  END
$$$$

  -OEChem-03222214033D

 28 27  0     1  0  0  0  0  0999 V2000
   -3.2514   -3.7493    1.3244 H   0  0  0  0  0  0  0  0  0  0  0  0
   -3.2185   -2.7720    0.8349 C   0  0  0  0  0  0  0  0  0  0  0  0
   -3.8503   -2.0773    1.3936 H   0  0  0  0  0  0  0  0  0  0  0  0
   -3.6084   -2.8731   -0.1807 H   0  0  0  0  0  0  0  0  0  0  0  0
   -1.7927   -2.2565    0.7927 C   0  0  0  0  0  0  0  0  0  0  0  0
   -0.8833   -2.9384    1.2364 O   0  0  0  0  0  0  0  0  0  0  0  0
   -1.5282   -1.0190    0.2438 N   0  0  0  0  0  0  0  0  0  0  0  0
   -2.3300   -0.4481   -0.0202 H   0  0  0  0  0  0  0  0  0  0  0  0
   -0.2217   -0.3410    0.2777 C   0  0  1  0  0  0  0  0  0  0  0  0
    0.4083   -0.8020    1.0461 H   0  0  0  0  0  0  0  0  0  0  0  0
    0.5024   -0.4432   -1.0796 C   0  0  0  0  0  0  0  0  0  0  0  0
   -0.1278    0.0323   -1.8390 H   0  0  0  0  0  0  0  0  0  0  0  0
    1.4408    0.1213   -1.0435 H   0  0  0  0  0  0  0  0  0  0  0  0
    0.7825   -1.8971   -1.5210 C   0  0  0  0  0  0  0  0  0  0  0  0
   -0.1139   -2.5125   -1.4243 H   0  0  0  0  0  0  0  0  0  0  0  0
    1.0554   -1.8922   -2.5790 H   0  0  0  0  0  0  0  0  0  0  0  0
    1.9282   -2.5712   -0.7630 C   0  0  0  0  0  0  0  0  0  0  0  0
    2.6157   -1.9236    0.0111 O   0  0  0  0  0  0  0  0  0  0  0  0
    2.1410   -3.8789   -1.0203 O   0  0  0  0  0  0  0  0  0  0  0  0
    2.8630   -4.1349   -0.4272 H   0  0  0  0  0  0  0  0  0  0  0  0
   -0.3819    1.1426    0.6604 C   0  0  0  0  0  0  0  0  0  0  0  0
   -1.3068    1.7959    0.1905 O   0  0  0  0  0  0  0  0  0  0  0  0
    0.4632    1.7222    1.5877 N   0  0  0  0  0  0  0  0  0  0  0  0
    1.2112    1.1460    1.9659 H   0  0  0  0  0  0  0  0  0  0  0  0
    0.3453    3.1079    2.0245 C   0  0  0  0  0  0  0  0  0  0  0  0
   -0.6359    3.2854    2.4773 H   0  0  0  0  0  0  0  0  0  0  0  0
    1.1148    3.3370    2.7681 H   0  0  0  0  0  0  0  0  0  0  0  0
    0.4703    3.7889    1.1760 H   0  0  0  0  0  0  0  0  0  0  0  0
  1  2  1  0  0  0  0
  2  3  1  0  0  0  0
  2  4  1  0  0  0  0
  2  5  1  0  0  0  0
  5  6  2  0  0  0  0
  5  7  1  0  0  0  0
  7  8  1  0  0  0  0
  7  9  1  0  0  0  0
  9 10  1  0  0  0  0
  9 11  1  0  0  0  0
  9 21  1  0  0  0  0
 11 12  1  0  0  0  0
 11 13  1  0  0  0  0
 11 14  1  0  0  0  0
 14 15  1  0  0  0  0
 14 16  1  0  0  0  0
 14 17  1  0  0  0  0
 17 18  2  0  0  0  0
 17 19  1  0  0  0  0
 19 20  1  0  0  0  0
 21 22  2  0  0  0  0
 21 23  1  0  0  0  0
 23 24  1  0  0  0  0
 23 25  1  0  0  0  0
 25 26  1  0  0  0  0
 25 27  1  0  0  0  0
 25 28  1  0  0  0  0
M  END
$$$$

  -OEChem-03222214033D

 28 27  0     1  0  0  0  0  0999 V2000
   -3.2183   -3.7791    1.2873 H   0  0  0  0  0  0  0  0  0  0  0  0
   -3.1848   -2.7986    0.8041 C   0  0  0  0  0  0  0  0  0  0  0  0
   -3.8501   -2.1184    1.3413 H   0  0  0  0  0  0  0  0  0  0  0  0
   -3.5340   -2.9020   -0.2260 H   0  0  0  0  0  0  0  0  0  0  0  0
   -1.7680   -2.2572    0.8185 C   0  0  0  0  0  0  0  0  0  0  0  0
   -0.8713   -2.9106    1.3254 O   0  0  0  0  0  0  0  0  0  0  0  0
   -1.5022   -1.0229    0.2633 N   0  0  0  0  0  0  0  0  0  0  0  0
   -2.3007   -0.4693   -0.0438 H   0  0  0  0  0  0  0  0  0  0  0  0
   -0.1999   -0.3380    0.3000 C   0  0  1  0  0  0  0  0  0  0  0  0
    0.4342   -0.7880    1.0709 H   0  0  0  0  0  0  0  0  0  0  0  0
    0.5031   -0.4398   -1.0701 C   0  0  0  0  0  0  0  0  0  0  0  0
   -0.1203    0.0529   -1.8240 H   0  0  0  0  0  0  0  0  0  0  0  0
    1.4509    0.1081   -1.0252 H   0  0  0  0  0  0  0  0  0  0  0  0
    0.7846   -1.8863   -1.5325 C   0  0  0  0  0  0  0  0  0  0  0  0
   -0.1597   -2.4246   -1.6440 H   0  0  0  0  0  0  0  0  0  0  0  0
    1.2642   -1.8620   -2.5137 H   0  0  0  0  0  0  0  0  0  0  0  0
    1.6837   -2.6885   -0.5916 C   0  0  0  0  0  0  0  0  0  0  0  0
    2.4711   -2.1015    0.1340 O   0  0  0  0  0  0  0  0  0  0  0  0
    1.5874   -4.0336   -0.6458 O   0  0  0  0  0  0  0  0  0  0  0  0
    2.1677   -4.3534    0.0610 H   0  0  0  0  0  0  0  0  0  0  0  0
   -0.3734    1.1472    0.6711 C   0  0  0  0  0  0  0  0  0  0  0  0
   -1.2955    1.7928    0.1850 O   0  0  0  0  0  0  0  0  0  0  0  0
    0.4614    1.7392    1.5998 N   0  0  0  0  0  0  0  0  0  0  0  0
    1.2012    1.1664    1.9988 H   0  0  0  0  0  0  0  0  0  0  0  0
    0.3258    3.1242    2.0329 C   0  0  0  0  0  0  0  0  0  0  0  0
   -0.6609    3.2924    2.4772 H   0  0  0  0  0  0  0  0  0  0  0  0
    1.0868    3.3624    2.7823 H   0  0  0  0  0  0  0  0  0  0  0  0
    0.4513    3.8047    1.1842 H   0  0  0  0  0  0  0  0  0  0  0  0
  1  2  1  0  0  0  0
  2  3  1  0  0  0  0
  2  4  1  0  0  0  0
  2  5  1  0  0  0  0
  5  6  2  0  0  0  0
  5  7  1  0  0  0  0
  7  8  1  0  0  0  0
  7  9  1  0  0  0  0
  9 10  1  0  0  0  0
  9 11  1  0  0  0  0
  9 21  1  0  0  0  0
 11 12  1  0  0  0  0
 11 13  1  0  0  0  0
 11 14  1  0  0  0  0
 14 15  1  0  0  0  0
 14 16  1  0  0  0  0
 14 17  1  0  0  0  0
 17 18  2  0  0  0  0
 17 19  1  0  0  0  0
 19 20  1  0  0  0  0
 21 22  2  0  0  0  0
 21 23  1  0  0  0  0
 23 24  1  0  0  0  0
 23 25  1  0  0  0  0
 25 26  1  0  0  0  0
 25 27  1  0  0  0  0
 25 28  1  0  0  0  0
M  END
$$$$

  -OEChem-03222214033D

 28 27  0     1  0  0  0  0  0999 V2000
   -3.2169   -3.8072    1.2552 H   0  0  0  0  0  0  0  0  0  0  0  0
   -3.1693   -2.8261    0.7745 C   0  0  0  0  0  0  0  0  0  0  0  0
   -3.8885   -2.1609    1.2584 H   0  0  0  0  0  0  0  0  0  0  0  0
   -3.4368   -2.9377   -0.2790 H   0  0  0  0  0  0  0  0  0  0  0  0
   -1.7707   -2.2523    0.8954 C   0  0  0  0  0  0  0  0  0  0  0  0
   -0.9226   -2.8489    1.5377 O   0  0  0  0  0  0  0  0  0  0  0  0
   -1.4830   -1.0331    0.3181 N   0  0  0  0  0  0  0  0  0  0  0  0
   -2.2610   -0.5170   -0.0892 H   0  0  0  0  0  0  0  0  0  0  0  0
   -0.1804   -0.3486    0.3532 C   0  0  1  0  0  0  0  0  0  0  0  0
    0.4584   -0.7844    1.1281 H   0  0  0  0  0  0  0  0  0  0  0  0
    0.5069   -0.4498   -1.0286 C   0  0  0  0  0  0  0  0  0  0  0  0
   -0.1079    0.0662   -1.7742 H   0  0  0  0  0  0  0  0  0  0  0  0
    1.4607    0.0860   -0.9677 H   0  0  0  0  0  0  0  0  0  0  0  0
    0.7992   -1.8783   -1.5389 C   0  0  0  0  0  0  0  0  0  0  0  0
   -0.1400   -2.3240   -1.8768 H   0  0  0  0  0  0  0  0  0  0  0  0
    1.4690   -1.8297   -2.4007 H   0  0  0  0  0  0  0  0  0  0  0  0
    1.4095   -2.8215   -0.5062 C   0  0  0  0  0  0  0  0  0  0  0  0
    2.2670   -2.3914    0.2484 O   0  0  0  0  0  0  0  0  0  0  0  0
    0.9939   -4.1060   -0.5089 O   0  0  0  0  0  0  0  0  0  0  0  0
    1.4039   -4.4987    0.2771 H   0  0  0  0  0  0  0  0  0  0  0  0
   -0.3646    1.1446    0.6884 C   0  0  0  0  0  0  0  0  0  0  0  0
   -1.2665    1.7834    0.1570 O   0  0  0  0  0  0  0  0  0  0  0  0
    0.4561    1.7614    1.6136 N   0  0  0  0  0  0  0  0  0  0  0  0
    1.1665    1.1909    2.0655 H   0  0  0  0  0  0  0  0  0  0  0  0
    0.3095    3.1563    2.0102 C   0  0  0  0  0  0  0  0  0  0  0  0
   -0.6818    3.3299    2.4421 H   0  0  0  0  0  0  0  0  0  0  0  0
    1.0633    3.4182    2.7589 H   0  0  0  0  0  0  0  0  0  0  0  0
    0.4378    3.8157    1.1453 H   0  0  0  0  0  0  0  0  0  0  0  0
  1  2  1  0  0  0  0
  2  3  1  0  0  0  0
  2  4  1  0  0  0  0
  2  5  1  0  0  0  0
  5  6  2  0  0  0  0
  5  7  1  0  0  0  0
  7  8  1  0  0  0  0
  7  9  1  0  0  0  0
  9 10  1  0  0  0  0
  9 11  1  0  0  0  0
  9 21  1  0  0  0  0
 11 12  1  0  0  0  0
 11 13  1  0  0  0  0
 11 14  1  0  0  0  0
 14 15  1  0  0  0  0
 14 16  1  0  0  0  0
 14 17  1  0  0  0  0
 17 18  2  0  0  0  0
 17 19  1  0  0  0  0
 19 20  1  0  0  0  0
 21 22  2  0  0  0  0
 21 23  1  0  0  0  0
 23 24  1  0  0  0  0
 23 25  1  0  0  0  0
 25 26  1  0  0  0  0
 25 27  1  0  0  0  0
 25 28  1  0  0  0  0
M  END
$$$$

  -OEChem-03222214033D

 28 27  0     1  0  0  0  0  0999 V2000
   -3.2435   -3.8002    1.2815 H   0  0  0  0  0  0  0  0  0  0  0  0
   -3.1680   -2.8414    0.7611 C   0  0  0  0  0  0  0  0  0  0  0  0
   -3.9353   -2.1674    1.1496 H   0  0  0  0  0  0  0  0  0  0  0  0
   -3.3424   -3.0061   -0.3050 H   0  0  0  0  0  0  0  0  0  0  0  0
   -1.7927   -2.2381    0.9729 C   0  0  0  0  0  0  0  0  0  0  0  0
   -1.0001   -2.7841    1.7235 O   0  0  0  0  0  0  0  0  0  0  0  0
   -1.4779   -1.0374    0.3708 N   0  0  0  0  0  0  0  0  0  0  0  0
   -2.2291   -0.5591   -0.1232 H   0  0  0  0  0  0  0  0  0  0  0  0
   -0.1703   -0.3603    0.3963 C   0  0  1  0  0  0  0  0  0  0  0  0
    0.4700   -0.7877    1.1753 H   0  0  0  0  0  0  0  0  0  0  0  0
    0.5178   -0.4693   -0.9892 C   0  0  0  0  0  0  0  0  0  0  0  0
   -0.0869    0.0621   -1.7326 H   0  0  0  0  0  0  0  0  0  0  0  0
    1.4725    0.0626   -0.9141 H   0  0  0  0  0  0  0  0  0  0  0  0
    0.8272   -1.8812   -1.5403 C   0  0  0  0  0  0  0  0  0  0  0  0
   -0.0401   -2.2193   -2.1134 H   0  0  0  0  0  0  0  0  0  0  0  0
    1.6740   -1.8320   -2.2294 H   0  0  0  0  0  0  0  0  0  0  0  0
    1.1116   -2.9481   -0.4919 C   0  0  0  0  0  0  0  0  0  0  0  0
    1.9982   -2.7338    0.3173 O   0  0  0  0  0  0  0  0  0  0  0  0
    0.3870   -4.0872   -0.5257 O   0  0  0  0  0  0  0  0  0  0  0  0
    0.6236   -4.5454    0.2970 H   0  0  0  0  0  0  0  0  0  0  0  0
   -0.3572    1.1414    0.6935 C   0  0  0  0  0  0  0  0  0  0  0  0
   -1.2449    1.7717    0.1291 O   0  0  0  0  0  0  0  0  0  0  0  0
    0.4569    1.7802    1.6096 N   0  0  0  0  0  0  0  0  0  0  0  0
    1.1378    1.2123    2.1075 H   0  0  0  0  0  0  0  0  0  0  0  0
    0.2911    3.1783    1.9877 C   0  0  0  0  0  0  0  0  0  0  0  0
   -0.6973    3.3407    2.4302 H   0  0  0  0  0  0  0  0  0  0  0  0
    1.0502    3.4644    2.7222 H   0  0  0  0  0  0  0  0  0  0  0  0
    0.3962    3.8275    1.1121 H   0  0  0  0  0  0  0  0  0  0  0  0
  1  2  1  0  0  0  0
  2  3  1  0  0  0  0
  2  4  1  0  0  0  0
  2  5  1  0  0  0  0
  5  6  2  0  0  0  0
  5  7  1  0  0  0  0
  7  8  1  0  0  0  0
  7  9  1  0  0  0  0
  9 10  1  0  0  0  0
  9 11  1  0  0  0  0
  9 21  1  0  0  0  0
 11 12  1  0  0  0  0
 11 13  1  0  0  0  0
 11 14  1  0  0  0  0
 14 15  1  0  0  0  0
 14 16  1  0  0  0  0
 14 17  1  0  0  0  0
 17 18  2  0  0  0  0
 17 19  1  0  0  0  0
 19 20  1  0  0  0  0
 21 22  2  0  0  0  0
 21 23  1  0  0  0  0
 23 24  1  0  0  0  0
 23 25  1  0  0  0  0
 25 26  1  0  0  0  0
 25 27  1  0  0  0  0
 25 28  1  0  0  0  0
M  END
$$$$

  -OEChem-03222214033D

 28 27  0     1  0  0  0  0  0999 V2000
   -3.2900   -3.8086    1.3043 H   0  0  0  0  0  0  0  0  0  0  0  0
   -3.1854   -2.8720    0.7497 C   0  0  0  0  0  0  0  0  0  0  0  0
   -3.9637   -2.1791    1.0783 H   0  0  0  0  0  0  0  0  0  0  0  0
   -3.3147   -3.0778   -0.3157 H   0  0  0  0  0  0  0  0  0  0  0  0
   -1.8161   -2.2685    0.9954 C   0  0  0  0  0  0  0  0  0  0  0  0
   -1.0458   -2.8122    1.7696 O   0  0  0  0  0  0  0  0  0  0  0  0
   -1.4859   -1.0718    0.3946 N   0  0  0  0  0  0  0  0  0  0  0  0
   -2.2271   -0.6074   -0.1270 H   0  0  0  0  0  0  0  0  0  0  0  0
   -0.1873   -0.3759    0.4380 C   0  0  1  0  0  0  0  0  0  0  0  0
    0.4437   -0.7956    1.2293 H   0  0  0  0  0  0  0  0  0  0  0  0
    0.5486   -0.4602   -0.9281 C   0  0  0  0  0  0  0  0  0  0  0  0
   -0.0507    0.0692   -1.6774 H   0  0  0  0  0  0  0  0  0  0  0  0
    1.4814    0.1029   -0.8152 H   0  0  0  0  0  0  0  0  0  0  0  0
    0.9331   -1.8362   -1.5271 C   0  0  0  0  0  0  0  0  0  0  0  0
    0.2412   -2.0567   -2.3445 H   0  0  0  0  0  0  0  0  0  0  0  0
    1.9345   -1.7763   -1.9618 H   0  0  0  0  0  0  0  0  0  0  0  0
    0.8925   -3.0259   -0.5821 C   0  0  0  0  0  0  0  0  0  0  0  0
    1.7416   -3.0711    0.2904 O   0  0  0  0  0  0  0  0  0  0  0  0
   -0.0356   -3.9883   -0.7744 O   0  0  0  0  0  0  0  0  0  0  0  0
    0.0696   -4.5671   -0.0009 H   0  0  0  0  0  0  0  0  0  0  0  0
   -0.4115    1.1249    0.7176 C   0  0  0  0  0  0  0  0  0  0  0  0
   -1.2937    1.7340    0.1219 O   0  0  0  0  0  0  0  0  0  0  0  0
    0.3698    1.7898    1.6438 N   0  0  0  0  0  0  0  0  0  0  0  0
    1.0373    1.2379    2.1763 H   0  0  0  0  0  0  0  0  0  0  0  0
    0.1664    3.1886    2.0014 C   0  0  0  0  0  0  0  0  0  0  0  0
   -0.8330    3.3346    2.4247 H   0  0  0  0  0  0  0  0  0  0  0  0
    0.9063    3.5007    2.7449 H   0  0  0  0  0  0  0  0  0  0  0  0
    0.2724    3.8295    1.1197 H   0  0  0  0  0  0  0  0  0  0  0  0
  1  2  1  0  0  0  0
  2  3  1  0  0  0  0
  2  4  1  0  0  0  0
  2  5  1  0  0  0  0
  5  6  2  0  0  0  0
  5  7  1  0  0  0  0
  7  8  1  0  0  0  0
  7  9  1  0  0  0  0
  9 10  1  0  0  0  0
  9 11  1  0  0  0  0
  9 21  1  0  0  0  0
 11 12  1  0  0  0  0
 11 13  1  0  0  0  0
 11 14  1  0  0  0  0
 14 15  1  0  0  0  0
 14 16  1  0  0  0  0
 14 17  1  0  0  0  0
 17 18  2  0  0  0  0
 17 19  1  0  0  0  0
 19 20  1  0  0  0  0
 21 22  2  0  0  0  0
 21 23  1  0  0  0  0
 23 24  1  0  0  0  0
 23 25  1  0  0  0  0
 25 26  1  0  0  0  0
 25 27  1  0  0  0  0
 25 28  1  0  0  0  0
M  END
$$$$

  -OEChem-03222214033D

 28 27  0     1  0  0  0  0  0999 V2000
   -3.2626   -3.8348    1.2617 H   0  0  0  0  0  0  0  0  0  0  0  0
   -3.2358   -2.8510    0.7845 C   0  0  0  0  0  0  0  0  0  0  0  0
   -3.9165   -2.1829    1.3180 H   0  0  0  0  0  0  0  0  0  0  0  0
   -3.5730   -2.9527   -0.2500 H   0  0  0  0  0  0  0  0  0  0  0  0
   -1.8271   -2.2918    0.8180 C   0  0  0  0  0  0  0  0  0  0  0  0
   -0.9058   -2.9368    1.2937 O   0  0  0  0  0  0  0  0  0  0  0  0
   -1.5495   -1.0505    0.2963 N   0  0  0  0  0  0  0  0  0  0  0  0
   -2.3442   -0.4840   -0.0036 H   0  0  0  0  0  0  0  0  0  0  0  0
   -0.2548   -0.3598    0.4053 C   0  0  1  0  0  0  0  0  0  0  0  0
    0.3561   -0.8160    1.1914 H   0  0  0  0  0  0  0  0  0  0  0  0
    0.5279   -0.3907   -0.9276 C   0  0  0  0  0  0  0  0  0  0  0  0
   -0.0622    0.1564   -1.6739 H   0  0  0  0  0  0  0  0  0  0  0  0
    1.4487    0.1889   -0.7884 H   0  0  0  0  0  0  0  0  0  0  0  0
    0.9230   -1.7605   -1.5507 C   0  0  0  0  0  0  0  0  0  0  0  0
   -0.1425   -1.9328   -1.7267 H   0  0  0  0  0  0  0  0  0  0  0  0
    1.5474   -1.9035   -0.6637 H   0  0  0  0  0  0  0  0  0  0  0  0
    0.9739   -3.2923   -1.5805 C   0  0  0  0  0  0  0  0  0  0  0  0
    1.4727   -3.7397   -2.5985 O   0  0  0  0  0  0  0  0  0  0  0  0
    0.5276   -4.0715   -0.5545 O   0  0  0  0  0  0  0  0  0  0  0  0
    0.1139   -3.5403    0.1648 H   0  0  0  0  0  0  0  0  0  0  0  0
   -0.4889    1.1155    0.7958 C   0  0  0  0  0  0  0  0  0  0  0  0
   -1.4084    1.7381    0.2786 O   0  0  0  0  0  0  0  0  0  0  0  0
    0.2758    1.7191    1.7768 N   0  0  0  0  0  0  0  0  0  0  0  0
    0.9912    1.1608    2.2341 H   0  0  0  0  0  0  0  0  0  0  0  0
    0.0547    3.0873    2.2308 C   0  0  0  0  0  0  0  0  0  0  0  0
   -0.9448    3.1903    2.6665 H   0  0  0  0  0  0  0  0  0  0  0  0
    0.7931    3.3578    2.9917 H   0  0  0  0  0  0  0  0  0  0  0  0
    0.1487    3.7888    1.3950 H   0  0  0  0  0  0  0  0  0  0  0  0
  1  2  1  0  0  0  0
  2  3  1  0  0  0  0
  2  4  1  0  0  0  0
  2  5  1  0  0  0  0
  5  6  2  0  0  0  0
  5  7  1  0  0  0  0
  7  8  1  0  0  0  0
  7  9  1  0  0  0  0
  9 10  1  0  0  0  0
  9 11  1  0  0  0  0
  9 21  1  0  0  0  0
 11 12  1  0  0  0  0
 11 13  1  0  0  0  0
 11 14  1  0  0  0  0
 14 15  1  0  0  0  0
 14 16  1  0  0  0  0
 14 17  1  0  0  0  0
 17 18  2  0  0  0  0
 17 19  1  0  0  0  0
 19 20  1  0  0  0  0
 21 22  2  0  0  0  0
 21 23  1  0  0  0  0
 23 24  1  0  0  0  0
 23 25  1  0  0  0  0
 25 26  1  0  0  0  0
 25 27  1  0  0  0  0
 25 28  1  0  0  0  0
M  END
$$$$

  -OEChem-03222214033D

 28 27  0     1  0  0  0  0  0999 V2000
   -3.2390   -3.8912    1.4760 H   0  0  0  0  0  0  0  0  0  0  0  0
   -3.2037   -2.9350    0.9468 C   0  0  0  0  0  0  0  0  0  0  0  0
   -3.9343   -2.2571    1.3943 H   0  0  0  0  0  0  0  0  0  0  0  0
   -3.4653   -3.1027   -0.1012 H   0  0  0  0  0  0  0  0  0  0  0  0
   -1.8133   -2.3361    1.0391 C   0  0  0  0  0  0  0  0  0  0  0  0
   -0.9309   -2.9334    1.6368 O   0  0  0  0  0  0  0  0  0  0  0  0
   -1.5678   -1.0924    0.4936 N   0  0  0  0  0  0  0  0  0  0  0  0
   -2.3626   -0.6197    0.0669 H   0  0  0  0  0  0  0  0  0  0  0  0
   -0.2674   -0.4049    0.4066 C   0  0  1  0  0  0  0  0  0  0  0  0
    0.4545   -0.8871    1.0740 H   0  0  0  0  0  0  0  0  0  0  0  0
    0.3247   -0.3511   -1.0337 C   0  0  0  0  0  0  0  0  0  0  0  0
   -0.3971    0.2065   -1.6417 H   0  0  0  0  0  0  0  0  0  0  0  0
    1.2384    0.2525   -1.0007 H   0  0  0  0  0  0  0  0  0  0  0  0
    0.6548   -1.6389   -1.8353 C   0  0  0  0  0  0  0  0  0  0  0  0
    0.3434   -1.4987   -2.8743 H   0  0  0  0  0  0  0  0  0  0  0  0
    1.7414   -1.7599   -1.8443 H   0  0  0  0  0  0  0  0  0  0  0  0
    0.0806   -2.9563   -1.3473 C   0  0  0  0  0  0  0  0  0  0  0  0
   -1.0325   -3.2910   -1.7189 O   0  0  0  0  0  0  0  0  0  0  0  0
    0.8577   -3.6992   -0.5302 O   0  0  0  0  0  0  0  0  0  0  0  0
    0.2743   -4.3861   -0.1706 H   0  0  0  0  0  0  0  0  0  0  0  0
   -0.4453    1.0667    0.8402 C   0  0  0  0  0  0  0  0  0  0  0  0
   -1.3874    1.7258    0.4147 O   0  0  0  0  0  0  0  0  0  0  0  0
    0.4623    1.6572    1.7001 N   0  0  0  0  0  0  0  0  0  0  0  0
    1.1836    1.0639    2.1006 H   0  0  0  0  0  0  0  0  0  0  0  0
    0.3242    3.0245    2.1877 C   0  0  0  0  0  0  0  0  0  0  0  0
   -0.6303    3.1518    2.7095 H   0  0  0  0  0  0  0  0  0  0  0  0
    1.1334    3.2614    2.8855 H   0  0  0  0  0  0  0  0  0  0  0  0
    0.3674    3.7340    1.3547 H   0  0  0  0  0  0  0  0  0  0  0  0
  1  2  1  0  0  0  0
  2  3  1  0  0  0  0
  2  4  1  0  0  0  0
  2  5  1  0  0  0  0
  5  6  2  0  0  0  0
  5  7  1  0  0  0  0
  7  8  1  0  0  0  0
  7  9  1  0  0  0  0
  9 10  1  0  0  0  0
  9 11  1  0  0  0  0
  9 21  1  0  0  0  0
 11 12  1  0  0  0  0
 11 13  1  0  0  0  0
 11 14  1  0  0  0  0
 14 15  1  0  0  0  0
 14 16  1  0  0  0  0
 14 17  1  0  0  0  0
 17 18  2  0  0  0  0
 17 19  1  0  0  0  0
 19 20  1  0  0  0  0
 21 22  2  0  0  0  0
 21 23  1  0  0  0  0
 23 24  1  0  0  0  0
 23 25  1  0  0  0  0
 25 26  1  0  0  0  0
 25 27  1  0  0  0  0
 25 28  1  0  0  0  0
M  END
$$$$

  -OEChem-03222214033D

 28 27  0     1  0  0  0  0  0999 V2000
   -3.5026   -3.6439    1.4220 H   0  0  0  0  0  0  0  0  0  0  0  0
   -3.3879   -2.7064    0.8714 C   0  0  0  0  0  0  0  0  0  0  0  0
   -4.0995   -1.9764    1.2646 H   0  0  0  0  0  0  0  0  0  0  0  0
   -3.6082   -2.8879   -0.1837 H   0  0  0  0  0  0  0  0  0  0  0  0
   -1.9726   -2.1817    1.0192 C   0  0  0  0  0  0  0  0  0  0  0  0
   -1.1649   -2.7858    1.7077 O   0  0  0  0  0  0  0  0  0  0  0  0
   -1.6141   -0.9996    0.4056 N   0  0  0  0  0  0  0  0  0  0  0  0
   -2.3356   -0.5275   -0.1366 H   0  0  0  0  0  0  0  0  0  0  0  0
   -0.2735   -0.3940    0.3975 C   0  0  1  0  0  0  0  0  0  0  0  0
    0.3443   -0.8544    1.1754 H   0  0  0  0  0  0  0  0  0  0  0  0
    0.4705   -0.5077   -0.9643 C   0  0  0  0  0  0  0  0  0  0  0  0
   -0.1527    0.0196   -1.6960 H   0  0  0  0  0  0  0  0  0  0  0  0
    1.4104    0.0498   -0.8899 H   0  0  0  0  0  0  0  0  0  0  0  0
    0.7983   -1.8859   -1.5976 C   0  0  0  0  0  0  0  0  0  0  0  0
    0.8791   -1.7647   -2.6810 H   0  0  0  0  0  0  0  0  0  0  0  0
    1.7863   -2.1844   -1.2365 H   0  0  0  0  0  0  0  0  0  0  0  0
   -0.1254   -3.0645   -1.3298 C   0  0  0  0  0  0  0  0  0  0  0  0
   -1.2441   -3.0601   -1.8172 O   0  0  0  0  0  0  0  0  0  0  0  0
    0.3707   -4.0904   -0.6045 O   0  0  0  0  0  0  0  0  0  0  0  0
   -0.3736   -4.6935   -0.4609 H   0  0  0  0  0  0  0  0  0  0  0  0
   -0.3942    1.1158    0.6990 C   0  0  0  0  0  0  0  0  0  0  0  0
   -1.2441    1.7932    0.1322 O   0  0  0  0  0  0  0  0  0  0  0  0
    0.4655    1.7207    1.5976 N   0  0  0  0  0  0  0  0  0  0  0  0
    1.1003    1.1200    2.1158 H   0  0  0  0  0  0  0  0  0  0  0  0
    0.3764    3.1301    1.9608 C   0  0  0  0  0  0  0  0  0  0  0  0
   -0.5949    3.3475    2.4174 H   0  0  0  0  0  0  0  0  0  0  0  0
    1.1618    3.3868    2.6783 H   0  0  0  0  0  0  0  0  0  0  0  0
    0.4984    3.7630    1.0754 H   0  0  0  0  0  0  0  0  0  0  0  0
  1  2  1  0  0  0  0
  2  3  1  0  0  0  0
  2  4  1  0  0  0  0
  2  5  1  0  0  0  0
  5  6  2  0  0  0  0
  5  7  1  0  0  0  0
  7  8  1  0  0  0  0
  7  9  1  0  0  0  0
  9 10  1  0  0  0  0
  9 11  1  0  0  0  0
  9 21  1  0  0  0  0
 11 12  1  0  0  0  0
 11 13  1  0  0  0  0
 11 14  1  0  0  0  0
 14 15  1  0  0  0  0
 14 16  1  0  0  0  0
 14 17  1  0  0  0  0
 17 18  2  0  0  0  0
 17 19  1  0  0  0  0
 19 20  1  0  0  0  0
 21 22  2  0  0  0  0
 21 23  1  0  0  0  0
 23 24  1  0  0  0  0
 23 25  1  0  0  0  0
 25 26  1  0  0  0  0
 25 27  1  0  0  0  0
 25 28  1  0  0  0  0
M  END
$$$$

  -OEChem-03222214033D

 28 27  0     1  0  0  0  0  0999 V2000
   -3.3815   -3.7234    1.4156 H   0  0  0  0  0  0  0  0  0  0  0  0
   -3.3235   -2.7446    0.9321 C   0  0  0  0  0  0  0  0  0  0  0  0
   -4.0181   -2.0630    1.4289 H   0  0  0  0  0  0  0  0  0  0  0  0
   -3.6158   -2.8509   -0.1157 H   0  0  0  0  0  0  0  0  0  0  0  0
   -1.9111   -2.1990    1.0206 C   0  0  0  0  0  0  0  0  0  0  0  0
   -1.0522   -2.8165    1.6303 O   0  0  0  0  0  0  0  0  0  0  0  0
   -1.6031   -0.9952    0.4233 N   0  0  0  0  0  0  0  0  0  0  0  0
   -2.3520   -0.5247   -0.0824 H   0  0  0  0  0  0  0  0  0  0  0  0
   -0.2703   -0.3788    0.3709 C   0  0  1  0  0  0  0  0  0  0  0  0
    0.3823   -0.8513    1.1123 H   0  0  0  0  0  0  0  0  0  0  0  0
    0.4164   -0.4720   -1.0191 C   0  0  0  0  0  0  0  0  0  0  0  0
   -0.2265    0.0636   -1.7272 H   0  0  0  0  0  0  0  0  0  0  0  0
    1.3639    0.0752   -0.9719 H   0  0  0  0  0  0  0  0  0  0  0  0
    0.7090   -1.8587   -1.6475 C   0  0  0  0  0  0  0  0  0  0  0  0
    1.0012   -1.7178   -2.6912 H   0  0  0  0  0  0  0  0  0  0  0  0
    1.5725   -2.2784   -1.1242 H   0  0  0  0  0  0  0  0  0  0  0  0
   -0.3799   -2.9251   -1.6152 C   0  0  0  0  0  0  0  0  0  0  0  0
   -1.4847   -2.6580   -2.0590 O   0  0  0  0  0  0  0  0  0  0  0  0
   -0.0399   -4.1489   -1.1565 O   0  0  0  0  0  0  0  0  0  0  0  0
   -0.8525   -4.6743   -1.1898 H   0  0  0  0  0  0  0  0  0  0  0  0
   -0.3806    1.1213    0.7201 C   0  0  0  0  0  0  0  0  0  0  0  0
   -1.2586    1.8111    0.2148 O   0  0  0  0  0  0  0  0  0  0  0  0
    0.5190    1.7040    1.5938 N   0  0  0  0  0  0  0  0  0  0  0  0
    1.1892    1.0944    2.0537 H   0  0  0  0  0  0  0  0  0  0  0  0
    0.4487    3.1041    1.9945 C   0  0  0  0  0  0  0  0  0  0  0  0
   -0.5084    3.3163    2.4826 H   0  0  0  0  0  0  0  0  0  0  0  0
    1.2543    3.3378    2.6971 H   0  0  0  0  0  0  0  0  0  0  0  0
    0.5516    3.7577    1.1218 H   0  0  0  0  0  0  0  0  0  0  0  0
  1  2  1  0  0  0  0
  2  3  1  0  0  0  0
  2  4  1  0  0  0  0
  2  5  1  0  0  0  0
  5  6  2  0  0  0  0
  5  7  1  0  0  0  0
  7  8  1  0  0  0  0
  7  9  1  0  0  0  0
  9 10  1  0  0  0  0
  9 11  1  0  0  0  0
  9 21  1  0  0  0  0
 11 12  1  0  0  0  0
 11 13  1  0  0  0  0
 11 14  1  0  0  0  0
 14 15  1  0  0  0  0
 14 16  1  0  0  0  0
 14 17  1  0  0  0  0
 17 18  2  0  0  0  0
 17 19  1  0  0  0  0
 19 20  1  0  0  0  0
 21 22  2  0  0  0  0
 21 23  1  0  0  0  0
 23 24  1  0  0  0  0
 23 25  1  0  0  0  0
 25 26  1  0  0  0  0
 25 27  1  0  0  0  0
 25 28  1  0  0  0  0
M  END
$$$$

  -OEChem-03222214033D

 28 27  0     1  0  0  0  0  0999 V2000
   -3.2857   -3.7809    1.3571 H   0  0  0  0  0  0  0  0  0  0  0  0
   -3.2545   -2.7929    0.8898 C   0  0  0  0  0  0  0  0  0  0  0  0
   -3.9569   -2.1344    1.4065 H   0  0  0  0  0  0  0  0  0  0  0  0
   -3.5571   -2.8870   -0.1561 H   0  0  0  0  0  0  0  0  0  0  0  0
   -1.8534   -2.2189    0.9724 C   0  0  0  0  0  0  0  0  0  0  0  0
   -0.9695   -2.8359    1.5462 O   0  0  0  0  0  0  0  0  0  0  0  0
   -1.5774   -0.9993    0.3922 N   0  0  0  0  0  0  0  0  0  0  0  0
   -2.3366   -0.5386   -0.1075 H   0  0  0  0  0  0  0  0  0  0  0  0
   -0.2561   -0.3605    0.3437 C   0  0  1  0  0  0  0  0  0  0  0  0
    0.4080   -0.8320    1.0752 H   0  0  0  0  0  0  0  0  0  0  0  0
    0.4106   -0.4511   -1.0524 C   0  0  0  0  0  0  0  0  0  0  0  0
   -0.2256    0.0842   -1.7671 H   0  0  0  0  0  0  0  0  0  0  0  0
    1.3653    0.0836   -1.0096 H   0  0  0  0  0  0  0  0  0  0  0  0
    0.6857   -1.8618   -1.6294 C   0  0  0  0  0  0  0  0  0  0  0  0
    1.1931   -1.7548   -2.5914 H   0  0  0  0  0  0  0  0  0  0  0  0
    1.3729   -2.3760   -0.9516 H   0  0  0  0  0  0  0  0  0  0  0  0
   -0.5106   -2.7859   -1.8486 C   0  0  0  0  0  0  0  0  0  0  0  0
   -1.5589   -2.3238   -2.2684 O   0  0  0  0  0  0  0  0  0  0  0  0
   -0.3232   -4.1036   -1.6217 O   0  0  0  0  0  0  0  0  0  0  0  0
   -1.1732   -4.5229   -1.8197 H   0  0  0  0  0  0  0  0  0  0  0  0
   -0.3778    1.1325    0.7161 C   0  0  0  0  0  0  0  0  0  0  0  0
   -1.2640    1.8214    0.2246 O   0  0  0  0  0  0  0  0  0  0  0  0
    0.5211    1.7122    1.5929 N   0  0  0  0  0  0  0  0  0  0  0  0
    1.1963    1.1022    2.0449 H   0  0  0  0  0  0  0  0  0  0  0  0
    0.4344    3.1046    2.0175 C   0  0  0  0  0  0  0  0  0  0  0  0
   -0.5339    3.3025    2.4892 H   0  0  0  0  0  0  0  0  0  0  0  0
    1.2236    3.3303    2.7411 H   0  0  0  0  0  0  0  0  0  0  0  0
    0.5512    3.7744    1.1590 H   0  0  0  0  0  0  0  0  0  0  0  0
  1  2  1  0  0  0  0
  2  3  1  0  0  0  0
  2  4  1  0  0  0  0
  2  5  1  0  0  0  0
  5  6  2  0  0  0  0
  5  7  1  0  0  0  0
  7  8  1  0  0  0  0
  7  9  1  0  0  0  0
  9 10  1  0  0  0  0
  9 11  1  0  0  0  0
  9 21  1  0  0  0  0
 11 12  1  0  0  0  0
 11 13  1  0  0  0  0
 11 14  1  0  0  0  0
 14 15  1  0  0  0  0
 14 16  1  0  0  0  0
 14 17  1  0  0  0  0
 17 18  2  0  0  0  0
 17 19  1  0  0  0  0
 19 20  1  0  0  0  0
 21 22  2  0  0  0  0
 21 23  1  0  0  0  0
 23 24  1  0  0  0  0
 23 25  1  0  0  0  0
 25 26  1  0  0  0  0
 25 27  1  0  0  0  0
 25 28  1  0  0  0  0
M  END
$$$$

  -OEChem-03222214033D

 28 27  0     1  0  0  0  0  0999 V2000
   -3.2244   -3.8173    1.2692 H   0  0  0  0  0  0  0  0  0  0  0  0
   -3.2024   -2.8267    0.8068 C   0  0  0  0  0  0  0  0  0  0  0  0
   -3.9238   -2.1828    1.3156 H   0  0  0  0  0  0  0  0  0  0  0  0
   -3.4872   -2.9210   -0.2441 H   0  0  0  0  0  0  0  0  0  0  0  0
   -1.8128   -2.2291    0.9127 C   0  0  0  0  0  0  0  0  0  0  0  0
   -0.9190   -2.8435    1.4742 O   0  0  0  0  0  0  0  0  0  0  0  0
   -1.5540   -0.9977    0.3508 N   0  0  0  0  0  0  0  0  0  0  0  0
   -2.3136   -0.5466   -0.1574 H   0  0  0  0  0  0  0  0  0  0  0  0
   -0.2431   -0.3374    0.3238 C   0  0  1  0  0  0  0  0  0  0  0  0
    0.4227   -0.8068    1.0552 H   0  0  0  0  0  0  0  0  0  0  0  0
    0.4129   -0.4375   -1.0721 C   0  0  0  0  0  0  0  0  0  0  0  0
   -0.2069    0.0964   -1.8018 H   0  0  0  0  0  0  0  0  0  0  0  0
    1.3761    0.0817   -1.0306 H   0  0  0  0  0  0  0  0  0  0  0  0
    0.6693   -1.8784   -1.5763 C   0  0  0  0  0  0  0  0  0  0  0  0
    1.3743   -1.8360   -2.4101 H   0  0  0  0  0  0  0  0  0  0  0  0
    1.1423   -2.4531   -0.7748 H   0  0  0  0  0  0  0  0  0  0  0  0
   -0.5496   -2.6651   -2.0647 C   0  0  0  0  0  0  0  0  0  0  0  0
   -1.5530   -2.0784   -2.4356 O   0  0  0  0  0  0  0  0  0  0  0  0
   -0.4305   -4.0093   -2.0980 O   0  0  0  0  0  0  0  0  0  0  0  0
   -1.2761   -4.3327   -2.4425 H   0  0  0  0  0  0  0  0  0  0  0  0
   -0.3759    1.1503    0.7111 C   0  0  0  0  0  0  0  0  0  0  0  0
   -1.2662    1.8381    0.2258 O   0  0  0  0  0  0  0  0  0  0  0  0
    0.5134    1.7251    1.6006 N   0  0  0  0  0  0  0  0  0  0  0  0
    1.1973    1.1168    2.0415 H   0  0  0  0  0  0  0  0  0  0  0  0
    0.4227    3.1147    2.0326 C   0  0  0  0  0  0  0  0  0  0  0  0
   -0.5379    3.3017    2.5241 H   0  0  0  0  0  0  0  0  0  0  0  0
    1.2245    3.3446    2.7409 H   0  0  0  0  0  0  0  0  0  0  0  0
    0.5163    3.7890    1.1748 H   0  0  0  0  0  0  0  0  0  0  0  0
  1  2  1  0  0  0  0
  2  3  1  0  0  0  0
  2  4  1  0  0  0  0
  2  5  1  0  0  0  0
  5  6  2  0  0  0  0
  5  7  1  0  0  0  0
  7  8  1  0  0  0  0
  7  9  1  0  0  0  0
  9 10  1  0  0  0  0
  9 11  1  0  0  0  0
  9 21  1  0  0  0  0
 11 12  1  0  0  0  0
 11 13  1  0  0  0  0
 11 14  1  0  0  0  0
 14 15  1  0  0  0  0
 14 16  1  0  0  0  0
 14 17  1  0  0  0  0
 17 18  2  0  0  0  0
 17 19  1  0  0  0  0
 19 20  1  0  0  0  0
 21 22  2  0  0  0  0
 21 23  1  0  0  0  0
 23 24  1  0  0  0  0
 23 25  1  0  0  0  0
 25 26  1  0  0  0  0
 25 27  1  0  0  0  0
 25 28  1  0  0  0  0
M  END
$$$$

  -OEChem-03222214033D

 28 27  0     1  0  0  0  0  0999 V2000
   -3.1966   -3.8276    1.2131 H   0  0  0  0  0  0  0  0  0  0  0  0
   -3.1751   -2.8363    0.7522 C   0  0  0  0  0  0  0  0  0  0  0  0
   -3.9220   -2.2039    1.2380 H   0  0  0  0  0  0  0  0  0  0  0  0
   -3.4246   -2.9339   -0.3073 H   0  0  0  0  0  0  0  0  0  0  0  0
   -1.7987   -2.2180    0.9023 C   0  0  0  0  0  0  0  0  0  0  0  0
   -0.9155   -2.8189    1.4950 O   0  0  0  0  0  0  0  0  0  0  0  0
   -1.5372   -0.9880    0.3390 N   0  0  0  0  0  0  0  0  0  0  0  0
   -2.2800   -0.5639   -0.2153 H   0  0  0  0  0  0  0  0  0  0  0  0
   -0.2286   -0.3220    0.3268 C   0  0  1  0  0  0  0  0  0  0  0  0
    0.4348   -0.7874    1.0630 H   0  0  0  0  0  0  0  0  0  0  0  0
    0.4122   -0.4486   -1.0709 C   0  0  0  0  0  0  0  0  0  0  0  0
   -0.1969    0.0824   -1.8115 H   0  0  0  0  0  0  0  0  0  0  0  0
    1.3839    0.0550   -1.0406 H   0  0  0  0  0  0  0  0  0  0  0  0
    0.6433   -1.9128   -1.5178 C   0  0  0  0  0  0  0  0  0  0  0  0
    1.5112   -1.9332   -2.1816 H   0  0  0  0  0  0  0  0  0  0  0  0
    0.8851   -2.5319   -0.6493 H   0  0  0  0  0  0  0  0  0  0  0  0
   -0.5057   -2.5778   -2.2835 C   0  0  0  0  0  0  0  0  0  0  0  0
   -1.5601   -1.9920   -2.4673 O   0  0  0  0  0  0  0  0  0  0  0  0
   -0.2711   -3.8240   -2.7455 O   0  0  0  0  0  0  0  0  0  0  0  0
   -1.0854   -4.0813   -3.2035 H   0  0  0  0  0  0  0  0  0  0  0  0
   -0.3607    1.1683    0.7039 C   0  0  0  0  0  0  0  0  0  0  0  0
   -1.2360    1.8582    0.1954 O   0  0  0  0  0  0  0  0  0  0  0  0
    0.5193    1.7465    1.6006 N   0  0  0  0  0  0  0  0  0  0  0  0
    1.1835    1.1356    2.0671 H   0  0  0  0  0  0  0  0  0  0  0  0
    0.4203    3.1375    2.0273 C   0  0  0  0  0  0  0  0  0  0  0  0
   -0.5441    3.3222    2.5125 H   0  0  0  0  0  0  0  0  0  0  0  0
    1.2167    3.3729    2.7398 H   0  0  0  0  0  0  0  0  0  0  0  0
    0.5168    3.8097    1.1681 H   0  0  0  0  0  0  0  0  0  0  0  0
  1  2  1  0  0  0  0
  2  3  1  0  0  0  0
  2  4  1  0  0  0  0
  2  5  1  0  0  0  0
  5  6  2  0  0  0  0
  5  7  1  0  0  0  0
  7  8  1  0  0  0  0
  7  9  1  0  0  0  0
  9 10  1  0  0  0  0
  9 11  1  0  0  0  0
  9 21  1  0  0  0  0
 11 12  1  0  0  0  0
 11 13  1  0  0  0  0
 11 14  1  0  0  0  0
 14 15  1  0  0  0  0
 14 16  1  0  0  0  0
 14 17  1  0  0  0  0
 17 18  2  0  0  0  0
 17 19  1  0  0  0  0
 19 20  1  0  0  0  0
 21 22  2  0  0  0  0
 21 23  1  0  0  0  0
 23 24  1  0  0  0  0
 23 25  1  0  0  0  0
 25 26  1  0  0  0  0
 25 27  1  0  0  0  0
 25 28  1  0  0  0  0
M  END
$$$$

  -OEChem-03222214033D

 28 27  0     1  0  0  0  0  0999 V2000
   -3.2166   -3.8187    1.2183 H   0  0  0  0  0  0  0  0  0  0  0  0
   -3.1829   -2.8352    0.7418 C   0  0  0  0  0  0  0  0  0  0  0  0
   -3.9525   -2.1996    1.1859 H   0  0  0  0  0  0  0  0  0  0  0  0
   -3.3893   -2.9532   -0.3250 H   0  0  0  0  0  0  0  0  0  0  0  0
   -1.8173   -2.2053    0.9358 C   0  0  0  0  0  0  0  0  0  0  0  0
   -0.9639   -2.7770    1.5978 O   0  0  0  0  0  0  0  0  0  0  0  0
   -1.5359   -0.9910    0.3480 N   0  0  0  0  0  0  0  0  0  0  0  0
   -2.2540   -0.5971   -0.2580 H   0  0  0  0  0  0  0  0  0  0  0  0
   -0.2220   -0.3332    0.3444 C   0  0  1  0  0  0  0  0  0  0  0  0
    0.4306   -0.7883    1.0963 H   0  0  0  0  0  0  0  0  0  0  0  0
    0.4215   -0.4994   -1.0471 C   0  0  0  0  0  0  0  0  0  0  0  0
   -0.1856    0.0159   -1.8007 H   0  0  0  0  0  0  0  0  0  0  0  0
    1.3967   -0.0015   -1.0315 H   0  0  0  0  0  0  0  0  0  0  0  0
    0.6359   -1.9780   -1.4514 C   0  0  0  0  0  0  0  0  0  0  0  0
    1.6336   -2.0693   -1.8890 H   0  0  0  0  0  0  0  0  0  0  0  0
    0.6133   -2.6318   -0.5761 H   0  0  0  0  0  0  0  0  0  0  0  0
   -0.3589   -2.4990   -2.4905 C   0  0  0  0  0  0  0  0  0  0  0  0
   -1.5306   -2.1640   -2.4333 O   0  0  0  0  0  0  0  0  0  0  0  0
    0.1230   -3.3300   -3.4393 O   0  0  0  0  0  0  0  0  0  0  0  0
   -0.6415   -3.5523   -3.9922 H   0  0  0  0  0  0  0  0  0  0  0  0
   -0.3453    1.1668    0.6825 C   0  0  0  0  0  0  0  0  0  0  0  0
   -1.1966    1.8558    0.1335 O   0  0  0  0  0  0  0  0  0  0  0  0
    0.5254    1.7559    1.5811 N   0  0  0  0  0  0  0  0  0  0  0  0
    1.1639    1.1456    2.0833 H   0  0  0  0  0  0  0  0  0  0  0  0
    0.4286    3.1552    1.9794 C   0  0  0  0  0  0  0  0  0  0  0  0
   -0.5292    3.3465    2.4746 H   0  0  0  0  0  0  0  0  0  0  0  0
    1.2352    3.4086    2.6739 H   0  0  0  0  0  0  0  0  0  0  0  0
    0.5094    3.8095    1.1049 H   0  0  0  0  0  0  0  0  0  0  0  0
  1  2  1  0  0  0  0
  2  3  1  0  0  0  0
  2  4  1  0  0  0  0
  2  5  1  0  0  0  0
  5  6  2  0  0  0  0
  5  7  1  0  0  0  0
  7  8  1  0  0  0  0
  7  9  1  0  0  0  0
  9 10  1  0  0  0  0
  9 11  1  0  0  0  0
  9 21  1  0  0  0  0
 11 12  1  0  0  0  0
 11 13  1  0  0  0  0
 11 14  1  0  0  0  0
 14 15  1  0  0  0  0
 14 16  1  0  0  0  0
 14 17  1  0  0  0  0
 17 18  2  0  0  0  0
 17 19  1  0  0  0  0
 19 20  1  0  0  0  0
 21 22  2  0  0  0  0
 21 23  1  0  0  0  0
 23 24  1  0  0  0  0
 23 25  1  0  0  0  0
 25 26  1  0  0  0  0
 25 27  1  0  0  0  0
 25 28  1  0  0  0  0
M  END
$$$$

  -OEChem-03222214033D

 28 27  0     1  0  0  0  0  0999 V2000
   -3.3062   -3.7649    1.3044 H   0  0  0  0  0  0  0  0  0  0  0  0
   -3.2298   -2.8186    0.7621 C   0  0  0  0  0  0  0  0  0  0  0  0
   -3.9984   -2.1361    1.1321 H   0  0  0  0  0  0  0  0  0  0  0  0
   -3.3992   -3.0071   -0.3013 H   0  0  0  0  0  0  0  0  0  0  0  0
   -1.8563   -2.2086    0.9627 C   0  0  0  0  0  0  0  0  0  0  0  0
   -1.0269   -2.7744    1.6589 O   0  0  0  0  0  0  0  0  0  0  0  0
   -1.5409   -1.0149    0.3489 N   0  0  0  0  0  0  0  0  0  0  0  0
   -2.2631   -0.5856   -0.2269 H   0  0  0  0  0  0  0  0  0  0  0  0
   -0.2163   -0.3741    0.3564 C   0  0  1  0  0  0  0  0  0  0  0  0
    0.4184   -0.8202    1.1290 H   0  0  0  0  0  0  0  0  0  0  0  0
    0.4433   -0.5757   -1.0219 C   0  0  0  0  0  0  0  0  0  0  0  0
   -0.1665   -0.0742   -1.7831 H   0  0  0  0  0  0  0  0  0  0  0  0
    1.4200   -0.0805   -1.0210 H   0  0  0  0  0  0  0  0  0  0  0  0
    0.6443   -2.0613   -1.4000 C   0  0  0  0  0  0  0  0  0  0  0  0
    1.7093   -2.2469   -1.5622 H   0  0  0  0  0  0  0  0  0  0  0  0
    0.3286   -2.7331   -0.6000 H   0  0  0  0  0  0  0  0  0  0  0  0
   -0.1012   -2.4241   -2.6779 C   0  0  0  0  0  0  0  0  0  0  0  0
   -1.3130   -2.5477   -2.6257 O   0  0  0  0  0  0  0  0  0  0  0  0
    0.6124   -2.5682   -3.8151 O   0  0  0  0  0  0  0  0  0  0  0  0
   -0.0424   -2.7809   -4.4974 H   0  0  0  0  0  0  0  0  0  0  0  0
   -0.3285    1.1361    0.6506 C   0  0  0  0  0  0  0  0  0  0  0  0
   -1.1650    1.8152    0.0673 O   0  0  0  0  0  0  0  0  0  0  0  0
    0.5285    1.7414    1.5514 N   0  0  0  0  0  0  0  0  0  0  0  0
    1.1588    1.1414    2.0756 H   0  0  0  0  0  0  0  0  0  0  0  0
    0.4494    3.1552    1.8993 C   0  0  0  0  0  0  0  0  0  0  0  0
   -0.5085    3.3781    2.3808 H   0  0  0  0  0  0  0  0  0  0  0  0
    1.2552    3.4212    2.5902 H   0  0  0  0  0  0  0  0  0  0  0  0
    0.5461    3.7770    1.0029 H   0  0  0  0  0  0  0  0  0  0  0  0
  1  2  1  0  0  0  0
  2  3  1  0  0  0  0
  2  4  1  0  0  0  0
  2  5  1  0  0  0  0
  5  6  2  0  0  0  0
  5  7  1  0  0  0  0
  7  8  1  0  0  0  0
  7  9  1  0  0  0  0
  9 10  1  0  0  0  0
  9 11  1  0  0  0  0
  9 21  1  0  0  0  0
 11 12  1  0  0  0  0
 11 13  1  0  0  0  0
 11 14  1  0  0  0  0
 14 15  1  0  0  0  0
 14 16  1  0  0  0  0
 14 17  1  0  0  0  0
 17 18  2  0  0  0  0
 17 19  1  0  0  0  0
 19 20  1  0  0  0  0
 21 22  2  0  0  0  0
 21 23  1  0  0  0  0
 23 24  1  0  0  0  0
 23 25  1  0  0  0  0
 25 26  1  0  0  0  0
 25 27  1  0  0  0  0
 25 28  1  0  0  0  0
M  END
$$$$

  -OEChem-03222214033D

 28 27  0     1  0  0  0  0  0999 V2000
   -3.2734   -3.7628    1.3191 H   0  0  0  0  0  0  0  0  0  0  0  0
   -3.2279   -2.7868    0.8277 C   0  0  0  0  0  0  0  0  0  0  0  0
   -3.9076   -2.1016    1.3398 H   0  0  0  0  0  0  0  0  0  0  0  0
   -3.5494   -2.8996   -0.2105 H   0  0  0  0  0  0  0  0  0  0  0  0
   -1.8128   -2.2433    0.8737 C   0  0  0  0  0  0  0  0  0  0  0  0
   -0.9260   -2.8865    1.4128 O   0  0  0  0  0  0  0  0  0  0  0  0
   -1.5306   -1.0169    0.3096 N   0  0  0  0  0  0  0  0  0  0  0  0
   -2.3144   -0.4804   -0.0605 H   0  0  0  0  0  0  0  0  0  0  0  0
   -0.2153   -0.3556    0.3082 C   0  0  1  0  0  0  0  0  0  0  0  0
    0.4386   -0.8223    1.0523 H   0  0  0  0  0  0  0  0  0  0  0  0
    0.4532   -0.4594   -1.0795 C   0  0  0  0  0  0  0  0  0  0  0  0
   -0.1940    0.0726   -1.7846 H   0  0  0  0  0  0  0  0  0  0  0  0
    1.4093    0.0740   -1.0668 H   0  0  0  0  0  0  0  0  0  0  0  0
    0.7041   -1.9147   -1.5632 C   0  0  0  0  0  0  0  0  0  0  0  0
    1.7635   -2.1472   -1.4297 H   0  0  0  0  0  0  0  0  0  0  0  0
    0.1511   -2.6244   -0.9486 H   0  0  0  0  0  0  0  0  0  0  0  0
    0.3321   -2.2230   -3.0165 C   0  0  0  0  0  0  0  0  0  0  0  0
   -0.2311   -1.3949   -3.7099 O   0  0  0  0  0  0  0  0  0  0  0  0
    0.6669   -3.4492   -3.4699 O   0  0  0  0  0  0  0  0  0  0  0  0
    0.3596   -3.4680   -4.3891 H   0  0  0  0  0  0  0  0  0  0  0  0
   -0.3646    1.1345    0.6811 C   0  0  0  0  0  0  0  0  0  0  0  0
   -1.2836    1.7943    0.2102 O   0  0  0  0  0  0  0  0  0  0  0  0
    0.4976    1.7248    1.5870 N   0  0  0  0  0  0  0  0  0  0  0  0
    1.2071    1.1377    2.0159 H   0  0  0  0  0  0  0  0  0  0  0  0
    0.3775    3.1139    2.0143 C   0  0  0  0  0  0  0  0  0  0  0  0
   -0.5917    3.2858    2.4946 H   0  0  0  0  0  0  0  0  0  0  0  0
    1.1669    3.3599    2.7310 H   0  0  0  0  0  0  0  0  0  0  0  0
    0.4694    3.7874    1.1557 H   0  0  0  0  0  0  0  0  0  0  0  0
  1  2  1  0  0  0  0
  2  3  1  0  0  0  0
  2  4  1  0  0  0  0
  2  5  1  0  0  0  0
  5  6  2  0  0  0  0
  5  7  1  0  0  0  0
  7  8  1  0  0  0  0
  7  9  1  0  0  0  0
  9 10  1  0  0  0  0
  9 11  1  0  0  0  0
  9 21  1  0  0  0  0
 11 12  1  0  0  0  0
 11 13  1  0  0  0  0
 11 14  1  0  0  0  0
 14 15  1  0  0  0  0
 14 16  1  0  0  0  0
 14 17  1  0  0  0  0
 17 18  2  0  0  0  0
 17 19  1  0  0  0  0
 19 20  1  0  0  0  0
 21 22  2  0  0  0  0
 21 23  1  0  0  0  0
 23 24  1  0  0  0  0
 23 25  1  0  0  0  0
 25 26  1  0  0  0  0
 25 27  1  0  0  0  0
 25 28  1  0  0  0  0
M  END
$$$$

  -OEChem-03222214033D

 28 27  0     1  0  0  0  0  0999 V2000
   -3.2125   -3.8095    1.3059 H   0  0  0  0  0  0  0  0  0  0  0  0
   -3.1797   -2.8275    0.8257 C   0  0  0  0  0  0  0  0  0  0  0  0
   -3.8577   -2.1535    1.3549 H   0  0  0  0  0  0  0  0  0  0  0  0
   -3.5139   -2.9310   -0.2096 H   0  0  0  0  0  0  0  0  0  0  0  0
   -1.7677   -2.2746    0.8608 C   0  0  0  0  0  0  0  0  0  0  0  0
   -0.8758   -2.9037    1.4080 O   0  0  0  0  0  0  0  0  0  0  0  0
   -1.4919   -1.0576    0.2729 N   0  0  0  0  0  0  0  0  0  0  0  0
   -2.2814   -0.5215   -0.0851 H   0  0  0  0  0  0  0  0  0  0  0  0
   -0.1865   -0.3777    0.2995 C   0  0  1  0  0  0  0  0  0  0  0  0
    0.4452   -0.8134    1.0806 H   0  0  0  0  0  0  0  0  0  0  0  0
    0.5403   -0.5088   -1.0544 C   0  0  0  0  0  0  0  0  0  0  0  0
   -0.0916   -0.0345   -1.8148 H   0  0  0  0  0  0  0  0  0  0  0  0
    1.4839    0.0469   -1.0279 H   0  0  0  0  0  0  0  0  0  0  0  0
    0.8297   -1.9652   -1.4827 C   0  0  0  0  0  0  0  0  0  0  0  0
    1.7875   -2.2940   -1.0719 H   0  0  0  0  0  0  0  0  0  0  0  0
    0.0651   -2.6431   -1.1018 H   0  0  0  0  0  0  0  0  0  0  0  0
    0.8462   -2.1188   -2.9991 C   0  0  0  0  0  0  0  0  0  0  0  0
    1.6051   -1.4174   -3.6445 O   0  0  0  0  0  0  0  0  0  0  0  0
    0.0100   -3.0185   -3.5610 O   0  0  0  0  0  0  0  0  0  0  0  0
    0.1785   -2.9551   -4.5135 H   0  0  0  0  0  0  0  0  0  0  0  0
   -0.3714    1.1179    0.6290 C   0  0  0  0  0  0  0  0  0  0  0  0
   -1.2945    1.7435    0.1202 O   0  0  0  0  0  0  0  0  0  0  0  0
    0.4491    1.7450    1.5485 N   0  0  0  0  0  0  0  0  0  0  0  0
    1.1662    1.1853    2.0011 H   0  0  0  0  0  0  0  0  0  0  0  0
    0.2764    3.1343    1.9559 C   0  0  0  0  0  0  0  0  0  0  0  0
   -0.6907    3.2703    2.4514 H   0  0  0  0  0  0  0  0  0  0  0  0
    1.0673    3.4258    2.6538 H   0  0  0  0  0  0  0  0  0  0  0  0
    0.3228    3.7983    1.0862 H   0  0  0  0  0  0  0  0  0  0  0  0
  1  2  1  0  0  0  0
  2  3  1  0  0  0  0
  2  4  1  0  0  0  0
  2  5  1  0  0  0  0
  5  6  2  0  0  0  0
  5  7  1  0  0  0  0
  7  8  1  0  0  0  0
  7  9  1  0  0  0  0
  9 10  1  0  0  0  0
  9 11  1  0  0  0  0
  9 21  1  0  0  0  0
 11 12  1  0  0  0  0
 11 13  1  0  0  0  0
 11 14  1  0  0  0  0
 14 15  1  0  0  0  0
 14 16  1  0  0  0  0
 14 17  1  0  0  0  0
 17 18  2  0  0  0  0
 17 19  1  0  0  0  0
 19 20  1  0  0  0  0
 21 22  2  0  0  0  0
 21 23  1  0  0  0  0
 23 24  1  0  0  0  0
 23 25  1  0  0  0  0
 25 26  1  0  0  0  0
 25 27  1  0  0  0  0
 25 28  1  0  0  0  0
M  END
$$$$

  -OEChem-03222214033D

 28 27  0     1  0  0  0  0  0999 V2000
   -3.2281   -3.7776    1.3079 H   0  0  0  0  0  0  0  0  0  0  0  0
   -3.1969   -2.7882    0.8430 C   0  0  0  0  0  0  0  0  0  0  0  0
   -3.8424   -2.1122    1.4091 H   0  0  0  0  0  0  0  0  0  0  0  0
   -3.5720   -2.8678   -0.1802 H   0  0  0  0  0  0  0  0  0  0  0  0
   -1.7753   -2.2596    0.8331 C   0  0  0  0  0  0  0  0  0  0  0  0
   -0.8731   -2.9149    1.3301 O   0  0  0  0  0  0  0  0  0  0  0  0
   -1.5018   -1.0369    0.2564 N   0  0  0  0  0  0  0  0  0  0  0  0
   -2.2958   -0.4806   -0.0590 H   0  0  0  0  0  0  0  0  0  0  0  0
   -0.1932   -0.3644    0.2842 C   0  0  1  0  0  0  0  0  0  0  0  0
    0.4376   -0.8098    1.0604 H   0  0  0  0  0  0  0  0  0  0  0  0
    0.5292   -0.4932   -1.0706 C   0  0  0  0  0  0  0  0  0  0  0  0
   -0.0917   -0.0136   -1.8362 H   0  0  0  0  0  0  0  0  0  0  0  0
    1.4797    0.0504   -1.0339 H   0  0  0  0  0  0  0  0  0  0  0  0
    0.8011   -1.9545   -1.4907 C   0  0  0  0  0  0  0  0  0  0  0  0
    1.5988   -2.3795   -0.8764 H   0  0  0  0  0  0  0  0  0  0  0  0
   -0.0915   -2.5637   -1.3378 H   0  0  0  0  0  0  0  0  0  0  0  0
    1.1774   -2.0806   -2.9646 C   0  0  0  0  0  0  0  0  0  0  0  0
    1.8844   -1.2264   -3.4705 O   0  0  0  0  0  0  0  0  0  0  0  0
    0.7041   -3.1460   -3.6461 O   0  0  0  0  0  0  0  0  0  0  0  0
    1.0514   -3.0425   -4.5451 H   0  0  0  0  0  0  0  0  0  0  0  0
   -0.3702    1.1279    0.6318 C   0  0  0  0  0  0  0  0  0  0  0  0
   -1.3010    1.7591    0.1446 O   0  0  0  0  0  0  0  0  0  0  0  0
    0.4571    1.7411    1.5545 N   0  0  0  0  0  0  0  0  0  0  0  0
    1.1806    1.1759    1.9898 H   0  0  0  0  0  0  0  0  0  0  0  0
    0.2869    3.1238    1.9849 C   0  0  0  0  0  0  0  0  0  0  0  0
   -0.6789    3.2533    2.4847 H   0  0  0  0  0  0  0  0  0  0  0  0
    1.0797    3.4026    2.6858 H   0  0  0  0  0  0  0  0  0  0  0  0
    0.3324    3.8017    1.1259 H   0  0  0  0  0  0  0  0  0  0  0  0
  1  2  1  0  0  0  0
  2  3  1  0  0  0  0
  2  4  1  0  0  0  0
  2  5  1  0  0  0  0
  5  6  2  0  0  0  0
  5  7  1  0  0  0  0
  7  8  1  0  0  0  0
  7  9  1  0  0  0  0
  9 10  1  0  0  0  0
  9 11  1  0  0  0  0
  9 21  1  0  0  0  0
 11 12  1  0  0  0  0
 11 13  1  0  0  0  0
 11 14  1  0  0  0  0
 14 15  1  0  0  0  0
 14 16  1  0  0  0  0
 14 17  1  0  0  0  0
 17 18  2  0  0  0  0
 17 19  1  0  0  0  0
 19 20  1  0  0  0  0
 21 22  2  0  0  0  0
 21 23  1  0  0  0  0
 23 24  1  0  0  0  0
 23 25  1  0  0  0  0
 25 26  1  0  0  0  0
 25 27  1  0  0  0  0
 25 28  1  0  0  0  0
M  END
$$$$

  -OEChem-03222214033D

 28 27  0     1  0  0  0  0  0999 V2000
   -3.2591   -3.7469    1.3526 H   0  0  0  0  0  0  0  0  0  0  0  0
   -3.2318   -2.7584    0.8856 C   0  0  0  0  0  0  0  0  0  0  0  0
   -3.8410   -2.0718    1.4785 H   0  0  0  0  0  0  0  0  0  0  0  0
   -3.6522   -2.8322   -0.1203 H   0  0  0  0  0  0  0  0  0  0  0  0
   -1.8036   -2.2530    0.8146 C   0  0  0  0  0  0  0  0  0  0  0  0
   -0.8895   -2.9325    1.2537 O   0  0  0  0  0  0  0  0  0  0  0  0
   -1.5403   -1.0221    0.2512 N   0  0  0  0  0  0  0  0  0  0  0  0
   -2.3414   -0.4478   -0.0088 H   0  0  0  0  0  0  0  0  0  0  0  0
   -0.2287   -0.3542    0.2614 C   0  0  1  0  0  0  0  0  0  0  0  0
    0.4004   -0.8162    1.0295 H   0  0  0  0  0  0  0  0  0  0  0  0
    0.4993   -0.4868   -1.0921 C   0  0  0  0  0  0  0  0  0  0  0  0
    0.0369    0.1991   -1.8114 H   0  0  0  0  0  0  0  0  0  0  0  0
    1.5414   -0.1741   -0.9636 H   0  0  0  0  0  0  0  0  0  0  0  0
    0.4561   -1.9119   -1.6876 C   0  0  0  0  0  0  0  0  0  0  0  0
    0.9046   -2.6181   -0.9834 H   0  0  0  0  0  0  0  0  0  0  0  0
   -0.5808   -2.2148   -1.8496 H   0  0  0  0  0  0  0  0  0  0  0  0
    1.1795   -2.0381   -3.0275 C   0  0  0  0  0  0  0  0  0  0  0  0
    1.9862   -1.1886   -3.3651 O   0  0  0  0  0  0  0  0  0  0  0  0
    0.8818   -3.1133   -3.7872 O   0  0  0  0  0  0  0  0  0  0  0  0
    1.4338   -3.0209   -4.5786 H   0  0  0  0  0  0  0  0  0  0  0  0
   -0.3823    1.1340    0.6349 C   0  0  0  0  0  0  0  0  0  0  0  0
   -1.3272    1.7756    0.1902 O   0  0  0  0  0  0  0  0  0  0  0  0
    0.4716    1.7260    1.5470 N   0  0  0  0  0  0  0  0  0  0  0  0
    1.2141    1.1545    1.9401 H   0  0  0  0  0  0  0  0  0  0  0  0
    0.3210    3.1019    2.0057 C   0  0  0  0  0  0  0  0  0  0  0  0
   -0.6403    3.2334    2.5137 H   0  0  0  0  0  0  0  0  0  0  0  0
    1.1207    3.3566    2.7079 H   0  0  0  0  0  0  0  0  0  0  0  0
    0.3703    3.7957    1.1597 H   0  0  0  0  0  0  0  0  0  0  0  0
  1  2  1  0  0  0  0
  2  3  1  0  0  0  0
  2  4  1  0  0  0  0
  2  5  1  0  0  0  0
  5  6  2  0  0  0  0
  5  7  1  0  0  0  0
  7  8  1  0  0  0  0
  7  9  1  0  0  0  0
  9 10  1  0  0  0  0
  9 11  1  0  0  0  0
  9 21  1  0  0  0  0
 11 12  1  0  0  0  0
 11 13  1  0  0  0  0
 11 14  1  0  0  0  0
 14 15  1  0  0  0  0
 14 16  1  0  0  0  0
 14 17  1  0  0  0  0
 17 18  2  0  0  0  0
 17 19  1  0  0  0  0
 19 20  1  0  0  0  0
 21 22  2  0  0  0  0
 21 23  1  0  0  0  0
 23 24  1  0  0  0  0
 23 25  1  0  0  0  0
 25 26  1  0  0  0  0
 25 27  1  0  0  0  0
 25 28  1  0  0  0  0
M  END
$$$$

  -OEChem-03222214033D

 28 27  0     1  0  0  0  0  0999 V2000
   -3.2690   -3.7499    1.3434 H   0  0  0  0  0  0  0  0  0  0  0  0
   -3.2354   -2.7764    0.8463 C   0  0  0  0  0  0  0  0  0  0  0  0
   -3.8750   -2.0797    1.3936 H   0  0  0  0  0  0  0  0  0  0  0  0
   -3.6161   -2.8873   -0.1718 H   0  0  0  0  0  0  0  0  0  0  0  0
   -1.8112   -2.2557    0.8120 C   0  0  0  0  0  0  0  0  0  0  0  0
   -0.9026   -2.9280    1.2727 O   0  0  0  0  0  0  0  0  0  0  0  0
   -1.5457   -1.0192    0.2613 N   0  0  0  0  0  0  0  0  0  0  0  0
   -2.3450   -0.4510   -0.0165 H   0  0  0  0  0  0  0  0  0  0  0  0
   -0.2338   -0.3507    0.2741 C   0  0  1  0  0  0  0  0  0  0  0  0
    0.4027   -0.8238    1.0291 H   0  0  0  0  0  0  0  0  0  0  0  0
    0.4745   -0.4632   -1.0911 C   0  0  0  0  0  0  0  0  0  0  0  0
    0.0218    0.2391   -1.8005 H   0  0  0  0  0  0  0  0  0  0  0  0
    1.5190   -0.1626   -0.9538 H   0  0  0  0  0  0  0  0  0  0  0  0
    0.4173   -1.8804   -1.7041 C   0  0  0  0  0  0  0  0  0  0  0  0
    0.6536   -2.6162   -0.9308 H   0  0  0  0  0  0  0  0  0  0  0  0
   -0.5928   -2.0867   -2.0658 H   0  0  0  0  0  0  0  0  0  0  0  0
    1.3979   -2.1058   -2.8551 C   0  0  0  0  0  0  0  0  0  0  0  0
    2.0943   -1.1885   -3.2549 O   0  0  0  0  0  0  0  0  0  0  0  0
    1.4374   -3.3447   -3.3889 O   0  0  0  0  0  0  0  0  0  0  0  0
    2.1054   -3.2941   -4.0895 H   0  0  0  0  0  0  0  0  0  0  0  0
   -0.3802    1.1342    0.6629 C   0  0  0  0  0  0  0  0  0  0  0  0
   -1.3140    1.7896    0.2152 O   0  0  0  0  0  0  0  0  0  0  0  0
    0.4804    1.7130    1.5771 N   0  0  0  0  0  0  0  0  0  0  0  0
    1.2206    1.1339    1.9631 H   0  0  0  0  0  0  0  0  0  0  0  0
    0.3686    3.1000    2.0122 C   0  0  0  0  0  0  0  0  0  0  0  0
   -0.6018    3.2763    2.4884 H   0  0  0  0  0  0  0  0  0  0  0  0
    1.1557    3.3351    2.7352 H   0  0  0  0  0  0  0  0  0  0  0  0
    0.4704    3.7780    1.1581 H   0  0  0  0  0  0  0  0  0  0  0  0
  1  2  1  0  0  0  0
  2  3  1  0  0  0  0
  2  4  1  0  0  0  0
  2  5  1  0  0  0  0
  5  6  2  0  0  0  0
  5  7  1  0  0  0  0
  7  8  1  0  0  0  0
  7  9  1  0  0  0  0
  9 10  1  0  0  0  0
  9 11  1  0  0  0  0
  9 21  1  0  0  0  0
 11 12  1  0  0  0  0
 11 13  1  0  0  0  0
 11 14  1  0  0  0  0
 14 15  1  0  0  0  0
 14 16  1  0  0  0  0
 14 17  1  0  0  0  0
 17 18  2  0  0  0  0
 17 19  1  0  0  0  0
 19 20  1  0  0  0  0
 21 22  2  0  0  0  0
 21 23  1  0  0  0  0
 23 24  1  0  0  0  0
 23 25  1  0  0  0  0
 25 26  1  0  0  0  0
 25 27  1  0  0  0  0
 25 28  1  0  0  0  0
M  END
$$$$

  -OEChem-03222214033D

 28 27  0     1  0  0  0  0  0999 V2000
   -3.2806   -3.7523    1.3194 H   0  0  0  0  0  0  0  0  0  0  0  0
   -3.2374   -2.7775    0.8255 C   0  0  0  0  0  0  0  0  0  0  0  0
   -3.8913   -2.0833    1.3588 H   0  0  0  0  0  0  0  0  0  0  0  0
   -3.5935   -2.8868   -0.2016 H   0  0  0  0  0  0  0  0  0  0  0  0
   -1.8142   -2.2535    0.8267 C   0  0  0  0  0  0  0  0  0  0  0  0
   -0.9187   -2.9163    1.3250 O   0  0  0  0  0  0  0  0  0  0  0  0
   -1.5377   -1.0205    0.2738 N   0  0  0  0  0  0  0  0  0  0  0  0
   -2.3307   -0.4580   -0.0319 H   0  0  0  0  0  0  0  0  0  0  0  0
   -0.2240   -0.3555    0.2890 C   0  0  1  0  0  0  0  0  0  0  0  0
    0.4147   -0.8303    1.0413 H   0  0  0  0  0  0  0  0  0  0  0  0
    0.4763   -0.4599   -1.0820 C   0  0  0  0  0  0  0  0  0  0  0  0
    0.0317    0.2531   -1.7852 H   0  0  0  0  0  0  0  0  0  0  0  0
    1.5192   -0.1607   -0.9322 H   0  0  0  0  0  0  0  0  0  0  0  0
    0.4173   -1.8702   -1.7170 C   0  0  0  0  0  0  0  0  0  0  0  0
    0.4141   -2.6212   -0.9235 H   0  0  0  0  0  0  0  0  0  0  0  0
   -0.5096   -1.9823   -2.2848 H   0  0  0  0  0  0  0  0  0  0  0  0
    1.6036   -2.2183   -2.6176 C   0  0  0  0  0  0  0  0  0  0  0  0
    2.3904   -1.3518   -2.9591 O   0  0  0  0  0  0  0  0  0  0  0  0
    1.7090   -3.5037   -3.0154 O   0  0  0  0  0  0  0  0  0  0  0  0
    2.5028   -3.5300   -3.5709 H   0  0  0  0  0  0  0  0  0  0  0  0
   -0.3722    1.1309    0.6726 C   0  0  0  0  0  0  0  0  0  0  0  0
   -1.2980    1.7877    0.2098 O   0  0  0  0  0  0  0  0  0  0  0  0
    0.4837    1.7136    1.5886 N   0  0  0  0  0  0  0  0  0  0  0  0
    1.2154    1.1332    1.9887 H   0  0  0  0  0  0  0  0  0  0  0  0
    0.3710    3.1030    2.0160 C   0  0  0  0  0  0  0  0  0  0  0  0
   -0.6029    3.2832    2.4834 H   0  0  0  0  0  0  0  0  0  0  0  0
    1.1525    3.3401    2.7443 H   0  0  0  0  0  0  0  0  0  0  0  0
    0.4812    3.7766    1.1596 H   0  0  0  0  0  0  0  0  0  0  0  0
  1  2  1  0  0  0  0
  2  3  1  0  0  0  0
  2  4  1  0  0  0  0
  2  5  1  0  0  0  0
  5  6  2  0  0  0  0
  5  7  1  0  0  0  0
  7  8  1  0  0  0  0
  7  9  1  0  0  0  0
  9 10  1  0  0  0  0
  9 11  1  0  0  0  0
  9 21  1  0  0  0  0
 11 12  1  0  0  0  0
 11 13  1  0  0  0  0
 11 14  1  0  0  0  0
 14 15  1  0  0  0  0
 14 16  1  0  0  0  0
 14 17  1  0  0  0  0
 17 18  2  0  0  0  0
 17 19  1  0  0  0  0
 19 20  1  0  0  0  0
 21 22  2  0  0  0  0
 21 23  1  0  0  0  0
 23 24  1  0  0  0  0
 23 25  1  0  0  0  0
 25 26  1  0  0  0  0
 25 27  1  0  0  0  0
 25 28  1  0  0  0  0
M  END
$$$$

  -OEChem-03222214033D

 28 27  0     1  0  0  0  0  0999 V2000
   -3.3054   -3.7391    1.3336 H   0  0  0  0  0  0  0  0  0  0  0  0
   -3.2560   -2.7646    0.8398 C   0  0  0  0  0  0  0  0  0  0  0  0
   -3.9020   -2.0652    1.3759 H   0  0  0  0  0  0  0  0  0  0  0  0
   -3.6162   -2.8708   -0.1862 H   0  0  0  0  0  0  0  0  0  0  0  0
   -1.8286   -2.2523    0.8364 C   0  0  0  0  0  0  0  0  0  0  0  0
   -0.9384   -2.9181    1.3402 O   0  0  0  0  0  0  0  0  0  0  0  0
   -1.5434   -1.0228    0.2795 N   0  0  0  0  0  0  0  0  0  0  0  0
   -2.3335   -0.4565   -0.0269 H   0  0  0  0  0  0  0  0  0  0  0  0
   -0.2266   -0.3626    0.2925 C   0  0  1  0  0  0  0  0  0  0  0  0
    0.4081   -0.8371    1.0483 H   0  0  0  0  0  0  0  0  0  0  0  0
    0.4867   -0.4612   -1.0742 C   0  0  0  0  0  0  0  0  0  0  0  0
    0.0374    0.2529   -1.7733 H   0  0  0  0  0  0  0  0  0  0  0  0
    1.5210   -0.1406   -0.9145 H   0  0  0  0  0  0  0  0  0  0  0  0
    0.4471   -1.8638   -1.7375 C   0  0  0  0  0  0  0  0  0  0  0  0
    0.1709   -2.6142   -0.9955 H   0  0  0  0  0  0  0  0  0  0  0  0
   -0.3163   -1.8778   -2.5189 H   0  0  0  0  0  0  0  0  0  0  0  0
    1.7724   -2.3488   -2.3299 C   0  0  0  0  0  0  0  0  0  0  0  0
    2.6810   -1.5626   -2.5359 O   0  0  0  0  0  0  0  0  0  0  0  0
    1.8577   -3.6625   -2.6284 O   0  0  0  0  0  0  0  0  0  0  0  0
    2.7485   -3.7799   -2.9917 H   0  0  0  0  0  0  0  0  0  0  0  0
   -0.3744    1.1253    0.6710 C   0  0  0  0  0  0  0  0  0  0  0  0
   -1.3035    1.7796    0.2110 O   0  0  0  0  0  0  0  0  0  0  0  0
    0.4817    1.7096    1.5859 N   0  0  0  0  0  0  0  0  0  0  0  0
    1.2206    1.1329    1.9784 H   0  0  0  0  0  0  0  0  0  0  0  0
    0.3624    3.0965    2.0194 C   0  0  0  0  0  0  0  0  0  0  0  0
   -0.6096    3.2676    2.4940 H   0  0  0  0  0  0  0  0  0  0  0  0
    1.1471    3.3362    2.7436 H   0  0  0  0  0  0  0  0  0  0  0  0
    0.4618    3.7746    1.1652 H   0  0  0  0  0  0  0  0  0  0  0  0
  1  2  1  0  0  0  0
  2  3  1  0  0  0  0
  2  4  1  0  0  0  0
  2  5  1  0  0  0  0
  5  6  2  0  0  0  0
  5  7  1  0  0  0  0
  7  8  1  0  0  0  0
  7  9  1  0  0  0  0
  9 10  1  0  0  0  0
  9 11  1  0  0  0  0
  9 21  1  0  0  0  0
 11 12  1  0  0  0  0
 11 13  1  0  0  0  0
 11 14  1  0  0  0  0
 14 15  1  0  0  0  0
 14 16  1  0  0  0  0
 14 17  1  0  0  0  0
 17 18  2  0  0  0  0
 17 19  1  0  0  0  0
 19 20  1  0  0  0  0
 21 22  2  0  0  0  0
 21 23  1  0  0  0  0
 23 24  1  0  0  0  0
 23 25  1  0  0  0  0
 25 26  1  0  0  0  0
 25 27  1  0  0  0  0
 25 28  1  0  0  0  0
M  END
$$$$

  -OEChem-03222214033D

 28 27  0     1  0  0  0  0  0999 V2000
   -3.3626   -3.7067    1.3906 H   0  0  0  0  0  0  0  0  0  0  0  0
   -3.3036   -2.7250    0.9122 C   0  0  0  0  0  0  0  0  0  0  0  0
   -3.9243   -2.0222    1.4730 H   0  0  0  0  0  0  0  0  0  0  0  0
   -3.6877   -2.8063   -0.1074 H   0  0  0  0  0  0  0  0  0  0  0  0
   -1.8666   -2.2404    0.8877 C   0  0  0  0  0  0  0  0  0  0  0  0
   -0.9859   -2.9162    1.3936 O   0  0  0  0  0  0  0  0  0  0  0  0
   -1.5626   -1.0302    0.2992 N   0  0  0  0  0  0  0  0  0  0  0  0
   -2.3462   -0.4581   -0.0127 H   0  0  0  0  0  0  0  0  0  0  0  0
   -0.2395   -0.3814    0.3040 C   0  0  1  0  0  0  0  0  0  0  0  0
    0.3802   -0.8391    1.0826 H   0  0  0  0  0  0  0  0  0  0  0  0
    0.5041   -0.5253   -1.0433 C   0  0  0  0  0  0  0  0  0  0  0  0
    0.0335    0.1549   -1.7617 H   0  0  0  0  0  0  0  0  0  0  0  0
    1.5315   -0.1696   -0.9129 H   0  0  0  0  0  0  0  0  0  0  0  0
    0.4826   -1.9416   -1.6778 C   0  0  0  0  0  0  0  0  0  0  0  0
   -0.0844   -2.6459   -1.0708 H   0  0  0  0  0  0  0  0  0  0  0  0
   -0.0122   -1.8831   -2.6508 H   0  0  0  0  0  0  0  0  0  0  0  0
    1.8663   -2.5592   -1.8816 C   0  0  0  0  0  0  0  0  0  0  0  0
    2.7699   -2.3019   -1.1044 O   0  0  0  0  0  0  0  0  0  0  0  0
    2.0188   -3.3836   -2.9398 O   0  0  0  0  0  0  0  0  0  0  0  0
    2.9393   -3.6835   -2.8903 H   0  0  0  0  0  0  0  0  0  0  0  0
   -0.3764    1.1176    0.6384 C   0  0  0  0  0  0  0  0  0  0  0  0
   -1.2938    1.7673    0.1490 O   0  0  0  0  0  0  0  0  0  0  0  0
    0.4778    1.7199    1.5431 N   0  0  0  0  0  0  0  0  0  0  0  0
    1.1974    1.1419    1.9694 H   0  0  0  0  0  0  0  0  0  0  0  0
    0.3553    3.1140    1.9519 C   0  0  0  0  0  0  0  0  0  0  0  0
   -0.5950    3.2781    2.4707 H   0  0  0  0  0  0  0  0  0  0  0  0
    1.1712    3.3835    2.6294 H   0  0  0  0  0  0  0  0  0  0  0  0
    0.3995    3.7751    1.0799 H   0  0  0  0  0  0  0  0  0  0  0  0
  1  2  1  0  0  0  0
  2  3  1  0  0  0  0
  2  4  1  0  0  0  0
  2  5  1  0  0  0  0
  5  6  2  0  0  0  0
  5  7  1  0  0  0  0
  7  8  1  0  0  0  0
  7  9  1  0  0  0  0
  9 10  1  0  0  0  0
  9 11  1  0  0  0  0
  9 21  1  0  0  0  0
 11 12  1  0  0  0  0
 11 13  1  0  0  0  0
 11 14  1  0  0  0  0
 14 15  1  0  0  0  0
 14 16  1  0  0  0  0
 14 17  1  0  0  0  0
 17 18  2  0  0  0  0
 17 19  1  0  0  0  0
 19 20  1  0  0  0  0
 21 22  2  0  0  0  0
 21 23  1  0  0  0  0
 23 24  1  0  0  0  0
 23 25  1  0  0  0  0
 25 26  1  0  0  0  0
 25 27  1  0  0  0  0
 25 28  1  0  0  0  0
M  END
$$$$

  -OEChem-03222214033D

 28 27  0     1  0  0  0  0  0999 V2000
   -3.3497   -3.6951    1.4045 H   0  0  0  0  0  0  0  0  0  0  0  0
   -3.2978   -2.7197    0.9126 C   0  0  0  0  0  0  0  0  0  0  0  0
   -3.9071   -2.0087    1.4758 H   0  0  0  0  0  0  0  0  0  0  0  0
   -3.7002   -2.8130   -0.0990 H   0  0  0  0  0  0  0  0  0  0  0  0
   -1.8603   -2.2392    0.8558 C   0  0  0  0  0  0  0  0  0  0  0  0
   -0.9665   -2.9300    1.3164 O   0  0  0  0  0  0  0  0  0  0  0  0
   -1.5695   -1.0192    0.2808 N   0  0  0  0  0  0  0  0  0  0  0  0
   -2.3598   -0.4377    0.0051 H   0  0  0  0  0  0  0  0  0  0  0  0
   -0.2483   -0.3672    0.2867 C   0  0  1  0  0  0  0  0  0  0  0  0
    0.3713   -0.8315    1.0616 H   0  0  0  0  0  0  0  0  0  0  0  0
    0.5061   -0.5011   -1.0556 C   0  0  0  0  0  0  0  0  0  0  0  0
    0.0111    0.1686   -1.7678 H   0  0  0  0  0  0  0  0  0  0  0  0
    1.5279   -0.1236   -0.9423 H   0  0  0  0  0  0  0  0  0  0  0  0
    0.4972   -1.9143   -1.6971 C   0  0  0  0  0  0  0  0  0  0  0  0
   -0.2979   -2.5437   -1.3001 H   0  0  0  0  0  0  0  0  0  0  0  0
    0.3036   -1.7993   -2.7667 H   0  0  0  0  0  0  0  0  0  0  0  0
    1.8159   -2.6788   -1.5670 C   0  0  0  0  0  0  0  0  0  0  0  0
    2.6664   -2.3116   -0.7735 O   0  0  0  0  0  0  0  0  0  0  0  0
    1.9750   -3.7523   -2.3700 O   0  0  0  0  0  0  0  0  0  0  0  0
    2.8436   -4.1120   -2.1343 H   0  0  0  0  0  0  0  0  0  0  0  0
   -0.3855    1.1262    0.6427 C   0  0  0  0  0  0  0  0  0  0  0  0
   -1.3108    1.7804    0.1748 O   0  0  0  0  0  0  0  0  0  0  0  0
    0.4748    1.7144    1.5506 N   0  0  0  0  0  0  0  0  0  0  0  0
    1.2056    1.1325    1.9521 H   0  0  0  0  0  0  0  0  0  0  0  0
    0.3523    3.0993    1.9886 C   0  0  0  0  0  0  0  0  0  0  0  0
   -0.6155    3.2635    2.4741 H   0  0  0  0  0  0  0  0  0  0  0  0
    1.1435    3.3410    2.7049 H   0  0  0  0  0  0  0  0  0  0  0  0
    0.4389    3.7802    1.1353 H   0  0  0  0  0  0  0  0  0  0  0  0
  1  2  1  0  0  0  0
  2  3  1  0  0  0  0
  2  4  1  0  0  0  0
  2  5  1  0  0  0  0
  5  6  2  0  0  0  0
  5  7  1  0  0  0  0
  7  8  1  0  0  0  0
  7  9  1  0  0  0  0
  9 10  1  0  0  0  0
  9 11  1  0  0  0  0
  9 21  1  0  0  0  0
 11 12  1  0  0  0  0
 11 13  1  0  0  0  0
 11 14  1  0  0  0  0
 14 15  1  0  0  0  0
 14 16  1  0  0  0  0
 14 17  1  0  0  0  0
 17 18  2  0  0  0  0
 17 19  1  0  0  0  0
 19 20  1  0  0  0  0
 21 22  2  0  0  0  0
 21 23  1  0  0  0  0
 23 24  1  0  0  0  0
 23 25  1  0  0  0  0
 25 26  1  0  0  0  0
 25 27  1  0  0  0  0
 25 28  1  0  0  0  0
M  END
$$$$

  -OEChem-03222214033D

 28 27  0     1  0  0  0  0  0999 V2000
   -3.3092   -3.7193    1.3835 H   0  0  0  0  0  0  0  0  0  0  0  0
   -3.2720   -2.7467    0.8850 C   0  0  0  0  0  0  0  0  0  0  0  0
   -3.8857   -2.0392    1.4480 H   0  0  0  0  0  0  0  0  0  0  0  0
   -3.6799   -2.8519   -0.1232 H   0  0  0  0  0  0  0  0  0  0  0  0
   -1.8403   -2.2506    0.8159 C   0  0  0  0  0  0  0  0  0  0  0  0
   -0.9325   -2.9461    1.2406 O   0  0  0  0  0  0  0  0  0  0  0  0
   -1.5687   -1.0168    0.2609 N   0  0  0  0  0  0  0  0  0  0  0  0
   -2.3675   -0.4369    0.0076 H   0  0  0  0  0  0  0  0  0  0  0  0
   -0.2536   -0.3528    0.2744 C   0  0  1  0  0  0  0  0  0  0  0  0
    0.3684   -0.8243    1.0432 H   0  0  0  0  0  0  0  0  0  0  0  0
    0.5029   -0.4695   -1.0670 C   0  0  0  0  0  0  0  0  0  0  0  0
    0.0042    0.1999   -1.7766 H   0  0  0  0  0  0  0  0  0  0  0  0
    1.5260   -0.0949   -0.9541 H   0  0  0  0  0  0  0  0  0  0  0  0
    0.4960   -1.8818   -1.7031 C   0  0  0  0  0  0  0  0  0  0  0  0
   -0.4406   -2.4096   -1.5223 H   0  0  0  0  0  0  0  0  0  0  0  0
    0.5846   -1.7648   -2.7859 H   0  0  0  0  0  0  0  0  0  0  0  0
    1.6617   -2.7721   -1.2679 C   0  0  0  0  0  0  0  0  0  0  0  0
    2.5146   -2.3452   -0.5067 O   0  0  0  0  0  0  0  0  0  0  0  0
    1.6916   -4.0205   -1.7797 O   0  0  0  0  0  0  0  0  0  0  0  0
    2.4624   -4.4380   -1.3666 H   0  0  0  0  0  0  0  0  0  0  0  0
   -0.3934    1.1332    0.6565 C   0  0  0  0  0  0  0  0  0  0  0  0
   -1.3196    1.7936    0.1995 O   0  0  0  0  0  0  0  0  0  0  0  0
    0.4694    1.7085    1.5704 N   0  0  0  0  0  0  0  0  0  0  0  0
    1.2093    1.1245    1.9521 H   0  0  0  0  0  0  0  0  0  0  0  0
    0.3622    3.0941    2.0101 C   0  0  0  0  0  0  0  0  0  0  0  0
   -0.6085    3.2715    2.4850 H   0  0  0  0  0  0  0  0  0  0  0  0
    1.1489    3.3230    2.7356 H   0  0  0  0  0  0  0  0  0  0  0  0
    0.4676    3.7752    1.1590 H   0  0  0  0  0  0  0  0  0  0  0  0
  1  2  1  0  0  0  0
  2  3  1  0  0  0  0
  2  4  1  0  0  0  0
  2  5  1  0  0  0  0
  5  6  2  0  0  0  0
  5  7  1  0  0  0  0
  7  8  1  0  0  0  0
  7  9  1  0  0  0  0
  9 10  1  0  0  0  0
  9 11  1  0  0  0  0
  9 21  1  0  0  0  0
 11 12  1  0  0  0  0
 11 13  1  0  0  0  0
 11 14  1  0  0  0  0
 14 15  1  0  0  0  0
 14 16  1  0  0  0  0
 14 17  1  0  0  0  0
 17 18  2  0  0  0  0
 17 19  1  0  0  0  0
 19 20  1  0  0  0  0
 21 22  2  0  0  0  0
 21 23  1  0  0  0  0
 23 24  1  0  0  0  0
 23 25  1  0  0  0  0
 25 26  1  0  0  0  0
 25 27  1  0  0  0  0
 25 28  1  0  0  0  0
M  END
$$$$

  -OEChem-03222214033D

 28 27  0     1  0  0  0  0  0999 V2000
   -3.2673   -3.7564    1.3285 H   0  0  0  0  0  0  0  0  0  0  0  0
   -3.2346   -2.7779    0.8410 C   0  0  0  0  0  0  0  0  0  0  0  0
   -3.8731   -2.0865    1.3962 H   0  0  0  0  0  0  0  0  0  0  0  0
   -3.6168   -2.8792   -0.1777 H   0  0  0  0  0  0  0  0  0  0  0  0
   -1.8104   -2.2570    0.8100 C   0  0  0  0  0  0  0  0  0  0  0  0
   -0.9046   -2.9334    1.2682 O   0  0  0  0  0  0  0  0  0  0  0  0
   -1.5463   -1.0194    0.2600 N   0  0  0  0  0  0  0  0  0  0  0  0
   -2.3476   -0.4521   -0.0132 H   0  0  0  0  0  0  0  0  0  0  0  0
   -0.2370   -0.3450    0.2748 C   0  0  1  0  0  0  0  0  0  0  0  0
    0.3932   -0.8144    1.0382 H   0  0  0  0  0  0  0  0  0  0  0  0
    0.5018   -0.4538   -1.0778 C   0  0  0  0  0  0  0  0  0  0  0  0
    0.0084    0.2230   -1.7839 H   0  0  0  0  0  0  0  0  0  0  0  0
    1.5323   -0.0993   -0.9654 H   0  0  0  0  0  0  0  0  0  0  0  0
    0.4857   -1.8652   -1.7086 C   0  0  0  0  0  0  0  0  0  0  0  0
   -0.5232   -2.2818   -1.7178 H   0  0  0  0  0  0  0  0  0  0  0  0
    0.8057   -1.7845   -2.7500 H   0  0  0  0  0  0  0  0  0  0  0  0
    1.4303   -2.8548   -1.0254 C   0  0  0  0  0  0  0  0  0  0  0  0
    2.3366   -2.4434   -0.3187 O   0  0  0  0  0  0  0  0  0  0  0  0
    1.2195   -4.1658   -1.2680 O   0  0  0  0  0  0  0  0  0  0  0  0
    1.8590   -4.6267   -0.7043 H   0  0  0  0  0  0  0  0  0  0  0  0
   -0.3854    1.1389    0.6621 C   0  0  0  0  0  0  0  0  0  0  0  0
   -1.3131    1.7968    0.2045 O   0  0  0  0  0  0  0  0  0  0  0  0
    0.4754    1.7156    1.5770 N   0  0  0  0  0  0  0  0  0  0  0  0
    1.2117    1.1306    1.9639 H   0  0  0  0  0  0  0  0  0  0  0  0
    0.3557    3.0959    2.0298 C   0  0  0  0  0  0  0  0  0  0  0  0
   -0.6183    3.2610    2.5023 H   0  0  0  0  0  0  0  0  0  0  0  0
    1.1372    3.3233    2.7612 H   0  0  0  0  0  0  0  0  0  0  0  0
    0.4602    3.7861    1.1862 H   0  0  0  0  0  0  0  0  0  0  0  0
  1  2  1  0  0  0  0
  2  3  1  0  0  0  0
  2  4  1  0  0  0  0
  2  5  1  0  0  0  0
  5  6  2  0  0  0  0
  5  7  1  0  0  0  0
  7  8  1  0  0  0  0
  7  9  1  0  0  0  0
  9 10  1  0  0  0  0
  9 11  1  0  0  0  0
  9 21  1  0  0  0  0
 11 12  1  0  0  0  0
 11 13  1  0  0  0  0
 11 14  1  0  0  0  0
 14 15  1  0  0  0  0
 14 16  1  0  0  0  0
 14 17  1  0  0  0  0
 17 18  2  0  0  0  0
 17 19  1  0  0  0  0
 19 20  1  0  0  0  0
 21 22  2  0  0  0  0
 21 23  1  0  0  0  0
 23 24  1  0  0  0  0
 23 25  1  0  0  0  0
 25 26  1  0  0  0  0
 25 27  1  0  0  0  0
 25 28  1  0  0  0  0
M  END
$$$$

  -OEChem-03222214033D

 28 27  0     1  0  0  0  0  0999 V2000
   -3.2439   -3.8030    1.2729 H   0  0  0  0  0  0  0  0  0  0  0  0
   -3.2016   -2.8241    0.7874 C   0  0  0  0  0  0  0  0  0  0  0  0
   -3.9021   -2.1516    1.2882 H   0  0  0  0  0  0  0  0  0  0  0  0
   -3.4984   -2.9370   -0.2580 H   0  0  0  0  0  0  0  0  0  0  0  0
   -1.7955   -2.2618    0.8679 C   0  0  0  0  0  0  0  0  0  0  0  0
   -0.9259   -2.8824    1.4568 O   0  0  0  0  0  0  0  0  0  0  0  0
   -1.5193   -1.0331    0.3036 N   0  0  0  0  0  0  0  0  0  0  0  0
   -2.3076   -0.5022   -0.0632 H   0  0  0  0  0  0  0  0  0  0  0  0
   -0.2123   -0.3539    0.3161 C   0  0  1  0  0  0  0  0  0  0  0  0
    0.4292   -0.8145    1.0754 H   0  0  0  0  0  0  0  0  0  0  0  0
    0.4969   -0.4518   -1.0558 C   0  0  0  0  0  0  0  0  0  0  0  0
    0.0119    0.2445   -1.7487 H   0  0  0  0  0  0  0  0  0  0  0  0
    1.5355   -0.1224   -0.9403 H   0  0  0  0  0  0  0  0  0  0  0  0
    0.4758   -1.8487   -1.7127 C   0  0  0  0  0  0  0  0  0  0  0  0
   -0.5556   -2.1504   -1.9100 H   0  0  0  0  0  0  0  0  0  0  0  0
    0.9910   -1.8021   -2.6750 H   0  0  0  0  0  0  0  0  0  0  0  0
    1.1489   -2.9307   -0.8716 C   0  0  0  0  0  0  0  0  0  0  0  0
    2.1168   -2.6363   -0.1891 O   0  0  0  0  0  0  0  0  0  0  0  0
    0.6432   -4.1804   -0.9460 O   0  0  0  0  0  0  0  0  0  0  0  0
    1.1296   -4.6811   -0.2729 H   0  0  0  0  0  0  0  0  0  0  0  0
   -0.3734    1.1349    0.6808 C   0  0  0  0  0  0  0  0  0  0  0  0
   -1.2871    1.7880    0.1890 O   0  0  0  0  0  0  0  0  0  0  0  0
    0.4776    1.7293    1.5931 N   0  0  0  0  0  0  0  0  0  0  0  0
    1.1955    1.1462    2.0155 H   0  0  0  0  0  0  0  0  0  0  0  0
    0.3523    3.1178    2.0185 C   0  0  0  0  0  0  0  0  0  0  0  0
   -0.6277    3.2922    2.4755 H   0  0  0  0  0  0  0  0  0  0  0  0
    1.1247    3.3589    2.7553 H   0  0  0  0  0  0  0  0  0  0  0  0
    0.4676    3.7923    1.1635 H   0  0  0  0  0  0  0  0  0  0  0  0
  1  2  1  0  0  0  0
  2  3  1  0  0  0  0
  2  4  1  0  0  0  0
  2  5  1  0  0  0  0
  5  6  2  0  0  0  0
  5  7  1  0  0  0  0
  7  8  1  0  0  0  0
  7  9  1  0  0  0  0
  9 10  1  0  0  0  0
  9 11  1  0  0  0  0
  9 21  1  0  0  0  0
 11 12  1  0  0  0  0
 11 13  1  0  0  0  0
 11 14  1  0  0  0  0
 14 15  1  0  0  0  0
 14 16  1  0  0  0  0
 14 17  1  0  0  0  0
 17 18  2  0  0  0  0
 17 19  1  0  0  0  0
 19 20  1  0  0  0  0
 21 22  2  0  0  0  0
 21 23  1  0  0  0  0
 23 24  1  0  0  0  0
 23 25  1  0  0  0  0
 25 26  1  0  0  0  0
 25 27  1  0  0  0  0
 25 28  1  0  0  0  0
M  END
$$$$

  -OEChem-03222214033D

 28 27  0     1  0  0  0  0  0999 V2000
   -3.2600   -3.8156    1.2695 H   0  0  0  0  0  0  0  0  0  0  0  0
   -3.2012   -2.8402    0.7785 C   0  0  0  0  0  0  0  0  0  0  0  0
   -3.9437   -2.1744    1.2250 H   0  0  0  0  0  0  0  0  0  0  0  0
   -3.4262   -2.9676   -0.2831 H   0  0  0  0  0  0  0  0  0  0  0  0
   -1.8125   -2.2545    0.9463 C   0  0  0  0  0  0  0  0  0  0  0  0
   -0.9922   -2.8287    1.6439 O   0  0  0  0  0  0  0  0  0  0  0  0
   -1.5092   -1.0441    0.3575 N   0  0  0  0  0  0  0  0  0  0  0  0
   -2.2750   -0.5464   -0.0929 H   0  0  0  0  0  0  0  0  0  0  0  0
   -0.1989   -0.3696    0.3657 C   0  0  1  0  0  0  0  0  0  0  0  0
    0.4442   -0.8199    1.1299 H   0  0  0  0  0  0  0  0  0  0  0  0
    0.5045   -0.4683   -1.0140 C   0  0  0  0  0  0  0  0  0  0  0  0
    0.0403    0.2474   -1.7015 H   0  0  0  0  0  0  0  0  0  0  0  0
    1.5454   -0.1553   -0.8773 H   0  0  0  0  0  0  0  0  0  0  0  0
    0.5042   -1.8439   -1.7161 C   0  0  0  0  0  0  0  0  0  0  0  0
   -0.4917   -2.0278   -2.1275 H   0  0  0  0  0  0  0  0  0  0  0  0
    1.2083   -1.8311   -2.5517 H   0  0  0  0  0  0  0  0  0  0  0  0
    0.8545   -3.0135   -0.8044 C   0  0  0  0  0  0  0  0  0  0  0  0
    1.8336   -2.9102   -0.0849 O   0  0  0  0  0  0  0  0  0  0  0  0
    0.0776   -4.1172   -0.8560 O   0  0  0  0  0  0  0  0  0  0  0  0
    0.3993   -4.6700   -0.1257 H   0  0  0  0  0  0  0  0  0  0  0  0
   -0.3684    1.1283    0.6921 C   0  0  0  0  0  0  0  0  0  0  0  0
   -1.2666    1.7722    0.1607 O   0  0  0  0  0  0  0  0  0  0  0  0
    0.4699    1.7484    1.5994 N   0  0  0  0  0  0  0  0  0  0  0  0
    1.1629    1.1714    2.0690 H   0  0  0  0  0  0  0  0  0  0  0  0
    0.3322    3.1461    1.9898 C   0  0  0  0  0  0  0  0  0  0  0  0
   -0.6506    3.3240    2.4390 H   0  0  0  0  0  0  0  0  0  0  0  0
    1.1003    3.4121    2.7225 H   0  0  0  0  0  0  0  0  0  0  0  0
    0.4450    3.7998    1.1186 H   0  0  0  0  0  0  0  0  0  0  0  0
  1  2  1  0  0  0  0
  2  3  1  0  0  0  0
  2  4  1  0  0  0  0
  2  5  1  0  0  0  0
  5  6  2  0  0  0  0
  5  7  1  0  0  0  0
  7  8  1  0  0  0  0
  7  9  1  0  0  0  0
  9 10  1  0  0  0  0
  9 11  1  0  0  0  0
  9 21  1  0  0  0  0
 11 12  1  0  0  0  0
 11 13  1  0  0  0  0
 11 14  1  0  0  0  0
 14 15  1  0  0  0  0
 14 16  1  0  0  0  0
 14 17  1  0  0  0  0
 17 18  2  0  0  0  0
 17 19  1  0  0  0  0
 19 20  1  0  0  0  0
 21 22  2  0  0  0  0
 21 23  1  0  0  0  0
 23 24  1  0  0  0  0
 23 25  1  0  0  0  0
 25 26  1  0  0  0  0
 25 27  1  0  0  0  0
 25 28  1  0  0  0  0
M  END
$$$$

  -OEChem-03222214033D

 28 27  0     1  0  0  0  0  0999 V2000
   -3.3461   -3.7597    1.3790 H   0  0  0  0  0  0  0  0  0  0  0  0
   -3.2479   -2.8185    0.8310 C   0  0  0  0  0  0  0  0  0  0  0  0
   -3.9896   -2.1111    1.2093 H   0  0  0  0  0  0  0  0  0  0  0  0
   -3.4392   -3.0064   -0.2283 H   0  0  0  0  0  0  0  0  0  0  0  0
   -1.8527   -2.2517    1.0103 C   0  0  0  0  0  0  0  0  0  0  0  0
   -1.0559   -2.8218    1.7371 O   0  0  0  0  0  0  0  0  0  0  0  0
   -1.5227   -1.0586    0.4020 N   0  0  0  0  0  0  0  0  0  0  0  0
   -2.2764   -0.5717   -0.0798 H   0  0  0  0  0  0  0  0  0  0  0  0
   -0.2110   -0.3854    0.4067 C   0  0  1  0  0  0  0  0  0  0  0  0
    0.4208   -0.8235    1.1874 H   0  0  0  0  0  0  0  0  0  0  0  0
    0.5244   -0.4869   -0.9610 C   0  0  0  0  0  0  0  0  0  0  0  0
    0.0805    0.2380   -1.6527 H   0  0  0  0  0  0  0  0  0  0  0  0
    1.5565   -0.1661   -0.7838 H   0  0  0  0  0  0  0  0  0  0  0  0
    0.5901   -1.8366   -1.7146 C   0  0  0  0  0  0  0  0  0  0  0  0
   -0.2858   -1.9059   -2.3652 H   0  0  0  0  0  0  0  0  0  0  0  0
    1.4745   -1.8568   -2.3569 H   0  0  0  0  0  0  0  0  0  0  0  0
    0.5944   -3.0820   -0.8419 C   0  0  0  0  0  0  0  0  0  0  0  0
    1.5288   -3.2181   -0.0722 O   0  0  0  0  0  0  0  0  0  0  0  0
   -0.3890   -3.9960   -0.9922 O   0  0  0  0  0  0  0  0  0  0  0  0
   -0.2137   -4.6419   -0.2880 H   0  0  0  0  0  0  0  0  0  0  0  0
   -0.3928    1.1192    0.6970 C   0  0  0  0  0  0  0  0  0  0  0  0
   -1.2875    1.7469    0.1408 O   0  0  0  0  0  0  0  0  0  0  0  0
    0.4327    1.7637    1.5991 N   0  0  0  0  0  0  0  0  0  0  0  0
    1.1102    1.1969    2.1026 H   0  0  0  0  0  0  0  0  0  0  0  0
    0.2751    3.1660    1.9652 C   0  0  0  0  0  0  0  0  0  0  0  0
   -0.7059    3.3350    2.4214 H   0  0  0  0  0  0  0  0  0  0  0  0
    1.0459    3.4585    2.6846 H   0  0  0  0  0  0  0  0  0  0  0  0
    0.3678    3.8060    1.0814 H   0  0  0  0  0  0  0  0  0  0  0  0
  1  2  1  0  0  0  0
  2  3  1  0  0  0  0
  2  4  1  0  0  0  0
  2  5  1  0  0  0  0
  5  6  2  0  0  0  0
  5  7  1  0  0  0  0
  7  8  1  0  0  0  0
  7  9  1  0  0  0  0
  9 10  1  0  0  0  0
  9 11  1  0  0  0  0
  9 21  1  0  0  0  0
 11 12  1  0  0  0  0
 11 13  1  0  0  0  0
 11 14  1  0  0  0  0
 14 15  1  0  0  0  0
 14 16  1  0  0  0  0
 14 17  1  0  0  0  0
 17 18  2  0  0  0  0
 17 19  1  0  0  0  0
 19 20  1  0  0  0  0
 21 22  2  0  0  0  0
 21 23  1  0  0  0  0
 23 24  1  0  0  0  0
 23 25  1  0  0  0  0
 25 26  1  0  0  0  0
 25 27  1  0  0  0  0
 25 28  1  0  0  0  0
M  END
$$$$

  -OEChem-03222214033D

 28 27  0     1  0  0  0  0  0999 V2000
   -3.2948   -3.7832    1.3628 H   0  0  0  0  0  0  0  0  0  0  0  0
   -3.2598   -2.8232    0.8399 C   0  0  0  0  0  0  0  0  0  0  0  0
   -3.9346   -2.1253    1.3417 H   0  0  0  0  0  0  0  0  0  0  0  0
   -3.5985   -2.9702   -0.1889 H   0  0  0  0  0  0  0  0  0  0  0  0
   -1.8463   -2.2756    0.8463 C   0  0  0  0  0  0  0  0  0  0  0  0
   -0.9202   -2.9335    1.2962 O   0  0  0  0  0  0  0  0  0  0  0  0
   -1.5644   -1.0468    0.2974 N   0  0  0  0  0  0  0  0  0  0  0  0
   -2.3593   -0.4770    0.0043 H   0  0  0  0  0  0  0  0  0  0  0  0
   -0.2685   -0.3565    0.4009 C   0  0  1  0  0  0  0  0  0  0  0  0
    0.3170   -0.7988    1.2138 H   0  0  0  0  0  0  0  0  0  0  0  0
    0.5654   -0.4369   -0.9018 C   0  0  0  0  0  0  0  0  0  0  0  0
    0.1310    0.2744   -1.6154 H   0  0  0  0  0  0  0  0  0  0  0  0
    1.5724   -0.0625   -0.6792 H   0  0  0  0  0  0  0  0  0  0  0  0
    0.6978   -1.7917   -1.6555 C   0  0  0  0  0  0  0  0  0  0  0  0
   -0.3732   -1.7773   -1.8759 H   0  0  0  0  0  0  0  0  0  0  0  0
    1.2410   -2.0937   -0.7553 H   0  0  0  0  0  0  0  0  0  0  0  0
    0.5877   -3.3168   -1.7843 C   0  0  0  0  0  0  0  0  0  0  0  0
    0.9667   -3.7386   -2.8628 O   0  0  0  0  0  0  0  0  0  0  0  0
    0.1142   -4.1178   -0.7864 O   0  0  0  0  0  0  0  0  0  0  0  0
   -0.1339   -3.5991    0.0130 H   0  0  0  0  0  0  0  0  0  0  0  0
   -0.4930    1.1292    0.7552 C   0  0  0  0  0  0  0  0  0  0  0  0
   -1.4106    1.7430    0.2246 O   0  0  0  0  0  0  0  0  0  0  0  0
    0.2697    1.7505    1.7266 N   0  0  0  0  0  0  0  0  0  0  0  0
    0.9851    1.2013    2.1946 H   0  0  0  0  0  0  0  0  0  0  0  0
    0.0540    3.1301    2.1475 C   0  0  0  0  0  0  0  0  0  0  0  0
   -0.9525    3.2525    2.5614 H   0  0  0  0  0  0  0  0  0  0  0  0
    0.7801    3.4098    2.9169 H   0  0  0  0  0  0  0  0  0  0  0  0
    0.1710    3.8122    1.2987 H   0  0  0  0  0  0  0  0  0  0  0  0
  1  2  1  0  0  0  0
  2  3  1  0  0  0  0
  2  4  1  0  0  0  0
  2  5  1  0  0  0  0
  5  6  2  0  0  0  0
  5  7  1  0  0  0  0
  7  8  1  0  0  0  0
  7  9  1  0  0  0  0
  9 10  1  0  0  0  0
  9 11  1  0  0  0  0
  9 21  1  0  0  0  0
 11 12  1  0  0  0  0
 11 13  1  0  0  0  0
 11 14  1  0  0  0  0
 14 15  1  0  0  0  0
 14 16  1  0  0  0  0
 14 17  1  0  0  0  0
 17 18  2  0  0  0  0
 17 19  1  0  0  0  0
 19 20  1  0  0  0  0
 21 22  2  0  0  0  0
 21 23  1  0  0  0  0
 23 24  1  0  0  0  0
 23 25  1  0  0  0  0
 25 26  1  0  0  0  0
 25 27  1  0  0  0  0
 25 28  1  0  0  0  0
M  END
$$$$

  -OEChem-03222214033D

 28 27  0     1  0  0  0  0  0999 V2000
   -3.3140   -3.8700    1.4515 H   0  0  0  0  0  0  0  0  0  0  0  0
   -3.2731   -2.8990    0.9506 C   0  0  0  0  0  0  0  0  0  0  0  0
   -3.9724   -2.2184    1.4418 H   0  0  0  0  0  0  0  0  0  0  0  0
   -3.5730   -3.0285   -0.0924 H   0  0  0  0  0  0  0  0  0  0  0  0
   -1.8669   -2.3340    1.0151 C   0  0  0  0  0  0  0  0  0  0  0  0
   -0.9836   -2.9593    1.5820 O   0  0  0  0  0  0  0  0  0  0  0  0
   -1.6087   -1.0884    0.4793 N   0  0  0  0  0  0  0  0  0  0  0  0
   -2.4041   -0.5923    0.0807 H   0  0  0  0  0  0  0  0  0  0  0  0
   -0.3044   -0.4075    0.4069 C   0  0  1  0  0  0  0  0  0  0  0  0
    0.3928   -0.9006    1.0922 H   0  0  0  0  0  0  0  0  0  0  0  0
    0.3476   -0.3577   -1.0110 C   0  0  0  0  0  0  0  0  0  0  0  0
   -0.1861    0.4144   -1.5777 H   0  0  0  0  0  0  0  0  0  0  0  0
    1.3713    0.0079   -0.8773 H   0  0  0  0  0  0  0  0  0  0  0  0
    0.4196   -1.5852   -1.9623 C   0  0  0  0  0  0  0  0  0  0  0  0
   -0.0773   -1.3232   -2.9012 H   0  0  0  0  0  0  0  0  0  0  0  0
    1.4697   -1.7719   -2.2028 H   0  0  0  0  0  0  0  0  0  0  0  0
   -0.1677   -2.9044   -1.4947 C   0  0  0  0  0  0  0  0  0  0  0  0
   -1.3028   -3.2039   -1.8282 O   0  0  0  0  0  0  0  0  0  0  0  0
    0.6321   -3.6963   -0.7484 O   0  0  0  0  0  0  0  0  0  0  0  0
    0.0569   -4.3951   -0.3997 H   0  0  0  0  0  0  0  0  0  0  0  0
   -0.4757    1.0630    0.8476 C   0  0  0  0  0  0  0  0  0  0  0  0
   -1.4188    1.7256    0.4299 O   0  0  0  0  0  0  0  0  0  0  0  0
    0.4284    1.6443    1.7173 N   0  0  0  0  0  0  0  0  0  0  0  0
    1.1498    1.0480    2.1133 H   0  0  0  0  0  0  0  0  0  0  0  0
    0.2944    3.0104    2.2096 C   0  0  0  0  0  0  0  0  0  0  0  0
   -0.6407    3.1268    2.7678 H   0  0  0  0  0  0  0  0  0  0  0  0
    1.1277    3.2569    2.8746 H   0  0  0  0  0  0  0  0  0  0  0  0
    0.2975    3.7204    1.3756 H   0  0  0  0  0  0  0  0  0  0  0  0
  1  2  1  0  0  0  0
  2  3  1  0  0  0  0
  2  4  1  0  0  0  0
  2  5  1  0  0  0  0
  5  6  2  0  0  0  0
  5  7  1  0  0  0  0
  7  8  1  0  0  0  0
  7  9  1  0  0  0  0
  9 10  1  0  0  0  0
  9 11  1  0  0  0  0
  9 21  1  0  0  0  0
 11 12  1  0  0  0  0
 11 13  1  0  0  0  0
 11 14  1  0  0  0  0
 14 15  1  0  0  0  0
 14 16  1  0  0  0  0
 14 17  1  0  0  0  0
 17 18  2  0  0  0  0
 17 19  1  0  0  0  0
 19 20  1  0  0  0  0
 21 22  2  0  0  0  0
 21 23  1  0  0  0  0
 23 24  1  0  0  0  0
 23 25  1  0  0  0  0
 25 26  1  0  0  0  0
 25 27  1  0  0  0  0
 25 28  1  0  0  0  0
M  END
$$$$

  -OEChem-03222214033D

 28 27  0     1  0  0  0  0  0999 V2000
   -3.5830   -3.6806    1.3215 H   0  0  0  0  0  0  0  0  0  0  0  0
   -3.4842   -2.7258    0.7980 C   0  0  0  0  0  0  0  0  0  0  0  0
   -4.2355   -2.0315    1.1809 H   0  0  0  0  0  0  0  0  0  0  0  0
   -3.6607   -2.8916   -0.2679 H   0  0  0  0  0  0  0  0  0  0  0  0
   -2.0946   -2.1563    1.0090 C   0  0  0  0  0  0  0  0  0  0  0  0
   -1.3105   -2.6967    1.7775 O   0  0  0  0  0  0  0  0  0  0  0  0
   -1.7150   -0.9882    0.3770 N   0  0  0  0  0  0  0  0  0  0  0  0
   -2.3971   -0.5480   -0.2392 H   0  0  0  0  0  0  0  0  0  0  0  0
   -0.3592   -0.4209    0.4143 C   0  0  1  0  0  0  0  0  0  0  0  0
    0.2121   -0.8777    1.2281 H   0  0  0  0  0  0  0  0  0  0  0  0
    0.4554   -0.5716   -0.9045 C   0  0  0  0  0  0  0  0  0  0  0  0
    0.0354    0.1620   -1.6032 H   0  0  0  0  0  0  0  0  0  0  0  0
    1.4832   -0.2520   -0.7017 H   0  0  0  0  0  0  0  0  0  0  0  0
    0.5202   -1.8936   -1.7212 C   0  0  0  0  0  0  0  0  0  0  0  0
    0.4579   -1.6399   -2.7843 H   0  0  0  0  0  0  0  0  0  0  0  0
    1.5113   -2.3277   -1.5670 H   0  0  0  0  0  0  0  0  0  0  0  0
   -0.4841   -3.0119   -1.4621 C   0  0  0  0  0  0  0  0  0  0  0  0
   -1.5237   -2.9648   -2.0993 O   0  0  0  0  0  0  0  0  0  0  0  0
   -0.1541   -4.0193   -0.6116 O   0  0  0  0  0  0  0  0  0  0  0  0
    0.6014   -3.7545   -0.0712 H   0  0  0  0  0  0  0  0  0  0  0  0
   -0.4538    1.0977    0.6886 C   0  0  0  0  0  0  0  0  0  0  0  0
   -1.2543    1.7896    0.0705 O   0  0  0  0  0  0  0  0  0  0  0  0
    0.3832    1.6957    1.6130 N   0  0  0  0  0  0  0  0  0  0  0  0
    0.9574    1.0855    2.1876 H   0  0  0  0  0  0  0  0  0  0  0  0
    0.2943    3.1086    1.9642 C   0  0  0  0  0  0  0  0  0  0  0  0
   -0.6847    3.3335    2.4005 H   0  0  0  0  0  0  0  0  0  0  0  0
    1.0672    3.3670    2.6946 H   0  0  0  0  0  0  0  0  0  0  0  0
    0.4363    3.7348    1.0769 H   0  0  0  0  0  0  0  0  0  0  0  0
  1  2  1  0  0  0  0
  2  3  1  0  0  0  0
  2  4  1  0  0  0  0
  2  5  1  0  0  0  0
  5  6  2  0  0  0  0
  5  7  1  0  0  0  0
  7  8  1  0  0  0  0
  7  9  1  0  0  0  0
  9 10  1  0  0  0  0
  9 11  1  0  0  0  0
  9 21  1  0  0  0  0
 11 12  1  0  0  0  0
 11 13  1  0  0  0  0
 11 14  1  0  0  0  0
 14 15  1  0  0  0  0
 14 16  1  0  0  0  0
 14 17  1  0  0  0  0
 17 18  2  0  0  0  0
 17 19  1  0  0  0  0
 19 20  1  0  0  0  0
 21 22  2  0  0  0  0
 21 23  1  0  0  0  0
 23 24  1  0  0  0  0
 23 25  1  0  0  0  0
 25 26  1  0  0  0  0
 25 27  1  0  0  0  0
 25 28  1  0  0  0  0
M  END
$$$$

  -OEChem-03222214033D

 28 27  0     1  0  0  0  0  0999 V2000
   -3.3664   -3.7141    1.5748 H   0  0  0  0  0  0  0  0  0  0  0  0
   -3.3318   -2.7315    1.0965 C   0  0  0  0  0  0  0  0  0  0  0  0
   -3.9798   -2.0465    1.6484 H   0  0  0  0  0  0  0  0  0  0  0  0
   -3.7018   -2.8239    0.0722 H   0  0  0  0  0  0  0  0  0  0  0  0
   -1.9101   -2.2028    1.0886 C   0  0  0  0  0  0  0  0  0  0  0  0
   -1.0171   -2.8394    1.6250 O   0  0  0  0  0  0  0  0  0  0  0  0
   -1.6344   -0.9887    0.4953 N   0  0  0  0  0  0  0  0  0  0  0  0
   -2.4110   -0.5082    0.0431 H   0  0  0  0  0  0  0  0  0  0  0  0
   -0.3054   -0.3755    0.3711 C   0  0  1  0  0  0  0  0  0  0  0  0
    0.3754   -0.8650    1.0750 H   0  0  0  0  0  0  0  0  0  0  0  0
    0.3408   -0.4506   -1.0437 C   0  0  0  0  0  0  0  0  0  0  0  0
   -0.1951    0.2851   -1.6550 H   0  0  0  0  0  0  0  0  0  0  0  0
    1.3751   -0.0996   -0.9642 H   0  0  0  0  0  0  0  0  0  0  0  0
    0.3428   -1.7492   -1.8973 C   0  0  0  0  0  0  0  0  0  0  0  0
    0.4185   -1.4734   -2.9524 H   0  0  0  0  0  0  0  0  0  0  0  0
    1.2569   -2.2936   -1.6446 H   0  0  0  0  0  0  0  0  0  0  0  0
   -0.7928   -2.7566   -1.7665 C   0  0  0  0  0  0  0  0  0  0  0  0
   -1.9215   -2.4172   -2.0821 O   0  0  0  0  0  0  0  0  0  0  0  0
   -0.4758   -4.0105   -1.3765 O   0  0  0  0  0  0  0  0  0  0  0  0
   -1.3128   -4.4960   -1.3451 H   0  0  0  0  0  0  0  0  0  0  0  0
   -0.3852    1.1184    0.7539 C   0  0  0  0  0  0  0  0  0  0  0  0
   -1.2938    1.8201    0.3248 O   0  0  0  0  0  0  0  0  0  0  0  0
    0.5713    1.6799    1.5798 N   0  0  0  0  0  0  0  0  0  0  0  0
    1.2592    1.0559    1.9919 H   0  0  0  0  0  0  0  0  0  0  0  0
    0.5189    3.0656    2.0301 C   0  0  0  0  0  0  0  0  0  0  0  0
   -0.3883    3.2431    2.6172 H   0  0  0  0  0  0  0  0  0  0  0  0
    1.3871    3.2935    2.6558 H   0  0  0  0  0  0  0  0  0  0  0  0
    0.5232    3.7479    1.1734 H   0  0  0  0  0  0  0  0  0  0  0  0
  1  2  1  0  0  0  0
  2  3  1  0  0  0  0
  2  4  1  0  0  0  0
  2  5  1  0  0  0  0
  5  6  2  0  0  0  0
  5  7  1  0  0  0  0
  7  8  1  0  0  0  0
  7  9  1  0  0  0  0
  9 10  1  0  0  0  0
  9 11  1  0  0  0  0
  9 21  1  0  0  0  0
 11 12  1  0  0  0  0
 11 13  1  0  0  0  0
 11 14  1  0  0  0  0
 14 15  1  0  0  0  0
 14 16  1  0  0  0  0
 14 17  1  0  0  0  0
 17 18  2  0  0  0  0
 17 19  1  0  0  0  0
 19 20  1  0  0  0  0
 21 22  2  0  0  0  0
 21 23  1  0  0  0  0
 23 24  1  0  0  0  0
 23 25  1  0  0  0  0
 25 26  1  0  0  0  0
 25 27  1  0  0  0  0
 25 28  1  0  0  0  0
M  END
$$$$

  -OEChem-03222214033D

 28 27  0     1  0  0  0  0  0999 V2000
   -3.3335   -3.7461    1.4776 H   0  0  0  0  0  0  0  0  0  0  0  0
   -3.3082   -2.7549    1.0166 C   0  0  0  0  0  0  0  0  0  0  0  0
   -3.9804   -2.0920    1.5665 H   0  0  0  0  0  0  0  0  0  0  0  0
   -3.6552   -2.8361   -0.0164 H   0  0  0  0  0  0  0  0  0  0  0  0
   -1.8974   -2.1986    1.0469 C   0  0  0  0  0  0  0  0  0  0  0  0
   -1.0022   -2.8251    1.5917 O   0  0  0  0  0  0  0  0  0  0  0  0
   -1.6293   -0.9824    0.4551 N   0  0  0  0  0  0  0  0  0  0  0  0
   -2.3982   -0.5215   -0.0304 H   0  0  0  0  0  0  0  0  0  0  0  0
   -0.3046   -0.3574    0.3555 C   0  0  1  0  0  0  0  0  0  0  0  0
    0.3640   -0.8354    1.0785 H   0  0  0  0  0  0  0  0  0  0  0  0
    0.3673   -0.4578   -1.0431 C   0  0  0  0  0  0  0  0  0  0  0  0
   -0.1460    0.2645   -1.6887 H   0  0  0  0  0  0  0  0  0  0  0  0
    1.4042   -0.1193   -0.9483 H   0  0  0  0  0  0  0  0  0  0  0  0
    0.3696   -1.7945   -1.8319 C   0  0  0  0  0  0  0  0  0  0  0  0
    0.7083   -1.5982   -2.8522 H   0  0  0  0  0  0  0  0  0  0  0  0
    1.1133   -2.4450   -1.3634 H   0  0  0  0  0  0  0  0  0  0  0  0
   -0.9180   -2.6087   -1.9259 C   0  0  0  0  0  0  0  0  0  0  0  0
   -1.9514   -2.0499   -2.2551 O   0  0  0  0  0  0  0  0  0  0  0  0
   -0.8350   -3.9386   -1.7064 O   0  0  0  0  0  0  0  0  0  0  0  0
   -1.7308   -4.2801   -1.8419 H   0  0  0  0  0  0  0  0  0  0  0  0
   -0.3940    1.1378    0.7301 C   0  0  0  0  0  0  0  0  0  0  0  0
   -1.2949    1.8363    0.2809 O   0  0  0  0  0  0  0  0  0  0  0  0
    0.5460    1.7061    1.5707 N   0  0  0  0  0  0  0  0  0  0  0  0
    1.2345    1.0888    1.9915 H   0  0  0  0  0  0  0  0  0  0  0  0
    0.4937    3.0992    1.9981 C   0  0  0  0  0  0  0  0  0  0  0  0
   -0.4464    3.3048    2.5208 H   0  0  0  0  0  0  0  0  0  0  0  0
    1.3224    3.3185    2.6783 H   0  0  0  0  0  0  0  0  0  0  0  0
    0.5698    3.7678    1.1341 H   0  0  0  0  0  0  0  0  0  0  0  0
  1  2  1  0  0  0  0
  2  3  1  0  0  0  0
  2  4  1  0  0  0  0
  2  5  1  0  0  0  0
  5  6  2  0  0  0  0
  5  7  1  0  0  0  0
  7  8  1  0  0  0  0
  7  9  1  0  0  0  0
  9 10  1  0  0  0  0
  9 11  1  0  0  0  0
  9 21  1  0  0  0  0
 11 12  1  0  0  0  0
 11 13  1  0  0  0  0
 11 14  1  0  0  0  0
 14 15  1  0  0  0  0
 14 16  1  0  0  0  0
 14 17  1  0  0  0  0
 17 18  2  0  0  0  0
 17 19  1  0  0  0  0
 19 20  1  0  0  0  0
 21 22  2  0  0  0  0
 21 23  1  0  0  0  0
 23 24  1  0  0  0  0
 23 25  1  0  0  0  0
 25 26  1  0  0  0  0
 25 27  1  0  0  0  0
 25 28  1  0  0  0  0
M  END
$$$$

  -OEChem-03222214033D

 28 27  0     1  0  0  0  0  0999 V2000
   -3.2714   -3.8027    1.3356 H   0  0  0  0  0  0  0  0  0  0  0  0
   -3.2616   -2.7956    0.9098 C   0  0  0  0  0  0  0  0  0  0  0  0
   -3.9483   -2.1642    1.4788 H   0  0  0  0  0  0  0  0  0  0  0  0
   -3.6015   -2.8470   -0.1274 H   0  0  0  0  0  0  0  0  0  0  0  0
   -1.8611   -2.2167    0.9678 C   0  0  0  0  0  0  0  0  0  0  0  0
   -0.9592   -2.8416    1.5035 O   0  0  0  0  0  0  0  0  0  0  0  0
   -1.6056   -0.9872    0.3988 N   0  0  0  0  0  0  0  0  0  0  0  0
   -2.3731   -0.5299   -0.0930 H   0  0  0  0  0  0  0  0  0  0  0  0
   -0.2896   -0.3403    0.3317 C   0  0  1  0  0  0  0  0  0  0  0  0
    0.3740   -0.8188    1.0588 H   0  0  0  0  0  0  0  0  0  0  0  0
    0.3891   -0.4417   -1.0595 C   0  0  0  0  0  0  0  0  0  0  0  0
   -0.1015    0.2785   -1.7248 H   0  0  0  0  0  0  0  0  0  0  0  0
    1.4305   -0.1213   -0.9536 H   0  0  0  0  0  0  0  0  0  0  0  0
    0.3747   -1.8102   -1.7871 C   0  0  0  0  0  0  0  0  0  0  0  0
    0.9312   -1.7161   -2.7227 H   0  0  0  0  0  0  0  0  0  0  0  0
    0.9085   -2.5290   -1.1588 H   0  0  0  0  0  0  0  0  0  0  0  0
   -0.9828   -2.4266   -2.1261 C   0  0  0  0  0  0  0  0  0  0  0  0
   -1.9142   -1.7026   -2.4362 O   0  0  0  0  0  0  0  0  0  0  0  0
   -1.0701   -3.7738   -2.1155 O   0  0  0  0  0  0  0  0  0  0  0  0
   -1.9761   -3.9744   -2.3927 H   0  0  0  0  0  0  0  0  0  0  0  0
   -0.3939    1.1490    0.7240 C   0  0  0  0  0  0  0  0  0  0  0  0
   -1.2953    1.8461    0.2741 O   0  0  0  0  0  0  0  0  0  0  0  0
    0.5294    1.7128    1.5859 N   0  0  0  0  0  0  0  0  0  0  0  0
    1.2179    1.0954    2.0064 H   0  0  0  0  0  0  0  0  0  0  0  0
    0.4579    3.0984    2.0344 C   0  0  0  0  0  0  0  0  0  0  0  0
   -0.4671    3.2724    2.5942 H   0  0  0  0  0  0  0  0  0  0  0  0
    1.3060    3.3306    2.6856 H   0  0  0  0  0  0  0  0  0  0  0  0
    0.4846    3.7806    1.1779 H   0  0  0  0  0  0  0  0  0  0  0  0
  1  2  1  0  0  0  0
  2  3  1  0  0  0  0
  2  4  1  0  0  0  0
  2  5  1  0  0  0  0
  5  6  2  0  0  0  0
  5  7  1  0  0  0  0
  7  8  1  0  0  0  0
  7  9  1  0  0  0  0
  9 10  1  0  0  0  0
  9 11  1  0  0  0  0
  9 21  1  0  0  0  0
 11 12  1  0  0  0  0
 11 13  1  0  0  0  0
 11 14  1  0  0  0  0
 14 15  1  0  0  0  0
 14 16  1  0  0  0  0
 14 17  1  0  0  0  0
 17 18  2  0  0  0  0
 17 19  1  0  0  0  0
 19 20  1  0  0  0  0
 21 22  2  0  0  0  0
 21 23  1  0  0  0  0
 23 24  1  0  0  0  0
 23 25  1  0  0  0  0
 25 26  1  0  0  0  0
 25 27  1  0  0  0  0
 25 28  1  0  0  0  0
M  END
$$$$

  -OEChem-03222214033D

 28 27  0     1  0  0  0  0  0999 V2000
   -3.2317   -3.8188    1.2835 H   0  0  0  0  0  0  0  0  0  0  0  0
   -3.2154   -2.8294    0.8182 C   0  0  0  0  0  0  0  0  0  0  0  0
   -3.9382   -2.1875    1.3275 H   0  0  0  0  0  0  0  0  0  0  0  0
   -3.5028   -2.9278   -0.2314 H   0  0  0  0  0  0  0  0  0  0  0  0
   -1.8277   -2.2260    0.9190 C   0  0  0  0  0  0  0  0  0  0  0  0
   -0.9256   -2.8452    1.4612 O   0  0  0  0  0  0  0  0  0  0  0  0
   -1.5793   -0.9894    0.3638 N   0  0  0  0  0  0  0  0  0  0  0  0
   -2.3420   -0.5444   -0.1469 H   0  0  0  0  0  0  0  0  0  0  0  0
   -0.2717   -0.3217    0.3204 C   0  0  1  0  0  0  0  0  0  0  0  0
    0.3924   -0.7978    1.0488 H   0  0  0  0  0  0  0  0  0  0  0  0
    0.3958   -0.4319   -1.0716 C   0  0  0  0  0  0  0  0  0  0  0  0
   -0.0768    0.2859   -1.7522 H   0  0  0  0  0  0  0  0  0  0  0  0
    1.4431   -0.1306   -0.9677 H   0  0  0  0  0  0  0  0  0  0  0  0
    0.3530   -1.8328   -1.7307 C   0  0  0  0  0  0  0  0  0  0  0  0
    1.0811   -1.8542   -2.5454 H   0  0  0  0  0  0  0  0  0  0  0  0
    0.6648   -2.5781   -0.9933 H   0  0  0  0  0  0  0  0  0  0  0  0
   -0.9868   -2.2812   -2.3221 C   0  0  0  0  0  0  0  0  0  0  0  0
   -1.8702   -1.4691   -2.5408 O   0  0  0  0  0  0  0  0  0  0  0  0
   -1.1145   -3.5959   -2.6009 O   0  0  0  0  0  0  0  0  0  0  0  0
   -1.9975   -3.6891   -2.9888 H   0  0  0  0  0  0  0  0  0  0  0  0
   -0.3879    1.1646    0.7186 C   0  0  0  0  0  0  0  0  0  0  0  0
   -1.2860    1.8602    0.2606 O   0  0  0  0  0  0  0  0  0  0  0  0
    0.5225    1.7278    1.5943 N   0  0  0  0  0  0  0  0  0  0  0  0
    1.2138    1.1133    2.0145 H   0  0  0  0  0  0  0  0  0  0  0  0
    0.4484    3.1148    2.0381 C   0  0  0  0  0  0  0  0  0  0  0  0
   -0.5065    3.3070    2.5388 H   0  0  0  0  0  0  0  0  0  0  0  0
    1.2577    3.3316    2.7420 H   0  0  0  0  0  0  0  0  0  0  0  0
    0.5417    3.7948    1.1846 H   0  0  0  0  0  0  0  0  0  0  0  0
  1  2  1  0  0  0  0
  2  3  1  0  0  0  0
  2  4  1  0  0  0  0
  2  5  1  0  0  0  0
  5  6  2  0  0  0  0
  5  7  1  0  0  0  0
  7  8  1  0  0  0  0
  7  9  1  0  0  0  0
  9 10  1  0  0  0  0
  9 11  1  0  0  0  0
  9 21  1  0  0  0  0
 11 12  1  0  0  0  0
 11 13  1  0  0  0  0
 11 14  1  0  0  0  0
 14 15  1  0  0  0  0
 14 16  1  0  0  0  0
 14 17  1  0  0  0  0
 17 18  2  0  0  0  0
 17 19  1  0  0  0  0
 19 20  1  0  0  0  0
 21 22  2  0  0  0  0
 21 23  1  0  0  0  0
 23 24  1  0  0  0  0
 23 25  1  0  0  0  0
 25 26  1  0  0  0  0
 25 27  1  0  0  0  0
 25 28  1  0  0  0  0
M  END
$$$$

  -OEChem-03222214033D

 28 27  0     1  0  0  0  0  0999 V2000
   -3.2182   -3.8280    1.2438 H   0  0  0  0  0  0  0  0  0  0  0  0
   -3.2002   -2.8362    0.7840 C   0  0  0  0  0  0  0  0  0  0  0  0
   -3.9532   -2.2085    1.2664 H   0  0  0  0  0  0  0  0  0  0  0  0
   -3.4443   -2.9340   -0.2768 H   0  0  0  0  0  0  0  0  0  0  0  0
   -1.8284   -2.2097    0.9431 C   0  0  0  0  0  0  0  0  0  0  0  0
   -0.9475   -2.8026    1.5469 O   0  0  0  0  0  0  0  0  0  0  0  0
   -1.5688   -0.9835    0.3711 N   0  0  0  0  0  0  0  0  0  0  0  0
   -2.3012   -0.5861   -0.2179 H   0  0  0  0  0  0  0  0  0  0  0  0
   -0.2596   -0.3178    0.3342 C   0  0  1  0  0  0  0  0  0  0  0  0
    0.4014   -0.7857    1.0707 H   0  0  0  0  0  0  0  0  0  0  0  0
    0.3941   -0.4607   -1.0599 C   0  0  0  0  0  0  0  0  0  0  0  0
   -0.0662    0.2508   -1.7556 H   0  0  0  0  0  0  0  0  0  0  0  0
    1.4469   -0.1762   -0.9647 H   0  0  0  0  0  0  0  0  0  0  0  0
    0.3230   -1.8826   -1.6696 C   0  0  0  0  0  0  0  0  0  0  0  0
    1.1927   -2.0122   -2.3189 H   0  0  0  0  0  0  0  0  0  0  0  0
    0.4001   -2.6343   -0.8797 H   0  0  0  0  0  0  0  0  0  0  0  0
   -0.9082   -2.1891   -2.5290 C   0  0  0  0  0  0  0  0  0  0  0  0
   -1.8976   -1.4770   -2.4809 O   0  0  0  0  0  0  0  0  0  0  0  0
   -0.8283   -3.2783   -3.3221 O   0  0  0  0  0  0  0  0  0  0  0  0
   -1.6769   -3.3142   -3.7893 H   0  0  0  0  0  0  0  0  0  0  0  0
   -0.3719    1.1760    0.7046 C   0  0  0  0  0  0  0  0  0  0  0  0
   -1.2520    1.8727    0.2145 O   0  0  0  0  0  0  0  0  0  0  0  0
    0.5314    1.7483    1.5819 N   0  0  0  0  0  0  0  0  0  0  0  0
    1.1991    1.1318    2.0359 H   0  0  0  0  0  0  0  0  0  0  0  0
    0.4523    3.1397    2.0110 C   0  0  0  0  0  0  0  0  0  0  0  0
   -0.4952    3.3285    2.5268 H   0  0  0  0  0  0  0  0  0  0  0  0
    1.2724    3.3718    2.6972 H   0  0  0  0  0  0  0  0  0  0  0  0
    0.5238    3.8116    1.1490 H   0  0  0  0  0  0  0  0  0  0  0  0
  1  2  1  0  0  0  0
  2  3  1  0  0  0  0
  2  4  1  0  0  0  0
  2  5  1  0  0  0  0
  5  6  2  0  0  0  0
  5  7  1  0  0  0  0
  7  8  1  0  0  0  0
  7  9  1  0  0  0  0
  9 10  1  0  0  0  0
  9 11  1  0  0  0  0
  9 21  1  0  0  0  0
 11 12  1  0  0  0  0
 11 13  1  0  0  0  0
 11 14  1  0  0  0  0
 14 15  1  0  0  0  0
 14 16  1  0  0  0  0
 14 17  1  0  0  0  0
 17 18  2  0  0  0  0
 17 19  1  0  0  0  0
 19 20  1  0  0  0  0
 21 22  2  0  0  0  0
 21 23  1  0  0  0  0
 23 24  1  0  0  0  0
 23 25  1  0  0  0  0
 25 26  1  0  0  0  0
 25 27  1  0  0  0  0
 25 28  1  0  0  0  0
M  END
$$$$

  -OEChem-03222214033D

 28 27  0     1  0  0  0  0  0999 V2000
   -3.3188   -3.7594    1.4236 H   0  0  0  0  0  0  0  0  0  0  0  0
   -3.2611   -2.8164    0.8733 C   0  0  0  0  0  0  0  0  0  0  0  0
   -4.0040   -2.1250    1.2781 H   0  0  0  0  0  0  0  0  0  0  0  0
   -3.4871   -3.0077   -0.1788 H   0  0  0  0  0  0  0  0  0  0  0  0
   -1.8728   -2.2195    1.0011 C   0  0  0  0  0  0  0  0  0  0  0  0
   -1.0151   -2.7916    1.6572 O   0  0  0  0  0  0  0  0  0  0  0  0
   -1.5780   -1.0269    0.3744 N   0  0  0  0  0  0  0  0  0  0  0  0
   -2.3142   -0.6116   -0.1944 H   0  0  0  0  0  0  0  0  0  0  0  0
   -0.2550   -0.3830    0.3418 C   0  0  1  0  0  0  0  0  0  0  0  0
    0.3837   -0.8255    1.1131 H   0  0  0  0  0  0  0  0  0  0  0  0
    0.4230   -0.5906   -1.0317 C   0  0  0  0  0  0  0  0  0  0  0  0
   -0.0185    0.0989   -1.7614 H   0  0  0  0  0  0  0  0  0  0  0  0
    1.4780   -0.3154   -0.9329 H   0  0  0  0  0  0  0  0  0  0  0  0
    0.3372   -2.0318   -1.5837 C   0  0  0  0  0  0  0  0  0  0  0  0
    1.3113   -2.3065   -1.9968 H   0  0  0  0  0  0  0  0  0  0  0  0
    0.1170   -2.7561   -0.7965 H   0  0  0  0  0  0  0  0  0  0  0  0
   -0.6846   -2.1537   -2.7090 C   0  0  0  0  0  0  0  0  0  0  0  0
   -1.8557   -2.3328   -2.4214 O   0  0  0  0  0  0  0  0  0  0  0  0
   -0.2421   -2.0374   -3.9795 O   0  0  0  0  0  0  0  0  0  0  0  0
   -1.0328   -2.1329   -4.5322 H   0  0  0  0  0  0  0  0  0  0  0  0
   -0.3591    1.1281    0.6340 C   0  0  0  0  0  0  0  0  0  0  0  0
   -1.2154    1.8052    0.0776 O   0  0  0  0  0  0  0  0  0  0  0  0
    0.5243    1.7355    1.5076 N   0  0  0  0  0  0  0  0  0  0  0  0
    1.1738    1.1369    2.0098 H   0  0  0  0  0  0  0  0  0  0  0  0
    0.4502    3.1482    1.8610 C   0  0  0  0  0  0  0  0  0  0  0  0
   -0.5055    3.3717    2.3466 H   0  0  0  0  0  0  0  0  0  0  0  0
    1.2589    3.4087    2.5505 H   0  0  0  0  0  0  0  0  0  0  0  0
    0.5455    3.7730    0.9666 H   0  0  0  0  0  0  0  0  0  0  0  0
  1  2  1  0  0  0  0
  2  3  1  0  0  0  0
  2  4  1  0  0  0  0
  2  5  1  0  0  0  0
  5  6  2  0  0  0  0
  5  7  1  0  0  0  0
  7  8  1  0  0  0  0
  7  9  1  0  0  0  0
  9 10  1  0  0  0  0
  9 11  1  0  0  0  0
  9 21  1  0  0  0  0
 11 12  1  0  0  0  0
 11 13  1  0  0  0  0
 11 14  1  0  0  0  0
 14 15  1  0  0  0  0
 14 16  1  0  0  0  0
 14 17  1  0  0  0  0
 17 18  2  0  0  0  0
 17 19  1  0  0  0  0
 19 20  1  0  0  0  0
 21 22  2  0  0  0  0
 21 23  1  0  0  0  0
 23 24  1  0  0  0  0
 23 25  1  0  0  0  0
 25 26  1  0  0  0  0
 25 27  1  0  0  0  0
 25 28  1  0  0  0  0
M  END
$$$$

  -OEChem-03222214033D

 28 27  0     1  0  0  0  0  0999 V2000
   -3.3703   -3.7383    1.4199 H   0  0  0  0  0  0  0  0  0  0  0  0
   -3.3025   -2.7845    0.8896 C   0  0  0  0  0  0  0  0  0  0  0  0
   -4.0219   -2.0866    1.3243 H   0  0  0  0  0  0  0  0  0  0  0  0
   -3.5524   -2.9473   -0.1620 H   0  0  0  0  0  0  0  0  0  0  0  0
   -1.8995   -2.2203    1.0028 C   0  0  0  0  0  0  0  0  0  0  0  0
   -1.0401   -2.8239    1.6267 O   0  0  0  0  0  0  0  0  0  0  0  0
   -1.5880   -1.0316    0.3769 N   0  0  0  0  0  0  0  0  0  0  0  0
   -2.3394   -0.5606   -0.1251 H   0  0  0  0  0  0  0  0  0  0  0  0
   -0.2578   -0.4010    0.3382 C   0  0  1  0  0  0  0  0  0  0  0  0
    0.3789   -0.8509    1.1070 H   0  0  0  0  0  0  0  0  0  0  0  0
    0.4145   -0.6100   -1.0381 C   0  0  0  0  0  0  0  0  0  0  0  0
   -0.0431    0.0838   -1.7537 H   0  0  0  0  0  0  0  0  0  0  0  0
    1.4695   -0.3285   -0.9570 H   0  0  0  0  0  0  0  0  0  0  0  0
    0.3234   -2.0464   -1.6080 C   0  0  0  0  0  0  0  0  0  0  0  0
    1.3357   -2.4250   -1.7705 H   0  0  0  0  0  0  0  0  0  0  0  0
   -0.1556   -2.7419   -0.9187 H   0  0  0  0  0  0  0  0  0  0  0  0
   -0.4055   -2.0772   -2.9441 C   0  0  0  0  0  0  0  0  0  0  0  0
   -1.6099   -2.2624   -2.9388 O   0  0  0  0  0  0  0  0  0  0  0  0
    0.3120   -1.8748   -4.0702 O   0  0  0  0  0  0  0  0  0  0  0  0
   -0.3347   -1.9187   -4.7911 H   0  0  0  0  0  0  0  0  0  0  0  0
   -0.3495    1.1109    0.6313 C   0  0  0  0  0  0  0  0  0  0  0  0
   -1.2166    1.7882    0.0923 O   0  0  0  0  0  0  0  0  0  0  0  0
    0.5403    1.7150    1.5006 N   0  0  0  0  0  0  0  0  0  0  0  0
    1.2008    1.1175    1.9895 H   0  0  0  0  0  0  0  0  0  0  0  0
    0.4810    3.1307    1.8451 C   0  0  0  0  0  0  0  0  0  0  0  0
   -0.4625    3.3629    2.3503 H   0  0  0  0  0  0  0  0  0  0  0  0
    1.3063    3.3929    2.5140 H   0  0  0  0  0  0  0  0  0  0  0  0
    0.5590    3.7484    0.9440 H   0  0  0  0  0  0  0  0  0  0  0  0
  1  2  1  0  0  0  0
  2  3  1  0  0  0  0
  2  4  1  0  0  0  0
  2  5  1  0  0  0  0
  5  6  2  0  0  0  0
  5  7  1  0  0  0  0
  7  8  1  0  0  0  0
  7  9  1  0  0  0  0
  9 10  1  0  0  0  0
  9 11  1  0  0  0  0
  9 21  1  0  0  0  0
 11 12  1  0  0  0  0
 11 13  1  0  0  0  0
 11 14  1  0  0  0  0
 14 15  1  0  0  0  0
 14 16  1  0  0  0  0
 14 17  1  0  0  0  0
 17 18  2  0  0  0  0
 17 19  1  0  0  0  0
 19 20  1  0  0  0  0
 21 22  2  0  0  0  0
 21 23  1  0  0  0  0
 23 24  1  0  0  0  0
 23 25  1  0  0  0  0
 25 26  1  0  0  0  0
 25 27  1  0  0  0  0
 25 28  1  0  0  0  0
M  END
$$$$

  -OEChem-03222214033D

 28 27  0     1  0  0  0  0  0999 V2000
   -3.2136   -3.8431    1.3506 H   0  0  0  0  0  0  0  0  0  0  0  0
   -3.1957   -2.8577    0.8768 C   0  0  0  0  0  0  0  0  0  0  0  0
   -3.8701   -2.1923    1.4212 H   0  0  0  0  0  0  0  0  0  0  0  0
   -3.5452   -2.9565   -0.1538 H   0  0  0  0  0  0  0  0  0  0  0  0
   -1.7873   -2.2954    0.8932 C   0  0  0  0  0  0  0  0  0  0  0  0
   -0.8834   -2.9203    1.4250 O   0  0  0  0  0  0  0  0  0  0  0  0
   -1.5252   -1.0809    0.2935 N   0  0  0  0  0  0  0  0  0  0  0  0
   -2.3206   -0.5596   -0.0732 H   0  0  0  0  0  0  0  0  0  0  0  0
   -0.2230   -0.3934    0.2909 C   0  0  1  0  0  0  0  0  0  0  0  0
    0.4093   -0.8236    1.0746 H   0  0  0  0  0  0  0  0  0  0  0  0
    0.5212   -0.5376   -1.0572 C   0  0  0  0  0  0  0  0  0  0  0  0
    0.0314    0.1370   -1.7697 H   0  0  0  0  0  0  0  0  0  0  0  0
    1.5512   -0.1833   -0.9448 H   0  0  0  0  0  0  0  0  0  0  0  0
    0.5414   -1.9574   -1.6744 C   0  0  0  0  0  0  0  0  0  0  0  0
    1.5257   -2.4078   -1.5216 H   0  0  0  0  0  0  0  0  0  0  0  0
   -0.1825   -2.6213   -1.2040 H   0  0  0  0  0  0  0  0  0  0  0  0
    0.2313   -1.9264   -3.1651 C   0  0  0  0  0  0  0  0  0  0  0  0
    1.1032   -1.5524   -3.9285 O   0  0  0  0  0  0  0  0  0  0  0  0
   -1.0047   -2.2910   -3.5701 O   0  0  0  0  0  0  0  0  0  0  0  0
   -0.9915   -2.1871   -4.5339 H   0  0  0  0  0  0  0  0  0  0  0  0
   -0.4023    1.1046    0.6137 C   0  0  0  0  0  0  0  0  0  0  0  0
   -1.3311    1.7287    0.1138 O   0  0  0  0  0  0  0  0  0  0  0  0
    0.4365    1.7374    1.5124 N   0  0  0  0  0  0  0  0  0  0  0  0
    1.1531    1.1763    1.9641 H   0  0  0  0  0  0  0  0  0  0  0  0
    0.2716    3.1288    1.9162 C   0  0  0  0  0  0  0  0  0  0  0  0
   -0.6790    3.2646    2.4425 H   0  0  0  0  0  0  0  0  0  0  0  0
    1.0842    3.4273    2.5854 H   0  0  0  0  0  0  0  0  0  0  0  0
    0.2870    3.7876    1.0414 H   0  0  0  0  0  0  0  0  0  0  0  0
  1  2  1  0  0  0  0
  2  3  1  0  0  0  0
  2  4  1  0  0  0  0
  2  5  1  0  0  0  0
  5  6  2  0  0  0  0
  5  7  1  0  0  0  0
  7  8  1  0  0  0  0
  7  9  1  0  0  0  0
  9 10  1  0  0  0  0
  9 11  1  0  0  0  0
  9 21  1  0  0  0  0
 11 12  1  0  0  0  0
 11 13  1  0  0  0  0
 11 14  1  0  0  0  0
 14 15  1  0  0  0  0
 14 16  1  0  0  0  0
 14 17  1  0  0  0  0
 17 18  2  0  0  0  0
 17 19  1  0  0  0  0
 19 20  1  0  0  0  0
 21 22  2  0  0  0  0
 21 23  1  0  0  0  0
 23 24  1  0  0  0  0
 23 25  1  0  0  0  0
 25 26  1  0  0  0  0
 25 27  1  0  0  0  0
 25 28  1  0  0  0  0
M  END
$$$$

  -OEChem-03222214033D

 28 27  0     1  0  0  0  0  0999 V2000
   -3.2587   -3.7804    1.3989 H   0  0  0  0  0  0  0  0  0  0  0  0
   -3.2342   -2.7986    0.9179 C   0  0  0  0  0  0  0  0  0  0  0  0
   -3.8667   -2.1120    1.4859 H   0  0  0  0  0  0  0  0  0  0  0  0
   -3.6302   -2.8935   -0.0961 H   0  0  0  0  0  0  0  0  0  0  0  0
   -1.8115   -2.2746    0.8716 C   0  0  0  0  0  0  0  0  0  0  0  0
   -0.8994   -2.9326    1.3463 O   0  0  0  0  0  0  0  0  0  0  0  0
   -1.5476   -1.0553    0.2824 N   0  0  0  0  0  0  0  0  0  0  0  0
   -2.3475   -0.5003   -0.0198 H   0  0  0  0  0  0  0  0  0  0  0  0
   -0.2377   -0.3828    0.2784 C   0  0  1  0  0  0  0  0  0  0  0  0
    0.3899   -0.8263    1.0583 H   0  0  0  0  0  0  0  0  0  0  0  0
    0.5107   -0.5255   -1.0667 C   0  0  0  0  0  0  0  0  0  0  0  0
    0.0193    0.1492   -1.7782 H   0  0  0  0  0  0  0  0  0  0  0  0
    1.5432   -0.1772   -0.9557 H   0  0  0  0  0  0  0  0  0  0  0  0
    0.5157   -1.9443   -1.6861 C   0  0  0  0  0  0  0  0  0  0  0  0
    1.3602   -2.5175   -1.2958 H   0  0  0  0  0  0  0  0  0  0  0  0
   -0.3910   -2.4909   -1.4276 H   0  0  0  0  0  0  0  0  0  0  0  0
    0.5817   -1.9103   -3.2098 C   0  0  0  0  0  0  0  0  0  0  0  0
    1.4080   -1.1914   -3.7437 O   0  0  0  0  0  0  0  0  0  0  0  0
   -0.2852   -2.6812   -3.9013 O   0  0  0  0  0  0  0  0  0  0  0  0
   -0.0775   -2.5157   -4.8336 H   0  0  0  0  0  0  0  0  0  0  0  0
   -0.3998    1.1127    0.6202 C   0  0  0  0  0  0  0  0  0  0  0  0
   -1.3396    1.7449    0.1519 O   0  0  0  0  0  0  0  0  0  0  0  0
    0.4514    1.7265    1.5202 N   0  0  0  0  0  0  0  0  0  0  0  0
    1.1843    1.1607    1.9387 H   0  0  0  0  0  0  0  0  0  0  0  0
    0.3013    3.1133    1.9447 C   0  0  0  0  0  0  0  0  0  0  0  0
   -0.6555    3.2552    2.4581 H   0  0  0  0  0  0  0  0  0  0  0  0
    1.1073    3.3872    2.6322 H   0  0  0  0  0  0  0  0  0  0  0  0
    0.3412    3.7861    1.0813 H   0  0  0  0  0  0  0  0  0  0  0  0
  1  2  1  0  0  0  0
  2  3  1  0  0  0  0
  2  4  1  0  0  0  0
  2  5  1  0  0  0  0
  5  6  2  0  0  0  0
  5  7  1  0  0  0  0
  7  8  1  0  0  0  0
  7  9  1  0  0  0  0
  9 10  1  0  0  0  0
  9 11  1  0  0  0  0
  9 21  1  0  0  0  0
 11 12  1  0  0  0  0
 11 13  1  0  0  0  0
 11 14  1  0  0  0  0
 14 15  1  0  0  0  0
 14 16  1  0  0  0  0
 14 17  1  0  0  0  0
 17 18  2  0  0  0  0
 17 19  1  0  0  0  0
 19 20  1  0  0  0  0
 21 22  2  0  0  0  0
 21 23  1  0  0  0  0
 23 24  1  0  0  0  0
 23 25  1  0  0  0  0
 25 26  1  0  0  0  0
 25 27  1  0  0  0  0
 25 28  1  0  0  0  0
M  END
$$$$

  -OEChem-03222214033D

 28 27  0     1  0  0  0  0  0999 V2000
   -3.2601   -3.7528    1.3910 H   0  0  0  0  0  0  0  0  0  0  0  0
   -3.2362   -2.7694    0.9133 C   0  0  0  0  0  0  0  0  0  0  0  0
   -3.8491   -2.0790    1.4979 H   0  0  0  0  0  0  0  0  0  0  0  0
   -3.6547   -2.8553   -0.0923 H   0  0  0  0  0  0  0  0  0  0  0  0
   -1.8098   -2.2597    0.8377 C   0  0  0  0  0  0  0  0  0  0  0  0
   -0.8927   -2.9349    1.2773 O   0  0  0  0  0  0  0  0  0  0  0  0
   -1.5488   -1.0331    0.2634 N   0  0  0  0  0  0  0  0  0  0  0  0
   -2.3504   -0.4625   -0.0032 H   0  0  0  0  0  0  0  0  0  0  0  0
   -0.2370   -0.3656    0.2650 C   0  0  1  0  0  0  0  0  0  0  0  0
    0.3907   -0.8202    1.0384 H   0  0  0  0  0  0  0  0  0  0  0  0
    0.5031   -0.5056   -1.0833 C   0  0  0  0  0  0  0  0  0  0  0  0
    0.0243    0.1729   -1.7993 H   0  0  0  0  0  0  0  0  0  0  0  0
    1.5411   -0.1756   -0.9667 H   0  0  0  0  0  0  0  0  0  0  0  0
    0.4822   -1.9288   -1.6890 C   0  0  0  0  0  0  0  0  0  0  0  0
    1.1379   -2.5880   -1.1145 H   0  0  0  0  0  0  0  0  0  0  0  0
   -0.5253   -2.3459   -1.6450 H   0  0  0  0  0  0  0  0  0  0  0  0
    0.8955   -1.9588   -3.1587 C   0  0  0  0  0  0  0  0  0  0  0  0
    1.6947   -1.1367   -3.5726 O   0  0  0  0  0  0  0  0  0  0  0  0
    0.3520   -2.9169   -3.9395 O   0  0  0  0  0  0  0  0  0  0  0  0
    0.7400   -2.7751   -4.8164 H   0  0  0  0  0  0  0  0  0  0  0  0
   -0.3921    1.1254    0.6275 C   0  0  0  0  0  0  0  0  0  0  0  0
   -1.3350    1.7649    0.1755 O   0  0  0  0  0  0  0  0  0  0  0  0
    0.4633    1.7247    1.5334 N   0  0  0  0  0  0  0  0  0  0  0  0
    1.1988    1.1529    1.9392 H   0  0  0  0  0  0  0  0  0  0  0  0
    0.3134    3.1045    1.9802 C   0  0  0  0  0  0  0  0  0  0  0  0
   -0.6479    3.2410    2.4868 H   0  0  0  0  0  0  0  0  0  0  0  0
    1.1133    3.3651    2.6801 H   0  0  0  0  0  0  0  0  0  0  0  0
    0.3632    3.7908    1.1281 H   0  0  0  0  0  0  0  0  0  0  0  0
  1  2  1  0  0  0  0
  2  3  1  0  0  0  0
  2  4  1  0  0  0  0
  2  5  1  0  0  0  0
  5  6  2  0  0  0  0
  5  7  1  0  0  0  0
  7  8  1  0  0  0  0
  7  9  1  0  0  0  0
  9 10  1  0  0  0  0
  9 11  1  0  0  0  0
  9 21  1  0  0  0  0
 11 12  1  0  0  0  0
 11 13  1  0  0  0  0
 11 14  1  0  0  0  0
 14 15  1  0  0  0  0
 14 16  1  0  0  0  0
 14 17  1  0  0  0  0
 17 18  2  0  0  0  0
 17 19  1  0  0  0  0
 19 20  1  0  0  0  0
 21 22  2  0  0  0  0
 21 23  1  0  0  0  0
 23 24  1  0  0  0  0
 23 25  1  0  0  0  0
 25 26  1  0  0  0  0
 25 27  1  0  0  0  0
 25 28  1  0  0  0  0
M  END
$$$$

  -OEChem-03222214033D

 28 27  0     1  0  0  0  0  0999 V2000
   -3.2718   -3.7482    1.3980 H   0  0  0  0  0  0  0  0  0  0  0  0
   -3.2510   -2.7667    0.9160 C   0  0  0  0  0  0  0  0  0  0  0  0
   -3.8625   -2.0749    1.5003 H   0  0  0  0  0  0  0  0  0  0  0  0
   -3.6742   -2.8579   -0.0873 H   0  0  0  0  0  0  0  0  0  0  0  0
   -1.8253   -2.2556    0.8322 C   0  0  0  0  0  0  0  0  0  0  0  0
   -0.9037   -2.9388    1.2489 O   0  0  0  0  0  0  0  0  0  0  0  0
   -1.5718   -1.0204    0.2730 N   0  0  0  0  0  0  0  0  0  0  0  0
   -2.3772   -0.4451    0.0292 H   0  0  0  0  0  0  0  0  0  0  0  0
   -0.2592   -0.3528    0.2588 C   0  0  1  0  0  0  0  0  0  0  0  0
    0.3740   -0.8208    1.0198 H   0  0  0  0  0  0  0  0  0  0  0  0
    0.4709   -0.4898   -1.0978 C   0  0  0  0  0  0  0  0  0  0  0  0
    0.1913    0.3575   -1.7349 H   0  0  0  0  0  0  0  0  0  0  0  0
    1.5505   -0.4240   -0.9239 H   0  0  0  0  0  0  0  0  0  0  0  0
    0.1482   -1.7859   -1.8764 C   0  0  0  0  0  0  0  0  0  0  0  0
    0.4107   -2.6536   -1.2650 H   0  0  0  0  0  0  0  0  0  0  0  0
   -0.9223   -1.8340   -2.0892 H   0  0  0  0  0  0  0  0  0  0  0  0
    0.8800   -1.9025   -3.2129 C   0  0  0  0  0  0  0  0  0  0  0  0
    1.7751   -1.1224   -3.4894 O   0  0  0  0  0  0  0  0  0  0  0  0
    0.4854   -2.8929   -4.0409 O   0  0  0  0  0  0  0  0  0  0  0  0
    1.0571   -2.8106   -4.8193 H   0  0  0  0  0  0  0  0  0  0  0  0
   -0.3984    1.1334    0.6463 C   0  0  0  0  0  0  0  0  0  0  0  0
   -1.3477    1.7828    0.2228 O   0  0  0  0  0  0  0  0  0  0  0  0
    0.4785    1.7160    1.5423 N   0  0  0  0  0  0  0  0  0  0  0  0
    1.2256    1.1379    1.9167 H   0  0  0  0  0  0  0  0  0  0  0  0
    0.3565    3.0956    1.9981 C   0  0  0  0  0  0  0  0  0  0  0  0
   -0.6010    3.2480    2.5074 H   0  0  0  0  0  0  0  0  0  0  0  0
    1.1622    3.3359    2.6984 H   0  0  0  0  0  0  0  0  0  0  0  0
    0.4183    3.7864    1.1505 H   0  0  0  0  0  0  0  0  0  0  0  0
  1  2  1  0  0  0  0
  2  3  1  0  0  0  0
  2  4  1  0  0  0  0
  2  5  1  0  0  0  0
  5  6  2  0  0  0  0
  5  7  1  0  0  0  0
  7  8  1  0  0  0  0
  7  9  1  0  0  0  0
  9 10  1  0  0  0  0
  9 11  1  0  0  0  0
  9 21  1  0  0  0  0
 11 12  1  0  0  0  0
 11 13  1  0  0  0  0
 11 14  1  0  0  0  0
 14 15  1  0  0  0  0
 14 16  1  0  0  0  0
 14 17  1  0  0  0  0
 17 18  2  0  0  0  0
 17 19  1  0  0  0  0
 19 20  1  0  0  0  0
 21 22  2  0  0  0  0
 21 23  1  0  0  0  0
 23 24  1  0  0  0  0
 23 25  1  0  0  0  0
 25 26  1  0  0  0  0
 25 27  1  0  0  0  0
 25 28  1  0  0  0  0
M  END
$$$$

  -OEChem-03222214033D

 28 27  0     1  0  0  0  0  0999 V2000
   -3.2878   -3.7459    1.3899 H   0  0  0  0  0  0  0  0  0  0  0  0
   -3.2589   -2.7761    0.8851 C   0  0  0  0  0  0  0  0  0  0  0  0
   -3.8926   -2.0754    1.4341 H   0  0  0  0  0  0  0  0  0  0  0  0
   -3.6502   -2.8943   -0.1282 H   0  0  0  0  0  0  0  0  0  0  0  0
   -1.8348   -2.2570    0.8314 C   0  0  0  0  0  0  0  0  0  0  0  0
   -0.9199   -2.9340    1.2720 O   0  0  0  0  0  0  0  0  0  0  0  0
   -1.5750   -1.0200    0.2785 N   0  0  0  0  0  0  0  0  0  0  0  0
   -2.3776   -0.4484    0.0178 H   0  0  0  0  0  0  0  0  0  0  0  0
   -0.2607   -0.3542    0.2702 C   0  0  1  0  0  0  0  0  0  0  0  0
    0.3746   -0.8296    1.0248 H   0  0  0  0  0  0  0  0  0  0  0  0
    0.4594   -0.4754   -1.0930 C   0  0  0  0  0  0  0  0  0  0  0  0
    0.1979    0.3819   -1.7239 H   0  0  0  0  0  0  0  0  0  0  0  0
    1.5377   -0.4249   -0.9065 H   0  0  0  0  0  0  0  0  0  0  0  0
    0.1269   -1.7604   -1.8852 C   0  0  0  0  0  0  0  0  0  0  0  0
    0.1725   -2.6198   -1.2113 H   0  0  0  0  0  0  0  0  0  0  0  0
   -0.8880   -1.6972   -2.2853 H   0  0  0  0  0  0  0  0  0  0  0  0
    1.0876   -2.0532   -3.0376 C   0  0  0  0  0  0  0  0  0  0  0  0
    1.9679   -1.2582   -3.3191 O   0  0  0  0  0  0  0  0  0  0  0  0
    0.8977   -3.2083   -3.7097 O   0  0  0  0  0  0  0  0  0  0  0  0
    1.5898   -3.2197   -4.3882 H   0  0  0  0  0  0  0  0  0  0  0  0
   -0.3947    1.1309    0.6638 C   0  0  0  0  0  0  0  0  0  0  0  0
   -1.3327    1.7907    0.2315 O   0  0  0  0  0  0  0  0  0  0  0  0
    0.4837    1.7051    1.5638 N   0  0  0  0  0  0  0  0  0  0  0  0
    1.2282    1.1222    1.9360 H   0  0  0  0  0  0  0  0  0  0  0  0
    0.3884    3.0931    1.9998 C   0  0  0  0  0  0  0  0  0  0  0  0
   -0.5746    3.2775    2.4876 H   0  0  0  0  0  0  0  0  0  0  0  0
    1.1860    3.3216    2.7132 H   0  0  0  0  0  0  0  0  0  0  0  0
    0.4856    3.7700    1.1444 H   0  0  0  0  0  0  0  0  0  0  0  0
  1  2  1  0  0  0  0
  2  3  1  0  0  0  0
  2  4  1  0  0  0  0
  2  5  1  0  0  0  0
  5  6  2  0  0  0  0
  5  7  1  0  0  0  0
  7  8  1  0  0  0  0
  7  9  1  0  0  0  0
  9 10  1  0  0  0  0
  9 11  1  0  0  0  0
  9 21  1  0  0  0  0
 11 12  1  0  0  0  0
 11 13  1  0  0  0  0
 11 14  1  0  0  0  0
 14 15  1  0  0  0  0
 14 16  1  0  0  0  0
 14 17  1  0  0  0  0
 17 18  2  0  0  0  0
 17 19  1  0  0  0  0
 19 20  1  0  0  0  0
 21 22  2  0  0  0  0
 21 23  1  0  0  0  0
 23 24  1  0  0  0  0
 23 25  1  0  0  0  0
 25 26  1  0  0  0  0
 25 27  1  0  0  0  0
 25 28  1  0  0  0  0
M  END
$$$$

  -OEChem-03222214033D

 28 27  0     1  0  0  0  0  0999 V2000
   -3.3154   -3.7289    1.3849 H   0  0  0  0  0  0  0  0  0  0  0  0
   -3.2781   -2.7533    0.8921 C   0  0  0  0  0  0  0  0  0  0  0  0
   -3.8988   -2.0514    1.4541 H   0  0  0  0  0  0  0  0  0  0  0  0
   -3.6776   -2.8541   -0.1198 H   0  0  0  0  0  0  0  0  0  0  0  0
   -1.8483   -2.2505    0.8363 C   0  0  0  0  0  0  0  0  0  0  0  0
   -0.9418   -2.9309    1.2889 O   0  0  0  0  0  0  0  0  0  0  0  0
   -1.5759   -1.0180    0.2792 N   0  0  0  0  0  0  0  0  0  0  0  0
   -2.3728   -0.4420    0.0105 H   0  0  0  0  0  0  0  0  0  0  0  0
   -0.2564   -0.3624    0.2698 C   0  0  1  0  0  0  0  0  0  0  0  0
    0.3764   -0.8410    1.0246 H   0  0  0  0  0  0  0  0  0  0  0  0
    0.4637   -0.4785   -1.0952 C   0  0  0  0  0  0  0  0  0  0  0  0
    0.2187    0.3880   -1.7199 H   0  0  0  0  0  0  0  0  0  0  0  0
    1.5389   -0.4338   -0.8911 H   0  0  0  0  0  0  0  0  0  0  0  0
    0.1354   -1.7522   -1.9128 C   0  0  0  0  0  0  0  0  0  0  0  0
   -0.0602   -2.5806   -1.2290 H   0  0  0  0  0  0  0  0  0  0  0  0
   -0.7644   -1.5902   -2.5111 H   0  0  0  0  0  0  0  0  0  0  0  0
    1.2688   -2.2331   -2.8197 C   0  0  0  0  0  0  0  0  0  0  0  0
    2.1976   -1.4893   -3.0849 O   0  0  0  0  0  0  0  0  0  0  0  0
    1.1665   -3.4857   -3.3123 O   0  0  0  0  0  0  0  0  0  0  0  0
    1.9593   -3.6066   -3.8565 H   0  0  0  0  0  0  0  0  0  0  0  0
   -0.3864    1.1245    0.6586 C   0  0  0  0  0  0  0  0  0  0  0  0
   -1.3236    1.7850    0.2253 O   0  0  0  0  0  0  0  0  0  0  0  0
    0.4923    1.6980    1.5587 N   0  0  0  0  0  0  0  0  0  0  0  0
    1.2335    1.1130    1.9343 H   0  0  0  0  0  0  0  0  0  0  0  0
    0.3831    3.0789    2.0134 C   0  0  0  0  0  0  0  0  0  0  0  0
   -0.5783    3.2439    2.5110 H   0  0  0  0  0  0  0  0  0  0  0  0
    1.1833    3.3080    2.7238 H   0  0  0  0  0  0  0  0  0  0  0  0
    0.4648    3.7685    1.1666 H   0  0  0  0  0  0  0  0  0  0  0  0
  1  2  1  0  0  0  0
  2  3  1  0  0  0  0
  2  4  1  0  0  0  0
  2  5  1  0  0  0  0
  5  6  2  0  0  0  0
  5  7  1  0  0  0  0
  7  8  1  0  0  0  0
  7  9  1  0  0  0  0
  9 10  1  0  0  0  0
  9 11  1  0  0  0  0
  9 21  1  0  0  0  0
 11 12  1  0  0  0  0
 11 13  1  0  0  0  0
 11 14  1  0  0  0  0
 14 15  1  0  0  0  0
 14 16  1  0  0  0  0
 14 17  1  0  0  0  0
 17 18  2  0  0  0  0
 17 19  1  0  0  0  0
 19 20  1  0  0  0  0
 21 22  2  0  0  0  0
 21 23  1  0  0  0  0
 23 24  1  0  0  0  0
 23 25  1  0  0  0  0
 25 26  1  0  0  0  0
 25 27  1  0  0  0  0
 25 28  1  0  0  0  0
M  END
$$$$

  -OEChem-03222214033D

 28 27  0     1  0  0  0  0  0999 V2000
   -3.3429   -3.7163    1.3855 H   0  0  0  0  0  0  0  0  0  0  0  0
   -3.3006   -2.7345    0.9055 C   0  0  0  0  0  0  0  0  0  0  0  0
   -3.9057   -2.0328    1.4848 H   0  0  0  0  0  0  0  0  0  0  0  0
   -3.7146   -2.8171   -0.1024 H   0  0  0  0  0  0  0  0  0  0  0  0
   -1.8661   -2.2471    0.8380 C   0  0  0  0  0  0  0  0  0  0  0  0
   -0.9629   -2.9374    1.2819 O   0  0  0  0  0  0  0  0  0  0  0  0
   -1.5849   -1.0165    0.2807 N   0  0  0  0  0  0  0  0  0  0  0  0
   -2.3777   -0.4311    0.0203 H   0  0  0  0  0  0  0  0  0  0  0  0
   -0.2595   -0.3729    0.2683 C   0  0  1  0  0  0  0  0  0  0  0  0
    0.3697   -0.8564    1.0231 H   0  0  0  0  0  0  0  0  0  0  0  0
    0.4693   -0.4832   -1.0952 C   0  0  0  0  0  0  0  0  0  0  0  0
    0.2248    0.3904   -1.7101 H   0  0  0  0  0  0  0  0  0  0  0  0
    1.5421   -0.4274   -0.8830 H   0  0  0  0  0  0  0  0  0  0  0  0
    0.1564   -1.7431   -1.9475 C   0  0  0  0  0  0  0  0  0  0  0  0
   -0.3090   -2.5112   -1.3298 H   0  0  0  0  0  0  0  0  0  0  0  0
   -0.5483   -1.4870   -2.7422 H   0  0  0  0  0  0  0  0  0  0  0  0
    1.3851   -2.4138   -2.5631 C   0  0  0  0  0  0  0  0  0  0  0  0
    2.3730   -1.7486   -2.8240 O   0  0  0  0  0  0  0  0  0  0  0  0
    1.2996   -3.7360   -2.8221 O   0  0  0  0  0  0  0  0  0  0  0  0
    2.1576   -3.9732   -3.2052 H   0  0  0  0  0  0  0  0  0  0  0  0
   -0.3858    1.1137    0.6598 C   0  0  0  0  0  0  0  0  0  0  0  0
   -1.3203    1.7778    0.2258 O   0  0  0  0  0  0  0  0  0  0  0  0
    0.4941    1.6851    1.5602 N   0  0  0  0  0  0  0  0  0  0  0  0
    1.2274    1.0954    1.9440 H   0  0  0  0  0  0  0  0  0  0  0  0
    0.3809    3.0633    2.0226 C   0  0  0  0  0  0  0  0  0  0  0  0
   -0.5755    3.2194    2.5328 H   0  0  0  0  0  0  0  0  0  0  0  0
    1.1884    3.2952    2.7238 H   0  0  0  0  0  0  0  0  0  0  0  0
    0.4470    3.7575    1.1781 H   0  0  0  0  0  0  0  0  0  0  0  0
  1  2  1  0  0  0  0
  2  3  1  0  0  0  0
  2  4  1  0  0  0  0
  2  5  1  0  0  0  0
  5  6  2  0  0  0  0
  5  7  1  0  0  0  0
  7  8  1  0  0  0  0
  7  9  1  0  0  0  0
  9 10  1  0  0  0  0
  9 11  1  0  0  0  0
  9 21  1  0  0  0  0
 11 12  1  0  0  0  0
 11 13  1  0  0  0  0
 11 14  1  0  0  0  0
 14 15  1  0  0  0  0
 14 16  1  0  0  0  0
 14 17  1  0  0  0  0
 17 18  2  0  0  0  0
 17 19  1  0  0  0  0
 19 20  1  0  0  0  0
 21 22  2  0  0  0  0
 21 23  1  0  0  0  0
 23 24  1  0  0  0  0
 23 25  1  0  0  0  0
 25 26  1  0  0  0  0
 25 27  1  0  0  0  0
 25 28  1  0  0  0  0
M  END
$$$$

  -OEChem-03222214033D

 28 27  0     1  0  0  0  0  0999 V2000
   -3.3417   -3.7159    1.3895 H   0  0  0  0  0  0  0  0  0  0  0  0
   -3.3028   -2.7300    0.9178 C   0  0  0  0  0  0  0  0  0  0  0  0
   -3.9027   -2.0332    1.5081 H   0  0  0  0  0  0  0  0  0  0  0  0
   -3.7250   -2.8032   -0.0873 H   0  0  0  0  0  0  0  0  0  0  0  0
   -1.8684   -2.2432    0.8435 C   0  0  0  0  0  0  0  0  0  0  0  0
   -0.9630   -2.9365    1.2775 O   0  0  0  0  0  0  0  0  0  0  0  0
   -1.5897   -1.0134    0.2832 N   0  0  0  0  0  0  0  0  0  0  0  0
   -2.3836   -0.4277    0.0269 H   0  0  0  0  0  0  0  0  0  0  0  0
   -0.2649   -0.3694    0.2731 C   0  0  1  0  0  0  0  0  0  0  0  0
    0.3574   -0.8485    1.0364 H   0  0  0  0  0  0  0  0  0  0  0  0
    0.4876   -0.4864   -1.0779 C   0  0  0  0  0  0  0  0  0  0  0  0
    0.2109    0.3756   -1.6951 H   0  0  0  0  0  0  0  0  0  0  0  0
    1.5568   -0.3809   -0.8696 H   0  0  0  0  0  0  0  0  0  0  0  0
    0.2058   -1.7502   -1.9428 C   0  0  0  0  0  0  0  0  0  0  0  0
   -0.5302   -2.4000   -1.4720 H   0  0  0  0  0  0  0  0  0  0  0  0
   -0.2153   -1.4352   -2.9005 H   0  0  0  0  0  0  0  0  0  0  0  0
    1.4246   -2.6270   -2.2386 C   0  0  0  0  0  0  0  0  0  0  0  0
    2.5474   -2.1530   -2.2112 O   0  0  0  0  0  0  0  0  0  0  0  0
    1.1795   -3.9152   -2.5596 O   0  0  0  0  0  0  0  0  0  0  0  0
    2.0534   -4.3079   -2.7054 H   0  0  0  0  0  0  0  0  0  0  0  0
   -0.3937    1.1183    0.6607 C   0  0  0  0  0  0  0  0  0  0  0  0
   -1.3265    1.7808    0.2206 O   0  0  0  0  0  0  0  0  0  0  0  0
    0.4824    1.6933    1.5622 N   0  0  0  0  0  0  0  0  0  0  0  0
    1.2139    1.1048    1.9514 H   0  0  0  0  0  0  0  0  0  0  0  0
    0.3635    3.0715    2.0232 C   0  0  0  0  0  0  0  0  0  0  0  0
   -0.5937    3.2240    2.5331 H   0  0  0  0  0  0  0  0  0  0  0  0
    1.1698    3.3072    2.7244 H   0  0  0  0  0  0  0  0  0  0  0  0
    0.4270    3.7657    1.1785 H   0  0  0  0  0  0  0  0  0  0  0  0
  1  2  1  0  0  0  0
  2  3  1  0  0  0  0
  2  4  1  0  0  0  0
  2  5  1  0  0  0  0
  5  6  2  0  0  0  0
  5  7  1  0  0  0  0
  7  8  1  0  0  0  0
  7  9  1  0  0  0  0
  9 10  1  0  0  0  0
  9 11  1  0  0  0  0
  9 21  1  0  0  0  0
 11 12  1  0  0  0  0
 11 13  1  0  0  0  0
 11 14  1  0  0  0  0
 14 15  1  0  0  0  0
 14 16  1  0  0  0  0
 14 17  1  0  0  0  0
 17 18  2  0  0  0  0
 17 19  1  0  0  0  0
 19 20  1  0  0  0  0
 21 22  2  0  0  0  0
 21 23  1  0  0  0  0
 23 24  1  0  0  0  0
 23 25  1  0  0  0  0
 25 26  1  0  0  0  0
 25 27  1  0  0  0  0
 25 28  1  0  0  0  0
M  END
$$$$

  -OEChem-03222214033D

 28 27  0     1  0  0  0  0  0999 V2000
   -3.3260   -3.7136    1.4139 H   0  0  0  0  0  0  0  0  0  0  0  0
   -3.2946   -2.7377    0.9211 C   0  0  0  0  0  0  0  0  0  0  0  0
   -3.9017   -2.0338    1.4953 H   0  0  0  0  0  0  0  0  0  0  0  0
   -3.7143   -2.8362   -0.0829 H   0  0  0  0  0  0  0  0  0  0  0  0
   -1.8642   -2.2407    0.8378 C   0  0  0  0  0  0  0  0  0  0  0  0
   -0.9503   -2.9361    1.2498 O   0  0  0  0  0  0  0  0  0  0  0  0
   -1.5991   -1.0066    0.2804 N   0  0  0  0  0  0  0  0  0  0  0  0
   -2.3996   -0.4226    0.0418 H   0  0  0  0  0  0  0  0  0  0  0  0
   -0.2799   -0.3522    0.2683 C   0  0  1  0  0  0  0  0  0  0  0  0
    0.3398   -0.8267    1.0365 H   0  0  0  0  0  0  0  0  0  0  0  0
    0.4874   -0.4856   -1.0716 C   0  0  0  0  0  0  0  0  0  0  0  0
    0.1686    0.3520   -1.7022 H   0  0  0  0  0  0  0  0  0  0  0  0
    1.5561   -0.3349   -0.8902 H   0  0  0  0  0  0  0  0  0  0  0  0
    0.2222   -1.7686   -1.9115 C   0  0  0  0  0  0  0  0  0  0  0  0
   -0.7107   -2.2591   -1.6375 H   0  0  0  0  0  0  0  0  0  0  0  0
    0.1173   -1.4706   -2.9577 H   0  0  0  0  0  0  0  0  0  0  0  0
    1.3386   -2.8153   -1.8746 C   0  0  0  0  0  0  0  0  0  0  0  0
    2.4377   -2.5384   -1.4250 O   0  0  0  0  0  0  0  0  0  0  0  0
    1.0381   -4.0300   -2.3812 O   0  0  0  0  0  0  0  0  0  0  0  0
    1.8392   -4.5591   -2.2481 H   0  0  0  0  0  0  0  0  0  0  0  0
   -0.4060    1.1340    0.6591 C   0  0  0  0  0  0  0  0  0  0  0  0
   -1.3413    1.7981    0.2270 O   0  0  0  0  0  0  0  0  0  0  0  0
    0.4772    1.7032    1.5575 N   0  0  0  0  0  0  0  0  0  0  0  0
    1.2168    1.1135    1.9299 H   0  0  0  0  0  0  0  0  0  0  0  0
    0.3700    3.0810    2.0220 C   0  0  0  0  0  0  0  0  0  0  0  0
   -0.5928    3.2454    2.5174 H   0  0  0  0  0  0  0  0  0  0  0  0
    1.1679    3.3021    2.7374 H   0  0  0  0  0  0  0  0  0  0  0  0
    0.4568    3.7769    1.1808 H   0  0  0  0  0  0  0  0  0  0  0  0
  1  2  1  0  0  0  0
  2  3  1  0  0  0  0
  2  4  1  0  0  0  0
  2  5  1  0  0  0  0
  5  6  2  0  0  0  0
  5  7  1  0  0  0  0
  7  8  1  0  0  0  0
  7  9  1  0  0  0  0
  9 10  1  0  0  0  0
  9 11  1  0  0  0  0
  9 21  1  0  0  0  0
 11 12  1  0  0  0  0
 11 13  1  0  0  0  0
 11 14  1  0  0  0  0
 14 15  1  0  0  0  0
 14 16  1  0  0  0  0
 14 17  1  0  0  0  0
 17 18  2  0  0  0  0
 17 19  1  0  0  0  0
 19 20  1  0  0  0  0
 21 22  2  0  0  0  0
 21 23  1  0  0  0  0
 23 24  1  0  0  0  0
 23 25  1  0  0  0  0
 25 26  1  0  0  0  0
 25 27  1  0  0  0  0
 25 28  1  0  0  0  0
M  END
$$$$

  -OEChem-03222214033D

 28 27  0     1  0  0  0  0  0999 V2000
   -3.2986   -3.7376    1.3737 H   0  0  0  0  0  0  0  0  0  0  0  0
   -3.2710   -2.7611    0.8819 C   0  0  0  0  0  0  0  0  0  0  0  0
   -3.8918   -2.0639    1.4498 H   0  0  0  0  0  0  0  0  0  0  0  0
   -3.6783   -2.8633   -0.1268 H   0  0  0  0  0  0  0  0  0  0  0  0
   -1.8447   -2.2498    0.8142 C   0  0  0  0  0  0  0  0  0  0  0  0
   -0.9286   -2.9380    1.2331 O   0  0  0  0  0  0  0  0  0  0  0  0
   -1.5865   -1.0094    0.2673 N   0  0  0  0  0  0  0  0  0  0  0  0
   -2.3900   -0.4308    0.0261 H   0  0  0  0  0  0  0  0  0  0  0  0
   -0.2714   -0.3464    0.2633 C   0  0  1  0  0  0  0  0  0  0  0  0
    0.3513   -0.8243    1.0275 H   0  0  0  0  0  0  0  0  0  0  0  0
    0.4913   -0.4707   -1.0788 C   0  0  0  0  0  0  0  0  0  0  0  0
    0.1702    0.3671   -1.7078 H   0  0  0  0  0  0  0  0  0  0  0  0
    1.5641   -0.3319   -0.9082 H   0  0  0  0  0  0  0  0  0  0  0  0
    0.2144   -1.7537   -1.9051 C   0  0  0  0  0  0  0  0  0  0  0  0
   -0.8217   -2.0832   -1.8214 H   0  0  0  0  0  0  0  0  0  0  0  0
    0.3778   -1.5182   -2.9595 H   0  0  0  0  0  0  0  0  0  0  0  0
    1.1456   -2.9220   -1.5789 C   0  0  0  0  0  0  0  0  0  0  0  0
    2.2443   -2.7130   -1.0920 O   0  0  0  0  0  0  0  0  0  0  0  0
    0.6954   -4.1589   -1.8782 O   0  0  0  0  0  0  0  0  0  0  0  0
    1.3863   -4.7577   -1.5566 H   0  0  0  0  0  0  0  0  0  0  0  0
   -0.4023    1.1363    0.6646 C   0  0  0  0  0  0  0  0  0  0  0  0
   -1.3345    1.8026    0.2291 O   0  0  0  0  0  0  0  0  0  0  0  0
    0.4773    1.7026    1.5681 N   0  0  0  0  0  0  0  0  0  0  0  0
    1.2146    1.1112    1.9423 H   0  0  0  0  0  0  0  0  0  0  0  0
    0.3700    3.0797    2.0343 C   0  0  0  0  0  0  0  0  0  0  0  0
   -0.5946    3.2438    2.5262 H   0  0  0  0  0  0  0  0  0  0  0  0
    1.1656    3.2992    2.7527 H   0  0  0  0  0  0  0  0  0  0  0  0
    0.4606    3.7769    1.1948 H   0  0  0  0  0  0  0  0  0  0  0  0
  1  2  1  0  0  0  0
  2  3  1  0  0  0  0
  2  4  1  0  0  0  0
  2  5  1  0  0  0  0
  5  6  2  0  0  0  0
  5  7  1  0  0  0  0
  7  8  1  0  0  0  0
  7  9  1  0  0  0  0
  9 10  1  0  0  0  0
  9 11  1  0  0  0  0
  9 21  1  0  0  0  0
 11 12  1  0  0  0  0
 11 13  1  0  0  0  0
 11 14  1  0  0  0  0
 14 15  1  0  0  0  0
 14 16  1  0  0  0  0
 14 17  1  0  0  0  0
 17 18  2  0  0  0  0
 17 19  1  0  0  0  0
 19 20  1  0  0  0  0
 21 22  2  0  0  0  0
 21 23  1  0  0  0  0
 23 24  1  0  0  0  0
 23 25  1  0  0  0  0
 25 26  1  0  0  0  0
 25 27  1  0  0  0  0
 25 28  1  0  0  0  0
M  END
$$$$

  -OEChem-03222214033D

 28 27  0     1  0  0  0  0  0999 V2000
   -3.2697   -3.7823    1.3117 H   0  0  0  0  0  0  0  0  0  0  0  0
   -3.2375   -2.8070    0.8180 C   0  0  0  0  0  0  0  0  0  0  0  0
   -3.9101   -2.1244    1.3430 H   0  0  0  0  0  0  0  0  0  0  0  0
   -3.5786   -2.9240   -0.2134 H   0  0  0  0  0  0  0  0  0  0  0  0
   -1.8230   -2.2595    0.8356 C   0  0  0  0  0  0  0  0  0  0  0  0
   -0.9253   -2.9088    1.3468 O   0  0  0  0  0  0  0  0  0  0  0  0
   -1.5608   -1.0214    0.2842 N   0  0  0  0  0  0  0  0  0  0  0  0
   -2.3591   -0.4697   -0.0262 H   0  0  0  0  0  0  0  0  0  0  0  0
   -0.2488   -0.3513    0.2824 C   0  0  1  0  0  0  0  0  0  0  0  0
    0.3844   -0.8264    1.0395 H   0  0  0  0  0  0  0  0  0  0  0  0
    0.4907   -0.4613   -1.0748 C   0  0  0  0  0  0  0  0  0  0  0  0
    0.1806    0.3870   -1.6951 H   0  0  0  0  0  0  0  0  0  0  0  0
    1.5685   -0.3547   -0.9115 H   0  0  0  0  0  0  0  0  0  0  0  0
    0.1944   -1.7358   -1.8988 C   0  0  0  0  0  0  0  0  0  0  0  0
   -0.8800   -1.9136   -1.9803 H   0  0  0  0  0  0  0  0  0  0  0  0
    0.5683   -1.5898   -2.9151 H   0  0  0  0  0  0  0  0  0  0  0  0
    0.8793   -2.9831   -1.3448 C   0  0  0  0  0  0  0  0  0  0  0  0
    1.9917   -2.8888   -0.8535 O   0  0  0  0  0  0  0  0  0  0  0  0
    0.2080   -4.1503   -1.4431 O   0  0  0  0  0  0  0  0  0  0  0  0
    0.7574   -4.7890   -0.9635 H   0  0  0  0  0  0  0  0  0  0  0  0
   -0.3899    1.1328    0.6752 C   0  0  0  0  0  0  0  0  0  0  0  0
   -1.3120    1.7978    0.2169 O   0  0  0  0  0  0  0  0  0  0  0  0
    0.4827    1.7081    1.5799 N   0  0  0  0  0  0  0  0  0  0  0  0
    1.2079    1.1164    1.9766 H   0  0  0  0  0  0  0  0  0  0  0  0
    0.3709    3.0893    2.0324 C   0  0  0  0  0  0  0  0  0  0  0  0
   -0.5997    3.2589    2.5105 H   0  0  0  0  0  0  0  0  0  0  0  0
    1.1576    3.3145    2.7589 H   0  0  0  0  0  0  0  0  0  0  0  0
    0.4728    3.7786    1.1876 H   0  0  0  0  0  0  0  0  0  0  0  0
  1  2  1  0  0  0  0
  2  3  1  0  0  0  0
  2  4  1  0  0  0  0
  2  5  1  0  0  0  0
  5  6  2  0  0  0  0
  5  7  1  0  0  0  0
  7  8  1  0  0  0  0
  7  9  1  0  0  0  0
  9 10  1  0  0  0  0
  9 11  1  0  0  0  0
  9 21  1  0  0  0  0
 11 12  1  0  0  0  0
 11 13  1  0  0  0  0
 11 14  1  0  0  0  0
 14 15  1  0  0  0  0
 14 16  1  0  0  0  0
 14 17  1  0  0  0  0
 17 18  2  0  0  0  0
 17 19  1  0  0  0  0
 19 20  1  0  0  0  0
 21 22  2  0  0  0  0
 21 23  1  0  0  0  0
 23 24  1  0  0  0  0
 23 25  1  0  0  0  0
 25 26  1  0  0  0  0
 25 27  1  0  0  0  0
 25 28  1  0  0  0  0
M  END
$$$$

  -OEChem-03222214033D

 28 27  0     1  0  0  0  0  0999 V2000
   -3.2822   -3.7935    1.3067 H   0  0  0  0  0  0  0  0  0  0  0  0
   -3.2273   -2.8278    0.7964 C   0  0  0  0  0  0  0  0  0  0  0  0
   -3.9451   -2.1446    1.2567 H   0  0  0  0  0  0  0  0  0  0  0  0
   -3.4905   -2.9703   -0.2544 H   0  0  0  0  0  0  0  0  0  0  0  0
   -1.8260   -2.2585    0.9038 C   0  0  0  0  0  0  0  0  0  0  0  0
   -0.9680   -2.8672    1.5225 O   0  0  0  0  0  0  0  0  0  0  0  0
   -1.5405   -1.0364    0.3297 N   0  0  0  0  0  0  0  0  0  0  0  0
   -2.3225   -0.5134   -0.0607 H   0  0  0  0  0  0  0  0  0  0  0  0
   -0.2269   -0.3687    0.3228 C   0  0  1  0  0  0  0  0  0  0  0  0
    0.4124   -0.8347    1.0808 H   0  0  0  0  0  0  0  0  0  0  0  0
    0.4962   -0.4709   -1.0480 C   0  0  0  0  0  0  0  0  0  0  0  0
    0.2105    0.3925   -1.6595 H   0  0  0  0  0  0  0  0  0  0  0  0
    1.5756   -0.3968   -0.8764 H   0  0  0  0  0  0  0  0  0  0  0  0
    0.2035   -1.7275   -1.8960 C   0  0  0  0  0  0  0  0  0  0  0  0
   -0.8591   -1.7630   -2.1492 H   0  0  0  0  0  0  0  0  0  0  0  0
    0.7608   -1.6699   -2.8341 H   0  0  0  0  0  0  0  0  0  0  0  0
    0.5871   -3.0284   -1.1987 C   0  0  0  0  0  0  0  0  0  0  0  0
    1.6706   -3.0949   -0.6439 O   0  0  0  0  0  0  0  0  0  0  0  0
   -0.2906   -4.0540   -1.2455 O   0  0  0  0  0  0  0  0  0  0  0  0
    0.0983   -4.7271   -0.6647 H   0  0  0  0  0  0  0  0  0  0  0  0
   -0.3802    1.1233    0.6818 C   0  0  0  0  0  0  0  0  0  0  0  0
   -1.2909    1.7789    0.1876 O   0  0  0  0  0  0  0  0  0  0  0  0
    0.4809    1.7217    1.5823 N   0  0  0  0  0  0  0  0  0  0  0  0
    1.1854    1.1341    2.0203 H   0  0  0  0  0  0  0  0  0  0  0  0
    0.3534    3.1098    2.0094 C   0  0  0  0  0  0  0  0  0  0  0  0
   -0.6191    3.2773    2.4843 H   0  0  0  0  0  0  0  0  0  0  0  0
    1.1378    3.3568    2.7313 H   0  0  0  0  0  0  0  0  0  0  0  0
    0.4479    3.7849    1.1523 H   0  0  0  0  0  0  0  0  0  0  0  0
  1  2  1  0  0  0  0
  2  3  1  0  0  0  0
  2  4  1  0  0  0  0
  2  5  1  0  0  0  0
  5  6  2  0  0  0  0
  5  7  1  0  0  0  0
  7  8  1  0  0  0  0
  7  9  1  0  0  0  0
  9 10  1  0  0  0  0
  9 11  1  0  0  0  0
  9 21  1  0  0  0  0
 11 12  1  0  0  0  0
 11 13  1  0  0  0  0
 11 14  1  0  0  0  0
 14 15  1  0  0  0  0
 14 16  1  0  0  0  0
 14 17  1  0  0  0  0
 17 18  2  0  0  0  0
 17 19  1  0  0  0  0
 19 20  1  0  0  0  0
 21 22  2  0  0  0  0
 21 23  1  0  0  0  0
 23 24  1  0  0  0  0
 23 25  1  0  0  0  0
 25 26  1  0  0  0  0
 25 27  1  0  0  0  0
 25 28  1  0  0  0  0
M  END
$$$$

  -OEChem-03222214033D

 28 27  0     1  0  0  0  0  0999 V2000
   -3.3588   -3.7452    1.4080 H   0  0  0  0  0  0  0  0  0  0  0  0
   -3.2755   -2.7971    0.8694 C   0  0  0  0  0  0  0  0  0  0  0  0
   -3.9849   -2.0849    1.2978 H   0  0  0  0  0  0  0  0  0  0  0  0
   -3.5269   -2.9662   -0.1806 H   0  0  0  0  0  0  0  0  0  0  0  0
   -1.8638   -2.2536    0.9818 C   0  0  0  0  0  0  0  0  0  0  0  0
   -1.0317   -2.8574    1.6382 O   0  0  0  0  0  0  0  0  0  0  0  0
   -1.5482   -1.0519    0.3820 N   0  0  0  0  0  0  0  0  0  0  0  0
   -2.3168   -0.5399   -0.0477 H   0  0  0  0  0  0  0  0  0  0  0  0
   -0.2310   -0.3901    0.3685 C   0  0  1  0  0  0  0  0  0  0  0  0
    0.4005   -0.8427    1.1410 H   0  0  0  0  0  0  0  0  0  0  0  0
    0.5107   -0.4939   -0.9973 C   0  0  0  0  0  0  0  0  0  0  0  0
    0.2565    0.3815   -1.6055 H   0  0  0  0  0  0  0  0  0  0  0  0
    1.5836   -0.4319   -0.7856 H   0  0  0  0  0  0  0  0  0  0  0  0
    0.2775   -1.7279   -1.8978 C   0  0  0  0  0  0  0  0  0  0  0  0
   -0.7052   -1.6350   -2.3676 H   0  0  0  0  0  0  0  0  0  0  0  0
    1.0227   -1.7454   -2.6970 H   0  0  0  0  0  0  0  0  0  0  0  0
    0.3173   -3.0650   -1.1705 C   0  0  0  0  0  0  0  0  0  0  0  0
    1.3259   -3.3325   -0.5418 O   0  0  0  0  0  0  0  0  0  0  0  0
   -0.7292   -3.9104   -1.2949 O   0  0  0  0  0  0  0  0  0  0  0  0
   -0.5010   -4.6498   -0.7081 H   0  0  0  0  0  0  0  0  0  0  0  0
   -0.3945    1.1111    0.6867 C   0  0  0  0  0  0  0  0  0  0  0  0
   -1.2996    1.7520    0.1636 O   0  0  0  0  0  0  0  0  0  0  0  0
    0.4547    1.7363    1.5805 N   0  0  0  0  0  0  0  0  0  0  0  0
    1.1499    1.1614    2.0492 H   0  0  0  0  0  0  0  0  0  0  0  0
    0.3190    3.1355    1.9669 C   0  0  0  0  0  0  0  0  0  0  0  0
   -0.6531    3.3103    2.4401 H   0  0  0  0  0  0  0  0  0  0  0  0
    1.1042    3.4100    2.6779 H   0  0  0  0  0  0  0  0  0  0  0  0
    0.4057    3.7850    1.0894 H   0  0  0  0  0  0  0  0  0  0  0  0
  1  2  1  0  0  0  0
  2  3  1  0  0  0  0
  2  4  1  0  0  0  0
  2  5  1  0  0  0  0
  5  6  2  0  0  0  0
  5  7  1  0  0  0  0
  7  8  1  0  0  0  0
  7  9  1  0  0  0  0
  9 10  1  0  0  0  0
  9 11  1  0  0  0  0
  9 21  1  0  0  0  0
 11 12  1  0  0  0  0
 11 13  1  0  0  0  0
 11 14  1  0  0  0  0
 14 15  1  0  0  0  0
 14 16  1  0  0  0  0
 14 17  1  0  0  0  0
 17 18  2  0  0  0  0
 17 19  1  0  0  0  0
 19 20  1  0  0  0  0
 21 22  2  0  0  0  0
 21 23  1  0  0  0  0
 23 24  1  0  0  0  0
 23 25  1  0  0  0  0
 25 26  1  0  0  0  0
 25 27  1  0  0  0  0
 25 28  1  0  0  0  0
M  END
$$$$

  -OEChem-03222214033D

 28 27  0     1  0  0  0  0  0999 V2000
   -3.2793   -3.8136    1.5115 H   0  0  0  0  0  0  0  0  0  0  0  0
   -3.2425   -2.8382    1.0190 C   0  0  0  0  0  0  0  0  0  0  0  0
   -3.9289   -2.1587    1.5296 H   0  0  0  0  0  0  0  0  0  0  0  0
   -3.5621   -2.9557   -0.0192 H   0  0  0  0  0  0  0  0  0  0  0  0
   -1.8325   -2.2810    1.0672 C   0  0  0  0  0  0  0  0  0  0  0  0
   -0.9697   -2.8666    1.6986 O   0  0  0  0  0  0  0  0  0  0  0  0
   -1.5554   -1.0768    0.4549 N   0  0  0  0  0  0  0  0  0  0  0  0
   -2.3439   -0.5820    0.0414 H   0  0  0  0  0  0  0  0  0  0  0  0
   -0.2514   -0.3940    0.4025 C   0  0  1  0  0  0  0  0  0  0  0  0
    0.4057   -0.8320    1.1617 H   0  0  0  0  0  0  0  0  0  0  0  0
    0.4758   -0.4656   -0.9760 C   0  0  0  0  0  0  0  0  0  0  0  0
    0.2081    0.4229   -1.5594 H   0  0  0  0  0  0  0  0  0  0  0  0
    1.5455   -0.3841   -0.7569 H   0  0  0  0  0  0  0  0  0  0  0  0
    0.3053   -1.6665   -1.9400 C   0  0  0  0  0  0  0  0  0  0  0  0
   -0.5440   -1.4499   -2.5932 H   0  0  0  0  0  0  0  0  0  0  0  0
    1.1898   -1.7435   -2.5782 H   0  0  0  0  0  0  0  0  0  0  0  0
    0.0393   -3.0328   -1.3263 C   0  0  0  0  0  0  0  0  0  0  0  0
    0.9651   -3.5635   -0.7411 O   0  0  0  0  0  0  0  0  0  0  0  0
   -1.1512   -3.6374   -1.5354 O   0  0  0  0  0  0  0  0  0  0  0  0
   -1.0629   -4.4855   -1.0709 H   0  0  0  0  0  0  0  0  0  0  0  0
   -0.4439    1.1039    0.7234 C   0  0  0  0  0  0  0  0  0  0  0  0
   -1.3754    1.7245    0.2226 O   0  0  0  0  0  0  0  0  0  0  0  0
    0.4143    1.7494    1.5939 N   0  0  0  0  0  0  0  0  0  0  0  0
    1.1242    1.1877    2.0561 H   0  0  0  0  0  0  0  0  0  0  0  0
    0.2489    3.1424    1.9909 C   0  0  0  0  0  0  0  0  0  0  0  0
   -0.7199    3.2892    2.4799 H   0  0  0  0  0  0  0  0  0  0  0  0
    1.0375    3.4327    2.6918 H   0  0  0  0  0  0  0  0  0  0  0  0
    0.3053    3.7993    1.1165 H   0  0  0  0  0  0  0  0  0  0  0  0
  1  2  1  0  0  0  0
  2  3  1  0  0  0  0
  2  4  1  0  0  0  0
  2  5  1  0  0  0  0
  5  6  2  0  0  0  0
  5  7  1  0  0  0  0
  7  8  1  0  0  0  0
  7  9  1  0  0  0  0
  9 10  1  0  0  0  0
  9 11  1  0  0  0  0
  9 21  1  0  0  0  0
 11 12  1  0  0  0  0
 11 13  1  0  0  0  0
 11 14  1  0  0  0  0
 14 15  1  0  0  0  0
 14 16  1  0  0  0  0
 14 17  1  0  0  0  0
 17 18  2  0  0  0  0
 17 19  1  0  0  0  0
 19 20  1  0  0  0  0
 21 22  2  0  0  0  0
 21 23  1  0  0  0  0
 23 24  1  0  0  0  0
 23 25  1  0  0  0  0
 25 26  1  0  0  0  0
 25 27  1  0  0  0  0
 25 28  1  0  0  0  0
M  END
$$$$

  -OEChem-03222214033D

 28 27  0     1  0  0  0  0  0999 V2000
   -3.4771   -3.7962    1.3850 H   0  0  0  0  0  0  0  0  0  0  0  0
   -3.4161   -2.8328    0.8719 C   0  0  0  0  0  0  0  0  0  0  0  0
   -4.1449   -2.1491    1.3132 H   0  0  0  0  0  0  0  0  0  0  0  0
   -3.6596   -2.9828   -0.1829 H   0  0  0  0  0  0  0  0  0  0  0  0
   -2.0182   -2.2592    1.0041 C   0  0  0  0  0  0  0  0  0  0  0  0
   -1.1776   -2.8256    1.6877 O   0  0  0  0  0  0  0  0  0  0  0  0
   -1.7045   -1.0413    0.4317 N   0  0  0  0  0  0  0  0  0  0  0  0
   -2.4434   -0.5608   -0.0795 H   0  0  0  0  0  0  0  0  0  0  0  0
   -0.3608   -0.4432    0.4189 C   0  0  1  0  0  0  0  0  0  0  0  0
    0.2690   -0.9407    1.1632 H   0  0  0  0  0  0  0  0  0  0  0  0
    0.3697   -0.4905   -0.9598 C   0  0  0  0  0  0  0  0  0  0  0  0
    0.1548    0.4445   -1.4910 H   0  0  0  0  0  0  0  0  0  0  0  0
    1.4414   -0.4728   -0.7358 H   0  0  0  0  0  0  0  0  0  0  0  0
    0.1384   -1.6148   -2.0093 C   0  0  0  0  0  0  0  0  0  0  0  0
   -0.4601   -1.1799   -2.8167 H   0  0  0  0  0  0  0  0  0  0  0  0
    1.1027   -1.8796   -2.4508 H   0  0  0  0  0  0  0  0  0  0  0  0
   -0.5560   -2.9152   -1.6172 C   0  0  0  0  0  0  0  0  0  0  0  0
   -1.6701   -3.1077   -2.0766 O   0  0  0  0  0  0  0  0  0  0  0  0
    0.1247   -3.8130   -0.8592 O   0  0  0  0  0  0  0  0  0  0  0  0
    0.9122   -3.3942   -0.4919 H   0  0  0  0  0  0  0  0  0  0  0  0
   -0.4697    1.0501    0.8048 C   0  0  0  0  0  0  0  0  0  0  0  0
   -1.3241    1.7603    0.2877 O   0  0  0  0  0  0  0  0  0  0  0  0
    0.4145    1.6053    1.7116 N   0  0  0  0  0  0  0  0  0  0  0  0
    1.0405    0.9736    2.2027 H   0  0  0  0  0  0  0  0  0  0  0  0
    0.3306    2.9925    2.1539 C   0  0  0  0  0  0  0  0  0  0  0  0
   -0.6207    3.1750    2.6649 H   0  0  0  0  0  0  0  0  0  0  0  0
    1.1460    3.2189    2.8477 H   0  0  0  0  0  0  0  0  0  0  0  0
    0.4078    3.6731    1.2994 H   0  0  0  0  0  0  0  0  0  0  0  0
  1  2  1  0  0  0  0
  2  3  1  0  0  0  0
  2  4  1  0  0  0  0
  2  5  1  0  0  0  0
  5  6  2  0  0  0  0
  5  7  1  0  0  0  0
  7  8  1  0  0  0  0
  7  9  1  0  0  0  0
  9 10  1  0  0  0  0
  9 11  1  0  0  0  0
  9 21  1  0  0  0  0
 11 12  1  0  0  0  0
 11 13  1  0  0  0  0
 11 14  1  0  0  0  0
 14 15  1  0  0  0  0
 14 16  1  0  0  0  0
 14 17  1  0  0  0  0
 17 18  2  0  0  0  0
 17 19  1  0  0  0  0
 19 20  1  0  0  0  0
 21 22  2  0  0  0  0
 21 23  1  0  0  0  0
 23 24  1  0  0  0  0
 23 25  1  0  0  0  0
 25 26  1  0  0  0  0
 25 27  1  0  0  0  0
 25 28  1  0  0  0  0
M  END
$$$$

  -OEChem-03222214033D

 28 27  0     1  0  0  0  0  0999 V2000
   -3.6447   -3.6503    1.3130 H   0  0  0  0  0  0  0  0  0  0  0  0
   -3.5438   -2.6842    0.8113 C   0  0  0  0  0  0  0  0  0  0  0  0
   -4.2733   -1.9878    1.2311 H   0  0  0  0  0  0  0  0  0  0  0  0
   -3.7510   -2.8207   -0.2531 H   0  0  0  0  0  0  0  0  0  0  0  0
   -2.1402   -2.1416    1.0001 C   0  0  0  0  0  0  0  0  0  0  0  0
   -1.3496   -2.7071    1.7434 O   0  0  0  0  0  0  0  0  0  0  0  0
   -1.7506   -0.9763    0.3680 N   0  0  0  0  0  0  0  0  0  0  0  0
   -2.4351   -0.5173   -0.2322 H   0  0  0  0  0  0  0  0  0  0  0  0
   -0.3947   -0.4106    0.4197 C   0  0  1  0  0  0  0  0  0  0  0  0
    0.1509   -0.8588    1.2559 H   0  0  0  0  0  0  0  0  0  0  0  0
    0.4671   -0.5915   -0.8696 C   0  0  0  0  0  0  0  0  0  0  0  0
    0.2942    0.2927   -1.4949 H   0  0  0  0  0  0  0  0  0  0  0  0
    1.5160   -0.5410   -0.5586 H   0  0  0  0  0  0  0  0  0  0  0  0
    0.3267   -1.7943   -1.8503 C   0  0  0  0  0  0  0  0  0  0  0  0
    0.1097   -1.3865   -2.8431 H   0  0  0  0  0  0  0  0  0  0  0  0
    1.3028   -2.2799   -1.9282 H   0  0  0  0  0  0  0  0  0  0  0  0
   -0.6941   -2.9004   -1.6028 C   0  0  0  0  0  0  0  0  0  0  0  0
   -1.7516   -2.8156   -2.2058 O   0  0  0  0  0  0  0  0  0  0  0  0
   -0.3572   -3.9391   -0.7942 O   0  0  0  0  0  0  0  0  0  0  0  0
    0.4254   -3.7070   -0.2774 H   0  0  0  0  0  0  0  0  0  0  0  0
   -0.4919    1.1096    0.6857 C   0  0  0  0  0  0  0  0  0  0  0  0
   -1.2878    1.7967    0.0565 O   0  0  0  0  0  0  0  0  0  0  0  0
    0.3330    1.7129    1.6176 N   0  0  0  0  0  0  0  0  0  0  0  0
    0.9055    1.1070    2.1982 H   0  0  0  0  0  0  0  0  0  0  0  0
    0.2410    3.1279    1.9588 C   0  0  0  0  0  0  0  0  0  0  0  0
   -0.7414    3.3559    2.3856 H   0  0  0  0  0  0  0  0  0  0  0  0
    1.0080    3.3913    2.6933 H   0  0  0  0  0  0  0  0  0  0  0  0
    0.3904    3.7481    1.0687 H   0  0  0  0  0  0  0  0  0  0  0  0
  1  2  1  0  0  0  0
  2  3  1  0  0  0  0
  2  4  1  0  0  0  0
  2  5  1  0  0  0  0
  5  6  2  0  0  0  0
  5  7  1  0  0  0  0
  7  8  1  0  0  0  0
  7  9  1  0  0  0  0
  9 10  1  0  0  0  0
  9 11  1  0  0  0  0
  9 21  1  0  0  0  0
 11 12  1  0  0  0  0
 11 13  1  0  0  0  0
 11 14  1  0  0  0  0
 14 15  1  0  0  0  0
 14 16  1  0  0  0  0
 14 17  1  0  0  0  0
 17 18  2  0  0  0  0
 17 19  1  0  0  0  0
 19 20  1  0  0  0  0
 21 22  2  0  0  0  0
 21 23  1  0  0  0  0
 23 24  1  0  0  0  0
 23 25  1  0  0  0  0
 25 26  1  0  0  0  0
 25 27  1  0  0  0  0
 25 28  1  0  0  0  0
M  END
$$$$

  -OEChem-03222214033D

 28 27  0     1  0  0  0  0  0999 V2000
   -3.3679   -3.7340    1.5834 H   0  0  0  0  0  0  0  0  0  0  0  0
   -3.3473   -2.7363    1.1365 C   0  0  0  0  0  0  0  0  0  0  0  0
   -3.9699   -2.0681    1.7363 H   0  0  0  0  0  0  0  0  0  0  0  0
   -3.7588   -2.7937    0.1259 H   0  0  0  0  0  0  0  0  0  0  0  0
   -1.9246   -2.2113    1.0899 C   0  0  0  0  0  0  0  0  0  0  0  0
   -1.0173   -2.8602    1.5861 O   0  0  0  0  0  0  0  0  0  0  0  0
   -1.6654   -0.9853    0.5131 N   0  0  0  0  0  0  0  0  0  0  0  0
   -2.4541   -0.4943    0.0932 H   0  0  0  0  0  0  0  0  0  0  0  0
   -0.3408   -0.3654    0.3755 C   0  0  1  0  0  0  0  0  0  0  0  0
    0.3403   -0.8616    1.0744 H   0  0  0  0  0  0  0  0  0  0  0  0
    0.3204   -0.4320   -1.0376 C   0  0  0  0  0  0  0  0  0  0  0  0
   -0.0167    0.4669   -1.5675 H   0  0  0  0  0  0  0  0  0  0  0  0
    1.4012   -0.3216   -0.9017 H   0  0  0  0  0  0  0  0  0  0  0  0
    0.0853   -1.5820   -2.0616 C   0  0  0  0  0  0  0  0  0  0  0  0
   -0.0030   -1.1438   -3.0594 H   0  0  0  0  0  0  0  0  0  0  0  0
    0.9922   -2.1930   -2.0676 H   0  0  0  0  0  0  0  0  0  0  0  0
   -1.0719   -2.5583   -1.8945 C   0  0  0  0  0  0  0  0  0  0  0  0
   -2.2056   -2.1755   -2.1324 O   0  0  0  0  0  0  0  0  0  0  0  0
   -0.7734   -3.8318   -1.5576 O   0  0  0  0  0  0  0  0  0  0  0  0
   -1.6215   -4.2951   -1.5027 H   0  0  0  0  0  0  0  0  0  0  0  0
   -0.4187    1.1217    0.7866 C   0  0  0  0  0  0  0  0  0  0  0  0
   -1.3391    1.8265    0.3892 O   0  0  0  0  0  0  0  0  0  0  0  0
    0.5505    1.6730    1.6049 N   0  0  0  0  0  0  0  0  0  0  0  0
    1.2549    1.0476    1.9858 H   0  0  0  0  0  0  0  0  0  0  0  0
    0.5062    3.0530    2.0735 C   0  0  0  0  0  0  0  0  0  0  0  0
   -0.3928    3.2247    2.6750 H   0  0  0  0  0  0  0  0  0  0  0  0
    1.3830    3.2717    2.6906 H   0  0  0  0  0  0  0  0  0  0  0  0
    0.5003    3.7459    1.2253 H   0  0  0  0  0  0  0  0  0  0  0  0
  1  2  1  0  0  0  0
  2  3  1  0  0  0  0
  2  4  1  0  0  0  0
  2  5  1  0  0  0  0
  5  6  2  0  0  0  0
  5  7  1  0  0  0  0
  7  8  1  0  0  0  0
  7  9  1  0  0  0  0
  9 10  1  0  0  0  0
  9 11  1  0  0  0  0
  9 21  1  0  0  0  0
 11 12  1  0  0  0  0
 11 13  1  0  0  0  0
 11 14  1  0  0  0  0
 14 15  1  0  0  0  0
 14 16  1  0  0  0  0
 14 17  1  0  0  0  0
 17 18  2  0  0  0  0
 17 19  1  0  0  0  0
 19 20  1  0  0  0  0
 21 22  2  0  0  0  0
 21 23  1  0  0  0  0
 23 24  1  0  0  0  0
 23 25  1  0  0  0  0
 25 26  1  0  0  0  0
 25 27  1  0  0  0  0
 25 28  1  0  0  0  0
M  END
$$$$

  -OEChem-03222214033D

 28 27  0     1  0  0  0  0  0999 V2000
   -3.2757   -3.7397    1.6283 H   0  0  0  0  0  0  0  0  0  0  0  0
   -3.2868   -2.7116    1.2563 C   0  0  0  0  0  0  0  0  0  0  0  0
   -3.8635   -2.0917    1.9468 H   0  0  0  0  0  0  0  0  0  0  0  0
   -3.7693   -2.6956    0.2762 H   0  0  0  0  0  0  0  0  0  0  0  0
   -1.8707   -2.1790    1.1473 C   0  0  0  0  0  0  0  0  0  0  0  0
   -0.9379   -2.8236    1.5998 O   0  0  0  0  0  0  0  0  0  0  0  0
   -1.6429   -0.9594    0.5446 N   0  0  0  0  0  0  0  0  0  0  0  0
   -2.4467   -0.4847    0.1334 H   0  0  0  0  0  0  0  0  0  0  0  0
   -0.3252   -0.3489    0.3322 C   0  0  1  0  0  0  0  0  0  0  0  0
    0.3866   -0.8393    1.0038 H   0  0  0  0  0  0  0  0  0  0  0  0
    0.2600   -0.4603   -1.1091 C   0  0  0  0  0  0  0  0  0  0  0  0
   -0.1057    0.4211   -1.6489 H   0  0  0  0  0  0  0  0  0  0  0  0
    1.3476   -0.3551   -1.0415 H   0  0  0  0  0  0  0  0  0  0  0  0
   -0.0521   -1.6485   -2.0646 C   0  0  0  0  0  0  0  0  0  0  0  0
    0.0755   -1.3101   -3.0962 H   0  0  0  0  0  0  0  0  0  0  0  0
    0.7143   -2.4071   -1.8816 H   0  0  0  0  0  0  0  0  0  0  0  0
   -1.3884   -2.3805   -1.9834 C   0  0  0  0  0  0  0  0  0  0  0  0
   -2.4184   -1.7484   -2.1501 O   0  0  0  0  0  0  0  0  0  0  0  0
   -1.3642   -3.7183   -1.7975 O   0  0  0  0  0  0  0  0  0  0  0  0
   -2.2902   -4.0003   -1.8176 H   0  0  0  0  0  0  0  0  0  0  0  0
   -0.3624    1.1441    0.7272 C   0  0  0  0  0  0  0  0  0  0  0  0
   -1.2894    1.8581    0.3637 O   0  0  0  0  0  0  0  0  0  0  0  0
    0.6559    1.6932    1.4852 N   0  0  0  0  0  0  0  0  0  0  0  0
    1.3696    1.0631    1.8400 H   0  0  0  0  0  0  0  0  0  0  0  0
    0.6616    3.0837    1.9244 C   0  0  0  0  0  0  0  0  0  0  0  0
   -0.2144    3.2927    2.5477 H   0  0  0  0  0  0  0  0  0  0  0  0
    1.5618    3.2917    2.5111 H   0  0  0  0  0  0  0  0  0  0  0  0
    0.6489    3.7579    1.0612 H   0  0  0  0  0  0  0  0  0  0  0  0
  1  2  1  0  0  0  0
  2  3  1  0  0  0  0
  2  4  1  0  0  0  0
  2  5  1  0  0  0  0
  5  6  2  0  0  0  0
  5  7  1  0  0  0  0
  7  8  1  0  0  0  0
  7  9  1  0  0  0  0
  9 10  1  0  0  0  0
  9 11  1  0  0  0  0
  9 21  1  0  0  0  0
 11 12  1  0  0  0  0
 11 13  1  0  0  0  0
 11 14  1  0  0  0  0
 14 15  1  0  0  0  0
 14 16  1  0  0  0  0
 14 17  1  0  0  0  0
 17 18  2  0  0  0  0
 17 19  1  0  0  0  0
 19 20  1  0  0  0  0
 21 22  2  0  0  0  0
 21 23  1  0  0  0  0
 23 24  1  0  0  0  0
 23 25  1  0  0  0  0
 25 26  1  0  0  0  0
 25 27  1  0  0  0  0
 25 28  1  0  0  0  0
M  END
$$$$

  -OEChem-03222214033D

 28 27  0     1  0  0  0  0  0999 V2000
   -3.2866   -3.7855    1.4148 H   0  0  0  0  0  0  0  0  0  0  0  0
   -3.2888   -2.7643    1.0235 C   0  0  0  0  0  0  0  0  0  0  0  0
   -3.9293   -2.1443    1.6554 H   0  0  0  0  0  0  0  0  0  0  0  0
   -3.6936   -2.7754    0.0088 H   0  0  0  0  0  0  0  0  0  0  0  0
   -1.8793   -2.2044    1.0136 C   0  0  0  0  0  0  0  0  0  0  0  0
   -0.9612   -2.8439    1.5024 O   0  0  0  0  0  0  0  0  0  0  0  0
   -1.6391   -0.9698    0.4485 N   0  0  0  0  0  0  0  0  0  0  0  0
   -2.4233   -0.4993   -0.0044 H   0  0  0  0  0  0  0  0  0  0  0  0
   -0.3234   -0.3307    0.3331 C   0  0  1  0  0  0  0  0  0  0  0  0
    0.3513   -0.8180    1.0441 H   0  0  0  0  0  0  0  0  0  0  0  0
    0.3466   -0.4329   -1.0684 C   0  0  0  0  0  0  0  0  0  0  0  0
    0.0158    0.4429   -1.6390 H   0  0  0  0  0  0  0  0  0  0  0  0
    1.4288   -0.3336   -0.9362 H   0  0  0  0  0  0  0  0  0  0  0  0
    0.0786   -1.6473   -1.9996 C   0  0  0  0  0  0  0  0  0  0  0  0
    0.4823   -1.4255   -2.9907 H   0  0  0  0  0  0  0  0  0  0  0  0
    0.6476   -2.4909   -1.5988 H   0  0  0  0  0  0  0  0  0  0  0  0
   -1.3537   -2.1446   -2.1882 C   0  0  0  0  0  0  0  0  0  0  0  0
   -2.2457   -1.3351   -2.3784 O   0  0  0  0  0  0  0  0  0  0  0  0
   -1.5580   -3.4797   -2.1907 O   0  0  0  0  0  0  0  0  0  0  0  0
   -2.5008   -3.5943   -2.3804 H   0  0  0  0  0  0  0  0  0  0  0  0
   -0.4049    1.1546    0.7474 C   0  0  0  0  0  0  0  0  0  0  0  0
   -1.3251    1.8592    0.3508 O   0  0  0  0  0  0  0  0  0  0  0  0
    0.5563    1.7036    1.5767 N   0  0  0  0  0  0  0  0  0  0  0  0
    1.2573    1.0772    1.9618 H   0  0  0  0  0  0  0  0  0  0  0  0
    0.5013    3.0796    2.0560 C   0  0  0  0  0  0  0  0  0  0  0  0
   -0.3944    3.2372    2.6659 H   0  0  0  0  0  0  0  0  0  0  0  0
    1.3808    3.3038    2.6671 H   0  0  0  0  0  0  0  0  0  0  0  0
    0.4805    3.7786    1.2131 H   0  0  0  0  0  0  0  0  0  0  0  0
  1  2  1  0  0  0  0
  2  3  1  0  0  0  0
  2  4  1  0  0  0  0
  2  5  1  0  0  0  0
  5  6  2  0  0  0  0
  5  7  1  0  0  0  0
  7  8  1  0  0  0  0
  7  9  1  0  0  0  0
  9 10  1  0  0  0  0
  9 11  1  0  0  0  0
  9 21  1  0  0  0  0
 11 12  1  0  0  0  0
 11 13  1  0  0  0  0
 11 14  1  0  0  0  0
 14 15  1  0  0  0  0
 14 16  1  0  0  0  0
 14 17  1  0  0  0  0
 17 18  2  0  0  0  0
 17 19  1  0  0  0  0
 19 20  1  0  0  0  0
 21 22  2  0  0  0  0
 21 23  1  0  0  0  0
 23 24  1  0  0  0  0
 23 25  1  0  0  0  0
 25 26  1  0  0  0  0
 25 27  1  0  0  0  0
 25 28  1  0  0  0  0
M  END
$$$$

  -OEChem-03222214033D

 28 27  0     1  0  0  0  0  0999 V2000
   -3.2621   -3.7841    1.3868 H   0  0  0  0  0  0  0  0  0  0  0  0
   -3.2544   -2.7927    0.9256 C   0  0  0  0  0  0  0  0  0  0  0  0
   -3.9241   -2.1371    1.4875 H   0  0  0  0  0  0  0  0  0  0  0  0
   -3.6173   -2.8779   -0.1012 H   0  0  0  0  0  0  0  0  0  0  0  0
   -1.8486   -2.2237    0.9319 C   0  0  0  0  0  0  0  0  0  0  0  0
   -0.9262   -2.8697    1.4042 O   0  0  0  0  0  0  0  0  0  0  0  0
   -1.6114   -0.9808    0.3844 N   0  0  0  0  0  0  0  0  0  0  0  0
   -2.4001   -0.4905   -0.0390 H   0  0  0  0  0  0  0  0  0  0  0  0
   -0.3022   -0.3207    0.3068 C   0  0  1  0  0  0  0  0  0  0  0  0
    0.3628   -0.8048    1.0290 H   0  0  0  0  0  0  0  0  0  0  0  0
    0.3825   -0.4275   -1.0832 C   0  0  0  0  0  0  0  0  0  0  0  0
    0.0778    0.4428   -1.6765 H   0  0  0  0  0  0  0  0  0  0  0  0
    1.4645   -0.3503   -0.9363 H   0  0  0  0  0  0  0  0  0  0  0  0
    0.0922   -1.6778   -1.9531 C   0  0  0  0  0  0  0  0  0  0  0  0
    0.6828   -1.6128   -2.8700 H   0  0  0  0  0  0  0  0  0  0  0  0
    0.4364   -2.5582   -1.4025 H   0  0  0  0  0  0  0  0  0  0  0  0
   -1.3595   -1.9335   -2.3629 C   0  0  0  0  0  0  0  0  0  0  0  0
   -2.1119   -0.9912   -2.5412 O   0  0  0  0  0  0  0  0  0  0  0  0
   -1.7360   -3.2176   -2.5419 O   0  0  0  0  0  0  0  0  0  0  0  0
   -2.6553   -3.1712   -2.8444 H   0  0  0  0  0  0  0  0  0  0  0  0
   -0.4043    1.1606    0.7289 C   0  0  0  0  0  0  0  0  0  0  0  0
   -1.3318    1.8548    0.3320 O   0  0  0  0  0  0  0  0  0  0  0  0
    0.5330    1.7127    1.5831 N   0  0  0  0  0  0  0  0  0  0  0  0
    1.2462    1.0964    1.9619 H   0  0  0  0  0  0  0  0  0  0  0  0
    0.4562    3.0855    2.0688 C   0  0  0  0  0  0  0  0  0  0  0  0
   -0.4634    3.2372    2.6439 H   0  0  0  0  0  0  0  0  0  0  0  0
    1.3103    3.3073    2.7160 H   0  0  0  0  0  0  0  0  0  0  0  0
    0.4670    3.7899    1.2302 H   0  0  0  0  0  0  0  0  0  0  0  0
  1  2  1  0  0  0  0
  2  3  1  0  0  0  0
  2  4  1  0  0  0  0
  2  5  1  0  0  0  0
  5  6  2  0  0  0  0
  5  7  1  0  0  0  0
  7  8  1  0  0  0  0
  7  9  1  0  0  0  0
  9 10  1  0  0  0  0
  9 11  1  0  0  0  0
  9 21  1  0  0  0  0
 11 12  1  0  0  0  0
 11 13  1  0  0  0  0
 11 14  1  0  0  0  0
 14 15  1  0  0  0  0
 14 16  1  0  0  0  0
 14 17  1  0  0  0  0
 17 18  2  0  0  0  0
 17 19  1  0  0  0  0
 19 20  1  0  0  0  0
 21 22  2  0  0  0  0
 21 23  1  0  0  0  0
 23 24  1  0  0  0  0
 23 25  1  0  0  0  0
 25 26  1  0  0  0  0
 25 27  1  0  0  0  0
 25 28  1  0  0  0  0
M  END
$$$$

  -OEChem-03222214033D

 28 27  0     1  0  0  0  0  0999 V2000
   -3.2406   -3.8005    1.3173 H   0  0  0  0  0  0  0  0  0  0  0  0
   -3.2243   -2.8162    0.8414 C   0  0  0  0  0  0  0  0  0  0  0  0
   -3.9363   -2.1645    1.3536 H   0  0  0  0  0  0  0  0  0  0  0  0
   -3.5263   -2.9239   -0.2032 H   0  0  0  0  0  0  0  0  0  0  0  0
   -1.8318   -2.2212    0.9171 C   0  0  0  0  0  0  0  0  0  0  0  0
   -0.9198   -2.8535    1.4266 O   0  0  0  0  0  0  0  0  0  0  0  0
   -1.5897   -0.9804    0.3691 N   0  0  0  0  0  0  0  0  0  0  0  0
   -2.3632   -0.5167   -0.1095 H   0  0  0  0  0  0  0  0  0  0  0  0
   -0.2847   -0.3083    0.3117 C   0  0  1  0  0  0  0  0  0  0  0  0
    0.3778   -0.7867    1.0403 H   0  0  0  0  0  0  0  0  0  0  0  0
    0.3895   -0.4326   -1.0793 C   0  0  0  0  0  0  0  0  0  0  0  0
    0.1076    0.4322   -1.6915 H   0  0  0  0  0  0  0  0  0  0  0  0
    1.4732   -0.3787   -0.9336 H   0  0  0  0  0  0  0  0  0  0  0  0
    0.0629   -1.7136   -1.8881 C   0  0  0  0  0  0  0  0  0  0  0  0
    0.7954   -1.8056   -2.6937 H   0  0  0  0  0  0  0  0  0  0  0  0
    0.1834   -2.5857   -1.2393 H   0  0  0  0  0  0  0  0  0  0  0  0
   -1.3207   -1.7859   -2.5414 C   0  0  0  0  0  0  0  0  0  0  0  0
   -2.0634   -0.8193   -2.5348 O   0  0  0  0  0  0  0  0  0  0  0  0
   -1.6533   -2.9604   -3.1169 O   0  0  0  0  0  0  0  0  0  0  0  0
   -2.5326   -2.8144   -3.4976 H   0  0  0  0  0  0  0  0  0  0  0  0
   -0.3935    1.1757    0.7214 C   0  0  0  0  0  0  0  0  0  0  0  0
   -1.3104    1.8700    0.3010 O   0  0  0  0  0  0  0  0  0  0  0  0
    0.5311    1.7326    1.5866 N   0  0  0  0  0  0  0  0  0  0  0  0
    1.2360    1.1175    1.9822 H   0  0  0  0  0  0  0  0  0  0  0  0
    0.4542    3.1117    2.0541 C   0  0  0  0  0  0  0  0  0  0  0  0
   -0.4794    3.2793    2.6013 H   0  0  0  0  0  0  0  0  0  0  0  0
    1.2920    3.3332    2.7223 H   0  0  0  0  0  0  0  0  0  0  0  0
    0.4952    3.8058    1.2079 H   0  0  0  0  0  0  0  0  0  0  0  0
  1  2  1  0  0  0  0
  2  3  1  0  0  0  0
  2  4  1  0  0  0  0
  2  5  1  0  0  0  0
  5  6  2  0  0  0  0
  5  7  1  0  0  0  0
  7  8  1  0  0  0  0
  7  9  1  0  0  0  0
  9 10  1  0  0  0  0
  9 11  1  0  0  0  0
  9 21  1  0  0  0  0
 11 12  1  0  0  0  0
 11 13  1  0  0  0  0
 11 14  1  0  0  0  0
 14 15  1  0  0  0  0
 14 16  1  0  0  0  0
 14 17  1  0  0  0  0
 17 18  2  0  0  0  0
 17 19  1  0  0  0  0
 19 20  1  0  0  0  0
 21 22  2  0  0  0  0
 21 23  1  0  0  0  0
 23 24  1  0  0  0  0
 23 25  1  0  0  0  0
 25 26  1  0  0  0  0
 25 27  1  0  0  0  0
 25 28  1  0  0  0  0
M  END
$$$$

  -OEChem-03222214033D

 28 27  0     1  0  0  0  0  0999 V2000
   -3.3212   -3.7217    1.5920 H   0  0  0  0  0  0  0  0  0  0  0  0
   -3.2712   -2.8118    0.9879 C   0  0  0  0  0  0  0  0  0  0  0  0
   -3.9797   -2.0829    1.3884 H   0  0  0  0  0  0  0  0  0  0  0  0
   -3.5524   -3.0552   -0.0397 H   0  0  0  0  0  0  0  0  0  0  0  0
   -1.8664   -2.2404    1.0164 C   0  0  0  0  0  0  0  0  0  0  0  0
   -0.9732   -2.8349    1.6012 O   0  0  0  0  0  0  0  0  0  0  0  0
   -1.5965   -1.0448    0.3831 N   0  0  0  0  0  0  0  0  0  0  0  0
   -2.3687   -0.5951   -0.1065 H   0  0  0  0  0  0  0  0  0  0  0  0
   -0.2774   -0.3963    0.3146 C   0  0  1  0  0  0  0  0  0  0  0  0
    0.3677   -0.8313    1.0849 H   0  0  0  0  0  0  0  0  0  0  0  0
    0.4133   -0.6075   -1.0569 C   0  0  0  0  0  0  0  0  0  0  0  0
    0.1714    0.2296   -1.7228 H   0  0  0  0  0  0  0  0  0  0  0  0
    1.4951   -0.5775   -0.8921 H   0  0  0  0  0  0  0  0  0  0  0  0
    0.0634   -1.9251   -1.7847 C   0  0  0  0  0  0  0  0  0  0  0  0
    0.9072   -2.2111   -2.4178 H   0  0  0  0  0  0  0  0  0  0  0  0
   -0.0911   -2.7410   -1.0737 H   0  0  0  0  0  0  0  0  0  0  0  0
   -1.1502   -1.7729   -2.6978 C   0  0  0  0  0  0  0  0  0  0  0  0
   -2.2164   -2.2503   -2.3494 O   0  0  0  0  0  0  0  0  0  0  0  0
   -0.9803   -1.1112   -3.8630 O   0  0  0  0  0  0  0  0  0  0  0  0
   -1.8526   -1.1154   -4.2858 H   0  0  0  0  0  0  0  0  0  0  0  0
   -0.3888    1.1134    0.6133 C   0  0  0  0  0  0  0  0  0  0  0  0
   -1.2782    1.7763    0.0928 O   0  0  0  0  0  0  0  0  0  0  0  0
    0.5092    1.7323    1.4637 N   0  0  0  0  0  0  0  0  0  0  0  0
    1.1896    1.1451    1.9376 H   0  0  0  0  0  0  0  0  0  0  0  0
    0.4197    3.1417    1.8271 C   0  0  0  0  0  0  0  0  0  0  0  0
   -0.5274    3.3461    2.3376 H   0  0  0  0  0  0  0  0  0  0  0  0
    1.2403    3.4131    2.4981 H   0  0  0  0  0  0  0  0  0  0  0  0
    0.4819    3.7726    0.9342 H   0  0  0  0  0  0  0  0  0  0  0  0
  1  2  1  0  0  0  0
  2  3  1  0  0  0  0
  2  4  1  0  0  0  0
  2  5  1  0  0  0  0
  5  6  2  0  0  0  0
  5  7  1  0  0  0  0
  7  8  1  0  0  0  0
  7  9  1  0  0  0  0
  9 10  1  0  0  0  0
  9 11  1  0  0  0  0
  9 21  1  0  0  0  0
 11 12  1  0  0  0  0
 11 13  1  0  0  0  0
 11 14  1  0  0  0  0
 14 15  1  0  0  0  0
 14 16  1  0  0  0  0
 14 17  1  0  0  0  0
 17 18  2  0  0  0  0
 17 19  1  0  0  0  0
 19 20  1  0  0  0  0
 21 22  2  0  0  0  0
 21 23  1  0  0  0  0
 23 24  1  0  0  0  0
 23 25  1  0  0  0  0
 25 26  1  0  0  0  0
 25 27  1  0  0  0  0
 25 28  1  0  0  0  0
M  END
$$$$

  -OEChem-03222214033D

 28 27  0     1  0  0  0  0  0999 V2000
   -3.3086   -3.7900    1.4344 H   0  0  0  0  0  0  0  0  0  0  0  0
   -3.2767   -2.8151    0.9402 C   0  0  0  0  0  0  0  0  0  0  0  0
   -3.9933   -2.1486    1.4260 H   0  0  0  0  0  0  0  0  0  0  0  0
   -3.5609   -2.9412   -0.1080 H   0  0  0  0  0  0  0  0  0  0  0  0
   -1.8814   -2.2277    1.0285 C   0  0  0  0  0  0  0  0  0  0  0  0
   -0.9972   -2.8236    1.6243 O   0  0  0  0  0  0  0  0  0  0  0  0
   -1.6035   -1.0319    0.4012 N   0  0  0  0  0  0  0  0  0  0  0  0
   -2.3636   -0.5978   -0.1217 H   0  0  0  0  0  0  0  0  0  0  0  0
   -0.2823   -0.3854    0.3252 C   0  0  1  0  0  0  0  0  0  0  0  0
    0.3699   -0.8304    1.0836 H   0  0  0  0  0  0  0  0  0  0  0  0
    0.3819   -0.5936   -1.0599 C   0  0  0  0  0  0  0  0  0  0  0  0
    0.1293    0.2494   -1.7142 H   0  0  0  0  0  0  0  0  0  0  0  0
    1.4670   -0.5643   -0.9171 H   0  0  0  0  0  0  0  0  0  0  0  0
    0.0151   -1.9082   -1.7890 C   0  0  0  0  0  0  0  0  0  0  0  0
    0.9256   -2.3181   -2.2337 H   0  0  0  0  0  0  0  0  0  0  0  0
   -0.3628   -2.6761   -1.1124 H   0  0  0  0  0  0  0  0  0  0  0  0
   -0.9641   -1.6673   -2.9301 C   0  0  0  0  0  0  0  0  0  0  0  0
   -2.1555   -1.7795   -2.6971 O   0  0  0  0  0  0  0  0  0  0  0  0
   -0.4710   -1.3211   -4.1385 O   0  0  0  0  0  0  0  0  0  0  0  0
   -1.2504   -1.1968   -4.7016 H   0  0  0  0  0  0  0  0  0  0  0  0
   -0.3775    1.1240    0.6300 C   0  0  0  0  0  0  0  0  0  0  0  0
   -1.2595    1.8004    0.1150 O   0  0  0  0  0  0  0  0  0  0  0  0
    0.5350    1.7293    1.4747 N   0  0  0  0  0  0  0  0  0  0  0  0
    1.2079    1.1314    1.9457 H   0  0  0  0  0  0  0  0  0  0  0  0
    0.4704    3.1402    1.8370 C   0  0  0  0  0  0  0  0  0  0  0  0
   -0.4524    3.3523    2.3871 H   0  0  0  0  0  0  0  0  0  0  0  0
    1.3216    3.4082    2.4702 H   0  0  0  0  0  0  0  0  0  0  0  0
    0.4981    3.7684    0.9403 H   0  0  0  0  0  0  0  0  0  0  0  0
  1  2  1  0  0  0  0
  2  3  1  0  0  0  0
  2  4  1  0  0  0  0
  2  5  1  0  0  0  0
  5  6  2  0  0  0  0
  5  7  1  0  0  0  0
  7  8  1  0  0  0  0
  7  9  1  0  0  0  0
  9 10  1  0  0  0  0
  9 11  1  0  0  0  0
  9 21  1  0  0  0  0
 11 12  1  0  0  0  0
 11 13  1  0  0  0  0
 11 14  1  0  0  0  0
 14 15  1  0  0  0  0
 14 16  1  0  0  0  0
 14 17  1  0  0  0  0
 17 18  2  0  0  0  0
 17 19  1  0  0  0  0
 19 20  1  0  0  0  0
 21 22  2  0  0  0  0
 21 23  1  0  0  0  0
 23 24  1  0  0  0  0
 23 25  1  0  0  0  0
 25 26  1  0  0  0  0
 25 27  1  0  0  0  0
 25 28  1  0  0  0  0
M  END
$$$$

  -OEChem-03222214033D

 28 27  0     1  0  0  0  0  0999 V2000
   -3.1993   -3.8741    1.3603 H   0  0  0  0  0  0  0  0  0  0  0  0
   -3.1941   -2.8872    0.8892 C   0  0  0  0  0  0  0  0  0  0  0  0
   -3.8703   -2.2292    1.4403 H   0  0  0  0  0  0  0  0  0  0  0  0
   -3.5505   -2.9860   -0.1392 H   0  0  0  0  0  0  0  0  0  0  0  0
   -1.7913   -2.3108    0.8972 C   0  0  0  0  0  0  0  0  0  0  0  0
   -0.8734   -2.9336    1.4069 O   0  0  0  0  0  0  0  0  0  0  0  0
   -1.5506   -1.0875    0.3076 N   0  0  0  0  0  0  0  0  0  0  0  0
   -2.3531   -0.5824   -0.0665 H   0  0  0  0  0  0  0  0  0  0  0  0
   -0.2538   -0.3903    0.2810 C   0  0  1  0  0  0  0  0  0  0  0  0
    0.3890   -0.8258    1.0529 H   0  0  0  0  0  0  0  0  0  0  0  0
    0.4855   -0.5252   -1.0755 C   0  0  0  0  0  0  0  0  0  0  0  0
    0.1999    0.3268   -1.7045 H   0  0  0  0  0  0  0  0  0  0  0  0
    1.5606   -0.4277   -0.8929 H   0  0  0  0  0  0  0  0  0  0  0  0
    0.2351   -1.8241   -1.8840 C   0  0  0  0  0  0  0  0  0  0  0  0
    1.1913   -2.3320   -2.0376 H   0  0  0  0  0  0  0  0  0  0  0  0
   -0.4046   -2.5345   -1.3626 H   0  0  0  0  0  0  0  0  0  0  0  0
   -0.3671   -1.5304   -3.2512 C   0  0  0  0  0  0  0  0  0  0  0  0
    0.3810   -1.2416   -4.1676 O   0  0  0  0  0  0  0  0  0  0  0  0
   -1.7112   -1.5814   -3.3761 O   0  0  0  0  0  0  0  0  0  0  0  0
   -1.8836   -1.3442   -4.3002 H   0  0  0  0  0  0  0  0  0  0  0  0
   -0.4312    1.1029    0.6263 C   0  0  0  0  0  0  0  0  0  0  0  0
   -1.3663    1.7328    0.1464 O   0  0  0  0  0  0  0  0  0  0  0  0
    0.4271    1.7295    1.5109 N   0  0  0  0  0  0  0  0  0  0  0  0
    1.1551    1.1670    1.9422 H   0  0  0  0  0  0  0  0  0  0  0  0
    0.2792    3.1229    1.9144 C   0  0  0  0  0  0  0  0  0  0  0  0
   -0.6870    3.2795    2.4057 H   0  0  0  0  0  0  0  0  0  0  0  0
    1.0725    3.4008    2.6151 H   0  0  0  0  0  0  0  0  0  0  0  0
    0.3417    3.7831    1.0427 H   0  0  0  0  0  0  0  0  0  0  0  0
  1  2  1  0  0  0  0
  2  3  1  0  0  0  0
  2  4  1  0  0  0  0
  2  5  1  0  0  0  0
  5  6  2  0  0  0  0
  5  7  1  0  0  0  0
  7  8  1  0  0  0  0
  7  9  1  0  0  0  0
  9 10  1  0  0  0  0
  9 11  1  0  0  0  0
  9 21  1  0  0  0  0
 11 12  1  0  0  0  0
 11 13  1  0  0  0  0
 11 14  1  0  0  0  0
 14 15  1  0  0  0  0
 14 16  1  0  0  0  0
 14 17  1  0  0  0  0
 17 18  2  0  0  0  0
 17 19  1  0  0  0  0
 19 20  1  0  0  0  0
 21 22  2  0  0  0  0
 21 23  1  0  0  0  0
 23 24  1  0  0  0  0
 23 25  1  0  0  0  0
 25 26  1  0  0  0  0
 25 27  1  0  0  0  0
 25 28  1  0  0  0  0
M  END
$$$$

  -OEChem-03222214033D

 28 27  0     1  0  0  0  0  0999 V2000
   -3.2463   -3.8079    1.4372 H   0  0  0  0  0  0  0  0  0  0  0  0
   -3.2376   -2.8207    0.9667 C   0  0  0  0  0  0  0  0  0  0  0  0
   -3.8610   -2.1441    1.5561 H   0  0  0  0  0  0  0  0  0  0  0  0
   -3.6553   -2.9060   -0.0395 H   0  0  0  0  0  0  0  0  0  0  0  0
   -1.8193   -2.2881    0.8949 C   0  0  0  0  0  0  0  0  0  0  0  0
   -0.8936   -2.9436    1.3459 O   0  0  0  0  0  0  0  0  0  0  0  0
   -1.5754   -1.0659    0.3035 N   0  0  0  0  0  0  0  0  0  0  0  0
   -2.3844   -0.5180    0.0129 H   0  0  0  0  0  0  0  0  0  0  0  0
   -0.2697   -0.3867    0.2682 C   0  0  1  0  0  0  0  0  0  0  0  0
    0.3644   -0.8274    1.0444 H   0  0  0  0  0  0  0  0  0  0  0  0
    0.4838   -0.5366   -1.0793 C   0  0  0  0  0  0  0  0  0  0  0  0
    0.1785    0.3077   -1.7093 H   0  0  0  0  0  0  0  0  0  0  0  0
    1.5590   -0.4232   -0.9061 H   0  0  0  0  0  0  0  0  0  0  0  0
    0.2377   -1.8354   -1.8926 C   0  0  0  0  0  0  0  0  0  0  0  0
    1.0970   -2.5016   -1.7809 H   0  0  0  0  0  0  0  0  0  0  0  0
   -0.6324   -2.3873   -1.5399 H   0  0  0  0  0  0  0  0  0  0  0  0
    0.0169   -1.5538   -3.3746 C   0  0  0  0  0  0  0  0  0  0  0  0
    0.9093   -1.0110   -4.0014 O   0  0  0  0  0  0  0  0  0  0  0  0
   -1.1654   -1.9083   -3.9232 O   0  0  0  0  0  0  0  0  0  0  0  0
   -1.1018   -1.6351   -4.8513 H   0  0  0  0  0  0  0  0  0  0  0  0
   -0.4300    1.1074    0.6185 C   0  0  0  0  0  0  0  0  0  0  0  0
   -1.3807    1.7376    0.1702 O   0  0  0  0  0  0  0  0  0  0  0  0
    0.4400    1.7246    1.4983 N   0  0  0  0  0  0  0  0  0  0  0  0
    1.1814    1.1605    1.9040 H   0  0  0  0  0  0  0  0  0  0  0  0
    0.2921    3.1103    1.9273 C   0  0  0  0  0  0  0  0  0  0  0  0
   -0.6496    3.2449    2.4697 H   0  0  0  0  0  0  0  0  0  0  0  0
    1.1164    3.3918    2.5895 H   0  0  0  0  0  0  0  0  0  0  0  0
    0.3002    3.7825    1.0627 H   0  0  0  0  0  0  0  0  0  0  0  0
  1  2  1  0  0  0  0
  2  3  1  0  0  0  0
  2  4  1  0  0  0  0
  2  5  1  0  0  0  0
  5  6  2  0  0  0  0
  5  7  1  0  0  0  0
  7  8  1  0  0  0  0
  7  9  1  0  0  0  0
  9 10  1  0  0  0  0
  9 11  1  0  0  0  0
  9 21  1  0  0  0  0
 11 12  1  0  0  0  0
 11 13  1  0  0  0  0
 11 14  1  0  0  0  0
 14 15  1  0  0  0  0
 14 16  1  0  0  0  0
 14 17  1  0  0  0  0
 17 18  2  0  0  0  0
 17 19  1  0  0  0  0
 19 20  1  0  0  0  0
 21 22  2  0  0  0  0
 21 23  1  0  0  0  0
 23 24  1  0  0  0  0
 23 25  1  0  0  0  0
 25 26  1  0  0  0  0
 25 27  1  0  0  0  0
 25 28  1  0  0  0  0
M  END
$$$$

  -OEChem-03222214033D

 28 27  0     1  0  0  0  0  0999 V2000
   -3.2592   -3.7709    1.4658 H   0  0  0  0  0  0  0  0  0  0  0  0
   -3.2516   -2.7880    0.9864 C   0  0  0  0  0  0  0  0  0  0  0  0
   -3.8527   -2.0993    1.5852 H   0  0  0  0  0  0  0  0  0  0  0  0
   -3.6949   -2.8776   -0.0084 H   0  0  0  0  0  0  0  0  0  0  0  0
   -1.8298   -2.2721    0.8748 C   0  0  0  0  0  0  0  0  0  0  0  0
   -0.8992   -2.9450    1.2884 O   0  0  0  0  0  0  0  0  0  0  0  0
   -1.5886   -1.0452    0.2922 N   0  0  0  0  0  0  0  0  0  0  0  0
   -2.3992   -0.4788    0.0439 H   0  0  0  0  0  0  0  0  0  0  0  0
   -0.2791   -0.3734    0.2568 C   0  0  1  0  0  0  0  0  0  0  0  0
    0.3523   -0.8227    1.0304 H   0  0  0  0  0  0  0  0  0  0  0  0
    0.4741   -0.5288   -1.0889 C   0  0  0  0  0  0  0  0  0  0  0  0
    0.1614    0.3092   -1.7235 H   0  0  0  0  0  0  0  0  0  0  0  0
    1.5507   -0.4171   -0.9232 H   0  0  0  0  0  0  0  0  0  0  0  0
    0.2114   -1.8302   -1.8898 C   0  0  0  0  0  0  0  0  0  0  0  0
    0.8952   -2.6153   -1.5572 H   0  0  0  0  0  0  0  0  0  0  0  0
   -0.8031   -2.1952   -1.7299 H   0  0  0  0  0  0  0  0  0  0  0  0
    0.3518   -1.6305   -3.3966 C   0  0  0  0  0  0  0  0  0  0  0  0
    1.2805   -0.9640   -3.8190 O   0  0  0  0  0  0  0  0  0  0  0  0
   -0.5657   -2.2117   -4.1991 O   0  0  0  0  0  0  0  0  0  0  0  0
   -0.2995   -1.9690   -5.0991 H   0  0  0  0  0  0  0  0  0  0  0  0
   -0.4252    1.1186    0.6213 C   0  0  0  0  0  0  0  0  0  0  0  0
   -1.3821    1.7562    0.1972 O   0  0  0  0  0  0  0  0  0  0  0  0
    0.4550    1.7198    1.5018 N   0  0  0  0  0  0  0  0  0  0  0  0
    1.2056    1.1506    1.8826 H   0  0  0  0  0  0  0  0  0  0  0  0
    0.3183    3.1002    1.9511 C   0  0  0  0  0  0  0  0  0  0  0  0
   -0.6275    3.2364    2.4860 H   0  0  0  0  0  0  0  0  0  0  0  0
    1.1386    3.3618    2.6265 H   0  0  0  0  0  0  0  0  0  0  0  0
    0.3425    3.7861    1.0976 H   0  0  0  0  0  0  0  0  0  0  0  0
  1  2  1  0  0  0  0
  2  3  1  0  0  0  0
  2  4  1  0  0  0  0
  2  5  1  0  0  0  0
  5  6  2  0  0  0  0
  5  7  1  0  0  0  0
  7  8  1  0  0  0  0
  7  9  1  0  0  0  0
  9 10  1  0  0  0  0
  9 11  1  0  0  0  0
  9 21  1  0  0  0  0
 11 12  1  0  0  0  0
 11 13  1  0  0  0  0
 11 14  1  0  0  0  0
 14 15  1  0  0  0  0
 14 16  1  0  0  0  0
 14 17  1  0  0  0  0
 17 18  2  0  0  0  0
 17 19  1  0  0  0  0
 19 20  1  0  0  0  0
 21 22  2  0  0  0  0
 21 23  1  0  0  0  0
 23 24  1  0  0  0  0
 23 25  1  0  0  0  0
 25 26  1  0  0  0  0
 25 27  1  0  0  0  0
 25 28  1  0  0  0  0
M  END
$$$$

  -OEChem-03222214033D

 28 27  0     1  0  0  0  0  0999 V2000
   -3.2673   -3.7502    1.4440 H   0  0  0  0  0  0  0  0  0  0  0  0
   -3.2530   -2.7681    0.9633 C   0  0  0  0  0  0  0  0  0  0  0  0
   -3.8470   -2.0742    1.5626 H   0  0  0  0  0  0  0  0  0  0  0  0
   -3.6994   -2.8549   -0.0301 H   0  0  0  0  0  0  0  0  0  0  0  0
   -1.8278   -2.2629    0.8480 C   0  0  0  0  0  0  0  0  0  0  0  0
   -0.8999   -2.9477    1.2477 O   0  0  0  0  0  0  0  0  0  0  0  0
   -1.5818   -1.0316    0.2775 N   0  0  0  0  0  0  0  0  0  0  0  0
   -2.3905   -0.4548    0.0481 H   0  0  0  0  0  0  0  0  0  0  0  0
   -0.2704   -0.3633    0.2534 C   0  0  1  0  0  0  0  0  0  0  0  0
    0.3597   -0.8213    1.0231 H   0  0  0  0  0  0  0  0  0  0  0  0
    0.4749   -0.5138   -1.0950 C   0  0  0  0  0  0  0  0  0  0  0  0
    0.1769    0.3258   -1.7342 H   0  0  0  0  0  0  0  0  0  0  0  0
    1.5534   -0.4242   -0.9262 H   0  0  0  0  0  0  0  0  0  0  0  0
    0.1813   -1.8152   -1.8799 C   0  0  0  0  0  0  0  0  0  0  0  0
    0.6555   -2.6648   -1.3817 H   0  0  0  0  0  0  0  0  0  0  0  0
   -0.8930   -2.0054   -1.9120 H   0  0  0  0  0  0  0  0  0  0  0  0
    0.6441   -1.7560   -3.3345 C   0  0  0  0  0  0  0  0  0  0  0  0
    1.5847   -1.0419   -3.6368 O   0  0  0  0  0  0  0  0  0  0  0  0
   -0.0208   -2.5178   -4.2294 O   0  0  0  0  0  0  0  0  0  0  0  0
    0.4182   -2.3480   -5.0769 H   0  0  0  0  0  0  0  0  0  0  0  0
   -0.4133    1.1254    0.6304 C   0  0  0  0  0  0  0  0  0  0  0  0
   -1.3690    1.7671    0.2098 O   0  0  0  0  0  0  0  0  0  0  0  0
    0.4646    1.7175    1.5194 N   0  0  0  0  0  0  0  0  0  0  0  0
    1.2173    1.1461    1.8927 H   0  0  0  0  0  0  0  0  0  0  0  0
    0.3329    3.0965    1.9741 C   0  0  0  0  0  0  0  0  0  0  0  0
   -0.6175    3.2381    2.4996 H   0  0  0  0  0  0  0  0  0  0  0  0
    1.1476    3.3485    2.6599 H   0  0  0  0  0  0  0  0  0  0  0  0
    0.3718    3.7859    1.1241 H   0  0  0  0  0  0  0  0  0  0  0  0
  1  2  1  0  0  0  0
  2  3  1  0  0  0  0
  2  4  1  0  0  0  0
  2  5  1  0  0  0  0
  5  6  2  0  0  0  0
  5  7  1  0  0  0  0
  7  8  1  0  0  0  0
  7  9  1  0  0  0  0
  9 10  1  0  0  0  0
  9 11  1  0  0  0  0
  9 21  1  0  0  0  0
 11 12  1  0  0  0  0
 11 13  1  0  0  0  0
 11 14  1  0  0  0  0
 14 15  1  0  0  0  0
 14 16  1  0  0  0  0
 14 17  1  0  0  0  0
 17 18  2  0  0  0  0
 17 19  1  0  0  0  0
 19 20  1  0  0  0  0
 21 22  2  0  0  0  0
 21 23  1  0  0  0  0
 23 24  1  0  0  0  0
 23 25  1  0  0  0  0
 25 26  1  0  0  0  0
 25 27  1  0  0  0  0
 25 28  1  0  0  0  0
M  END
$$$$

  -OEChem-03222214033D

 28 27  0     1  0  0  0  0  0999 V2000
   -3.2685   -3.7444    1.4393 H   0  0  0  0  0  0  0  0  0  0  0  0
   -3.2555   -2.7640    0.9549 C   0  0  0  0  0  0  0  0  0  0  0  0
   -3.8524   -2.0693    1.5507 H   0  0  0  0  0  0  0  0  0  0  0  0
   -3.6998   -2.8558   -0.0390 H   0  0  0  0  0  0  0  0  0  0  0  0
   -1.8306   -2.2573    0.8395 C   0  0  0  0  0  0  0  0  0  0  0  0
   -0.9016   -2.9463    1.2289 O   0  0  0  0  0  0  0  0  0  0  0  0
   -1.5854   -1.0202    0.2814 N   0  0  0  0  0  0  0  0  0  0  0  0
   -2.3938   -0.4375    0.0665 H   0  0  0  0  0  0  0  0  0  0  0  0
   -0.2708   -0.3564    0.2532 C   0  0  1  0  0  0  0  0  0  0  0  0
    0.3657   -0.8238    1.0119 H   0  0  0  0  0  0  0  0  0  0  0  0
    0.4573   -0.4945   -1.1081 C   0  0  0  0  0  0  0  0  0  0  0  0
    0.4098    0.4647   -1.6369 H   0  0  0  0  0  0  0  0  0  0  0  0
    1.5150   -0.7055   -0.9163 H   0  0  0  0  0  0  0  0  0  0  0  0
   -0.1151   -1.5762   -2.0526 C   0  0  0  0  0  0  0  0  0  0  0  0
   -0.0729   -2.5508   -1.5586 H   0  0  0  0  0  0  0  0  0  0  0  0
   -1.1609   -1.3528   -2.2764 H   0  0  0  0  0  0  0  0  0  0  0  0
    0.6233   -1.6892   -3.3859 C   0  0  0  0  0  0  0  0  0  0  0  0
    1.6454   -1.0520   -3.5755 O   0  0  0  0  0  0  0  0  0  0  0  0
    0.0874   -2.5135   -4.3111 O   0  0  0  0  0  0  0  0  0  0  0  0
    0.6854   -2.4575   -5.0720 H   0  0  0  0  0  0  0  0  0  0  0  0
   -0.4092    1.1277    0.6498 C   0  0  0  0  0  0  0  0  0  0  0  0
   -1.3625    1.7780    0.2370 O   0  0  0  0  0  0  0  0  0  0  0  0
    0.4761    1.7085    1.5386 N   0  0  0  0  0  0  0  0  0  0  0  0
    1.2316    1.1324    1.8988 H   0  0  0  0  0  0  0  0  0  0  0  0
    0.3583    3.0874    1.9975 C   0  0  0  0  0  0  0  0  0  0  0  0
   -0.5948    3.2397    2.5148 H   0  0  0  0  0  0  0  0  0  0  0  0
    1.1697    3.3266    2.6917 H   0  0  0  0  0  0  0  0  0  0  0  0
    0.4136    3.7791    1.1502 H   0  0  0  0  0  0  0  0  0  0  0  0
  1  2  1  0  0  0  0
  2  3  1  0  0  0  0
  2  4  1  0  0  0  0
  2  5  1  0  0  0  0
  5  6  2  0  0  0  0
  5  7  1  0  0  0  0
  7  8  1  0  0  0  0
  7  9  1  0  0  0  0
  9 10  1  0  0  0  0
  9 11  1  0  0  0  0
  9 21  1  0  0  0  0
 11 12  1  0  0  0  0
 11 13  1  0  0  0  0
 11 14  1  0  0  0  0
 14 15  1  0  0  0  0
 14 16  1  0  0  0  0
 14 17  1  0  0  0  0
 17 18  2  0  0  0  0
 17 19  1  0  0  0  0
 19 20  1  0  0  0  0
 21 22  2  0  0  0  0
 21 23  1  0  0  0  0
 23 24  1  0  0  0  0
 23 25  1  0  0  0  0
 25 26  1  0  0  0  0
 25 27  1  0  0  0  0
 25 28  1  0  0  0  0
M  END
$$$$

  -OEChem-03222214033D

 28 27  0     1  0  0  0  0  0999 V2000
   -3.2980   -3.7300    1.4354 H   0  0  0  0  0  0  0  0  0  0  0  0
   -3.2728   -2.7551    0.9404 C   0  0  0  0  0  0  0  0  0  0  0  0
   -3.8766   -2.0514    1.5187 H   0  0  0  0  0  0  0  0  0  0  0  0
   -3.7013   -2.8568   -0.0596 H   0  0  0  0  0  0  0  0  0  0  0  0
   -1.8442   -2.2548    0.8426 C   0  0  0  0  0  0  0  0  0  0  0  0
   -0.9234   -2.9467    1.2458 O   0  0  0  0  0  0  0  0  0  0  0  0
   -1.5867   -1.0194    0.2864 N   0  0  0  0  0  0  0  0  0  0  0  0
   -2.3900   -0.4350    0.0575 H   0  0  0  0  0  0  0  0  0  0  0  0
   -0.2676   -0.3638    0.2605 C   0  0  1  0  0  0  0  0  0  0  0  0
    0.3694   -0.8377    1.0150 H   0  0  0  0  0  0  0  0  0  0  0  0
    0.4536   -0.4882   -1.1061 C   0  0  0  0  0  0  0  0  0  0  0  0
    0.4317    0.4759   -1.6273 H   0  0  0  0  0  0  0  0  0  0  0  0
    1.5052   -0.7199   -0.9031 H   0  0  0  0  0  0  0  0  0  0  0  0
   -0.1266   -1.5529   -2.0656 C   0  0  0  0  0  0  0  0  0  0  0  0
   -0.2963   -2.4818   -1.5154 H   0  0  0  0  0  0  0  0  0  0  0  0
   -1.0860   -1.2116   -2.4622 H   0  0  0  0  0  0  0  0  0  0  0  0
    0.7936   -1.9073   -3.2333 C   0  0  0  0  0  0  0  0  0  0  0  0
    1.8065   -1.2589   -3.4337 O   0  0  0  0  0  0  0  0  0  0  0  0
    0.4158   -2.9418   -4.0137 O   0  0  0  0  0  0  0  0  0  0  0  0
    1.1087   -3.0118   -4.6879 H   0  0  0  0  0  0  0  0  0  0  0  0
   -0.4013    1.1205    0.6588 C   0  0  0  0  0  0  0  0  0  0  0  0
   -1.3490    1.7761    0.2410 O   0  0  0  0  0  0  0  0  0  0  0  0
    0.4843    1.6971    1.5500 N   0  0  0  0  0  0  0  0  0  0  0  0
    1.2390    1.1186    1.9083 H   0  0  0  0  0  0  0  0  0  0  0  0
    0.3763    3.0792    2.0022 C   0  0  0  0  0  0  0  0  0  0  0  0
   -0.5816    3.2440    2.5070 H   0  0  0  0  0  0  0  0  0  0  0  0
    1.1818    3.3114    2.7054 H   0  0  0  0  0  0  0  0  0  0  0  0
    0.4496    3.7671    1.1530 H   0  0  0  0  0  0  0  0  0  0  0  0
  1  2  1  0  0  0  0
  2  3  1  0  0  0  0
  2  4  1  0  0  0  0
  2  5  1  0  0  0  0
  5  6  2  0  0  0  0
  5  7  1  0  0  0  0
  7  8  1  0  0  0  0
  7  9  1  0  0  0  0
  9 10  1  0  0  0  0
  9 11  1  0  0  0  0
  9 21  1  0  0  0  0
 11 12  1  0  0  0  0
 11 13  1  0  0  0  0
 11 14  1  0  0  0  0
 14 15  1  0  0  0  0
 14 16  1  0  0  0  0
 14 17  1  0  0  0  0
 17 18  2  0  0  0  0
 17 19  1  0  0  0  0
 19 20  1  0  0  0  0
 21 22  2  0  0  0  0
 21 23  1  0  0  0  0
 23 24  1  0  0  0  0
 23 25  1  0  0  0  0
 25 26  1  0  0  0  0
 25 27  1  0  0  0  0
 25 28  1  0  0  0  0
M  END
$$$$

  -OEChem-03222214033D

 28 27  0     1  0  0  0  0  0999 V2000
   -3.3280   -3.7114    1.4548 H   0  0  0  0  0  0  0  0  0  0  0  0
   -3.2995   -2.7384    0.9564 C   0  0  0  0  0  0  0  0  0  0  0  0
   -3.8908   -2.0273    1.5384 H   0  0  0  0  0  0  0  0  0  0  0  0
   -3.7390   -2.8392   -0.0389 H   0  0  0  0  0  0  0  0  0  0  0  0
   -1.8677   -2.2512    0.8431 C   0  0  0  0  0  0  0  0  0  0  0  0
   -0.9492   -2.9501    1.2396 O   0  0  0  0  0  0  0  0  0  0  0  0
   -1.6050   -1.0160    0.2879 N   0  0  0  0  0  0  0  0  0  0  0  0
   -2.4055   -0.4259    0.0637 H   0  0  0  0  0  0  0  0  0  0  0  0
   -0.2814   -0.3696    0.2568 C   0  0  1  0  0  0  0  0  0  0  0  0
    0.3538   -0.8496    1.0090 H   0  0  0  0  0  0  0  0  0  0  0  0
    0.4432   -0.4878   -1.1101 C   0  0  0  0  0  0  0  0  0  0  0  0
    0.4399    0.4813   -1.6223 H   0  0  0  0  0  0  0  0  0  0  0  0
    1.4892   -0.7250   -0.8877 H   0  0  0  0  0  0  0  0  0  0  0  0
   -0.1200   -1.5392   -2.1001 C   0  0  0  0  0  0  0  0  0  0  0  0
   -0.5223   -2.3900   -1.5471 H   0  0  0  0  0  0  0  0  0  0  0  0
   -0.9325   -1.1037   -2.6869 H   0  0  0  0  0  0  0  0  0  0  0  0
    0.9295   -2.1342   -3.0395 C   0  0  0  0  0  0  0  0  0  0  0  0
    1.9662   -1.5291   -3.2538 O   0  0  0  0  0  0  0  0  0  0  0  0
    0.6363   -3.3186   -3.6175 O   0  0  0  0  0  0  0  0  0  0  0  0
    1.4075   -3.5265   -4.1667 H   0  0  0  0  0  0  0  0  0  0  0  0
   -0.4041    1.1144    0.6596 C   0  0  0  0  0  0  0  0  0  0  0  0
   -1.3479    1.7786    0.2469 O   0  0  0  0  0  0  0  0  0  0  0  0
    0.4902    1.6818    1.5483 N   0  0  0  0  0  0  0  0  0  0  0  0
    1.2395    1.0952    1.9050 H   0  0  0  0  0  0  0  0  0  0  0  0
    0.3916    3.0613    2.0098 C   0  0  0  0  0  0  0  0  0  0  0  0
   -0.5630    3.2280    2.5199 H   0  0  0  0  0  0  0  0  0  0  0  0
    1.2011    3.2848    2.7113 H   0  0  0  0  0  0  0  0  0  0  0  0
    0.4652    3.7537    1.1646 H   0  0  0  0  0  0  0  0  0  0  0  0
  1  2  1  0  0  0  0
  2  3  1  0  0  0  0
  2  4  1  0  0  0  0
  2  5  1  0  0  0  0
  5  6  2  0  0  0  0
  5  7  1  0  0  0  0
  7  8  1  0  0  0  0
  7  9  1  0  0  0  0
  9 10  1  0  0  0  0
  9 11  1  0  0  0  0
  9 21  1  0  0  0  0
 11 12  1  0  0  0  0
 11 13  1  0  0  0  0
 11 14  1  0  0  0  0
 14 15  1  0  0  0  0
 14 16  1  0  0  0  0
 14 17  1  0  0  0  0
 17 18  2  0  0  0  0
 17 19  1  0  0  0  0
 19 20  1  0  0  0  0
 21 22  2  0  0  0  0
 21 23  1  0  0  0  0
 23 24  1  0  0  0  0
 23 25  1  0  0  0  0
 25 26  1  0  0  0  0
 25 27  1  0  0  0  0
 25 28  1  0  0  0  0
M  END
$$$$

  -OEChem-03222214033D

 28 27  0     1  0  0  0  0  0999 V2000
   -3.3498   -3.7087    1.4446 H   0  0  0  0  0  0  0  0  0  0  0  0
   -3.3176   -2.7325    0.9530 C   0  0  0  0  0  0  0  0  0  0  0  0
   -3.9099   -2.0241    1.5371 H   0  0  0  0  0  0  0  0  0  0  0  0
   -3.7536   -2.8262   -0.0445 H   0  0  0  0  0  0  0  0  0  0  0  0
   -1.8847   -2.2470    0.8483 C   0  0  0  0  0  0  0  0  0  0  0  0
   -0.9688   -2.9493    1.2444 O   0  0  0  0  0  0  0  0  0  0  0  0
   -1.6179   -1.0115    0.2953 N   0  0  0  0  0  0  0  0  0  0  0  0
   -2.4159   -0.4176    0.0725 H   0  0  0  0  0  0  0  0  0  0  0  0
   -0.2907   -0.3742    0.2592 C   0  0  1  0  0  0  0  0  0  0  0  0
    0.3422   -0.8585    1.0106 H   0  0  0  0  0  0  0  0  0  0  0  0
    0.4411   -0.4892   -1.1069 C   0  0  0  0  0  0  0  0  0  0  0  0
    0.4376    0.4853   -1.6085 H   0  0  0  0  0  0  0  0  0  0  0  0
    1.4877   -0.7141   -0.8760 H   0  0  0  0  0  0  0  0  0  0  0  0
   -0.1011   -1.5292   -2.1276 C   0  0  0  0  0  0  0  0  0  0  0  0
   -0.7547   -2.2515   -1.6393 H   0  0  0  0  0  0  0  0  0  0  0  0
   -0.6900   -1.0211   -2.8949 H   0  0  0  0  0  0  0  0  0  0  0  0
    0.9872   -2.3653   -2.8015 C   0  0  0  0  0  0  0  0  0  0  0  0
    2.0758   -1.8660   -3.0292 O   0  0  0  0  0  0  0  0  0  0  0  0
    0.6712   -3.6319   -3.1470 O   0  0  0  0  0  0  0  0  0  0  0  0
    1.4759   -3.9905   -3.5511 H   0  0  0  0  0  0  0  0  0  0  0  0
   -0.4073    1.1090    0.6681 C   0  0  0  0  0  0  0  0  0  0  0  0
   -1.3462    1.7801    0.2548 O   0  0  0  0  0  0  0  0  0  0  0  0
    0.4917    1.6715    1.5550 N   0  0  0  0  0  0  0  0  0  0  0  0
    1.2344    1.0789    1.9154 H   0  0  0  0  0  0  0  0  0  0  0  0
    0.4007    3.0512    2.0176 C   0  0  0  0  0  0  0  0  0  0  0  0
   -0.5507    3.2215    2.5326 H   0  0  0  0  0  0  0  0  0  0  0  0
    1.2148    3.2716    2.7148 H   0  0  0  0  0  0  0  0  0  0  0  0
    0.4728    3.7437    1.1723 H   0  0  0  0  0  0  0  0  0  0  0  0
  1  2  1  0  0  0  0
  2  3  1  0  0  0  0
  2  4  1  0  0  0  0
  2  5  1  0  0  0  0
  5  6  2  0  0  0  0
  5  7  1  0  0  0  0
  7  8  1  0  0  0  0
  7  9  1  0  0  0  0
  9 10  1  0  0  0  0
  9 11  1  0  0  0  0
  9 21  1  0  0  0  0
 11 12  1  0  0  0  0
 11 13  1  0  0  0  0
 11 14  1  0  0  0  0
 14 15  1  0  0  0  0
 14 16  1  0  0  0  0
 14 17  1  0  0  0  0
 17 18  2  0  0  0  0
 17 19  1  0  0  0  0
 19 20  1  0  0  0  0
 21 22  2  0  0  0  0
 21 23  1  0  0  0  0
 23 24  1  0  0  0  0
 23 25  1  0  0  0  0
 25 26  1  0  0  0  0
 25 27  1  0  0  0  0
 25 28  1  0  0  0  0
M  END
$$$$

  -OEChem-03222214033D

 28 27  0     1  0  0  0  0  0999 V2000
   -3.3537   -3.7112    1.4145 H   0  0  0  0  0  0  0  0  0  0  0  0
   -3.3219   -2.7272    0.9381 C   0  0  0  0  0  0  0  0  0  0  0  0
   -3.9113   -2.0274    1.5357 H   0  0  0  0  0  0  0  0  0  0  0  0
   -3.7611   -2.8045   -0.0594 H   0  0  0  0  0  0  0  0  0  0  0  0
   -1.8886   -2.2422    0.8360 C   0  0  0  0  0  0  0  0  0  0  0  0
   -0.9746   -2.9417    1.2412 O   0  0  0  0  0  0  0  0  0  0  0  0
   -1.6215   -1.0047    0.2875 N   0  0  0  0  0  0  0  0  0  0  0  0
   -2.4188   -0.4111    0.0617 H   0  0  0  0  0  0  0  0  0  0  0  0
   -0.2938   -0.3706    0.2516 C   0  0  1  0  0  0  0  0  0  0  0  0
    0.3360   -0.8580    1.0036 H   0  0  0  0  0  0  0  0  0  0  0  0
    0.4480   -0.4891   -1.1094 C   0  0  0  0  0  0  0  0  0  0  0  0
    0.4112    0.4858   -1.6083 H   0  0  0  0  0  0  0  0  0  0  0  0
    1.5041   -0.6763   -0.8888 H   0  0  0  0  0  0  0  0  0  0  0  0
   -0.0765   -1.5279   -2.1434 C   0  0  0  0  0  0  0  0  0  0  0  0
   -0.9625   -2.0542   -1.7912 H   0  0  0  0  0  0  0  0  0  0  0  0
   -0.3664   -1.0034   -3.0574 H   0  0  0  0  0  0  0  0  0  0  0  0
    0.9550   -2.5888   -2.5239 C   0  0  0  0  0  0  0  0  0  0  0  0
    2.1061   -2.2522   -2.7432 O   0  0  0  0  0  0  0  0  0  0  0  0
    0.5265   -3.8649   -2.6284 O   0  0  0  0  0  0  0  0  0  0  0  0
    1.3162   -4.3778   -2.8571 H   0  0  0  0  0  0  0  0  0  0  0  0
   -0.4071    1.1109    0.6670 C   0  0  0  0  0  0  0  0  0  0  0  0
   -1.3462    1.7849    0.2591 O   0  0  0  0  0  0  0  0  0  0  0  0
    0.4947    1.6676    1.5547 N   0  0  0  0  0  0  0  0  0  0  0  0
    1.2353    1.0708    1.9128 H   0  0  0  0  0  0  0  0  0  0  0  0
    0.3944    3.0384    2.0410 C   0  0  0  0  0  0  0  0  0  0  0  0
   -0.5542    3.1903    2.5669 H   0  0  0  0  0  0  0  0  0  0  0  0
    1.2123    3.2551    2.7349 H   0  0  0  0  0  0  0  0  0  0  0  0
    0.4519    3.7459    1.2070 H   0  0  0  0  0  0  0  0  0  0  0  0
  1  2  1  0  0  0  0
  2  3  1  0  0  0  0
  2  4  1  0  0  0  0
  2  5  1  0  0  0  0
  5  6  2  0  0  0  0
  5  7  1  0  0  0  0
  7  8  1  0  0  0  0
  7  9  1  0  0  0  0
  9 10  1  0  0  0  0
  9 11  1  0  0  0  0
  9 21  1  0  0  0  0
 11 12  1  0  0  0  0
 11 13  1  0  0  0  0
 11 14  1  0  0  0  0
 14 15  1  0  0  0  0
 14 16  1  0  0  0  0
 14 17  1  0  0  0  0
 17 18  2  0  0  0  0
 17 19  1  0  0  0  0
 19 20  1  0  0  0  0
 21 22  2  0  0  0  0
 21 23  1  0  0  0  0
 23 24  1  0  0  0  0
 23 25  1  0  0  0  0
 25 26  1  0  0  0  0
 25 27  1  0  0  0  0
 25 28  1  0  0  0  0
M  END
$$$$

  -OEChem-03222214033D

 28 27  0     1  0  0  0  0  0999 V2000
   -3.3209   -3.7344    1.3744 H   0  0  0  0  0  0  0  0  0  0  0  0
   -3.2970   -2.7503    0.8976 C   0  0  0  0  0  0  0  0  0  0  0  0
   -3.9081   -2.0600    1.4842 H   0  0  0  0  0  0  0  0  0  0  0  0
   -3.7175   -2.8359   -0.1072 H   0  0  0  0  0  0  0  0  0  0  0  0
   -1.8699   -2.2427    0.8198 C   0  0  0  0  0  0  0  0  0  0  0  0
   -0.9530   -2.9303    1.2389 O   0  0  0  0  0  0  0  0  0  0  0  0
   -1.6114   -1.0007    0.2768 N   0  0  0  0  0  0  0  0  0  0  0  0
   -2.4121   -0.4166    0.0394 H   0  0  0  0  0  0  0  0  0  0  0  0
   -0.2885   -0.3564    0.2533 C   0  0  1  0  0  0  0  0  0  0  0  0
    0.3376   -0.8408    1.0102 H   0  0  0  0  0  0  0  0  0  0  0  0
    0.4647   -0.4813   -1.1001 C   0  0  0  0  0  0  0  0  0  0  0  0
    0.3909    0.4871   -1.6075 H   0  0  0  0  0  0  0  0  0  0  0  0
    1.5294   -0.6339   -0.8946 H   0  0  0  0  0  0  0  0  0  0  0  0
   -0.0559   -1.5341   -2.1194 C   0  0  0  0  0  0  0  0  0  0  0  0
   -1.0883   -1.8302   -1.9360 H   0  0  0  0  0  0  0  0  0  0  0  0
   -0.0432   -1.0798   -3.1135 H   0  0  0  0  0  0  0  0  0  0  0  0
    0.8146   -2.7853   -2.2086 C   0  0  0  0  0  0  0  0  0  0  0  0
    2.0270   -2.6708   -2.2649 O   0  0  0  0  0  0  0  0  0  0  0  0
    0.1817   -3.9773   -2.2480 O   0  0  0  0  0  0  0  0  0  0  0  0
    0.8913   -4.6369   -2.2667 H   0  0  0  0  0  0  0  0  0  0  0  0
   -0.4074    1.1237    0.6714 C   0  0  0  0  0  0  0  0  0  0  0  0
   -1.3405    1.7991    0.2525 O   0  0  0  0  0  0  0  0  0  0  0  0
    0.4877    1.6798    1.5662 N   0  0  0  0  0  0  0  0  0  0  0  0
    1.2165    1.0783    1.9408 H   0  0  0  0  0  0  0  0  0  0  0  0
    0.3846    3.0510    2.0512 C   0  0  0  0  0  0  0  0  0  0  0  0
   -0.5659    3.2017    2.5739 H   0  0  0  0  0  0  0  0  0  0  0  0
    1.2004    3.2690    2.7472 H   0  0  0  0  0  0  0  0  0  0  0  0
    0.4441    3.7585    1.2173 H   0  0  0  0  0  0  0  0  0  0  0  0
  1  2  1  0  0  0  0
  2  3  1  0  0  0  0
  2  4  1  0  0  0  0
  2  5  1  0  0  0  0
  5  6  2  0  0  0  0
  5  7  1  0  0  0  0
  7  8  1  0  0  0  0
  7  9  1  0  0  0  0
  9 10  1  0  0  0  0
  9 11  1  0  0  0  0
  9 21  1  0  0  0  0
 11 12  1  0  0  0  0
 11 13  1  0  0  0  0
 11 14  1  0  0  0  0
 14 15  1  0  0  0  0
 14 16  1  0  0  0  0
 14 17  1  0  0  0  0
 17 18  2  0  0  0  0
 17 19  1  0  0  0  0
 19 20  1  0  0  0  0
 21 22  2  0  0  0  0
 21 23  1  0  0  0  0
 23 24  1  0  0  0  0
 23 25  1  0  0  0  0
 25 26  1  0  0  0  0
 25 27  1  0  0  0  0
 25 28  1  0  0  0  0
M  END
$$$$

  -OEChem-03222214033D

 28 27  0     1  0  0  0  0  0999 V2000
   -3.2942   -3.7544    1.3366 H   0  0  0  0  0  0  0  0  0  0  0  0
   -3.2662   -2.7795    0.8422 C   0  0  0  0  0  0  0  0  0  0  0  0
   -3.9115   -2.0881    1.3894 H   0  0  0  0  0  0  0  0  0  0  0  0
   -3.6427   -2.8906   -0.1776 H   0  0  0  0  0  0  0  0  0  0  0  0
   -1.8455   -2.2503    0.8122 C   0  0  0  0  0  0  0  0  0  0  0  0
   -0.9332   -2.9205    1.2688 O   0  0  0  0  0  0  0  0  0  0  0  0
   -1.5903   -1.0066    0.2716 N   0  0  0  0  0  0  0  0  0  0  0  0
   -2.3923   -0.4362    0.0074 H   0  0  0  0  0  0  0  0  0  0  0  0
   -0.2727   -0.3511    0.2579 C   0  0  1  0  0  0  0  0  0  0  0  0
    0.3555   -0.8326    1.0148 H   0  0  0  0  0  0  0  0  0  0  0  0
    0.4768   -0.4735   -1.0963 C   0  0  0  0  0  0  0  0  0  0  0  0
    0.3936    0.4915   -1.6087 H   0  0  0  0  0  0  0  0  0  0  0  0
    1.5439   -0.6285   -0.9046 H   0  0  0  0  0  0  0  0  0  0  0  0
   -0.0584   -1.5333   -2.0929 C   0  0  0  0  0  0  0  0  0  0  0  0
   -1.1455   -1.6230   -2.0628 H   0  0  0  0  0  0  0  0  0  0  0  0
    0.1929   -1.2068   -3.1052 H   0  0  0  0  0  0  0  0  0  0  0  0
    0.5867   -2.9040   -1.9118 C   0  0  0  0  0  0  0  0  0  0  0  0
    1.8001   -2.9864   -1.8269 O   0  0  0  0  0  0  0  0  0  0  0  0
   -0.2344   -3.9750   -1.8681 O   0  0  0  0  0  0  0  0  0  0  0  0
    0.3488   -4.7258   -1.6794 H   0  0  0  0  0  0  0  0  0  0  0  0
   -0.4025    1.1282    0.6741 C   0  0  0  0  0  0  0  0  0  0  0  0
   -1.3332    1.7999    0.2438 O   0  0  0  0  0  0  0  0  0  0  0  0
    0.4839    1.6892    1.5744 N   0  0  0  0  0  0  0  0  0  0  0  0
    1.2146    1.0922    1.9523 H   0  0  0  0  0  0  0  0  0  0  0  0
    0.3741    3.0617    2.0539 C   0  0  0  0  0  0  0  0  0  0  0  0
   -0.5880    3.2175    2.5536 H   0  0  0  0  0  0  0  0  0  0  0  0
    1.1738    3.2779    2.7690 H   0  0  0  0  0  0  0  0  0  0  0  0
    0.4563    3.7667    1.2198 H   0  0  0  0  0  0  0  0  0  0  0  0
  1  2  1  0  0  0  0
  2  3  1  0  0  0  0
  2  4  1  0  0  0  0
  2  5  1  0  0  0  0
  5  6  2  0  0  0  0
  5  7  1  0  0  0  0
  7  8  1  0  0  0  0
  7  9  1  0  0  0  0
  9 10  1  0  0  0  0
  9 11  1  0  0  0  0
  9 21  1  0  0  0  0
 11 12  1  0  0  0  0
 11 13  1  0  0  0  0
 11 14  1  0  0  0  0
 14 15  1  0  0  0  0
 14 16  1  0  0  0  0
 14 17  1  0  0  0  0
 17 18  2  0  0  0  0
 17 19  1  0  0  0  0
 19 20  1  0  0  0  0
 21 22  2  0  0  0  0
 21 23  1  0  0  0  0
 23 24  1  0  0  0  0
 23 25  1  0  0  0  0
 25 26  1  0  0  0  0
 25 27  1  0  0  0  0
 25 28  1  0  0  0  0
M  END
$$$$

  -OEChem-03222214033D

 28 27  0     1  0  0  0  0  0999 V2000
   -3.2929   -3.7784    1.3237 H   0  0  0  0  0  0  0  0  0  0  0  0
   -3.2524   -2.8127    0.8123 C   0  0  0  0  0  0  0  0  0  0  0  0
   -3.9391   -2.1225    1.3084 H   0  0  0  0  0  0  0  0  0  0  0  0
   -3.5681   -2.9504   -0.2247 H   0  0  0  0  0  0  0  0  0  0  0  0
   -1.8407   -2.2598    0.8512 C   0  0  0  0  0  0  0  0  0  0  0  0
   -0.9476   -2.9036    1.3784 O   0  0  0  0  0  0  0  0  0  0  0  0
   -1.5741   -1.0237    0.2981 N   0  0  0  0  0  0  0  0  0  0  0  0
   -2.3690   -0.4773   -0.0294 H   0  0  0  0  0  0  0  0  0  0  0  0
   -0.2585   -0.3609    0.2881 C   0  0  1  0  0  0  0  0  0  0  0  0
    0.3742   -0.8353    1.0459 H   0  0  0  0  0  0  0  0  0  0  0  0
    0.4832   -0.4726   -1.0732 C   0  0  0  0  0  0  0  0  0  0  0  0
    0.4122    0.4946   -1.5831 H   0  0  0  0  0  0  0  0  0  0  0  0
    1.5479   -0.6487   -0.8847 H   0  0  0  0  0  0  0  0  0  0  0  0
   -0.0549   -1.5268   -2.0680 C   0  0  0  0  0  0  0  0  0  0  0  0
   -1.1383   -1.4422   -2.1801 H   0  0  0  0  0  0  0  0  0  0  0  0
    0.3817   -1.3378   -3.0518 H   0  0  0  0  0  0  0  0  0  0  0  0
    0.3157   -2.9545   -1.6774 C   0  0  0  0  0  0  0  0  0  0  0  0
    1.4785   -3.2086   -1.4153 O   0  0  0  0  0  0  0  0  0  0  0  0
   -0.6697   -3.8784   -1.6571 O   0  0  0  0  0  0  0  0  0  0  0  0
   -0.2437   -4.6777   -1.3095 H   0  0  0  0  0  0  0  0  0  0  0  0
   -0.4000    1.1237    0.6828 C   0  0  0  0  0  0  0  0  0  0  0  0
   -1.3157    1.7923    0.2168 O   0  0  0  0  0  0  0  0  0  0  0  0
    0.4755    1.7001    1.5843 N   0  0  0  0  0  0  0  0  0  0  0  0
    1.1924    1.1059    1.9920 H   0  0  0  0  0  0  0  0  0  0  0  0
    0.3702    3.0852    2.0270 C   0  0  0  0  0  0  0  0  0  0  0  0
   -0.5997    3.2632    2.5034 H   0  0  0  0  0  0  0  0  0  0  0  0
    1.1577    3.3121    2.7520 H   0  0  0  0  0  0  0  0  0  0  0  0
    0.4760    3.7681    1.1774 H   0  0  0  0  0  0  0  0  0  0  0  0
  1  2  1  0  0  0  0
  2  3  1  0  0  0  0
  2  4  1  0  0  0  0
  2  5  1  0  0  0  0
  5  6  2  0  0  0  0
  5  7  1  0  0  0  0
  7  8  1  0  0  0  0
  7  9  1  0  0  0  0
  9 10  1  0  0  0  0
  9 11  1  0  0  0  0
  9 21  1  0  0  0  0
 11 12  1  0  0  0  0
 11 13  1  0  0  0  0
 11 14  1  0  0  0  0
 14 15  1  0  0  0  0
 14 16  1  0  0  0  0
 14 17  1  0  0  0  0
 17 18  2  0  0  0  0
 17 19  1  0  0  0  0
 19 20  1  0  0  0  0
 21 22  2  0  0  0  0
 21 23  1  0  0  0  0
 23 24  1  0  0  0  0
 23 25  1  0  0  0  0
 25 26  1  0  0  0  0
 25 27  1  0  0  0  0
 25 28  1  0  0  0  0
M  END
$$$$

  -OEChem-03222214033D

 28 27  0     1  0  0  0  0  0999 V2000
   -3.3404   -3.7498    1.3956 H   0  0  0  0  0  0  0  0  0  0  0  0
   -3.2802   -2.7864    0.8818 C   0  0  0  0  0  0  0  0  0  0  0  0
   -3.9560   -2.0822    1.3728 H   0  0  0  0  0  0  0  0  0  0  0  0
   -3.5944   -2.9208   -0.1562 H   0  0  0  0  0  0  0  0  0  0  0  0
   -1.8591   -2.2581    0.9255 C   0  0  0  0  0  0  0  0  0  0  0  0
   -0.9890   -2.8963    1.4948 O   0  0  0  0  0  0  0  0  0  0  0  0
   -1.5649   -1.0424    0.3434 N   0  0  0  0  0  0  0  0  0  0  0  0
   -2.3485   -0.5029   -0.0213 H   0  0  0  0  0  0  0  0  0  0  0  0
   -0.2457   -0.3870    0.3263 C   0  0  1  0  0  0  0  0  0  0  0  0
    0.3852   -0.8475    1.0945 H   0  0  0  0  0  0  0  0  0  0  0  0
    0.5024   -0.4930   -1.0358 C   0  0  0  0  0  0  0  0  0  0  0  0
    0.4675    0.4811   -1.5369 H   0  0  0  0  0  0  0  0  0  0  0  0
    1.5573   -0.6990   -0.8243 H   0  0  0  0  0  0  0  0  0  0  0  0
   -0.0005   -1.5296   -2.0651 C   0  0  0  0  0  0  0  0  0  0  0  0
   -1.0289   -1.2901   -2.3474 H   0  0  0  0  0  0  0  0  0  0  0  0
    0.6102   -1.4675   -2.9694 H   0  0  0  0  0  0  0  0  0  0  0  0
    0.0455   -2.9692   -1.5645 C   0  0  0  0  0  0  0  0  0  0  0  0
    1.1086   -3.3937   -1.1484 O   0  0  0  0  0  0  0  0  0  0  0  0
   -1.0735   -3.7219   -1.6473 O   0  0  0  0  0  0  0  0  0  0  0  0
   -0.8188   -4.5653   -1.2395 H   0  0  0  0  0  0  0  0  0  0  0  0
   -0.4043    1.1067    0.6801 C   0  0  0  0  0  0  0  0  0  0  0  0
   -1.3175    1.7574    0.1842 O   0  0  0  0  0  0  0  0  0  0  0  0
    0.4557    1.7130    1.5766 N   0  0  0  0  0  0  0  0  0  0  0  0
    1.1637    1.1317    2.0169 H   0  0  0  0  0  0  0  0  0  0  0  0
    0.3314    3.1067    1.9864 C   0  0  0  0  0  0  0  0  0  0  0  0
   -0.6389    3.2819    2.4631 H   0  0  0  0  0  0  0  0  0  0  0  0
    1.1191    3.3624    2.7017 H   0  0  0  0  0  0  0  0  0  0  0  0
    0.4235    3.7704    1.1202 H   0  0  0  0  0  0  0  0  0  0  0  0
  1  2  1  0  0  0  0
  2  3  1  0  0  0  0
  2  4  1  0  0  0  0
  2  5  1  0  0  0  0
  5  6  2  0  0  0  0
  5  7  1  0  0  0  0
  7  8  1  0  0  0  0
  7  9  1  0  0  0  0
  9 10  1  0  0  0  0
  9 11  1  0  0  0  0
  9 21  1  0  0  0  0
 11 12  1  0  0  0  0
 11 13  1  0  0  0  0
 11 14  1  0  0  0  0
 14 15  1  0  0  0  0
 14 16  1  0  0  0  0
 14 17  1  0  0  0  0
 17 18  2  0  0  0  0
 17 19  1  0  0  0  0
 19 20  1  0  0  0  0
 21 22  2  0  0  0  0
 21 23  1  0  0  0  0
 23 24  1  0  0  0  0
 23 25  1  0  0  0  0
 25 26  1  0  0  0  0
 25 27  1  0  0  0  0
 25 28  1  0  0  0  0
M  END
$$$$

  -OEChem-03222214033D

 28 27  0     1  0  0  0  0  0999 V2000
   -3.3380   -3.7701    1.4595 H   0  0  0  0  0  0  0  0  0  0  0  0
   -3.2956   -2.7704    1.0186 C   0  0  0  0  0  0  0  0  0  0  0  0
   -3.9351   -2.1011    1.5987 H   0  0  0  0  0  0  0  0  0  0  0  0
   -3.6694   -2.8217   -0.0069 H   0  0  0  0  0  0  0  0  0  0  0  0
   -1.8686   -2.2557    1.0254 C   0  0  0  0  0  0  0  0  0  0  0  0
   -1.0017   -2.8752    1.6180 O   0  0  0  0  0  0  0  0  0  0  0  0
   -1.5729   -1.0565    0.4111 N   0  0  0  0  0  0  0  0  0  0  0  0
   -2.3549   -0.5317    0.0226 H   0  0  0  0  0  0  0  0  0  0  0  0
   -0.2529   -0.4057    0.3699 C   0  0  1  0  0  0  0  0  0  0  0  0
    0.3827   -0.8484    1.1444 H   0  0  0  0  0  0  0  0  0  0  0  0
    0.4987   -0.5094   -0.9941 C   0  0  0  0  0  0  0  0  0  0  0  0
    0.4945    0.4716   -1.4827 H   0  0  0  0  0  0  0  0  0  0  0  0
    1.5438   -0.7338   -0.7551 H   0  0  0  0  0  0  0  0  0  0  0  0
    0.0523   -1.5272   -2.0709 C   0  0  0  0  0  0  0  0  0  0  0  0
   -0.8586   -1.1468   -2.5408 H   0  0  0  0  0  0  0  0  0  0  0  0
    0.8184   -1.5872   -2.8484 H   0  0  0  0  0  0  0  0  0  0  0  0
   -0.2453   -2.9406   -1.5876 C   0  0  0  0  0  0  0  0  0  0  0  0
    0.6829   -3.5802   -1.1288 O   0  0  0  0  0  0  0  0  0  0  0  0
   -1.4834   -3.4532   -1.7640 O   0  0  0  0  0  0  0  0  0  0  0  0
   -1.4140   -4.3543   -1.4098 H   0  0  0  0  0  0  0  0  0  0  0  0
   -0.4225    1.0955    0.6895 C   0  0  0  0  0  0  0  0  0  0  0  0
   -1.3363    1.7309    0.1750 O   0  0  0  0  0  0  0  0  0  0  0  0
    0.4359    1.7298    1.5683 N   0  0  0  0  0  0  0  0  0  0  0  0
    1.1433    1.1628    2.0278 H   0  0  0  0  0  0  0  0  0  0  0  0
    0.3030    3.1329    1.9421 C   0  0  0  0  0  0  0  0  0  0  0  0
   -0.6677    3.3135    2.4159 H   0  0  0  0  0  0  0  0  0  0  0  0
    1.0902    3.4130    2.6487 H   0  0  0  0  0  0  0  0  0  0  0  0
    0.3887    3.7744    1.0586 H   0  0  0  0  0  0  0  0  0  0  0  0
  1  2  1  0  0  0  0
  2  3  1  0  0  0  0
  2  4  1  0  0  0  0
  2  5  1  0  0  0  0
  5  6  2  0  0  0  0
  5  7  1  0  0  0  0
  7  8  1  0  0  0  0
  7  9  1  0  0  0  0
  9 10  1  0  0  0  0
  9 11  1  0  0  0  0
  9 21  1  0  0  0  0
 11 12  1  0  0  0  0
 11 13  1  0  0  0  0
 11 14  1  0  0  0  0
 14 15  1  0  0  0  0
 14 16  1  0  0  0  0
 14 17  1  0  0  0  0
 17 18  2  0  0  0  0
 17 19  1  0  0  0  0
 19 20  1  0  0  0  0
 21 22  2  0  0  0  0
 21 23  1  0  0  0  0
 23 24  1  0  0  0  0
 23 25  1  0  0  0  0
 25 26  1  0  0  0  0
 25 27  1  0  0  0  0
 25 28  1  0  0  0  0
M  END
$$$$

  -OEChem-03222214033D

 28 27  0     1  0  0  0  0  0999 V2000
   -3.2895   -3.8266    1.4643 H   0  0  0  0  0  0  0  0  0  0  0  0
   -3.2793   -2.7869    1.1257 C   0  0  0  0  0  0  0  0  0  0  0  0
   -3.8793   -2.1846    1.8121 H   0  0  0  0  0  0  0  0  0  0  0  0
   -3.7225   -2.7365    0.1284 H   0  0  0  0  0  0  0  0  0  0  0  0
   -1.8555   -2.2636    1.0918 C   0  0  0  0  0  0  0  0  0  0  0  0
   -0.9743   -2.8625    1.6847 O   0  0  0  0  0  0  0  0  0  0  0  0
   -1.5818   -1.0630    0.4690 N   0  0  0  0  0  0  0  0  0  0  0  0
   -2.3690   -0.5537    0.0701 H   0  0  0  0  0  0  0  0  0  0  0  0
   -0.2629   -0.4160    0.3992 C   0  0  1  0  0  0  0  0  0  0  0  0
    0.3884   -0.8557    1.1622 H   0  0  0  0  0  0  0  0  0  0  0  0
    0.4742   -0.5015   -0.9765 C   0  0  0  0  0  0  0  0  0  0  0  0
    0.4848    0.4917   -1.4402 H   0  0  0  0  0  0  0  0  0  0  0  0
    1.5161   -0.7368   -0.7350 H   0  0  0  0  0  0  0  0  0  0  0  0
    0.0563   -1.4892   -2.0984 C   0  0  0  0  0  0  0  0  0  0  0  0
   -0.6788   -0.9769   -2.7250 H   0  0  0  0  0  0  0  0  0  0  0  0
    0.9254   -1.6923   -2.7299 H   0  0  0  0  0  0  0  0  0  0  0  0
   -0.5696   -2.8241   -1.7186 C   0  0  0  0  0  0  0  0  0  0  0  0
    0.1734   -3.6949   -1.3069 O   0  0  0  0  0  0  0  0  0  0  0  0
   -1.8863   -3.0243   -1.9506 O   0  0  0  0  0  0  0  0  0  0  0  0
   -2.0288   -3.9525   -1.7071 H   0  0  0  0  0  0  0  0  0  0  0  0
   -0.4352    1.0837    0.7266 C   0  0  0  0  0  0  0  0  0  0  0  0
   -1.3557    1.7200    0.2252 O   0  0  0  0  0  0  0  0  0  0  0  0
    0.4386    1.7181    1.5899 N   0  0  0  0  0  0  0  0  0  0  0  0
    1.1452    1.1478    2.0462 H   0  0  0  0  0  0  0  0  0  0  0  0
    0.3006    3.1161    1.9804 C   0  0  0  0  0  0  0  0  0  0  0  0
   -0.6698    3.2871    2.4586 H   0  0  0  0  0  0  0  0  0  0  0  0
    1.0881    3.3907    2.6889 H   0  0  0  0  0  0  0  0  0  0  0  0
    0.3814    3.7683    1.1043 H   0  0  0  0  0  0  0  0  0  0  0  0
  1  2  1  0  0  0  0
  2  3  1  0  0  0  0
  2  4  1  0  0  0  0
  2  5  1  0  0  0  0
  5  6  2  0  0  0  0
  5  7  1  0  0  0  0
  7  8  1  0  0  0  0
  7  9  1  0  0  0  0
  9 10  1  0  0  0  0
  9 11  1  0  0  0  0
  9 21  1  0  0  0  0
 11 12  1  0  0  0  0
 11 13  1  0  0  0  0
 11 14  1  0  0  0  0
 14 15  1  0  0  0  0
 14 16  1  0  0  0  0
 14 17  1  0  0  0  0
 17 18  2  0  0  0  0
 17 19  1  0  0  0  0
 19 20  1  0  0  0  0
 21 22  2  0  0  0  0
 21 23  1  0  0  0  0
 23 24  1  0  0  0  0
 23 25  1  0  0  0  0
 25 26  1  0  0  0  0
 25 27  1  0  0  0  0
 25 28  1  0  0  0  0
M  END
$$$$

  -OEChem-03222214033D

 28 27  0     1  0  0  0  0  0999 V2000
   -3.3962   -3.7423    1.5202 H   0  0  0  0  0  0  0  0  0  0  0  0
   -3.3608   -2.7313    1.1049 C   0  0  0  0  0  0  0  0  0  0  0  0
   -4.0007   -2.0796    1.7047 H   0  0  0  0  0  0  0  0  0  0  0  0
   -3.7405   -2.7578    0.0815 H   0  0  0  0  0  0  0  0  0  0  0  0
   -1.9359   -2.2104    1.1235 C   0  0  0  0  0  0  0  0  0  0  0  0
   -1.0910   -2.7776    1.7964 O   0  0  0  0  0  0  0  0  0  0  0  0
   -1.6245   -1.0361    0.4675 N   0  0  0  0  0  0  0  0  0  0  0  0
   -2.3784   -0.5513   -0.0174 H   0  0  0  0  0  0  0  0  0  0  0  0
   -0.2936   -0.4141    0.4374 C   0  0  1  0  0  0  0  0  0  0  0  0
    0.3091   -0.8312    1.2512 H   0  0  0  0  0  0  0  0  0  0  0  0
    0.5231   -0.5639   -0.8879 C   0  0  0  0  0  0  0  0  0  0  0  0
    0.5728    0.4142   -1.3805 H   0  0  0  0  0  0  0  0  0  0  0  0
    1.5462   -0.7937   -0.5721 H   0  0  0  0  0  0  0  0  0  0  0  0
    0.1813   -1.5810   -2.0151 C   0  0  0  0  0  0  0  0  0  0  0  0
   -0.2575   -1.0123   -2.8395 H   0  0  0  0  0  0  0  0  0  0  0  0
    1.1177   -2.0036   -2.3905 H   0  0  0  0  0  0  0  0  0  0  0  0
   -0.7728   -2.7406   -1.7615 C   0  0  0  0  0  0  0  0  0  0  0  0
   -0.3081   -3.7807   -1.3354 O   0  0  0  0  0  0  0  0  0  0  0  0
   -2.0686   -2.6051   -2.1228 O   0  0  0  0  0  0  0  0  0  0  0  0
   -2.4503   -3.4842   -1.9755 H   0  0  0  0  0  0  0  0  0  0  0  0
   -0.4570    1.0994    0.7023 C   0  0  0  0  0  0  0  0  0  0  0  0
   -1.3392    1.7329    0.1333 O   0  0  0  0  0  0  0  0  0  0  0  0
    0.3852    1.7519    1.5834 N   0  0  0  0  0  0  0  0  0  0  0  0
    1.0505    1.1854    2.1022 H   0  0  0  0  0  0  0  0  0  0  0  0
    0.2410    3.1614    1.9276 C   0  0  0  0  0  0  0  0  0  0  0  0
   -0.7375    3.3466    2.3833 H   0  0  0  0  0  0  0  0  0  0  0  0
    1.0164    3.4583    2.6404 H   0  0  0  0  0  0  0  0  0  0  0  0
    0.3366    3.7865    1.0334 H   0  0  0  0  0  0  0  0  0  0  0  0
  1  2  1  0  0  0  0
  2  3  1  0  0  0  0
  2  4  1  0  0  0  0
  2  5  1  0  0  0  0
  5  6  2  0  0  0  0
  5  7  1  0  0  0  0
  7  8  1  0  0  0  0
  7  9  1  0  0  0  0
  9 10  1  0  0  0  0
  9 11  1  0  0  0  0
  9 21  1  0  0  0  0
 11 12  1  0  0  0  0
 11 13  1  0  0  0  0
 11 14  1  0  0  0  0
 14 15  1  0  0  0  0
 14 16  1  0  0  0  0
 14 17  1  0  0  0  0
 17 18  2  0  0  0  0
 17 19  1  0  0  0  0
 19 20  1  0  0  0  0
 21 22  2  0  0  0  0
 21 23  1  0  0  0  0
 23 24  1  0  0  0  0
 23 25  1  0  0  0  0
 25 26  1  0  0  0  0
 25 27  1  0  0  0  0
 25 28  1  0  0  0  0
M  END
$$$$

  -OEChem-03222214033D

 28 27  0     1  0  0  0  0  0999 V2000
   -3.3599   -3.7512    1.5599 H   0  0  0  0  0  0  0  0  0  0  0  0
   -3.3478   -2.7439    1.1349 C   0  0  0  0  0  0  0  0  0  0  0  0
   -3.9673   -2.0914    1.7546 H   0  0  0  0  0  0  0  0  0  0  0  0
   -3.7691   -2.7808    0.1275 H   0  0  0  0  0  0  0  0  0  0  0  0
   -1.9275   -2.2125    1.0869 C   0  0  0  0  0  0  0  0  0  0  0  0
   -1.0155   -2.8620    1.5735 O   0  0  0  0  0  0  0  0  0  0  0  0
   -1.6761   -0.9821    0.5160 N   0  0  0  0  0  0  0  0  0  0  0  0
   -2.4668   -0.4948    0.0944 H   0  0  0  0  0  0  0  0  0  0  0  0
   -0.3536   -0.3592    0.3796 C   0  0  1  0  0  0  0  0  0  0  0  0
    0.3254   -0.8511    1.0836 H   0  0  0  0  0  0  0  0  0  0  0  0
    0.3201   -0.4265   -1.0314 C   0  0  0  0  0  0  0  0  0  0  0  0
    0.2728    0.5808   -1.4616 H   0  0  0  0  0  0  0  0  0  0  0  0
    1.3819   -0.6273   -0.8546 H   0  0  0  0  0  0  0  0  0  0  0  0
   -0.1330   -1.3720   -2.1870 C   0  0  0  0  0  0  0  0  0  0  0  0
   -0.3699   -0.7501   -3.0552 H   0  0  0  0  0  0  0  0  0  0  0  0
    0.7277   -1.9846   -2.4693 H   0  0  0  0  0  0  0  0  0  0  0  0
   -1.3049   -2.3293   -2.0111 C   0  0  0  0  0  0  0  0  0  0  0  0
   -2.4403   -1.9114   -2.1693 O   0  0  0  0  0  0  0  0  0  0  0  0
   -1.0196   -3.6231   -1.7481 O   0  0  0  0  0  0  0  0  0  0  0  0
   -1.8738   -4.0748   -1.6900 H   0  0  0  0  0  0  0  0  0  0  0  0
   -0.4424    1.1249    0.8005 C   0  0  0  0  0  0  0  0  0  0  0  0
   -1.3622    1.8277    0.3988 O   0  0  0  0  0  0  0  0  0  0  0  0
    0.5224    1.6788    1.6222 N   0  0  0  0  0  0  0  0  0  0  0  0
    1.2302    1.0566    2.0019 H   0  0  0  0  0  0  0  0  0  0  0  0
    0.4742    3.0594    2.0890 C   0  0  0  0  0  0  0  0  0  0  0  0
   -0.4216    3.2274    2.6962 H   0  0  0  0  0  0  0  0  0  0  0  0
    1.3540    3.2840    2.6995 H   0  0  0  0  0  0  0  0  0  0  0  0
    0.4588    3.7510    1.2399 H   0  0  0  0  0  0  0  0  0  0  0  0
  1  2  1  0  0  0  0
  2  3  1  0  0  0  0
  2  4  1  0  0  0  0
  2  5  1  0  0  0  0
  5  6  2  0  0  0  0
  5  7  1  0  0  0  0
  7  8  1  0  0  0  0
  7  9  1  0  0  0  0
  9 10  1  0  0  0  0
  9 11  1  0  0  0  0
  9 21  1  0  0  0  0
 11 12  1  0  0  0  0
 11 13  1  0  0  0  0
 11 14  1  0  0  0  0
 14 15  1  0  0  0  0
 14 16  1  0  0  0  0
 14 17  1  0  0  0  0
 17 18  2  0  0  0  0
 17 19  1  0  0  0  0
 19 20  1  0  0  0  0
 21 22  2  0  0  0  0
 21 23  1  0  0  0  0
 23 24  1  0  0  0  0
 23 25  1  0  0  0  0
 25 26  1  0  0  0  0
 25 27  1  0  0  0  0
 25 28  1  0  0  0  0
M  END
$$$$

  -OEChem-03222214033D

 28 27  0     1  0  0  0  0  0999 V2000
   -3.1244   -3.6672    1.9624 H   0  0  0  0  0  0  0  0  0  0  0  0
   -3.1727   -2.6456    1.5756 C   0  0  0  0  0  0  0  0  0  0  0  0
   -3.6693   -2.0105    2.3132 H   0  0  0  0  0  0  0  0  0  0  0  0
   -3.7592   -2.6447    0.6539 H   0  0  0  0  0  0  0  0  0  0  0  0
   -1.7750   -2.1222    1.3052 C   0  0  0  0  0  0  0  0  0  0  0  0
   -0.8011   -2.7498    1.6901 O   0  0  0  0  0  0  0  0  0  0  0  0
   -1.6101   -0.9269    0.6373 N   0  0  0  0  0  0  0  0  0  0  0  0
   -2.4509   -0.4688    0.2832 H   0  0  0  0  0  0  0  0  0  0  0  0
   -0.3211   -0.3277    0.2757 C   0  0  1  0  0  0  0  0  0  0  0  0
    0.4487   -0.7853    0.9053 H   0  0  0  0  0  0  0  0  0  0  0  0
    0.1425   -0.5097   -1.2061 C   0  0  0  0  0  0  0  0  0  0  0  0
   -0.0071    0.4599   -1.6954 H   0  0  0  0  0  0  0  0  0  0  0  0
    1.2244   -0.6768   -1.1907 H   0  0  0  0  0  0  0  0  0  0  0  0
   -0.4789   -1.5379   -2.2016 C   0  0  0  0  0  0  0  0  0  0  0  0
   -0.5642   -1.0601   -3.1814 H   0  0  0  0  0  0  0  0  0  0  0  0
    0.2471   -2.3484   -2.3108 H   0  0  0  0  0  0  0  0  0  0  0  0
   -1.8156   -2.2158   -1.9157 C   0  0  0  0  0  0  0  0  0  0  0  0
   -2.8318   -1.5412   -1.9188 O   0  0  0  0  0  0  0  0  0  0  0  0
   -1.8179   -3.5544   -1.7332 O   0  0  0  0  0  0  0  0  0  0  0  0
   -2.7482   -3.7998   -1.6235 H   0  0  0  0  0  0  0  0  0  0  0  0
   -0.3315    1.1792    0.6179 C   0  0  0  0  0  0  0  0  0  0  0  0
   -1.2943    1.8754    0.3195 O   0  0  0  0  0  0  0  0  0  0  0  0
    0.7499    1.7603    1.2550 N   0  0  0  0  0  0  0  0  0  0  0  0
    1.4959    1.1456    1.5677 H   0  0  0  0  0  0  0  0  0  0  0  0
    0.7763    3.1617    1.6577 C   0  0  0  0  0  0  0  0  0  0  0  0
   -0.0122    3.3645    2.3900 H   0  0  0  0  0  0  0  0  0  0  0  0
    1.7417    3.4079    2.1102 H   0  0  0  0  0  0  0  0  0  0  0  0
    0.6265    3.8133    0.7902 H   0  0  0  0  0  0  0  0  0  0  0  0
  1  2  1  0  0  0  0
  2  3  1  0  0  0  0
  2  4  1  0  0  0  0
  2  5  1  0  0  0  0
  5  6  2  0  0  0  0
  5  7  1  0  0  0  0
  7  8  1  0  0  0  0
  7  9  1  0  0  0  0
  9 10  1  0  0  0  0
  9 11  1  0  0  0  0
  9 21  1  0  0  0  0
 11 12  1  0  0  0  0
 11 13  1  0  0  0  0
 11 14  1  0  0  0  0
 14 15  1  0  0  0  0
 14 16  1  0  0  0  0
 14 17  1  0  0  0  0
 17 18  2  0  0  0  0
 17 19  1  0  0  0  0
 19 20  1  0  0  0  0
 21 22  2  0  0  0  0
 21 23  1  0  0  0  0
 23 24  1  0  0  0  0
 23 25  1  0  0  0  0
 25 26  1  0  0  0  0
 25 27  1  0  0  0  0
 25 28  1  0  0  0  0
M  END
$$$$

  -OEChem-03222214033D

 28 27  0     1  0  0  0  0  0999 V2000
   -3.1056   -3.8288    1.6306 H   0  0  0  0  0  0  0  0  0  0  0  0
   -3.1678   -2.8034    1.2559 C   0  0  0  0  0  0  0  0  0  0  0  0
   -3.7457   -2.2028    1.9625 H   0  0  0  0  0  0  0  0  0  0  0  0
   -3.6810   -2.8105    0.2917 H   0  0  0  0  0  0  0  0  0  0  0  0
   -1.7770   -2.2187    1.1007 C   0  0  0  0  0  0  0  0  0  0  0  0
   -0.8017   -2.8498    1.4768 O   0  0  0  0  0  0  0  0  0  0  0  0
   -1.6185   -0.9706    0.5362 N   0  0  0  0  0  0  0  0  0  0  0  0
   -2.4539   -0.5020    0.1819 H   0  0  0  0  0  0  0  0  0  0  0  0
   -0.3335   -0.3050    0.2987 C   0  0  1  0  0  0  0  0  0  0  0  0
    0.4106   -0.7843    0.9429 H   0  0  0  0  0  0  0  0  0  0  0  0
    0.2201   -0.3898   -1.1581 C   0  0  0  0  0  0  0  0  0  0  0  0
    0.0531    0.5961   -1.6074 H   0  0  0  0  0  0  0  0  0  0  0  0
    1.3053   -0.5216   -1.0977 H   0  0  0  0  0  0  0  0  0  0  0  0
   -0.3275   -1.3937   -2.2156 C   0  0  0  0  0  0  0  0  0  0  0  0
   -0.1332   -0.9918   -3.2133 H   0  0  0  0  0  0  0  0  0  0  0  0
    0.2680   -2.3058   -2.1171 H   0  0  0  0  0  0  0  0  0  0  0  0
   -1.7860   -1.8456   -2.1789 C   0  0  0  0  0  0  0  0  0  0  0  0
   -2.6676   -1.0036   -2.1648 O   0  0  0  0  0  0  0  0  0  0  0  0
   -2.0359   -3.1727   -2.2179 O   0  0  0  0  0  0  0  0  0  0  0  0
   -3.0007   -3.2501   -2.2546 H   0  0  0  0  0  0  0  0  0  0  0  0
   -0.4008    1.1719    0.7464 C   0  0  0  0  0  0  0  0  0  0  0  0
   -1.3671    1.8656    0.4552 O   0  0  0  0  0  0  0  0  0  0  0  0
    0.6297    1.7266    1.4837 N   0  0  0  0  0  0  0  0  0  0  0  0
    1.3810    1.1102    1.7797 H   0  0  0  0  0  0  0  0  0  0  0  0
    0.6078    3.0990    1.9759 C   0  0  0  0  0  0  0  0  0  0  0  0
   -0.2356    3.2481    2.6584 H   0  0  0  0  0  0  0  0  0  0  0  0
    1.5335    3.3233    2.5145 H   0  0  0  0  0  0  0  0  0  0  0  0
    0.5147    3.8032    1.1423 H   0  0  0  0  0  0  0  0  0  0  0  0
  1  2  1  0  0  0  0
  2  3  1  0  0  0  0
  2  4  1  0  0  0  0
  2  5  1  0  0  0  0
  5  6  2  0  0  0  0
  5  7  1  0  0  0  0
  7  8  1  0  0  0  0
  7  9  1  0  0  0  0
  9 10  1  0  0  0  0
  9 11  1  0  0  0  0
  9 21  1  0  0  0  0
 11 12  1  0  0  0  0
 11 13  1  0  0  0  0
 11 14  1  0  0  0  0
 14 15  1  0  0  0  0
 14 16  1  0  0  0  0
 14 17  1  0  0  0  0
 17 18  2  0  0  0  0
 17 19  1  0  0  0  0
 19 20  1  0  0  0  0
 21 22  2  0  0  0  0
 21 23  1  0  0  0  0
 23 24  1  0  0  0  0
 23 25  1  0  0  0  0
 25 26  1  0  0  0  0
 25 27  1  0  0  0  0
 25 28  1  0  0  0  0
M  END
$$$$

  -OEChem-03222214033D

 28 27  0     1  0  0  0  0  0999 V2000
   -3.2612   -3.7502    1.5113 H   0  0  0  0  0  0  0  0  0  0  0  0
   -3.2627   -2.7778    1.0107 C   0  0  0  0  0  0  0  0  0  0  0  0
   -3.9087   -2.0954    1.5684 H   0  0  0  0  0  0  0  0  0  0  0  0
   -3.6608   -2.9017    0.0010 H   0  0  0  0  0  0  0  0  0  0  0  0
   -1.8536   -2.2201    0.9473 C   0  0  0  0  0  0  0  0  0  0  0  0
   -0.9133   -2.8824    1.3577 O   0  0  0  0  0  0  0  0  0  0  0  0
   -1.6353   -0.9666    0.4162 N   0  0  0  0  0  0  0  0  0  0  0  0
   -2.4427   -0.4500    0.0642 H   0  0  0  0  0  0  0  0  0  0  0  0
   -0.3294   -0.3064    0.3037 C   0  0  1  0  0  0  0  0  0  0  0  0
    0.3481   -0.7978    1.0092 H   0  0  0  0  0  0  0  0  0  0  0  0
    0.3453   -0.4048   -1.0969 C   0  0  0  0  0  0  0  0  0  0  0  0
    0.2393    0.5766   -1.5736 H   0  0  0  0  0  0  0  0  0  0  0  0
    1.4175   -0.5676   -0.9475 H   0  0  0  0  0  0  0  0  0  0  0  0
   -0.1597   -1.4294   -2.1499 C   0  0  0  0  0  0  0  0  0  0  0  0
    0.3061   -1.2058   -3.1128 H   0  0  0  0  0  0  0  0  0  0  0  0
    0.1964   -2.4151   -1.8371 H   0  0  0  0  0  0  0  0  0  0  0  0
   -1.6640   -1.5648   -2.3832 C   0  0  0  0  0  0  0  0  0  0  0  0
   -2.3516   -0.5604   -2.4333 O   0  0  0  0  0  0  0  0  0  0  0  0
   -2.1631   -2.8069   -2.5609 O   0  0  0  0  0  0  0  0  0  0  0  0
   -3.1034   -2.6743   -2.7534 H   0  0  0  0  0  0  0  0  0  0  0  0
   -0.4181    1.1665    0.7595 C   0  0  0  0  0  0  0  0  0  0  0  0
   -1.3669    1.8636    0.4232 O   0  0  0  0  0  0  0  0  0  0  0  0
    0.5495    1.7021    1.5906 N   0  0  0  0  0  0  0  0  0  0  0  0
    1.2839    1.0823    1.9198 H   0  0  0  0  0  0  0  0  0  0  0  0
    0.4893    3.0634    2.1100 C   0  0  0  0  0  0  0  0  0  0  0  0
   -0.4146    3.2045    2.7122 H   0  0  0  0  0  0  0  0  0  0  0  0
    1.3603    3.2674    2.7401 H   0  0  0  0  0  0  0  0  0  0  0  0
    0.4809    3.7868    1.2878 H   0  0  0  0  0  0  0  0  0  0  0  0
  1  2  1  0  0  0  0
  2  3  1  0  0  0  0
  2  4  1  0  0  0  0
  2  5  1  0  0  0  0
  5  6  2  0  0  0  0
  5  7  1  0  0  0  0
  7  8  1  0  0  0  0
  7  9  1  0  0  0  0
  9 10  1  0  0  0  0
  9 11  1  0  0  0  0
  9 21  1  0  0  0  0
 11 12  1  0  0  0  0
 11 13  1  0  0  0  0
 11 14  1  0  0  0  0
 14 15  1  0  0  0  0
 14 16  1  0  0  0  0
 14 17  1  0  0  0  0
 17 18  2  0  0  0  0
 17 19  1  0  0  0  0
 19 20  1  0  0  0  0
 21 22  2  0  0  0  0
 21 23  1  0  0  0  0
 23 24  1  0  0  0  0
 23 25  1  0  0  0  0
 25 26  1  0  0  0  0
 25 27  1  0  0  0  0
 25 28  1  0  0  0  0
M  END
$$$$

  -OEChem-03222214033D

 28 27  0     1  0  0  0  0  0999 V2000
   -3.2509   -3.7481    1.4219 H   0  0  0  0  0  0  0  0  0  0  0  0
   -3.2459   -2.7737    0.9258 C   0  0  0  0  0  0  0  0  0  0  0  0
   -3.8850   -2.0888    1.4884 H   0  0  0  0  0  0  0  0  0  0  0  0
   -3.6466   -2.8892   -0.0841 H   0  0  0  0  0  0  0  0  0  0  0  0
   -1.8327   -2.2281    0.8606 C   0  0  0  0  0  0  0  0  0  0  0  0
   -0.8941   -2.9028    1.2540 O   0  0  0  0  0  0  0  0  0  0  0  0
   -1.6066   -0.9736    0.3358 N   0  0  0  0  0  0  0  0  0  0  0  0
   -2.4171   -0.4252    0.0463 H   0  0  0  0  0  0  0  0  0  0  0  0
   -0.3013   -0.3029    0.2665 C   0  0  1  0  0  0  0  0  0  0  0  0
    0.3568   -0.7884    0.9946 H   0  0  0  0  0  0  0  0  0  0  0  0
    0.4018   -0.4185   -1.1146 C   0  0  0  0  0  0  0  0  0  0  0  0
    0.3325    0.5528   -1.6183 H   0  0  0  0  0  0  0  0  0  0  0  0
    1.4651   -0.6107   -0.9401 H   0  0  0  0  0  0  0  0  0  0  0  0
   -0.1299   -1.4800   -2.1108 C   0  0  0  0  0  0  0  0  0  0  0  0
    0.4873   -1.4605   -3.0121 H   0  0  0  0  0  0  0  0  0  0  0  0
   -0.0121   -2.4673   -1.6547 H   0  0  0  0  0  0  0  0  0  0  0  0
   -1.5880   -1.3382   -2.5491 C   0  0  0  0  0  0  0  0  0  0  0  0
   -2.0648   -0.2268   -2.6897 O   0  0  0  0  0  0  0  0  0  0  0  0
   -2.2856   -2.4714   -2.7785 O   0  0  0  0  0  0  0  0  0  0  0  0
   -3.1545   -2.1699   -3.0848 H   0  0  0  0  0  0  0  0  0  0  0  0
   -0.4112    1.1698    0.7158 C   0  0  0  0  0  0  0  0  0  0  0  0
   -1.3784    1.8451    0.3876 O   0  0  0  0  0  0  0  0  0  0  0  0
    0.5263    1.7118    1.5765 N   0  0  0  0  0  0  0  0  0  0  0  0
    1.2700    1.1040    1.9074 H   0  0  0  0  0  0  0  0  0  0  0  0
    0.4224    3.0611    2.1194 C   0  0  0  0  0  0  0  0  0  0  0  0
   -0.4810    3.1588    2.7306 H   0  0  0  0  0  0  0  0  0  0  0  0
    1.2910    3.2860    2.7457 H   0  0  0  0  0  0  0  0  0  0  0  0
    0.3808    3.7980    1.3102 H   0  0  0  0  0  0  0  0  0  0  0  0
  1  2  1  0  0  0  0
  2  3  1  0  0  0  0
  2  4  1  0  0  0  0
  2  5  1  0  0  0  0
  5  6  2  0  0  0  0
  5  7  1  0  0  0  0
  7  8  1  0  0  0  0
  7  9  1  0  0  0  0
  9 10  1  0  0  0  0
  9 11  1  0  0  0  0
  9 21  1  0  0  0  0
 11 12  1  0  0  0  0
 11 13  1  0  0  0  0
 11 14  1  0  0  0  0
 14 15  1  0  0  0  0
 14 16  1  0  0  0  0
 14 17  1  0  0  0  0
 17 18  2  0  0  0  0
 17 19  1  0  0  0  0
 19 20  1  0  0  0  0
 21 22  2  0  0  0  0
 21 23  1  0  0  0  0
 23 24  1  0  0  0  0
 23 25  1  0  0  0  0
 25 26  1  0  0  0  0
 25 27  1  0  0  0  0
 25 28  1  0  0  0  0
M  END
$$$$

  -OEChem-03222214033D

 28 27  0     1  0  0  0  0  0999 V2000
   -3.2390   -3.7814    1.3788 H   0  0  0  0  0  0  0  0  0  0  0  0
   -3.2323   -2.7956    0.9057 C   0  0  0  0  0  0  0  0  0  0  0  0
   -3.9089   -2.1366    1.4550 H   0  0  0  0  0  0  0  0  0  0  0  0
   -3.5874   -2.8941   -0.1230 H   0  0  0  0  0  0  0  0  0  0  0  0
   -1.8293   -2.2199    0.9150 C   0  0  0  0  0  0  0  0  0  0  0  0
   -0.9012   -2.8698    1.3702 O   0  0  0  0  0  0  0  0  0  0  0  0
   -1.5979   -0.9750    0.3724 N   0  0  0  0  0  0  0  0  0  0  0  0
   -2.3901   -0.4826   -0.0445 H   0  0  0  0  0  0  0  0  0  0  0  0
   -0.2966   -0.2964    0.2956 C   0  0  1  0  0  0  0  0  0  0  0  0
    0.3691   -0.7717    1.0233 H   0  0  0  0  0  0  0  0  0  0  0  0
    0.3794   -0.4338   -1.0957 C   0  0  0  0  0  0  0  0  0  0  0  0
    0.3209    0.5275   -1.6193 H   0  0  0  0  0  0  0  0  0  0  0  0
    1.4415   -0.6410   -0.9310 H   0  0  0  0  0  0  0  0  0  0  0  0
   -0.1881   -1.5197   -2.0445 C   0  0  0  0  0  0  0  0  0  0  0  0
    0.5372   -1.6758   -2.8470 H   0  0  0  0  0  0  0  0  0  0  0  0
   -0.2764   -2.4664   -1.5051 H   0  0  0  0  0  0  0  0  0  0  0  0
   -1.5276   -1.2153   -2.7209 C   0  0  0  0  0  0  0  0  0  0  0  0
   -2.1744   -0.2311   -2.4104 O   0  0  0  0  0  0  0  0  0  0  0  0
   -1.9376   -2.0941   -3.6595 O   0  0  0  0  0  0  0  0  0  0  0  0
   -2.7780   -1.7373   -3.9858 H   0  0  0  0  0  0  0  0  0  0  0  0
   -0.4005    1.1859    0.7171 C   0  0  0  0  0  0  0  0  0  0  0  0
   -1.3447    1.8742    0.3520 O   0  0  0  0  0  0  0  0  0  0  0  0
    0.5406    1.7377    1.5680 N   0  0  0  0  0  0  0  0  0  0  0  0
    1.2676    1.1257    1.9266 H   0  0  0  0  0  0  0  0  0  0  0  0
    0.4521    3.1014    2.0773 C   0  0  0  0  0  0  0  0  0  0  0  0
   -0.4631    3.2318    2.6645 H   0  0  0  0  0  0  0  0  0  0  0  0
    1.3101    3.3230    2.7193 H   0  0  0  0  0  0  0  0  0  0  0  0
    0.4455    3.8201    1.2509 H   0  0  0  0  0  0  0  0  0  0  0  0
  1  2  1  0  0  0  0
  2  3  1  0  0  0  0
  2  4  1  0  0  0  0
  2  5  1  0  0  0  0
  5  6  2  0  0  0  0
  5  7  1  0  0  0  0
  7  8  1  0  0  0  0
  7  9  1  0  0  0  0
  9 10  1  0  0  0  0
  9 11  1  0  0  0  0
  9 21  1  0  0  0  0
 11 12  1  0  0  0  0
 11 13  1  0  0  0  0
 11 14  1  0  0  0  0
 14 15  1  0  0  0  0
 14 16  1  0  0  0  0
 14 17  1  0  0  0  0
 17 18  2  0  0  0  0
 17 19  1  0  0  0  0
 19 20  1  0  0  0  0
 21 22  2  0  0  0  0
 21 23  1  0  0  0  0
 23 24  1  0  0  0  0
 23 25  1  0  0  0  0
 25 26  1  0  0  0  0
 25 27  1  0  0  0  0
 25 28  1  0  0  0  0
M  END
$$$$

  -OEChem-03222214033D

 28 27  0     1  0  0  0  0  0999 V2000
   -3.2411   -3.8308    1.4614 H   0  0  0  0  0  0  0  0  0  0  0  0
   -3.2390   -2.8448    0.9889 C   0  0  0  0  0  0  0  0  0  0  0  0
   -3.9480   -2.1997    1.5131 H   0  0  0  0  0  0  0  0  0  0  0  0
   -3.5558   -2.9511   -0.0519 H   0  0  0  0  0  0  0  0  0  0  0  0
   -1.8500   -2.2391    1.0455 C   0  0  0  0  0  0  0  0  0  0  0  0
   -0.9447   -2.8247    1.6193 O   0  0  0  0  0  0  0  0  0  0  0  0
   -1.6035   -1.0386    0.4151 N   0  0  0  0  0  0  0  0  0  0  0  0
   -2.3732   -0.6307   -0.1175 H   0  0  0  0  0  0  0  0  0  0  0  0
   -0.2898   -0.3827    0.3089 C   0  0  1  0  0  0  0  0  0  0  0  0
    0.3808   -0.8175    1.0573 H   0  0  0  0  0  0  0  0  0  0  0  0
    0.3605   -0.5832   -1.0880 C   0  0  0  0  0  0  0  0  0  0  0  0
    0.3399    0.3584   -1.6500 H   0  0  0  0  0  0  0  0  0  0  0  0
    1.4151   -0.8272   -0.9248 H   0  0  0  0  0  0  0  0  0  0  0  0
   -0.2584   -1.6923   -1.9693 C   0  0  0  0  0  0  0  0  0  0  0  0
    0.5133   -2.0648   -2.6479 H   0  0  0  0  0  0  0  0  0  0  0  0
   -0.5922   -2.5498   -1.3806 H   0  0  0  0  0  0  0  0  0  0  0  0
   -1.3881   -1.1532   -2.8385 C   0  0  0  0  0  0  0  0  0  0  0  0
   -2.5363   -1.3286   -2.4660 O   0  0  0  0  0  0  0  0  0  0  0  0
   -1.0650   -0.4945   -3.9723 O   0  0  0  0  0  0  0  0  0  0  0  0
   -1.9121   -0.2129   -4.3505 H   0  0  0  0  0  0  0  0  0  0  0  0
   -0.3987    1.1242    0.6237 C   0  0  0  0  0  0  0  0  0  0  0  0
   -1.2928    1.7940    0.1211 O   0  0  0  0  0  0  0  0  0  0  0  0
    0.5249    1.7379    1.4501 N   0  0  0  0  0  0  0  0  0  0  0  0
    1.2094    1.1451    1.9107 H   0  0  0  0  0  0  0  0  0  0  0  0
    0.4476    3.1455    1.8231 C   0  0  0  0  0  0  0  0  0  0  0  0
   -0.4723    3.3431    2.3834 H   0  0  0  0  0  0  0  0  0  0  0  0
    1.3015    3.4186    2.4505 H   0  0  0  0  0  0  0  0  0  0  0  0
    0.4593    3.7808    0.9311 H   0  0  0  0  0  0  0  0  0  0  0  0
  1  2  1  0  0  0  0
  2  3  1  0  0  0  0
  2  4  1  0  0  0  0
  2  5  1  0  0  0  0
  5  6  2  0  0  0  0
  5  7  1  0  0  0  0
  7  8  1  0  0  0  0
  7  9  1  0  0  0  0
  9 10  1  0  0  0  0
  9 11  1  0  0  0  0
  9 21  1  0  0  0  0
 11 12  1  0  0  0  0
 11 13  1  0  0  0  0
 11 14  1  0  0  0  0
 14 15  1  0  0  0  0
 14 16  1  0  0  0  0
 14 17  1  0  0  0  0
 17 18  2  0  0  0  0
 17 19  1  0  0  0  0
 19 20  1  0  0  0  0
 21 22  2  0  0  0  0
 21 23  1  0  0  0  0
 23 24  1  0  0  0  0
 23 25  1  0  0  0  0
 25 26  1  0  0  0  0
 25 27  1  0  0  0  0
 25 28  1  0  0  0  0
M  END
$$$$

  -OEChem-03222214033D

 28 27  0     1  0  0  0  0  0999 V2000
   -3.2921   -3.7849    1.5500 H   0  0  0  0  0  0  0  0  0  0  0  0
   -3.2844   -2.7990    1.0771 C   0  0  0  0  0  0  0  0  0  0  0  0
   -3.9202   -2.1249    1.6562 H   0  0  0  0  0  0  0  0  0  0  0  0
   -3.6882   -2.8899    0.0654 H   0  0  0  0  0  0  0  0  0  0  0  0
   -1.8695   -2.2555    1.0224 C   0  0  0  0  0  0  0  0  0  0  0  0
   -0.9462   -2.8915    1.5059 O   0  0  0  0  0  0  0  0  0  0  0  0
   -1.6235   -1.0487    0.4029 N   0  0  0  0  0  0  0  0  0  0  0  0
   -2.4233   -0.5491    0.0146 H   0  0  0  0  0  0  0  0  0  0  0  0
   -0.3073   -0.4000    0.2860 C   0  0  1  0  0  0  0  0  0  0  0  0
    0.3642   -0.8456    1.0273 H   0  0  0  0  0  0  0  0  0  0  0  0
    0.3444   -0.5862   -1.1120 C   0  0  0  0  0  0  0  0  0  0  0  0
    0.3260    0.3668   -1.6544 H   0  0  0  0  0  0  0  0  0  0  0  0
    1.4001   -0.8265   -0.9486 H   0  0  0  0  0  0  0  0  0  0  0  0
   -0.2606   -1.6836   -2.0230 C   0  0  0  0  0  0  0  0  0  0  0  0
    0.5636   -2.2123   -2.5087 H   0  0  0  0  0  0  0  0  0  0  0  0
   -0.8200   -2.4419   -1.4736 H   0  0  0  0  0  0  0  0  0  0  0  0
   -1.1112   -1.0901   -3.1373 C   0  0  0  0  0  0  0  0  0  0  0  0
   -2.3218   -1.1969   -3.0518 O   0  0  0  0  0  0  0  0  0  0  0  0
   -0.4887   -0.4712   -4.1637 O   0  0  0  0  0  0  0  0  0  0  0  0
   -1.2046   -0.1585   -4.7379 H   0  0  0  0  0  0  0  0  0  0  0  0
   -0.4085    1.1028    0.6214 C   0  0  0  0  0  0  0  0  0  0  0  0
   -1.3271    1.7718    0.1639 O   0  0  0  0  0  0  0  0  0  0  0  0
    0.5262    1.7065    1.4425 N   0  0  0  0  0  0  0  0  0  0  0  0
    1.2414    1.1162    1.8576 H   0  0  0  0  0  0  0  0  0  0  0  0
    0.4639    3.1133    1.8210 C   0  0  0  0  0  0  0  0  0  0  0  0
   -0.4664    3.3249    2.3588 H   0  0  0  0  0  0  0  0  0  0  0  0
    1.3056    3.3685    2.4718 H   0  0  0  0  0  0  0  0  0  0  0  0
    0.5096    3.7516    0.9322 H   0  0  0  0  0  0  0  0  0  0  0  0
  1  2  1  0  0  0  0
  2  3  1  0  0  0  0
  2  4  1  0  0  0  0
  2  5  1  0  0  0  0
  5  6  2  0  0  0  0
  5  7  1  0  0  0  0
  7  8  1  0  0  0  0
  7  9  1  0  0  0  0
  9 10  1  0  0  0  0
  9 11  1  0  0  0  0
  9 21  1  0  0  0  0
 11 12  1  0  0  0  0
 11 13  1  0  0  0  0
 11 14  1  0  0  0  0
 14 15  1  0  0  0  0
 14 16  1  0  0  0  0
 14 17  1  0  0  0  0
 17 18  2  0  0  0  0
 17 19  1  0  0  0  0
 19 20  1  0  0  0  0
 21 22  2  0  0  0  0
 21 23  1  0  0  0  0
 23 24  1  0  0  0  0
 23 25  1  0  0  0  0
 25 26  1  0  0  0  0
 25 27  1  0  0  0  0
 25 28  1  0  0  0  0
M  END
$$$$

  -OEChem-03222214033D

 28 27  0     1  0  0  0  0  0999 V2000
   -3.2181   -3.8332    1.4441 H   0  0  0  0  0  0  0  0  0  0  0  0
   -3.2228   -2.8427    0.9805 C   0  0  0  0  0  0  0  0  0  0  0  0
   -3.8438   -2.1751    1.5827 H   0  0  0  0  0  0  0  0  0  0  0  0
   -3.6528   -2.9242   -0.0207 H   0  0  0  0  0  0  0  0  0  0  0  0
   -1.8093   -2.2994    0.8942 C   0  0  0  0  0  0  0  0  0  0  0  0
   -0.8739   -2.9498    1.3324 O   0  0  0  0  0  0  0  0  0  0  0  0
   -1.5808   -1.0728    0.3065 N   0  0  0  0  0  0  0  0  0  0  0  0
   -2.3951   -0.5330    0.0144 H   0  0  0  0  0  0  0  0  0  0  0  0
   -0.2794   -0.3874    0.2564 C   0  0  1  0  0  0  0  0  0  0  0  0
    0.3650   -0.8233    1.0271 H   0  0  0  0  0  0  0  0  0  0  0  0
    0.4676   -0.5268   -1.0998 C   0  0  0  0  0  0  0  0  0  0  0  0
    0.4254    0.4398   -1.6162 H   0  0  0  0  0  0  0  0  0  0  0  0
    1.5253   -0.7101   -0.8841 H   0  0  0  0  0  0  0  0  0  0  0  0
   -0.0201   -1.6217   -2.0875 C   0  0  0  0  0  0  0  0  0  0  0  0
    0.8086   -2.3056   -2.2901 H   0  0  0  0  0  0  0  0  0  0  0  0
   -0.8276   -2.2341   -1.6885 H   0  0  0  0  0  0  0  0  0  0  0  0
   -0.4721   -1.0298   -3.4166 C   0  0  0  0  0  0  0  0  0  0  0  0
    0.3730   -0.5791   -4.1690 O   0  0  0  0  0  0  0  0  0  0  0  0
   -1.7943   -1.0169   -3.6911 O   0  0  0  0  0  0  0  0  0  0  0  0
   -1.8649   -0.5825   -4.5549 H   0  0  0  0  0  0  0  0  0  0  0  0
   -0.4530    1.1028    0.6188 C   0  0  0  0  0  0  0  0  0  0  0  0
   -1.4107    1.7280    0.1785 O   0  0  0  0  0  0  0  0  0  0  0  0
    0.4204    1.7249    1.4916 N   0  0  0  0  0  0  0  0  0  0  0  0
    1.1675    1.1650    1.8924 H   0  0  0  0  0  0  0  0  0  0  0  0
    0.2638    3.1080    1.9252 C   0  0  0  0  0  0  0  0  0  0  0  0
   -0.6800    3.2353    2.4658 H   0  0  0  0  0  0  0  0  0  0  0  0
    1.0849    3.3913    2.5907 H   0  0  0  0  0  0  0  0  0  0  0  0
    0.2700    3.7835    1.0631 H   0  0  0  0  0  0  0  0  0  0  0  0
  1  2  1  0  0  0  0
  2  3  1  0  0  0  0
  2  4  1  0  0  0  0
  2  5  1  0  0  0  0
  5  6  2  0  0  0  0
  5  7  1  0  0  0  0
  7  8  1  0  0  0  0
  7  9  1  0  0  0  0
  9 10  1  0  0  0  0
  9 11  1  0  0  0  0
  9 21  1  0  0  0  0
 11 12  1  0  0  0  0
 11 13  1  0  0  0  0
 11 14  1  0  0  0  0
 14 15  1  0  0  0  0
 14 16  1  0  0  0  0
 14 17  1  0  0  0  0
 17 18  2  0  0  0  0
 17 19  1  0  0  0  0
 19 20  1  0  0  0  0
 21 22  2  0  0  0  0
 21 23  1  0  0  0  0
 23 24  1  0  0  0  0
 23 25  1  0  0  0  0
 25 26  1  0  0  0  0
 25 27  1  0  0  0  0
 25 28  1  0  0  0  0
M  END
$$$$

  -OEChem-03222214033D

 28 27  0     1  0  0  0  0  0999 V2000
   -3.2358   -3.7955    1.4950 H   0  0  0  0  0  0  0  0  0  0  0  0
   -3.2398   -2.8066    1.0281 C   0  0  0  0  0  0  0  0  0  0  0  0
   -3.8289   -2.1262    1.6479 H   0  0  0  0  0  0  0  0  0  0  0  0
   -3.7041   -2.8848    0.0420 H   0  0  0  0  0  0  0  0  0  0  0  0
   -1.8219   -2.2856    0.8922 C   0  0  0  0  0  0  0  0  0  0  0  0
   -0.8810   -2.9543    1.2886 O   0  0  0  0  0  0  0  0  0  0  0  0
   -1.5983   -1.0564    0.3083 N   0  0  0  0  0  0  0  0  0  0  0  0
   -2.4162   -0.4950    0.0730 H   0  0  0  0  0  0  0  0  0  0  0  0
   -0.2940   -0.3779    0.2471 C   0  0  1  0  0  0  0  0  0  0  0  0
    0.3494   -0.8192    1.0155 H   0  0  0  0  0  0  0  0  0  0  0  0
    0.4551   -0.5314   -1.1067 C   0  0  0  0  0  0  0  0  0  0  0  0
    0.3756    0.4303   -1.6275 H   0  0  0  0  0  0  0  0  0  0  0  0
    1.5208   -0.6859   -0.9087 H   0  0  0  0  0  0  0  0  0  0  0  0
   -0.0320   -1.6331   -2.0891 C   0  0  0  0  0  0  0  0  0  0  0  0
    0.6550   -2.4825   -2.0522 H   0  0  0  0  0  0  0  0  0  0  0  0
   -1.0185   -2.0147   -1.8287 H   0  0  0  0  0  0  0  0  0  0  0  0
   -0.1271   -1.1306   -3.5263 C   0  0  0  0  0  0  0  0  0  0  0  0
    0.8598   -0.6294   -4.0354 O   0  0  0  0  0  0  0  0  0  0  0  0
   -1.3068   -1.2635   -4.1704 O   0  0  0  0  0  0  0  0  0  0  0  0
   -1.1566   -0.8800   -5.0480 H   0  0  0  0  0  0  0  0  0  0  0  0
   -0.4518    1.1116    0.6197 C   0  0  0  0  0  0  0  0  0  0  0  0
   -1.4192    1.7410    0.2076 O   0  0  0  0  0  0  0  0  0  0  0  0
    0.4373    1.7215    1.4853 N   0  0  0  0  0  0  0  0  0  0  0  0
    1.1928    1.1563    1.8626 H   0  0  0  0  0  0  0  0  0  0  0  0
    0.2900    3.0986    1.9417 C   0  0  0  0  0  0  0  0  0  0  0  0
   -0.6426    3.2187    2.5031 H   0  0  0  0  0  0  0  0  0  0  0  0
    1.1245    3.3727    2.5944 H   0  0  0  0  0  0  0  0  0  0  0  0
    0.2788    3.7862    1.0893 H   0  0  0  0  0  0  0  0  0  0  0  0
  1  2  1  0  0  0  0
  2  3  1  0  0  0  0
  2  4  1  0  0  0  0
  2  5  1  0  0  0  0
  5  6  2  0  0  0  0
  5  7  1  0  0  0  0
  7  8  1  0  0  0  0
  7  9  1  0  0  0  0
  9 10  1  0  0  0  0
  9 11  1  0  0  0  0
  9 21  1  0  0  0  0
 11 12  1  0  0  0  0
 11 13  1  0  0  0  0
 11 14  1  0  0  0  0
 14 15  1  0  0  0  0
 14 16  1  0  0  0  0
 14 17  1  0  0  0  0
 17 18  2  0  0  0  0
 17 19  1  0  0  0  0
 19 20  1  0  0  0  0
 21 22  2  0  0  0  0
 21 23  1  0  0  0  0
 23 24  1  0  0  0  0
 23 25  1  0  0  0  0
 25 26  1  0  0  0  0
 25 27  1  0  0  0  0
 25 28  1  0  0  0  0
M  END
$$$$

  -OEChem-03222214033D

 28 27  0     1  0  0  0  0  0999 V2000
   -3.2448   -3.7675    1.5088 H   0  0  0  0  0  0  0  0  0  0  0  0
   -3.2473   -2.7873    1.0239 C   0  0  0  0  0  0  0  0  0  0  0  0
   -3.8324   -2.0945    1.6334 H   0  0  0  0  0  0  0  0  0  0  0  0
   -3.7152   -2.8815    0.0409 H   0  0  0  0  0  0  0  0  0  0  0  0
   -1.8278   -2.2744    0.8749 C   0  0  0  0  0  0  0  0  0  0  0  0
   -0.8871   -2.9554    1.2507 O   0  0  0  0  0  0  0  0  0  0  0  0
   -1.6016   -1.0408    0.3014 N   0  0  0  0  0  0  0  0  0  0  0  0
   -2.4179   -0.4670    0.0917 H   0  0  0  0  0  0  0  0  0  0  0  0
   -0.2935   -0.3685    0.2460 C   0  0  1  0  0  0  0  0  0  0  0  0
    0.3479   -0.8201    1.0100 H   0  0  0  0  0  0  0  0  0  0  0  0
    0.4499   -0.5225   -1.1086 C   0  0  0  0  0  0  0  0  0  0  0  0
    0.3613    0.4367   -1.6327 H   0  0  0  0  0  0  0  0  0  0  0  0
    1.5172   -0.6816   -0.9219 H   0  0  0  0  0  0  0  0  0  0  0  0
   -0.0638   -1.6209   -2.0764 C   0  0  0  0  0  0  0  0  0  0  0  0
    0.4127   -2.5760   -1.8416 H   0  0  0  0  0  0  0  0  0  0  0  0
   -1.1409   -1.7583   -1.9766 H   0  0  0  0  0  0  0  0  0  0  0  0
    0.1673   -1.2759   -3.5459 C   0  0  0  0  0  0  0  0  0  0  0  0
    1.1934   -0.7020   -3.8674 O   0  0  0  0  0  0  0  0  0  0  0  0
   -0.7844   -1.6392   -4.4326 O   0  0  0  0  0  0  0  0  0  0  0  0
   -0.4511   -1.3401   -5.2924 H   0  0  0  0  0  0  0  0  0  0  0  0
   -0.4400    1.1185    0.6314 C   0  0  0  0  0  0  0  0  0  0  0  0
   -1.4071    1.7553    0.2300 O   0  0  0  0  0  0  0  0  0  0  0  0
    0.4532    1.7159    1.5014 N   0  0  0  0  0  0  0  0  0  0  0  0
    1.2154    1.1483    1.8611 H   0  0  0  0  0  0  0  0  0  0  0  0
    0.3206    3.0936    1.9602 C   0  0  0  0  0  0  0  0  0  0  0  0
   -0.6215    3.2282    2.5021 H   0  0  0  0  0  0  0  0  0  0  0  0
    1.1454    3.3504    2.6320 H   0  0  0  0  0  0  0  0  0  0  0  0
    0.3397    3.7842    1.1103 H   0  0  0  0  0  0  0  0  0  0  0  0
  1  2  1  0  0  0  0
  2  3  1  0  0  0  0
  2  4  1  0  0  0  0
  2  5  1  0  0  0  0
  5  6  2  0  0  0  0
  5  7  1  0  0  0  0
  7  8  1  0  0  0  0
  7  9  1  0  0  0  0
  9 10  1  0  0  0  0
  9 11  1  0  0  0  0
  9 21  1  0  0  0  0
 11 12  1  0  0  0  0
 11 13  1  0  0  0  0
 11 14  1  0  0  0  0
 14 15  1  0  0  0  0
 14 16  1  0  0  0  0
 14 17  1  0  0  0  0
 17 18  2  0  0  0  0
 17 19  1  0  0  0  0
 19 20  1  0  0  0  0
 21 22  2  0  0  0  0
 21 23  1  0  0  0  0
 23 24  1  0  0  0  0
 23 25  1  0  0  0  0
 25 26  1  0  0  0  0
 25 27  1  0  0  0  0
 25 28  1  0  0  0  0
M  END
$$$$

  -OEChem-03222214033D

 28 27  0     1  0  0  0  0  0999 V2000
   -3.2580   -3.7541    1.4766 H   0  0  0  0  0  0  0  0  0  0  0  0
   -3.2521   -2.7740    0.9915 C   0  0  0  0  0  0  0  0  0  0  0  0
   -3.8398   -2.0789    1.5960 H   0  0  0  0  0  0  0  0  0  0  0  0
   -3.7122   -2.8668    0.0047 H   0  0  0  0  0  0  0  0  0  0  0  0
   -1.8293   -2.2664    0.8537 C   0  0  0  0  0  0  0  0  0  0  0  0
   -0.8936   -2.9532    1.2310 O   0  0  0  0  0  0  0  0  0  0  0  0
   -1.5950   -1.0300    0.2897 N   0  0  0  0  0  0  0  0  0  0  0  0
   -2.4085   -0.4511    0.0838 H   0  0  0  0  0  0  0  0  0  0  0  0
   -0.2846   -0.3596    0.2473 C   0  0  1  0  0  0  0  0  0  0  0  0
    0.3541   -0.8190    1.0091 H   0  0  0  0  0  0  0  0  0  0  0  0
    0.4529   -0.5079   -1.1089 C   0  0  0  0  0  0  0  0  0  0  0  0
    0.3773    0.4487   -1.6397 H   0  0  0  0  0  0  0  0  0  0  0  0
    1.5173   -0.6874   -0.9228 H   0  0  0  0  0  0  0  0  0  0  0  0
   -0.0912   -1.6025   -2.0582 C   0  0  0  0  0  0  0  0  0  0  0  0
    0.1672   -2.5914   -1.6702 H   0  0  0  0  0  0  0  0  0  0  0  0
   -1.1796   -1.5382   -2.1195 H   0  0  0  0  0  0  0  0  0  0  0  0
    0.4202   -1.4722   -3.4920 C   0  0  0  0  0  0  0  0  0  0  0  0
    1.4592   -0.8733   -3.7114 O   0  0  0  0  0  0  0  0  0  0  0  0
   -0.3171   -2.0494   -4.4646 O   0  0  0  0  0  0  0  0  0  0  0  0
    0.1655   -1.8666   -5.2853 H   0  0  0  0  0  0  0  0  0  0  0  0
   -0.4257    1.1255    0.6400 C   0  0  0  0  0  0  0  0  0  0  0  0
   -1.3903    1.7678    0.2410 O   0  0  0  0  0  0  0  0  0  0  0  0
    0.4659    1.7128    1.5184 N   0  0  0  0  0  0  0  0  0  0  0  0
    1.2337    1.1442    1.8646 H   0  0  0  0  0  0  0  0  0  0  0  0
    0.3424    3.0905    1.9795 C   0  0  0  0  0  0  0  0  0  0  0  0
   -0.6047    3.2336    2.5105 H   0  0  0  0  0  0  0  0  0  0  0  0
    1.1615    3.3367    2.6621 H   0  0  0  0  0  0  0  0  0  0  0  0
    0.3791    3.7826    1.1316 H   0  0  0  0  0  0  0  0  0  0  0  0
  1  2  1  0  0  0  0
  2  3  1  0  0  0  0
  2  4  1  0  0  0  0
  2  5  1  0  0  0  0
  5  6  2  0  0  0  0
  5  7  1  0  0  0  0
  7  8  1  0  0  0  0
  7  9  1  0  0  0  0
  9 10  1  0  0  0  0
  9 11  1  0  0  0  0
  9 21  1  0  0  0  0
 11 12  1  0  0  0  0
 11 13  1  0  0  0  0
 11 14  1  0  0  0  0
 14 15  1  0  0  0  0
 14 16  1  0  0  0  0
 14 17  1  0  0  0  0
 17 18  2  0  0  0  0
 17 19  1  0  0  0  0
 19 20  1  0  0  0  0
 21 22  2  0  0  0  0
 21 23  1  0  0  0  0
 23 24  1  0  0  0  0
 23 25  1  0  0  0  0
 25 26  1  0  0  0  0
 25 27  1  0  0  0  0
 25 28  1  0  0  0  0
M  END
$$$$

  -OEChem-03222214033D

 28 27  0     1  0  0  0  0  0999 V2000
   -3.2683   -3.7377    1.4755 H   0  0  0  0  0  0  0  0  0  0  0  0
   -3.2517   -2.7644    0.9771 C   0  0  0  0  0  0  0  0  0  0  0  0
   -3.8450   -2.0589    1.5640 H   0  0  0  0  0  0  0  0  0  0  0  0
   -3.6978   -2.8685   -0.0148 H   0  0  0  0  0  0  0  0  0  0  0  0
   -1.8248   -2.2651    0.8519 C   0  0  0  0  0  0  0  0  0  0  0  0
   -0.8966   -2.9569    1.2378 O   0  0  0  0  0  0  0  0  0  0  0  0
   -1.5781   -1.0303    0.2904 N   0  0  0  0  0  0  0  0  0  0  0  0
   -2.3851   -0.4428    0.0837 H   0  0  0  0  0  0  0  0  0  0  0  0
   -0.2603   -0.3732    0.2568 C   0  0  1  0  0  0  0  0  0  0  0  0
    0.3856   -0.8345    1.0116 H   0  0  0  0  0  0  0  0  0  0  0  0
    0.4545   -0.4985   -1.1141 C   0  0  0  0  0  0  0  0  0  0  0  0
    0.6746    0.5020   -1.5046 H   0  0  0  0  0  0  0  0  0  0  0  0
    1.4163   -0.9975   -0.9518 H   0  0  0  0  0  0  0  0  0  0  0  0
   -0.3253   -1.2798   -2.1955 C   0  0  0  0  0  0  0  0  0  0  0  0
   -0.5201   -2.2960   -1.8428 H   0  0  0  0  0  0  0  0  0  0  0  0
   -1.2858   -0.7909   -2.3773 H   0  0  0  0  0  0  0  0  0  0  0  0
    0.4066   -1.3845   -3.5332 C   0  0  0  0  0  0  0  0  0  0  0  0
    1.5173   -0.8989   -3.6640 O   0  0  0  0  0  0  0  0  0  0  0  0
   -0.2370   -2.0273   -4.5303 O   0  0  0  0  0  0  0  0  0  0  0  0
    0.3727   -1.9931   -5.2833 H   0  0  0  0  0  0  0  0  0  0  0  0
   -0.4106    1.1102    0.6539 C   0  0  0  0  0  0  0  0  0  0  0  0
   -1.3662    1.7545    0.2361 O   0  0  0  0  0  0  0  0  0  0  0  0
    0.4695    1.6987    1.5426 N   0  0  0  0  0  0  0  0  0  0  0  0
    1.2328    1.1304    1.8991 H   0  0  0  0  0  0  0  0  0  0  0  0
    0.3484    3.0814    1.9893 C   0  0  0  0  0  0  0  0  0  0  0  0
   -0.6108    3.2386    2.4939 H   0  0  0  0  0  0  0  0  0  0  0  0
    1.1520    3.3244    2.6912 H   0  0  0  0  0  0  0  0  0  0  0  0
    0.4143    3.7666    1.1375 H   0  0  0  0  0  0  0  0  0  0  0  0
  1  2  1  0  0  0  0
  2  3  1  0  0  0  0
  2  4  1  0  0  0  0
  2  5  1  0  0  0  0
  5  6  2  0  0  0  0
  5  7  1  0  0  0  0
  7  8  1  0  0  0  0
  7  9  1  0  0  0  0
  9 10  1  0  0  0  0
  9 11  1  0  0  0  0
  9 21  1  0  0  0  0
 11 12  1  0  0  0  0
 11 13  1  0  0  0  0
 11 14  1  0  0  0  0
 14 15  1  0  0  0  0
 14 16  1  0  0  0  0
 14 17  1  0  0  0  0
 17 18  2  0  0  0  0
 17 19  1  0  0  0  0
 19 20  1  0  0  0  0
 21 22  2  0  0  0  0
 21 23  1  0  0  0  0
 23 24  1  0  0  0  0
 23 25  1  0  0  0  0
 25 26  1  0  0  0  0
 25 27  1  0  0  0  0
 25 28  1  0  0  0  0
M  END
$$$$

  -OEChem-03222214033D

 28 27  0     1  0  0  0  0  0999 V2000
   -3.2921   -3.7258    1.4788 H   0  0  0  0  0  0  0  0  0  0  0  0
   -3.2717   -2.7535    0.9786 C   0  0  0  0  0  0  0  0  0  0  0  0
   -3.8617   -2.0443    1.5640 H   0  0  0  0  0  0  0  0  0  0  0  0
   -3.7180   -2.8576   -0.0132 H   0  0  0  0  0  0  0  0  0  0  0  0
   -1.8432   -2.2593    0.8536 C   0  0  0  0  0  0  0  0  0  0  0  0
   -0.9176   -2.9541    1.2402 O   0  0  0  0  0  0  0  0  0  0  0  0
   -1.5918   -1.0240    0.2945 N   0  0  0  0  0  0  0  0  0  0  0  0
   -2.3963   -0.4344    0.0838 H   0  0  0  0  0  0  0  0  0  0  0  0
   -0.2704   -0.3744    0.2572 C   0  0  1  0  0  0  0  0  0  0  0  0
    0.3755   -0.8418    1.0082 H   0  0  0  0  0  0  0  0  0  0  0  0
    0.4415   -0.4914   -1.1168 C   0  0  0  0  0  0  0  0  0  0  0  0
    0.6866    0.5053   -1.5018 H   0  0  0  0  0  0  0  0  0  0  0  0
    1.3922   -1.0072   -0.9412 H   0  0  0  0  0  0  0  0  0  0  0  0
   -0.3323   -1.2589   -2.2145 C   0  0  0  0  0  0  0  0  0  0  0  0
   -0.7272   -2.1905   -1.8025 H   0  0  0  0  0  0  0  0  0  0  0  0
   -1.1740   -0.6560   -2.5641 H   0  0  0  0  0  0  0  0  0  0  0  0
    0.5291   -1.6585   -3.4120 C   0  0  0  0  0  0  0  0  0  0  0  0
    1.6392   -1.1746   -3.5544 O   0  0  0  0  0  0  0  0  0  0  0  0
   -0.0060   -2.5410   -4.2821 O   0  0  0  0  0  0  0  0  0  0  0  0
    0.6747   -2.6654   -4.9611 H   0  0  0  0  0  0  0  0  0  0  0  0
   -0.4092    1.1085    0.6595 C   0  0  0  0  0  0  0  0  0  0  0  0
   -1.3587    1.7628    0.2434 O   0  0  0  0  0  0  0  0  0  0  0  0
    0.4795    1.6874    1.5463 N   0  0  0  0  0  0  0  0  0  0  0  0
    1.2379    1.1110    1.9004 H   0  0  0  0  0  0  0  0  0  0  0  0
    0.3708    3.0692    1.9988 C   0  0  0  0  0  0  0  0  0  0  0  0
   -0.5863    3.2325    2.5053 H   0  0  0  0  0  0  0  0  0  0  0  0
    1.1773    3.3026    2.7008 H   0  0  0  0  0  0  0  0  0  0  0  0
    0.4417    3.7570    1.1495 H   0  0  0  0  0  0  0  0  0  0  0  0
  1  2  1  0  0  0  0
  2  3  1  0  0  0  0
  2  4  1  0  0  0  0
  2  5  1  0  0  0  0
  5  6  2  0  0  0  0
  5  7  1  0  0  0  0
  7  8  1  0  0  0  0
  7  9  1  0  0  0  0
  9 10  1  0  0  0  0
  9 11  1  0  0  0  0
  9 21  1  0  0  0  0
 11 12  1  0  0  0  0
 11 13  1  0  0  0  0
 11 14  1  0  0  0  0
 14 15  1  0  0  0  0
 14 16  1  0  0  0  0
 14 17  1  0  0  0  0
 17 18  2  0  0  0  0
 17 19  1  0  0  0  0
 19 20  1  0  0  0  0
 21 22  2  0  0  0  0
 21 23  1  0  0  0  0
 23 24  1  0  0  0  0
 23 25  1  0  0  0  0
 25 26  1  0  0  0  0
 25 27  1  0  0  0  0
 25 28  1  0  0  0  0
M  END
$$$$

  -OEChem-03222214033D

 28 27  0     1  0  0  0  0  0999 V2000
   -3.3177   -3.7167    1.4843 H   0  0  0  0  0  0  0  0  0  0  0  0
   -3.2951   -2.7448    0.9833 C   0  0  0  0  0  0  0  0  0  0  0  0
   -3.8884   -2.0354    1.5653 H   0  0  0  0  0  0  0  0  0  0  0  0
   -3.7369   -2.8501   -0.0105 H   0  0  0  0  0  0  0  0  0  0  0  0
   -1.8656   -2.2519    0.8641 C   0  0  0  0  0  0  0  0  0  0  0  0
   -0.9424   -2.9488    1.2525 O   0  0  0  0  0  0  0  0  0  0  0  0
   -1.6103   -1.0167    0.3064 N   0  0  0  0  0  0  0  0  0  0  0  0
   -2.4125   -0.4247    0.0935 H   0  0  0  0  0  0  0  0  0  0  0  0
   -0.2853   -0.3766    0.2570 C   0  0  1  0  0  0  0  0  0  0  0  0
    0.3624   -0.8498    1.0029 H   0  0  0  0  0  0  0  0  0  0  0  0
    0.4257   -0.4877   -1.1200 C   0  0  0  0  0  0  0  0  0  0  0  0
    0.6886    0.5081   -1.4949 H   0  0  0  0  0  0  0  0  0  0  0  0
    1.3698   -1.0102   -0.9304 H   0  0  0  0  0  0  0  0  0  0  0  0
   -0.3289   -1.2419   -2.2461 C   0  0  0  0  0  0  0  0  0  0  0  0
   -0.9381   -2.0439   -1.8260 H   0  0  0  0  0  0  0  0  0  0  0  0
   -0.9958   -0.5551   -2.7730 H   0  0  0  0  0  0  0  0  0  0  0  0
    0.5967   -1.9304   -3.2491 C   0  0  0  0  0  0  0  0  0  0  0  0
    1.7206   -1.4948   -3.4319 O   0  0  0  0  0  0  0  0  0  0  0  0
    0.1034   -2.9974   -3.9134 O   0  0  0  0  0  0  0  0  0  0  0  0
    0.8254   -3.2875   -4.4916 H   0  0  0  0  0  0  0  0  0  0  0  0
   -0.4127    1.1056    0.6659 C   0  0  0  0  0  0  0  0  0  0  0  0
   -1.3604    1.7684    0.2593 O   0  0  0  0  0  0  0  0  0  0  0  0
    0.4883    1.6758    1.5458 N   0  0  0  0  0  0  0  0  0  0  0  0
    1.2425    1.0912    1.8954 H   0  0  0  0  0  0  0  0  0  0  0  0
    0.3915    3.0554    2.0077 C   0  0  0  0  0  0  0  0  0  0  0  0
   -0.5628    3.2229    2.5183 H   0  0  0  0  0  0  0  0  0  0  0  0
    1.2017    3.2775    2.7088 H   0  0  0  0  0  0  0  0  0  0  0  0
    0.4660    3.7488    1.1632 H   0  0  0  0  0  0  0  0  0  0  0  0
  1  2  1  0  0  0  0
  2  3  1  0  0  0  0
  2  4  1  0  0  0  0
  2  5  1  0  0  0  0
  5  6  2  0  0  0  0
  5  7  1  0  0  0  0
  7  8  1  0  0  0  0
  7  9  1  0  0  0  0
  9 10  1  0  0  0  0
  9 11  1  0  0  0  0
  9 21  1  0  0  0  0
 11 12  1  0  0  0  0
 11 13  1  0  0  0  0
 11 14  1  0  0  0  0
 14 15  1  0  0  0  0
 14 16  1  0  0  0  0
 14 17  1  0  0  0  0
 17 18  2  0  0  0  0
 17 19  1  0  0  0  0
 19 20  1  0  0  0  0
 21 22  2  0  0  0  0
 21 23  1  0  0  0  0
 23 24  1  0  0  0  0
 23 25  1  0  0  0  0
 25 26  1  0  0  0  0
 25 27  1  0  0  0  0
 25 28  1  0  0  0  0
M  END
$$$$

  -OEChem-03222214033D

 28 27  0     1  0  0  0  0  0999 V2000
   -3.3431   -3.7035    1.4787 H   0  0  0  0  0  0  0  0  0  0  0  0
   -3.3183   -2.7278    0.9854 C   0  0  0  0  0  0  0  0  0  0  0  0
   -3.8969   -2.0174    1.5808 H   0  0  0  0  0  0  0  0  0  0  0  0
   -3.7742   -2.8212   -0.0031 H   0  0  0  0  0  0  0  0  0  0  0  0
   -1.8862   -2.2466    0.8520 C   0  0  0  0  0  0  0  0  0  0  0  0
   -0.9655   -2.9499    1.2352 O   0  0  0  0  0  0  0  0  0  0  0  0
   -1.6263   -1.0095    0.3003 N   0  0  0  0  0  0  0  0  0  0  0  0
   -2.4254   -0.4107    0.0950 H   0  0  0  0  0  0  0  0  0  0  0  0
   -0.2970   -0.3799    0.2492 C   0  0  1  0  0  0  0  0  0  0  0  0
    0.3464   -0.8608    0.9937 H   0  0  0  0  0  0  0  0  0  0  0  0
    0.4211   -0.4864   -1.1266 C   0  0  0  0  0  0  0  0  0  0  0  0
    0.6886    0.5128   -1.4883 H   0  0  0  0  0  0  0  0  0  0  0  0
    1.3667   -1.0035   -0.9303 H   0  0  0  0  0  0  0  0  0  0  0  0
   -0.3121   -1.2260   -2.2813 C   0  0  0  0  0  0  0  0  0  0  0  0
   -1.1405   -1.8303   -1.9133 H   0  0  0  0  0  0  0  0  0  0  0  0
   -0.7303   -0.4946   -2.9773 H   0  0  0  0  0  0  0  0  0  0  0  0
    0.5921   -2.1886   -3.0488 C   0  0  0  0  0  0  0  0  0  0  0  0
    1.7249   -1.8398   -3.3334 O   0  0  0  0  0  0  0  0  0  0  0  0
    0.0790   -3.3878   -3.3984 O   0  0  0  0  0  0  0  0  0  0  0  0
    0.7989   -3.8428   -3.8610 H   0  0  0  0  0  0  0  0  0  0  0  0
   -0.4153    1.1003    0.6686 C   0  0  0  0  0  0  0  0  0  0  0  0
   -1.3581    1.7720    0.2654 O   0  0  0  0  0  0  0  0  0  0  0  0
    0.4916    1.6602    1.5491 N   0  0  0  0  0  0  0  0  0  0  0  0
    1.2364    1.0657    1.9021 H   0  0  0  0  0  0  0  0  0  0  0  0
    0.3988    3.0350    2.0260 C   0  0  0  0  0  0  0  0  0  0  0  0
   -0.5469    3.1948    2.5545 H   0  0  0  0  0  0  0  0  0  0  0  0
    1.2204    3.2533    2.7150 H   0  0  0  0  0  0  0  0  0  0  0  0
    0.4563    3.7360    1.1866 H   0  0  0  0  0  0  0  0  0  0  0  0
  1  2  1  0  0  0  0
  2  3  1  0  0  0  0
  2  4  1  0  0  0  0
  2  5  1  0  0  0  0
  5  6  2  0  0  0  0
  5  7  1  0  0  0  0
  7  8  1  0  0  0  0
  7  9  1  0  0  0  0
  9 10  1  0  0  0  0
  9 11  1  0  0  0  0
  9 21  1  0  0  0  0
 11 12  1  0  0  0  0
 11 13  1  0  0  0  0
 11 14  1  0  0  0  0
 14 15  1  0  0  0  0
 14 16  1  0  0  0  0
 14 17  1  0  0  0  0
 17 18  2  0  0  0  0
 17 19  1  0  0  0  0
 19 20  1  0  0  0  0
 21 22  2  0  0  0  0
 21 23  1  0  0  0  0
 23 24  1  0  0  0  0
 23 25  1  0  0  0  0
 25 26  1  0  0  0  0
 25 27  1  0  0  0  0
 25 28  1  0  0  0  0
M  END
$$$$

  -OEChem-03222214033D

 28 27  0     1  0  0  0  0  0999 V2000
   -3.3384   -3.7180    1.4210 H   0  0  0  0  0  0  0  0  0  0  0  0
   -3.3110   -2.7398    0.9325 C   0  0  0  0  0  0  0  0  0  0  0  0
   -3.9153   -2.0390    1.5136 H   0  0  0  0  0  0  0  0  0  0  0  0
   -3.7362   -2.8345   -0.0696 H   0  0  0  0  0  0  0  0  0  0  0  0
   -1.8815   -2.2415    0.8418 C   0  0  0  0  0  0  0  0  0  0  0  0
   -0.9642   -2.9351    1.2504 O   0  0  0  0  0  0  0  0  0  0  0  0
   -1.6208   -1.0015    0.2964 N   0  0  0  0  0  0  0  0  0  0  0  0
   -2.4194   -0.4102    0.0695 H   0  0  0  0  0  0  0  0  0  0  0  0
   -0.2925   -0.3710    0.2525 C   0  0  1  0  0  0  0  0  0  0  0  0
    0.3473   -0.8545    0.9985 H   0  0  0  0  0  0  0  0  0  0  0  0
    0.4316   -0.4836   -1.1201 C   0  0  0  0  0  0  0  0  0  0  0  0
    0.6649    0.5236   -1.4829 H   0  0  0  0  0  0  0  0  0  0  0  0
    1.3968   -0.9666   -0.9318 H   0  0  0  0  0  0  0  0  0  0  0  0
   -0.2952   -1.2277   -2.2782 C   0  0  0  0  0  0  0  0  0  0  0  0
   -1.2956   -1.5638   -2.0090 H   0  0  0  0  0  0  0  0  0  0  0  0
   -0.4190   -0.5360   -3.1156 H   0  0  0  0  0  0  0  0  0  0  0  0
    0.4804   -2.4379   -2.7903 C   0  0  0  0  0  0  0  0  0  0  0  0
    1.6477   -2.2982   -3.1118 O   0  0  0  0  0  0  0  0  0  0  0  0
   -0.1767   -3.6142   -2.8793 O   0  0  0  0  0  0  0  0  0  0  0  0
    0.4842   -4.2472   -3.1984 H   0  0  0  0  0  0  0  0  0  0  0  0
   -0.4105    1.1077    0.6772 C   0  0  0  0  0  0  0  0  0  0  0  0
   -1.3468    1.7837    0.2661 O   0  0  0  0  0  0  0  0  0  0  0  0
    0.4934    1.6648    1.5625 N   0  0  0  0  0  0  0  0  0  0  0  0
    1.2283    1.0653    1.9279 H   0  0  0  0  0  0  0  0  0  0  0  0
    0.3961    3.0373    2.0449 C   0  0  0  0  0  0  0  0  0  0  0  0
   -0.5538    3.1940    2.5670 H   0  0  0  0  0  0  0  0  0  0  0  0
    1.2123    3.2531    2.7410 H   0  0  0  0  0  0  0  0  0  0  0  0
    0.4592    3.7425    1.2094 H   0  0  0  0  0  0  0  0  0  0  0  0
  1  2  1  0  0  0  0
  2  3  1  0  0  0  0
  2  4  1  0  0  0  0
  2  5  1  0  0  0  0
  5  6  2  0  0  0  0
  5  7  1  0  0  0  0
  7  8  1  0  0  0  0
  7  9  1  0  0  0  0
  9 10  1  0  0  0  0
  9 11  1  0  0  0  0
  9 21  1  0  0  0  0
 11 12  1  0  0  0  0
 11 13  1  0  0  0  0
 11 14  1  0  0  0  0
 14 15  1  0  0  0  0
 14 16  1  0  0  0  0
 14 17  1  0  0  0  0
 17 18  2  0  0  0  0
 17 19  1  0  0  0  0
 19 20  1  0  0  0  0
 21 22  2  0  0  0  0
 21 23  1  0  0  0  0
 23 24  1  0  0  0  0
 23 25  1  0  0  0  0
 25 26  1  0  0  0  0
 25 27  1  0  0  0  0
 25 28  1  0  0  0  0
M  END
$$$$

  -OEChem-03222214033D

 28 27  0     1  0  0  0  0  0999 V2000
   -3.3163   -3.7405    1.3479 H   0  0  0  0  0  0  0  0  0  0  0  0
   -3.2878   -2.7620    0.8604 C   0  0  0  0  0  0  0  0  0  0  0  0
   -3.9226   -2.0708    1.4198 H   0  0  0  0  0  0  0  0  0  0  0  0
   -3.6766   -2.8637   -0.1558 H   0  0  0  0  0  0  0  0  0  0  0  0
   -1.8641   -2.2415    0.8175 C   0  0  0  0  0  0  0  0  0  0  0  0
   -0.9506   -2.9208    1.2582 O   0  0  0  0  0  0  0  0  0  0  0  0
   -1.6045   -0.9984    0.2781 N   0  0  0  0  0  0  0  0  0  0  0  0
   -2.4038   -0.4182    0.0272 H   0  0  0  0  0  0  0  0  0  0  0  0
   -0.2794   -0.3593    0.2528 C   0  0  1  0  0  0  0  0  0  0  0  0
    0.3554   -0.8416    1.0038 H   0  0  0  0  0  0  0  0  0  0  0  0
    0.4527   -0.4790   -1.1138 C   0  0  0  0  0  0  0  0  0  0  0  0
    0.6537    0.5321   -1.4846 H   0  0  0  0  0  0  0  0  0  0  0  0
    1.4324   -0.9369   -0.9392 H   0  0  0  0  0  0  0  0  0  0  0  0
   -0.2827   -1.2349   -2.2540 C   0  0  0  0  0  0  0  0  0  0  0  0
   -1.3612   -1.2942   -2.1066 H   0  0  0  0  0  0  0  0  0  0  0  0
   -0.1376   -0.6753   -3.1818 H   0  0  0  0  0  0  0  0  0  0  0  0
    0.2838   -2.6288   -2.4976 C   0  0  0  0  0  0  0  0  0  0  0  0
    1.4588   -2.7449   -2.7995 O   0  0  0  0  0  0  0  0  0  0  0  0
   -0.5580   -3.6772   -2.3707 O   0  0  0  0  0  0  0  0  0  0  0  0
   -0.0062   -4.4604   -2.5175 H   0  0  0  0  0  0  0  0  0  0  0  0
   -0.4039    1.1186    0.6779 C   0  0  0  0  0  0  0  0  0  0  0  0
   -1.3304    1.7969    0.2491 O   0  0  0  0  0  0  0  0  0  0  0  0
    0.4890    1.6754    1.5745 N   0  0  0  0  0  0  0  0  0  0  0  0
    1.2121    1.0724    1.9570 H   0  0  0  0  0  0  0  0  0  0  0  0
    0.3829    3.0463    2.0595 C   0  0  0  0  0  0  0  0  0  0  0  0
   -0.5697    3.1960    2.5786 H   0  0  0  0  0  0  0  0  0  0  0  0
    1.1958    3.2647    2.7588 H   0  0  0  0  0  0  0  0  0  0  0  0
    0.4452    3.7542    1.2262 H   0  0  0  0  0  0  0  0  0  0  0  0
  1  2  1  0  0  0  0
  2  3  1  0  0  0  0
  2  4  1  0  0  0  0
  2  5  1  0  0  0  0
  5  6  2  0  0  0  0
  5  7  1  0  0  0  0
  7  8  1  0  0  0  0
  7  9  1  0  0  0  0
  9 10  1  0  0  0  0
  9 11  1  0  0  0  0
  9 21  1  0  0  0  0
 11 12  1  0  0  0  0
 11 13  1  0  0  0  0
 11 14  1  0  0  0  0
 14 15  1  0  0  0  0
 14 16  1  0  0  0  0
 14 17  1  0  0  0  0
 17 18  2  0  0  0  0
 17 19  1  0  0  0  0
 19 20  1  0  0  0  0
 21 22  2  0  0  0  0
 21 23  1  0  0  0  0
 23 24  1  0  0  0  0
 23 25  1  0  0  0  0
 25 26  1  0  0  0  0
 25 27  1  0  0  0  0
 25 28  1  0  0  0  0
M  END
$$$$

  -OEChem-03222214033D

 28 27  0     1  0  0  0  0  0999 V2000
   -3.3056   -3.7478    1.3296 H   0  0  0  0  0  0  0  0  0  0  0  0
   -3.2684   -2.7816    0.8188 C   0  0  0  0  0  0  0  0  0  0  0  0
   -3.9287   -2.0829    1.3380 H   0  0  0  0  0  0  0  0  0  0  0  0
   -3.6197   -2.9114   -0.2079 H   0  0  0  0  0  0  0  0  0  0  0  0
   -1.8487   -2.2487    0.8132 C   0  0  0  0  0  0  0  0  0  0  0  0
   -0.9422   -2.9152    1.2873 O   0  0  0  0  0  0  0  0  0  0  0  0
   -1.5859   -1.0072    0.2715 N   0  0  0  0  0  0  0  0  0  0  0  0
   -2.3835   -0.4407   -0.0130 H   0  0  0  0  0  0  0  0  0  0  0  0
   -0.2651   -0.3583    0.2612 C   0  0  1  0  0  0  0  0  0  0  0  0
    0.3663   -0.8344    1.0186 H   0  0  0  0  0  0  0  0  0  0  0  0
    0.4741   -0.4785   -1.1009 C   0  0  0  0  0  0  0  0  0  0  0  0
    0.6653    0.5319   -1.4790 H   0  0  0  0  0  0  0  0  0  0  0  0
    1.4559   -0.9337   -0.9306 H   0  0  0  0  0  0  0  0  0  0  0  0
   -0.2675   -1.2442   -2.2244 C   0  0  0  0  0  0  0  0  0  0  0  0
   -1.3462   -1.0776   -2.1948 H   0  0  0  0  0  0  0  0  0  0  0  0
    0.0769   -0.8592   -3.1879 H   0  0  0  0  0  0  0  0  0  0  0  0
    0.0414   -2.7373   -2.2160 C   0  0  0  0  0  0  0  0  0  0  0  0
    1.1943   -3.0988   -2.3743 O   0  0  0  0  0  0  0  0  0  0  0  0
   -0.9886   -3.5937   -2.0389 O   0  0  0  0  0  0  0  0  0  0  0  0
   -0.5751   -4.4701   -2.0025 H   0  0  0  0  0  0  0  0  0  0  0  0
   -0.4040    1.1209    0.6761 C   0  0  0  0  0  0  0  0  0  0  0  0
   -1.3237    1.7945    0.2257 O   0  0  0  0  0  0  0  0  0  0  0  0
    0.4749    1.6853    1.5817 N   0  0  0  0  0  0  0  0  0  0  0  0
    1.1921    1.0854    1.9800 H   0  0  0  0  0  0  0  0  0  0  0  0
    0.3645    3.0613    2.0508 C   0  0  0  0  0  0  0  0  0  0  0  0
   -0.6012    3.2234    2.5414 H   0  0  0  0  0  0  0  0  0  0  0  0
    1.1587    3.2806    2.7709 H   0  0  0  0  0  0  0  0  0  0  0  0
    0.4559    3.7600    1.2126 H   0  0  0  0  0  0  0  0  0  0  0  0
  1  2  1  0  0  0  0
  2  3  1  0  0  0  0
  2  4  1  0  0  0  0
  2  5  1  0  0  0  0
  5  6  2  0  0  0  0
  5  7  1  0  0  0  0
  7  8  1  0  0  0  0
  7  9  1  0  0  0  0
  9 10  1  0  0  0  0
  9 11  1  0  0  0  0
  9 21  1  0  0  0  0
 11 12  1  0  0  0  0
 11 13  1  0  0  0  0
 11 14  1  0  0  0  0
 14 15  1  0  0  0  0
 14 16  1  0  0  0  0
 14 17  1  0  0  0  0
 17 18  2  0  0  0  0
 17 19  1  0  0  0  0
 19 20  1  0  0  0  0
 21 22  2  0  0  0  0
 21 23  1  0  0  0  0
 23 24  1  0  0  0  0
 23 25  1  0  0  0  0
 25 26  1  0  0  0  0
 25 27  1  0  0  0  0
 25 28  1  0  0  0  0
M  END
$$$$

  -OEChem-03222214033D

 28 27  0     1  0  0  0  0  0999 V2000
   -3.3188   -3.7480    1.3605 H   0  0  0  0  0  0  0  0  0  0  0  0
   -3.2746   -2.7718    0.8698 C   0  0  0  0  0  0  0  0  0  0  0  0
   -3.9208   -2.0758    1.4099 H   0  0  0  0  0  0  0  0  0  0  0  0
   -3.6377   -2.8759   -0.1556 H   0  0  0  0  0  0  0  0  0  0  0  0
   -1.8487   -2.2557    0.8606 C   0  0  0  0  0  0  0  0  0  0  0  0
   -0.9536   -2.9217    1.3552 O   0  0  0  0  0  0  0  0  0  0  0  0
   -1.5706   -1.0281    0.2966 N   0  0  0  0  0  0  0  0  0  0  0  0
   -2.3628   -0.4687   -0.0157 H   0  0  0  0  0  0  0  0  0  0  0  0
   -0.2501   -0.3777    0.2878 C   0  0  1  0  0  0  0  0  0  0  0  0
    0.3788   -0.8408    1.0555 H   0  0  0  0  0  0  0  0  0  0  0  0
    0.4978   -0.4923   -1.0714 C   0  0  0  0  0  0  0  0  0  0  0  0
    0.7058    0.5156   -1.4472 H   0  0  0  0  0  0  0  0  0  0  0  0
    1.4708   -0.9629   -0.8923 H   0  0  0  0  0  0  0  0  0  0  0  0
   -0.2267   -1.2561   -2.2034 C   0  0  0  0  0  0  0  0  0  0  0  0
   -1.2566   -0.9036   -2.3016 H   0  0  0  0  0  0  0  0  0  0  0  0
    0.2766   -1.0464   -3.1505 H   0  0  0  0  0  0  0  0  0  0  0  0
   -0.2160   -2.7703   -2.0106 C   0  0  0  0  0  0  0  0  0  0  0  0
    0.8606   -3.3313   -1.9103 O   0  0  0  0  0  0  0  0  0  0  0  0
   -1.3971   -3.4267   -1.9977 O   0  0  0  0  0  0  0  0  0  0  0  0
   -1.1524   -4.3521   -1.8383 H   0  0  0  0  0  0  0  0  0  0  0  0
   -0.4059    1.1093    0.6693 C   0  0  0  0  0  0  0  0  0  0  0  0
   -1.3202    1.7685    0.1873 O   0  0  0  0  0  0  0  0  0  0  0  0
    0.4561    1.6994    1.5748 N   0  0  0  0  0  0  0  0  0  0  0  0
    1.1686    1.1118    1.9991 H   0  0  0  0  0  0  0  0  0  0  0  0
    0.3285    3.0836    2.0148 C   0  0  0  0  0  0  0  0  0  0  0  0
   -0.6424    3.2456    2.4947 H   0  0  0  0  0  0  0  0  0  0  0  0
    1.1151    3.3254    2.7360 H   0  0  0  0  0  0  0  0  0  0  0  0
    0.4189    3.7666    1.1636 H   0  0  0  0  0  0  0  0  0  0  0  0
  1  2  1  0  0  0  0
  2  3  1  0  0  0  0
  2  4  1  0  0  0  0
  2  5  1  0  0  0  0
  5  6  2  0  0  0  0
  5  7  1  0  0  0  0
  7  8  1  0  0  0  0
  7  9  1  0  0  0  0
  9 10  1  0  0  0  0
  9 11  1  0  0  0  0
  9 21  1  0  0  0  0
 11 12  1  0  0  0  0
 11 13  1  0  0  0  0
 11 14  1  0  0  0  0
 14 15  1  0  0  0  0
 14 16  1  0  0  0  0
 14 17  1  0  0  0  0
 17 18  2  0  0  0  0
 17 19  1  0  0  0  0
 19 20  1  0  0  0  0
 21 22  2  0  0  0  0
 21 23  1  0  0  0  0
 23 24  1  0  0  0  0
 23 25  1  0  0  0  0
 25 26  1  0  0  0  0
 25 27  1  0  0  0  0
 25 28  1  0  0  0  0
M  END
$$$$

  -OEChem-03222214033D

 28 27  0     1  0  0  0  0  0999 V2000
   -3.3309   -3.7619    1.4216 H   0  0  0  0  0  0  0  0  0  0  0  0
   -3.2933   -2.7608    0.9831 C   0  0  0  0  0  0  0  0  0  0  0  0
   -3.9104   -2.0885    1.5839 H   0  0  0  0  0  0  0  0  0  0  0  0
   -3.6975   -2.8054   -0.0311 H   0  0  0  0  0  0  0  0  0  0  0  0
   -1.8623   -2.2580    0.9509 C   0  0  0  0  0  0  0  0  0  0  0  0
   -0.9779   -2.9019    1.4901 O   0  0  0  0  0  0  0  0  0  0  0  0
   -1.5749   -1.0479    0.3539 N   0  0  0  0  0  0  0  0  0  0  0  0
   -2.3613   -0.5022    0.0045 H   0  0  0  0  0  0  0  0  0  0  0  0
   -0.2520   -0.4035    0.3288 C   0  0  1  0  0  0  0  0  0  0  0  0
    0.3793   -0.8494    1.1048 H   0  0  0  0  0  0  0  0  0  0  0  0
    0.5043   -0.5110   -1.0302 C   0  0  0  0  0  0  0  0  0  0  0  0
    0.7462    0.4951   -1.3915 H   0  0  0  0  0  0  0  0  0  0  0  0
    1.4601   -1.0075   -0.8306 H   0  0  0  0  0  0  0  0  0  0  0  0
   -0.1713   -1.2620   -2.2008 C   0  0  0  0  0  0  0  0  0  0  0  0
   -1.1028   -0.7504   -2.4580 H   0  0  0  0  0  0  0  0  0  0  0  0
    0.4796   -1.2177   -3.0779 H   0  0  0  0  0  0  0  0  0  0  0  0
   -0.4877   -2.7296   -1.9304 C   0  0  0  0  0  0  0  0  0  0  0  0
    0.4416   -3.4713   -1.6700 O   0  0  0  0  0  0  0  0  0  0  0  0
   -1.7632   -3.1581   -2.0550 O   0  0  0  0  0  0  0  0  0  0  0  0
   -1.7104   -4.1085   -1.8665 H   0  0  0  0  0  0  0  0  0  0  0  0
   -0.4200    1.0921    0.6723 C   0  0  0  0  0  0  0  0  0  0  0  0
   -1.3298    1.7372    0.1633 O   0  0  0  0  0  0  0  0  0  0  0  0
    0.4352    1.7101    1.5656 N   0  0  0  0  0  0  0  0  0  0  0  0
    1.1421    1.1350    2.0158 H   0  0  0  0  0  0  0  0  0  0  0  0
    0.3052    3.1077    1.9600 C   0  0  0  0  0  0  0  0  0  0  0  0
   -0.6687    3.2854    2.4282 H   0  0  0  0  0  0  0  0  0  0  0  0
    1.0874    3.3730    2.6778 H   0  0  0  0  0  0  0  0  0  0  0  0
    0.4010    3.7622    1.0872 H   0  0  0  0  0  0  0  0  0  0  0  0
  1  2  1  0  0  0  0
  2  3  1  0  0  0  0
  2  4  1  0  0  0  0
  2  5  1  0  0  0  0
  5  6  2  0  0  0  0
  5  7  1  0  0  0  0
  7  8  1  0  0  0  0
  7  9  1  0  0  0  0
  9 10  1  0  0  0  0
  9 11  1  0  0  0  0
  9 21  1  0  0  0  0
 11 12  1  0  0  0  0
 11 13  1  0  0  0  0
 11 14  1  0  0  0  0
 14 15  1  0  0  0  0
 14 16  1  0  0  0  0
 14 17  1  0  0  0  0
 17 18  2  0  0  0  0
 17 19  1  0  0  0  0
 19 20  1  0  0  0  0
 21 22  2  0  0  0  0
 21 23  1  0  0  0  0
 23 24  1  0  0  0  0
 23 25  1  0  0  0  0
 25 26  1  0  0  0  0
 25 27  1  0  0  0  0
 25 28  1  0  0  0  0
M  END
$$$$

  -OEChem-03222214033D

 28 27  0     1  0  0  0  0  0999 V2000
   -3.3108   -3.7894    1.4788 H   0  0  0  0  0  0  0  0  0  0  0  0
   -3.2921   -2.7623    1.1042 C   0  0  0  0  0  0  0  0  0  0  0  0
   -3.8897   -2.1322    1.7672 H   0  0  0  0  0  0  0  0  0  0  0  0
   -3.7323   -2.7438    0.1048 H   0  0  0  0  0  0  0  0  0  0  0  0
   -1.8644   -2.2509    1.0574 C   0  0  0  0  0  0  0  0  0  0  0  0
   -0.9827   -2.8572    1.6425 O   0  0  0  0  0  0  0  0  0  0  0  0
   -1.5835   -1.0568    0.4252 N   0  0  0  0  0  0  0  0  0  0  0  0
   -2.3671   -0.5385    0.0303 H   0  0  0  0  0  0  0  0  0  0  0  0
   -0.2592   -0.4199    0.3703 C   0  0  1  0  0  0  0  0  0  0  0  0
    0.3809   -0.8459    1.1503 H   0  0  0  0  0  0  0  0  0  0  0  0
    0.4930   -0.5317   -0.9935 C   0  0  0  0  0  0  0  0  0  0  0  0
    0.7718    0.4689   -1.3430 H   0  0  0  0  0  0  0  0  0  0  0  0
    1.4312   -1.0530   -0.7749 H   0  0  0  0  0  0  0  0  0  0  0  0
   -0.1385   -1.2739   -2.1982 C   0  0  0  0  0  0  0  0  0  0  0  0
   -0.9119   -0.6256   -2.6192 H   0  0  0  0  0  0  0  0  0  0  0  0
    0.6238   -1.4107   -2.9697 H   0  0  0  0  0  0  0  0  0  0  0  0
   -0.7858   -2.6284   -1.9358 C   0  0  0  0  0  0  0  0  0  0  0  0
   -0.0592   -3.5511   -1.6187 O   0  0  0  0  0  0  0  0  0  0  0  0
   -2.1139   -2.7711   -2.1417 O   0  0  0  0  0  0  0  0  0  0  0  0
   -2.2772   -3.7146   -1.9868 H   0  0  0  0  0  0  0  0  0  0  0  0
   -0.4330    1.0832    0.6800 C   0  0  0  0  0  0  0  0  0  0  0  0
   -1.3379    1.7172    0.1487 O   0  0  0  0  0  0  0  0  0  0  0  0
    0.4263    1.7263    1.5516 N   0  0  0  0  0  0  0  0  0  0  0  0
    1.1260    1.1615    2.0252 H   0  0  0  0  0  0  0  0  0  0  0  0
    0.2956    3.1341    1.9083 C   0  0  0  0  0  0  0  0  0  0  0  0
   -0.6746    3.3221    2.3803 H   0  0  0  0  0  0  0  0  0  0  0  0
    1.0835    3.4215    2.6112 H   0  0  0  0  0  0  0  0  0  0  0  0
    0.3815    3.7649    1.0172 H   0  0  0  0  0  0  0  0  0  0  0  0
  1  2  1  0  0  0  0
  2  3  1  0  0  0  0
  2  4  1  0  0  0  0
  2  5  1  0  0  0  0
  5  6  2  0  0  0  0
  5  7  1  0  0  0  0
  7  8  1  0  0  0  0
  7  9  1  0  0  0  0
  9 10  1  0  0  0  0
  9 11  1  0  0  0  0
  9 21  1  0  0  0  0
 11 12  1  0  0  0  0
 11 13  1  0  0  0  0
 11 14  1  0  0  0  0
 14 15  1  0  0  0  0
 14 16  1  0  0  0  0
 14 17  1  0  0  0  0
 17 18  2  0  0  0  0
 17 19  1  0  0  0  0
 19 20  1  0  0  0  0
 21 22  2  0  0  0  0
 21 23  1  0  0  0  0
 23 24  1  0  0  0  0
 23 25  1  0  0  0  0
 25 26  1  0  0  0  0
 25 27  1  0  0  0  0
 25 28  1  0  0  0  0
M  END
$$$$

  -OEChem-03222214033D

 28 27  0     1  0  0  0  0  0999 V2000
   -3.3726   -3.6896    1.6706 H   0  0  0  0  0  0  0  0  0  0  0  0
   -3.3286   -2.7314    1.1454 C   0  0  0  0  0  0  0  0  0  0  0  0
   -3.9815   -2.0187    1.6551 H   0  0  0  0  0  0  0  0  0  0  0  0
   -3.6864   -2.8741    0.1240 H   0  0  0  0  0  0  0  0  0  0  0  0
   -1.9043   -2.2089    1.1333 C   0  0  0  0  0  0  0  0  0  0  0  0
   -1.0423   -2.7782    1.7830 O   0  0  0  0  0  0  0  0  0  0  0  0
   -1.6073   -1.0376    0.4653 N   0  0  0  0  0  0  0  0  0  0  0  0
   -2.3709   -0.5490   -0.0006 H   0  0  0  0  0  0  0  0  0  0  0  0
   -0.2749   -0.4219    0.4103 C   0  0  1  0  0  0  0  0  0  0  0  0
    0.3479   -0.8274    1.2147 H   0  0  0  0  0  0  0  0  0  0  0  0
    0.5057   -0.5791   -0.9345 C   0  0  0  0  0  0  0  0  0  0  0  0
    0.8272    0.4069   -1.2892 H   0  0  0  0  0  0  0  0  0  0  0  0
    1.4208   -1.1178   -0.6664 H   0  0  0  0  0  0  0  0  0  0  0  0
   -0.0695   -1.3370   -2.1633 C   0  0  0  0  0  0  0  0  0  0  0  0
   -0.6080   -0.6025   -2.7685 H   0  0  0  0  0  0  0  0  0  0  0  0
    0.7642   -1.6991   -2.7711 H   0  0  0  0  0  0  0  0  0  0  0  0
   -1.0328   -2.4997   -1.9585 C   0  0  0  0  0  0  0  0  0  0  0  0
   -0.5729   -3.5719   -1.6141 O   0  0  0  0  0  0  0  0  0  0  0  0
   -2.3416   -2.3146   -2.2436 O   0  0  0  0  0  0  0  0  0  0  0  0
   -2.7380   -3.1932   -2.1392 H   0  0  0  0  0  0  0  0  0  0  0  0
   -0.4405    1.0918    0.6718 C   0  0  0  0  0  0  0  0  0  0  0  0
   -1.3252    1.7205    0.1013 O   0  0  0  0  0  0  0  0  0  0  0  0
    0.4107    1.7541    1.5373 N   0  0  0  0  0  0  0  0  0  0  0  0
    1.0822    1.1938    2.0550 H   0  0  0  0  0  0  0  0  0  0  0  0
    0.2664    3.1664    1.8706 C   0  0  0  0  0  0  0  0  0  0  0  0
   -0.7108    3.3550    2.3278 H   0  0  0  0  0  0  0  0  0  0  0  0
    1.0437    3.4701    2.5785 H   0  0  0  0  0  0  0  0  0  0  0  0
    0.3591    3.7838    0.9708 H   0  0  0  0  0  0  0  0  0  0  0  0
  1  2  1  0  0  0  0
  2  3  1  0  0  0  0
  2  4  1  0  0  0  0
  2  5  1  0  0  0  0
  5  6  2  0  0  0  0
  5  7  1  0  0  0  0
  7  8  1  0  0  0  0
  7  9  1  0  0  0  0
  9 10  1  0  0  0  0
  9 11  1  0  0  0  0
  9 21  1  0  0  0  0
 11 12  1  0  0  0  0
 11 13  1  0  0  0  0
 11 14  1  0  0  0  0
 14 15  1  0  0  0  0
 14 16  1  0  0  0  0
 14 17  1  0  0  0  0
 17 18  2  0  0  0  0
 17 19  1  0  0  0  0
 19 20  1  0  0  0  0
 21 22  2  0  0  0  0
 21 23  1  0  0  0  0
 23 24  1  0  0  0  0
 23 25  1  0  0  0  0
 25 26  1  0  0  0  0
 25 27  1  0  0  0  0
 25 28  1  0  0  0  0
M  END
$$$$

  -OEChem-03222214033D

 28 27  0     1  0  0  0  0  0999 V2000
   -3.3939   -3.6948    1.6041 H   0  0  0  0  0  0  0  0  0  0  0  0
   -3.3668   -2.7027    1.1452 C   0  0  0  0  0  0  0  0  0  0  0  0
   -3.9888   -2.0240    1.7336 H   0  0  0  0  0  0  0  0  0  0  0  0
   -3.7743   -2.7701    0.1337 H   0  0  0  0  0  0  0  0  0  0  0  0
   -1.9414   -2.1855    1.0992 C   0  0  0  0  0  0  0  0  0  0  0  0
   -1.0389   -2.8326    1.6064 O   0  0  0  0  0  0  0  0  0  0  0  0
   -1.6726   -0.9720    0.5022 N   0  0  0  0  0  0  0  0  0  0  0  0
   -2.4535   -0.4837    0.0621 H   0  0  0  0  0  0  0  0  0  0  0  0
   -0.3428   -0.3652    0.3763 C   0  0  1  0  0  0  0  0  0  0  0  0
    0.3260   -0.8345    1.1056 H   0  0  0  0  0  0  0  0  0  0  0  0
    0.3442   -0.4669   -1.0256 C   0  0  0  0  0  0  0  0  0  0  0  0
    0.6387    0.5378   -1.3495 H   0  0  0  0  0  0  0  0  0  0  0  0
    1.2787   -1.0069   -0.8408 H   0  0  0  0  0  0  0  0  0  0  0  0
   -0.2949   -1.1627   -2.2666 C   0  0  0  0  0  0  0  0  0  0  0  0
   -0.6191   -0.3710   -2.9486 H   0  0  0  0  0  0  0  0  0  0  0  0
    0.4877   -1.7227   -2.7856 H   0  0  0  0  0  0  0  0  0  0  0  0
   -1.4921   -2.0936   -2.1106 C   0  0  0  0  0  0  0  0  0  0  0  0
   -2.6200   -1.6356   -2.1934 O   0  0  0  0  0  0  0  0  0  0  0  0
   -1.2364   -3.4081   -1.9353 O   0  0  0  0  0  0  0  0  0  0  0  0
   -2.1018   -3.8391   -1.8851 H   0  0  0  0  0  0  0  0  0  0  0  0
   -0.4409    1.1281    0.7599 C   0  0  0  0  0  0  0  0  0  0  0  0
   -1.3438    1.8240    0.3108 O   0  0  0  0  0  0  0  0  0  0  0  0
    0.5052    1.7015    1.5897 N   0  0  0  0  0  0  0  0  0  0  0  0
    1.1995    1.0870    2.0051 H   0  0  0  0  0  0  0  0  0  0  0  0
    0.4498    3.0939    2.0192 C   0  0  0  0  0  0  0  0  0  0  0  0
   -0.4720    3.2865    2.5783 H   0  0  0  0  0  0  0  0  0  0  0  0
    1.3017    3.3247    2.6661 H   0  0  0  0  0  0  0  0  0  0  0  0
    0.4832    3.7634    1.1533 H   0  0  0  0  0  0  0  0  0  0  0  0
  1  2  1  0  0  0  0
  2  3  1  0  0  0  0
  2  4  1  0  0  0  0
  2  5  1  0  0  0  0
  5  6  2  0  0  0  0
  5  7  1  0  0  0  0
  7  8  1  0  0  0  0
  7  9  1  0  0  0  0
  9 10  1  0  0  0  0
  9 11  1  0  0  0  0
  9 21  1  0  0  0  0
 11 12  1  0  0  0  0
 11 13  1  0  0  0  0
 11 14  1  0  0  0  0
 14 15  1  0  0  0  0
 14 16  1  0  0  0  0
 14 17  1  0  0  0  0
 17 18  2  0  0  0  0
 17 19  1  0  0  0  0
 19 20  1  0  0  0  0
 21 22  2  0  0  0  0
 21 23  1  0  0  0  0
 23 24  1  0  0  0  0
 23 25  1  0  0  0  0
 25 26  1  0  0  0  0
 25 27  1  0  0  0  0
 25 28  1  0  0  0  0
M  END
$$$$

  -OEChem-03222214033D

 28 27  0     1  0  0  0  0  0999 V2000
   -2.9326   -3.5846    2.3846 H   0  0  0  0  0  0  0  0  0  0  0  0
   -3.0160   -2.7833    1.6452 C   0  0  0  0  0  0  0  0  0  0  0  0
   -3.6802   -2.0101    2.0382 H   0  0  0  0  0  0  0  0  0  0  0  0
   -3.4452   -3.1940    0.7285 H   0  0  0  0  0  0  0  0  0  0  0  0
   -1.6469   -2.1980    1.3557 C   0  0  0  0  0  0  0  0  0  0  0  0
   -0.6437   -2.7553    1.7730 O   0  0  0  0  0  0  0  0  0  0  0  0
   -1.5376   -1.0138    0.6538 N   0  0  0  0  0  0  0  0  0  0  0  0
   -2.3968   -0.5558    0.3506 H   0  0  0  0  0  0  0  0  0  0  0  0
   -0.2687   -0.3866    0.2697 C   0  0  1  0  0  0  0  0  0  0  0  0
    0.5292   -0.7919    0.9007 H   0  0  0  0  0  0  0  0  0  0  0  0
    0.1755   -0.5718   -1.2184 C   0  0  0  0  0  0  0  0  0  0  0  0
    0.3482    0.4222   -1.6469 H   0  0  0  0  0  0  0  0  0  0  0  0
    1.1592   -1.0510   -1.1739 H   0  0  0  0  0  0  0  0  0  0  0  0
   -0.6397   -1.3648   -2.2884 C   0  0  0  0  0  0  0  0  0  0  0  0
   -0.8518   -0.6804   -3.1144 H   0  0  0  0  0  0  0  0  0  0  0  0
    0.0122   -2.1462   -2.6898 H   0  0  0  0  0  0  0  0  0  0  0  0
   -1.9673   -2.0320   -1.9418 C   0  0  0  0  0  0  0  0  0  0  0  0
   -1.9879   -3.2359   -1.7615 O   0  0  0  0  0  0  0  0  0  0  0  0
   -3.0794   -1.2634   -1.9124 O   0  0  0  0  0  0  0  0  0  0  0  0
   -3.8108   -1.8849   -1.7787 H   0  0  0  0  0  0  0  0  0  0  0  0
   -0.3476    1.1248    0.5804 C   0  0  0  0  0  0  0  0  0  0  0  0
   -1.3421    1.7677    0.2649 O   0  0  0  0  0  0  0  0  0  0  0  0
    0.7059    1.7692    1.2031 N   0  0  0  0  0  0  0  0  0  0  0  0
    1.4802    1.1969    1.5278 H   0  0  0  0  0  0  0  0  0  0  0  0
    0.6723    3.1806    1.5680 C   0  0  0  0  0  0  0  0  0  0  0  0
   -0.1257    3.3696    2.2940 H   0  0  0  0  0  0  0  0  0  0  0  0
    0.4976    3.8018    0.6829 H   0  0  0  0  0  0  0  0  0  0  0  0
    1.6255    3.4792    2.0150 H   0  0  0  0  0  0  0  0  0  0  0  0
  1  2  1  0  0  0  0
  2  3  1  0  0  0  0
  2  4  1  0  0  0  0
  2  5  1  0  0  0  0
  5  6  2  0  0  0  0
  5  7  1  0  0  0  0
  7  8  1  0  0  0  0
  7  9  1  0  0  0  0
  9 10  1  0  0  0  0
  9 11  1  0  0  0  0
  9 21  1  0  0  0  0
 11 12  1  0  0  0  0
 11 13  1  0  0  0  0
 11 14  1  0  0  0  0
 14 15  1  0  0  0  0
 14 16  1  0  0  0  0
 14 17  1  0  0  0  0
 17 18  2  0  0  0  0
 17 19  1  0  0  0  0
 19 20  1  0  0  0  0
 21 22  2  0  0  0  0
 21 23  1  0  0  0  0
 23 24  1  0  0  0  0
 23 25  1  0  0  0  0
 25 26  1  0  0  0  0
 25 27  1  0  0  0  0
 25 28  1  0  0  0  0
M  END
$$$$

  -OEChem-03222214033D

 28 27  0     1  0  0  0  0  0999 V2000
   -2.8780   -3.7885    2.0896 H   0  0  0  0  0  0  0  0  0  0  0  0
   -2.9878   -2.9009    1.4604 C   0  0  0  0  0  0  0  0  0  0  0  0
   -3.6220   -2.1783    1.9793 H   0  0  0  0  0  0  0  0  0  0  0  0
   -3.4677   -3.1914    0.5228 H   0  0  0  0  0  0  0  0  0  0  0  0
   -1.6282   -2.2910    1.1761 C   0  0  0  0  0  0  0  0  0  0  0  0
   -0.6113   -2.8771    1.5141 O   0  0  0  0  0  0  0  0  0  0  0  0
   -1.5411   -1.0552    0.5667 N   0  0  0  0  0  0  0  0  0  0  0  0
   -2.4092   -0.5663    0.3513 H   0  0  0  0  0  0  0  0  0  0  0  0
   -0.2867   -0.3652    0.2478 C   0  0  1  0  0  0  0  0  0  0  0  0
    0.5071   -0.7921    0.8696 H   0  0  0  0  0  0  0  0  0  0  0  0
    0.1964   -0.4663   -1.2355 C   0  0  0  0  0  0  0  0  0  0  0  0
    0.2946    0.5585   -1.6116 H   0  0  0  0  0  0  0  0  0  0  0  0
    1.2115   -0.8763   -1.2110 H   0  0  0  0  0  0  0  0  0  0  0  0
   -0.5771   -1.2411   -2.3478 C   0  0  0  0  0  0  0  0  0  0  0  0
   -0.5459   -0.6468   -3.2648 H   0  0  0  0  0  0  0  0  0  0  0  0
   -0.0186   -2.1608   -2.5471 H   0  0  0  0  0  0  0  0  0  0  0  0
   -2.0294   -1.6601   -2.1356 C   0  0  0  0  0  0  0  0  0  0  0  0
   -2.2956   -2.8446   -2.0339 O   0  0  0  0  0  0  0  0  0  0  0  0
   -2.9698   -0.6902   -2.1298 O   0  0  0  0  0  0  0  0  0  0  0  0
   -3.8170   -1.1564   -2.0723 H   0  0  0  0  0  0  0  0  0  0  0  0
   -0.4023    1.1182    0.6645 C   0  0  0  0  0  0  0  0  0  0  0  0
   -1.4231    1.7496    0.4184 O   0  0  0  0  0  0  0  0  0  0  0  0
    0.6297    1.7398    1.3441 N   0  0  0  0  0  0  0  0  0  0  0  0
    1.4268    1.1691    1.6111 H   0  0  0  0  0  0  0  0  0  0  0  0
    0.5453    3.1077    1.8426 C   0  0  0  0  0  0  0  0  0  0  0  0
   -0.2687    3.2011    2.5693 H   0  0  0  0  0  0  0  0  0  0  0  0
    1.4815    3.3906    2.3337 H   0  0  0  0  0  0  0  0  0  0  0  0
    0.3633    3.8061    1.0189 H   0  0  0  0  0  0  0  0  0  0  0  0
  1  2  1  0  0  0  0
  2  3  1  0  0  0  0
  2  4  1  0  0  0  0
  2  5  1  0  0  0  0
  5  6  2  0  0  0  0
  5  7  1  0  0  0  0
  7  8  1  0  0  0  0
  7  9  1  0  0  0  0
  9 10  1  0  0  0  0
  9 11  1  0  0  0  0
  9 21  1  0  0  0  0
 11 12  1  0  0  0  0
 11 13  1  0  0  0  0
 11 14  1  0  0  0  0
 14 15  1  0  0  0  0
 14 16  1  0  0  0  0
 14 17  1  0  0  0  0
 17 18  2  0  0  0  0
 17 19  1  0  0  0  0
 19 20  1  0  0  0  0
 21 22  2  0  0  0  0
 21 23  1  0  0  0  0
 23 24  1  0  0  0  0
 23 25  1  0  0  0  0
 25 26  1  0  0  0  0
 25 27  1  0  0  0  0
 25 28  1  0  0  0  0
M  END
$$$$

  -OEChem-03222214033D

 28 27  0     1  0  0  0  0  0999 V2000
   -3.1925   -3.7452    1.6111 H   0  0  0  0  0  0  0  0  0  0  0  0
   -3.2170   -2.7760    1.1053 C   0  0  0  0  0  0  0  0  0  0  0  0
   -3.8449   -2.0930    1.6826 H   0  0  0  0  0  0  0  0  0  0  0  0
   -3.6510   -2.9072    0.1116 H   0  0  0  0  0  0  0  0  0  0  0  0
   -1.8137   -2.2137    0.9861 C   0  0  0  0  0  0  0  0  0  0  0  0
   -0.8542   -2.8766    1.3481 O   0  0  0  0  0  0  0  0  0  0  0  0
   -1.6236   -0.9547    0.4586 N   0  0  0  0  0  0  0  0  0  0  0  0
   -2.4483   -0.4301    0.1606 H   0  0  0  0  0  0  0  0  0  0  0  0
   -0.3272   -0.2894    0.2927 C   0  0  1  0  0  0  0  0  0  0  0  0
    0.3826   -0.7773    0.9689 H   0  0  0  0  0  0  0  0  0  0  0  0
    0.2897   -0.3828   -1.1371 C   0  0  0  0  0  0  0  0  0  0  0  0
    0.4226    0.6453   -1.4924 H   0  0  0  0  0  0  0  0  0  0  0  0
    1.2942   -0.8071   -1.0391 H   0  0  0  0  0  0  0  0  0  0  0  0
   -0.4241   -1.1303   -2.3024 C   0  0  0  0  0  0  0  0  0  0  0  0
   -0.0813   -0.7108   -3.2516 H   0  0  0  0  0  0  0  0  0  0  0  0
   -0.0796   -2.1677   -2.2679 H   0  0  0  0  0  0  0  0  0  0  0  0
   -1.9499   -1.1982   -2.3512 C   0  0  0  0  0  0  0  0  0  0  0  0
   -2.5953   -0.1751   -2.2124 O   0  0  0  0  0  0  0  0  0  0  0  0
   -2.5196   -2.4010   -2.5833 O   0  0  0  0  0  0  0  0  0  0  0  0
   -3.4702   -2.2215   -2.6405 H   0  0  0  0  0  0  0  0  0  0  0  0
   -0.4038    1.1788    0.7683 C   0  0  0  0  0  0  0  0  0  0  0  0
   -1.3737    1.8733    0.4937 O   0  0  0  0  0  0  0  0  0  0  0  0
    0.5990    1.7089    1.5604 N   0  0  0  0  0  0  0  0  0  0  0  0
    1.3480    1.0868    1.8498 H   0  0  0  0  0  0  0  0  0  0  0  0
    0.5505    3.0579    2.1122 C   0  0  0  0  0  0  0  0  0  0  0  0
   -0.2946    3.1598    2.8009 H   0  0  0  0  0  0  0  0  0  0  0  0
    1.4724    3.2769    2.6594 H   0  0  0  0  0  0  0  0  0  0  0  0
    0.4426    3.7966    1.3109 H   0  0  0  0  0  0  0  0  0  0  0  0
  1  2  1  0  0  0  0
  2  3  1  0  0  0  0
  2  4  1  0  0  0  0
  2  5  1  0  0  0  0
  5  6  2  0  0  0  0
  5  7  1  0  0  0  0
  7  8  1  0  0  0  0
  7  9  1  0  0  0  0
  9 10  1  0  0  0  0
  9 11  1  0  0  0  0
  9 21  1  0  0  0  0
 11 12  1  0  0  0  0
 11 13  1  0  0  0  0
 11 14  1  0  0  0  0
 14 15  1  0  0  0  0
 14 16  1  0  0  0  0
 14 17  1  0  0  0  0
 17 18  2  0  0  0  0
 17 19  1  0  0  0  0
 19 20  1  0  0  0  0
 21 22  2  0  0  0  0
 21 23  1  0  0  0  0
 23 24  1  0  0  0  0
 23 25  1  0  0  0  0
 25 26  1  0  0  0  0
 25 27  1  0  0  0  0
 25 28  1  0  0  0  0
M  END
$$$$

  -OEChem-03222214033D

 28 27  0     1  0  0  0  0  0999 V2000
   -3.2324   -3.7323    1.4824 H   0  0  0  0  0  0  0  0  0  0  0  0
   -3.2427   -2.7595    0.9832 C   0  0  0  0  0  0  0  0  0  0  0  0
   -3.8474   -2.0671    1.5736 H   0  0  0  0  0  0  0  0  0  0  0  0
   -3.6930   -2.8751   -0.0055 H   0  0  0  0  0  0  0  0  0  0  0  0
   -1.8293   -2.2272    0.8469 C   0  0  0  0  0  0  0  0  0  0  0  0
   -0.8785   -2.9178    1.1787 O   0  0  0  0  0  0  0  0  0  0  0  0
   -1.6185   -0.9630    0.3390 N   0  0  0  0  0  0  0  0  0  0  0  0
   -2.4381   -0.3875    0.1441 H   0  0  0  0  0  0  0  0  0  0  0  0
   -0.3130   -0.2957    0.2552 C   0  0  1  0  0  0  0  0  0  0  0  0
    0.3538   -0.7847    0.9730 H   0  0  0  0  0  0  0  0  0  0  0  0
    0.3840   -0.4006   -1.1329 C   0  0  0  0  0  0  0  0  0  0  0  0
    0.5518    0.6191   -1.4979 H   0  0  0  0  0  0  0  0  0  0  0  0
    1.3718   -0.8475   -0.9819 H   0  0  0  0  0  0  0  0  0  0  0  0
   -0.3126   -1.1679   -2.2882 C   0  0  0  0  0  0  0  0  0  0  0  0
    0.2157   -0.9656   -3.2231 H   0  0  0  0  0  0  0  0  0  0  0  0
   -0.2129   -2.2374   -2.0821 H   0  0  0  0  0  0  0  0  0  0  0  0
   -1.7975   -0.8945   -2.5173 C   0  0  0  0  0  0  0  0  0  0  0  0
   -2.1624    0.2590   -2.6438 O   0  0  0  0  0  0  0  0  0  0  0  0
   -2.6409   -1.9472   -2.6005 O   0  0  0  0  0  0  0  0  0  0  0  0
   -3.5036   -1.5533   -2.8016 H   0  0  0  0  0  0  0  0  0  0  0  0
   -0.4213    1.1683    0.7358 C   0  0  0  0  0  0  0  0  0  0  0  0
   -1.4114    1.8354    0.4646 O   0  0  0  0  0  0  0  0  0  0  0  0
    0.5300    1.6967    1.5900 N   0  0  0  0  0  0  0  0  0  0  0  0
    1.2947    1.0927    1.8767 H   0  0  0  0  0  0  0  0  0  0  0  0
    0.4273    3.0299    2.1717 C   0  0  0  0  0  0  0  0  0  0  0  0
   -0.4699    3.1082    2.7947 H   0  0  0  0  0  0  0  0  0  0  0  0
    1.3016    3.2387    2.7956 H   0  0  0  0  0  0  0  0  0  0  0  0
    0.3763    3.7891    1.3839 H   0  0  0  0  0  0  0  0  0  0  0  0
  1  2  1  0  0  0  0
  2  3  1  0  0  0  0
  2  4  1  0  0  0  0
  2  5  1  0  0  0  0
  5  6  2  0  0  0  0
  5  7  1  0  0  0  0
  7  8  1  0  0  0  0
  7  9  1  0  0  0  0
  9 10  1  0  0  0  0
  9 11  1  0  0  0  0
  9 21  1  0  0  0  0
 11 12  1  0  0  0  0
 11 13  1  0  0  0  0
 11 14  1  0  0  0  0
 14 15  1  0  0  0  0
 14 16  1  0  0  0  0
 14 17  1  0  0  0  0
 17 18  2  0  0  0  0
 17 19  1  0  0  0  0
 19 20  1  0  0  0  0
 21 22  2  0  0  0  0
 21 23  1  0  0  0  0
 23 24  1  0  0  0  0
 23 25  1  0  0  0  0
 25 26  1  0  0  0  0
 25 27  1  0  0  0  0
 25 28  1  0  0  0  0
M  END
$$$$

  -OEChem-03222214033D

 28 27  0     1  0  0  0  0  0999 V2000
   -3.2271   -3.7992    1.3115 H   0  0  0  0  0  0  0  0  0  0  0  0
   -3.2289   -2.7938    0.8814 C   0  0  0  0  0  0  0  0  0  0  0  0
   -3.8496   -2.1449    1.5038 H   0  0  0  0  0  0  0  0  0  0  0  0
   -3.6560   -2.8414   -0.1233 H   0  0  0  0  0  0  0  0  0  0  0  0
   -1.8143   -2.2508    0.8159 C   0  0  0  0  0  0  0  0  0  0  0  0
   -0.8789   -2.9247    1.2184 O   0  0  0  0  0  0  0  0  0  0  0  0
   -1.5828   -0.9982    0.2889 N   0  0  0  0  0  0  0  0  0  0  0  0
   -2.3954   -0.4450    0.0195 H   0  0  0  0  0  0  0  0  0  0  0  0
   -0.2751   -0.3293    0.2478 C   0  0  1  0  0  0  0  0  0  0  0  0
    0.3765   -0.8026    0.9898 H   0  0  0  0  0  0  0  0  0  0  0  0
    0.4436   -0.4389   -1.1265 C   0  0  0  0  0  0  0  0  0  0  0  0
    0.6517    0.5708   -1.4995 H   0  0  0  0  0  0  0  0  0  0  0  0
    1.4128   -0.9198   -0.9590 H   0  0  0  0  0  0  0  0  0  0  0  0
   -0.2767   -1.2114   -2.2574 C   0  0  0  0  0  0  0  0  0  0  0  0
    0.3602   -1.2251   -3.1456 H   0  0  0  0  0  0  0  0  0  0  0  0
   -0.4224   -2.2488   -1.9438 H   0  0  0  0  0  0  0  0  0  0  0  0
   -1.6322   -0.6319   -2.6577 C   0  0  0  0  0  0  0  0  0  0  0  0
   -1.6439    0.4634   -3.1874 O   0  0  0  0  0  0  0  0  0  0  0  0
   -2.7509   -1.3633   -2.4518 O   0  0  0  0  0  0  0  0  0  0  0  0
   -3.4632   -0.8185   -2.8221 H   0  0  0  0  0  0  0  0  0  0  0  0
   -0.4205    1.1423    0.6908 C   0  0  0  0  0  0  0  0  0  0  0  0
   -1.3945    1.7940    0.3343 O   0  0  0  0  0  0  0  0  0  0  0  0
    0.4815    1.7029    1.5768 N   0  0  0  0  0  0  0  0  0  0  0  0
    1.2293    1.1108    1.9264 H   0  0  0  0  0  0  0  0  0  0  0  0
    0.3405    3.0519    2.1126 C   0  0  0  0  0  0  0  0  0  0  0  0
   -0.5625    3.1267    2.7274 H   0  0  0  0  0  0  0  0  0  0  0  0
    1.2051    3.3054    2.7336 H   0  0  0  0  0  0  0  0  0  0  0  0
    0.2749    3.7832    1.2999 H   0  0  0  0  0  0  0  0  0  0  0  0
  1  2  1  0  0  0  0
  2  3  1  0  0  0  0
  2  4  1  0  0  0  0
  2  5  1  0  0  0  0
  5  6  2  0  0  0  0
  5  7  1  0  0  0  0
  7  8  1  0  0  0  0
  7  9  1  0  0  0  0
  9 10  1  0  0  0  0
  9 11  1  0  0  0  0
  9 21  1  0  0  0  0
 11 12  1  0  0  0  0
 11 13  1  0  0  0  0
 11 14  1  0  0  0  0
 14 15  1  0  0  0  0
 14 16  1  0  0  0  0
 14 17  1  0  0  0  0
 17 18  2  0  0  0  0
 17 19  1  0  0  0  0
 19 20  1  0  0  0  0
 21 22  2  0  0  0  0
 21 23  1  0  0  0  0
 23 24  1  0  0  0  0
 23 25  1  0  0  0  0
 25 26  1  0  0  0  0
 25 27  1  0  0  0  0
 25 28  1  0  0  0  0
M  END
$$$$

  -OEChem-03222214033D

 28 27  0     1  0  0  0  0  0999 V2000
   -3.1919   -3.8943    1.1907 H   0  0  0  0  0  0  0  0  0  0  0  0
   -3.1882   -2.8883    0.7623 C   0  0  0  0  0  0  0  0  0  0  0  0
   -3.9063   -2.2697    1.3060 H   0  0  0  0  0  0  0  0  0  0  0  0
   -3.4915   -2.9492   -0.2858 H   0  0  0  0  0  0  0  0  0  0  0  0
   -1.8025   -2.2808    0.8647 C   0  0  0  0  0  0  0  0  0  0  0  0
   -0.9029   -2.8895    1.4224 O   0  0  0  0  0  0  0  0  0  0  0  0
   -1.5557   -1.0481    0.3018 N   0  0  0  0  0  0  0  0  0  0  0  0
   -2.3201   -0.6086   -0.2140 H   0  0  0  0  0  0  0  0  0  0  0  0
   -0.2515   -0.3703    0.2779 C   0  0  1  0  0  0  0  0  0  0  0  0
    0.4022   -0.8191    1.0329 H   0  0  0  0  0  0  0  0  0  0  0  0
    0.4604   -0.4772   -1.1005 C   0  0  0  0  0  0  0  0  0  0  0  0
    0.6948    0.5247   -1.4798 H   0  0  0  0  0  0  0  0  0  0  0  0
    1.4179   -0.9807   -0.9328 H   0  0  0  0  0  0  0  0  0  0  0  0
   -0.2844   -1.2534   -2.2104 C   0  0  0  0  0  0  0  0  0  0  0  0
    0.4165   -1.4694   -3.0215 H   0  0  0  0  0  0  0  0  0  0  0  0
   -0.6472   -2.2149   -1.8390 H   0  0  0  0  0  0  0  0  0  0  0  0
   -1.4446   -0.4510   -2.7977 C   0  0  0  0  0  0  0  0  0  0  0  0
   -1.1973    0.3068   -3.7174 O   0  0  0  0  0  0  0  0  0  0  0  0
   -2.6881   -0.6162   -2.2892 O   0  0  0  0  0  0  0  0  0  0  0  0
   -3.2349    0.0091   -2.7927 H   0  0  0  0  0  0  0  0  0  0  0  0
   -0.4293    1.1141    0.6632 C   0  0  0  0  0  0  0  0  0  0  0  0
   -1.3424    1.7683    0.1730 O   0  0  0  0  0  0  0  0  0  0  0  0
    0.4337    1.7188    1.5585 N   0  0  0  0  0  0  0  0  0  0  0  0
    1.1428    1.1375    1.9960 H   0  0  0  0  0  0  0  0  0  0  0  0
    0.2936    3.1050    1.9885 C   0  0  0  0  0  0  0  0  0  0  0  0
   -0.6646    3.2539    2.4974 H   0  0  0  0  0  0  0  0  0  0  0  0
    1.0981    3.3700    2.6814 H   0  0  0  0  0  0  0  0  0  0  0  0
    0.3438    3.7805    1.1278 H   0  0  0  0  0  0  0  0  0  0  0  0
  1  2  1  0  0  0  0
  2  3  1  0  0  0  0
  2  4  1  0  0  0  0
  2  5  1  0  0  0  0
  5  6  2  0  0  0  0
  5  7  1  0  0  0  0
  7  8  1  0  0  0  0
  7  9  1  0  0  0  0
  9 10  1  0  0  0  0
  9 11  1  0  0  0  0
  9 21  1  0  0  0  0
 11 12  1  0  0  0  0
 11 13  1  0  0  0  0
 11 14  1  0  0  0  0
 14 15  1  0  0  0  0
 14 16  1  0  0  0  0
 14 17  1  0  0  0  0
 17 18  2  0  0  0  0
 17 19  1  0  0  0  0
 19 20  1  0  0  0  0
 21 22  2  0  0  0  0
 21 23  1  0  0  0  0
 23 24  1  0  0  0  0
 23 25  1  0  0  0  0
 25 26  1  0  0  0  0
 25 27  1  0  0  0  0
 25 28  1  0  0  0  0
M  END
$$$$

  -OEChem-03222214033D

 28 27  0     1  0  0  0  0  0999 V2000
   -3.2010   -3.8858    1.2633 H   0  0  0  0  0  0  0  0  0  0  0  0
   -3.1960   -2.8914    0.8082 C   0  0  0  0  0  0  0  0  0  0  0  0
   -3.8941   -2.2507    1.3523 H   0  0  0  0  0  0  0  0  0  0  0  0
   -3.5252   -2.9771   -0.2304 H   0  0  0  0  0  0  0  0  0  0  0  0
   -1.8013   -2.2981    0.8617 C   0  0  0  0  0  0  0  0  0  0  0  0
   -0.8905   -2.9140    1.3921 O   0  0  0  0  0  0  0  0  0  0  0  0
   -1.5586   -1.0696    0.2866 N   0  0  0  0  0  0  0  0  0  0  0  0
   -2.3428   -0.5920   -0.1594 H   0  0  0  0  0  0  0  0  0  0  0  0
   -0.2591   -0.3800    0.2671 C   0  0  1  0  0  0  0  0  0  0  0  0
    0.3888   -0.8143    1.0358 H   0  0  0  0  0  0  0  0  0  0  0  0
    0.4727   -0.4954   -1.0992 C   0  0  0  0  0  0  0  0  0  0  0  0
    0.7208    0.5008   -1.4852 H   0  0  0  0  0  0  0  0  0  0  0  0
    1.4258   -0.9987   -0.9066 H   0  0  0  0  0  0  0  0  0  0  0  0
   -0.2551   -1.2980   -2.2023 C   0  0  0  0  0  0  0  0  0  0  0  0
    0.4966   -1.7117   -2.8805 H   0  0  0  0  0  0  0  0  0  0  0  0
   -0.8135   -2.1496   -1.8103 H   0  0  0  0  0  0  0  0  0  0  0  0
   -1.1582   -0.3939   -3.0298 C   0  0  0  0  0  0  0  0  0  0  0  0
   -0.6806    0.2021   -3.9782 O   0  0  0  0  0  0  0  0  0  0  0  0
   -2.4525   -0.2843   -2.6539 O   0  0  0  0  0  0  0  0  0  0  0  0
   -2.8281    0.3745   -3.2591 H   0  0  0  0  0  0  0  0  0  0  0  0
   -0.4488    1.1078    0.6325 C   0  0  0  0  0  0  0  0  0  0  0  0
   -1.3673    1.7485    0.1348 O   0  0  0  0  0  0  0  0  0  0  0  0
    0.4036    1.7274    1.5277 N   0  0  0  0  0  0  0  0  0  0  0  0
    1.1244    1.1594    1.9637 H   0  0  0  0  0  0  0  0  0  0  0  0
    0.2613    3.1210    1.9326 C   0  0  0  0  0  0  0  0  0  0  0  0
   -0.7058    3.2820    2.4205 H   0  0  0  0  0  0  0  0  0  0  0  0
    1.0534    3.3931    2.6368 H   0  0  0  0  0  0  0  0  0  0  0  0
    0.3316    3.7821    1.0622 H   0  0  0  0  0  0  0  0  0  0  0  0
  1  2  1  0  0  0  0
  2  3  1  0  0  0  0
  2  4  1  0  0  0  0
  2  5  1  0  0  0  0
  5  6  2  0  0  0  0
  5  7  1  0  0  0  0
  7  8  1  0  0  0  0
  7  9  1  0  0  0  0
  9 10  1  0  0  0  0
  9 11  1  0  0  0  0
  9 21  1  0  0  0  0
 11 12  1  0  0  0  0
 11 13  1  0  0  0  0
 11 14  1  0  0  0  0
 14 15  1  0  0  0  0
 14 16  1  0  0  0  0
 14 17  1  0  0  0  0
 17 18  2  0  0  0  0
 17 19  1  0  0  0  0
 19 20  1  0  0  0  0
 21 22  2  0  0  0  0
 21 23  1  0  0  0  0
 23 24  1  0  0  0  0
 23 25  1  0  0  0  0
 25 26  1  0  0  0  0
 25 27  1  0  0  0  0
 25 28  1  0  0  0  0
M  END
$$$$

  -OEChem-03222214033D

 28 27  0     1  0  0  0  0  0999 V2000
   -3.2106   -3.8531    1.3884 H   0  0  0  0  0  0  0  0  0  0  0  0
   -3.2134   -2.8615    0.9272 C   0  0  0  0  0  0  0  0  0  0  0  0
   -3.8570   -2.2016    1.5143 H   0  0  0  0  0  0  0  0  0  0  0  0
   -3.6159   -2.9449   -0.0854 H   0  0  0  0  0  0  0  0  0  0  0  0
   -1.8040   -2.3030    0.8796 C   0  0  0  0  0  0  0  0  0  0  0  0
   -0.8728   -2.9438    1.3403 O   0  0  0  0  0  0  0  0  0  0  0  0
   -1.5737   -1.0748    0.2975 N   0  0  0  0  0  0  0  0  0  0  0  0
   -2.3840   -0.5451   -0.0234 H   0  0  0  0  0  0  0  0  0  0  0  0
   -0.2733   -0.3878    0.2577 C   0  0  1  0  0  0  0  0  0  0  0  0
    0.3759   -0.8184    1.0275 H   0  0  0  0  0  0  0  0  0  0  0  0
    0.4653   -0.5074   -1.1051 C   0  0  0  0  0  0  0  0  0  0  0  0
    0.7183    0.4912   -1.4815 H   0  0  0  0  0  0  0  0  0  0  0  0
    1.4192   -1.0046   -0.9005 H   0  0  0  0  0  0  0  0  0  0  0  0
   -0.2332   -1.3143   -2.2302 C   0  0  0  0  0  0  0  0  0  0  0  0
    0.5200   -1.9316   -2.7275 H   0  0  0  0  0  0  0  0  0  0  0  0
   -0.9938   -2.0045   -1.8655 H   0  0  0  0  0  0  0  0  0  0  0  0
   -0.8267   -0.3982   -3.2919 C   0  0  0  0  0  0  0  0  0  0  0  0
   -0.0745    0.1581   -4.0721 O   0  0  0  0  0  0  0  0  0  0  0  0
   -2.1673   -0.2354   -3.3053 O   0  0  0  0  0  0  0  0  0  0  0  0
   -2.3335    0.4073   -4.0119 H   0  0  0  0  0  0  0  0  0  0  0  0
   -0.4604    1.0998    0.6245 C   0  0  0  0  0  0  0  0  0  0  0  0
   -1.4073    1.7268    0.1642 O   0  0  0  0  0  0  0  0  0  0  0  0
    0.4021    1.7244    1.5065 N   0  0  0  0  0  0  0  0  0  0  0  0
    1.1489    1.1677    1.9124 H   0  0  0  0  0  0  0  0  0  0  0  0
    0.2517    3.1146    1.9203 C   0  0  0  0  0  0  0  0  0  0  0  0
   -0.7032    3.2599    2.4363 H   0  0  0  0  0  0  0  0  0  0  0  0
    1.0598    3.3965    2.6021 H   0  0  0  0  0  0  0  0  0  0  0  0
    0.2870    3.7798    1.0508 H   0  0  0  0  0  0  0  0  0  0  0  0
  1  2  1  0  0  0  0
  2  3  1  0  0  0  0
  2  4  1  0  0  0  0
  2  5  1  0  0  0  0
  5  6  2  0  0  0  0
  5  7  1  0  0  0  0
  7  8  1  0  0  0  0
  7  9  1  0  0  0  0
  9 10  1  0  0  0  0
  9 11  1  0  0  0  0
  9 21  1  0  0  0  0
 11 12  1  0  0  0  0
 11 13  1  0  0  0  0
 11 14  1  0  0  0  0
 14 15  1  0  0  0  0
 14 16  1  0  0  0  0
 14 17  1  0  0  0  0
 17 18  2  0  0  0  0
 17 19  1  0  0  0  0
 19 20  1  0  0  0  0
 21 22  2  0  0  0  0
 21 23  1  0  0  0  0
 23 24  1  0  0  0  0
 23 25  1  0  0  0  0
 25 26  1  0  0  0  0
 25 27  1  0  0  0  0
 25 28  1  0  0  0  0
M  END
$$$$

  -OEChem-03222214033D

 28 27  0     1  0  0  0  0  0999 V2000
   -3.2102   -3.8374    1.4756 H   0  0  0  0  0  0  0  0  0  0  0  0
   -3.2227   -2.8482    1.0094 C   0  0  0  0  0  0  0  0  0  0  0  0
   -3.8320   -2.1781    1.6206 H   0  0  0  0  0  0  0  0  0  0  0  0
   -3.6708   -2.9329    0.0163 H   0  0  0  0  0  0  0  0  0  0  0  0
   -1.8109   -2.3053    0.8963 C   0  0  0  0  0  0  0  0  0  0  0  0
   -0.8674   -2.9596    1.3101 O   0  0  0  0  0  0  0  0  0  0  0  0
   -1.5935   -1.0750    0.3129 N   0  0  0  0  0  0  0  0  0  0  0  0
   -2.4133   -0.5238    0.0599 H   0  0  0  0  0  0  0  0  0  0  0  0
   -0.2926   -0.3902    0.2542 C   0  0  1  0  0  0  0  0  0  0  0  0
    0.3609   -0.8212    1.0202 H   0  0  0  0  0  0  0  0  0  0  0  0
    0.4472   -0.5160   -1.1090 C   0  0  0  0  0  0  0  0  0  0  0  0
    0.6744    0.4904   -1.4809 H   0  0  0  0  0  0  0  0  0  0  0  0
    1.4150   -0.9882   -0.9104 H   0  0  0  0  0  0  0  0  0  0  0  0
   -0.2355   -1.3283   -2.2452 C   0  0  0  0  0  0  0  0  0  0  0  0
    0.4233   -2.1511   -2.5353 H   0  0  0  0  0  0  0  0  0  0  0  0
   -1.1784   -1.7823   -1.9439 H   0  0  0  0  0  0  0  0  0  0  0  0
   -0.4950   -0.4790   -3.4843 C   0  0  0  0  0  0  0  0  0  0  0  0
    0.4584   -0.0087   -4.0794 O   0  0  0  0  0  0  0  0  0  0  0  0
   -1.7763   -0.2847   -3.8638 O   0  0  0  0  0  0  0  0  0  0  0  0
   -1.7223    0.2910   -4.6419 H   0  0  0  0  0  0  0  0  0  0  0  0
   -0.4727    1.0966    0.6285 C   0  0  0  0  0  0  0  0  0  0  0  0
   -1.4355    1.7197    0.1967 O   0  0  0  0  0  0  0  0  0  0  0  0
    0.4038    1.7188    1.4984 N   0  0  0  0  0  0  0  0  0  0  0  0
    1.1694    1.1667    1.8746 H   0  0  0  0  0  0  0  0  0  0  0  0
    0.2686    3.1116    1.9089 C   0  0  0  0  0  0  0  0  0  0  0  0
   -0.6705    3.2623    2.4517 H   0  0  0  0  0  0  0  0  0  0  0  0
    1.0972    3.3952    2.5651 H   0  0  0  0  0  0  0  0  0  0  0  0
    0.2801    3.7715    1.0349 H   0  0  0  0  0  0  0  0  0  0  0  0
  1  2  1  0  0  0  0
  2  3  1  0  0  0  0
  2  4  1  0  0  0  0
  2  5  1  0  0  0  0
  5  6  2  0  0  0  0
  5  7  1  0  0  0  0
  7  8  1  0  0  0  0
  7  9  1  0  0  0  0
  9 10  1  0  0  0  0
  9 11  1  0  0  0  0
  9 21  1  0  0  0  0
 11 12  1  0  0  0  0
 11 13  1  0  0  0  0
 11 14  1  0  0  0  0
 14 15  1  0  0  0  0
 14 16  1  0  0  0  0
 14 17  1  0  0  0  0
 17 18  2  0  0  0  0
 17 19  1  0  0  0  0
 19 20  1  0  0  0  0
 21 22  2  0  0  0  0
 21 23  1  0  0  0  0
 23 24  1  0  0  0  0
 23 25  1  0  0  0  0
 25 26  1  0  0  0  0
 25 27  1  0  0  0  0
 25 28  1  0  0  0  0
M  END
$$$$

  -OEChem-03222214033D

 28 27  0     1  0  0  0  0  0999 V2000
   -3.2185   -3.7934    1.5204 H   0  0  0  0  0  0  0  0  0  0  0  0
   -3.2281   -2.8075    1.0473 C   0  0  0  0  0  0  0  0  0  0  0  0
   -3.8106   -2.1238    1.6698 H   0  0  0  0  0  0  0  0  0  0  0  0
   -3.7040   -2.8918    0.0672 H   0  0  0  0  0  0  0  0  0  0  0  0
   -1.8115   -2.2877    0.8923 C   0  0  0  0  0  0  0  0  0  0  0  0
   -0.8664   -2.9585    1.2751 O   0  0  0  0  0  0  0  0  0  0  0  0
   -1.5935   -1.0574    0.3097 N   0  0  0  0  0  0  0  0  0  0  0  0
   -2.4127   -0.4872    0.1009 H   0  0  0  0  0  0  0  0  0  0  0  0
   -0.2879   -0.3824    0.2408 C   0  0  1  0  0  0  0  0  0  0  0  0
    0.3660   -0.8187    1.0033 H   0  0  0  0  0  0  0  0  0  0  0  0
    0.4447   -0.5261   -1.1241 C   0  0  0  0  0  0  0  0  0  0  0  0
    0.6370    0.4837   -1.5056 H   0  0  0  0  0  0  0  0  0  0  0  0
    1.4267   -0.9760   -0.9445 H   0  0  0  0  0  0  0  0  0  0  0  0
   -0.2559   -1.3440   -2.2451 C   0  0  0  0  0  0  0  0  0  0  0  0
    0.2045   -2.3325   -2.3211 H   0  0  0  0  0  0  0  0  0  0  0  0
   -1.3144   -1.4977   -2.0366 H   0  0  0  0  0  0  0  0  0  0  0  0
   -0.1929   -0.6528   -3.6044 C   0  0  0  0  0  0  0  0  0  0  0  0
    0.8827   -0.2447   -4.0063 O   0  0  0  0  0  0  0  0  0  0  0  0
   -1.3396   -0.5331   -4.3077 O   0  0  0  0  0  0  0  0  0  0  0  0
   -1.0872   -0.0690   -5.1205 H   0  0  0  0  0  0  0  0  0  0  0  0
   -0.4561    1.1042    0.6211 C   0  0  0  0  0  0  0  0  0  0  0  0
   -1.4347    1.7246    0.2214 O   0  0  0  0  0  0  0  0  0  0  0  0
    0.4310    1.7195    1.4849 N   0  0  0  0  0  0  0  0  0  0  0  0
    1.2044    1.1659    1.8428 H   0  0  0  0  0  0  0  0  0  0  0  0
    0.2751    3.0949    1.9433 C   0  0  0  0  0  0  0  0  0  0  0  0
   -0.6617    3.2098    2.4986 H   0  0  0  0  0  0  0  0  0  0  0  0
    1.1037    3.3710    2.6026 H   0  0  0  0  0  0  0  0  0  0  0  0
    0.2666    3.7844    1.0925 H   0  0  0  0  0  0  0  0  0  0  0  0
  1  2  1  0  0  0  0
  2  3  1  0  0  0  0
  2  4  1  0  0  0  0
  2  5  1  0  0  0  0
  5  6  2  0  0  0  0
  5  7  1  0  0  0  0
  7  8  1  0  0  0  0
  7  9  1  0  0  0  0
  9 10  1  0  0  0  0
  9 11  1  0  0  0  0
  9 21  1  0  0  0  0
 11 12  1  0  0  0  0
 11 13  1  0  0  0  0
 11 14  1  0  0  0  0
 14 15  1  0  0  0  0
 14 16  1  0  0  0  0
 14 17  1  0  0  0  0
 17 18  2  0  0  0  0
 17 19  1  0  0  0  0
 19 20  1  0  0  0  0
 21 22  2  0  0  0  0
 21 23  1  0  0  0  0
 23 24  1  0  0  0  0
 23 25  1  0  0  0  0
 25 26  1  0  0  0  0
 25 27  1  0  0  0  0
 25 28  1  0  0  0  0
M  END
$$$$

  -OEChem-03222214033D

 28 27  0     1  0  0  0  0  0999 V2000
   -3.2253   -3.7784    1.5063 H   0  0  0  0  0  0  0  0  0  0  0  0
   -3.2320   -2.7963    1.0253 C   0  0  0  0  0  0  0  0  0  0  0  0
   -3.8197   -2.1081    1.6378 H   0  0  0  0  0  0  0  0  0  0  0  0
   -3.6997   -2.8886    0.0421 H   0  0  0  0  0  0  0  0  0  0  0  0
   -1.8142   -2.2783    0.8772 C   0  0  0  0  0  0  0  0  0  0  0  0
   -0.8718   -2.9549    1.2560 O   0  0  0  0  0  0  0  0  0  0  0  0
   -1.5915   -1.0445    0.3034 N   0  0  0  0  0  0  0  0  0  0  0  0
   -2.4088   -0.4693    0.1016 H   0  0  0  0  0  0  0  0  0  0  0  0
   -0.2829   -0.3728    0.2463 C   0  0  1  0  0  0  0  0  0  0  0  0
    0.3676   -0.8174    1.0068 H   0  0  0  0  0  0  0  0  0  0  0  0
    0.4442   -0.5169   -1.1194 C   0  0  0  0  0  0  0  0  0  0  0  0
    0.6237    0.4924   -1.5082 H   0  0  0  0  0  0  0  0  0  0  0  0
    1.4284   -0.9676   -0.9540 H   0  0  0  0  0  0  0  0  0  0  0  0
   -0.2865   -1.3300   -2.2194 C   0  0  0  0  0  0  0  0  0  0  0  0
   -0.0580   -2.3934   -2.1125 H   0  0  0  0  0  0  0  0  0  0  0  0
   -1.3673   -1.2098   -2.1277 H   0  0  0  0  0  0  0  0  0  0  0  0
    0.0502   -0.8685   -3.6363 C   0  0  0  0  0  0  0  0  0  0  0  0
    1.1665   -0.4422   -3.8780 O   0  0  0  0  0  0  0  0  0  0  0  0
   -0.9182   -0.9725   -4.5716 O   0  0  0  0  0  0  0  0  0  0  0  0
   -0.5151   -0.6365   -5.3867 H   0  0  0  0  0  0  0  0  0  0  0  0
   -0.4411    1.1125    0.6346 C   0  0  0  0  0  0  0  0  0  0  0  0
   -1.4111    1.7440    0.2313 O   0  0  0  0  0  0  0  0  0  0  0  0
    0.4475    1.7145    1.5060 N   0  0  0  0  0  0  0  0  0  0  0  0
    1.2177    1.1533    1.8588 H   0  0  0  0  0  0  0  0  0  0  0  0
    0.3113    3.0930    1.9609 C   0  0  0  0  0  0  0  0  0  0  0  0
   -0.6333    3.2276    2.4984 H   0  0  0  0  0  0  0  0  0  0  0  0
    1.1328    3.3521    2.6358 H   0  0  0  0  0  0  0  0  0  0  0  0
    0.3334    3.7818    1.1098 H   0  0  0  0  0  0  0  0  0  0  0  0
  1  2  1  0  0  0  0
  2  3  1  0  0  0  0
  2  4  1  0  0  0  0
  2  5  1  0  0  0  0
  5  6  2  0  0  0  0
  5  7  1  0  0  0  0
  7  8  1  0  0  0  0
  7  9  1  0  0  0  0
  9 10  1  0  0  0  0
  9 11  1  0  0  0  0
  9 21  1  0  0  0  0
 11 12  1  0  0  0  0
 11 13  1  0  0  0  0
 11 14  1  0  0  0  0
 14 15  1  0  0  0  0
 14 16  1  0  0  0  0
 14 17  1  0  0  0  0
 17 18  2  0  0  0  0
 17 19  1  0  0  0  0
 19 20  1  0  0  0  0
 21 22  2  0  0  0  0
 21 23  1  0  0  0  0
 23 24  1  0  0  0  0
 23 25  1  0  0  0  0
 25 26  1  0  0  0  0
 25 27  1  0  0  0  0
 25 28  1  0  0  0  0
M  END
$$$$

  -OEChem-03222214033D

 28 27  0     1  0  0  0  0  0999 V2000
   -3.2442   -3.7541    1.4896 H   0  0  0  0  0  0  0  0  0  0  0  0
   -3.2388   -2.7759    1.0006 C   0  0  0  0  0  0  0  0  0  0  0  0
   -3.8255   -2.0787    1.6034 H   0  0  0  0  0  0  0  0  0  0  0  0
   -3.7001   -2.8719    0.0148 H   0  0  0  0  0  0  0  0  0  0  0  0
   -1.8159   -2.2699    0.8587 C   0  0  0  0  0  0  0  0  0  0  0  0
   -0.8809   -2.9565    1.2379 O   0  0  0  0  0  0  0  0  0  0  0  0
   -1.5798   -1.0356    0.2912 N   0  0  0  0  0  0  0  0  0  0  0  0
   -2.3911   -0.4509    0.0927 H   0  0  0  0  0  0  0  0  0  0  0  0
   -0.2656   -0.3721    0.2501 C   0  0  1  0  0  0  0  0  0  0  0  0
    0.3810   -0.8260    1.0087 H   0  0  0  0  0  0  0  0  0  0  0  0
    0.4554   -0.5100   -1.1173 C   0  0  0  0  0  0  0  0  0  0  0  0
    0.6519    0.4945   -1.5104 H   0  0  0  0  0  0  0  0  0  0  0  0
    1.4294   -0.9851   -0.9578 H   0  0  0  0  0  0  0  0  0  0  0  0
   -0.3088   -1.3080   -2.2000 C   0  0  0  0  0  0  0  0  0  0  0  0
   -0.3057   -2.3722   -1.9497 H   0  0  0  0  0  0  0  0  0  0  0  0
   -1.3475   -0.9705   -2.2373 H   0  0  0  0  0  0  0  0  0  0  0  0
    0.2503   -1.1212   -3.6102 C   0  0  0  0  0  0  0  0  0  0  0  0
    1.3769   -0.6816   -3.7648 O   0  0  0  0  0  0  0  0  0  0  0  0
   -0.5502   -1.4730   -4.6388 O   0  0  0  0  0  0  0  0  0  0  0  0
   -0.0282   -1.2898   -5.4349 H   0  0  0  0  0  0  0  0  0  0  0  0
   -0.4206    1.1123    0.6421 C   0  0  0  0  0  0  0  0  0  0  0  0
   -1.3854    1.7479    0.2324 O   0  0  0  0  0  0  0  0  0  0  0  0
    0.4603    1.7087    1.5250 N   0  0  0  0  0  0  0  0  0  0  0  0
    1.2283    1.1460    1.8802 H   0  0  0  0  0  0  0  0  0  0  0  0
    0.3252    3.0879    1.9785 C   0  0  0  0  0  0  0  0  0  0  0  0
   -0.6288    3.2293    2.4976 H   0  0  0  0  0  0  0  0  0  0  0  0
    1.1350    3.3407    2.6695 H   0  0  0  0  0  0  0  0  0  0  0  0
    0.3690    3.7766    1.1281 H   0  0  0  0  0  0  0  0  0  0  0  0
  1  2  1  0  0  0  0
  2  3  1  0  0  0  0
  2  4  1  0  0  0  0
  2  5  1  0  0  0  0
  5  6  2  0  0  0  0
  5  7  1  0  0  0  0
  7  8  1  0  0  0  0
  7  9  1  0  0  0  0
  9 10  1  0  0  0  0
  9 11  1  0  0  0  0
  9 21  1  0  0  0  0
 11 12  1  0  0  0  0
 11 13  1  0  0  0  0
 11 14  1  0  0  0  0
 14 15  1  0  0  0  0
 14 16  1  0  0  0  0
 14 17  1  0  0  0  0
 17 18  2  0  0  0  0
 17 19  1  0  0  0  0
 19 20  1  0  0  0  0
 21 22  2  0  0  0  0
 21 23  1  0  0  0  0
 23 24  1  0  0  0  0
 23 25  1  0  0  0  0
 25 26  1  0  0  0  0
 25 27  1  0  0  0  0
 25 28  1  0  0  0  0
M  END
$$$$

  -OEChem-03222214033D

 28 27  0     1  0  0  0  0  0999 V2000
   -3.2549   -3.7462    1.4655 H   0  0  0  0  0  0  0  0  0  0  0  0
   -3.2376   -2.7708    0.9711 C   0  0  0  0  0  0  0  0  0  0  0  0
   -3.8359   -2.0687    1.5569 H   0  0  0  0  0  0  0  0  0  0  0  0
   -3.6773   -2.8725   -0.0241 H   0  0  0  0  0  0  0  0  0  0  0  0
   -1.8113   -2.2678    0.8569 C   0  0  0  0  0  0  0  0  0  0  0  0
   -0.8857   -2.9521    1.2619 O   0  0  0  0  0  0  0  0  0  0  0  0
   -1.5622   -1.0364    0.2891 N   0  0  0  0  0  0  0  0  0  0  0  0
   -2.3675   -0.4508    0.0712 H   0  0  0  0  0  0  0  0  0  0  0  0
   -0.2429   -0.3834    0.2591 C   0  0  1  0  0  0  0  0  0  0  0  0
    0.4104   -0.8374    1.0118 H   0  0  0  0  0  0  0  0  0  0  0  0
    0.4570   -0.4998   -1.1186 C   0  0  0  0  0  0  0  0  0  0  0  0
    0.9369    0.4529   -1.3710 H   0  0  0  0  0  0  0  0  0  0  0  0
    1.2545   -1.2455   -1.0266 H   0  0  0  0  0  0  0  0  0  0  0  0
   -0.4605   -0.9304   -2.2857 C   0  0  0  0  0  0  0  0  0  0  0  0
   -0.8953   -1.9100   -2.0715 H   0  0  0  0  0  0  0  0  0  0  0  0
   -1.2758   -0.2094   -2.3906 H   0  0  0  0  0  0  0  0  0  0  0  0
    0.2559   -1.0362   -3.6315 C   0  0  0  0  0  0  0  0  0  0  0  0
    1.4384   -0.7533   -3.7211 O   0  0  0  0  0  0  0  0  0  0  0  0
   -0.4827   -1.4516   -4.6821 O   0  0  0  0  0  0  0  0  0  0  0  0
    0.1317   -1.4570   -5.4320 H   0  0  0  0  0  0  0  0  0  0  0  0
   -0.4027    1.1010    0.6486 C   0  0  0  0  0  0  0  0  0  0  0  0
   -1.3509    1.7433    0.2108 O   0  0  0  0  0  0  0  0  0  0  0  0
    0.4684    1.6970    1.5416 N   0  0  0  0  0  0  0  0  0  0  0  0
    1.2216    1.1286    1.9186 H   0  0  0  0  0  0  0  0  0  0  0  0
    0.3350    3.0787    1.9878 C   0  0  0  0  0  0  0  0  0  0  0  0
   -0.6299    3.2309    2.4832 H   0  0  0  0  0  0  0  0  0  0  0  0
    1.1299    3.3256    2.6982 H   0  0  0  0  0  0  0  0  0  0  0  0
    0.4065    3.7648    1.1372 H   0  0  0  0  0  0  0  0  0  0  0  0
  1  2  1  0  0  0  0
  2  3  1  0  0  0  0
  2  4  1  0  0  0  0
  2  5  1  0  0  0  0
  5  6  2  0  0  0  0
  5  7  1  0  0  0  0
  7  8  1  0  0  0  0
  7  9  1  0  0  0  0
  9 10  1  0  0  0  0
  9 11  1  0  0  0  0
  9 21  1  0  0  0  0
 11 12  1  0  0  0  0
 11 13  1  0  0  0  0
 11 14  1  0  0  0  0
 14 15  1  0  0  0  0
 14 16  1  0  0  0  0
 14 17  1  0  0  0  0
 17 18  2  0  0  0  0
 17 19  1  0  0  0  0
 19 20  1  0  0  0  0
 21 22  2  0  0  0  0
 21 23  1  0  0  0  0
 23 24  1  0  0  0  0
 23 25  1  0  0  0  0
 25 26  1  0  0  0  0
 25 27  1  0  0  0  0
 25 28  1  0  0  0  0
M  END
$$$$

  -OEChem-03222214033D

 28 27  0     1  0  0  0  0  0999 V2000
   -3.2795   -3.7353    1.4907 H   0  0  0  0  0  0  0  0  0  0  0  0
   -3.2607   -2.7660    0.9847 C   0  0  0  0  0  0  0  0  0  0  0  0
   -3.8590   -2.0565    1.5615 H   0  0  0  0  0  0  0  0  0  0  0  0
   -3.6993   -2.8795   -0.0095 H   0  0  0  0  0  0  0  0  0  0  0  0
   -1.8336   -2.2659    0.8661 C   0  0  0  0  0  0  0  0  0  0  0  0
   -0.9082   -2.9533    1.2662 O   0  0  0  0  0  0  0  0  0  0  0  0
   -1.5831   -1.0330    0.3018 N   0  0  0  0  0  0  0  0  0  0  0  0
   -2.3872   -0.4444    0.0872 H   0  0  0  0  0  0  0  0  0  0  0  0
   -0.2606   -0.3879    0.2606 C   0  0  1  0  0  0  0  0  0  0  0  0
    0.3960   -0.8489    1.0062 H   0  0  0  0  0  0  0  0  0  0  0  0
    0.4356   -0.4895   -1.1210 C   0  0  0  0  0  0  0  0  0  0  0  0
    0.9392    0.4531   -1.3644 H   0  0  0  0  0  0  0  0  0  0  0  0
    1.2179   -1.2503   -1.0208 H   0  0  0  0  0  0  0  0  0  0  0  0
   -0.4669   -0.9025   -2.3087 C   0  0  0  0  0  0  0  0  0  0  0  0
   -1.0836   -1.7603   -2.0320 H   0  0  0  0  0  0  0  0  0  0  0  0
   -1.1324   -0.0761   -2.5709 H   0  0  0  0  0  0  0  0  0  0  0  0
    0.3152   -1.3321   -3.5496 C   0  0  0  0  0  0  0  0  0  0  0  0
    1.4933   -1.0376   -3.6585 O   0  0  0  0  0  0  0  0  0  0  0  0
   -0.3610   -2.0228   -4.4921 O   0  0  0  0  0  0  0  0  0  0  0  0
    0.2906   -2.1971   -5.1885 H   0  0  0  0  0  0  0  0  0  0  0  0
   -0.4089    1.0952    0.6597 C   0  0  0  0  0  0  0  0  0  0  0  0
   -1.3557    1.7465    0.2326 O   0  0  0  0  0  0  0  0  0  0  0  0
    0.4755    1.6807    1.5464 N   0  0  0  0  0  0  0  0  0  0  0  0
    1.2325    1.1068    1.9075 H   0  0  0  0  0  0  0  0  0  0  0  0
    0.3645    3.0650    1.9903 C   0  0  0  0  0  0  0  0  0  0  0  0
   -0.5961    3.2321    2.4890 H   0  0  0  0  0  0  0  0  0  0  0  0
    1.1660    3.3014    2.6968 H   0  0  0  0  0  0  0  0  0  0  0  0
    0.4422    3.7481    1.1378 H   0  0  0  0  0  0  0  0  0  0  0  0
  1  2  1  0  0  0  0
  2  3  1  0  0  0  0
  2  4  1  0  0  0  0
  2  5  1  0  0  0  0
  5  6  2  0  0  0  0
  5  7  1  0  0  0  0
  7  8  1  0  0  0  0
  7  9  1  0  0  0  0
  9 10  1  0  0  0  0
  9 11  1  0  0  0  0
  9 21  1  0  0  0  0
 11 12  1  0  0  0  0
 11 13  1  0  0  0  0
 11 14  1  0  0  0  0
 14 15  1  0  0  0  0
 14 16  1  0  0  0  0
 14 17  1  0  0  0  0
 17 18  2  0  0  0  0
 17 19  1  0  0  0  0
 19 20  1  0  0  0  0
 21 22  2  0  0  0  0
 21 23  1  0  0  0  0
 23 24  1  0  0  0  0
 23 25  1  0  0  0  0
 25 26  1  0  0  0  0
 25 27  1  0  0  0  0
 25 28  1  0  0  0  0
M  END
$$$$

  -OEChem-03222214033D

 28 27  0     1  0  0  0  0  0999 V2000
   -3.3039   -3.7215    1.5067 H   0  0  0  0  0  0  0  0  0  0  0  0
   -3.2835   -2.7541    0.9972 C   0  0  0  0  0  0  0  0  0  0  0  0
   -3.8731   -2.0392    1.5761 H   0  0  0  0  0  0  0  0  0  0  0  0
   -3.7308   -2.8680    0.0068 H   0  0  0  0  0  0  0  0  0  0  0  0
   -1.8546   -2.2619    0.8671 C   0  0  0  0  0  0  0  0  0  0  0  0
   -0.9295   -2.9553    1.2580 O   0  0  0  0  0  0  0  0  0  0  0  0
   -1.6032   -1.0267    0.3079 N   0  0  0  0  0  0  0  0  0  0  0  0
   -2.4064   -0.4334    0.1027 H   0  0  0  0  0  0  0  0  0  0  0  0
   -0.2784   -0.3883    0.2567 C   0  0  1  0  0  0  0  0  0  0  0  0
    0.3797   -0.8561    0.9968 H   0  0  0  0  0  0  0  0  0  0  0  0
    0.4175   -0.4806   -1.1274 C   0  0  0  0  0  0  0  0  0  0  0  0
    0.9398    0.4544   -1.3599 H   0  0  0  0  0  0  0  0  0  0  0  0
    1.1897   -1.2498   -1.0148 H   0  0  0  0  0  0  0  0  0  0  0  0
   -0.4616   -0.8807   -2.3417 C   0  0  0  0  0  0  0  0  0  0  0  0
   -1.2601   -1.5593   -2.0393 H   0  0  0  0  0  0  0  0  0  0  0  0
   -0.9281    0.0097   -2.7705 H   0  0  0  0  0  0  0  0  0  0  0  0
    0.3144   -1.6266   -3.4264 C   0  0  0  0  0  0  0  0  0  0  0  0
    1.4933   -1.3716   -3.6029 O   0  0  0  0  0  0  0  0  0  0  0  0
   -0.3612   -2.5355   -4.1616 O   0  0  0  0  0  0  0  0  0  0  0  0
    0.2937   -2.8900   -4.7824 H   0  0  0  0  0  0  0  0  0  0  0  0
   -0.4152    1.0928    0.6666 C   0  0  0  0  0  0  0  0  0  0  0  0
   -1.3605    1.7538    0.2512 O   0  0  0  0  0  0  0  0  0  0  0  0
    0.4820    1.6673    1.5477 N   0  0  0  0  0  0  0  0  0  0  0  0
    1.2340    1.0840    1.9042 H   0  0  0  0  0  0  0  0  0  0  0  0
    0.3831    3.0488    2.0028 C   0  0  0  0  0  0  0  0  0  0  0  0
   -0.5722    3.2180    2.5107 H   0  0  0  0  0  0  0  0  0  0  0  0
    1.1920    3.2749    2.7044 H   0  0  0  0  0  0  0  0  0  0  0  0
    0.4583    3.7375    1.1546 H   0  0  0  0  0  0  0  0  0  0  0  0
  1  2  1  0  0  0  0
  2  3  1  0  0  0  0
  2  4  1  0  0  0  0
  2  5  1  0  0  0  0
  5  6  2  0  0  0  0
  5  7  1  0  0  0  0
  7  8  1  0  0  0  0
  7  9  1  0  0  0  0
  9 10  1  0  0  0  0
  9 11  1  0  0  0  0
  9 21  1  0  0  0  0
 11 12  1  0  0  0  0
 11 13  1  0  0  0  0
 11 14  1  0  0  0  0
 14 15  1  0  0  0  0
 14 16  1  0  0  0  0
 14 17  1  0  0  0  0
 17 18  2  0  0  0  0
 17 19  1  0  0  0  0
 19 20  1  0  0  0  0
 21 22  2  0  0  0  0
 21 23  1  0  0  0  0
 23 24  1  0  0  0  0
 23 25  1  0  0  0  0
 25 26  1  0  0  0  0
 25 27  1  0  0  0  0
 25 28  1  0  0  0  0
M  END
$$$$

  -OEChem-03222214033D

 28 27  0     1  0  0  0  0  0999 V2000
   -3.3226   -3.7117    1.4747 H   0  0  0  0  0  0  0  0  0  0  0  0
   -3.2991   -2.7380    0.9774 C   0  0  0  0  0  0  0  0  0  0  0  0
   -3.8857   -2.0284    1.5658 H   0  0  0  0  0  0  0  0  0  0  0  0
   -3.7473   -2.8380   -0.0141 H   0  0  0  0  0  0  0  0  0  0  0  0
   -1.8682   -2.2511    0.8508 C   0  0  0  0  0  0  0  0  0  0  0  0
   -0.9467   -2.9494    1.2414 O   0  0  0  0  0  0  0  0  0  0  0  0
   -1.6108   -1.0138    0.2989 N   0  0  0  0  0  0  0  0  0  0  0  0
   -2.4108   -0.4146    0.0981 H   0  0  0  0  0  0  0  0  0  0  0  0
   -0.2820   -0.3847    0.2483 C   0  0  1  0  0  0  0  0  0  0  0  0
    0.3725   -0.8599    0.9870 H   0  0  0  0  0  0  0  0  0  0  0  0
    0.4176   -0.4761   -1.1358 C   0  0  0  0  0  0  0  0  0  0  0  0
    0.9422    0.4597   -1.3586 H   0  0  0  0  0  0  0  0  0  0  0  0
    1.1937   -1.2409   -1.0196 H   0  0  0  0  0  0  0  0  0  0  0  0
   -0.4478   -0.8650   -2.3674 C   0  0  0  0  0  0  0  0  0  0  0  0
   -1.4114   -1.2838   -2.0797 H   0  0  0  0  0  0  0  0  0  0  0  0
   -0.6554    0.0292   -2.9606 H   0  0  0  0  0  0  0  0  0  0  0  0
    0.2269   -1.9054   -3.2575 C   0  0  0  0  0  0  0  0  0  0  0  0
    1.3873   -1.7330   -3.5877 O   0  0  0  0  0  0  0  0  0  0  0  0
   -0.5024   -2.9733   -3.6469 O   0  0  0  0  0  0  0  0  0  0  0  0
    0.1035   -3.5071   -4.1832 H   0  0  0  0  0  0  0  0  0  0  0  0
   -0.4120    1.0940    0.6689 C   0  0  0  0  0  0  0  0  0  0  0  0
   -1.3553    1.7616    0.2594 O   0  0  0  0  0  0  0  0  0  0  0  0
    0.4886    1.6593    1.5525 N   0  0  0  0  0  0  0  0  0  0  0  0
    1.2332    1.0681    1.9113 H   0  0  0  0  0  0  0  0  0  0  0  0
    0.3843    3.0327    2.0306 C   0  0  0  0  0  0  0  0  0  0  0  0
   -0.5670    3.1870    2.5509 H   0  0  0  0  0  0  0  0  0  0  0  0
    1.1987    3.2537    2.7272 H   0  0  0  0  0  0  0  0  0  0  0  0
    0.4456    3.7356    1.1932 H   0  0  0  0  0  0  0  0  0  0  0  0
  1  2  1  0  0  0  0
  2  3  1  0  0  0  0
  2  4  1  0  0  0  0
  2  5  1  0  0  0  0
  5  6  2  0  0  0  0
  5  7  1  0  0  0  0
  7  8  1  0  0  0  0
  7  9  1  0  0  0  0
  9 10  1  0  0  0  0
  9 11  1  0  0  0  0
  9 21  1  0  0  0  0
 11 12  1  0  0  0  0
 11 13  1  0  0  0  0
 11 14  1  0  0  0  0
 14 15  1  0  0  0  0
 14 16  1  0  0  0  0
 14 17  1  0  0  0  0
 17 18  2  0  0  0  0
 17 19  1  0  0  0  0
 19 20  1  0  0  0  0
 21 22  2  0  0  0  0
 21 23  1  0  0  0  0
 23 24  1  0  0  0  0
 23 25  1  0  0  0  0
 25 26  1  0  0  0  0
 25 27  1  0  0  0  0
 25 28  1  0  0  0  0
M  END
$$$$

  -OEChem-03222214033D

 28 27  0     1  0  0  0  0  0999 V2000
   -3.3264   -3.7214    1.3861 H   0  0  0  0  0  0  0  0  0  0  0  0
   -3.2932   -2.7429    0.8991 C   0  0  0  0  0  0  0  0  0  0  0  0
   -3.9068   -2.0433    1.4717 H   0  0  0  0  0  0  0  0  0  0  0  0
   -3.7036   -2.8372   -0.1093 H   0  0  0  0  0  0  0  0  0  0  0  0
   -1.8632   -2.2421    0.8294 C   0  0  0  0  0  0  0  0  0  0  0  0
   -0.9502   -2.9299    1.2575 O   0  0  0  0  0  0  0  0  0  0  0  0
   -1.5980   -1.0037    0.2843 N   0  0  0  0  0  0  0  0  0  0  0  0
   -2.3951   -0.4134    0.0502 H   0  0  0  0  0  0  0  0  0  0  0  0
   -0.2694   -0.3742    0.2498 C   0  0  1  0  0  0  0  0  0  0  0  0
    0.3789   -0.8522    0.9921 H   0  0  0  0  0  0  0  0  0  0  0  0
    0.4342   -0.4763   -1.1311 C   0  0  0  0  0  0  0  0  0  0  0  0
    0.9322    0.4730   -1.3575 H   0  0  0  0  0  0  0  0  0  0  0  0
    1.2333   -1.2180   -1.0205 H   0  0  0  0  0  0  0  0  0  0  0  0
   -0.4360   -0.8704   -2.3574 C   0  0  0  0  0  0  0  0  0  0  0  0
   -1.4935   -0.9777   -2.1170 H   0  0  0  0  0  0  0  0  0  0  0  0
   -0.3740   -0.0705   -3.0997 H   0  0  0  0  0  0  0  0  0  0  0  0
    0.0427   -2.1558   -3.0225 C   0  0  0  0  0  0  0  0  0  0  0  0
    1.1665   -2.1882   -3.4922 O   0  0  0  0  0  0  0  0  0  0  0  0
   -0.8071   -3.2048   -3.0570 O   0  0  0  0  0  0  0  0  0  0  0  0
   -0.3086   -3.9160   -3.4875 H   0  0  0  0  0  0  0  0  0  0  0  0
   -0.3999    1.1043    0.6720 C   0  0  0  0  0  0  0  0  0  0  0  0
   -1.3330    1.7766    0.2474 O   0  0  0  0  0  0  0  0  0  0  0  0
    0.4923    1.6670    1.5658 N   0  0  0  0  0  0  0  0  0  0  0  0
    1.2217    1.0691    1.9445 H   0  0  0  0  0  0  0  0  0  0  0  0
    0.3775    3.0365    2.0537 C   0  0  0  0  0  0  0  0  0  0  0  0
   -0.5785    3.1816    2.5680 H   0  0  0  0  0  0  0  0  0  0  0  0
    1.1855    3.2564    2.7580 H   0  0  0  0  0  0  0  0  0  0  0  0
    0.4411    3.7467    1.2225 H   0  0  0  0  0  0  0  0  0  0  0  0
  1  2  1  0  0  0  0
  2  3  1  0  0  0  0
  2  4  1  0  0  0  0
  2  5  1  0  0  0  0
  5  6  2  0  0  0  0
  5  7  1  0  0  0  0
  7  8  1  0  0  0  0
  7  9  1  0  0  0  0
  9 10  1  0  0  0  0
  9 11  1  0  0  0  0
  9 21  1  0  0  0  0
 11 12  1  0  0  0  0
 11 13  1  0  0  0  0
 11 14  1  0  0  0  0
 14 15  1  0  0  0  0
 14 16  1  0  0  0  0
 14 17  1  0  0  0  0
 17 18  2  0  0  0  0
 17 19  1  0  0  0  0
 19 20  1  0  0  0  0
 21 22  2  0  0  0  0
 21 23  1  0  0  0  0
 23 24  1  0  0  0  0
 23 25  1  0  0  0  0
 25 26  1  0  0  0  0
 25 27  1  0  0  0  0
 25 28  1  0  0  0  0
M  END
$$$$

  -OEChem-03222214033D

 28 27  0     1  0  0  0  0  0999 V2000
   -3.3126   -3.7425    1.2922 H   0  0  0  0  0  0  0  0  0  0  0  0
   -3.2737   -2.7641    0.8056 C   0  0  0  0  0  0  0  0  0  0  0  0
   -3.9293   -2.0759    1.3443 H   0  0  0  0  0  0  0  0  0  0  0  0
   -3.6288   -2.8676   -0.2227 H   0  0  0  0  0  0  0  0  0  0  0  0
   -1.8520   -2.2368    0.8065 C   0  0  0  0  0  0  0  0  0  0  0  0
   -0.9495   -2.9072    1.2827 O   0  0  0  0  0  0  0  0  0  0  0  0
   -1.5809   -0.9979    0.2651 N   0  0  0  0  0  0  0  0  0  0  0  0
   -2.3737   -0.4256   -0.0208 H   0  0  0  0  0  0  0  0  0  0  0  0
   -0.2540   -0.3631    0.2556 C   0  0  1  0  0  0  0  0  0  0  0  0
    0.3851   -0.8392    1.0065 H   0  0  0  0  0  0  0  0  0  0  0  0
    0.4589   -0.4793   -1.1186 C   0  0  0  0  0  0  0  0  0  0  0  0
    0.9305    0.4812   -1.3536 H   0  0  0  0  0  0  0  0  0  0  0  0
    1.2751   -1.2035   -1.0165 H   0  0  0  0  0  0  0  0  0  0  0  0
   -0.4259   -0.8855   -2.3258 C   0  0  0  0  0  0  0  0  0  0  0  0
   -1.4877   -0.6986   -2.1577 H   0  0  0  0  0  0  0  0  0  0  0  0
   -0.1428   -0.2656   -3.1809 H   0  0  0  0  0  0  0  0  0  0  0  0
   -0.2043   -2.3343   -2.7413 C   0  0  0  0  0  0  0  0  0  0  0  0
    0.8546   -2.6383   -3.2613 O   0  0  0  0  0  0  0  0  0  0  0  0
   -1.1972   -3.2189   -2.5022 O   0  0  0  0  0  0  0  0  0  0  0  0
   -0.8437   -4.0732   -2.7940 H   0  0  0  0  0  0  0  0  0  0  0  0
   -0.3913    1.1160    0.6724 C   0  0  0  0  0  0  0  0  0  0  0  0
   -1.3055    1.7931    0.2158 O   0  0  0  0  0  0  0  0  0  0  0  0
    0.4851    1.6792    1.5813 N   0  0  0  0  0  0  0  0  0  0  0  0
    1.1935    1.0757    1.9897 H   0  0  0  0  0  0  0  0  0  0  0  0
    0.3666    3.0517    2.0589 C   0  0  0  0  0  0  0  0  0  0  0  0
   -0.5920    3.1987    2.5680 H   0  0  0  0  0  0  0  0  0  0  0  0
    1.1716    3.2780    2.7648 H   0  0  0  0  0  0  0  0  0  0  0  0
    0.4329    3.7559    1.2228 H   0  0  0  0  0  0  0  0  0  0  0  0
  1  2  1  0  0  0  0
  2  3  1  0  0  0  0
  2  4  1  0  0  0  0
  2  5  1  0  0  0  0
  5  6  2  0  0  0  0
  5  7  1  0  0  0  0
  7  8  1  0  0  0  0
  7  9  1  0  0  0  0
  9 10  1  0  0  0  0
  9 11  1  0  0  0  0
  9 21  1  0  0  0  0
 11 12  1  0  0  0  0
 11 13  1  0  0  0  0
 11 14  1  0  0  0  0
 14 15  1  0  0  0  0
 14 16  1  0  0  0  0
 14 17  1  0  0  0  0
 17 18  2  0  0  0  0
 17 19  1  0  0  0  0
 19 20  1  0  0  0  0
 21 22  2  0  0  0  0
 21 23  1  0  0  0  0
 23 24  1  0  0  0  0
 23 25  1  0  0  0  0
 25 26  1  0  0  0  0
 25 27  1  0  0  0  0
 25 28  1  0  0  0  0
M  END
$$$$

  -OEChem-03222214033D

 28 27  0     1  0  0  0  0  0999 V2000
   -3.3148   -3.7453    1.3035 H   0  0  0  0  0  0  0  0  0  0  0  0
   -3.2717   -2.7632    0.8248 C   0  0  0  0  0  0  0  0  0  0  0  0
   -3.9163   -2.0738    1.3752 H   0  0  0  0  0  0  0  0  0  0  0  0
   -3.6385   -2.8551   -0.2005 H   0  0  0  0  0  0  0  0  0  0  0  0
   -1.8456   -2.2468    0.8181 C   0  0  0  0  0  0  0  0  0  0  0  0
   -0.9488   -2.9150    1.3074 O   0  0  0  0  0  0  0  0  0  0  0  0
   -1.5659   -1.0153    0.2646 N   0  0  0  0  0  0  0  0  0  0  0  0
   -2.3554   -0.4528   -0.0487 H   0  0  0  0  0  0  0  0  0  0  0  0
   -0.2419   -0.3732    0.2683 C   0  0  1  0  0  0  0  0  0  0  0  0
    0.3896   -0.8382    1.0328 H   0  0  0  0  0  0  0  0  0  0  0  0
    0.4907   -0.4918   -1.0951 C   0  0  0  0  0  0  0  0  0  0  0  0
    0.9530    0.4725   -1.3332 H   0  0  0  0  0  0  0  0  0  0  0  0
    1.3117   -1.2092   -0.9858 H   0  0  0  0  0  0  0  0  0  0  0  0
   -0.3855   -0.9104   -2.2998 C   0  0  0  0  0  0  0  0  0  0  0  0
   -1.3943   -0.4972   -2.2225 H   0  0  0  0  0  0  0  0  0  0  0  0
    0.0538   -0.4945   -3.2105 H   0  0  0  0  0  0  0  0  0  0  0  0
   -0.4421   -2.4235   -2.4869 C   0  0  0  0  0  0  0  0  0  0  0  0
    0.5809   -3.0071   -2.7977 O   0  0  0  0  0  0  0  0  0  0  0  0
   -1.6281   -3.0481   -2.3145 O   0  0  0  0  0  0  0  0  0  0  0  0
   -1.4288   -3.9868   -2.4563 H   0  0  0  0  0  0  0  0  0  0  0  0
   -0.3948    1.1110    0.6614 C   0  0  0  0  0  0  0  0  0  0  0  0
   -1.3020    1.7777    0.1764 O   0  0  0  0  0  0  0  0  0  0  0  0
    0.4629    1.6917    1.5771 N   0  0  0  0  0  0  0  0  0  0  0  0
    1.1675    1.0979    2.0059 H   0  0  0  0  0  0  0  0  0  0  0  0
    0.3308    3.0708    2.0314 C   0  0  0  0  0  0  0  0  0  0  0  0
   -0.6373    3.2223    2.5204 H   0  0  0  0  0  0  0  0  0  0  0  0
    1.1215    3.3109    2.7486 H   0  0  0  0  0  0  0  0  0  0  0  0
    0.4102    3.7624    1.1860 H   0  0  0  0  0  0  0  0  0  0  0  0
  1  2  1  0  0  0  0
  2  3  1  0  0  0  0
  2  4  1  0  0  0  0
  2  5  1  0  0  0  0
  5  6  2  0  0  0  0
  5  7  1  0  0  0  0
  7  8  1  0  0  0  0
  7  9  1  0  0  0  0
  9 10  1  0  0  0  0
  9 11  1  0  0  0  0
  9 21  1  0  0  0  0
 11 12  1  0  0  0  0
 11 13  1  0  0  0  0
 11 14  1  0  0  0  0
 14 15  1  0  0  0  0
 14 16  1  0  0  0  0
 14 17  1  0  0  0  0
 17 18  2  0  0  0  0
 17 19  1  0  0  0  0
 19 20  1  0  0  0  0
 21 22  2  0  0  0  0
 21 23  1  0  0  0  0
 23 24  1  0  0  0  0
 23 25  1  0  0  0  0
 25 26  1  0  0  0  0
 25 27  1  0  0  0  0
 25 28  1  0  0  0  0
M  END
$$$$

  -OEChem-03222214033D

 28 27  0     1  0  0  0  0  0999 V2000
   -3.3125   -3.7567    1.3738 H   0  0  0  0  0  0  0  0  0  0  0  0
   -3.2743   -2.7626    0.9199 C   0  0  0  0  0  0  0  0  0  0  0  0
   -3.8879   -2.0800    1.5124 H   0  0  0  0  0  0  0  0  0  0  0  0
   -3.6822   -2.8214   -0.0918 H   0  0  0  0  0  0  0  0  0  0  0  0
   -1.8429   -2.2625    0.8747 C   0  0  0  0  0  0  0  0  0  0  0  0
   -0.9484   -2.9220    1.3782 O   0  0  0  0  0  0  0  0  0  0  0  0
   -1.5619   -1.0416    0.2986 N   0  0  0  0  0  0  0  0  0  0  0  0
   -2.3512   -0.4882   -0.0319 H   0  0  0  0  0  0  0  0  0  0  0  0
   -0.2399   -0.3961    0.2943 C   0  0  1  0  0  0  0  0  0  0  0  0
    0.3932   -0.8465    1.0663 H   0  0  0  0  0  0  0  0  0  0  0  0
    0.5040   -0.5042   -1.0656 C   0  0  0  0  0  0  0  0  0  0  0  0
    0.9744    0.4581   -1.2955 H   0  0  0  0  0  0  0  0  0  0  0  0
    1.3184   -1.2278   -0.9494 H   0  0  0  0  0  0  0  0  0  0  0  0
   -0.3432   -0.9245   -2.2884 C   0  0  0  0  0  0  0  0  0  0  0  0
   -1.2604   -0.3304   -2.3245 H   0  0  0  0  0  0  0  0  0  0  0  0
    0.2188   -0.7085   -3.2006 H   0  0  0  0  0  0  0  0  0  0  0  0
   -0.6973   -2.4095   -2.3150 C   0  0  0  0  0  0  0  0  0  0  0  0
    0.2135   -3.2163   -2.3592 O   0  0  0  0  0  0  0  0  0  0  0  0
   -2.0008   -2.7657   -2.3357 O   0  0  0  0  0  0  0  0  0  0  0  0
   -1.9812   -3.7348   -2.3771 H   0  0  0  0  0  0  0  0  0  0  0  0
   -0.4093    1.0938    0.6600 C   0  0  0  0  0  0  0  0  0  0  0  0
   -1.3123    1.7475    0.1499 O   0  0  0  0  0  0  0  0  0  0  0  0
    0.4388    1.6982    1.5694 N   0  0  0  0  0  0  0  0  0  0  0  0
    1.1403    1.1161    2.0188 H   0  0  0  0  0  0  0  0  0  0  0  0
    0.3034    3.0889    1.9862 C   0  0  0  0  0  0  0  0  0  0  0  0
   -0.6719    3.2552    2.4558 H   0  0  0  0  0  0  0  0  0  0  0  0
    1.0836    3.3450    2.7095 H   0  0  0  0  0  0  0  0  0  0  0  0
    0.3987    3.7585    1.1248 H   0  0  0  0  0  0  0  0  0  0  0  0
  1  2  1  0  0  0  0
  2  3  1  0  0  0  0
  2  4  1  0  0  0  0
  2  5  1  0  0  0  0
  5  6  2  0  0  0  0
  5  7  1  0  0  0  0
  7  8  1  0  0  0  0
  7  9  1  0  0  0  0
  9 10  1  0  0  0  0
  9 11  1  0  0  0  0
  9 21  1  0  0  0  0
 11 12  1  0  0  0  0
 11 13  1  0  0  0  0
 11 14  1  0  0  0  0
 14 15  1  0  0  0  0
 14 16  1  0  0  0  0
 14 17  1  0  0  0  0
 17 18  2  0  0  0  0
 17 19  1  0  0  0  0
 19 20  1  0  0  0  0
 21 22  2  0  0  0  0
 21 23  1  0  0  0  0
 23 24  1  0  0  0  0
 23 25  1  0  0  0  0
 25 26  1  0  0  0  0
 25 27  1  0  0  0  0
 25 28  1  0  0  0  0
M  END
$$$$

  -OEChem-03222214033D

 28 27  0     1  0  0  0  0  0999 V2000
   -3.2891   -3.7762    1.4747 H   0  0  0  0  0  0  0  0  0  0  0  0
   -3.2641   -2.7819    1.0202 C   0  0  0  0  0  0  0  0  0  0  0  0
   -3.8888   -2.1074    1.6105 H   0  0  0  0  0  0  0  0  0  0  0  0
   -3.6691   -2.8474    0.0082 H   0  0  0  0  0  0  0  0  0  0  0  0
   -1.8395   -2.2620    0.9804 C   0  0  0  0  0  0  0  0  0  0  0  0
   -0.9501   -2.8792    1.5430 O   0  0  0  0  0  0  0  0  0  0  0  0
   -1.5658   -1.0559    0.3694 N   0  0  0  0  0  0  0  0  0  0  0  0
   -2.3506   -0.5330   -0.0170 H   0  0  0  0  0  0  0  0  0  0  0  0
   -0.2432   -0.4160    0.3327 C   0  0  1  0  0  0  0  0  0  0  0  0
    0.4017   -0.8483    1.1052 H   0  0  0  0  0  0  0  0  0  0  0  0
    0.4935   -0.5196   -1.0345 C   0  0  0  0  0  0  0  0  0  0  0  0
    0.9935    0.4305   -1.2535 H   0  0  0  0  0  0  0  0  0  0  0  0
    1.2858   -1.2664   -0.9110 H   0  0  0  0  0  0  0  0  0  0  0  0
   -0.3174   -0.9341   -2.2860 C   0  0  0  0  0  0  0  0  0  0  0  0
   -1.0945   -0.1841   -2.4581 H   0  0  0  0  0  0  0  0  0  0  0  0
    0.3440   -0.9237   -3.1561 H   0  0  0  0  0  0  0  0  0  0  0  0
   -0.9846   -2.3052   -2.2315 C   0  0  0  0  0  0  0  0  0  0  0  0
   -0.2737   -3.2845   -2.1039 O   0  0  0  0  0  0  0  0  0  0  0  0
   -2.3259   -2.3809   -2.3804 O   0  0  0  0  0  0  0  0  0  0  0  0
   -2.5129   -3.3326   -2.3791 H   0  0  0  0  0  0  0  0  0  0  0  0
   -0.4196    1.0808    0.6667 C   0  0  0  0  0  0  0  0  0  0  0  0
   -1.3231    1.7224    0.1418 O   0  0  0  0  0  0  0  0  0  0  0  0
    0.4343    1.7099    1.5535 N   0  0  0  0  0  0  0  0  0  0  0  0
    1.1335    1.1381    2.0194 H   0  0  0  0  0  0  0  0  0  0  0  0
    0.2942    3.1085    1.9406 C   0  0  0  0  0  0  0  0  0  0  0  0
   -0.6764    3.2782    2.4185 H   0  0  0  0  0  0  0  0  0  0  0  0
    1.0818    3.3863    2.6479 H   0  0  0  0  0  0  0  0  0  0  0  0
    0.3732    3.7587    1.0630 H   0  0  0  0  0  0  0  0  0  0  0  0
  1  2  1  0  0  0  0
  2  3  1  0  0  0  0
  2  4  1  0  0  0  0
  2  5  1  0  0  0  0
  5  6  2  0  0  0  0
  5  7  1  0  0  0  0
  7  8  1  0  0  0  0
  7  9  1  0  0  0  0
  9 10  1  0  0  0  0
  9 11  1  0  0  0  0
  9 21  1  0  0  0  0
 11 12  1  0  0  0  0
 11 13  1  0  0  0  0
 11 14  1  0  0  0  0
 14 15  1  0  0  0  0
 14 16  1  0  0  0  0
 14 17  1  0  0  0  0
 17 18  2  0  0  0  0
 17 19  1  0  0  0  0
 19 20  1  0  0  0  0
 21 22  2  0  0  0  0
 21 23  1  0  0  0  0
 23 24  1  0  0  0  0
 23 25  1  0  0  0  0
 25 26  1  0  0  0  0
 25 27  1  0  0  0  0
 25 28  1  0  0  0  0
M  END
$$$$

  -OEChem-03222214033D

 28 27  0     1  0  0  0  0  0999 V2000
   -3.2456   -3.7847    1.6296 H   0  0  0  0  0  0  0  0  0  0  0  0
   -3.2332   -2.8293    1.0976 C   0  0  0  0  0  0  0  0  0  0  0  0
   -3.9065   -2.1340    1.6046 H   0  0  0  0  0  0  0  0  0  0  0  0
   -3.5883   -2.9912    0.0779 H   0  0  0  0  0  0  0  0  0  0  0  0
   -1.8259   -2.2630    1.0758 C   0  0  0  0  0  0  0  0  0  0  0  0
   -0.9276   -2.8420    1.6652 O   0  0  0  0  0  0  0  0  0  0  0  0
   -1.5775   -1.0609    0.4446 N   0  0  0  0  0  0  0  0  0  0  0  0
   -2.3662   -0.5750    0.0191 H   0  0  0  0  0  0  0  0  0  0  0  0
   -0.2591   -0.4189    0.3644 C   0  0  1  0  0  0  0  0  0  0  0  0
    0.4072   -0.8397    1.1249 H   0  0  0  0  0  0  0  0  0  0  0  0
    0.4536   -0.5193   -1.0183 C   0  0  0  0  0  0  0  0  0  0  0  0
    0.9749    0.4204   -1.2325 H   0  0  0  0  0  0  0  0  0  0  0  0
    1.2306   -1.2812   -0.8921 H   0  0  0  0  0  0  0  0  0  0  0  0
   -0.3295   -0.9344   -2.2921 C   0  0  0  0  0  0  0  0  0  0  0  0
   -0.9273   -0.0735   -2.6050 H   0  0  0  0  0  0  0  0  0  0  0  0
    0.3857   -1.1387   -3.0933 H   0  0  0  0  0  0  0  0  0  0  0  0
   -1.2788   -2.1247   -2.2053 C   0  0  0  0  0  0  0  0  0  0  0  0
   -0.7995   -3.2327   -2.0544 O   0  0  0  0  0  0  0  0  0  0  0  0
   -2.6055   -1.9071   -2.3477 O   0  0  0  0  0  0  0  0  0  0  0  0
   -2.9989   -2.7931   -2.3461 H   0  0  0  0  0  0  0  0  0  0  0  0
   -0.4332    1.0804    0.6900 C   0  0  0  0  0  0  0  0  0  0  0  0
   -1.3383    1.7203    0.1658 O   0  0  0  0  0  0  0  0  0  0  0  0
    0.4422    1.7214    1.5472 N   0  0  0  0  0  0  0  0  0  0  0  0
    1.1426    1.1532    2.0156 H   0  0  0  0  0  0  0  0  0  0  0  0
    0.3161    3.1278    1.9106 C   0  0  0  0  0  0  0  0  0  0  0  0
   -0.6496    3.3145    2.3922 H   0  0  0  0  0  0  0  0  0  0  0  0
    1.1105    3.4120    2.6072 H   0  0  0  0  0  0  0  0  0  0  0  0
    0.3943    3.7616    1.0209 H   0  0  0  0  0  0  0  0  0  0  0  0
  1  2  1  0  0  0  0
  2  3  1  0  0  0  0
  2  4  1  0  0  0  0
  2  5  1  0  0  0  0
  5  6  2  0  0  0  0
  5  7  1  0  0  0  0
  7  8  1  0  0  0  0
  7  9  1  0  0  0  0
  9 10  1  0  0  0  0
  9 11  1  0  0  0  0
  9 21  1  0  0  0  0
 11 12  1  0  0  0  0
 11 13  1  0  0  0  0
 11 14  1  0  0  0  0
 14 15  1  0  0  0  0
 14 16  1  0  0  0  0
 14 17  1  0  0  0  0
 17 18  2  0  0  0  0
 17 19  1  0  0  0  0
 19 20  1  0  0  0  0
 21 22  2  0  0  0  0
 21 23  1  0  0  0  0
 23 24  1  0  0  0  0
 23 25  1  0  0  0  0
 25 26  1  0  0  0  0
 25 27  1  0  0  0  0
 25 28  1  0  0  0  0
M  END
$$$$

  -OEChem-03222214033D

 28 27  0     1  0  0  0  0  0999 V2000
   -3.1753   -3.7706    1.7914 H   0  0  0  0  0  0  0  0  0  0  0  0
   -3.1593   -2.9016    1.1279 C   0  0  0  0  0  0  0  0  0  0  0  0
   -3.8971   -2.1764    1.4791 H   0  0  0  0  0  0  0  0  0  0  0  0
   -3.4248   -3.2249    0.1191 H   0  0  0  0  0  0  0  0  0  0  0  0
   -1.7775   -2.2763    1.1215 C   0  0  0  0  0  0  0  0  0  0  0  0
   -0.8517   -2.8352    1.6884 O   0  0  0  0  0  0  0  0  0  0  0  0
   -1.5753   -1.0603    0.5007 N   0  0  0  0  0  0  0  0  0  0  0  0
   -2.3783   -0.6064    0.0653 H   0  0  0  0  0  0  0  0  0  0  0  0
   -0.2701   -0.4052    0.3648 C   0  0  1  0  0  0  0  0  0  0  0  0
    0.4341   -0.8303    1.0878 H   0  0  0  0  0  0  0  0  0  0  0  0
    0.3828   -0.4883   -1.0494 C   0  0  0  0  0  0  0  0  0  0  0  0
    0.9028    0.4515   -1.2668 H   0  0  0  0  0  0  0  0  0  0  0  0
    1.1619   -1.2518   -0.9485 H   0  0  0  0  0  0  0  0  0  0  0  0
   -0.4139   -0.8982   -2.3225 C   0  0  0  0  0  0  0  0  0  0  0  0
   -0.8160    0.0217   -2.7562 H   0  0  0  0  0  0  0  0  0  0  0  0
    0.2867   -1.3132   -3.0523 H   0  0  0  0  0  0  0  0  0  0  0  0
   -1.5940   -1.8585   -2.2138 C   0  0  0  0  0  0  0  0  0  0  0  0
   -1.3654   -3.0529   -2.1651 O   0  0  0  0  0  0  0  0  0  0  0  0
   -2.8458   -1.3460   -2.2158 O   0  0  0  0  0  0  0  0  0  0  0  0
   -3.4307   -2.1188   -2.2353 H   0  0  0  0  0  0  0  0  0  0  0  0
   -0.4349    1.0870    0.7257 C   0  0  0  0  0  0  0  0  0  0  0  0
   -1.3627    1.7354    0.2552 O   0  0  0  0  0  0  0  0  0  0  0  0
    0.4825    1.7150    1.5479 N   0  0  0  0  0  0  0  0  0  0  0  0
    1.1978    1.1367    1.9799 H   0  0  0  0  0  0  0  0  0  0  0  0
    0.3662    3.1111    1.9520 C   0  0  0  0  0  0  0  0  0  0  0  0
   -0.5697    3.2764    2.4962 H   0  0  0  0  0  0  0  0  0  0  0  0
    1.1996    3.3868    2.6053 H   0  0  0  0  0  0  0  0  0  0  0  0
    0.3842    3.7663    1.0747 H   0  0  0  0  0  0  0  0  0  0  0  0
  1  2  1  0  0  0  0
  2  3  1  0  0  0  0
  2  4  1  0  0  0  0
  2  5  1  0  0  0  0
  5  6  2  0  0  0  0
  5  7  1  0  0  0  0
  7  8  1  0  0  0  0
  7  9  1  0  0  0  0
  9 10  1  0  0  0  0
  9 11  1  0  0  0  0
  9 21  1  0  0  0  0
 11 12  1  0  0  0  0
 11 13  1  0  0  0  0
 11 14  1  0  0  0  0
 14 15  1  0  0  0  0
 14 16  1  0  0  0  0
 14 17  1  0  0  0  0
 17 18  2  0  0  0  0
 17 19  1  0  0  0  0
 19 20  1  0  0  0  0
 21 22  2  0  0  0  0
 21 23  1  0  0  0  0
 23 24  1  0  0  0  0
 23 25  1  0  0  0  0
 25 26  1  0  0  0  0
 25 27  1  0  0  0  0
 25 28  1  0  0  0  0
M  END
$$$$

  -OEChem-03222214033D

 28 27  0     1  0  0  0  0  0999 V2000
   -2.9452   -3.6180    2.2841 H   0  0  0  0  0  0  0  0  0  0  0  0
   -3.0188   -2.7975    1.5651 C   0  0  0  0  0  0  0  0  0  0  0  0
   -3.6802   -2.0301    1.9739 H   0  0  0  0  0  0  0  0  0  0  0  0
   -3.4446   -3.1812    0.6348 H   0  0  0  0  0  0  0  0  0  0  0  0
   -1.6445   -2.2140    1.2985 C   0  0  0  0  0  0  0  0  0  0  0  0
   -0.6469   -2.7860    1.7092 O   0  0  0  0  0  0  0  0  0  0  0  0
   -1.5231   -1.0231    0.6119 N   0  0  0  0  0  0  0  0  0  0  0  0
   -2.3777   -0.5463    0.3241 H   0  0  0  0  0  0  0  0  0  0  0  0
   -0.2492   -0.3942    0.2509 C   0  0  1  0  0  0  0  0  0  0  0  0
    0.5480   -0.8035    0.8805 H   0  0  0  0  0  0  0  0  0  0  0  0
    0.1905   -0.5589   -1.2370 C   0  0  0  0  0  0  0  0  0  0  0  0
    0.6790    0.3638   -1.5699 H   0  0  0  0  0  0  0  0  0  0  0  0
    0.9767   -1.3209   -1.2062 H   0  0  0  0  0  0  0  0  0  0  0  0
   -0.7690   -1.0230   -2.3766 C   0  0  0  0  0  0  0  0  0  0  0  0
   -1.0068   -0.1378   -2.9729 H   0  0  0  0  0  0  0  0  0  0  0  0
   -0.2197   -1.7051   -3.0318 H   0  0  0  0  0  0  0  0  0  0  0  0
   -2.1123   -1.6727   -2.0579 C   0  0  0  0  0  0  0  0  0  0  0  0
   -2.1702   -2.8874   -1.9985 O   0  0  0  0  0  0  0  0  0  0  0  0
   -3.1912   -0.8742   -1.8954 O   0  0  0  0  0  0  0  0  0  0  0  0
   -3.9415   -1.4797   -1.7980 H   0  0  0  0  0  0  0  0  0  0  0  0
   -0.3334    1.1125    0.5774 C   0  0  0  0  0  0  0  0  0  0  0  0
   -1.3267    1.7573    0.2625 O   0  0  0  0  0  0  0  0  0  0  0  0
    0.7113    1.7501    1.2213 N   0  0  0  0  0  0  0  0  0  0  0  0
    1.4809    1.1732    1.5489 H   0  0  0  0  0  0  0  0  0  0  0  0
    0.6596    3.1495    1.6278 C   0  0  0  0  0  0  0  0  0  0  0  0
   -0.1294    3.3027    2.3718 H   0  0  0  0  0  0  0  0  0  0  0  0
    1.6150    3.4515    2.0676 H   0  0  0  0  0  0  0  0  0  0  0  0
    0.4596    3.7940    0.7649 H   0  0  0  0  0  0  0  0  0  0  0  0
  1  2  1  0  0  0  0
  2  3  1  0  0  0  0
  2  4  1  0  0  0  0
  2  5  1  0  0  0  0
  5  6  2  0  0  0  0
  5  7  1  0  0  0  0
  7  8  1  0  0  0  0
  7  9  1  0  0  0  0
  9 10  1  0  0  0  0
  9 11  1  0  0  0  0
  9 21  1  0  0  0  0
 11 12  1  0  0  0  0
 11 13  1  0  0  0  0
 11 14  1  0  0  0  0
 14 15  1  0  0  0  0
 14 16  1  0  0  0  0
 14 17  1  0  0  0  0
 17 18  2  0  0  0  0
 17 19  1  0  0  0  0
 19 20  1  0  0  0  0
 21 22  2  0  0  0  0
 21 23  1  0  0  0  0
 23 24  1  0  0  0  0
 23 25  1  0  0  0  0
 25 26  1  0  0  0  0
 25 27  1  0  0  0  0
 25 28  1  0  0  0  0
M  END
$$$$

  -OEChem-03222214033D

 28 27  0     1  0  0  0  0  0999 V2000
   -2.7976   -3.8357    2.0580 H   0  0  0  0  0  0  0  0  0  0  0  0
   -2.9257   -2.9262    1.4648 C   0  0  0  0  0  0  0  0  0  0  0  0
   -3.5580   -2.2292    2.0196 H   0  0  0  0  0  0  0  0  0  0  0  0
   -3.4173   -3.1860    0.5241 H   0  0  0  0  0  0  0  0  0  0  0  0
   -1.5766   -2.2932    1.1830 C   0  0  0  0  0  0  0  0  0  0  0  0
   -0.5497   -2.8593    1.5249 O   0  0  0  0  0  0  0  0  0  0  0  0
   -1.5103   -1.0638    0.5606 N   0  0  0  0  0  0  0  0  0  0  0  0
   -2.3862   -0.5833    0.3573 H   0  0  0  0  0  0  0  0  0  0  0  0
   -0.2691   -0.3533    0.2408 C   0  0  1  0  0  0  0  0  0  0  0  0
    0.5377   -0.7511    0.8654 H   0  0  0  0  0  0  0  0  0  0  0  0
    0.2020   -0.4528   -1.2430 C   0  0  0  0  0  0  0  0  0  0  0  0
    0.6114    0.5196   -1.5384 H   0  0  0  0  0  0  0  0  0  0  0  0
    1.0512   -1.1444   -1.2296 H   0  0  0  0  0  0  0  0  0  0  0  0
   -0.7126   -0.9401   -2.4114 C   0  0  0  0  0  0  0  0  0  0  0  0
   -0.7555   -0.1378   -3.1530 H   0  0  0  0  0  0  0  0  0  0  0  0
   -0.2179   -1.7880   -2.8943 H   0  0  0  0  0  0  0  0  0  0  0  0
   -2.1583   -1.3550   -2.1528 C   0  0  0  0  0  0  0  0  0  0  0  0
   -2.4285   -2.5419   -2.0995 O   0  0  0  0  0  0  0  0  0  0  0  0
   -3.0869   -0.3813   -2.0362 O   0  0  0  0  0  0  0  0  0  0  0  0
   -3.9353   -0.8415   -1.9560 H   0  0  0  0  0  0  0  0  0  0  0  0
   -0.4235    1.1302    0.6412 C   0  0  0  0  0  0  0  0  0  0  0  0
   -1.4574    1.7348    0.3833 O   0  0  0  0  0  0  0  0  0  0  0  0
    0.5886    1.7830    1.3211 N   0  0  0  0  0  0  0  0  0  0  0  0
    1.3970    1.2342    1.6003 H   0  0  0  0  0  0  0  0  0  0  0  0
    0.4728    3.1575    1.7946 C   0  0  0  0  0  0  0  0  0  0  0  0
   -0.3447    3.2460    2.5180 H   0  0  0  0  0  0  0  0  0  0  0  0
    1.4018    3.4697    2.2814 H   0  0  0  0  0  0  0  0  0  0  0  0
    0.2771    3.8366    0.9579 H   0  0  0  0  0  0  0  0  0  0  0  0
  1  2  1  0  0  0  0
  2  3  1  0  0  0  0
  2  4  1  0  0  0  0
  2  5  1  0  0  0  0
  5  6  2  0  0  0  0
  5  7  1  0  0  0  0
  7  8  1  0  0  0  0
  7  9  1  0  0  0  0
  9 10  1  0  0  0  0
  9 11  1  0  0  0  0
  9 21  1  0  0  0  0
 11 12  1  0  0  0  0
 11 13  1  0  0  0  0
 11 14  1  0  0  0  0
 14 15  1  0  0  0  0
 14 16  1  0  0  0  0
 14 17  1  0  0  0  0
 17 18  2  0  0  0  0
 17 19  1  0  0  0  0
 19 20  1  0  0  0  0
 21 22  2  0  0  0  0
 21 23  1  0  0  0  0
 23 24  1  0  0  0  0
 23 25  1  0  0  0  0
 25 26  1  0  0  0  0
 25 27  1  0  0  0  0
 25 28  1  0  0  0  0
M  END
$$$$

  -OEChem-03222214033D

 28 27  0     1  0  0  0  0  0999 V2000
   -3.2481   -3.6809    1.6479 H   0  0  0  0  0  0  0  0  0  0  0  0
   -3.2555   -2.7240    1.1188 C   0  0  0  0  0  0  0  0  0  0  0  0
   -3.8727   -2.0169    1.6781 H   0  0  0  0  0  0  0  0  0  0  0  0
   -3.6902   -2.8724    0.1277 H   0  0  0  0  0  0  0  0  0  0  0  0
   -1.8426   -2.1890    0.9869 C   0  0  0  0  0  0  0  0  0  0  0  0
   -0.8935   -2.8692    1.3439 O   0  0  0  0  0  0  0  0  0  0  0  0
   -1.6309   -0.9373    0.4506 N   0  0  0  0  0  0  0  0  0  0  0  0
   -2.4482   -0.3777    0.2004 H   0  0  0  0  0  0  0  0  0  0  0  0
   -0.3230   -0.2924    0.2954 C   0  0  1  0  0  0  0  0  0  0  0  0
    0.3761   -0.7764    0.9854 H   0  0  0  0  0  0  0  0  0  0  0  0
    0.3029   -0.4080   -1.1270 C   0  0  0  0  0  0  0  0  0  0  0  0
    0.7479    0.5640   -1.3672 H   0  0  0  0  0  0  0  0  0  0  0  0
    1.1368   -1.1133   -1.0470 H   0  0  0  0  0  0  0  0  0  0  0  0
   -0.5215   -0.8377   -2.3797 C   0  0  0  0  0  0  0  0  0  0  0  0
   -0.2174   -0.2140   -3.2244 H   0  0  0  0  0  0  0  0  0  0  0  0
   -0.2272   -1.8627   -2.6221 H   0  0  0  0  0  0  0  0  0  0  0  0
   -2.0482   -0.8343   -2.3438 C   0  0  0  0  0  0  0  0  0  0  0  0
   -2.6324    0.2155   -2.1535 O   0  0  0  0  0  0  0  0  0  0  0  0
   -2.6903   -2.0039   -2.5570 O   0  0  0  0  0  0  0  0  0  0  0  0
   -3.6317   -1.7733   -2.5577 H   0  0  0  0  0  0  0  0  0  0  0  0
   -0.3901    1.1807    0.7583 C   0  0  0  0  0  0  0  0  0  0  0  0
   -1.3615    1.8760    0.4935 O   0  0  0  0  0  0  0  0  0  0  0  0
    0.6086    1.7047    1.5597 N   0  0  0  0  0  0  0  0  0  0  0  0
    1.3564    1.0807    1.8482 H   0  0  0  0  0  0  0  0  0  0  0  0
    0.5593    3.0512    2.1180 C   0  0  0  0  0  0  0  0  0  0  0  0
   -0.2882    3.1507    2.8045 H   0  0  0  0  0  0  0  0  0  0  0  0
    1.4796    3.2665    2.6696 H   0  0  0  0  0  0  0  0  0  0  0  0
    0.4545    3.7945    1.3204 H   0  0  0  0  0  0  0  0  0  0  0  0
  1  2  1  0  0  0  0
  2  3  1  0  0  0  0
  2  4  1  0  0  0  0
  2  5  1  0  0  0  0
  5  6  2  0  0  0  0
  5  7  1  0  0  0  0
  7  8  1  0  0  0  0
  7  9  1  0  0  0  0
  9 10  1  0  0  0  0
  9 11  1  0  0  0  0
  9 21  1  0  0  0  0
 11 12  1  0  0  0  0
 11 13  1  0  0  0  0
 11 14  1  0  0  0  0
 14 15  1  0  0  0  0
 14 16  1  0  0  0  0
 14 17  1  0  0  0  0
 17 18  2  0  0  0  0
 17 19  1  0  0  0  0
 19 20  1  0  0  0  0
 21 22  2  0  0  0  0
 21 23  1  0  0  0  0
 23 24  1  0  0  0  0
 23 25  1  0  0  0  0
 25 26  1  0  0  0  0
 25 27  1  0  0  0  0
 25 28  1  0  0  0  0
M  END
$$$$

  -OEChem-03222214033D

 28 27  0     1  0  0  0  0  0999 V2000
   -3.2077   -3.7523    1.4511 H   0  0  0  0  0  0  0  0  0  0  0  0
   -3.2246   -2.7660    0.9793 C   0  0  0  0  0  0  0  0  0  0  0  0
   -3.8167   -2.0888    1.5994 H   0  0  0  0  0  0  0  0  0  0  0  0
   -3.6929   -2.8533   -0.0040 H   0  0  0  0  0  0  0  0  0  0  0  0
   -1.8127   -2.2328    0.8314 C   0  0  0  0  0  0  0  0  0  0  0  0
   -0.8584   -2.9292    1.1409 O   0  0  0  0  0  0  0  0  0  0  0  0
   -1.6078   -0.9601    0.3433 N   0  0  0  0  0  0  0  0  0  0  0  0
   -2.4294   -0.3755    0.1903 H   0  0  0  0  0  0  0  0  0  0  0  0
   -0.3021   -0.2962    0.2541 C   0  0  1  0  0  0  0  0  0  0  0  0
    0.3805   -0.7925    0.9518 H   0  0  0  0  0  0  0  0  0  0  0  0
    0.3642   -0.3733   -1.1497 C   0  0  0  0  0  0  0  0  0  0  0  0
    0.7937    0.6121   -1.3624 H   0  0  0  0  0  0  0  0  0  0  0  0
    1.2060   -1.0698   -1.0757 H   0  0  0  0  0  0  0  0  0  0  0  0
   -0.4543   -0.7826   -2.4066 C   0  0  0  0  0  0  0  0  0  0  0  0
    0.0195   -0.3555   -3.2944 H   0  0  0  0  0  0  0  0  0  0  0  0
   -0.3873   -1.8701   -2.4987 H   0  0  0  0  0  0  0  0  0  0  0  0
   -1.9414   -0.4413   -2.4535 C   0  0  0  0  0  0  0  0  0  0  0  0
   -2.2551    0.7286   -2.5568 O   0  0  0  0  0  0  0  0  0  0  0  0
   -2.8444   -1.4474   -2.4366 O   0  0  0  0  0  0  0  0  0  0  0  0
   -3.7003   -1.0054   -2.5469 H   0  0  0  0  0  0  0  0  0  0  0  0
   -0.4116    1.1576    0.7651 C   0  0  0  0  0  0  0  0  0  0  0  0
   -1.4172    1.8174    0.5372 O   0  0  0  0  0  0  0  0  0  0  0  0
    0.5473    1.6726    1.6191 N   0  0  0  0  0  0  0  0  0  0  0  0
    1.3253    1.0714    1.8740 H   0  0  0  0  0  0  0  0  0  0  0  0
    0.4383    2.9872    2.2409 C   0  0  0  0  0  0  0  0  0  0  0  0
   -0.4484    3.0360    2.8817 H   0  0  0  0  0  0  0  0  0  0  0  0
    1.3208    3.1904    2.8552 H   0  0  0  0  0  0  0  0  0  0  0  0
    0.3633    3.7675    1.4761 H   0  0  0  0  0  0  0  0  0  0  0  0
  1  2  1  0  0  0  0
  2  3  1  0  0  0  0
  2  4  1  0  0  0  0
  2  5  1  0  0  0  0
  5  6  2  0  0  0  0
  5  7  1  0  0  0  0
  7  8  1  0  0  0  0
  7  9  1  0  0  0  0
  9 10  1  0  0  0  0
  9 11  1  0  0  0  0
  9 21  1  0  0  0  0
 11 12  1  0  0  0  0
 11 13  1  0  0  0  0
 11 14  1  0  0  0  0
 14 15  1  0  0  0  0
 14 16  1  0  0  0  0
 14 17  1  0  0  0  0
 17 18  2  0  0  0  0
 17 19  1  0  0  0  0
 19 20  1  0  0  0  0
 21 22  2  0  0  0  0
 21 23  1  0  0  0  0
 23 24  1  0  0  0  0
 23 25  1  0  0  0  0
 25 26  1  0  0  0  0
 25 27  1  0  0  0  0
 25 28  1  0  0  0  0
M  END
$$$$

  -OEChem-03222214033D

 28 27  0     1  0  0  0  0  0999 V2000
   -3.2061   -3.8177    1.2818 H   0  0  0  0  0  0  0  0  0  0  0  0
   -3.2076   -2.8067    0.8654 C   0  0  0  0  0  0  0  0  0  0  0  0
   -3.8484   -2.1718    1.4816 H   0  0  0  0  0  0  0  0  0  0  0  0
   -3.6105   -2.8440   -0.1496 H   0  0  0  0  0  0  0  0  0  0  0  0
   -1.7977   -2.2489    0.8408 C   0  0  0  0  0  0  0  0  0  0  0  0
   -0.8666   -2.9123    1.2702 O   0  0  0  0  0  0  0  0  0  0  0  0
   -1.5668   -0.9946    0.3196 N   0  0  0  0  0  0  0  0  0  0  0  0
   -2.3745   -0.4676   -0.0114 H   0  0  0  0  0  0  0  0  0  0  0  0
   -0.2578   -0.3335    0.2638 C   0  0  1  0  0  0  0  0  0  0  0  0
    0.4161   -0.8094    0.9841 H   0  0  0  0  0  0  0  0  0  0  0  0
    0.4141   -0.4213   -1.1344 C   0  0  0  0  0  0  0  0  0  0  0  0
    0.8687    0.5506   -1.3575 H   0  0  0  0  0  0  0  0  0  0  0  0
    1.2350   -1.1421   -1.0592 H   0  0  0  0  0  0  0  0  0  0  0  0
   -0.4355   -0.8275   -2.3668 C   0  0  0  0  0  0  0  0  0  0  0  0
    0.1402   -0.6409   -3.2775 H   0  0  0  0  0  0  0  0  0  0  0  0
   -0.6197   -1.9040   -2.3142 H   0  0  0  0  0  0  0  0  0  0  0  0
   -1.7967   -0.1444   -2.5063 C   0  0  0  0  0  0  0  0  0  0  0  0
   -1.8014    0.9805   -2.9685 O   0  0  0  0  0  0  0  0  0  0  0  0
   -2.9292   -0.8139   -2.1908 O   0  0  0  0  0  0  0  0  0  0  0  0
   -3.6394   -0.1920   -2.4184 H   0  0  0  0  0  0  0  0  0  0  0  0
   -0.4061    1.1337    0.7220 C   0  0  0  0  0  0  0  0  0  0  0  0
   -1.3844    1.7858    0.3778 O   0  0  0  0  0  0  0  0  0  0  0  0
    0.5017    1.6933    1.6024 N   0  0  0  0  0  0  0  0  0  0  0  0
    1.2575    1.1046    1.9403 H   0  0  0  0  0  0  0  0  0  0  0  0
    0.3626    3.0423    2.1384 C   0  0  0  0  0  0  0  0  0  0  0  0
   -0.5462    3.1215    2.7443 H   0  0  0  0  0  0  0  0  0  0  0  0
    1.2222    3.2907    2.7681 H   0  0  0  0  0  0  0  0  0  0  0  0
    0.3083    3.7742    1.3254 H   0  0  0  0  0  0  0  0  0  0  0  0
  1  2  1  0  0  0  0
  2  3  1  0  0  0  0
  2  4  1  0  0  0  0
  2  5  1  0  0  0  0
  5  6  2  0  0  0  0
  5  7  1  0  0  0  0
  7  8  1  0  0  0  0
  7  9  1  0  0  0  0
  9 10  1  0  0  0  0
  9 11  1  0  0  0  0
  9 21  1  0  0  0  0
 11 12  1  0  0  0  0
 11 13  1  0  0  0  0
 11 14  1  0  0  0  0
 14 15  1  0  0  0  0
 14 16  1  0  0  0  0
 14 17  1  0  0  0  0
 17 18  2  0  0  0  0
 17 19  1  0  0  0  0
 19 20  1  0  0  0  0
 21 22  2  0  0  0  0
 21 23  1  0  0  0  0
 23 24  1  0  0  0  0
 23 25  1  0  0  0  0
 25 26  1  0  0  0  0
 25 27  1  0  0  0  0
 25 28  1  0  0  0  0
M  END
$$$$

  -OEChem-03222214033D

 28 27  0     1  0  0  0  0  0999 V2000
   -3.2099   -3.8659    1.1456 H   0  0  0  0  0  0  0  0  0  0  0  0
   -3.2052   -2.8464    0.7505 C   0  0  0  0  0  0  0  0  0  0  0  0
   -3.9036   -2.2390    1.3309 H   0  0  0  0  0  0  0  0  0  0  0  0
   -3.5339   -2.8702   -0.2914 H   0  0  0  0  0  0  0  0  0  0  0  0
   -1.8109   -2.2567    0.8394 C   0  0  0  0  0  0  0  0  0  0  0  0
   -0.9101   -2.8830    1.3751 O   0  0  0  0  0  0  0  0  0  0  0  0
   -1.5578   -1.0193    0.2904 N   0  0  0  0  0  0  0  0  0  0  0  0
   -2.3299   -0.5507   -0.1875 H   0  0  0  0  0  0  0  0  0  0  0  0
   -0.2491   -0.3522    0.2719 C   0  0  1  0  0  0  0  0  0  0  0  0
    0.4064   -0.8076    1.0218 H   0  0  0  0  0  0  0  0  0  0  0  0
    0.4506   -0.4623   -1.1105 C   0  0  0  0  0  0  0  0  0  0  0  0
    0.9269    0.4949   -1.3530 H   0  0  0  0  0  0  0  0  0  0  0  0
    1.2538   -1.1995   -1.0114 H   0  0  0  0  0  0  0  0  0  0  0  0
   -0.4167   -0.8931   -2.3174 C   0  0  0  0  0  0  0  0  0  0  0  0
    0.2129   -0.9465   -3.2099 H   0  0  0  0  0  0  0  0  0  0  0  0
   -0.8186   -1.8947   -2.1442 H   0  0  0  0  0  0  0  0  0  0  0  0
   -1.5785    0.0587   -2.6051 C   0  0  0  0  0  0  0  0  0  0  0  0
   -1.3417    1.0259   -3.3047 O   0  0  0  0  0  0  0  0  0  0  0  0
   -2.8093   -0.2125   -2.1109 O   0  0  0  0  0  0  0  0  0  0  0  0
   -3.3467    0.5444   -2.3986 H   0  0  0  0  0  0  0  0  0  0  0  0
   -0.4167    1.1292    0.6756 C   0  0  0  0  0  0  0  0  0  0  0  0
   -1.3467    1.7872    0.2239 O   0  0  0  0  0  0  0  0  0  0  0  0
    0.4534    1.7153    1.5765 N   0  0  0  0  0  0  0  0  0  0  0  0
    1.1681    1.1256    1.9930 H   0  0  0  0  0  0  0  0  0  0  0  0
    0.3122    3.0892    2.0441 C   0  0  0  0  0  0  0  0  0  0  0  0
   -0.6153    3.2062    2.6143 H   0  0  0  0  0  0  0  0  0  0  0  0
    1.1534    3.3574    2.6906 H   0  0  0  0  0  0  0  0  0  0  0  0
    0.2949    3.7837    1.1972 H   0  0  0  0  0  0  0  0  0  0  0  0
  1  2  1  0  0  0  0
  2  3  1  0  0  0  0
  2  4  1  0  0  0  0
  2  5  1  0  0  0  0
  5  6  2  0  0  0  0
  5  7  1  0  0  0  0
  7  8  1  0  0  0  0
  7  9  1  0  0  0  0
  9 10  1  0  0  0  0
  9 11  1  0  0  0  0
  9 21  1  0  0  0  0
 11 12  1  0  0  0  0
 11 13  1  0  0  0  0
 11 14  1  0  0  0  0
 14 15  1  0  0  0  0
 14 16  1  0  0  0  0
 14 17  1  0  0  0  0
 17 18  2  0  0  0  0
 17 19  1  0  0  0  0
 19 20  1  0  0  0  0
 21 22  2  0  0  0  0
 21 23  1  0  0  0  0
 23 24  1  0  0  0  0
 23 25  1  0  0  0  0
 25 26  1  0  0  0  0
 25 27  1  0  0  0  0
 25 28  1  0  0  0  0
M  END
$$$$

  -OEChem-03222214033D

 28 27  0     1  0  0  0  0  0999 V2000
   -3.2251   -3.8589    1.1855 H   0  0  0  0  0  0  0  0  0  0  0  0
   -3.2159   -2.8515    0.7598 C   0  0  0  0  0  0  0  0  0  0  0  0
   -3.9041   -2.2216    1.3286 H   0  0  0  0  0  0  0  0  0  0  0  0
   -3.5551   -2.9040   -0.2777 H   0  0  0  0  0  0  0  0  0  0  0  0
   -1.8156   -2.2714    0.8185 C   0  0  0  0  0  0  0  0  0  0  0  0
   -0.9114   -2.8987    1.3470 O   0  0  0  0  0  0  0  0  0  0  0  0
   -1.5611   -1.0399    0.2557 N   0  0  0  0  0  0  0  0  0  0  0  0
   -2.3401   -0.5494   -0.1878 H   0  0  0  0  0  0  0  0  0  0  0  0
   -0.2571   -0.3596    0.2541 C   0  0  1  0  0  0  0  0  0  0  0  0
    0.3837   -0.7990    1.0257 H   0  0  0  0  0  0  0  0  0  0  0  0
    0.4780   -0.4830   -1.1076 C   0  0  0  0  0  0  0  0  0  0  0  0
    0.9671    0.4648   -1.3615 H   0  0  0  0  0  0  0  0  0  0  0  0
    1.2737   -1.2238   -0.9772 H   0  0  0  0  0  0  0  0  0  0  0  0
   -0.3839   -0.9493   -2.3015 C   0  0  0  0  0  0  0  0  0  0  0  0
    0.2785   -1.2225   -3.1274 H   0  0  0  0  0  0  0  0  0  0  0  0
   -0.9671   -1.8402   -2.0586 H   0  0  0  0  0  0  0  0  0  0  0  0
   -1.2993    0.1652   -2.7912 C   0  0  0  0  0  0  0  0  0  0  0  0
   -0.8441    0.9996   -3.5523 O   0  0  0  0  0  0  0  0  0  0  0  0
   -2.5737    0.1815   -2.3378 O   0  0  0  0  0  0  0  0  0  0  0  0
   -2.9400    1.0139   -2.6775 H   0  0  0  0  0  0  0  0  0  0  0  0
   -0.4369    1.1278    0.6302 C   0  0  0  0  0  0  0  0  0  0  0  0
   -1.3590    1.7780    0.1515 O   0  0  0  0  0  0  0  0  0  0  0  0
    0.4145    1.7303    1.5382 N   0  0  0  0  0  0  0  0  0  0  0  0
    1.1323    1.1531    1.9671 H   0  0  0  0  0  0  0  0  0  0  0  0
    0.2660    3.1128    1.9771 C   0  0  0  0  0  0  0  0  0  0  0  0
   -0.6779    3.2439    2.5168 H   0  0  0  0  0  0  0  0  0  0  0  0
    1.0885    3.3886    2.6441 H   0  0  0  0  0  0  0  0  0  0  0  0
    0.2777    3.7919    1.1179 H   0  0  0  0  0  0  0  0  0  0  0  0
  1  2  1  0  0  0  0
  2  3  1  0  0  0  0
  2  4  1  0  0  0  0
  2  5  1  0  0  0  0
  5  6  2  0  0  0  0
  5  7  1  0  0  0  0
  7  8  1  0  0  0  0
  7  9  1  0  0  0  0
  9 10  1  0  0  0  0
  9 11  1  0  0  0  0
  9 21  1  0  0  0  0
 11 12  1  0  0  0  0
 11 13  1  0  0  0  0
 11 14  1  0  0  0  0
 14 15  1  0  0  0  0
 14 16  1  0  0  0  0
 14 17  1  0  0  0  0
 17 18  2  0  0  0  0
 17 19  1  0  0  0  0
 19 20  1  0  0  0  0
 21 22  2  0  0  0  0
 21 23  1  0  0  0  0
 23 24  1  0  0  0  0
 23 25  1  0  0  0  0
 25 26  1  0  0  0  0
 25 27  1  0  0  0  0
 25 28  1  0  0  0  0
M  END
$$$$

  -OEChem-03222214033D

 28 27  0     1  0  0  0  0  0999 V2000
   -3.2270   -3.8344    1.3208 H   0  0  0  0  0  0  0  0  0  0  0  0
   -3.2196   -2.8377    0.8708 C   0  0  0  0  0  0  0  0  0  0  0  0
   -3.8608   -2.1790    1.4614 H   0  0  0  0  0  0  0  0  0  0  0  0
   -3.6173   -2.9068   -0.1446 H   0  0  0  0  0  0  0  0  0  0  0  0
   -1.8061   -2.2889    0.8374 C   0  0  0  0  0  0  0  0  0  0  0  0
   -0.8848   -2.9334    1.3127 O   0  0  0  0  0  0  0  0  0  0  0  0
   -1.5616   -1.0615    0.2606 N   0  0  0  0  0  0  0  0  0  0  0  0
   -2.3639   -0.5263   -0.0728 H   0  0  0  0  0  0  0  0  0  0  0  0
   -0.2577   -0.3816    0.2459 C   0  0  1  0  0  0  0  0  0  0  0  0
    0.3865   -0.8111    1.0203 H   0  0  0  0  0  0  0  0  0  0  0  0
    0.4829   -0.4960   -1.1129 C   0  0  0  0  0  0  0  0  0  0  0  0
    0.9942    0.4441   -1.3519 H   0  0  0  0  0  0  0  0  0  0  0  0
    1.2669   -1.2475   -0.9735 H   0  0  0  0  0  0  0  0  0  0  0  0
   -0.3609   -0.9606   -2.3235 C   0  0  0  0  0  0  0  0  0  0  0  0
    0.3047   -1.4491   -3.0403 H   0  0  0  0  0  0  0  0  0  0  0  0
   -1.1197   -1.6988   -2.0595 H   0  0  0  0  0  0  0  0  0  0  0  0
   -0.9940    0.2223   -3.0419 C   0  0  0  0  0  0  0  0  0  0  0  0
   -0.2814    0.9621   -3.6972 O   0  0  0  0  0  0  0  0  0  0  0  0
   -2.3248    0.4020   -2.8968 O   0  0  0  0  0  0  0  0  0  0  0  0
   -2.5126    1.2391   -3.3485 H   0  0  0  0  0  0  0  0  0  0  0  0
   -0.4512    1.1058    0.6115 C   0  0  0  0  0  0  0  0  0  0  0  0
   -1.3925    1.7343    0.1413 O   0  0  0  0  0  0  0  0  0  0  0  0
    0.3955    1.7259    1.5120 N   0  0  0  0  0  0  0  0  0  0  0  0
    1.1360    1.1673    1.9267 H   0  0  0  0  0  0  0  0  0  0  0  0
    0.2328    3.1109    1.9378 C   0  0  0  0  0  0  0  0  0  0  0  0
   -0.7175    3.2401    2.4663 H   0  0  0  0  0  0  0  0  0  0  0  0
    1.0459    3.3979    2.6116 H   0  0  0  0  0  0  0  0  0  0  0  0
    0.2488    3.7824    1.0727 H   0  0  0  0  0  0  0  0  0  0  0  0
  1  2  1  0  0  0  0
  2  3  1  0  0  0  0
  2  4  1  0  0  0  0
  2  5  1  0  0  0  0
  5  6  2  0  0  0  0
  5  7  1  0  0  0  0
  7  8  1  0  0  0  0
  7  9  1  0  0  0  0
  9 10  1  0  0  0  0
  9 11  1  0  0  0  0
  9 21  1  0  0  0  0
 11 12  1  0  0  0  0
 11 13  1  0  0  0  0
 11 14  1  0  0  0  0
 14 15  1  0  0  0  0
 14 16  1  0  0  0  0
 14 17  1  0  0  0  0
 17 18  2  0  0  0  0
 17 19  1  0  0  0  0
 19 20  1  0  0  0  0
 21 22  2  0  0  0  0
 21 23  1  0  0  0  0
 23 24  1  0  0  0  0
 23 25  1  0  0  0  0
 25 26  1  0  0  0  0
 25 27  1  0  0  0  0
 25 28  1  0  0  0  0
M  END
$$$$

  -OEChem-03222214033D

 28 27  0     1  0  0  0  0  0999 V2000
   -3.2171   -3.8223    1.4289 H   0  0  0  0  0  0  0  0  0  0  0  0
   -3.2192   -2.8302    0.9688 C   0  0  0  0  0  0  0  0  0  0  0  0
   -3.8262   -2.1589    1.5810 H   0  0  0  0  0  0  0  0  0  0  0  0
   -3.6628   -2.9049   -0.0270 H   0  0  0  0  0  0  0  0  0  0  0  0
   -1.8027   -2.2977    0.8670 C   0  0  0  0  0  0  0  0  0  0  0  0
   -0.8681   -2.9527    1.2999 O   0  0  0  0  0  0  0  0  0  0  0  0
   -1.5714   -1.0718    0.2810 N   0  0  0  0  0  0  0  0  0  0  0  0
   -2.3844   -0.5148    0.0174 H   0  0  0  0  0  0  0  0  0  0  0  0
   -0.2666   -0.3944    0.2442 C   0  0  1  0  0  0  0  0  0  0  0  0
    0.3860   -0.8203    1.0140 H   0  0  0  0  0  0  0  0  0  0  0  0
    0.4681   -0.5046   -1.1188 C   0  0  0  0  0  0  0  0  0  0  0  0
    0.9872    0.4345   -1.3435 H   0  0  0  0  0  0  0  0  0  0  0  0
    1.2514   -1.2571   -0.9794 H   0  0  0  0  0  0  0  0  0  0  0  0
   -0.3608   -0.9662   -2.3471 C   0  0  0  0  0  0  0  0  0  0  0  0
    0.2390   -1.6775   -2.9212 H   0  0  0  0  0  0  0  0  0  0  0  0
   -1.2792   -1.4885   -2.0795 H   0  0  0  0  0  0  0  0  0  0  0  0
   -0.6890    0.1909   -3.2831 C   0  0  0  0  0  0  0  0  0  0  0  0
    0.2263    0.7869   -3.8237 O   0  0  0  0  0  0  0  0  0  0  0  0
   -1.9901    0.5002   -3.4691 O   0  0  0  0  0  0  0  0  0  0  0  0
   -1.9819    1.2771   -4.0486 H   0  0  0  0  0  0  0  0  0  0  0  0
   -0.4614    1.0927    0.6093 C   0  0  0  0  0  0  0  0  0  0  0  0
   -1.4203    1.7096    0.1596 O   0  0  0  0  0  0  0  0  0  0  0  0
    0.3939    1.7203    1.4959 N   0  0  0  0  0  0  0  0  0  0  0  0
    1.1489    1.1698    1.8949 H   0  0  0  0  0  0  0  0  0  0  0  0
    0.2289    3.1054    1.9203 C   0  0  0  0  0  0  0  0  0  0  0  0
   -0.7163    3.2306    2.4591 H   0  0  0  0  0  0  0  0  0  0  0  0
    1.0477    3.3979    2.5848 H   0  0  0  0  0  0  0  0  0  0  0  0
    0.2323    3.7756    1.0539 H   0  0  0  0  0  0  0  0  0  0  0  0
  1  2  1  0  0  0  0
  2  3  1  0  0  0  0
  2  4  1  0  0  0  0
  2  5  1  0  0  0  0
  5  6  2  0  0  0  0
  5  7  1  0  0  0  0
  7  8  1  0  0  0  0
  7  9  1  0  0  0  0
  9 10  1  0  0  0  0
  9 11  1  0  0  0  0
  9 21  1  0  0  0  0
 11 12  1  0  0  0  0
 11 13  1  0  0  0  0
 11 14  1  0  0  0  0
 14 15  1  0  0  0  0
 14 16  1  0  0  0  0
 14 17  1  0  0  0  0
 17 18  2  0  0  0  0
 17 19  1  0  0  0  0
 19 20  1  0  0  0  0
 21 22  2  0  0  0  0
 21 23  1  0  0  0  0
 23 24  1  0  0  0  0
 23 25  1  0  0  0  0
 25 26  1  0  0  0  0
 25 27  1  0  0  0  0
 25 28  1  0  0  0  0
M  END
$$$$

  -OEChem-03222214033D

 28 27  0     1  0  0  0  0  0999 V2000
   -3.2055   -3.8124    1.4907 H   0  0  0  0  0  0  0  0  0  0  0  0
   -3.2150   -2.8238    1.0234 C   0  0  0  0  0  0  0  0  0  0  0  0
   -3.8044   -2.1458    1.6453 H   0  0  0  0  0  0  0  0  0  0  0  0
   -3.6824   -2.9038    0.0391 H   0  0  0  0  0  0  0  0  0  0  0  0
   -1.7994   -2.2983    0.8827 C   0  0  0  0  0  0  0  0  0  0  0  0
   -0.8569   -2.9572    1.2915 O   0  0  0  0  0  0  0  0  0  0  0  0
   -1.5790   -1.0716    0.2940 N   0  0  0  0  0  0  0  0  0  0  0  0
   -2.3971   -0.5065    0.0669 H   0  0  0  0  0  0  0  0  0  0  0  0
   -0.2744   -0.3944    0.2406 C   0  0  1  0  0  0  0  0  0  0  0  0
    0.3847   -0.8196    1.0051 H   0  0  0  0  0  0  0  0  0  0  0  0
    0.4516   -0.5127   -1.1273 C   0  0  0  0  0  0  0  0  0  0  0  0
    0.9448    0.4401   -1.3521 H   0  0  0  0  0  0  0  0  0  0  0  0
    1.2557   -1.2443   -0.9963 H   0  0  0  0  0  0  0  0  0  0  0  0
   -0.3783   -0.9821   -2.3557 C   0  0  0  0  0  0  0  0  0  0  0  0
    0.0618   -1.8998   -2.7545 H   0  0  0  0  0  0  0  0  0  0  0  0
   -1.4121   -1.2143   -2.1019 H   0  0  0  0  0  0  0  0  0  0  0  0
   -0.4027    0.0531   -3.4765 C   0  0  0  0  0  0  0  0  0  0  0  0
    0.6551    0.4720   -3.9137 O   0  0  0  0  0  0  0  0  0  0  0  0
   -1.6061    0.4505   -3.9424 O   0  0  0  0  0  0  0  0  0  0  0  0
   -1.4060    1.1140   -4.6200 H   0  0  0  0  0  0  0  0  0  0  0  0
   -0.4637    1.0925    0.6095 C   0  0  0  0  0  0  0  0  0  0  0  0
   -1.4326    1.7076    0.1792 O   0  0  0  0  0  0  0  0  0  0  0  0
    0.4040    1.7184    1.4854 N   0  0  0  0  0  0  0  0  0  0  0  0
    1.1680    1.1685    1.8679 H   0  0  0  0  0  0  0  0  0  0  0  0
    0.2413    3.1002    1.9214 C   0  0  0  0  0  0  0  0  0  0  0  0
   -0.7005    3.2216    2.4668 H   0  0  0  0  0  0  0  0  0  0  0  0
    1.0640    3.3874    2.5832 H   0  0  0  0  0  0  0  0  0  0  0  0
    0.2394    3.7769    1.0603 H   0  0  0  0  0  0  0  0  0  0  0  0
  1  2  1  0  0  0  0
  2  3  1  0  0  0  0
  2  4  1  0  0  0  0
  2  5  1  0  0  0  0
  5  6  2  0  0  0  0
  5  7  1  0  0  0  0
  7  8  1  0  0  0  0
  7  9  1  0  0  0  0
  9 10  1  0  0  0  0
  9 11  1  0  0  0  0
  9 21  1  0  0  0  0
 11 12  1  0  0  0  0
 11 13  1  0  0  0  0
 11 14  1  0  0  0  0
 14 15  1  0  0  0  0
 14 16  1  0  0  0  0
 14 17  1  0  0  0  0
 17 18  2  0  0  0  0
 17 19  1  0  0  0  0
 19 20  1  0  0  0  0
 21 22  2  0  0  0  0
 21 23  1  0  0  0  0
 23 24  1  0  0  0  0
 23 25  1  0  0  0  0
 25 26  1  0  0  0  0
 25 27  1  0  0  0  0
 25 28  1  0  0  0  0
M  END
$$$$

  -OEChem-03222214033D

 28 27  0     1  0  0  0  0  0999 V2000
   -3.2069   -3.7940    1.5052 H   0  0  0  0  0  0  0  0  0  0  0  0
   -3.2129   -2.8098    1.0285 C   0  0  0  0  0  0  0  0  0  0  0  0
   -3.8006   -2.1240    1.6436 H   0  0  0  0  0  0  0  0  0  0  0  0
   -3.6801   -2.8978    0.0447 H   0  0  0  0  0  0  0  0  0  0  0  0
   -1.7955   -2.2905    0.8833 C   0  0  0  0  0  0  0  0  0  0  0  0
   -0.8541   -2.9565    1.2832 O   0  0  0  0  0  0  0  0  0  0  0  0
   -1.5728   -1.0631    0.2967 N   0  0  0  0  0  0  0  0  0  0  0  0
   -2.3897   -0.4899    0.0874 H   0  0  0  0  0  0  0  0  0  0  0  0
   -0.2646   -0.3913    0.2426 C   0  0  1  0  0  0  0  0  0  0  0  0
    0.3955   -0.8220    1.0031 H   0  0  0  0  0  0  0  0  0  0  0  0
    0.4505   -0.5196   -1.1296 C   0  0  0  0  0  0  0  0  0  0  0  0
    0.9143    0.4456   -1.3638 H   0  0  0  0  0  0  0  0  0  0  0  0
    1.2721   -1.2350   -1.0185 H   0  0  0  0  0  0  0  0  0  0  0  0
   -0.4081   -0.9879   -2.3371 C   0  0  0  0  0  0  0  0  0  0  0  0
   -0.2102   -2.0421   -2.5463 H   0  0  0  0  0  0  0  0  0  0  0  0
   -1.4735   -0.8907   -2.1236 H   0  0  0  0  0  0  0  0  0  0  0  0
   -0.1660   -0.1662   -3.6017 C   0  0  0  0  0  0  0  0  0  0  0  0
    0.9762    0.1301   -3.9072 O   0  0  0  0  0  0  0  0  0  0  0  0
   -1.2416    0.1809   -4.3406 O   0  0  0  0  0  0  0  0  0  0  0  0
   -0.8820    0.6945   -5.0798 H   0  0  0  0  0  0  0  0  0  0  0  0
   -0.4462    1.0953    0.6156 C   0  0  0  0  0  0  0  0  0  0  0  0
   -1.4157    1.7134    0.1904 O   0  0  0  0  0  0  0  0  0  0  0  0
    0.4251    1.7161    1.4912 N   0  0  0  0  0  0  0  0  0  0  0  0
    1.1926    1.1650    1.8653 H   0  0  0  0  0  0  0  0  0  0  0  0
    0.2626    3.0950    1.9361 C   0  0  0  0  0  0  0  0  0  0  0  0
   -0.6864    3.2163    2.4691 H   0  0  0  0  0  0  0  0  0  0  0  0
    1.0767    3.3733    2.6123 H   0  0  0  0  0  0  0  0  0  0  0  0
    0.2760    3.7783    1.0803 H   0  0  0  0  0  0  0  0  0  0  0  0
  1  2  1  0  0  0  0
  2  3  1  0  0  0  0
  2  4  1  0  0  0  0
  2  5  1  0  0  0  0
  5  6  2  0  0  0  0
  5  7  1  0  0  0  0
  7  8  1  0  0  0  0
  7  9  1  0  0  0  0
  9 10  1  0  0  0  0
  9 11  1  0  0  0  0
  9 21  1  0  0  0  0
 11 12  1  0  0  0  0
 11 13  1  0  0  0  0
 11 14  1  0  0  0  0
 14 15  1  0  0  0  0
 14 16  1  0  0  0  0
 14 17  1  0  0  0  0
 17 18  2  0  0  0  0
 17 19  1  0  0  0  0
 19 20  1  0  0  0  0
 21 22  2  0  0  0  0
 21 23  1  0  0  0  0
 23 24  1  0  0  0  0
 23 25  1  0  0  0  0
 25 26  1  0  0  0  0
 25 27  1  0  0  0  0
 25 28  1  0  0  0  0
M  END
$$$$

  -OEChem-03222214033D

 28 27  0     1  0  0  0  0  0999 V2000
   -3.2205   -3.7728    1.4916 H   0  0  0  0  0  0  0  0  0  0  0  0
   -3.2166   -2.7946    1.0025 C   0  0  0  0  0  0  0  0  0  0  0  0
   -3.8073   -2.0984    1.6030 H   0  0  0  0  0  0  0  0  0  0  0  0
   -3.6739   -2.8924    0.0150 H   0  0  0  0  0  0  0  0  0  0  0  0
   -1.7949   -2.2837    0.8658 C   0  0  0  0  0  0  0  0  0  0  0  0
   -0.8595   -2.9579    1.2655 O   0  0  0  0  0  0  0  0  0  0  0  0
   -1.5619   -1.0537    0.2887 N   0  0  0  0  0  0  0  0  0  0  0  0
   -2.3751   -0.4752    0.0806 H   0  0  0  0  0  0  0  0  0  0  0  0
   -0.2499   -0.3863    0.2496 C   0  0  1  0  0  0  0  0  0  0  0  0
    0.4062   -0.8254    1.0086 H   0  0  0  0  0  0  0  0  0  0  0  0
    0.4597   -0.5153   -1.1239 C   0  0  0  0  0  0  0  0  0  0  0  0
    0.9112    0.4536   -1.3676 H   0  0  0  0  0  0  0  0  0  0  0  0
    1.2837   -1.2302   -1.0287 H   0  0  0  0  0  0  0  0  0  0  0  0
   -0.4319   -0.9740   -2.3055 C   0  0  0  0  0  0  0  0  0  0  0  0
   -0.4759   -2.0654   -2.3403 H   0  0  0  0  0  0  0  0  0  0  0  0
   -1.4486   -0.5995   -2.1657 H   0  0  0  0  0  0  0  0  0  0  0  0
    0.0159   -0.4333   -3.6629 C   0  0  0  0  0  0  0  0  0  0  0  0
    1.1908   -0.1657   -3.8477 O   0  0  0  0  0  0  0  0  0  0  0  0
   -0.9294   -0.2985   -4.6175 O   0  0  0  0  0  0  0  0  0  0  0  0
   -0.4565    0.0468   -5.3900 H   0  0  0  0  0  0  0  0  0  0  0  0
   -0.4259    1.0991    0.6296 C   0  0  0  0  0  0  0  0  0  0  0  0
   -1.3877    1.7248    0.1980 O   0  0  0  0  0  0  0  0  0  0  0  0
    0.4416    1.7106    1.5155 N   0  0  0  0  0  0  0  0  0  0  0  0
    1.2049    1.1542    1.8905 H   0  0  0  0  0  0  0  0  0  0  0  0
    0.2900    3.0916    1.9582 C   0  0  0  0  0  0  0  0  0  0  0  0
   -0.6690    3.2273    2.4692 H   0  0  0  0  0  0  0  0  0  0  0  0
    1.0924    3.3569    2.6534 H   0  0  0  0  0  0  0  0  0  0  0  0
    0.3335    3.7753    1.1037 H   0  0  0  0  0  0  0  0  0  0  0  0
  1  2  1  0  0  0  0
  2  3  1  0  0  0  0
  2  4  1  0  0  0  0
  2  5  1  0  0  0  0
  5  6  2  0  0  0  0
  5  7  1  0  0  0  0
  7  8  1  0  0  0  0
  7  9  1  0  0  0  0
  9 10  1  0  0  0  0
  9 11  1  0  0  0  0
  9 21  1  0  0  0  0
 11 12  1  0  0  0  0
 11 13  1  0  0  0  0
 11 14  1  0  0  0  0
 14 15  1  0  0  0  0
 14 16  1  0  0  0  0
 14 17  1  0  0  0  0
 17 18  2  0  0  0  0
 17 19  1  0  0  0  0
 19 20  1  0  0  0  0
 21 22  2  0  0  0  0
 21 23  1  0  0  0  0
 23 24  1  0  0  0  0
 23 25  1  0  0  0  0
 25 26  1  0  0  0  0
 25 27  1  0  0  0  0
 25 28  1  0  0  0  0
M  END
$$$$

  -OEChem-03222214033D

 28 27  0     1  0  0  0  0  0999 V2000
   -3.2405   -3.7526    1.4795 H   0  0  0  0  0  0  0  0  0  0  0  0
   -3.2256   -2.7776    0.9844 C   0  0  0  0  0  0  0  0  0  0  0  0
   -3.8156   -2.0733    1.5761 H   0  0  0  0  0  0  0  0  0  0  0  0
   -3.6762   -2.8787   -0.0060 H   0  0  0  0  0  0  0  0  0  0  0  0
   -1.7995   -2.2777    0.8556 C   0  0  0  0  0  0  0  0  0  0  0  0
   -0.8716   -2.9587    1.2611 O   0  0  0  0  0  0  0  0  0  0  0  0
   -1.5547   -1.0478    0.2832 N   0  0  0  0  0  0  0  0  0  0  0  0
   -2.3626   -0.4637    0.0698 H   0  0  0  0  0  0  0  0  0  0  0  0
   -0.2384   -0.3882    0.2553 C   0  0  1  0  0  0  0  0  0  0  0  0
    0.4139   -0.8349    1.0134 H   0  0  0  0  0  0  0  0  0  0  0  0
    0.4673   -0.5111   -1.1189 C   0  0  0  0  0  0  0  0  0  0  0  0
    0.9297    0.4513   -1.3683 H   0  0  0  0  0  0  0  0  0  0  0  0
    1.2790   -1.2413   -1.0301 H   0  0  0  0  0  0  0  0  0  0  0  0
   -0.4464   -0.9536   -2.2849 C   0  0  0  0  0  0  0  0  0  0  0  0
   -0.6971   -2.0122   -2.1788 H   0  0  0  0  0  0  0  0  0  0  0  0
   -1.3755   -0.3783   -2.2516 H   0  0  0  0  0  0  0  0  0  0  0  0
    0.1585   -0.7273   -3.6700 C   0  0  0  0  0  0  0  0  0  0  0  0
    1.3441   -0.4668   -3.7842 O   0  0  0  0  0  0  0  0  0  0  0  0
   -0.6745   -0.8439   -4.7259 O   0  0  0  0  0  0  0  0  0  0  0  0
   -0.1196   -0.6721   -5.5020 H   0  0  0  0  0  0  0  0  0  0  0  0
   -0.4093    1.0970    0.6378 C   0  0  0  0  0  0  0  0  0  0  0  0
   -1.3636    1.7288    0.1980 O   0  0  0  0  0  0  0  0  0  0  0  0
    0.4540    1.7029    1.5315 N   0  0  0  0  0  0  0  0  0  0  0  0
    1.2144    1.1440    1.9085 H   0  0  0  0  0  0  0  0  0  0  0  0
    0.3076    3.0853    1.9709 C   0  0  0  0  0  0  0  0  0  0  0  0
   -0.6574    3.2295    2.4683 H   0  0  0  0  0  0  0  0  0  0  0  0
    1.1020    3.3448    2.6773 H   0  0  0  0  0  0  0  0  0  0  0  0
    0.3687    3.7667    1.1158 H   0  0  0  0  0  0  0  0  0  0  0  0
  1  2  1  0  0  0  0
  2  3  1  0  0  0  0
  2  4  1  0  0  0  0
  2  5  1  0  0  0  0
  5  6  2  0  0  0  0
  5  7  1  0  0  0  0
  7  8  1  0  0  0  0
  7  9  1  0  0  0  0
  9 10  1  0  0  0  0
  9 11  1  0  0  0  0
  9 21  1  0  0  0  0
 11 12  1  0  0  0  0
 11 13  1  0  0  0  0
 11 14  1  0  0  0  0
 14 15  1  0  0  0  0
 14 16  1  0  0  0  0
 14 17  1  0  0  0  0
 17 18  2  0  0  0  0
 17 19  1  0  0  0  0
 19 20  1  0  0  0  0
 21 22  2  0  0  0  0
 21 23  1  0  0  0  0
 23 24  1  0  0  0  0
 23 25  1  0  0  0  0
 25 26  1  0  0  0  0
 25 27  1  0  0  0  0
 25 28  1  0  0  0  0
M  END
$$$$

  -OEChem-03222214033D

 28 27  0     1  0  0  0  0  0999 V2000
   -3.2436   -3.7574    1.4394 H   0  0  0  0  0  0  0  0  0  0  0  0
   -3.2259   -2.7835    0.9421 C   0  0  0  0  0  0  0  0  0  0  0  0
   -3.8345   -2.0829    1.5188 H   0  0  0  0  0  0  0  0  0  0  0  0
   -3.6536   -2.8905   -0.0577 H   0  0  0  0  0  0  0  0  0  0  0  0
   -1.8012   -2.2727    0.8424 C   0  0  0  0  0  0  0  0  0  0  0  0
   -0.8766   -2.9495    1.2623 O   0  0  0  0  0  0  0  0  0  0  0  0
   -1.5540   -1.0391    0.2786 N   0  0  0  0  0  0  0  0  0  0  0  0
   -2.3605   -0.4588    0.0513 H   0  0  0  0  0  0  0  0  0  0  0  0
   -0.2376   -0.3811    0.2587 C   0  0  1  0  0  0  0  0  0  0  0  0
    0.4190   -0.8357    1.0081 H   0  0  0  0  0  0  0  0  0  0  0  0
    0.4536   -0.4911   -1.1194 C   0  0  0  0  0  0  0  0  0  0  0  0
    1.1471    0.3478   -1.2486 H   0  0  0  0  0  0  0  0  0  0  0  0
    1.0528   -1.4083   -1.1212 H   0  0  0  0  0  0  0  0  0  0  0  0
   -0.5134   -0.5556   -2.3242 C   0  0  0  0  0  0  0  0  0  0  0  0
   -1.1658   -1.4272   -2.2314 H   0  0  0  0  0  0  0  0  0  0  0  0
   -1.1415    0.3393   -2.3355 H   0  0  0  0  0  0  0  0  0  0  0  0
    0.1914   -0.6630   -3.6761 C   0  0  0  0  0  0  0  0  0  0  0  0
    1.4038   -0.5547   -3.7453 O   0  0  0  0  0  0  0  0  0  0  0  0
   -0.5905   -0.8794   -4.7551 O   0  0  0  0  0  0  0  0  0  0  0  0
    0.0236   -0.9168   -5.5043 H   0  0  0  0  0  0  0  0  0  0  0  0
   -0.3986    1.1027    0.6494 C   0  0  0  0  0  0  0  0  0  0  0  0
   -1.3425    1.7479    0.2064 O   0  0  0  0  0  0  0  0  0  0  0  0
    0.4689    1.6954    1.5480 N   0  0  0  0  0  0  0  0  0  0  0  0
    1.2198    1.1251    1.9270 H   0  0  0  0  0  0  0  0  0  0  0  0
    0.3410    3.0788    1.9902 C   0  0  0  0  0  0  0  0  0  0  0  0
   -0.6257    3.2377    2.4798 H   0  0  0  0  0  0  0  0  0  0  0  0
    1.1334    3.3228    2.7043 H   0  0  0  0  0  0  0  0  0  0  0  0
    0.4214    3.7620    1.1381 H   0  0  0  0  0  0  0  0  0  0  0  0
  1  2  1  0  0  0  0
  2  3  1  0  0  0  0
  2  4  1  0  0  0  0
  2  5  1  0  0  0  0
  5  6  2  0  0  0  0
  5  7  1  0  0  0  0
  7  8  1  0  0  0  0
  7  9  1  0  0  0  0
  9 10  1  0  0  0  0
  9 11  1  0  0  0  0
  9 21  1  0  0  0  0
 11 12  1  0  0  0  0
 11 13  1  0  0  0  0
 11 14  1  0  0  0  0
 14 15  1  0  0  0  0
 14 16  1  0  0  0  0
 14 17  1  0  0  0  0
 17 18  2  0  0  0  0
 17 19  1  0  0  0  0
 19 20  1  0  0  0  0
 21 22  2  0  0  0  0
 21 23  1  0  0  0  0
 23 24  1  0  0  0  0
 23 25  1  0  0  0  0
 25 26  1  0  0  0  0
 25 27  1  0  0  0  0
 25 28  1  0  0  0  0
M  END
$$$$

  -OEChem-03222214033D

 28 27  0     1  0  0  0  0  0999 V2000
   -3.2608   -3.7508    1.4597 H   0  0  0  0  0  0  0  0  0  0  0  0
   -3.2440   -2.7797    0.9568 C   0  0  0  0  0  0  0  0  0  0  0  0
   -3.8513   -2.0758    1.5308 H   0  0  0  0  0  0  0  0  0  0  0  0
   -3.6742   -2.8923   -0.0413 H   0  0  0  0  0  0  0  0  0  0  0  0
   -1.8189   -2.2705    0.8513 C   0  0  0  0  0  0  0  0  0  0  0  0
   -0.8934   -2.9518    1.2617 O   0  0  0  0  0  0  0  0  0  0  0  0
   -1.5709   -1.0353    0.2906 N   0  0  0  0  0  0  0  0  0  0  0  0
   -2.3764   -0.4510    0.0699 H   0  0  0  0  0  0  0  0  0  0  0  0
   -0.2513   -0.3849    0.2586 C   0  0  1  0  0  0  0  0  0  0  0  0
    0.4098   -0.8461    1.0001 H   0  0  0  0  0  0  0  0  0  0  0  0
    0.4348   -0.4789   -1.1247 C   0  0  0  0  0  0  0  0  0  0  0  0
    1.1493    0.3426   -1.2490 H   0  0  0  0  0  0  0  0  0  0  0  0
    1.0141   -1.4091   -1.1226 H   0  0  0  0  0  0  0  0  0  0  0  0
   -0.5163   -0.5263   -2.3454 C   0  0  0  0  0  0  0  0  0  0  0  0
   -1.3244   -1.2394   -2.1713 H   0  0  0  0  0  0  0  0  0  0  0  0
   -0.9649    0.4582   -2.5019 H   0  0  0  0  0  0  0  0  0  0  0  0
    0.1733   -0.9746   -3.6334 C   0  0  0  0  0  0  0  0  0  0  0  0
    1.3842   -0.8793   -3.7372 O   0  0  0  0  0  0  0  0  0  0  0  0
   -0.6145   -1.4557   -4.6187 O   0  0  0  0  0  0  0  0  0  0  0  0
   -0.0048   -1.6792   -5.3386 H   0  0  0  0  0  0  0  0  0  0  0  0
   -0.4031    1.0972    0.6589 C   0  0  0  0  0  0  0  0  0  0  0  0
   -1.3443    1.7506    0.2223 O   0  0  0  0  0  0  0  0  0  0  0  0
    0.4762    1.6822    1.5510 N   0  0  0  0  0  0  0  0  0  0  0  0
    1.2244    1.1047    1.9245 H   0  0  0  0  0  0  0  0  0  0  0  0
    0.3624    3.0657    1.9967 C   0  0  0  0  0  0  0  0  0  0  0  0
   -0.6005    3.2318    2.4912 H   0  0  0  0  0  0  0  0  0  0  0  0
    1.1604    3.3010    2.7076 H   0  0  0  0  0  0  0  0  0  0  0  0
    0.4445    3.7503    1.1459 H   0  0  0  0  0  0  0  0  0  0  0  0
  1  2  1  0  0  0  0
  2  3  1  0  0  0  0
  2  4  1  0  0  0  0
  2  5  1  0  0  0  0
  5  6  2  0  0  0  0
  5  7  1  0  0  0  0
  7  8  1  0  0  0  0
  7  9  1  0  0  0  0
  9 10  1  0  0  0  0
  9 11  1  0  0  0  0
  9 21  1  0  0  0  0
 11 12  1  0  0  0  0
 11 13  1  0  0  0  0
 11 14  1  0  0  0  0
 14 15  1  0  0  0  0
 14 16  1  0  0  0  0
 14 17  1  0  0  0  0
 17 18  2  0  0  0  0
 17 19  1  0  0  0  0
 19 20  1  0  0  0  0
 21 22  2  0  0  0  0
 21 23  1  0  0  0  0
 23 24  1  0  0  0  0
 23 25  1  0  0  0  0
 25 26  1  0  0  0  0
 25 27  1  0  0  0  0
 25 28  1  0  0  0  0
M  END
$$$$

  -OEChem-03222214033D

 28 27  0     1  0  0  0  0  0999 V2000
   -3.2837   -3.7347    1.4483 H   0  0  0  0  0  0  0  0  0  0  0  0
   -3.2628   -2.7562    0.9605 C   0  0  0  0  0  0  0  0  0  0  0  0
   -3.8536   -2.0542    1.5540 H   0  0  0  0  0  0  0  0  0  0  0  0
   -3.7079   -2.8481   -0.0331 H   0  0  0  0  0  0  0  0  0  0  0  0
   -1.8339   -2.2619    0.8426 C   0  0  0  0  0  0  0  0  0  0  0  0
   -0.9110   -2.9525    1.2434 O   0  0  0  0  0  0  0  0  0  0  0  0
   -1.5810   -1.0254    0.2882 N   0  0  0  0  0  0  0  0  0  0  0  0
   -2.3837   -0.4323    0.0810 H   0  0  0  0  0  0  0  0  0  0  0  0
   -0.2574   -0.3853    0.2498 C   0  0  1  0  0  0  0  0  0  0  0  0
    0.4042   -0.8549    0.9856 H   0  0  0  0  0  0  0  0  0  0  0  0
    0.4260   -0.4694   -1.1369 C   0  0  0  0  0  0  0  0  0  0  0  0
    1.1573    0.3383   -1.2538 H   0  0  0  0  0  0  0  0  0  0  0  0
    0.9915   -1.4081   -1.1308 H   0  0  0  0  0  0  0  0  0  0  0  0
   -0.5085   -0.4996   -2.3744 C   0  0  0  0  0  0  0  0  0  0  0  0
   -1.4561   -0.9875   -2.1443 H   0  0  0  0  0  0  0  0  0  0  0  0
   -0.7362    0.5221   -2.6889 H   0  0  0  0  0  0  0  0  0  0  0  0
    0.0898   -1.2719   -3.5480 C   0  0  0  0  0  0  0  0  0  0  0  0
    1.2836   -1.1768   -3.7744 O   0  0  0  0  0  0  0  0  0  0  0  0
   -0.7456   -2.0259   -4.2944 O   0  0  0  0  0  0  0  0  0  0  0  0
   -0.1807   -2.4266   -4.9728 H   0  0  0  0  0  0  0  0  0  0  0  0
   -0.4019    1.0939    0.6620 C   0  0  0  0  0  0  0  0  0  0  0  0
   -1.3466    1.7520    0.2400 O   0  0  0  0  0  0  0  0  0  0  0  0
    0.4849    1.6699    1.5524 N   0  0  0  0  0  0  0  0  0  0  0  0
    1.2296    1.0857    1.9227 H   0  0  0  0  0  0  0  0  0  0  0  0
    0.3663    3.0456    2.0208 C   0  0  0  0  0  0  0  0  0  0  0  0
   -0.5894    3.1952    2.5342 H   0  0  0  0  0  0  0  0  0  0  0  0
    1.1745    3.2779    2.7210 H   0  0  0  0  0  0  0  0  0  0  0  0
    0.4271    3.7434    1.1789 H   0  0  0  0  0  0  0  0  0  0  0  0
  1  2  1  0  0  0  0
  2  3  1  0  0  0  0
  2  4  1  0  0  0  0
  2  5  1  0  0  0  0
  5  6  2  0  0  0  0
  5  7  1  0  0  0  0
  7  8  1  0  0  0  0
  7  9  1  0  0  0  0
  9 10  1  0  0  0  0
  9 11  1  0  0  0  0
  9 21  1  0  0  0  0
 11 12  1  0  0  0  0
 11 13  1  0  0  0  0
 11 14  1  0  0  0  0
 14 15  1  0  0  0  0
 14 16  1  0  0  0  0
 14 17  1  0  0  0  0
 17 18  2  0  0  0  0
 17 19  1  0  0  0  0
 19 20  1  0  0  0  0
 21 22  2  0  0  0  0
 21 23  1  0  0  0  0
 23 24  1  0  0  0  0
 23 25  1  0  0  0  0
 25 26  1  0  0  0  0
 25 27  1  0  0  0  0
 25 28  1  0  0  0  0
M  END
$$$$

  -OEChem-03222214033D

 28 27  0     1  0  0  0  0  0999 V2000
   -3.3026   -3.7284    1.4079 H   0  0  0  0  0  0  0  0  0  0  0  0
   -3.2746   -2.7506    0.9191 C   0  0  0  0  0  0  0  0  0  0  0  0
   -3.8760   -2.0486    1.5015 H   0  0  0  0  0  0  0  0  0  0  0  0
   -3.7030   -2.8446   -0.0817 H   0  0  0  0  0  0  0  0  0  0  0  0
   -1.8444   -2.2545    0.8250 C   0  0  0  0  0  0  0  0  0  0  0  0
   -0.9270   -2.9448    1.2389 O   0  0  0  0  0  0  0  0  0  0  0  0
   -1.5833   -1.0164    0.2777 N   0  0  0  0  0  0  0  0  0  0  0  0
   -2.3830   -0.4235    0.0591 H   0  0  0  0  0  0  0  0  0  0  0  0
   -0.2571   -0.3806    0.2503 C   0  0  1  0  0  0  0  0  0  0  0  0
    0.3996   -0.8557    0.9869 H   0  0  0  0  0  0  0  0  0  0  0  0
    0.4309   -0.4656   -1.1345 C   0  0  0  0  0  0  0  0  0  0  0  0
    1.1627    0.3423   -1.2453 H   0  0  0  0  0  0  0  0  0  0  0  0
    1.0019   -1.4011   -1.1238 H   0  0  0  0  0  0  0  0  0  0  0  0
   -0.4951   -0.4888   -2.3812 C   0  0  0  0  0  0  0  0  0  0  0  0
   -1.5346   -0.6870   -2.1199 H   0  0  0  0  0  0  0  0  0  0  0  0
   -0.4759    0.4927   -2.8618 H   0  0  0  0  0  0  0  0  0  0  0  0
   -0.0766   -1.5444   -3.3994 C   0  0  0  0  0  0  0  0  0  0  0  0
    1.0750   -1.5482   -3.7972 O   0  0  0  0  0  0  0  0  0  0  0  0
   -1.0069   -2.4309   -3.8150 O   0  0  0  0  0  0  0  0  0  0  0  0
   -0.5399   -3.0081   -4.4383 H   0  0  0  0  0  0  0  0  0  0  0  0
   -0.3967    1.0976    0.6675 C   0  0  0  0  0  0  0  0  0  0  0  0
   -1.3302    1.7645    0.2350 O   0  0  0  0  0  0  0  0  0  0  0  0
    0.4869    1.6668    1.5654 N   0  0  0  0  0  0  0  0  0  0  0  0
    1.2185    1.0746    1.9487 H   0  0  0  0  0  0  0  0  0  0  0  0
    0.3721    3.0421    2.0362 C   0  0  0  0  0  0  0  0  0  0  0  0
   -0.5857    3.1949    2.5449 H   0  0  0  0  0  0  0  0  0  0  0  0
    1.1777    3.2699    2.7409 H   0  0  0  0  0  0  0  0  0  0  0  0
    0.4402    3.7415    1.1962 H   0  0  0  0  0  0  0  0  0  0  0  0
  1  2  1  0  0  0  0
  2  3  1  0  0  0  0
  2  4  1  0  0  0  0
  2  5  1  0  0  0  0
  5  6  2  0  0  0  0
  5  7  1  0  0  0  0
  7  8  1  0  0  0  0
  7  9  1  0  0  0  0
  9 10  1  0  0  0  0
  9 11  1  0  0  0  0
  9 21  1  0  0  0  0
 11 12  1  0  0  0  0
 11 13  1  0  0  0  0
 11 14  1  0  0  0  0
 14 15  1  0  0  0  0
 14 16  1  0  0  0  0
 14 17  1  0  0  0  0
 17 18  2  0  0  0  0
 17 19  1  0  0  0  0
 19 20  1  0  0  0  0
 21 22  2  0  0  0  0
 21 23  1  0  0  0  0
 23 24  1  0  0  0  0
 23 25  1  0  0  0  0
 25 26  1  0  0  0  0
 25 27  1  0  0  0  0
 25 28  1  0  0  0  0
M  END
$$$$

  -OEChem-03222214033D

 28 27  0     1  0  0  0  0  0999 V2000
   -3.3142   -3.7291    1.3050 H   0  0  0  0  0  0  0  0  0  0  0  0
   -3.2756   -2.7466    0.8263 C   0  0  0  0  0  0  0  0  0  0  0  0
   -3.9061   -2.0550    1.3902 H   0  0  0  0  0  0  0  0  0  0  0  0
   -3.6624   -2.8350   -0.1920 H   0  0  0  0  0  0  0  0  0  0  0  0
   -1.8474   -2.2376    0.7932 C   0  0  0  0  0  0  0  0  0  0  0  0
   -0.9426   -2.9184    1.2494 O   0  0  0  0  0  0  0  0  0  0  0  0
   -1.5734   -0.9996    0.2525 N   0  0  0  0  0  0  0  0  0  0  0  0
   -2.3666   -0.4169   -0.0112 H   0  0  0  0  0  0  0  0  0  0  0  0
   -0.2456   -0.3663    0.2479 C   0  0  1  0  0  0  0  0  0  0  0  0
    0.4002   -0.8442    0.9924 H   0  0  0  0  0  0  0  0  0  0  0  0
    0.4493   -0.4690   -1.1313 C   0  0  0  0  0  0  0  0  0  0  0  0
    1.1617    0.3556   -1.2438 H   0  0  0  0  0  0  0  0  0  0  0  0
    1.0429   -1.3903   -1.1223 H   0  0  0  0  0  0  0  0  0  0  0  0
   -0.4849   -0.4970   -2.3699 C   0  0  0  0  0  0  0  0  0  0  0  0
   -1.5369   -0.3731   -2.1090 H   0  0  0  0  0  0  0  0  0  0  0  0
   -0.2319    0.3462   -3.0184 H   0  0  0  0  0  0  0  0  0  0  0  0
   -0.3198   -1.7741   -3.1836 C   0  0  0  0  0  0  0  0  0  0  0  0
    0.7128   -1.9376   -3.8086 O   0  0  0  0  0  0  0  0  0  0  0  0
   -1.3258   -2.6753   -3.1605 O   0  0  0  0  0  0  0  0  0  0  0  0
   -1.0139   -3.4094   -3.7115 H   0  0  0  0  0  0  0  0  0  0  0  0
   -0.3833    1.1123    0.6639 C   0  0  0  0  0  0  0  0  0  0  0  0
   -1.3010    1.7878    0.2113 O   0  0  0  0  0  0  0  0  0  0  0  0
    0.4902    1.6743    1.5761 N   0  0  0  0  0  0  0  0  0  0  0  0
    1.2032    1.0728    1.9793 H   0  0  0  0  0  0  0  0  0  0  0  0
    0.3676    3.0446    2.0587 C   0  0  0  0  0  0  0  0  0  0  0  0
   -0.5952    3.1900    2.5600 H   0  0  0  0  0  0  0  0  0  0  0  0
    1.1662    3.2673    2.7728 H   0  0  0  0  0  0  0  0  0  0  0  0
    0.4419    3.7523    1.2263 H   0  0  0  0  0  0  0  0  0  0  0  0
  1  2  1  0  0  0  0
  2  3  1  0  0  0  0
  2  4  1  0  0  0  0
  2  5  1  0  0  0  0
  5  6  2  0  0  0  0
  5  7  1  0  0  0  0
  7  8  1  0  0  0  0
  7  9  1  0  0  0  0
  9 10  1  0  0  0  0
  9 11  1  0  0  0  0
  9 21  1  0  0  0  0
 11 12  1  0  0  0  0
 11 13  1  0  0  0  0
 11 14  1  0  0  0  0
 14 15  1  0  0  0  0
 14 16  1  0  0  0  0
 14 17  1  0  0  0  0
 17 18  2  0  0  0  0
 17 19  1  0  0  0  0
 19 20  1  0  0  0  0
 21 22  2  0  0  0  0
 21 23  1  0  0  0  0
 23 24  1  0  0  0  0
 23 25  1  0  0  0  0
 25 26  1  0  0  0  0
 25 27  1  0  0  0  0
 25 28  1  0  0  0  0
M  END
$$$$

  -OEChem-03222214033D

 28 27  0     1  0  0  0  0  0999 V2000
   -3.3156   -3.7374    1.2284 H   0  0  0  0  0  0  0  0  0  0  0  0
   -3.2651   -2.7537    0.7535 C   0  0  0  0  0  0  0  0  0  0  0  0
   -3.9257   -2.0684    1.2898 H   0  0  0  0  0  0  0  0  0  0  0  0
   -3.6060   -2.8438   -0.2809 H   0  0  0  0  0  0  0  0  0  0  0  0
   -1.8418   -2.2310    0.7826 C   0  0  0  0  0  0  0  0  0  0  0  0
   -0.9521   -2.8978    1.2870 O   0  0  0  0  0  0  0  0  0  0  0  0
   -1.5561   -0.9971    0.2393 N   0  0  0  0  0  0  0  0  0  0  0  0
   -2.3402   -0.4384   -0.0928 H   0  0  0  0  0  0  0  0  0  0  0  0
   -0.2305   -0.3596    0.2559 C   0  0  1  0  0  0  0  0  0  0  0  0
    0.4046   -0.8322    1.0127 H   0  0  0  0  0  0  0  0  0  0  0  0
    0.4750   -0.4828   -1.1155 C   0  0  0  0  0  0  0  0  0  0  0  0
    1.1677    0.3575   -1.2350 H   0  0  0  0  0  0  0  0  0  0  0  0
    1.0872   -1.3916   -1.1045 H   0  0  0  0  0  0  0  0  0  0  0  0
   -0.4699   -0.5265   -2.3418 C   0  0  0  0  0  0  0  0  0  0  0  0
   -1.4592   -0.1227   -2.1151 H   0  0  0  0  0  0  0  0  0  0  0  0
   -0.0510    0.1105   -3.1255 H   0  0  0  0  0  0  0  0  0  0  0  0
   -0.5922   -1.9304   -2.9215 C   0  0  0  0  0  0  0  0  0  0  0  0
    0.3306   -2.3676   -3.5852 O   0  0  0  0  0  0  0  0  0  0  0  0
   -1.7181   -2.6315   -2.6620 O   0  0  0  0  0  0  0  0  0  0  0  0
   -1.5771   -3.4889   -3.0927 H   0  0  0  0  0  0  0  0  0  0  0  0
   -0.3736    1.1229    0.6568 C   0  0  0  0  0  0  0  0  0  0  0  0
   -1.2721    1.8001    0.1697 O   0  0  0  0  0  0  0  0  0  0  0  0
    0.4835    1.6916    1.5806 N   0  0  0  0  0  0  0  0  0  0  0  0
    1.1749    1.0873    2.0161 H   0  0  0  0  0  0  0  0  0  0  0  0
    0.3497    3.0650    2.0520 C   0  0  0  0  0  0  0  0  0  0  0  0
   -0.6183    3.2085    2.5435 H   0  0  0  0  0  0  0  0  0  0  0  0
    1.1406    3.2972    2.7715 H   0  0  0  0  0  0  0  0  0  0  0  0
    0.4279    3.7675    1.2155 H   0  0  0  0  0  0  0  0  0  0  0  0
  1  2  1  0  0  0  0
  2  3  1  0  0  0  0
  2  4  1  0  0  0  0
  2  5  1  0  0  0  0
  5  6  2  0  0  0  0
  5  7  1  0  0  0  0
  7  8  1  0  0  0  0
  7  9  1  0  0  0  0
  9 10  1  0  0  0  0
  9 11  1  0  0  0  0
  9 21  1  0  0  0  0
 11 12  1  0  0  0  0
 11 13  1  0  0  0  0
 11 14  1  0  0  0  0
 14 15  1  0  0  0  0
 14 16  1  0  0  0  0
 14 17  1  0  0  0  0
 17 18  2  0  0  0  0
 17 19  1  0  0  0  0
 19 20  1  0  0  0  0
 21 22  2  0  0  0  0
 21 23  1  0  0  0  0
 23 24  1  0  0  0  0
 23 25  1  0  0  0  0
 25 26  1  0  0  0  0
 25 27  1  0  0  0  0
 25 28  1  0  0  0  0
M  END
$$$$

  -OEChem-03222214033D

 28 27  0     1  0  0  0  0  0999 V2000
   -3.3089   -3.7452    1.2885 H   0  0  0  0  0  0  0  0  0  0  0  0
   -3.2622   -2.7650    0.8057 C   0  0  0  0  0  0  0  0  0  0  0  0
   -3.9148   -2.0744    1.3452 H   0  0  0  0  0  0  0  0  0  0  0  0
   -3.6180   -2.8611   -0.2227 H   0  0  0  0  0  0  0  0  0  0  0  0
   -1.8373   -2.2448    0.8146 C   0  0  0  0  0  0  0  0  0  0  0  0
   -0.9487   -2.9004    1.3348 O   0  0  0  0  0  0  0  0  0  0  0  0
   -1.5518   -1.0182    0.2545 N   0  0  0  0  0  0  0  0  0  0  0  0
   -2.3336   -0.4756   -0.1091 H   0  0  0  0  0  0  0  0  0  0  0  0
   -0.2303   -0.3729    0.2729 C   0  0  1  0  0  0  0  0  0  0  0  0
    0.4005   -0.8311    1.0417 H   0  0  0  0  0  0  0  0  0  0  0  0
    0.4960   -0.4977   -1.0885 C   0  0  0  0  0  0  0  0  0  0  0  0
    1.1780    0.3517   -1.2046 H   0  0  0  0  0  0  0  0  0  0  0  0
    1.1191   -1.3989   -1.0692 H   0  0  0  0  0  0  0  0  0  0  0  0
   -0.4317   -0.5583   -2.3247 C   0  0  0  0  0  0  0  0  0  0  0  0
   -1.3221    0.0578   -2.1721 H   0  0  0  0  0  0  0  0  0  0  0  0
    0.1004   -0.1414   -3.1839 H   0  0  0  0  0  0  0  0  0  0  0  0
   -0.8376   -1.9815   -2.6966 C   0  0  0  0  0  0  0  0  0  0  0  0
    0.0207   -2.7333   -3.1222 O   0  0  0  0  0  0  0  0  0  0  0  0
   -2.1329   -2.3416   -2.5570 O   0  0  0  0  0  0  0  0  0  0  0  0
   -2.1588   -3.2634   -2.8577 H   0  0  0  0  0  0  0  0  0  0  0  0
   -0.3870    1.1150    0.6496 C   0  0  0  0  0  0  0  0  0  0  0  0
   -1.2808    1.7820    0.1406 O   0  0  0  0  0  0  0  0  0  0  0  0
    0.4590    1.7017    1.5725 N   0  0  0  0  0  0  0  0  0  0  0  0
    1.1472    1.1066    2.0253 H   0  0  0  0  0  0  0  0  0  0  0  0
    0.3235    3.0848    2.0138 C   0  0  0  0  0  0  0  0  0  0  0  0
   -0.6435    3.2380    2.5044 H   0  0  0  0  0  0  0  0  0  0  0  0
    1.1163    3.3342    2.7257 H   0  0  0  0  0  0  0  0  0  0  0  0
    0.3984    3.7685    1.1615 H   0  0  0  0  0  0  0  0  0  0  0  0
  1  2  1  0  0  0  0
  2  3  1  0  0  0  0
  2  4  1  0  0  0  0
  2  5  1  0  0  0  0
  5  6  2  0  0  0  0
  5  7  1  0  0  0  0
  7  8  1  0  0  0  0
  7  9  1  0  0  0  0
  9 10  1  0  0  0  0
  9 11  1  0  0  0  0
  9 21  1  0  0  0  0
 11 12  1  0  0  0  0
 11 13  1  0  0  0  0
 11 14  1  0  0  0  0
 14 15  1  0  0  0  0
 14 16  1  0  0  0  0
 14 17  1  0  0  0  0
 17 18  2  0  0  0  0
 17 19  1  0  0  0  0
 19 20  1  0  0  0  0
 21 22  2  0  0  0  0
 21 23  1  0  0  0  0
 23 24  1  0  0  0  0
 23 25  1  0  0  0  0
 25 26  1  0  0  0  0
 25 27  1  0  0  0  0
 25 28  1  0  0  0  0
M  END
$$$$

  -OEChem-03222214033D

 28 27  0     1  0  0  0  0  0999 V2000
   -3.2848   -3.7682    1.3893 H   0  0  0  0  0  0  0  0  0  0  0  0
   -3.2477   -2.8032    0.8763 C   0  0  0  0  0  0  0  0  0  0  0  0
   -3.9199   -2.1078    1.3845 H   0  0  0  0  0  0  0  0  0  0  0  0
   -3.5865   -2.9389   -0.1529 H   0  0  0  0  0  0  0  0  0  0  0  0
   -1.8321   -2.2579    0.8901 C   0  0  0  0  0  0  0  0  0  0  0  0
   -0.9433   -2.8816    1.4473 O   0  0  0  0  0  0  0  0  0  0  0  0
   -1.5589   -1.0386    0.3066 N   0  0  0  0  0  0  0  0  0  0  0  0
   -2.3396   -0.5241   -0.0993 H   0  0  0  0  0  0  0  0  0  0  0  0
   -0.2401   -0.3890    0.3026 C   0  0  1  0  0  0  0  0  0  0  0  0
    0.3998   -0.8334    1.0722 H   0  0  0  0  0  0  0  0  0  0  0  0
    0.4882   -0.5043   -1.0614 C   0  0  0  0  0  0  0  0  0  0  0  0
    1.1754    0.3416   -1.1710 H   0  0  0  0  0  0  0  0  0  0  0  0
    1.1046   -1.4099   -1.0399 H   0  0  0  0  0  0  0  0  0  0  0  0
   -0.4142   -0.5717   -2.3157 C   0  0  0  0  0  0  0  0  0  0  0  0
   -1.1694    0.2177   -2.2655 H   0  0  0  0  0  0  0  0  0  0  0  0
    0.1971   -0.3797   -3.2012 H   0  0  0  0  0  0  0  0  0  0  0  0
   -1.1072   -1.9153   -2.5276 C   0  0  0  0  0  0  0  0  0  0  0  0
   -0.4154   -2.8974   -2.7243 O   0  0  0  0  0  0  0  0  0  0  0  0
   -2.4584   -1.9532   -2.5216 O   0  0  0  0  0  0  0  0  0  0  0  0
   -2.6732   -2.8771   -2.7244 H   0  0  0  0  0  0  0  0  0  0  0  0
   -0.4047    1.1036    0.6586 C   0  0  0  0  0  0  0  0  0  0  0  0
   -1.2923    1.7645    0.1311 O   0  0  0  0  0  0  0  0  0  0  0  0
    0.4455    1.7086    1.5656 N   0  0  0  0  0  0  0  0  0  0  0  0
    1.1278    1.1201    2.0356 H   0  0  0  0  0  0  0  0  0  0  0  0
    0.3214    3.1045    1.9681 C   0  0  0  0  0  0  0  0  0  0  0  0
   -0.6470    3.2804    2.4483 H   0  0  0  0  0  0  0  0  0  0  0  0
    1.1125    3.3657    2.6778 H   0  0  0  0  0  0  0  0  0  0  0  0
    0.4081    3.7639    1.0979 H   0  0  0  0  0  0  0  0  0  0  0  0
  1  2  1  0  0  0  0
  2  3  1  0  0  0  0
  2  4  1  0  0  0  0
  2  5  1  0  0  0  0
  5  6  2  0  0  0  0
  5  7  1  0  0  0  0
  7  8  1  0  0  0  0
  7  9  1  0  0  0  0
  9 10  1  0  0  0  0
  9 11  1  0  0  0  0
  9 21  1  0  0  0  0
 11 12  1  0  0  0  0
 11 13  1  0  0  0  0
 11 14  1  0  0  0  0
 14 15  1  0  0  0  0
 14 16  1  0  0  0  0
 14 17  1  0  0  0  0
 17 18  2  0  0  0  0
 17 19  1  0  0  0  0
 19 20  1  0  0  0  0
 21 22  2  0  0  0  0
 21 23  1  0  0  0  0
 23 24  1  0  0  0  0
 23 25  1  0  0  0  0
 25 26  1  0  0  0  0
 25 27  1  0  0  0  0
 25 28  1  0  0  0  0
M  END
$$$$

  -OEChem-03222214033D

 28 27  0     1  0  0  0  0  0999 V2000
   -3.2500   -3.7991    1.4737 H   0  0  0  0  0  0  0  0  0  0  0  0
   -3.2259   -2.8409    0.9474 C   0  0  0  0  0  0  0  0  0  0  0  0
   -3.9254   -2.1547    1.4310 H   0  0  0  0  0  0  0  0  0  0  0  0
   -3.5384   -3.0006   -0.0868 H   0  0  0  0  0  0  0  0  0  0  0  0
   -1.8244   -2.2616    0.9823 C   0  0  0  0  0  0  0  0  0  0  0  0
   -0.9341   -2.8503    1.5747 O   0  0  0  0  0  0  0  0  0  0  0  0
   -1.5679   -1.0496    0.3758 N   0  0  0  0  0  0  0  0  0  0  0  0
   -2.3486   -0.5659   -0.0675 H   0  0  0  0  0  0  0  0  0  0  0  0
   -0.2513   -0.4001    0.3324 C   0  0  1  0  0  0  0  0  0  0  0  0
    0.4060   -0.8320    1.0943 H   0  0  0  0  0  0  0  0  0  0  0  0
    0.4622   -0.5098   -1.0428 C   0  0  0  0  0  0  0  0  0  0  0  0
    1.1669    0.3221   -1.1499 H   0  0  0  0  0  0  0  0  0  0  0  0
    1.0598   -1.4278   -1.0173 H   0  0  0  0  0  0  0  0  0  0  0  0
   -0.4107   -0.5829   -2.3208 C   0  0  0  0  0  0  0  0  0  0  0  0
   -0.9941    0.3395   -2.3938 H   0  0  0  0  0  0  0  0  0  0  0  0
    0.2466   -0.6215   -3.1934 H   0  0  0  0  0  0  0  0  0  0  0  0
   -1.3769   -1.7597   -2.4215 C   0  0  0  0  0  0  0  0  0  0  0  0
   -0.9133   -2.8820   -2.5014 O   0  0  0  0  0  0  0  0  0  0  0  0
   -2.7046   -1.5057   -2.4447 O   0  0  0  0  0  0  0  0  0  0  0  0
   -3.1162   -2.3716   -2.5888 H   0  0  0  0  0  0  0  0  0  0  0  0
   -0.4183    1.0958    0.6736 C   0  0  0  0  0  0  0  0  0  0  0  0
   -1.3099    1.7495    0.1441 O   0  0  0  0  0  0  0  0  0  0  0  0
    0.4471    1.7182    1.5543 N   0  0  0  0  0  0  0  0  0  0  0  0
    1.1339    1.1379    2.0279 H   0  0  0  0  0  0  0  0  0  0  0  0
    0.3259    3.1209    1.9336 C   0  0  0  0  0  0  0  0  0  0  0  0
   -0.6407    3.3059    2.4142 H   0  0  0  0  0  0  0  0  0  0  0  0
    1.1193    3.3939    2.6360 H   0  0  0  0  0  0  0  0  0  0  0  0
    0.4100    3.7647    1.0516 H   0  0  0  0  0  0  0  0  0  0  0  0
  1  2  1  0  0  0  0
  2  3  1  0  0  0  0
  2  4  1  0  0  0  0
  2  5  1  0  0  0  0
  5  6  2  0  0  0  0
  5  7  1  0  0  0  0
  7  8  1  0  0  0  0
  7  9  1  0  0  0  0
  9 10  1  0  0  0  0
  9 11  1  0  0  0  0
  9 21  1  0  0  0  0
 11 12  1  0  0  0  0
 11 13  1  0  0  0  0
 11 14  1  0  0  0  0
 14 15  1  0  0  0  0
 14 16  1  0  0  0  0
 14 17  1  0  0  0  0
 17 18  2  0  0  0  0
 17 19  1  0  0  0  0
 19 20  1  0  0  0  0
 21 22  2  0  0  0  0
 21 23  1  0  0  0  0
 23 24  1  0  0  0  0
 23 25  1  0  0  0  0
 25 26  1  0  0  0  0
 25 27  1  0  0  0  0
 25 28  1  0  0  0  0
M  END
$$$$

  -OEChem-03222214033D

 28 27  0     1  0  0  0  0  0999 V2000
   -3.2173   -3.7879    1.6095 H   0  0  0  0  0  0  0  0  0  0  0  0
   -3.1920   -2.8766    1.0055 C   0  0  0  0  0  0  0  0  0  0  0  0
   -3.9271   -2.1713    1.4002 H   0  0  0  0  0  0  0  0  0  0  0  0
   -3.4532   -3.1301   -0.0245 H   0  0  0  0  0  0  0  0  0  0  0  0
   -1.8068   -2.2607    1.0482 C   0  0  0  0  0  0  0  0  0  0  0  0
   -0.9013   -2.8311    1.6359 O   0  0  0  0  0  0  0  0  0  0  0  0
   -1.5755   -1.0479    0.4330 N   0  0  0  0  0  0  0  0  0  0  0  0
   -2.3651   -0.5816   -0.0143 H   0  0  0  0  0  0  0  0  0  0  0  0
   -0.2654   -0.3940    0.3454 C   0  0  1  0  0  0  0  0  0  0  0  0
    0.4132   -0.8211    1.0910 H   0  0  0  0  0  0  0  0  0  0  0  0
    0.4187   -0.5053   -1.0463 C   0  0  0  0  0  0  0  0  0  0  0  0
    1.1366    0.3141   -1.1617 H   0  0  0  0  0  0  0  0  0  0  0  0
    1.0029   -1.4315   -1.0138 H   0  0  0  0  0  0  0  0  0  0  0  0
   -0.4369   -0.5929   -2.3401 C   0  0  0  0  0  0  0  0  0  0  0  0
   -0.8220    0.4096   -2.5474 H   0  0  0  0  0  0  0  0  0  0  0  0
    0.2158   -0.8659   -3.1737 H   0  0  0  0  0  0  0  0  0  0  0  0
   -1.6357   -1.5372   -2.3603 C   0  0  0  0  0  0  0  0  0  0  0  0
   -1.4267   -2.7331   -2.4463 O   0  0  0  0  0  0  0  0  0  0  0  0
   -2.8787   -1.0081   -2.2992 O   0  0  0  0  0  0  0  0  0  0  0  0
   -3.4764   -1.7629   -2.4116 H   0  0  0  0  0  0  0  0  0  0  0  0
   -0.4247    1.1016    0.6903 C   0  0  0  0  0  0  0  0  0  0  0  0
   -1.3291    1.7550    0.1834 O   0  0  0  0  0  0  0  0  0  0  0  0
    0.4682    1.7270    1.5411 N   0  0  0  0  0  0  0  0  0  0  0  0
    1.1623    1.1458    2.0029 H   0  0  0  0  0  0  0  0  0  0  0  0
    0.3476    3.1265    1.9330 C   0  0  0  0  0  0  0  0  0  0  0  0
   -0.5969    3.2964    2.4607 H   0  0  0  0  0  0  0  0  0  0  0  0
    1.1709    3.4062    2.5973 H   0  0  0  0  0  0  0  0  0  0  0  0
    0.3800    3.7763    1.0519 H   0  0  0  0  0  0  0  0  0  0  0  0
  1  2  1  0  0  0  0
  2  3  1  0  0  0  0
  2  4  1  0  0  0  0
  2  5  1  0  0  0  0
  5  6  2  0  0  0  0
  5  7  1  0  0  0  0
  7  8  1  0  0  0  0
  7  9  1  0  0  0  0
  9 10  1  0  0  0  0
  9 11  1  0  0  0  0
  9 21  1  0  0  0  0
 11 12  1  0  0  0  0
 11 13  1  0  0  0  0
 11 14  1  0  0  0  0
 14 15  1  0  0  0  0
 14 16  1  0  0  0  0
 14 17  1  0  0  0  0
 17 18  2  0  0  0  0
 17 19  1  0  0  0  0
 19 20  1  0  0  0  0
 21 22  2  0  0  0  0
 21 23  1  0  0  0  0
 23 24  1  0  0  0  0
 23 25  1  0  0  0  0
 25 26  1  0  0  0  0
 25 27  1  0  0  0  0
 25 28  1  0  0  0  0
M  END
$$$$

  -OEChem-03222214033D

 28 27  0     1  0  0  0  0  0999 V2000
   -3.1908   -3.8037    1.6443 H   0  0  0  0  0  0  0  0  0  0  0  0
   -3.1910   -2.8642    1.0847 C   0  0  0  0  0  0  0  0  0  0  0  0
   -3.8928   -2.1725    1.5565 H   0  0  0  0  0  0  0  0  0  0  0  0
   -3.5170   -3.0647    0.0612 H   0  0  0  0  0  0  0  0  0  0  0  0
   -1.7986   -2.2633    1.0723 C   0  0  0  0  0  0  0  0  0  0  0  0
   -0.8707   -2.8518    1.6050 O   0  0  0  0  0  0  0  0  0  0  0  0
   -1.5843   -1.0453    0.4622 N   0  0  0  0  0  0  0  0  0  0  0  0
   -2.3913   -0.5568    0.0734 H   0  0  0  0  0  0  0  0  0  0  0  0
   -0.2805   -0.3870    0.3399 C   0  0  1  0  0  0  0  0  0  0  0  0
    0.4136   -0.8156    1.0705 H   0  0  0  0  0  0  0  0  0  0  0  0
    0.3791   -0.5048   -1.0636 C   0  0  0  0  0  0  0  0  0  0  0  0
    1.1048    0.3063   -1.1886 H   0  0  0  0  0  0  0  0  0  0  0  0
    0.9566   -1.4348   -1.0231 H   0  0  0  0  0  0  0  0  0  0  0  0
   -0.4660   -0.6095   -2.3676 C   0  0  0  0  0  0  0  0  0  0  0  0
   -0.6357    0.4109   -2.7223 H   0  0  0  0  0  0  0  0  0  0  0  0
    0.1311   -1.1170   -3.1303 H   0  0  0  0  0  0  0  0  0  0  0  0
   -1.8409   -1.2717   -2.3324 C   0  0  0  0  0  0  0  0  0  0  0  0
   -1.9004   -2.4818   -2.4538 O   0  0  0  0  0  0  0  0  0  0  0  0
   -2.9349   -0.4907   -2.1895 O   0  0  0  0  0  0  0  0  0  0  0  0
   -3.6895   -1.0920   -2.2796 H   0  0  0  0  0  0  0  0  0  0  0  0
   -0.4271    1.1064    0.7007 C   0  0  0  0  0  0  0  0  0  0  0  0
   -1.3551    1.7620    0.2426 O   0  0  0  0  0  0  0  0  0  0  0  0
    0.4937    1.7240    1.5273 N   0  0  0  0  0  0  0  0  0  0  0  0
    1.2068    1.1400    1.9550 H   0  0  0  0  0  0  0  0  0  0  0  0
    0.3875    3.1198    1.9358 C   0  0  0  0  0  0  0  0  0  0  0  0
   -0.5407    3.2870    2.4927 H   0  0  0  0  0  0  0  0  0  0  0  0
    1.2305    3.3921    2.5782 H   0  0  0  0  0  0  0  0  0  0  0  0
    0.3955    3.7773    1.0599 H   0  0  0  0  0  0  0  0  0  0  0  0
  1  2  1  0  0  0  0
  2  3  1  0  0  0  0
  2  4  1  0  0  0  0
  2  5  1  0  0  0  0
  5  6  2  0  0  0  0
  5  7  1  0  0  0  0
  7  8  1  0  0  0  0
  7  9  1  0  0  0  0
  9 10  1  0  0  0  0
  9 11  1  0  0  0  0
  9 21  1  0  0  0  0
 11 12  1  0  0  0  0
 11 13  1  0  0  0  0
 11 14  1  0  0  0  0
 14 15  1  0  0  0  0
 14 16  1  0  0  0  0
 14 17  1  0  0  0  0
 17 18  2  0  0  0  0
 17 19  1  0  0  0  0
 19 20  1  0  0  0  0
 21 22  2  0  0  0  0
 21 23  1  0  0  0  0
 23 24  1  0  0  0  0
 23 25  1  0  0  0  0
 25 26  1  0  0  0  0
 25 27  1  0  0  0  0
 25 28  1  0  0  0  0
M  END
$$$$

  -OEChem-03222214033D

 28 27  0     1  0  0  0  0  0999 V2000
   -2.7853   -3.8897    1.9264 H   0  0  0  0  0  0  0  0  0  0  0  0
   -2.9131   -2.9514    1.3797 C   0  0  0  0  0  0  0  0  0  0  0  0
   -3.5505   -2.2854    1.9657 H   0  0  0  0  0  0  0  0  0  0  0  0
   -3.3985   -3.1641    0.4239 H   0  0  0  0  0  0  0  0  0  0  0  0
   -1.5648   -2.3008    1.1369 C   0  0  0  0  0  0  0  0  0  0  0  0
   -0.5395   -2.8618    1.4919 O   0  0  0  0  0  0  0  0  0  0  0  0
   -1.4991   -1.0665    0.5256 N   0  0  0  0  0  0  0  0  0  0  0  0
   -2.3768   -0.5907    0.3214 H   0  0  0  0  0  0  0  0  0  0  0  0
   -0.2595   -0.3395    0.2368 C   0  0  1  0  0  0  0  0  0  0  0  0
    0.5427   -0.7358    0.8681 H   0  0  0  0  0  0  0  0  0  0  0  0
    0.2232   -0.4331   -1.2384 C   0  0  0  0  0  0  0  0  0  0  0  0
    0.8830    0.4155   -1.4489 H   0  0  0  0  0  0  0  0  0  0  0  0
    0.8549   -1.3276   -1.2656 H   0  0  0  0  0  0  0  0  0  0  0  0
   -0.7571   -0.5945   -2.4405 C   0  0  0  0  0  0  0  0  0  0  0  0
   -0.8057    0.3729   -2.9477 H   0  0  0  0  0  0  0  0  0  0  0  0
   -0.3199   -1.3017   -3.1512 H   0  0  0  0  0  0  0  0  0  0  0  0
   -2.2068   -1.0103   -2.2063 C   0  0  0  0  0  0  0  0  0  0  0  0
   -2.4781   -2.1982   -2.1904 O   0  0  0  0  0  0  0  0  0  0  0  0
   -3.1341   -0.0401   -2.0607 O   0  0  0  0  0  0  0  0  0  0  0  0
   -3.9836   -0.4997   -1.9911 H   0  0  0  0  0  0  0  0  0  0  0  0
   -0.4243    1.1412    0.6395 C   0  0  0  0  0  0  0  0  0  0  0  0
   -1.4562    1.7428    0.3683 O   0  0  0  0  0  0  0  0  0  0  0  0
    0.5737    1.7938    1.3405 N   0  0  0  0  0  0  0  0  0  0  0  0
    1.3796    1.2469    1.6301 H   0  0  0  0  0  0  0  0  0  0  0  0
    0.4472    3.1671    1.8144 C   0  0  0  0  0  0  0  0  0  0  0  0
   -0.3813    3.2524    2.5253 H   0  0  0  0  0  0  0  0  0  0  0  0
    1.3677    3.4812    2.3157 H   0  0  0  0  0  0  0  0  0  0  0  0
    0.2628    3.8470    0.9759 H   0  0  0  0  0  0  0  0  0  0  0  0
  1  2  1  0  0  0  0
  2  3  1  0  0  0  0
  2  4  1  0  0  0  0
  2  5  1  0  0  0  0
  5  6  2  0  0  0  0
  5  7  1  0  0  0  0
  7  8  1  0  0  0  0
  7  9  1  0  0  0  0
  9 10  1  0  0  0  0
  9 11  1  0  0  0  0
  9 21  1  0  0  0  0
 11 12  1  0  0  0  0
 11 13  1  0  0  0  0
 11 14  1  0  0  0  0
 14 15  1  0  0  0  0
 14 16  1  0  0  0  0
 14 17  1  0  0  0  0
 17 18  2  0  0  0  0
 17 19  1  0  0  0  0
 19 20  1  0  0  0  0
 21 22  2  0  0  0  0
 21 23  1  0  0  0  0
 23 24  1  0  0  0  0
 23 25  1  0  0  0  0
 25 26  1  0  0  0  0
 25 27  1  0  0  0  0
 25 28  1  0  0  0  0
M  END
$$$$

  -OEChem-03222214033D

 28 27  0     1  0  0  0  0  0999 V2000
   -3.0495   -3.9130    1.5747 H   0  0  0  0  0  0  0  0  0  0  0  0
   -3.1028   -2.9382    1.0823 C   0  0  0  0  0  0  0  0  0  0  0  0
   -3.7649   -2.2871    1.6578 H   0  0  0  0  0  0  0  0  0  0  0  0
   -3.5161   -3.0722    0.0793 H   0  0  0  0  0  0  0  0  0  0  0  0
   -1.7202   -2.3221    0.9900 C   0  0  0  0  0  0  0  0  0  0  0  0
   -0.7468   -2.9305    1.4081 O   0  0  0  0  0  0  0  0  0  0  0  0
   -1.5648   -1.0658    0.4442 N   0  0  0  0  0  0  0  0  0  0  0  0
   -2.4079   -0.5724    0.1565 H   0  0  0  0  0  0  0  0  0  0  0  0
   -0.2838   -0.3680    0.2970 C   0  0  1  0  0  0  0  0  0  0  0  0
    0.4491   -0.8160    0.9764 H   0  0  0  0  0  0  0  0  0  0  0  0
    0.3180   -0.4260   -1.1359 C   0  0  0  0  0  0  0  0  0  0  0  0
    0.9982    0.4247   -1.2535 H   0  0  0  0  0  0  0  0  0  0  0  0
    0.9454   -1.3239   -1.1502 H   0  0  0  0  0  0  0  0  0  0  0  0
   -0.5618   -0.5101   -2.4224 C   0  0  0  0  0  0  0  0  0  0  0  0
   -0.3097    0.3465   -3.0536 H   0  0  0  0  0  0  0  0  0  0  0  0
   -0.2667   -1.4061   -2.9759 H   0  0  0  0  0  0  0  0  0  0  0  0
   -2.0845   -0.5359   -2.3172 C   0  0  0  0  0  0  0  0  0  0  0  0
   -2.6588   -1.6083   -2.2308 O   0  0  0  0  0  0  0  0  0  0  0  0
   -2.7322    0.6462   -2.3780 O   0  0  0  0  0  0  0  0  0  0  0  0
   -3.6754    0.4371   -2.3163 H   0  0  0  0  0  0  0  0  0  0  0  0
   -0.4435    1.0984    0.7523 C   0  0  0  0  0  0  0  0  0  0  0  0
   -1.4385    1.7380    0.4342 O   0  0  0  0  0  0  0  0  0  0  0  0
    0.5058    1.6889    1.5665 N   0  0  0  0  0  0  0  0  0  0  0  0
    1.2732    1.1083    1.8923 H   0  0  0  0  0  0  0  0  0  0  0  0
    0.3710    3.0411    2.0953 C   0  0  0  0  0  0  0  0  0  0  0  0
   -0.5273    3.1223    2.7164 H   0  0  0  0  0  0  0  0  0  0  0  0
    1.2402    3.2969    2.7088 H   0  0  0  0  0  0  0  0  0  0  0  0
    0.3000    3.7666    1.2779 H   0  0  0  0  0  0  0  0  0  0  0  0
  1  2  1  0  0  0  0
  2  3  1  0  0  0  0
  2  4  1  0  0  0  0
  2  5  1  0  0  0  0
  5  6  2  0  0  0  0
  5  7  1  0  0  0  0
  7  8  1  0  0  0  0
  7  9  1  0  0  0  0
  9 10  1  0  0  0  0
  9 11  1  0  0  0  0
  9 21  1  0  0  0  0
 11 12  1  0  0  0  0
 11 13  1  0  0  0  0
 11 14  1  0  0  0  0
 14 15  1  0  0  0  0
 14 16  1  0  0  0  0
 14 17  1  0  0  0  0
 17 18  2  0  0  0  0
 17 19  1  0  0  0  0
 19 20  1  0  0  0  0
 21 22  2  0  0  0  0
 21 23  1  0  0  0  0
 23 24  1  0  0  0  0
 23 25  1  0  0  0  0
 25 26  1  0  0  0  0
 25 27  1  0  0  0  0
 25 28  1  0  0  0  0
M  END
$$$$

  -OEChem-03222214033D

 28 27  0     1  0  0  0  0  0999 V2000
   -3.1847   -3.7864    1.3687 H   0  0  0  0  0  0  0  0  0  0  0  0
   -3.2029   -2.7891    0.9208 C   0  0  0  0  0  0  0  0  0  0  0  0
   -3.7991   -2.1287    1.5551 H   0  0  0  0  0  0  0  0  0  0  0  0
   -3.6676   -2.8533   -0.0661 H   0  0  0  0  0  0  0  0  0  0  0  0
   -1.7920   -2.2489    0.7901 C   0  0  0  0  0  0  0  0  0  0  0  0
   -0.8361   -2.9495    1.0852 O   0  0  0  0  0  0  0  0  0  0  0  0
   -1.5906   -0.9644    0.3340 N   0  0  0  0  0  0  0  0  0  0  0  0
   -2.4154   -0.3841    0.1858 H   0  0  0  0  0  0  0  0  0  0  0  0
   -0.2865   -0.2991    0.2530 C   0  0  1  0  0  0  0  0  0  0  0  0
    0.4105   -0.8123    0.9240 H   0  0  0  0  0  0  0  0  0  0  0  0
    0.3436   -0.3363   -1.1648 C   0  0  0  0  0  0  0  0  0  0  0  0
    1.0188    0.5227   -1.2453 H   0  0  0  0  0  0  0  0  0  0  0  0
    0.9752   -1.2303   -1.2035 H   0  0  0  0  0  0  0  0  0  0  0  0
   -0.5303   -0.3581   -2.4539 C   0  0  0  0  0  0  0  0  0  0  0  0
   -0.0666    0.2953   -3.1985 H   0  0  0  0  0  0  0  0  0  0  0  0
   -0.4918   -1.3733   -2.8580 H   0  0  0  0  0  0  0  0  0  0  0  0
   -2.0117    0.0061   -2.3749 C   0  0  0  0  0  0  0  0  0  0  0  0
   -2.3114    1.1782   -2.4937 O   0  0  0  0  0  0  0  0  0  0  0  0
   -2.9315   -0.9809   -2.2804 O   0  0  0  0  0  0  0  0  0  0  0  0
   -3.7828   -0.5201   -2.3410 H   0  0  0  0  0  0  0  0  0  0  0  0
   -0.3928    1.1400    0.8024 C   0  0  0  0  0  0  0  0  0  0  0  0
   -1.4022    1.8024    0.6007 O   0  0  0  0  0  0  0  0  0  0  0  0
    0.5710    1.6339    1.6629 N   0  0  0  0  0  0  0  0  0  0  0  0
    1.3485    1.0251    1.9014 H   0  0  0  0  0  0  0  0  0  0  0  0
    0.4614    2.9303    2.3215 C   0  0  0  0  0  0  0  0  0  0  0  0
   -0.4286    2.9620    2.9590 H   0  0  0  0  0  0  0  0  0  0  0  0
    1.3409    3.1145    2.9458 H   0  0  0  0  0  0  0  0  0  0  0  0
    0.3910    3.7321    1.5789 H   0  0  0  0  0  0  0  0  0  0  0  0
  1  2  1  0  0  0  0
  2  3  1  0  0  0  0
  2  4  1  0  0  0  0
  2  5  1  0  0  0  0
  5  6  2  0  0  0  0
  5  7  1  0  0  0  0
  7  8  1  0  0  0  0
  7  9  1  0  0  0  0
  9 10  1  0  0  0  0
  9 11  1  0  0  0  0
  9 21  1  0  0  0  0
 11 12  1  0  0  0  0
 11 13  1  0  0  0  0
 11 14  1  0  0  0  0
 14 15  1  0  0  0  0
 14 16  1  0  0  0  0
 14 17  1  0  0  0  0
 17 18  2  0  0  0  0
 17 19  1  0  0  0  0
 19 20  1  0  0  0  0
 21 22  2  0  0  0  0
 21 23  1  0  0  0  0
 23 24  1  0  0  0  0
 23 25  1  0  0  0  0
 25 26  1  0  0  0  0
 25 27  1  0  0  0  0
 25 28  1  0  0  0  0
M  END
$$$$

  -OEChem-03222214033D

 28 27  0     1  0  0  0  0  0999 V2000
   -3.0870   -3.8841    1.4915 H   0  0  0  0  0  0  0  0  0  0  0  0
   -3.1317   -2.8902    1.0381 C   0  0  0  0  0  0  0  0  0  0  0  0
   -3.8268   -2.2711    1.6102 H   0  0  0  0  0  0  0  0  0  0  0  0
   -3.5001   -2.9851    0.0135 H   0  0  0  0  0  0  0  0  0  0  0  0
   -1.7558   -2.2525    1.0340 C   0  0  0  0  0  0  0  0  0  0  0  0
   -0.8071   -2.8300    1.5426 O   0  0  0  0  0  0  0  0  0  0  0  0
   -1.5769   -1.0240    0.4379 N   0  0  0  0  0  0  0  0  0  0  0  0
   -2.3898   -0.6175   -0.0300 H   0  0  0  0  0  0  0  0  0  0  0  0
   -0.2871   -0.3373    0.2933 C   0  0  1  0  0  0  0  0  0  0  0  0
    0.4313   -0.7615    1.0026 H   0  0  0  0  0  0  0  0  0  0  0  0
    0.3093   -0.5008   -1.1318 C   0  0  0  0  0  0  0  0  0  0  0  0
    0.9597    0.3608   -1.3183 H   0  0  0  0  0  0  0  0  0  0  0  0
    0.9571   -1.3836   -1.1139 H   0  0  0  0  0  0  0  0  0  0  0  0
   -0.6273   -0.6543   -2.3645 C   0  0  0  0  0  0  0  0  0  0  0  0
   -0.1045   -0.2986   -3.2562 H   0  0  0  0  0  0  0  0  0  0  0  0
   -0.8213   -1.7209   -2.5090 H   0  0  0  0  0  0  0  0  0  0  0  0
   -1.9889    0.0365   -2.2989 C   0  0  0  0  0  0  0  0  0  0  0  0
   -2.9754   -0.5947   -1.9518 O   0  0  0  0  0  0  0  0  0  0  0  0
   -2.0272    1.3338   -2.6683 O   0  0  0  0  0  0  0  0  0  0  0  0
   -2.9230    1.6381   -2.4587 H   0  0  0  0  0  0  0  0  0  0  0  0
   -0.4292    1.1537    0.6745 C   0  0  0  0  0  0  0  0  0  0  0  0
   -1.4011    1.8023    0.3051 O   0  0  0  0  0  0  0  0  0  0  0  0
    0.5155    1.7612    1.4816 N   0  0  0  0  0  0  0  0  0  0  0  0
    1.2581    1.1777    1.8562 H   0  0  0  0  0  0  0  0  0  0  0  0
    0.3946    3.1354    1.9539 C   0  0  0  0  0  0  0  0  0  0  0  0
   -0.5081    3.2533    2.5626 H   0  0  0  0  0  0  0  0  0  0  0  0
    1.2618    3.4032    2.5650 H   0  0  0  0  0  0  0  0  0  0  0  0
    0.3419    3.8288    1.1078 H   0  0  0  0  0  0  0  0  0  0  0  0
  1  2  1  0  0  0  0
  2  3  1  0  0  0  0
  2  4  1  0  0  0  0
  2  5  1  0  0  0  0
  5  6  2  0  0  0  0
  5  7  1  0  0  0  0
  7  8  1  0  0  0  0
  7  9  1  0  0  0  0
  9 10  1  0  0  0  0
  9 11  1  0  0  0  0
  9 21  1  0  0  0  0
 11 12  1  0  0  0  0
 11 13  1  0  0  0  0
 11 14  1  0  0  0  0
 14 15  1  0  0  0  0
 14 16  1  0  0  0  0
 14 17  1  0  0  0  0
 17 18  2  0  0  0  0
 17 19  1  0  0  0  0
 19 20  1  0  0  0  0
 21 22  2  0  0  0  0
 21 23  1  0  0  0  0
 23 24  1  0  0  0  0
 23 25  1  0  0  0  0
 25 26  1  0  0  0  0
 25 27  1  0  0  0  0
 25 28  1  0  0  0  0
M  END
$$$$

  -OEChem-03222214033D

 28 27  0     1  0  0  0  0  0999 V2000
   -3.1080   -3.8646    1.4370 H   0  0  0  0  0  0  0  0  0  0  0  0
   -3.1486   -2.8661    0.9931 C   0  0  0  0  0  0  0  0  0  0  0  0
   -3.8235   -2.2429    1.5847 H   0  0  0  0  0  0  0  0  0  0  0  0
   -3.5387   -2.9467   -0.0247 H   0  0  0  0  0  0  0  0  0  0  0  0
   -1.7647   -2.2467    0.9681 C   0  0  0  0  0  0  0  0  0  0  0  0
   -0.8140   -2.8399    1.4539 O   0  0  0  0  0  0  0  0  0  0  0  0
   -1.5811   -1.0153    0.3799 N   0  0  0  0  0  0  0  0  0  0  0  0
   -2.3982   -0.5781   -0.0543 H   0  0  0  0  0  0  0  0  0  0  0  0
   -0.2951   -0.3139    0.2598 C   0  0  1  0  0  0  0  0  0  0  0  0
    0.4098   -0.7354    0.9838 H   0  0  0  0  0  0  0  0  0  0  0  0
    0.3211   -0.5081   -1.1507 C   0  0  0  0  0  0  0  0  0  0  0  0
    0.9646    0.3517   -1.3677 H   0  0  0  0  0  0  0  0  0  0  0  0
    0.9686   -1.3905   -1.1144 H   0  0  0  0  0  0  0  0  0  0  0  0
   -0.6534   -0.6993   -2.3409 C   0  0  0  0  0  0  0  0  0  0  0  0
   -0.1022   -0.5931   -3.2784 H   0  0  0  0  0  0  0  0  0  0  0  0
   -1.0536   -1.7169   -2.3107 H   0  0  0  0  0  0  0  0  0  0  0  0
   -1.8301    0.2712   -2.3617 C   0  0  0  0  0  0  0  0  0  0  0  0
   -2.9286   -0.1269   -2.0059 O   0  0  0  0  0  0  0  0  0  0  0  0
   -1.5874    1.5345   -2.7701 O   0  0  0  0  0  0  0  0  0  0  0  0
   -2.4000    2.0239   -2.5680 H   0  0  0  0  0  0  0  0  0  0  0  0
   -0.4298    1.1800    0.6369 C   0  0  0  0  0  0  0  0  0  0  0  0
   -1.3962    1.8375    0.2693 O   0  0  0  0  0  0  0  0  0  0  0  0
    0.5115    1.7776    1.4554 N   0  0  0  0  0  0  0  0  0  0  0  0
    1.2492    1.1882    1.8304 H   0  0  0  0  0  0  0  0  0  0  0  0
    0.3983    3.1517    1.9301 C   0  0  0  0  0  0  0  0  0  0  0  0
   -0.4870    3.2658    2.5644 H   0  0  0  0  0  0  0  0  0  0  0  0
    1.2819    3.4246    2.5149 H   0  0  0  0  0  0  0  0  0  0  0  0
    0.3179    3.8441    1.0853 H   0  0  0  0  0  0  0  0  0  0  0  0
  1  2  1  0  0  0  0
  2  3  1  0  0  0  0
  2  4  1  0  0  0  0
  2  5  1  0  0  0  0
  5  6  2  0  0  0  0
  5  7  1  0  0  0  0
  7  8  1  0  0  0  0
  7  9  1  0  0  0  0
  9 10  1  0  0  0  0
  9 11  1  0  0  0  0
  9 21  1  0  0  0  0
 11 12  1  0  0  0  0
 11 13  1  0  0  0  0
 11 14  1  0  0  0  0
 14 15  1  0  0  0  0
 14 16  1  0  0  0  0
 14 17  1  0  0  0  0
 17 18  2  0  0  0  0
 17 19  1  0  0  0  0
 19 20  1  0  0  0  0
 21 22  2  0  0  0  0
 21 23  1  0  0  0  0
 23 24  1  0  0  0  0
 23 25  1  0  0  0  0
 25 26  1  0  0  0  0
 25 27  1  0  0  0  0
 25 28  1  0  0  0  0
M  END
$$$$

  -OEChem-03222214033D

 28 27  0     1  0  0  0  0  0999 V2000
   -3.2381   -3.7982    1.1506 H   0  0  0  0  0  0  0  0  0  0  0  0
   -3.2232   -2.7931    0.7204 C   0  0  0  0  0  0  0  0  0  0  0  0
   -3.9032   -2.1551    1.2902 H   0  0  0  0  0  0  0  0  0  0  0  0
   -3.5679   -2.8475   -0.3151 H   0  0  0  0  0  0  0  0  0  0  0  0
   -1.8185   -2.2232    0.7689 C   0  0  0  0  0  0  0  0  0  0  0  0
   -0.9083   -2.8695    1.2634 O   0  0  0  0  0  0  0  0  0  0  0  0
   -1.5685   -0.9778    0.2362 N   0  0  0  0  0  0  0  0  0  0  0  0
   -2.3559   -0.4668   -0.1675 H   0  0  0  0  0  0  0  0  0  0  0  0
   -0.2666   -0.2952    0.2452 C   0  0  1  0  0  0  0  0  0  0  0  0
    0.3664   -0.7483    1.0154 H   0  0  0  0  0  0  0  0  0  0  0  0
    0.4674   -0.4620   -1.1093 C   0  0  0  0  0  0  0  0  0  0  0  0
    1.1514    0.3815   -1.2567 H   0  0  0  0  0  0  0  0  0  0  0  0
    1.0812   -1.3665   -1.0441 H   0  0  0  0  0  0  0  0  0  0  0  0
   -0.4322   -0.6052   -2.3586 C   0  0  0  0  0  0  0  0  0  0  0  0
    0.1995   -0.7243   -3.2431 H   0  0  0  0  0  0  0  0  0  0  0  0
   -1.0473   -1.5053   -2.2798 H   0  0  0  0  0  0  0  0  0  0  0  0
   -1.3397    0.5975   -2.5787 C   0  0  0  0  0  0  0  0  0  0  0  0
   -0.8646    1.5861   -3.1076 O   0  0  0  0  0  0  0  0  0  0  0  0
   -2.6244    0.5139   -2.1627 O   0  0  0  0  0  0  0  0  0  0  0  0
   -2.9697    1.4141   -2.2807 H   0  0  0  0  0  0  0  0  0  0  0  0
   -0.4170    1.1881    0.6565 C   0  0  0  0  0  0  0  0  0  0  0  0
   -1.3786    1.8461    0.2765 O   0  0  0  0  0  0  0  0  0  0  0  0
    0.4572    1.7508    1.5690 N   0  0  0  0  0  0  0  0  0  0  0  0
    1.1988    1.1625    1.9377 H   0  0  0  0  0  0  0  0  0  0  0  0
    0.3136    3.1085    2.0818 C   0  0  0  0  0  0  0  0  0  0  0  0
   -0.6245    3.2106    2.6377 H   0  0  0  0  0  0  0  0  0  0  0  0
    1.1426    3.3492    2.7544 H   0  0  0  0  0  0  0  0  0  0  0  0
    0.3164    3.8320    1.2595 H   0  0  0  0  0  0  0  0  0  0  0  0
  1  2  1  0  0  0  0
  2  3  1  0  0  0  0
  2  4  1  0  0  0  0
  2  5  1  0  0  0  0
  5  6  2  0  0  0  0
  5  7  1  0  0  0  0
  7  8  1  0  0  0  0
  7  9  1  0  0  0  0
  9 10  1  0  0  0  0
  9 11  1  0  0  0  0
  9 21  1  0  0  0  0
 11 12  1  0  0  0  0
 11 13  1  0  0  0  0
 11 14  1  0  0  0  0
 14 15  1  0  0  0  0
 14 16  1  0  0  0  0
 14 17  1  0  0  0  0
 17 18  2  0  0  0  0
 17 19  1  0  0  0  0
 19 20  1  0  0  0  0
 21 22  2  0  0  0  0
 21 23  1  0  0  0  0
 23 24  1  0  0  0  0
 23 25  1  0  0  0  0
 25 26  1  0  0  0  0
 25 27  1  0  0  0  0
 25 28  1  0  0  0  0
M  END
$$$$

  -OEChem-03222214033D

 28 27  0     1  0  0  0  0  0999 V2000
   -3.2424   -3.7850    1.2616 H   0  0  0  0  0  0  0  0  0  0  0  0
   -3.2275   -2.7903    0.8077 C   0  0  0  0  0  0  0  0  0  0  0  0
   -3.8653   -2.1252    1.3948 H   0  0  0  0  0  0  0  0  0  0  0  0
   -3.6239   -2.8602   -0.2081 H   0  0  0  0  0  0  0  0  0  0  0  0
   -1.8102   -2.2518    0.7746 C   0  0  0  0  0  0  0  0  0  0  0  0
   -0.8896   -2.9156    1.2241 O   0  0  0  0  0  0  0  0  0  0  0  0
   -1.5617   -1.0134    0.2242 N   0  0  0  0  0  0  0  0  0  0  0  0
   -2.3655   -0.4577   -0.0701 H   0  0  0  0  0  0  0  0  0  0  0  0
   -0.2574   -0.3348    0.2339 C   0  0  1  0  0  0  0  0  0  0  0  0
    0.3741   -0.7778    1.0113 H   0  0  0  0  0  0  0  0  0  0  0  0
    0.4911   -0.4789   -1.1140 C   0  0  0  0  0  0  0  0  0  0  0  0
    1.1982    0.3489   -1.2410 H   0  0  0  0  0  0  0  0  0  0  0  0
    1.0845   -1.3972   -1.0526 H   0  0  0  0  0  0  0  0  0  0  0  0
   -0.4028   -0.6040   -2.3686 C   0  0  0  0  0  0  0  0  0  0  0  0
    0.2135   -0.9355   -3.2082 H   0  0  0  0  0  0  0  0  0  0  0  0
   -1.1828   -1.3565   -2.2349 H   0  0  0  0  0  0  0  0  0  0  0  0
   -1.0266    0.7282   -2.7600 C   0  0  0  0  0  0  0  0  0  0  0  0
   -0.2959    1.6262   -3.1401 O   0  0  0  0  0  0  0  0  0  0  0  0
   -2.3664    0.8531   -2.6411 O   0  0  0  0  0  0  0  0  0  0  0  0
   -2.5399    1.7915   -2.8154 H   0  0  0  0  0  0  0  0  0  0  0  0
   -0.4325    1.1497    0.6260 C   0  0  0  0  0  0  0  0  0  0  0  0
   -1.4026    1.7818    0.2236 O   0  0  0  0  0  0  0  0  0  0  0  0
    0.4197    1.7397    1.5415 N   0  0  0  0  0  0  0  0  0  0  0  0
    1.1814    1.1777    1.9102 H   0  0  0  0  0  0  0  0  0  0  0  0
    0.2577    3.1090    2.0163 C   0  0  0  0  0  0  0  0  0  0  0  0
   -0.6958    3.2215    2.5431 H   0  0  0  0  0  0  0  0  0  0  0  0
    1.0669    3.3696    2.7053 H   0  0  0  0  0  0  0  0  0  0  0  0
    0.2808    3.8115    1.1762 H   0  0  0  0  0  0  0  0  0  0  0  0
  1  2  1  0  0  0  0
  2  3  1  0  0  0  0
  2  4  1  0  0  0  0
  2  5  1  0  0  0  0
  5  6  2  0  0  0  0
  5  7  1  0  0  0  0
  7  8  1  0  0  0  0
  7  9  1  0  0  0  0
  9 10  1  0  0  0  0
  9 11  1  0  0  0  0
  9 21  1  0  0  0  0
 11 12  1  0  0  0  0
 11 13  1  0  0  0  0
 11 14  1  0  0  0  0
 14 15  1  0  0  0  0
 14 16  1  0  0  0  0
 14 17  1  0  0  0  0
 17 18  2  0  0  0  0
 17 19  1  0  0  0  0
 19 20  1  0  0  0  0
 21 22  2  0  0  0  0
 21 23  1  0  0  0  0
 23 24  1  0  0  0  0
 23 25  1  0  0  0  0
 25 26  1  0  0  0  0
 25 27  1  0  0  0  0
 25 28  1  0  0  0  0
M  END
$$$$

  -OEChem-03222214033D

 28 27  0     1  0  0  0  0  0999 V2000
   -3.2339   -3.7879    1.3679 H   0  0  0  0  0  0  0  0  0  0  0  0
   -3.2230   -2.8006    0.8978 C   0  0  0  0  0  0  0  0  0  0  0  0
   -3.8351   -2.1193    1.4938 H   0  0  0  0  0  0  0  0  0  0  0  0
   -3.6514   -2.8824   -0.1041 H   0  0  0  0  0  0  0  0  0  0  0  0
   -1.8016   -2.2782    0.8121 C   0  0  0  0  0  0  0  0  0  0  0  0
   -0.8750   -2.9452    1.2437 O   0  0  0  0  0  0  0  0  0  0  0  0
   -1.5576   -1.0475    0.2420 N   0  0  0  0  0  0  0  0  0  0  0  0
   -2.3660   -0.4786   -0.0099 H   0  0  0  0  0  0  0  0  0  0  0  0
   -0.2509   -0.3729    0.2375 C   0  0  1  0  0  0  0  0  0  0  0  0
    0.3901   -0.8089    1.0110 H   0  0  0  0  0  0  0  0  0  0  0  0
    0.4891   -0.4881   -1.1165 C   0  0  0  0  0  0  0  0  0  0  0  0
    1.2181    0.3234   -1.2209 H   0  0  0  0  0  0  0  0  0  0  0  0
    1.0652   -1.4183   -1.0705 H   0  0  0  0  0  0  0  0  0  0  0  0
   -0.4034   -0.5874   -2.3787 C   0  0  0  0  0  0  0  0  0  0  0  0
    0.1471   -1.1341   -3.1485 H   0  0  0  0  0  0  0  0  0  0  0  0
   -1.3223   -1.1474   -2.1995 H   0  0  0  0  0  0  0  0  0  0  0  0
   -0.7363    0.7805   -2.9647 C   0  0  0  0  0  0  0  0  0  0  0  0
    0.1743    1.5384   -3.2517 O   0  0  0  0  0  0  0  0  0  0  0  0
   -2.0401    1.0852   -3.1381 O   0  0  0  0  0  0  0  0  0  0  0  0
   -2.0413    2.0074   -3.4365 H   0  0  0  0  0  0  0  0  0  0  0  0
   -0.4400    1.1130    0.6117 C   0  0  0  0  0  0  0  0  0  0  0  0
   -1.4039    1.7330    0.1765 O   0  0  0  0  0  0  0  0  0  0  0  0
    0.4042    1.7262    1.5190 N   0  0  0  0  0  0  0  0  0  0  0  0
    1.1707    1.1779    1.8985 H   0  0  0  0  0  0  0  0  0  0  0  0
    0.2365    3.1060    1.9594 C   0  0  0  0  0  0  0  0  0  0  0  0
   -0.7248    3.2310    2.4690 H   0  0  0  0  0  0  0  0  0  0  0  0
    1.0351    3.3817    2.6551 H   0  0  0  0  0  0  0  0  0  0  0  0
    0.2730    3.7891    1.1039 H   0  0  0  0  0  0  0  0  0  0  0  0
  1  2  1  0  0  0  0
  2  3  1  0  0  0  0
  2  4  1  0  0  0  0
  2  5  1  0  0  0  0
  5  6  2  0  0  0  0
  5  7  1  0  0  0  0
  7  8  1  0  0  0  0
  7  9  1  0  0  0  0
  9 10  1  0  0  0  0
  9 11  1  0  0  0  0
  9 21  1  0  0  0  0
 11 12  1  0  0  0  0
 11 13  1  0  0  0  0
 11 14  1  0  0  0  0
 14 15  1  0  0  0  0
 14 16  1  0  0  0  0
 14 17  1  0  0  0  0
 17 18  2  0  0  0  0
 17 19  1  0  0  0  0
 19 20  1  0  0  0  0
 21 22  2  0  0  0  0
 21 23  1  0  0  0  0
 23 24  1  0  0  0  0
 23 25  1  0  0  0  0
 25 26  1  0  0  0  0
 25 27  1  0  0  0  0
 25 28  1  0  0  0  0
M  END
$$$$

  -OEChem-03222214033D

 28 27  0     1  0  0  0  0  0999 V2000
   -3.2150   -3.8027    1.4167 H   0  0  0  0  0  0  0  0  0  0  0  0
   -3.2139   -2.8118    0.9541 C   0  0  0  0  0  0  0  0  0  0  0  0
   -3.8133   -2.1355    1.5681 H   0  0  0  0  0  0  0  0  0  0  0  0
   -3.6630   -2.8862   -0.0392 H   0  0  0  0  0  0  0  0  0  0  0  0
   -1.7948   -2.2884    0.8427 C   0  0  0  0  0  0  0  0  0  0  0  0
   -0.8613   -2.9516    1.2654 O   0  0  0  0  0  0  0  0  0  0  0  0
   -1.5609   -1.0600    0.2627 N   0  0  0  0  0  0  0  0  0  0  0  0
   -2.3738   -0.4881    0.0338 H   0  0  0  0  0  0  0  0  0  0  0  0
   -0.2542   -0.3850    0.2419 C   0  0  1  0  0  0  0  0  0  0  0  0
    0.3969   -0.8165    1.0095 H   0  0  0  0  0  0  0  0  0  0  0  0
    0.4736   -0.4937   -1.1197 C   0  0  0  0  0  0  0  0  0  0  0  0
    1.2065    0.3149   -1.2151 H   0  0  0  0  0  0  0  0  0  0  0  0
    1.0499   -1.4240   -1.0802 H   0  0  0  0  0  0  0  0  0  0  0  0
   -0.4184   -0.5892   -2.3877 C   0  0  0  0  0  0  0  0  0  0  0  0
   -0.0023   -1.3540   -3.0483 H   0  0  0  0  0  0  0  0  0  0  0  0
   -1.4398   -0.8957   -2.1609 H   0  0  0  0  0  0  0  0  0  0  0  0
   -0.4632    0.7104   -3.1880 C   0  0  0  0  0  0  0  0  0  0  0  0
    0.5806    1.2778   -3.4615 O   0  0  0  0  0  0  0  0  0  0  0  0
   -1.6748    1.1614   -3.5772 O   0  0  0  0  0  0  0  0  0  0  0  0
   -1.4963    2.0011   -4.0268 H   0  0  0  0  0  0  0  0  0  0  0  0
   -0.4461    1.1012    0.6107 C   0  0  0  0  0  0  0  0  0  0  0  0
   -1.4085    1.7177    0.1676 O   0  0  0  0  0  0  0  0  0  0  0  0
    0.4030    1.7224    1.5077 N   0  0  0  0  0  0  0  0  0  0  0  0
    1.1698    1.1763    1.8897 H   0  0  0  0  0  0  0  0  0  0  0  0
    0.2381    3.1061    1.9372 C   0  0  0  0  0  0  0  0  0  0  0  0
   -0.7206    3.2367    2.4503 H   0  0  0  0  0  0  0  0  0  0  0  0
    1.0402    3.3867    2.6265 H   0  0  0  0  0  0  0  0  0  0  0  0
    0.2715    3.7814    1.0756 H   0  0  0  0  0  0  0  0  0  0  0  0
  1  2  1  0  0  0  0
  2  3  1  0  0  0  0
  2  4  1  0  0  0  0
  2  5  1  0  0  0  0
  5  6  2  0  0  0  0
  5  7  1  0  0  0  0
  7  8  1  0  0  0  0
  7  9  1  0  0  0  0
  9 10  1  0  0  0  0
  9 11  1  0  0  0  0
  9 21  1  0  0  0  0
 11 12  1  0  0  0  0
 11 13  1  0  0  0  0
 11 14  1  0  0  0  0
 14 15  1  0  0  0  0
 14 16  1  0  0  0  0
 14 17  1  0  0  0  0
 17 18  2  0  0  0  0
 17 19  1  0  0  0  0
 19 20  1  0  0  0  0
 21 22  2  0  0  0  0
 21 23  1  0  0  0  0
 23 24  1  0  0  0  0
 23 25  1  0  0  0  0
 25 26  1  0  0  0  0
 25 27  1  0  0  0  0
 25 28  1  0  0  0  0
M  END
$$$$

  -OEChem-03222214033D

 28 27  0     1  0  0  0  0  0999 V2000
   -3.2035   -3.8074    1.4413 H   0  0  0  0  0  0  0  0  0  0  0  0
   -3.2067   -2.8156    0.9803 C   0  0  0  0  0  0  0  0  0  0  0  0
   -3.7983   -2.1397    1.6026 H   0  0  0  0  0  0  0  0  0  0  0  0
   -3.6679   -2.8881   -0.0076 H   0  0  0  0  0  0  0  0  0  0  0  0
   -1.7884   -2.2934    0.8529 C   0  0  0  0  0  0  0  0  0  0  0  0
   -0.8512   -2.9563    1.2673 O   0  0  0  0  0  0  0  0  0  0  0  0
   -1.5598   -1.0655    0.2700 N   0  0  0  0  0  0  0  0  0  0  0  0
   -2.3749   -0.4938    0.0498 H   0  0  0  0  0  0  0  0  0  0  0  0
   -0.2532   -0.3897    0.2428 C   0  0  1  0  0  0  0  0  0  0  0  0
    0.4029   -0.8203    1.0068 H   0  0  0  0  0  0  0  0  0  0  0  0
    0.4640   -0.5040   -1.1239 C   0  0  0  0  0  0  0  0  0  0  0  0
    1.1750    0.3240   -1.2202 H   0  0  0  0  0  0  0  0  0  0  0  0
    1.0637   -1.4199   -1.0946 H   0  0  0  0  0  0  0  0  0  0  0  0
   -0.4422   -0.6023   -2.3837 C   0  0  0  0  0  0  0  0  0  0  0  0
   -0.2466   -1.5477   -2.8959 H   0  0  0  0  0  0  0  0  0  0  0  0
   -1.5009   -0.5923   -2.1216 H   0  0  0  0  0  0  0  0  0  0  0  0
   -0.2207    0.5332   -3.3816 C   0  0  0  0  0  0  0  0  0  0  0  0
    0.9177    0.8718   -3.6562 O   0  0  0  0  0  0  0  0  0  0  0  0
   -1.3134    1.0970   -3.9393 O   0  0  0  0  0  0  0  0  0  0  0  0
   -0.9688    1.7945   -4.5172 H   0  0  0  0  0  0  0  0  0  0  0  0
   -0.4436    1.0967    0.6107 C   0  0  0  0  0  0  0  0  0  0  0  0
   -1.4044    1.7135    0.1644 O   0  0  0  0  0  0  0  0  0  0  0  0
    0.4087    1.7200    1.5030 N   0  0  0  0  0  0  0  0  0  0  0  0
    1.1692    1.1708    1.8935 H   0  0  0  0  0  0  0  0  0  0  0  0
    0.2480    3.1061    1.9263 C   0  0  0  0  0  0  0  0  0  0  0  0
   -0.7040    3.2387    2.4510 H   0  0  0  0  0  0  0  0  0  0  0  0
    1.0588    3.3918    2.6031 H   0  0  0  0  0  0  0  0  0  0  0  0
    0.2697    3.7768    1.0607 H   0  0  0  0  0  0  0  0  0  0  0  0
  1  2  1  0  0  0  0
  2  3  1  0  0  0  0
  2  4  1  0  0  0  0
  2  5  1  0  0  0  0
  5  6  2  0  0  0  0
  5  7  1  0  0  0  0
  7  8  1  0  0  0  0
  7  9  1  0  0  0  0
  9 10  1  0  0  0  0
  9 11  1  0  0  0  0
  9 21  1  0  0  0  0
 11 12  1  0  0  0  0
 11 13  1  0  0  0  0
 11 14  1  0  0  0  0
 14 15  1  0  0  0  0
 14 16  1  0  0  0  0
 14 17  1  0  0  0  0
 17 18  2  0  0  0  0
 17 19  1  0  0  0  0
 19 20  1  0  0  0  0
 21 22  2  0  0  0  0
 21 23  1  0  0  0  0
 23 24  1  0  0  0  0
 23 25  1  0  0  0  0
 25 26  1  0  0  0  0
 25 27  1  0  0  0  0
 25 28  1  0  0  0  0
M  END
$$$$

  -OEChem-03222214033D

 28 27  0     1  0  0  0  0  0999 V2000
   -3.2037   -3.7905    1.4463 H   0  0  0  0  0  0  0  0  0  0  0  0
   -3.2026   -2.8046    0.9729 C   0  0  0  0  0  0  0  0  0  0  0  0
   -3.7981   -2.1205    1.5823 H   0  0  0  0  0  0  0  0  0  0  0  0
   -3.6567   -2.8890   -0.0174 H   0  0  0  0  0  0  0  0  0  0  0  0
   -1.7824   -2.2867    0.8491 C   0  0  0  0  0  0  0  0  0  0  0  0
   -0.8486   -2.9535    1.2651 O   0  0  0  0  0  0  0  0  0  0  0  0
   -1.5486   -1.0588    0.2680 N   0  0  0  0  0  0  0  0  0  0  0  0
   -2.3620   -0.4834    0.0518 H   0  0  0  0  0  0  0  0  0  0  0  0
   -0.2390   -0.3867    0.2456 C   0  0  1  0  0  0  0  0  0  0  0  0
    0.4163   -0.8206    1.0084 H   0  0  0  0  0  0  0  0  0  0  0  0
    0.4681   -0.5129   -1.1246 C   0  0  0  0  0  0  0  0  0  0  0  0
    1.1541    0.3348   -1.2331 H   0  0  0  0  0  0  0  0  0  0  0  0
    1.0876   -1.4159   -1.1099 H   0  0  0  0  0  0  0  0  0  0  0  0
   -0.4686   -0.6098   -2.3590 C   0  0  0  0  0  0  0  0  0  0  0  0
   -0.5357   -1.6477   -2.6942 H   0  0  0  0  0  0  0  0  0  0  0  0
   -1.4762   -0.2810   -2.0953 H   0  0  0  0  0  0  0  0  0  0  0  0
   -0.0419    0.2720   -3.5321 C   0  0  0  0  0  0  0  0  0  0  0  0
    1.1443    0.4499   -3.7505 O   0  0  0  0  0  0  0  0  0  0  0  0
   -1.0196    0.7991   -4.2998 O   0  0  0  0  0  0  0  0  0  0  0  0
   -0.5566    1.3218   -4.9719 H   0  0  0  0  0  0  0  0  0  0  0  0
   -0.4237    1.1001    0.6143 C   0  0  0  0  0  0  0  0  0  0  0  0
   -1.3814    1.7205    0.1662 O   0  0  0  0  0  0  0  0  0  0  0  0
    0.4286    1.7191    1.5096 N   0  0  0  0  0  0  0  0  0  0  0  0
    1.1889    1.1678    1.8978 H   0  0  0  0  0  0  0  0  0  0  0  0
    0.2631    3.1009    1.9444 C   0  0  0  0  0  0  0  0  0  0  0  0
   -0.6987    3.2301    2.4520 H   0  0  0  0  0  0  0  0  0  0  0  0
    1.0610    3.3775    2.6403 H   0  0  0  0  0  0  0  0  0  0  0  0
    0.3025    3.7800    1.0861 H   0  0  0  0  0  0  0  0  0  0  0  0
  1  2  1  0  0  0  0
  2  3  1  0  0  0  0
  2  4  1  0  0  0  0
  2  5  1  0  0  0  0
  5  6  2  0  0  0  0
  5  7  1  0  0  0  0
  7  8  1  0  0  0  0
  7  9  1  0  0  0  0
  9 10  1  0  0  0  0
  9 11  1  0  0  0  0
  9 21  1  0  0  0  0
 11 12  1  0  0  0  0
 11 13  1  0  0  0  0
 11 14  1  0  0  0  0
 14 15  1  0  0  0  0
 14 16  1  0  0  0  0
 14 17  1  0  0  0  0
 17 18  2  0  0  0  0
 17 19  1  0  0  0  0
 19 20  1  0  0  0  0
 21 22  2  0  0  0  0
 21 23  1  0  0  0  0
 23 24  1  0  0  0  0
 23 25  1  0  0  0  0
 25 26  1  0  0  0  0
 25 27  1  0  0  0  0
 25 28  1  0  0  0  0
M  END
$$$$

  -OEChem-03222214033D

 28 27  0     1  0  0  0  0  0999 V2000
   -3.2157   -3.7735    1.4282 H   0  0  0  0  0  0  0  0  0  0  0  0
   -3.2041   -2.7937    0.9429 C   0  0  0  0  0  0  0  0  0  0  0  0
   -3.8100   -2.1013    1.5323 H   0  0  0  0  0  0  0  0  0  0  0  0
   -3.6391   -2.8898   -0.0548 H   0  0  0  0  0  0  0  0  0  0  0  0
   -1.7814   -2.2784    0.8400 C   0  0  0  0  0  0  0  0  0  0  0  0
   -0.8542   -2.9473    1.2668 O   0  0  0  0  0  0  0  0  0  0  0  0
   -1.5386   -1.0485    0.2669 N   0  0  0  0  0  0  0  0  0  0  0  0
   -2.3479   -0.4725    0.0382 H   0  0  0  0  0  0  0  0  0  0  0  0
   -0.2267   -0.3808    0.2538 C   0  0  1  0  0  0  0  0  0  0  0  0
    0.4265   -0.8225    1.0138 H   0  0  0  0  0  0  0  0  0  0  0  0
    0.4727   -0.5110   -1.1185 C   0  0  0  0  0  0  0  0  0  0  0  0
    1.1480    0.3437   -1.2388 H   0  0  0  0  0  0  0  0  0  0  0  0
    1.0958   -1.4115   -1.1153 H   0  0  0  0  0  0  0  0  0  0  0  0
   -0.4903   -0.6003   -2.3287 C   0  0  0  0  0  0  0  0  0  0  0  0
   -0.7888   -1.6391   -2.4916 H   0  0  0  0  0  0  0  0  0  0  0  0
   -1.3928   -0.0210   -2.1163 H   0  0  0  0  0  0  0  0  0  0  0  0
    0.0762   -0.0276   -3.6277 C   0  0  0  0  0  0  0  0  0  0  0  0
    1.2813    0.0967   -3.7643 O   0  0  0  0  0  0  0  0  0  0  0  0
   -0.8111    0.2954   -4.5926 O   0  0  0  0  0  0  0  0  0  0  0  0
   -0.2723    0.6301   -5.3255 H   0  0  0  0  0  0  0  0  0  0  0  0
   -0.4049    1.1053    0.6291 C   0  0  0  0  0  0  0  0  0  0  0  0
   -1.3578    1.7331    0.1807 O   0  0  0  0  0  0  0  0  0  0  0  0
    0.4471    1.7152    1.5308 N   0  0  0  0  0  0  0  0  0  0  0  0
    1.2038    1.1583    1.9182 H   0  0  0  0  0  0  0  0  0  0  0  0
    0.2912    3.0972    1.9687 C   0  0  0  0  0  0  0  0  0  0  0  0
   -0.6790    3.2377    2.4569 H   0  0  0  0  0  0  0  0  0  0  0  0
    1.0778    3.3590    2.6828 H   0  0  0  0  0  0  0  0  0  0  0  0
    0.3584    3.7799    1.1151 H   0  0  0  0  0  0  0  0  0  0  0  0
  1  2  1  0  0  0  0
  2  3  1  0  0  0  0
  2  4  1  0  0  0  0
  2  5  1  0  0  0  0
  5  6  2  0  0  0  0
  5  7  1  0  0  0  0
  7  8  1  0  0  0  0
  7  9  1  0  0  0  0
  9 10  1  0  0  0  0
  9 11  1  0  0  0  0
  9 21  1  0  0  0  0
 11 12  1  0  0  0  0
 11 13  1  0  0  0  0
 11 14  1  0  0  0  0
 14 15  1  0  0  0  0
 14 16  1  0  0  0  0
 14 17  1  0  0  0  0
 17 18  2  0  0  0  0
 17 19  1  0  0  0  0
 19 20  1  0  0  0  0
 21 22  2  0  0  0  0
 21 23  1  0  0  0  0
 23 24  1  0  0  0  0
 23 25  1  0  0  0  0
 25 26  1  0  0  0  0
 25 27  1  0  0  0  0
 25 28  1  0  0  0  0
M  END
$$$$

  -OEChem-03222214033D

 28 27  0     1  0  0  0  0  0999 V2000
   -3.2243   -3.7644    1.4243 H   0  0  0  0  0  0  0  0  0  0  0  0
   -3.2103   -2.7859    0.9361 C   0  0  0  0  0  0  0  0  0  0  0  0
   -3.8166   -2.0913    1.5226 H   0  0  0  0  0  0  0  0  0  0  0  0
   -3.6431   -2.8844   -0.0625 H   0  0  0  0  0  0  0  0  0  0  0  0
   -1.7865   -2.2728    0.8350 C   0  0  0  0  0  0  0  0  0  0  0  0
   -0.8609   -2.9451    1.2596 O   0  0  0  0  0  0  0  0  0  0  0  0
   -1.5414   -1.0412    0.2663 N   0  0  0  0  0  0  0  0  0  0  0  0
   -2.3493   -0.4643    0.0358 H   0  0  0  0  0  0  0  0  0  0  0  0
   -0.2281   -0.3762    0.2556 C   0  0  1  0  0  0  0  0  0  0  0  0
    0.4240   -0.8227    1.0137 H   0  0  0  0  0  0  0  0  0  0  0  0
    0.4692   -0.5040   -1.1174 C   0  0  0  0  0  0  0  0  0  0  0  0
    1.1485    0.3463   -1.2484 H   0  0  0  0  0  0  0  0  0  0  0  0
    1.0840   -1.4106   -1.1153 H   0  0  0  0  0  0  0  0  0  0  0  0
   -0.5029   -0.5871   -2.3171 C   0  0  0  0  0  0  0  0  0  0  0  0
   -0.9882   -1.5662   -2.3325 H   0  0  0  0  0  0  0  0  0  0  0  0
   -1.2798    0.1740   -2.2038 H   0  0  0  0  0  0  0  0  0  0  0  0
    0.1569   -0.3535   -3.6757 C   0  0  0  0  0  0  0  0  0  0  0  0
    1.3703   -0.2735   -3.7623 O   0  0  0  0  0  0  0  0  0  0  0  0
   -0.6645   -0.2571   -4.7425 O   0  0  0  0  0  0  0  0  0  0  0  0
   -0.0756   -0.1126   -5.4988 H   0  0  0  0  0  0  0  0  0  0  0  0
   -0.3977    1.1095    0.6359 C   0  0  0  0  0  0  0  0  0  0  0  0
   -1.3419    1.7477    0.1837 O   0  0  0  0  0  0  0  0  0  0  0  0
    0.4596    1.7097    1.5393 N   0  0  0  0  0  0  0  0  0  0  0  0
    1.2063    1.1424    1.9310 H   0  0  0  0  0  0  0  0  0  0  0  0
    0.3138    3.0902    1.9850 C   0  0  0  0  0  0  0  0  0  0  0  0
   -0.6553    3.2355    2.4737 H   0  0  0  0  0  0  0  0  0  0  0  0
    1.1023    3.3419    2.7008 H   0  0  0  0  0  0  0  0  0  0  0  0
    0.3865    3.7769    1.1350 H   0  0  0  0  0  0  0  0  0  0  0  0
  1  2  1  0  0  0  0
  2  3  1  0  0  0  0
  2  4  1  0  0  0  0
  2  5  1  0  0  0  0
  5  6  2  0  0  0  0
  5  7  1  0  0  0  0
  7  8  1  0  0  0  0
  7  9  1  0  0  0  0
  9 10  1  0  0  0  0
  9 11  1  0  0  0  0
  9 21  1  0  0  0  0
 11 12  1  0  0  0  0
 11 13  1  0  0  0  0
 11 14  1  0  0  0  0
 14 15  1  0  0  0  0
 14 16  1  0  0  0  0
 14 17  1  0  0  0  0
 17 18  2  0  0  0  0
 17 19  1  0  0  0  0
 19 20  1  0  0  0  0
 21 22  2  0  0  0  0
 21 23  1  0  0  0  0
 23 24  1  0  0  0  0
 23 25  1  0  0  0  0
 25 26  1  0  0  0  0
 25 27  1  0  0  0  0
 25 28  1  0  0  0  0
M  END
$$$$

  -OEChem-03222214033D

 28 27  0     1  0  0  0  0  0999 V2000
   -3.2243   -3.7643    1.3718 H   0  0  0  0  0  0  0  0  0  0  0  0
   -3.2104   -2.7832    0.8888 C   0  0  0  0  0  0  0  0  0  0  0  0
   -3.8279   -2.0953    1.4715 H   0  0  0  0  0  0  0  0  0  0  0  0
   -3.6311   -2.8792   -0.1150 H   0  0  0  0  0  0  0  0  0  0  0  0
   -1.7888   -2.2609    0.8059 C   0  0  0  0  0  0  0  0  0  0  0  0
   -0.8623   -2.9358    1.2247 O   0  0  0  0  0  0  0  0  0  0  0  0
   -1.5471   -1.0193    0.2575 N   0  0  0  0  0  0  0  0  0  0  0  0
   -2.3570   -0.4430    0.0334 H   0  0  0  0  0  0  0  0  0  0  0  0
   -0.2368   -0.3506    0.2510 C   0  0  1  0  0  0  0  0  0  0  0  0
    0.4167   -0.8123    0.9987 H   0  0  0  0  0  0  0  0  0  0  0  0
    0.4504   -0.4786   -1.1234 C   0  0  0  0  0  0  0  0  0  0  0  0
    1.3099    0.2002   -1.1587 H   0  0  0  0  0  0  0  0  0  0  0  0
    0.8379   -1.4992   -1.2167 H   0  0  0  0  0  0  0  0  0  0  0  0
   -0.4803   -0.1999   -2.3270 C   0  0  0  0  0  0  0  0  0  0  0  0
   -1.3163   -0.9032   -2.3194 H   0  0  0  0  0  0  0  0  0  0  0  0
   -0.8908    0.8104   -2.2518 H   0  0  0  0  0  0  0  0  0  0  0  0
    0.2128   -0.3294   -3.6827 C   0  0  0  0  0  0  0  0  0  0  0  0
    1.4283   -0.4016   -3.7428 O   0  0  0  0  0  0  0  0  0  0  0  0
   -0.5808   -0.3557   -4.7744 O   0  0  0  0  0  0  0  0  0  0  0  0
    0.0287   -0.4366   -5.5238 H   0  0  0  0  0  0  0  0  0  0  0  0
   -0.3889    1.1308    0.6549 C   0  0  0  0  0  0  0  0  0  0  0  0
   -1.3411    1.7808    0.2376 O   0  0  0  0  0  0  0  0  0  0  0  0
    0.4819    1.7094    1.5594 N   0  0  0  0  0  0  0  0  0  0  0  0
    1.2359    1.1338    1.9240 H   0  0  0  0  0  0  0  0  0  0  0  0
    0.3491    3.0822    2.0324 C   0  0  0  0  0  0  0  0  0  0  0  0
   -0.6143    3.2239    2.5336 H   0  0  0  0  0  0  0  0  0  0  0  0
    1.1463    3.3157    2.7447 H   0  0  0  0  0  0  0  0  0  0  0  0
    0.4176    3.7845    1.1949 H   0  0  0  0  0  0  0  0  0  0  0  0
  1  2  1  0  0  0  0
  2  3  1  0  0  0  0
  2  4  1  0  0  0  0
  2  5  1  0  0  0  0
  5  6  2  0  0  0  0
  5  7  1  0  0  0  0
  7  8  1  0  0  0  0
  7  9  1  0  0  0  0
  9 10  1  0  0  0  0
  9 11  1  0  0  0  0
  9 21  1  0  0  0  0
 11 12  1  0  0  0  0
 11 13  1  0  0  0  0
 11 14  1  0  0  0  0
 14 15  1  0  0  0  0
 14 16  1  0  0  0  0
 14 17  1  0  0  0  0
 17 18  2  0  0  0  0
 17 19  1  0  0  0  0
 19 20  1  0  0  0  0
 21 22  2  0  0  0  0
 21 23  1  0  0  0  0
 23 24  1  0  0  0  0
 23 25  1  0  0  0  0
 25 26  1  0  0  0  0
 25 27  1  0  0  0  0
 25 28  1  0  0  0  0
M  END
$$$$

  -OEChem-03222214033D

 28 27  0     1  0  0  0  0  0999 V2000
   -3.2366   -3.7568    1.3857 H   0  0  0  0  0  0  0  0  0  0  0  0
   -3.2240   -2.7773    0.8995 C   0  0  0  0  0  0  0  0  0  0  0  0
   -3.8364   -2.0865    1.4840 H   0  0  0  0  0  0  0  0  0  0  0  0
   -3.6512   -2.8754   -0.1014 H   0  0  0  0  0  0  0  0  0  0  0  0
   -1.8014   -2.2596    0.8065 C   0  0  0  0  0  0  0  0  0  0  0  0
   -0.8751   -2.9378    1.2206 O   0  0  0  0  0  0  0  0  0  0  0  0
   -1.5582   -1.0172    0.2601 N   0  0  0  0  0  0  0  0  0  0  0  0
   -2.3669   -0.4368    0.0415 H   0  0  0  0  0  0  0  0  0  0  0  0
   -0.2443   -0.3561    0.2478 C   0  0  1  0  0  0  0  0  0  0  0  0
    0.4121   -0.8244    0.9888 H   0  0  0  0  0  0  0  0  0  0  0  0
    0.4394   -0.4658   -1.1310 C   0  0  0  0  0  0  0  0  0  0  0  0
    1.3141    0.1930   -1.1663 H   0  0  0  0  0  0  0  0  0  0  0  0
    0.8054   -1.4944   -1.2266 H   0  0  0  0  0  0  0  0  0  0  0  0
   -0.4791   -0.1683   -2.3406 C   0  0  0  0  0  0  0  0  0  0  0  0
   -1.4345   -0.6842   -2.2282 H   0  0  0  0  0  0  0  0  0  0  0  0
   -0.6858    0.9037   -2.3963 H   0  0  0  0  0  0  0  0  0  0  0  0
    0.1137   -0.6295   -3.6704 C   0  0  0  0  0  0  0  0  0  0  0  0
    1.3234   -0.7157   -3.7930 O   0  0  0  0  0  0  0  0  0  0  0  0
   -0.7501   -0.9154   -4.6676 O   0  0  0  0  0  0  0  0  0  0  0  0
   -0.1901   -1.1758   -5.4148 H   0  0  0  0  0  0  0  0  0  0  0  0
   -0.3910    1.1235    0.6583 C   0  0  0  0  0  0  0  0  0  0  0  0
   -1.3325    1.7828    0.2316 O   0  0  0  0  0  0  0  0  0  0  0  0
    0.4861    1.6956    1.5609 N   0  0  0  0  0  0  0  0  0  0  0  0
    1.2262    1.1090    1.9364 H   0  0  0  0  0  0  0  0  0  0  0  0
    0.3623    3.0677    2.0382 C   0  0  0  0  0  0  0  0  0  0  0  0
   -0.6000    3.2143    2.5401 H   0  0  0  0  0  0  0  0  0  0  0  0
    1.1612    3.2935    2.7511 H   0  0  0  0  0  0  0  0  0  0  0  0
    0.4354    3.7723    1.2031 H   0  0  0  0  0  0  0  0  0  0  0  0
  1  2  1  0  0  0  0
  2  3  1  0  0  0  0
  2  4  1  0  0  0  0
  2  5  1  0  0  0  0
  5  6  2  0  0  0  0
  5  7  1  0  0  0  0
  7  8  1  0  0  0  0
  7  9  1  0  0  0  0
  9 10  1  0  0  0  0
  9 11  1  0  0  0  0
  9 21  1  0  0  0  0
 11 12  1  0  0  0  0
 11 13  1  0  0  0  0
 11 14  1  0  0  0  0
 14 15  1  0  0  0  0
 14 16  1  0  0  0  0
 14 17  1  0  0  0  0
 17 18  2  0  0  0  0
 17 19  1  0  0  0  0
 19 20  1  0  0  0  0
 21 22  2  0  0  0  0
 21 23  1  0  0  0  0
 23 24  1  0  0  0  0
 23 25  1  0  0  0  0
 25 26  1  0  0  0  0
 25 27  1  0  0  0  0
 25 28  1  0  0  0  0
M  END
$$$$

  -OEChem-03222214033D

 28 27  0     1  0  0  0  0  0999 V2000
   -3.2639   -3.7467    1.3525 H   0  0  0  0  0  0  0  0  0  0  0  0
   -3.2423   -2.7603    0.8805 C   0  0  0  0  0  0  0  0  0  0  0  0
   -3.8490   -2.0723    1.4743 H   0  0  0  0  0  0  0  0  0  0  0  0
   -3.6695   -2.8404   -0.1220 H   0  0  0  0  0  0  0  0  0  0  0  0
   -1.8154   -2.2529    0.7959 C   0  0  0  0  0  0  0  0  0  0  0  0
   -0.8954   -2.9374    1.2136 O   0  0  0  0  0  0  0  0  0  0  0  0
   -1.5618   -1.0105    0.2549 N   0  0  0  0  0  0  0  0  0  0  0  0
   -2.3660   -0.4251    0.0335 H   0  0  0  0  0  0  0  0  0  0  0  0
   -0.2431   -0.3587    0.2442 C   0  0  1  0  0  0  0  0  0  0  0  0
    0.4120   -0.8348    0.9816 H   0  0  0  0  0  0  0  0  0  0  0  0
    0.4392   -0.4564   -1.1368 C   0  0  0  0  0  0  0  0  0  0  0  0
    1.3264    0.1852   -1.1684 H   0  0  0  0  0  0  0  0  0  0  0  0
    0.7897   -1.4905   -1.2339 H   0  0  0  0  0  0  0  0  0  0  0  0
   -0.4689   -0.1399   -2.3515 C   0  0  0  0  0  0  0  0  0  0  0  0
   -1.5062   -0.4107   -2.1485 H   0  0  0  0  0  0  0  0  0  0  0  0
   -0.4509    0.9337   -2.5565 H   0  0  0  0  0  0  0  0  0  0  0  0
   -0.0520   -0.9013   -3.6066 C   0  0  0  0  0  0  0  0  0  0  0  0
    1.1317   -0.9699   -3.8881 O   0  0  0  0  0  0  0  0  0  0  0  0
   -1.0238   -1.4651   -4.3559 O   0  0  0  0  0  0  0  0  0  0  0  0
   -0.5562   -1.8899   -5.0914 H   0  0  0  0  0  0  0  0  0  0  0  0
   -0.3846    1.1195    0.6610 C   0  0  0  0  0  0  0  0  0  0  0  0
   -1.3228    1.7836    0.2343 O   0  0  0  0  0  0  0  0  0  0  0  0
    0.4934    1.6860    1.5661 N   0  0  0  0  0  0  0  0  0  0  0  0
    1.2306    1.0960    1.9418 H   0  0  0  0  0  0  0  0  0  0  0  0
    0.3674    3.0547    2.0526 C   0  0  0  0  0  0  0  0  0  0  0  0
   -0.5912    3.1934    2.5638 H   0  0  0  0  0  0  0  0  0  0  0  0
    1.1715    3.2806    2.7594 H   0  0  0  0  0  0  0  0  0  0  0  0
    0.4293    3.7646    1.2210 H   0  0  0  0  0  0  0  0  0  0  0  0
  1  2  1  0  0  0  0
  2  3  1  0  0  0  0
  2  4  1  0  0  0  0
  2  5  1  0  0  0  0
  5  6  2  0  0  0  0
  5  7  1  0  0  0  0
  7  8  1  0  0  0  0
  7  9  1  0  0  0  0
  9 10  1  0  0  0  0
  9 11  1  0  0  0  0
  9 21  1  0  0  0  0
 11 12  1  0  0  0  0
 11 13  1  0  0  0  0
 11 14  1  0  0  0  0
 14 15  1  0  0  0  0
 14 16  1  0  0  0  0
 14 17  1  0  0  0  0
 17 18  2  0  0  0  0
 17 19  1  0  0  0  0
 19 20  1  0  0  0  0
 21 22  2  0  0  0  0
 21 23  1  0  0  0  0
 23 24  1  0  0  0  0
 23 25  1  0  0  0  0
 25 26  1  0  0  0  0
 25 27  1  0  0  0  0
 25 28  1  0  0  0  0
M  END
$$$$

  -OEChem-03222214033D

 28 27  0     1  0  0  0  0  0999 V2000
   -3.2831   -3.7446    1.2810 H   0  0  0  0  0  0  0  0  0  0  0  0
   -3.2521   -2.7544    0.8180 C   0  0  0  0  0  0  0  0  0  0  0  0
   -3.8791   -2.0738    1.3990 H   0  0  0  0  0  0  0  0  0  0  0  0
   -3.6487   -2.8277   -0.1977 H   0  0  0  0  0  0  0  0  0  0  0  0
   -1.8259   -2.2399    0.7793 C   0  0  0  0  0  0  0  0  0  0  0  0
   -0.9165   -2.9190    1.2284 O   0  0  0  0  0  0  0  0  0  0  0  0
   -1.5604   -0.9984    0.2420 N   0  0  0  0  0  0  0  0  0  0  0  0
   -2.3587   -0.4187   -0.0124 H   0  0  0  0  0  0  0  0  0  0  0  0
   -0.2386   -0.3520    0.2475 C   0  0  1  0  0  0  0  0  0  0  0  0
    0.4083   -0.8326    0.9889 H   0  0  0  0  0  0  0  0  0  0  0  0
    0.4470   -0.4568   -1.1311 C   0  0  0  0  0  0  0  0  0  0  0  0
    1.3343    0.1847   -1.1592 H   0  0  0  0  0  0  0  0  0  0  0  0
    0.8009   -1.4900   -1.2235 H   0  0  0  0  0  0  0  0  0  0  0  0
   -0.4566   -0.1348   -2.3490 C   0  0  0  0  0  0  0  0  0  0  0  0
   -1.5125   -0.1119   -2.0747 H   0  0  0  0  0  0  0  0  0  0  0  0
   -0.2112    0.8603   -2.7292 H   0  0  0  0  0  0  0  0  0  0  0  0
   -0.2895   -1.1471   -3.4760 C   0  0  0  0  0  0  0  0  0  0  0  0
    0.8155   -1.2943   -3.9672 O   0  0  0  0  0  0  0  0  0  0  0  0
   -1.3764   -1.8439   -3.8726 O   0  0  0  0  0  0  0  0  0  0  0  0
   -1.0545   -2.4259   -4.5780 H   0  0  0  0  0  0  0  0  0  0  0  0
   -0.3737    1.1274    0.6627 C   0  0  0  0  0  0  0  0  0  0  0  0
   -1.2935    1.8029    0.2145 O   0  0  0  0  0  0  0  0  0  0  0  0
    0.4982    1.6877    1.5780 N   0  0  0  0  0  0  0  0  0  0  0  0
    1.2131    1.0866    1.9786 H   0  0  0  0  0  0  0  0  0  0  0  0
    0.3754    3.0577    2.0619 C   0  0  0  0  0  0  0  0  0  0  0  0
   -0.5849    3.2001    2.5687 H   0  0  0  0  0  0  0  0  0  0  0  0
    1.1774    3.2827    2.7716 H   0  0  0  0  0  0  0  0  0  0  0  0
    0.4430    3.7659    1.2294 H   0  0  0  0  0  0  0  0  0  0  0  0
  1  2  1  0  0  0  0
  2  3  1  0  0  0  0
  2  4  1  0  0  0  0
  2  5  1  0  0  0  0
  5  6  2  0  0  0  0
  5  7  1  0  0  0  0
  7  8  1  0  0  0  0
  7  9  1  0  0  0  0
  9 10  1  0  0  0  0
  9 11  1  0  0  0  0
  9 21  1  0  0  0  0
 11 12  1  0  0  0  0
 11 13  1  0  0  0  0
 11 14  1  0  0  0  0
 14 15  1  0  0  0  0
 14 16  1  0  0  0  0
 14 17  1  0  0  0  0
 17 18  2  0  0  0  0
 17 19  1  0  0  0  0
 19 20  1  0  0  0  0
 21 22  2  0  0  0  0
 21 23  1  0  0  0  0
 23 24  1  0  0  0  0
 23 25  1  0  0  0  0
 25 26  1  0  0  0  0
 25 27  1  0  0  0  0
 25 28  1  0  0  0  0
M  END
$$$$

  -OEChem-03222214033D

 28 27  0     1  0  0  0  0  0999 V2000
   -3.3047   -3.7467    1.1312 H   0  0  0  0  0  0  0  0  0  0  0  0
   -3.2599   -2.7466    0.6909 C   0  0  0  0  0  0  0  0  0  0  0  0
   -3.9302   -2.0861    1.2459 H   0  0  0  0  0  0  0  0  0  0  0  0
   -3.5927   -2.8038   -0.3485 H   0  0  0  0  0  0  0  0  0  0  0  0
   -1.8417   -2.2128    0.7481 C   0  0  0  0  0  0  0  0  0  0  0  0
   -0.9539   -2.8805    1.2546 O   0  0  0  0  0  0  0  0  0  0  0  0
   -1.5571   -0.9720    0.2201 N   0  0  0  0  0  0  0  0  0  0  0  0
   -2.3407   -0.4147   -0.1149 H   0  0  0  0  0  0  0  0  0  0  0  0
   -0.2339   -0.3304    0.2499 C   0  0  1  0  0  0  0  0  0  0  0  0
    0.4005   -0.8164    0.9985 H   0  0  0  0  0  0  0  0  0  0  0  0
    0.4539   -0.4621   -1.1243 C   0  0  0  0  0  0  0  0  0  0  0  0
    1.3295    0.1950   -1.1551 H   0  0  0  0  0  0  0  0  0  0  0  0
    0.8275   -1.4888   -1.2121 H   0  0  0  0  0  0  0  0  0  0  0  0
   -0.4580   -0.1465   -2.3362 C   0  0  0  0  0  0  0  0  0  0  0  0
   -1.4551    0.1757   -2.0282 H   0  0  0  0  0  0  0  0  0  0  0  0
   -0.0248    0.6837   -2.9009 H   0  0  0  0  0  0  0  0  0  0  0  0
   -0.5893   -1.3415   -3.2705 C   0  0  0  0  0  0  0  0  0  0  0  0
    0.2970   -1.5472   -4.0796 O   0  0  0  0  0  0  0  0  0  0  0  0
   -1.6774   -2.1325   -3.1420 O   0  0  0  0  0  0  0  0  0  0  0  0
   -1.5543   -2.8301   -3.8040 H   0  0  0  0  0  0  0  0  0  0  0  0
   -0.3575    1.1504    0.6645 C   0  0  0  0  0  0  0  0  0  0  0  0
   -1.2531    1.8423    0.1935 O   0  0  0  0  0  0  0  0  0  0  0  0
    0.5071    1.6989    1.5934 N   0  0  0  0  0  0  0  0  0  0  0  0
    1.1926    1.0823    2.0209 H   0  0  0  0  0  0  0  0  0  0  0  0
    0.3915    3.0694    2.0781 C   0  0  0  0  0  0  0  0  0  0  0  0
   -0.5637    3.2143    2.5937 H   0  0  0  0  0  0  0  0  0  0  0  0
    1.2013    3.2925    2.7795 H   0  0  0  0  0  0  0  0  0  0  0  0
    0.4522    3.7778    1.2451 H   0  0  0  0  0  0  0  0  0  0  0  0
  1  2  1  0  0  0  0
  2  3  1  0  0  0  0
  2  4  1  0  0  0  0
  2  5  1  0  0  0  0
  5  6  2  0  0  0  0
  5  7  1  0  0  0  0
  7  8  1  0  0  0  0
  7  9  1  0  0  0  0
  9 10  1  0  0  0  0
  9 11  1  0  0  0  0
  9 21  1  0  0  0  0
 11 12  1  0  0  0  0
 11 13  1  0  0  0  0
 11 14  1  0  0  0  0
 14 15  1  0  0  0  0
 14 16  1  0  0  0  0
 14 17  1  0  0  0  0
 17 18  2  0  0  0  0
 17 19  1  0  0  0  0
 19 20  1  0  0  0  0
 21 22  2  0  0  0  0
 21 23  1  0  0  0  0
 23 24  1  0  0  0  0
 23 25  1  0  0  0  0
 25 26  1  0  0  0  0
 25 27  1  0  0  0  0
 25 28  1  0  0  0  0
M  END
$$$$

  -OEChem-03222214033D

 28 27  0     1  0  0  0  0  0999 V2000
   -3.1951   -3.8057    1.3290 H   0  0  0  0  0  0  0  0  0  0  0  0
   -3.1754   -2.8361    0.8236 C   0  0  0  0  0  0  0  0  0  0  0  0
   -3.8810   -2.1651    1.3193 H   0  0  0  0  0  0  0  0  0  0  0  0
   -3.4823   -2.9748   -0.2160 H   0  0  0  0  0  0  0  0  0  0  0  0
   -1.7777   -2.2495    0.8740 C   0  0  0  0  0  0  0  0  0  0  0  0
   -0.8793   -2.8552    1.4364 O   0  0  0  0  0  0  0  0  0  0  0  0
   -1.5331   -1.0177    0.3038 N   0  0  0  0  0  0  0  0  0  0  0  0
   -2.3326   -0.4950   -0.0477 H   0  0  0  0  0  0  0  0  0  0  0  0
   -0.2258   -0.3433    0.3013 C   0  0  1  0  0  0  0  0  0  0  0  0
    0.4260   -0.7904    1.0590 H   0  0  0  0  0  0  0  0  0  0  0  0
    0.4562   -0.5105   -1.0729 C   0  0  0  0  0  0  0  0  0  0  0  0
    1.2916    0.1953   -1.1306 H   0  0  0  0  0  0  0  0  0  0  0  0
    0.8970   -1.5112   -1.1243 H   0  0  0  0  0  0  0  0  0  0  0  0
   -0.4852   -0.2607   -2.2845 C   0  0  0  0  0  0  0  0  0  0  0  0
   -1.3609    0.3181   -1.9814 H   0  0  0  0  0  0  0  0  0  0  0  0
    0.0560    0.3522   -3.0094 H   0  0  0  0  0  0  0  0  0  0  0  0
   -0.9631   -1.5021   -3.0428 C   0  0  0  0  0  0  0  0  0  0  0  0
   -0.5006   -2.6025   -2.8015 O   0  0  0  0  0  0  0  0  0  0  0  0
   -1.9150   -1.2991   -3.9777 O   0  0  0  0  0  0  0  0  0  0  0  0
   -2.0820   -2.1759   -4.3559 H   0  0  0  0  0  0  0  0  0  0  0  0
   -0.3737    1.1474    0.6719 C   0  0  0  0  0  0  0  0  0  0  0  0
   -1.2872    1.8112    0.1950 O   0  0  0  0  0  0  0  0  0  0  0  0
    0.4922    1.7368    1.5742 N   0  0  0  0  0  0  0  0  0  0  0  0
    1.1909    1.1433    2.0129 H   0  0  0  0  0  0  0  0  0  0  0  0
    0.3680    3.1223    2.0114 C   0  0  0  0  0  0  0  0  0  0  0  0
   -0.5933    3.2819    2.5110 H   0  0  0  0  0  0  0  0  0  0  0  0
    1.1690    3.3710    2.7142 H   0  0  0  0  0  0  0  0  0  0  0  0
    0.4371    3.8021    1.1554 H   0  0  0  0  0  0  0  0  0  0  0  0
  1  2  1  0  0  0  0
  2  3  1  0  0  0  0
  2  4  1  0  0  0  0
  2  5  1  0  0  0  0
  5  6  2  0  0  0  0
  5  7  1  0  0  0  0
  7  8  1  0  0  0  0
  7  9  1  0  0  0  0
  9 10  1  0  0  0  0
  9 11  1  0  0  0  0
  9 21  1  0  0  0  0
 11 12  1  0  0  0  0
 11 13  1  0  0  0  0
 11 14  1  0  0  0  0
 14 15  1  0  0  0  0
 14 16  1  0  0  0  0
 14 17  1  0  0  0  0
 17 18  2  0  0  0  0
 17 19  1  0  0  0  0
 19 20  1  0  0  0  0
 21 22  2  0  0  0  0
 21 23  1  0  0  0  0
 23 24  1  0  0  0  0
 23 25  1  0  0  0  0
 25 26  1  0  0  0  0
 25 27  1  0  0  0  0
 25 28  1  0  0  0  0
M  END
$$$$

  -OEChem-03222214033D

 28 27  0     1  0  0  0  0  0999 V2000
   -3.1734   -3.8277    1.3060 H   0  0  0  0  0  0  0  0  0  0  0  0
   -3.1603   -2.8556    0.8055 C   0  0  0  0  0  0  0  0  0  0  0  0
   -3.8955   -2.2026    1.2817 H   0  0  0  0  0  0  0  0  0  0  0  0
   -3.4307   -2.9971   -0.2438 H   0  0  0  0  0  0  0  0  0  0  0  0
   -1.7784   -2.2386    0.9004 C   0  0  0  0  0  0  0  0  0  0  0  0
   -0.8885   -2.8188    1.5028 O   0  0  0  0  0  0  0  0  0  0  0  0
   -1.5396   -1.0070    0.3273 N   0  0  0  0  0  0  0  0  0  0  0  0
   -2.3331   -0.5092   -0.0703 H   0  0  0  0  0  0  0  0  0  0  0  0
   -0.2319   -0.3368    0.3092 C   0  0  1  0  0  0  0  0  0  0  0  0
    0.4265   -0.7845    1.0609 H   0  0  0  0  0  0  0  0  0  0  0  0
    0.4397   -0.5083   -1.0721 C   0  0  0  0  0  0  0  0  0  0  0  0
    1.2762    0.1958   -1.1341 H   0  0  0  0  0  0  0  0  0  0  0  0
    0.8727   -1.5124   -1.1357 H   0  0  0  0  0  0  0  0  0  0  0  0
   -0.4998   -0.2622   -2.2825 C   0  0  0  0  0  0  0  0  0  0  0  0
   -1.2225    0.5226   -2.0469 H   0  0  0  0  0  0  0  0  0  0  0  0
    0.1083    0.1056   -3.1126 H   0  0  0  0  0  0  0  0  0  0  0  0
   -1.2583   -1.4819   -2.8133 C   0  0  0  0  0  0  0  0  0  0  0  0
   -0.9809   -2.6052   -2.4329 O   0  0  0  0  0  0  0  0  0  0  0  0
   -2.2361   -1.2345   -3.7099 O   0  0  0  0  0  0  0  0  0  0  0  0
   -2.5861   -2.1072   -3.9455 H   0  0  0  0  0  0  0  0  0  0  0  0
   -0.3738    1.1541    0.6829 C   0  0  0  0  0  0  0  0  0  0  0  0
   -1.2844    1.8238    0.2086 O   0  0  0  0  0  0  0  0  0  0  0  0
    0.5030    1.7425    1.5756 N   0  0  0  0  0  0  0  0  0  0  0  0
    1.1964    1.1450    2.0174 H   0  0  0  0  0  0  0  0  0  0  0  0
    0.3839    3.1285    2.0127 C   0  0  0  0  0  0  0  0  0  0  0  0
   -0.5818    3.2953    2.5014 H   0  0  0  0  0  0  0  0  0  0  0  0
    1.1783    3.3717    2.7248 H   0  0  0  0  0  0  0  0  0  0  0  0
    0.4675    3.8075    1.1575 H   0  0  0  0  0  0  0  0  0  0  0  0
  1  2  1  0  0  0  0
  2  3  1  0  0  0  0
  2  4  1  0  0  0  0
  2  5  1  0  0  0  0
  5  6  2  0  0  0  0
  5  7  1  0  0  0  0
  7  8  1  0  0  0  0
  7  9  1  0  0  0  0
  9 10  1  0  0  0  0
  9 11  1  0  0  0  0
  9 21  1  0  0  0  0
 11 12  1  0  0  0  0
 11 13  1  0  0  0  0
 11 14  1  0  0  0  0
 14 15  1  0  0  0  0
 14 16  1  0  0  0  0
 14 17  1  0  0  0  0
 17 18  2  0  0  0  0
 17 19  1  0  0  0  0
 19 20  1  0  0  0  0
 21 22  2  0  0  0  0
 21 23  1  0  0  0  0
 23 24  1  0  0  0  0
 23 25  1  0  0  0  0
 25 26  1  0  0  0  0
 25 27  1  0  0  0  0
 25 28  1  0  0  0  0
M  END
$$$$

  -OEChem-03222214033D

 28 27  0     1  0  0  0  0  0999 V2000
   -3.2785   -3.7540    1.3218 H   0  0  0  0  0  0  0  0  0  0  0  0
   -3.2295   -2.8085    0.7745 C   0  0  0  0  0  0  0  0  0  0  0  0
   -3.9573   -2.1150    1.2026 H   0  0  0  0  0  0  0  0  0  0  0  0
   -3.4841   -2.9935   -0.2715 H   0  0  0  0  0  0  0  0  0  0  0  0
   -1.8348   -2.2204    0.8713 C   0  0  0  0  0  0  0  0  0  0  0  0
   -0.9552   -2.8239    1.4650 O   0  0  0  0  0  0  0  0  0  0  0  0
   -1.5656   -0.9977    0.2944 N   0  0  0  0  0  0  0  0  0  0  0  0
   -2.3314   -0.5217   -0.1830 H   0  0  0  0  0  0  0  0  0  0  0  0
   -0.2514   -0.3423    0.2920 C   0  0  1  0  0  0  0  0  0  0  0  0
    0.3856   -0.7908    1.0614 H   0  0  0  0  0  0  0  0  0  0  0  0
    0.4644   -0.5057   -1.0699 C   0  0  0  0  0  0  0  0  0  0  0  0
    1.3209    0.1761   -1.0961 H   0  0  0  0  0  0  0  0  0  0  0  0
    0.8644   -1.5243   -1.1268 H   0  0  0  0  0  0  0  0  0  0  0  0
   -0.4028   -0.2552   -2.3273 C   0  0  0  0  0  0  0  0  0  0  0  0
   -0.9608    0.6784   -2.2163 H   0  0  0  0  0  0  0  0  0  0  0  0
    0.2573   -0.1353   -3.1906 H   0  0  0  0  0  0  0  0  0  0  0  0
   -1.3803   -1.3803   -2.6561 C   0  0  0  0  0  0  0  0  0  0  0  0
   -0.9305   -2.4342   -3.0669 O   0  0  0  0  0  0  0  0  0  0  0  0
   -2.7038   -1.1561   -2.4916 O   0  0  0  0  0  0  0  0  0  0  0  0
   -3.1295   -1.9636   -2.8191 H   0  0  0  0  0  0  0  0  0  0  0  0
   -0.3890    1.1528    0.6517 C   0  0  0  0  0  0  0  0  0  0  0  0
   -1.2784    1.8299    0.1493 O   0  0  0  0  0  0  0  0  0  0  0  0
    0.4782    1.7392    1.5553 N   0  0  0  0  0  0  0  0  0  0  0  0
    1.1497    1.1348    2.0206 H   0  0  0  0  0  0  0  0  0  0  0  0
    0.3506    3.1222    1.9999 C   0  0  0  0  0  0  0  0  0  0  0  0
   -0.5972    3.2678    2.5288 H   0  0  0  0  0  0  0  0  0  0  0  0
    1.1696    3.3791    2.6787 H   0  0  0  0  0  0  0  0  0  0  0  0
    0.3855    3.8059    1.1450 H   0  0  0  0  0  0  0  0  0  0  0  0
  1  2  1  0  0  0  0
  2  3  1  0  0  0  0
  2  4  1  0  0  0  0
  2  5  1  0  0  0  0
  5  6  2  0  0  0  0
  5  7  1  0  0  0  0
  7  8  1  0  0  0  0
  7  9  1  0  0  0  0
  9 10  1  0  0  0  0
  9 11  1  0  0  0  0
  9 21  1  0  0  0  0
 11 12  1  0  0  0  0
 11 13  1  0  0  0  0
 11 14  1  0  0  0  0
 14 15  1  0  0  0  0
 14 16  1  0  0  0  0
 14 17  1  0  0  0  0
 17 18  2  0  0  0  0
 17 19  1  0  0  0  0
 19 20  1  0  0  0  0
 21 22  2  0  0  0  0
 21 23  1  0  0  0  0
 23 24  1  0  0  0  0
 23 25  1  0  0  0  0
 25 26  1  0  0  0  0
 25 27  1  0  0  0  0
 25 28  1  0  0  0  0
M  END
$$$$

  -OEChem-03222214033D

 28 27  0     1  0  0  0  0  0999 V2000
   -3.2478   -3.7842    1.4064 H   0  0  0  0  0  0  0  0  0  0  0  0
   -3.2128   -2.8424    0.8518 C   0  0  0  0  0  0  0  0  0  0  0  0
   -3.9486   -2.1553    1.2762 H   0  0  0  0  0  0  0  0  0  0  0  0
   -3.4659   -3.0393   -0.1927 H   0  0  0  0  0  0  0  0  0  0  0  0
   -1.8257   -2.2363    0.9402 C   0  0  0  0  0  0  0  0  0  0  0  0
   -0.9358   -2.8250    1.5335 O   0  0  0  0  0  0  0  0  0  0  0  0
   -1.5734   -1.0169    0.3487 N   0  0  0  0  0  0  0  0  0  0  0  0
   -2.3504   -0.5432   -0.1140 H   0  0  0  0  0  0  0  0  0  0  0  0
   -0.2637   -0.3566    0.3123 C   0  0  1  0  0  0  0  0  0  0  0  0
    0.3894   -0.7953    1.0737 H   0  0  0  0  0  0  0  0  0  0  0  0
    0.4423   -0.5058   -1.0587 C   0  0  0  0  0  0  0  0  0  0  0  0
    1.3070    0.1656   -1.0828 H   0  0  0  0  0  0  0  0  0  0  0  0
    0.8299   -1.5292   -1.1134 H   0  0  0  0  0  0  0  0  0  0  0  0
   -0.4027   -0.2654   -2.3363 C   0  0  0  0  0  0  0  0  0  0  0  0
   -0.7644    0.7669   -2.3312 H   0  0  0  0  0  0  0  0  0  0  0  0
    0.2438   -0.3767   -3.2108 H   0  0  0  0  0  0  0  0  0  0  0  0
   -1.6072   -1.1829   -2.5322 C   0  0  0  0  0  0  0  0  0  0  0  0
   -1.4031   -2.3378   -2.8582 O   0  0  0  0  0  0  0  0  0  0  0  0
   -2.8473   -0.6784   -2.3415 O   0  0  0  0  0  0  0  0  0  0  0  0
   -3.4486   -1.3959   -2.5935 H   0  0  0  0  0  0  0  0  0  0  0  0
   -0.4085    1.1391    0.6641 C   0  0  0  0  0  0  0  0  0  0  0  0
   -1.3026    1.8074    0.1589 O   0  0  0  0  0  0  0  0  0  0  0  0
    0.4702    1.7422    1.5452 N   0  0  0  0  0  0  0  0  0  0  0  0
    1.1514    1.1481    2.0095 H   0  0  0  0  0  0  0  0  0  0  0  0
    0.3486    3.1341    1.9627 C   0  0  0  0  0  0  0  0  0  0  0  0
   -0.6007    3.2955    2.4843 H   0  0  0  0  0  0  0  0  0  0  0  0
    1.1660    3.3989    2.6402 H   0  0  0  0  0  0  0  0  0  0  0  0
    0.3911    3.8005    1.0947 H   0  0  0  0  0  0  0  0  0  0  0  0
  1  2  1  0  0  0  0
  2  3  1  0  0  0  0
  2  4  1  0  0  0  0
  2  5  1  0  0  0  0
  5  6  2  0  0  0  0
  5  7  1  0  0  0  0
  7  8  1  0  0  0  0
  7  9  1  0  0  0  0
  9 10  1  0  0  0  0
  9 11  1  0  0  0  0
  9 21  1  0  0  0  0
 11 12  1  0  0  0  0
 11 13  1  0  0  0  0
 11 14  1  0  0  0  0
 14 15  1  0  0  0  0
 14 16  1  0  0  0  0
 14 17  1  0  0  0  0
 17 18  2  0  0  0  0
 17 19  1  0  0  0  0
 19 20  1  0  0  0  0
 21 22  2  0  0  0  0
 21 23  1  0  0  0  0
 23 24  1  0  0  0  0
 23 25  1  0  0  0  0
 25 26  1  0  0  0  0
 25 27  1  0  0  0  0
 25 28  1  0  0  0  0
M  END
$$$$

  -OEChem-03222214033D

 28 27  0     1  0  0  0  0  0999 V2000
   -3.2072   -3.8044    1.5003 H   0  0  0  0  0  0  0  0  0  0  0  0
   -3.1977   -2.8550    0.9579 C   0  0  0  0  0  0  0  0  0  0  0  0
   -3.9039   -2.1701    1.4331 H   0  0  0  0  0  0  0  0  0  0  0  0
   -3.5105   -3.0352   -0.0736 H   0  0  0  0  0  0  0  0  0  0  0  0
   -1.8043   -2.2571    0.9753 C   0  0  0  0  0  0  0  0  0  0  0  0
   -0.8873   -2.8515    1.5201 O   0  0  0  0  0  0  0  0  0  0  0  0
   -1.5785   -1.0330    0.3828 N   0  0  0  0  0  0  0  0  0  0  0  0
   -2.3808   -0.5381   -0.0071 H   0  0  0  0  0  0  0  0  0  0  0  0
   -0.2783   -0.3579    0.3145 C   0  0  1  0  0  0  0  0  0  0  0  0
    0.3919   -0.7903    1.0648 H   0  0  0  0  0  0  0  0  0  0  0  0
    0.4161   -0.4938   -1.0649 C   0  0  0  0  0  0  0  0  0  0  0  0
    1.2857    0.1712   -1.0907 H   0  0  0  0  0  0  0  0  0  0  0  0
    0.7982   -1.5195   -1.1129 H   0  0  0  0  0  0  0  0  0  0  0  0
   -0.4089   -0.2731   -2.3621 C   0  0  0  0  0  0  0  0  0  0  0  0
   -0.5671    0.8028   -2.4796 H   0  0  0  0  0  0  0  0  0  0  0  0
    0.1842   -0.6074   -3.2176 H   0  0  0  0  0  0  0  0  0  0  0  0
   -1.7822   -0.9332   -2.4554 C   0  0  0  0  0  0  0  0  0  0  0  0
   -1.8300   -2.1260   -2.6956 O   0  0  0  0  0  0  0  0  0  0  0  0
   -2.8849   -0.1736   -2.2752 O   0  0  0  0  0  0  0  0  0  0  0  0
   -3.6324   -0.7644   -2.4513 H   0  0  0  0  0  0  0  0  0  0  0  0
   -0.4301    1.1343    0.6752 C   0  0  0  0  0  0  0  0  0  0  0  0
   -1.3488    1.7920    0.2026 O   0  0  0  0  0  0  0  0  0  0  0  0
    0.4654    1.7434    1.5351 N   0  0  0  0  0  0  0  0  0  0  0  0
    1.1682    1.1558    1.9747 H   0  0  0  0  0  0  0  0  0  0  0  0
    0.3435    3.1332    1.9594 C   0  0  0  0  0  0  0  0  0  0  0  0
   -0.5970    3.2878    2.4990 H   0  0  0  0  0  0  0  0  0  0  0  0
    1.1717    3.4006    2.6227 H   0  0  0  0  0  0  0  0  0  0  0  0
    0.3668    3.8023    1.0926 H   0  0  0  0  0  0  0  0  0  0  0  0
  1  2  1  0  0  0  0
  2  3  1  0  0  0  0
  2  4  1  0  0  0  0
  2  5  1  0  0  0  0
  5  6  2  0  0  0  0
  5  7  1  0  0  0  0
  7  8  1  0  0  0  0
  7  9  1  0  0  0  0
  9 10  1  0  0  0  0
  9 11  1  0  0  0  0
  9 21  1  0  0  0  0
 11 12  1  0  0  0  0
 11 13  1  0  0  0  0
 11 14  1  0  0  0  0
 14 15  1  0  0  0  0
 14 16  1  0  0  0  0
 14 17  1  0  0  0  0
 17 18  2  0  0  0  0
 17 19  1  0  0  0  0
 19 20  1  0  0  0  0
 21 22  2  0  0  0  0
 21 23  1  0  0  0  0
 23 24  1  0  0  0  0
 23 25  1  0  0  0  0
 25 26  1  0  0  0  0
 25 27  1  0  0  0  0
 25 28  1  0  0  0  0
M  END
$$$$

  -OEChem-03222214033D

 28 27  0     1  0  0  0  0  0999 V2000
   -3.1297   -3.8469    1.5707 H   0  0  0  0  0  0  0  0  0  0  0  0
   -3.1526   -2.8871    1.0471 C   0  0  0  0  0  0  0  0  0  0  0  0
   -3.8399   -2.2165    1.5683 H   0  0  0  0  0  0  0  0  0  0  0  0
   -3.5139   -3.0498    0.0283 H   0  0  0  0  0  0  0  0  0  0  0  0
   -1.7636   -2.2797    1.0075 C   0  0  0  0  0  0  0  0  0  0  0  0
   -0.8161   -2.8807    1.4904 O   0  0  0  0  0  0  0  0  0  0  0  0
   -1.5747   -1.0427    0.4292 N   0  0  0  0  0  0  0  0  0  0  0  0
   -2.4014   -0.5451    0.1037 H   0  0  0  0  0  0  0  0  0  0  0  0
   -0.2828   -0.3594    0.3094 C   0  0  1  0  0  0  0  0  0  0  0  0
    0.4210   -0.8001    1.0231 H   0  0  0  0  0  0  0  0  0  0  0  0
    0.3551   -0.4746   -1.0994 C   0  0  0  0  0  0  0  0  0  0  0  0
    1.2307    0.1814   -1.1460 H   0  0  0  0  0  0  0  0  0  0  0  0
    0.7281   -1.5026   -1.1638 H   0  0  0  0  0  0  0  0  0  0  0  0
   -0.4930   -0.2499   -2.3850 C   0  0  0  0  0  0  0  0  0  0  0  0
   -0.4313    0.8147   -2.6279 H   0  0  0  0  0  0  0  0  0  0  0  0
   -0.0285   -0.7931   -3.2122 H   0  0  0  0  0  0  0  0  0  0  0  0
   -1.9805   -0.5936   -2.3764 C   0  0  0  0  0  0  0  0  0  0  0  0
   -2.3083   -1.7675   -2.3856 O   0  0  0  0  0  0  0  0  0  0  0  0
   -2.8711    0.4201   -2.3983 O   0  0  0  0  0  0  0  0  0  0  0  0
   -3.7434    0.0021   -2.4380 H   0  0  0  0  0  0  0  0  0  0  0  0
   -0.4228    1.1242    0.7067 C   0  0  0  0  0  0  0  0  0  0  0  0
   -1.3773    1.7799    0.3085 O   0  0  0  0  0  0  0  0  0  0  0  0
    0.5111    1.7229    1.5323 N   0  0  0  0  0  0  0  0  0  0  0  0
    1.2484    1.1361    1.9123 H   0  0  0  0  0  0  0  0  0  0  0  0
    0.4062    3.1054    1.9840 C   0  0  0  0  0  0  0  0  0  0  0  0
   -0.5117    3.2511    2.5631 H   0  0  0  0  0  0  0  0  0  0  0  0
    1.2601    3.3628    2.6179 H   0  0  0  0  0  0  0  0  0  0  0  0
    0.3942    3.7884    1.1279 H   0  0  0  0  0  0  0  0  0  0  0  0
  1  2  1  0  0  0  0
  2  3  1  0  0  0  0
  2  4  1  0  0  0  0
  2  5  1  0  0  0  0
  5  6  2  0  0  0  0
  5  7  1  0  0  0  0
  7  8  1  0  0  0  0
  7  9  1  0  0  0  0
  9 10  1  0  0  0  0
  9 11  1  0  0  0  0
  9 21  1  0  0  0  0
 11 12  1  0  0  0  0
 11 13  1  0  0  0  0
 11 14  1  0  0  0  0
 14 15  1  0  0  0  0
 14 16  1  0  0  0  0
 14 17  1  0  0  0  0
 17 18  2  0  0  0  0
 17 19  1  0  0  0  0
 19 20  1  0  0  0  0
 21 22  2  0  0  0  0
 21 23  1  0  0  0  0
 23 24  1  0  0  0  0
 23 25  1  0  0  0  0
 25 26  1  0  0  0  0
 25 27  1  0  0  0  0
 25 28  1  0  0  0  0
M  END
$$$$

  -OEChem-03222214033D

 28 27  0     1  0  0  0  0  0999 V2000
   -3.0247   -3.9442    1.5178 H   0  0  0  0  0  0  0  0  0  0  0  0
   -3.0794   -2.9639    1.0366 C   0  0  0  0  0  0  0  0  0  0  0  0
   -3.8130   -2.3506    1.5651 H   0  0  0  0  0  0  0  0  0  0  0  0
   -3.4046   -3.0970    0.0016 H   0  0  0  0  0  0  0  0  0  0  0  0
   -1.7219   -2.2884    1.0668 C   0  0  0  0  0  0  0  0  0  0  0  0
   -0.7735   -2.8397    1.6052 O   0  0  0  0  0  0  0  0  0  0  0  0
   -1.5634   -1.0492    0.4844 N   0  0  0  0  0  0  0  0  0  0  0  0
   -2.3693   -0.6750   -0.0136 H   0  0  0  0  0  0  0  0  0  0  0  0
   -0.2779   -0.3590    0.3321 C   0  0  1  0  0  0  0  0  0  0  0  0
    0.4558   -0.7995    1.0151 H   0  0  0  0  0  0  0  0  0  0  0  0
    0.3017   -0.4512   -1.1043 C   0  0  0  0  0  0  0  0  0  0  0  0
    1.1775    0.2036   -1.1668 H   0  0  0  0  0  0  0  0  0  0  0  0
    0.6747   -1.4771   -1.1945 H   0  0  0  0  0  0  0  0  0  0  0  0
   -0.5747   -0.2078   -2.3727 C   0  0  0  0  0  0  0  0  0  0  0  0
   -0.2940    0.7730   -2.7672 H   0  0  0  0  0  0  0  0  0  0  0  0
   -0.2949   -0.9430   -3.1319 H   0  0  0  0  0  0  0  0  0  0  0  0
   -2.1007   -0.2011   -2.2901 C   0  0  0  0  0  0  0  0  0  0  0  0
   -2.6962   -1.2444   -2.0795 O   0  0  0  0  0  0  0  0  0  0  0  0
   -2.7278    0.9713   -2.5234 O   0  0  0  0  0  0  0  0  0  0  0  0
   -3.6741    0.7923   -2.4251 H   0  0  0  0  0  0  0  0  0  0  0  0
   -0.4200    1.1232    0.7379 C   0  0  0  0  0  0  0  0  0  0  0  0
   -1.3757    1.7818    0.3462 O   0  0  0  0  0  0  0  0  0  0  0  0
    0.5307    1.7255    1.5418 N   0  0  0  0  0  0  0  0  0  0  0  0
    1.2628    1.1346    1.9256 H   0  0  0  0  0  0  0  0  0  0  0  0
    0.4190    3.1023    2.0091 C   0  0  0  0  0  0  0  0  0  0  0  0
   -0.4729    3.2238    2.6331 H   0  0  0  0  0  0  0  0  0  0  0  0
    1.2971    3.3734    2.6029 H   0  0  0  0  0  0  0  0  0  0  0  0
    0.3515    3.7912    1.1603 H   0  0  0  0  0  0  0  0  0  0  0  0
  1  2  1  0  0  0  0
  2  3  1  0  0  0  0
  2  4  1  0  0  0  0
  2  5  1  0  0  0  0
  5  6  2  0  0  0  0
  5  7  1  0  0  0  0
  7  8  1  0  0  0  0
  7  9  1  0  0  0  0
  9 10  1  0  0  0  0
  9 11  1  0  0  0  0
  9 21  1  0  0  0  0
 11 12  1  0  0  0  0
 11 13  1  0  0  0  0
 11 14  1  0  0  0  0
 14 15  1  0  0  0  0
 14 16  1  0  0  0  0
 14 17  1  0  0  0  0
 17 18  2  0  0  0  0
 17 19  1  0  0  0  0
 19 20  1  0  0  0  0
 21 22  2  0  0  0  0
 21 23  1  0  0  0  0
 23 24  1  0  0  0  0
 23 25  1  0  0  0  0
 25 26  1  0  0  0  0
 25 27  1  0  0  0  0
 25 28  1  0  0  0  0
M  END
$$$$

  -OEChem-03222214033D

 28 27  0     1  0  0  0  0  0999 V2000
   -3.1773   -3.8411    1.2263 H   0  0  0  0  0  0  0  0  0  0  0  0
   -3.1869   -2.8286    0.8134 C   0  0  0  0  0  0  0  0  0  0  0  0
   -3.8602   -2.2098    1.4112 H   0  0  0  0  0  0  0  0  0  0  0  0
   -3.5568   -2.8700   -0.2140 H   0  0  0  0  0  0  0  0  0  0  0  0
   -1.7890   -2.2410    0.8347 C   0  0  0  0  0  0  0  0  0  0  0  0
   -0.8517   -2.9013    1.2557 O   0  0  0  0  0  0  0  0  0  0  0  0
   -1.5791   -0.9623    0.3663 N   0  0  0  0  0  0  0  0  0  0  0  0
   -2.3869   -0.4610   -0.0001 H   0  0  0  0  0  0  0  0  0  0  0  0
   -0.2750   -0.2979    0.2916 C   0  0  1  0  0  0  0  0  0  0  0  0
    0.4280   -0.8131    0.9542 H   0  0  0  0  0  0  0  0  0  0  0  0
    0.3218   -0.3386   -1.1358 C   0  0  0  0  0  0  0  0  0  0  0  0
    1.1975    0.3194   -1.1471 H   0  0  0  0  0  0  0  0  0  0  0  0
    0.6992   -1.3578   -1.2732 H   0  0  0  0  0  0  0  0  0  0  0  0
   -0.5288   -0.0116   -2.4024 C   0  0  0  0  0  0  0  0  0  0  0  0
   -0.0254    0.8023   -2.9329 H   0  0  0  0  0  0  0  0  0  0  0  0
   -0.4900   -0.8839   -3.0600 H   0  0  0  0  0  0  0  0  0  0  0  0
   -2.0076    0.3731   -2.2948 C   0  0  0  0  0  0  0  0  0  0  0  0
   -2.3031    1.5202   -2.5705 O   0  0  0  0  0  0  0  0  0  0  0  0
   -2.9367   -0.5788   -2.0509 O   0  0  0  0  0  0  0  0  0  0  0  0
   -3.7808   -0.1092   -2.1511 H   0  0  0  0  0  0  0  0  0  0  0  0
   -0.3688    1.1493    0.8196 C   0  0  0  0  0  0  0  0  0  0  0  0
   -1.3399    1.8427    0.5475 O   0  0  0  0  0  0  0  0  0  0  0  0
    0.5936    1.6455    1.6800 N   0  0  0  0  0  0  0  0  0  0  0  0
    1.3303    1.0124    1.9777 H   0  0  0  0  0  0  0  0  0  0  0  0
    0.5019    2.9616    2.3010 C   0  0  0  0  0  0  0  0  0  0  0  0
   -0.3841    3.0218    2.9418 H   0  0  0  0  0  0  0  0  0  0  0  0
    1.3873    3.1532    2.9146 H   0  0  0  0  0  0  0  0  0  0  0  0
    0.4368    3.7434    1.5367 H   0  0  0  0  0  0  0  0  0  0  0  0
  1  2  1  0  0  0  0
  2  3  1  0  0  0  0
  2  4  1  0  0  0  0
  2  5  1  0  0  0  0
  5  6  2  0  0  0  0
  5  7  1  0  0  0  0
  7  8  1  0  0  0  0
  7  9  1  0  0  0  0
  9 10  1  0  0  0  0
  9 11  1  0  0  0  0
  9 21  1  0  0  0  0
 11 12  1  0  0  0  0
 11 13  1  0  0  0  0
 11 14  1  0  0  0  0
 14 15  1  0  0  0  0
 14 16  1  0  0  0  0
 14 17  1  0  0  0  0
 17 18  2  0  0  0  0
 17 19  1  0  0  0  0
 19 20  1  0  0  0  0
 21 22  2  0  0  0  0
 21 23  1  0  0  0  0
 23 24  1  0  0  0  0
 23 25  1  0  0  0  0
 25 26  1  0  0  0  0
 25 27  1  0  0  0  0
 25 28  1  0  0  0  0
M  END
$$$$

  -OEChem-03222214033D

 28 27  0     1  0  0  0  0  0999 V2000
   -3.0482   -3.9021    1.4229 H   0  0  0  0  0  0  0  0  0  0  0  0
   -3.1036   -2.9042    0.9796 C   0  0  0  0  0  0  0  0  0  0  0  0
   -3.8143   -2.3022    1.5507 H   0  0  0  0  0  0  0  0  0  0  0  0
   -3.4594   -2.9936   -0.0500 H   0  0  0  0  0  0  0  0  0  0  0  0
   -1.7380   -2.2453    0.9973 C   0  0  0  0  0  0  0  0  0  0  0  0
   -0.7821   -2.8218    1.4938 O   0  0  0  0  0  0  0  0  0  0  0  0
   -1.5771   -0.9992    0.4333 N   0  0  0  0  0  0  0  0  0  0  0  0
   -2.3919   -0.5986   -0.0377 H   0  0  0  0  0  0  0  0  0  0  0  0
   -0.2993   -0.2882    0.3048 C   0  0  1  0  0  0  0  0  0  0  0  0
    0.4183   -0.7229    1.0082 H   0  0  0  0  0  0  0  0  0  0  0  0
    0.2964   -0.4621   -1.1154 C   0  0  0  0  0  0  0  0  0  0  0  0
    1.1253    0.2482   -1.2066 H   0  0  0  0  0  0  0  0  0  0  0  0
    0.7370   -1.4641   -1.1582 H   0  0  0  0  0  0  0  0  0  0  0  0
   -0.5970   -0.3031   -2.3826 C   0  0  0  0  0  0  0  0  0  0  0  0
   -0.0324    0.2478   -3.1396 H   0  0  0  0  0  0  0  0  0  0  0  0
   -0.7815   -1.3014   -2.7891 H   0  0  0  0  0  0  0  0  0  0  0  0
   -1.9638    0.3649   -2.2419 C   0  0  0  0  0  0  0  0  0  0  0  0
   -2.9312   -0.3023   -1.9087 O   0  0  0  0  0  0  0  0  0  0  0  0
   -2.0338    1.6781   -2.5457 O   0  0  0  0  0  0  0  0  0  0  0  0
   -2.9246    1.9560   -2.2844 H   0  0  0  0  0  0  0  0  0  0  0  0
   -0.4268    1.1965    0.7168 C   0  0  0  0  0  0  0  0  0  0  0  0
   -1.4114    1.8546    0.4038 O   0  0  0  0  0  0  0  0  0  0  0  0
    0.5318    1.7759    1.5285 N   0  0  0  0  0  0  0  0  0  0  0  0
    1.2782    1.1788    1.8726 H   0  0  0  0  0  0  0  0  0  0  0  0
    0.4189    3.1324    2.0515 C   0  0  0  0  0  0  0  0  0  0  0  0
   -0.4644    3.2232    2.6925 H   0  0  0  0  0  0  0  0  0  0  0  0
    1.3041    3.3854    2.6429 H   0  0  0  0  0  0  0  0  0  0  0  0
    0.3348    3.8536    1.2315 H   0  0  0  0  0  0  0  0  0  0  0  0
  1  2  1  0  0  0  0
  2  3  1  0  0  0  0
  2  4  1  0  0  0  0
  2  5  1  0  0  0  0
  5  6  2  0  0  0  0
  5  7  1  0  0  0  0
  7  8  1  0  0  0  0
  7  9  1  0  0  0  0
  9 10  1  0  0  0  0
  9 11  1  0  0  0  0
  9 21  1  0  0  0  0
 11 12  1  0  0  0  0
 11 13  1  0  0  0  0
 11 14  1  0  0  0  0
 14 15  1  0  0  0  0
 14 16  1  0  0  0  0
 14 17  1  0  0  0  0
 17 18  2  0  0  0  0
 17 19  1  0  0  0  0
 19 20  1  0  0  0  0
 21 22  2  0  0  0  0
 21 23  1  0  0  0  0
 23 24  1  0  0  0  0
 23 25  1  0  0  0  0
 25 26  1  0  0  0  0
 25 27  1  0  0  0  0
 25 28  1  0  0  0  0
M  END
$$$$

  -OEChem-03222214033D

 28 27  0     1  0  0  0  0  0999 V2000
   -3.0566   -3.8750    1.3768 H   0  0  0  0  0  0  0  0  0  0  0  0
   -3.1140   -2.8772    0.9337 C   0  0  0  0  0  0  0  0  0  0  0  0
   -3.8091   -2.2697    1.5183 H   0  0  0  0  0  0  0  0  0  0  0  0
   -3.4905   -2.9652   -0.0885 H   0  0  0  0  0  0  0  0  0  0  0  0
   -1.7434   -2.2284    0.9255 C   0  0  0  0  0  0  0  0  0  0  0  0
   -0.7786   -2.8205    1.3848 O   0  0  0  0  0  0  0  0  0  0  0  0
   -1.5872   -0.9738    0.3792 N   0  0  0  0  0  0  0  0  0  0  0  0
   -2.4137   -0.5388   -0.0397 H   0  0  0  0  0  0  0  0  0  0  0  0
   -0.3163   -0.2458    0.2683 C   0  0  1  0  0  0  0  0  0  0  0  0
    0.3879   -0.6797    0.9856 H   0  0  0  0  0  0  0  0  0  0  0  0
    0.3015   -0.4611   -1.1353 C   0  0  0  0  0  0  0  0  0  0  0  0
    1.1109    0.2673   -1.2515 H   0  0  0  0  0  0  0  0  0  0  0  0
    0.7615   -1.4550   -1.1531 H   0  0  0  0  0  0  0  0  0  0  0  0
   -0.6203   -0.3485   -2.3801 C   0  0  0  0  0  0  0  0  0  0  0  0
   -0.0208   -0.0536   -3.2451 H   0  0  0  0  0  0  0  0  0  0  0  0
   -1.0278   -1.3412   -2.5930 H   0  0  0  0  0  0  0  0  0  0  0  0
   -1.8038    0.6053   -2.2666 C   0  0  0  0  0  0  0  0  0  0  0  0
   -2.8890    0.1599   -1.9258 O   0  0  0  0  0  0  0  0  0  0  0  0
   -1.5828    1.9055   -2.5530 O   0  0  0  0  0  0  0  0  0  0  0  0
   -2.3860    2.3652   -2.2621 H   0  0  0  0  0  0  0  0  0  0  0  0
   -0.4296    1.2390    0.6911 C   0  0  0  0  0  0  0  0  0  0  0  0
   -1.4235    1.9035    0.4242 O   0  0  0  0  0  0  0  0  0  0  0  0
    0.5372    1.7979    1.5076 N   0  0  0  0  0  0  0  0  0  0  0  0
    1.2941    1.1961    1.8192 H   0  0  0  0  0  0  0  0  0  0  0  0
    0.4332    3.1418    2.0643 C   0  0  0  0  0  0  0  0  0  0  0  0
   -0.4459    3.2208    2.7127 H   0  0  0  0  0  0  0  0  0  0  0  0
    1.3230    3.3762    2.6566 H   0  0  0  0  0  0  0  0  0  0  0  0
    0.3476    3.8833    1.2629 H   0  0  0  0  0  0  0  0  0  0  0  0
  1  2  1  0  0  0  0
  2  3  1  0  0  0  0
  2  4  1  0  0  0  0
  2  5  1  0  0  0  0
  5  6  2  0  0  0  0
  5  7  1  0  0  0  0
  7  8  1  0  0  0  0
  7  9  1  0  0  0  0
  9 10  1  0  0  0  0
  9 11  1  0  0  0  0
  9 21  1  0  0  0  0
 11 12  1  0  0  0  0
 11 13  1  0  0  0  0
 11 14  1  0  0  0  0
 14 15  1  0  0  0  0
 14 16  1  0  0  0  0
 14 17  1  0  0  0  0
 17 18  2  0  0  0  0
 17 19  1  0  0  0  0
 19 20  1  0  0  0  0
 21 22  2  0  0  0  0
 21 23  1  0  0  0  0
 23 24  1  0  0  0  0
 23 25  1  0  0  0  0
 25 26  1  0  0  0  0
 25 27  1  0  0  0  0
 25 28  1  0  0  0  0
M  END
$$$$

  -OEChem-03222214033D

 28 27  0     1  0  0  0  0  0999 V2000
   -3.1775   -3.7436    1.2659 H   0  0  0  0  0  0  0  0  0  0  0  0
   -3.1878   -2.7423    0.8263 C   0  0  0  0  0  0  0  0  0  0  0  0
   -3.8495   -2.1046    1.4175 H   0  0  0  0  0  0  0  0  0  0  0  0
   -3.5735   -2.8086   -0.1939 H   0  0  0  0  0  0  0  0  0  0  0  0
   -1.7866   -2.1618    0.8126 C   0  0  0  0  0  0  0  0  0  0  0  0
   -0.8500   -2.8060    1.2582 O   0  0  0  0  0  0  0  0  0  0  0  0
   -1.5702   -0.9110    0.2770 N   0  0  0  0  0  0  0  0  0  0  0  0
   -2.3809   -0.3988   -0.0743 H   0  0  0  0  0  0  0  0  0  0  0  0
   -0.2786   -0.2115    0.2460 C   0  0  1  0  0  0  0  0  0  0  0  0
    0.3655   -0.6549    1.0127 H   0  0  0  0  0  0  0  0  0  0  0  0
    0.4289   -0.4579   -1.1076 C   0  0  0  0  0  0  0  0  0  0  0  0
    1.2644    0.2461   -1.1868 H   0  0  0  0  0  0  0  0  0  0  0  0
    0.8567   -1.4659   -1.0892 H   0  0  0  0  0  0  0  0  0  0  0  0
   -0.4323   -0.3349   -2.3876 C   0  0  0  0  0  0  0  0  0  0  0  0
    0.2224   -0.3130   -3.2630 H   0  0  0  0  0  0  0  0  0  0  0  0
   -1.0614   -1.2245   -2.4756 H   0  0  0  0  0  0  0  0  0  0  0  0
   -1.3461    0.8809   -2.4332 C   0  0  0  0  0  0  0  0  0  0  0  0
   -0.8721    1.9340   -2.8190 O   0  0  0  0  0  0  0  0  0  0  0  0
   -2.6309    0.7374   -2.0346 O   0  0  0  0  0  0  0  0  0  0  0  0
   -2.9705    1.6474   -2.0091 H   0  0  0  0  0  0  0  0  0  0  0  0
   -0.3979    1.2750    0.6633 C   0  0  0  0  0  0  0  0  0  0  0  0
   -1.4074    1.9196    0.4029 O   0  0  0  0  0  0  0  0  0  0  0  0
    0.5215    1.8219    1.5404 N   0  0  0  0  0  0  0  0  0  0  0  0
    1.2993    1.2384    1.8342 H   0  0  0  0  0  0  0  0  0  0  0  0
    0.3984    3.1643    2.0968 C   0  0  0  0  0  0  0  0  0  0  0  0
   -0.5061    3.2439    2.7091 H   0  0  0  0  0  0  0  0  0  0  0  0
    1.2637    3.3945    2.7260 H   0  0  0  0  0  0  0  0  0  0  0  0
    0.3479    3.9085    1.2947 H   0  0  0  0  0  0  0  0  0  0  0  0
  1  2  1  0  0  0  0
  2  3  1  0  0  0  0
  2  4  1  0  0  0  0
  2  5  1  0  0  0  0
  5  6  2  0  0  0  0
  5  7  1  0  0  0  0
  7  8  1  0  0  0  0
  7  9  1  0  0  0  0
  9 10  1  0  0  0  0
  9 11  1  0  0  0  0
  9 21  1  0  0  0  0
 11 12  1  0  0  0  0
 11 13  1  0  0  0  0
 11 14  1  0  0  0  0
 14 15  1  0  0  0  0
 14 16  1  0  0  0  0
 14 17  1  0  0  0  0
 17 18  2  0  0  0  0
 17 19  1  0  0  0  0
 19 20  1  0  0  0  0
 21 22  2  0  0  0  0
 21 23  1  0  0  0  0
 23 24  1  0  0  0  0
 23 25  1  0  0  0  0
 25 26  1  0  0  0  0
 25 27  1  0  0  0  0
 25 28  1  0  0  0  0
M  END
$$$$

  -OEChem-03222214033D

 28 27  0     1  0  0  0  0  0999 V2000
   -3.2258   -3.7446    1.2100 H   0  0  0  0  0  0  0  0  0  0  0  0
   -3.2210   -2.7397    0.7786 C   0  0  0  0  0  0  0  0  0  0  0  0
   -3.8455   -2.0887    1.3952 H   0  0  0  0  0  0  0  0  0  0  0  0
   -3.6402   -2.7866   -0.2295 H   0  0  0  0  0  0  0  0  0  0  0  0
   -1.8047   -2.1997    0.7252 C   0  0  0  0  0  0  0  0  0  0  0  0
   -0.8724   -2.8793    1.1245 O   0  0  0  0  0  0  0  0  0  0  0  0
   -1.5711   -0.9421    0.2121 N   0  0  0  0  0  0  0  0  0  0  0  0
   -2.3844   -0.3749   -0.0281 H   0  0  0  0  0  0  0  0  0  0  0  0
   -0.2715   -0.2556    0.2284 C   0  0  1  0  0  0  0  0  0  0  0  0
    0.3512   -0.7155    1.0031 H   0  0  0  0  0  0  0  0  0  0  0  0
    0.4752   -0.4592   -1.1107 C   0  0  0  0  0  0  0  0  0  0  0  0
    1.3302    0.2247   -1.1475 H   0  0  0  0  0  0  0  0  0  0  0  0
    0.8756   -1.4786   -1.1173 H   0  0  0  0  0  0  0  0  0  0  0  0
   -0.3673   -0.2799   -2.3936 C   0  0  0  0  0  0  0  0  0  0  0  0
    0.2654   -0.4606   -3.2665 H   0  0  0  0  0  0  0  0  0  0  0  0
   -1.1699   -1.0216   -2.4169 H   0  0  0  0  0  0  0  0  0  0  0  0
   -0.9776    1.1064   -2.5329 C   0  0  0  0  0  0  0  0  0  0  0  0
   -0.2260    2.0546   -2.6776 O   0  0  0  0  0  0  0  0  0  0  0  0
   -2.3217    1.2184   -2.4605 O   0  0  0  0  0  0  0  0  0  0  0  0
   -2.4830    2.1745   -2.4219 H   0  0  0  0  0  0  0  0  0  0  0  0
   -0.4144    1.2211    0.6672 C   0  0  0  0  0  0  0  0  0  0  0  0
   -1.4279    1.8524    0.3879 O   0  0  0  0  0  0  0  0  0  0  0  0
    0.4690    1.7628    1.5832 N   0  0  0  0  0  0  0  0  0  0  0  0
    1.2650    1.1978    1.8639 H   0  0  0  0  0  0  0  0  0  0  0  0
    0.3209    3.1007    2.1442 C   0  0  0  0  0  0  0  0  0  0  0  0
   -0.6123    3.1774    2.7122 H   0  0  0  0  0  0  0  0  0  0  0  0
    1.1542    3.3236    2.8175 H   0  0  0  0  0  0  0  0  0  0  0  0
    0.3110    3.8517    1.3469 H   0  0  0  0  0  0  0  0  0  0  0  0
  1  2  1  0  0  0  0
  2  3  1  0  0  0  0
  2  4  1  0  0  0  0
  2  5  1  0  0  0  0
  5  6  2  0  0  0  0
  5  7  1  0  0  0  0
  7  8  1  0  0  0  0
  7  9  1  0  0  0  0
  9 10  1  0  0  0  0
  9 11  1  0  0  0  0
  9 21  1  0  0  0  0
 11 12  1  0  0  0  0
 11 13  1  0  0  0  0
 11 14  1  0  0  0  0
 14 15  1  0  0  0  0
 14 16  1  0  0  0  0
 14 17  1  0  0  0  0
 17 18  2  0  0  0  0
 17 19  1  0  0  0  0
 19 20  1  0  0  0  0
 21 22  2  0  0  0  0
 21 23  1  0  0  0  0
 23 24  1  0  0  0  0
 23 25  1  0  0  0  0
 25 26  1  0  0  0  0
 25 27  1  0  0  0  0
 25 28  1  0  0  0  0
M  END
$$$$

  -OEChem-03222214033D

 28 27  0     1  0  0  0  0  0999 V2000
   -3.2291   -3.7433    1.3199 H   0  0  0  0  0  0  0  0  0  0  0  0
   -3.2180   -2.7642    0.8328 C   0  0  0  0  0  0  0  0  0  0  0  0
   -3.8354   -2.0750    1.4141 H   0  0  0  0  0  0  0  0  0  0  0  0
   -3.6409   -2.8646   -0.1697 H   0  0  0  0  0  0  0  0  0  0  0  0
   -1.7973   -2.2399    0.7450 C   0  0  0  0  0  0  0  0  0  0  0  0
   -0.8661   -2.9240    1.1387 O   0  0  0  0  0  0  0  0  0  0  0  0
   -1.5586   -0.9906    0.2137 N   0  0  0  0  0  0  0  0  0  0  0  0
   -2.3706   -0.4087    0.0076 H   0  0  0  0  0  0  0  0  0  0  0  0
   -0.2545   -0.3111    0.2346 C   0  0  1  0  0  0  0  0  0  0  0  0
    0.3725   -0.7662    1.0087 H   0  0  0  0  0  0  0  0  0  0  0  0
    0.4908   -0.4715   -1.1095 C   0  0  0  0  0  0  0  0  0  0  0  0
    1.3675    0.1852   -1.1253 H   0  0  0  0  0  0  0  0  0  0  0  0
    0.8636   -1.5005   -1.1486 H   0  0  0  0  0  0  0  0  0  0  0  0
   -0.3624   -0.2440   -2.3800 C   0  0  0  0  0  0  0  0  0  0  0  0
    0.1850   -0.6256   -3.2455 H   0  0  0  0  0  0  0  0  0  0  0  0
   -1.2992   -0.8027   -2.3231 H   0  0  0  0  0  0  0  0  0  0  0  0
   -0.6685    1.2253   -2.6502 C   0  0  0  0  0  0  0  0  0  0  0  0
    0.2461    2.0312   -2.6164 O   0  0  0  0  0  0  0  0  0  0  0  0
   -1.9488    1.5619   -2.9149 O   0  0  0  0  0  0  0  0  0  0  0  0
   -1.9448    2.5305   -2.9546 H   0  0  0  0  0  0  0  0  0  0  0  0
   -0.4244    1.1667    0.6523 C   0  0  0  0  0  0  0  0  0  0  0  0
   -1.4270    1.7847    0.3101 O   0  0  0  0  0  0  0  0  0  0  0  0
    0.4310    1.7390    1.5755 N   0  0  0  0  0  0  0  0  0  0  0  0
    1.2358    1.1962    1.8749 H   0  0  0  0  0  0  0  0  0  0  0  0
    0.2782    3.1039    2.0655 C   0  0  0  0  0  0  0  0  0  0  0  0
   -0.6968    3.2321    2.5478 H   0  0  0  0  0  0  0  0  0  0  0  0
    1.0576    3.3331    2.7985 H   0  0  0  0  0  0  0  0  0  0  0  0
    0.3597    3.8180    1.2390 H   0  0  0  0  0  0  0  0  0  0  0  0
  1  2  1  0  0  0  0
  2  3  1  0  0  0  0
  2  4  1  0  0  0  0
  2  5  1  0  0  0  0
  5  6  2  0  0  0  0
  5  7  1  0  0  0  0
  7  8  1  0  0  0  0
  7  9  1  0  0  0  0
  9 10  1  0  0  0  0
  9 11  1  0  0  0  0
  9 21  1  0  0  0  0
 11 12  1  0  0  0  0
 11 13  1  0  0  0  0
 11 14  1  0  0  0  0
 14 15  1  0  0  0  0
 14 16  1  0  0  0  0
 14 17  1  0  0  0  0
 17 18  2  0  0  0  0
 17 19  1  0  0  0  0
 19 20  1  0  0  0  0
 21 22  2  0  0  0  0
 21 23  1  0  0  0  0
 23 24  1  0  0  0  0
 23 25  1  0  0  0  0
 25 26  1  0  0  0  0
 25 27  1  0  0  0  0
 25 28  1  0  0  0  0
M  END
$$$$

  -OEChem-03222214033D

 28 27  0     1  0  0  0  0  0999 V2000
   -3.2291   -3.7602    1.3789 H   0  0  0  0  0  0  0  0  0  0  0  0
   -3.2155   -2.7829    0.8885 C   0  0  0  0  0  0  0  0  0  0  0  0
   -3.8202   -2.0868    1.4748 H   0  0  0  0  0  0  0  0  0  0  0  0
   -3.6505   -2.8828   -0.1088 H   0  0  0  0  0  0  0  0  0  0  0  0
   -1.7917   -2.2704    0.7827 C   0  0  0  0  0  0  0  0  0  0  0  0
   -0.8628   -2.9529    1.1842 O   0  0  0  0  0  0  0  0  0  0  0  0
   -1.5491   -1.0306    0.2311 N   0  0  0  0  0  0  0  0  0  0  0  0
   -2.3591   -0.4443    0.0311 H   0  0  0  0  0  0  0  0  0  0  0  0
   -0.2414   -0.3568    0.2437 C   0  0  1  0  0  0  0  0  0  0  0  0
    0.3958   -0.8078    1.0118 H   0  0  0  0  0  0  0  0  0  0  0  0
    0.4909   -0.4779   -1.1097 C   0  0  0  0  0  0  0  0  0  0  0  0
    1.3869    0.1521   -1.1095 H   0  0  0  0  0  0  0  0  0  0  0  0
    0.8410   -1.5132   -1.1806 H   0  0  0  0  0  0  0  0  0  0  0  0
   -0.3800   -0.2092   -2.3644 C   0  0  0  0  0  0  0  0  0  0  0  0
    0.0287   -0.7844   -3.1987 H   0  0  0  0  0  0  0  0  0  0  0  0
   -1.4067   -0.5493   -2.2186 H   0  0  0  0  0  0  0  0  0  0  0  0
   -0.4008    1.2539   -2.8082 C   0  0  0  0  0  0  0  0  0  0  0  0
    0.5923    1.9457   -2.6576 O   0  0  0  0  0  0  0  0  0  0  0  0
   -1.5374    1.7076   -3.3778 O   0  0  0  0  0  0  0  0  0  0  0  0
   -1.3753    2.6500   -3.5360 H   0  0  0  0  0  0  0  0  0  0  0  0
   -0.4240    1.1242    0.6389 C   0  0  0  0  0  0  0  0  0  0  0  0
   -1.4106    1.7375    0.2447 O   0  0  0  0  0  0  0  0  0  0  0  0
    0.4196    1.7201    1.5577 N   0  0  0  0  0  0  0  0  0  0  0  0
    1.2235    1.1870    1.8763 H   0  0  0  0  0  0  0  0  0  0  0  0
    0.2693    3.1018    1.9974 C   0  0  0  0  0  0  0  0  0  0  0  0
   -0.7082    3.2503    2.4681 H   0  0  0  0  0  0  0  0  0  0  0  0
    1.0451    3.3537    2.7268 H   0  0  0  0  0  0  0  0  0  0  0  0
    0.3582    3.7856    1.1464 H   0  0  0  0  0  0  0  0  0  0  0  0
  1  2  1  0  0  0  0
  2  3  1  0  0  0  0
  2  4  1  0  0  0  0
  2  5  1  0  0  0  0
  5  6  2  0  0  0  0
  5  7  1  0  0  0  0
  7  8  1  0  0  0  0
  7  9  1  0  0  0  0
  9 10  1  0  0  0  0
  9 11  1  0  0  0  0
  9 21  1  0  0  0  0
 11 12  1  0  0  0  0
 11 13  1  0  0  0  0
 11 14  1  0  0  0  0
 14 15  1  0  0  0  0
 14 16  1  0  0  0  0
 14 17  1  0  0  0  0
 17 18  2  0  0  0  0
 17 19  1  0  0  0  0
 19 20  1  0  0  0  0
 21 22  2  0  0  0  0
 21 23  1  0  0  0  0
 23 24  1  0  0  0  0
 23 25  1  0  0  0  0
 25 26  1  0  0  0  0
 25 27  1  0  0  0  0
 25 28  1  0  0  0  0
M  END
$$$$

  -OEChem-03222214033D

 28 27  0     1  0  0  0  0  0999 V2000
   -3.2192   -3.7811    1.3857 H   0  0  0  0  0  0  0  0  0  0  0  0
   -3.2099   -2.7951    0.9123 C   0  0  0  0  0  0  0  0  0  0  0  0
   -3.8084   -2.1088    1.5163 H   0  0  0  0  0  0  0  0  0  0  0  0
   -3.6549   -2.8774   -0.0823 H   0  0  0  0  0  0  0  0  0  0  0  0
   -1.7866   -2.2824    0.8012 C   0  0  0  0  0  0  0  0  0  0  0  0
   -0.8565   -2.9650    1.1996 O   0  0  0  0  0  0  0  0  0  0  0  0
   -1.5454   -1.0438    0.2462 N   0  0  0  0  0  0  0  0  0  0  0  0
   -2.3560   -0.4569    0.0508 H   0  0  0  0  0  0  0  0  0  0  0  0
   -0.2364   -0.3717    0.2535 C   0  0  1  0  0  0  0  0  0  0  0  0
    0.4086   -0.8248    1.0142 H   0  0  0  0  0  0  0  0  0  0  0  0
    0.4806   -0.4760   -1.1082 C   0  0  0  0  0  0  0  0  0  0  0  0
    1.3821    0.1448   -1.0998 H   0  0  0  0  0  0  0  0  0  0  0  0
    0.8258   -1.5116   -1.1970 H   0  0  0  0  0  0  0  0  0  0  0  0
   -0.4077   -0.1877   -2.3513 C   0  0  0  0  0  0  0  0  0  0  0  0
   -0.1975   -0.9466   -3.1090 H   0  0  0  0  0  0  0  0  0  0  0  0
   -1.4690   -0.2650   -2.1102 H   0  0  0  0  0  0  0  0  0  0  0  0
   -0.1786    1.1730   -3.0147 C   0  0  0  0  0  0  0  0  0  0  0  0
    0.8366    1.8101   -2.7900 O   0  0  0  0  0  0  0  0  0  0  0  0
   -1.1378    1.5968   -3.8647 O   0  0  0  0  0  0  0  0  0  0  0  0
   -0.8371    2.4690   -4.1617 H   0  0  0  0  0  0  0  0  0  0  0  0
   -0.4178    1.1096    0.6463 C   0  0  0  0  0  0  0  0  0  0  0  0
   -1.3909    1.7292    0.2290 O   0  0  0  0  0  0  0  0  0  0  0  0
    0.4268    1.7091    1.5618 N   0  0  0  0  0  0  0  0  0  0  0  0
    1.2219    1.1712    1.8943 H   0  0  0  0  0  0  0  0  0  0  0  0
    0.2878    3.0976    1.9836 C   0  0  0  0  0  0  0  0  0  0  0  0
   -0.6879    3.2601    2.4535 H   0  0  0  0  0  0  0  0  0  0  0  0
    1.0666    3.3532    2.7086 H   0  0  0  0  0  0  0  0  0  0  0  0
    0.3812    3.7693    1.1237 H   0  0  0  0  0  0  0  0  0  0  0  0
  1  2  1  0  0  0  0
  2  3  1  0  0  0  0
  2  4  1  0  0  0  0
  2  5  1  0  0  0  0
  5  6  2  0  0  0  0
  5  7  1  0  0  0  0
  7  8  1  0  0  0  0
  7  9  1  0  0  0  0
  9 10  1  0  0  0  0
  9 11  1  0  0  0  0
  9 21  1  0  0  0  0
 11 12  1  0  0  0  0
 11 13  1  0  0  0  0
 11 14  1  0  0  0  0
 14 15  1  0  0  0  0
 14 16  1  0  0  0  0
 14 17  1  0  0  0  0
 17 18  2  0  0  0  0
 17 19  1  0  0  0  0
 19 20  1  0  0  0  0
 21 22  2  0  0  0  0
 21 23  1  0  0  0  0
 23 24  1  0  0  0  0
 23 25  1  0  0  0  0
 25 26  1  0  0  0  0
 25 27  1  0  0  0  0
 25 28  1  0  0  0  0
M  END
$$$$

  -OEChem-03222214033D

 28 27  0     1  0  0  0  0  0999 V2000
   -3.2088   -3.8083    1.3268 H   0  0  0  0  0  0  0  0  0  0  0  0
   -3.2047   -2.7998    0.9037 C   0  0  0  0  0  0  0  0  0  0  0  0
   -3.7998   -2.1457    1.5454 H   0  0  0  0  0  0  0  0  0  0  0  0
   -3.6567   -2.8336   -0.0905 H   0  0  0  0  0  0  0  0  0  0  0  0
   -1.7835   -2.2786    0.8090 C   0  0  0  0  0  0  0  0  0  0  0  0
   -0.8556   -2.9488    1.2327 O   0  0  0  0  0  0  0  0  0  0  0  0
   -1.5425   -1.0440    0.2449 N   0  0  0  0  0  0  0  0  0  0  0  0
   -2.3539   -0.4683    0.0233 H   0  0  0  0  0  0  0  0  0  0  0  0
   -0.2356   -0.3672    0.2551 C   0  0  1  0  0  0  0  0  0  0  0  0
    0.4064   -0.8139    1.0215 H   0  0  0  0  0  0  0  0  0  0  0  0
    0.4822   -0.4927   -1.1040 C   0  0  0  0  0  0  0  0  0  0  0  0
    1.3601    0.1609   -1.0943 H   0  0  0  0  0  0  0  0  0  0  0  0
    0.8605   -1.5172   -1.1856 H   0  0  0  0  0  0  0  0  0  0  0  0
   -0.4134   -0.2239   -2.3470 C   0  0  0  0  0  0  0  0  0  0  0  0
   -0.4498   -1.1261   -2.9623 H   0  0  0  0  0  0  0  0  0  0  0  0
   -1.4377    0.0001   -2.0425 H   0  0  0  0  0  0  0  0  0  0  0  0
    0.0403    0.9338   -3.2391 C   0  0  0  0  0  0  0  0  0  0  0  0
    1.2123    1.2691   -3.2632 O   0  0  0  0  0  0  0  0  0  0  0  0
   -0.9067    1.5192   -4.0028 O   0  0  0  0  0  0  0  0  0  0  0  0
   -0.4427    2.2229   -4.4808 H   0  0  0  0  0  0  0  0  0  0  0  0
   -0.4118    1.1184    0.6330 C   0  0  0  0  0  0  0  0  0  0  0  0
   -1.3646    1.7473    0.1859 O   0  0  0  0  0  0  0  0  0  0  0  0
    0.4310    1.7231    1.5469 N   0  0  0  0  0  0  0  0  0  0  0  0
    1.1963    1.1707    1.9236 H   0  0  0  0  0  0  0  0  0  0  0  0
    0.2856    3.1111    1.9693 C   0  0  0  0  0  0  0  0  0  0  0  0
   -0.6760    3.2597    2.4719 H   0  0  0  0  0  0  0  0  0  0  0  0
    1.0852    3.3812    2.6658 H   0  0  0  0  0  0  0  0  0  0  0  0
    0.3394    3.7823    1.1054 H   0  0  0  0  0  0  0  0  0  0  0  0
  1  2  1  0  0  0  0
  2  3  1  0  0  0  0
  2  4  1  0  0  0  0
  2  5  1  0  0  0  0
  5  6  2  0  0  0  0
  5  7  1  0  0  0  0
  7  8  1  0  0  0  0
  7  9  1  0  0  0  0
  9 10  1  0  0  0  0
  9 11  1  0  0  0  0
  9 21  1  0  0  0  0
 11 12  1  0  0  0  0
 11 13  1  0  0  0  0
 11 14  1  0  0  0  0
 14 15  1  0  0  0  0
 14 16  1  0  0  0  0
 14 17  1  0  0  0  0
 17 18  2  0  0  0  0
 17 19  1  0  0  0  0
 19 20  1  0  0  0  0
 21 22  2  0  0  0  0
 21 23  1  0  0  0  0
 23 24  1  0  0  0  0
 23 25  1  0  0  0  0
 25 26  1  0  0  0  0
 25 27  1  0  0  0  0
 25 28  1  0  0  0  0
M  END
$$$$

  -OEChem-03222214033D

 28 27  0     1  0  0  0  0  0999 V2000
   -3.1925   -3.7996    1.3351 H   0  0  0  0  0  0  0  0  0  0  0  0
   -3.1921   -2.7980    0.8964 C   0  0  0  0  0  0  0  0  0  0  0  0
   -3.7986   -2.1389    1.5221 H   0  0  0  0  0  0  0  0  0  0  0  0
   -3.6340   -2.8509   -0.1014 H   0  0  0  0  0  0  0  0  0  0  0  0
   -1.7740   -2.2675    0.8075 C   0  0  0  0  0  0  0  0  0  0  0  0
   -0.8441   -2.9293    1.2397 O   0  0  0  0  0  0  0  0  0  0  0  0
   -1.5389   -1.0320    0.2429 N   0  0  0  0  0  0  0  0  0  0  0  0
   -2.3528   -0.4651    0.0085 H   0  0  0  0  0  0  0  0  0  0  0  0
   -0.2355   -0.3488    0.2489 C   0  0  1  0  0  0  0  0  0  0  0  0
    0.4089   -0.7915    1.0159 H   0  0  0  0  0  0  0  0  0  0  0  0
    0.4725   -0.5021   -1.1120 C   0  0  0  0  0  0  0  0  0  0  0  0
    1.3230    0.1882   -1.1230 H   0  0  0  0  0  0  0  0  0  0  0  0
    0.8844   -1.5141   -1.1855 H   0  0  0  0  0  0  0  0  0  0  0  0
   -0.4420   -0.2590   -2.3425 C   0  0  0  0  0  0  0  0  0  0  0  0
   -0.7305   -1.2183   -2.7795 H   0  0  0  0  0  0  0  0  0  0  0  0
   -1.3593    0.2467   -2.0315 H   0  0  0  0  0  0  0  0  0  0  0  0
    0.1780    0.6147   -3.4333 C   0  0  0  0  0  0  0  0  0  0  0  0
    1.3887    0.6429   -3.5731 O   0  0  0  0  0  0  0  0  0  0  0  0
   -0.6701    1.3042   -4.2256 O   0  0  0  0  0  0  0  0  0  0  0  0
   -0.0998    1.7893   -4.8411 H   0  0  0  0  0  0  0  0  0  0  0  0
   -0.4045    1.1381    0.6258 C   0  0  0  0  0  0  0  0  0  0  0  0
   -1.3578    1.7723    0.1881 O   0  0  0  0  0  0  0  0  0  0  0  0
    0.4475    1.7368    1.5352 N   0  0  0  0  0  0  0  0  0  0  0  0
    1.1973    1.1715    1.9239 H   0  0  0  0  0  0  0  0  0  0  0  0
    0.2917    3.1132    1.9905 C   0  0  0  0  0  0  0  0  0  0  0  0
   -0.6618    3.2375    2.5146 H   0  0  0  0  0  0  0  0  0  0  0  0
    1.1011    3.3789    2.6772 H   0  0  0  0  0  0  0  0  0  0  0  0
    0.3196    3.8039    1.1409 H   0  0  0  0  0  0  0  0  0  0  0  0
  1  2  1  0  0  0  0
  2  3  1  0  0  0  0
  2  4  1  0  0  0  0
  2  5  1  0  0  0  0
  5  6  2  0  0  0  0
  5  7  1  0  0  0  0
  7  8  1  0  0  0  0
  7  9  1  0  0  0  0
  9 10  1  0  0  0  0
  9 11  1  0  0  0  0
  9 21  1  0  0  0  0
 11 12  1  0  0  0  0
 11 13  1  0  0  0  0
 11 14  1  0  0  0  0
 14 15  1  0  0  0  0
 14 16  1  0  0  0  0
 14 17  1  0  0  0  0
 17 18  2  0  0  0  0
 17 19  1  0  0  0  0
 19 20  1  0  0  0  0
 21 22  2  0  0  0  0
 21 23  1  0  0  0  0
 23 24  1  0  0  0  0
 23 25  1  0  0  0  0
 25 26  1  0  0  0  0
 25 27  1  0  0  0  0
 25 28  1  0  0  0  0
M  END
$$$$

  -OEChem-03222214033D

 28 27  0     1  0  0  0  0  0999 V2000
   -3.1925   -3.7939    1.3321 H   0  0  0  0  0  0  0  0  0  0  0  0
   -3.1908   -2.8005    0.8745 C   0  0  0  0  0  0  0  0  0  0  0  0
   -3.8157   -2.1352    1.4752 H   0  0  0  0  0  0  0  0  0  0  0  0
   -3.6114   -2.8756   -0.1312 H   0  0  0  0  0  0  0  0  0  0  0  0
   -1.7751   -2.2605    0.8037 C   0  0  0  0  0  0  0  0  0  0  0  0
   -0.8450   -2.9238    1.2328 O   0  0  0  0  0  0  0  0  0  0  0  0
   -1.5409   -1.0203    0.2487 N   0  0  0  0  0  0  0  0  0  0  0  0
   -2.3548   -0.4535    0.0153 H   0  0  0  0  0  0  0  0  0  0  0  0
   -0.2373   -0.3379    0.2539 C   0  0  1  0  0  0  0  0  0  0  0  0
    0.4088   -0.7870    1.0155 H   0  0  0  0  0  0  0  0  0  0  0  0
    0.4635   -0.4967   -1.1098 C   0  0  0  0  0  0  0  0  0  0  0  0
    1.3052    0.2043   -1.1337 H   0  0  0  0  0  0  0  0  0  0  0  0
    0.8820   -1.5060   -1.1862 H   0  0  0  0  0  0  0  0  0  0  0  0
   -0.4641   -0.2547   -2.3270 C   0  0  0  0  0  0  0  0  0  0  0  0
   -0.9694   -1.1866   -2.5923 H   0  0  0  0  0  0  0  0  0  0  0  0
   -1.2342    0.4743   -2.0625 H   0  0  0  0  0  0  0  0  0  0  0  0
    0.2419    0.2960   -3.5663 C   0  0  0  0  0  0  0  0  0  0  0  0
    1.4560    0.2340   -3.6570 O   0  0  0  0  0  0  0  0  0  0  0  0
   -0.5420    0.8175   -4.5335 O   0  0  0  0  0  0  0  0  0  0  0  0
    0.0722    1.1076   -5.2249 H   0  0  0  0  0  0  0  0  0  0  0  0
   -0.3967    1.1472    0.6437 C   0  0  0  0  0  0  0  0  0  0  0  0
   -1.3514    1.7890    0.2202 O   0  0  0  0  0  0  0  0  0  0  0  0
    0.4637    1.7349    1.5525 N   0  0  0  0  0  0  0  0  0  0  0  0
    1.2171    1.1653    1.9276 H   0  0  0  0  0  0  0  0  0  0  0  0
    0.3224    3.1111    2.0134 C   0  0  0  0  0  0  0  0  0  0  0  0
   -0.6329    3.2456    2.5317 H   0  0  0  0  0  0  0  0  0  0  0  0
    1.1304    3.3632    2.7070 H   0  0  0  0  0  0  0  0  0  0  0  0
    0.3649    3.8051    1.1673 H   0  0  0  0  0  0  0  0  0  0  0  0
  1  2  1  0  0  0  0
  2  3  1  0  0  0  0
  2  4  1  0  0  0  0
  2  5  1  0  0  0  0
  5  6  2  0  0  0  0
  5  7  1  0  0  0  0
  7  8  1  0  0  0  0
  7  9  1  0  0  0  0
  9 10  1  0  0  0  0
  9 11  1  0  0  0  0
  9 21  1  0  0  0  0
 11 12  1  0  0  0  0
 11 13  1  0  0  0  0
 11 14  1  0  0  0  0
 14 15  1  0  0  0  0
 14 16  1  0  0  0  0
 14 17  1  0  0  0  0
 17 18  2  0  0  0  0
 17 19  1  0  0  0  0
 19 20  1  0  0  0  0
 21 22  2  0  0  0  0
 21 23  1  0  0  0  0
 23 24  1  0  0  0  0
 23 25  1  0  0  0  0
 25 26  1  0  0  0  0
 25 27  1  0  0  0  0
 25 28  1  0  0  0  0
M  END
$$$$

  -OEChem-03222214033D

 28 27  0     1  0  0  0  0  0999 V2000
   -3.2095   -3.7680    1.3634 H   0  0  0  0  0  0  0  0  0  0  0  0
   -3.1986   -2.7845    0.8850 C   0  0  0  0  0  0  0  0  0  0  0  0
   -3.8128   -2.0993    1.4742 H   0  0  0  0  0  0  0  0  0  0  0  0
   -3.6250   -2.8751   -0.1170 H   0  0  0  0  0  0  0  0  0  0  0  0
   -1.7779   -2.2606    0.7970 C   0  0  0  0  0  0  0  0  0  0  0  0
   -0.8492   -2.9333    1.2144 O   0  0  0  0  0  0  0  0  0  0  0  0
   -1.5402   -1.0185    0.2482 N   0  0  0  0  0  0  0  0  0  0  0  0
   -2.3525   -0.4448    0.0257 H   0  0  0  0  0  0  0  0  0  0  0  0
   -0.2337   -0.3423    0.2495 C   0  0  1  0  0  0  0  0  0  0  0  0
    0.4152   -0.7983    1.0048 H   0  0  0  0  0  0  0  0  0  0  0  0
    0.4605   -0.4889   -1.1191 C   0  0  0  0  0  0  0  0  0  0  0  0
    1.3074    0.2060   -1.1490 H   0  0  0  0  0  0  0  0  0  0  0  0
    0.8675   -1.5023   -1.2054 H   0  0  0  0  0  0  0  0  0  0  0  0
   -0.4722   -0.2305   -2.3263 C   0  0  0  0  0  0  0  0  0  0  0  0
   -1.1589   -1.0723   -2.4445 H   0  0  0  0  0  0  0  0  0  0  0  0
   -1.0707    0.6655   -2.1438 H   0  0  0  0  0  0  0  0  0  0  0  0
    0.2578   -0.0177   -3.6524 C   0  0  0  0  0  0  0  0  0  0  0  0
    1.4743   -0.0789   -3.7011 O   0  0  0  0  0  0  0  0  0  0  0  0
   -0.5101    0.2236   -4.7358 O   0  0  0  0  0  0  0  0  0  0  0  0
    0.1164    0.3290   -5.4680 H   0  0  0  0  0  0  0  0  0  0  0  0
   -0.3906    1.1403    0.6496 C   0  0  0  0  0  0  0  0  0  0  0  0
   -1.3505    1.7833    0.2394 O   0  0  0  0  0  0  0  0  0  0  0  0
    0.4744    1.7223    1.5578 N   0  0  0  0  0  0  0  0  0  0  0  0
    1.2334    1.1521    1.9207 H   0  0  0  0  0  0  0  0  0  0  0  0
    0.3315    3.0936    2.0329 C   0  0  0  0  0  0  0  0  0  0  0  0
   -0.6314    3.2261    2.5376 H   0  0  0  0  0  0  0  0  0  0  0  0
    1.1290    3.3340    2.7425 H   0  0  0  0  0  0  0  0  0  0  0  0
    0.3903    3.7975    1.1960 H   0  0  0  0  0  0  0  0  0  0  0  0
  1  2  1  0  0  0  0
  2  3  1  0  0  0  0
  2  4  1  0  0  0  0
  2  5  1  0  0  0  0
  5  6  2  0  0  0  0
  5  7  1  0  0  0  0
  7  8  1  0  0  0  0
  7  9  1  0  0  0  0
  9 10  1  0  0  0  0
  9 11  1  0  0  0  0
  9 21  1  0  0  0  0
 11 12  1  0  0  0  0
 11 13  1  0  0  0  0
 11 14  1  0  0  0  0
 14 15  1  0  0  0  0
 14 16  1  0  0  0  0
 14 17  1  0  0  0  0
 17 18  2  0  0  0  0
 17 19  1  0  0  0  0
 19 20  1  0  0  0  0
 21 22  2  0  0  0  0
 21 23  1  0  0  0  0
 23 24  1  0  0  0  0
 23 25  1  0  0  0  0
 25 26  1  0  0  0  0
 25 27  1  0  0  0  0
 25 28  1  0  0  0  0
M  END
$$$$

  -OEChem-03222214033D

 28 27  0     1  0  0  0  0  0999 V2000
   -3.1969   -3.7687    1.2990 H   0  0  0  0  0  0  0  0  0  0  0  0
   -3.1941   -2.7763    0.8394 C   0  0  0  0  0  0  0  0  0  0  0  0
   -3.8148   -2.1080    1.4411 H   0  0  0  0  0  0  0  0  0  0  0  0
   -3.6183   -2.8520   -0.1646 H   0  0  0  0  0  0  0  0  0  0  0  0
   -1.7772   -2.2403    0.7634 C   0  0  0  0  0  0  0  0  0  0  0  0
   -0.8458   -2.9134    1.1742 O   0  0  0  0  0  0  0  0  0  0  0  0
   -1.5459   -0.9874    0.2361 N   0  0  0  0  0  0  0  0  0  0  0  0
   -2.3609   -0.4158    0.0188 H   0  0  0  0  0  0  0  0  0  0  0  0
   -0.2422   -0.3073    0.2419 C   0  0  1  0  0  0  0  0  0  0  0  0
    0.4049   -0.7797    0.9884 H   0  0  0  0  0  0  0  0  0  0  0  0
    0.4438   -0.4636   -1.1284 C   0  0  0  0  0  0  0  0  0  0  0  0
    1.4252    0.0211   -1.0847 H   0  0  0  0  0  0  0  0  0  0  0  0
    0.6150   -1.5300   -1.3137 H   0  0  0  0  0  0  0  0  0  0  0  0
   -0.3629    0.1276   -2.3078 C   0  0  0  0  0  0  0  0  0  0  0  0
   -1.3377   -0.3624   -2.3666 H   0  0  0  0  0  0  0  0  0  0  0  0
   -0.5350    1.1950   -2.1498 H   0  0  0  0  0  0  0  0  0  0  0  0
    0.3268   -0.0334   -3.6619 C   0  0  0  0  0  0  0  0  0  0  0  0
    1.5187   -0.2838   -3.7119 O   0  0  0  0  0  0  0  0  0  0  0  0
   -0.4399    0.1192   -4.7622 O   0  0  0  0  0  0  0  0  0  0  0  0
    0.1652   -0.0118   -5.5082 H   0  0  0  0  0  0  0  0  0  0  0  0
   -0.3831    1.1691    0.6681 C   0  0  0  0  0  0  0  0  0  0  0  0
   -1.3446    1.8258    0.2840 O   0  0  0  0  0  0  0  0  0  0  0  0
    0.4958    1.7268    1.5779 N   0  0  0  0  0  0  0  0  0  0  0  0
    1.2453    1.1389    1.9322 H   0  0  0  0  0  0  0  0  0  0  0  0
    0.3584    3.0832    2.0951 C   0  0  0  0  0  0  0  0  0  0  0  0
   -0.5922    3.1965    2.6270 H   0  0  0  0  0  0  0  0  0  0  0  0
    1.1726    3.3073    2.7911 H   0  0  0  0  0  0  0  0  0  0  0  0
    0.3935    3.8110    1.2774 H   0  0  0  0  0  0  0  0  0  0  0  0
  1  2  1  0  0  0  0
  2  3  1  0  0  0  0
  2  4  1  0  0  0  0
  2  5  1  0  0  0  0
  5  6  2  0  0  0  0
  5  7  1  0  0  0  0
  7  8  1  0  0  0  0
  7  9  1  0  0  0  0
  9 10  1  0  0  0  0
  9 11  1  0  0  0  0
  9 21  1  0  0  0  0
 11 12  1  0  0  0  0
 11 13  1  0  0  0  0
 11 14  1  0  0  0  0
 14 15  1  0  0  0  0
 14 16  1  0  0  0  0
 14 17  1  0  0  0  0
 17 18  2  0  0  0  0
 17 19  1  0  0  0  0
 19 20  1  0  0  0  0
 21 22  2  0  0  0  0
 21 23  1  0  0  0  0
 23 24  1  0  0  0  0
 23 25  1  0  0  0  0
 25 26  1  0  0  0  0
 25 27  1  0  0  0  0
 25 28  1  0  0  0  0
M  END
$$$$

  -OEChem-03222214033D

 28 27  0     1  0  0  0  0  0999 V2000
   -3.2226   -3.7554    1.2965 H   0  0  0  0  0  0  0  0  0  0  0  0
   -3.2095   -2.7662    0.8305 C   0  0  0  0  0  0  0  0  0  0  0  0
   -3.8279   -2.0889    1.4245 H   0  0  0  0  0  0  0  0  0  0  0  0
   -3.6292   -2.8448   -0.1753 H   0  0  0  0  0  0  0  0  0  0  0  0
   -1.7881   -2.2418    0.7581 C   0  0  0  0  0  0  0  0  0  0  0  0
   -0.8628   -2.9208    1.1731 O   0  0  0  0  0  0  0  0  0  0  0  0
   -1.5461   -0.9907    0.2313 N   0  0  0  0  0  0  0  0  0  0  0  0
   -2.3564   -0.4141    0.0094 H   0  0  0  0  0  0  0  0  0  0  0  0
   -0.2373   -0.3198    0.2420 C   0  0  1  0  0  0  0  0  0  0  0  0
    0.4082   -0.7981    0.9862 H   0  0  0  0  0  0  0  0  0  0  0  0
    0.4488   -0.4582   -1.1304 C   0  0  0  0  0  0  0  0  0  0  0  0
    1.4417    0.0028   -1.0928 H   0  0  0  0  0  0  0  0  0  0  0  0
    0.5942   -1.5270   -1.3237 H   0  0  0  0  0  0  0  0  0  0  0  0
   -0.3534    0.1573   -2.3002 C   0  0  0  0  0  0  0  0  0  0  0  0
   -1.4041   -0.1316   -2.2242 H   0  0  0  0  0  0  0  0  0  0  0  0
   -0.3072    1.2484   -2.2547 H   0  0  0  0  0  0  0  0  0  0  0  0
    0.1465   -0.2961   -3.6696 C   0  0  0  0  0  0  0  0  0  0  0  0
    1.3290   -0.5498   -3.8213 O   0  0  0  0  0  0  0  0  0  0  0  0
   -0.7613   -0.3871   -4.6647 O   0  0  0  0  0  0  0  0  0  0  0  0
   -0.2547   -0.6761   -5.4390 H   0  0  0  0  0  0  0  0  0  0  0  0
   -0.3767    1.1564    0.6679 C   0  0  0  0  0  0  0  0  0  0  0  0
   -1.3243    1.8203    0.2623 O   0  0  0  0  0  0  0  0  0  0  0  0
    0.4975    1.7132    1.5825 N   0  0  0  0  0  0  0  0  0  0  0  0
    1.2411    1.1230    1.9452 H   0  0  0  0  0  0  0  0  0  0  0  0
    0.3651    3.0742    2.0885 C   0  0  0  0  0  0  0  0  0  0  0  0
   -0.5906    3.1983    2.6087 H   0  0  0  0  0  0  0  0  0  0  0  0
    1.1731    3.2971    2.7921 H   0  0  0  0  0  0  0  0  0  0  0  0
    0.4147    3.7952    1.2657 H   0  0  0  0  0  0  0  0  0  0  0  0
  1  2  1  0  0  0  0
  2  3  1  0  0  0  0
  2  4  1  0  0  0  0
  2  5  1  0  0  0  0
  5  6  2  0  0  0  0
  5  7  1  0  0  0  0
  7  8  1  0  0  0  0
  7  9  1  0  0  0  0
  9 10  1  0  0  0  0
  9 11  1  0  0  0  0
  9 21  1  0  0  0  0
 11 12  1  0  0  0  0
 11 13  1  0  0  0  0
 11 14  1  0  0  0  0
 14 15  1  0  0  0  0
 14 16  1  0  0  0  0
 14 17  1  0  0  0  0
 17 18  2  0  0  0  0
 17 19  1  0  0  0  0
 19 20  1  0  0  0  0
 21 22  2  0  0  0  0
 21 23  1  0  0  0  0
 23 24  1  0  0  0  0
 23 25  1  0  0  0  0
 25 26  1  0  0  0  0
 25 27  1  0  0  0  0
 25 28  1  0  0  0  0
M  END
$$$$

  -OEChem-03222214033D

 28 27  0     1  0  0  0  0  0999 V2000
   -3.2450   -3.7584    1.2223 H   0  0  0  0  0  0  0  0  0  0  0  0
   -3.2242   -2.7583    0.7805 C   0  0  0  0  0  0  0  0  0  0  0  0
   -3.8549   -2.0958    1.3780 H   0  0  0  0  0  0  0  0  0  0  0  0
   -3.6241   -2.8133   -0.2349 H   0  0  0  0  0  0  0  0  0  0  0  0
   -1.8027   -2.2304    0.7477 C   0  0  0  0  0  0  0  0  0  0  0  0
   -0.8872   -2.9073    1.1871 O   0  0  0  0  0  0  0  0  0  0  0  0
   -1.5488   -0.9800    0.2252 N   0  0  0  0  0  0  0  0  0  0  0  0
   -2.3533   -0.4068   -0.0241 H   0  0  0  0  0  0  0  0  0  0  0  0
   -0.2366   -0.3153    0.2441 C   0  0  1  0  0  0  0  0  0  0  0  0
    0.4053   -0.8004    0.9870 H   0  0  0  0  0  0  0  0  0  0  0  0
    0.4496   -0.4479   -1.1286 C   0  0  0  0  0  0  0  0  0  0  0  0
    1.4485   -0.0005   -1.0931 H   0  0  0  0  0  0  0  0  0  0  0  0
    0.5832   -1.5186   -1.3212 H   0  0  0  0  0  0  0  0  0  0  0  0
   -0.3468    0.1796   -2.2970 C   0  0  0  0  0  0  0  0  0  0  0  0
   -1.4198    0.1260   -2.0998 H   0  0  0  0  0  0  0  0  0  0  0  0
   -0.0896    1.2370   -2.4015 H   0  0  0  0  0  0  0  0  0  0  0  0
   -0.0937   -0.5347   -3.6204 C   0  0  0  0  0  0  0  0  0  0  0  0
    1.0560   -0.7667   -3.9504 O   0  0  0  0  0  0  0  0  0  0  0  0
   -1.1632   -0.8825   -4.3683 O   0  0  0  0  0  0  0  0  0  0  0  0
   -0.7897   -1.3164   -5.1506 H   0  0  0  0  0  0  0  0  0  0  0  0
   -0.3673    1.1612    0.6713 C   0  0  0  0  0  0  0  0  0  0  0  0
   -1.2997    1.8372    0.2509 O   0  0  0  0  0  0  0  0  0  0  0  0
    0.5070    1.7097    1.5910 N   0  0  0  0  0  0  0  0  0  0  0  0
    1.2321    1.1074    1.9710 H   0  0  0  0  0  0  0  0  0  0  0  0
    0.3853    3.0726    2.0947 C   0  0  0  0  0  0  0  0  0  0  0  0
   -0.5659    3.2030    2.6216 H   0  0  0  0  0  0  0  0  0  0  0  0
    1.1997    3.2932    2.7914 H   0  0  0  0  0  0  0  0  0  0  0  0
    0.4326    3.7918    1.2702 H   0  0  0  0  0  0  0  0  0  0  0  0
  1  2  1  0  0  0  0
  2  3  1  0  0  0  0
  2  4  1  0  0  0  0
  2  5  1  0  0  0  0
  5  6  2  0  0  0  0
  5  7  1  0  0  0  0
  7  8  1  0  0  0  0
  7  9  1  0  0  0  0
  9 10  1  0  0  0  0
  9 11  1  0  0  0  0
  9 21  1  0  0  0  0
 11 12  1  0  0  0  0
 11 13  1  0  0  0  0
 11 14  1  0  0  0  0
 14 15  1  0  0  0  0
 14 16  1  0  0  0  0
 14 17  1  0  0  0  0
 17 18  2  0  0  0  0
 17 19  1  0  0  0  0
 19 20  1  0  0  0  0
 21 22  2  0  0  0  0
 21 23  1  0  0  0  0
 23 24  1  0  0  0  0
 23 25  1  0  0  0  0
 25 26  1  0  0  0  0
 25 27  1  0  0  0  0
 25 28  1  0  0  0  0
M  END
$$$$

  -OEChem-03222214033D

 28 27  0     1  0  0  0  0  0999 V2000
   -3.2696   -3.7439    1.1386 H   0  0  0  0  0  0  0  0  0  0  0  0
   -3.2411   -2.7392    0.7075 C   0  0  0  0  0  0  0  0  0  0  0  0
   -3.8891   -2.0848    1.2957 H   0  0  0  0  0  0  0  0  0  0  0  0
   -3.6149   -2.7852   -0.3183 H   0  0  0  0  0  0  0  0  0  0  0  0
   -1.8211   -2.2066    0.7160 C   0  0  0  0  0  0  0  0  0  0  0  0
   -0.9155   -2.8824    1.1776 O   0  0  0  0  0  0  0  0  0  0  0  0
   -1.5567   -0.9543    0.2035 N   0  0  0  0  0  0  0  0  0  0  0  0
   -2.3540   -0.3891   -0.0838 H   0  0  0  0  0  0  0  0  0  0  0  0
   -0.2426   -0.2948    0.2381 C   0  0  1  0  0  0  0  0  0  0  0  0
    0.3898   -0.7873    0.9842 H   0  0  0  0  0  0  0  0  0  0  0  0
    0.4485   -0.4402   -1.1302 C   0  0  0  0  0  0  0  0  0  0  0  0
    1.4464    0.0088   -1.0906 H   0  0  0  0  0  0  0  0  0  0  0  0
    0.5885   -1.5120   -1.3142 H   0  0  0  0  0  0  0  0  0  0  0  0
   -0.3394    0.1857   -2.3053 C   0  0  0  0  0  0  0  0  0  0  0  0
   -1.3719    0.3980   -2.0182 H   0  0  0  0  0  0  0  0  0  0  0  0
    0.1149    1.1379   -2.5923 H   0  0  0  0  0  0  0  0  0  0  0  0
   -0.3780   -0.7387   -3.5151 C   0  0  0  0  0  0  0  0  0  0  0  0
    0.6553   -0.9300   -4.1306 O   0  0  0  0  0  0  0  0  0  0  0  0
   -1.5532   -1.3216   -3.8372 O   0  0  0  0  0  0  0  0  0  0  0  0
   -1.3547   -1.8644   -4.6156 H   0  0  0  0  0  0  0  0  0  0  0  0
   -0.3587    1.1816    0.6716 C   0  0  0  0  0  0  0  0  0  0  0  0
   -1.2766    1.8746    0.2473 O   0  0  0  0  0  0  0  0  0  0  0  0
    0.5174    1.7124    1.6001 N   0  0  0  0  0  0  0  0  0  0  0  0
    1.2223    1.0934    1.9908 H   0  0  0  0  0  0  0  0  0  0  0  0
    0.4070    3.0710    2.1180 C   0  0  0  0  0  0  0  0  0  0  0  0
   -0.5399    3.2018    2.6523 H   0  0  0  0  0  0  0  0  0  0  0  0
    1.2275    3.2796    2.8115 H   0  0  0  0  0  0  0  0  0  0  0  0
    0.4537    3.7986    1.3008 H   0  0  0  0  0  0  0  0  0  0  0  0
  1  2  1  0  0  0  0
  2  3  1  0  0  0  0
  2  4  1  0  0  0  0
  2  5  1  0  0  0  0
  5  6  2  0  0  0  0
  5  7  1  0  0  0  0
  7  8  1  0  0  0  0
  7  9  1  0  0  0  0
  9 10  1  0  0  0  0
  9 11  1  0  0  0  0
  9 21  1  0  0  0  0
 11 12  1  0  0  0  0
 11 13  1  0  0  0  0
 11 14  1  0  0  0  0
 14 15  1  0  0  0  0
 14 16  1  0  0  0  0
 14 17  1  0  0  0  0
 17 18  2  0  0  0  0
 17 19  1  0  0  0  0
 19 20  1  0  0  0  0
 21 22  2  0  0  0  0
 21 23  1  0  0  0  0
 23 24  1  0  0  0  0
 23 25  1  0  0  0  0
 25 26  1  0  0  0  0
 25 27  1  0  0  0  0
 25 28  1  0  0  0  0
M  END
$$$$

  -OEChem-03222214033D

 28 27  0     1  0  0  0  0  0999 V2000
   -3.2876   -3.7497    0.9769 H   0  0  0  0  0  0  0  0  0  0  0  0
   -3.2529   -2.7326    0.5768 C   0  0  0  0  0  0  0  0  0  0  0  0
   -3.9541   -2.1087    1.1361 H   0  0  0  0  0  0  0  0  0  0  0  0
   -3.5546   -2.7567   -0.4734 H   0  0  0  0  0  0  0  0  0  0  0  0
   -1.8494   -2.1707    0.6970 C   0  0  0  0  0  0  0  0  0  0  0  0
   -0.9663   -2.8309    1.2217 O   0  0  0  0  0  0  0  0  0  0  0  0
   -1.5709   -0.9172    0.1960 N   0  0  0  0  0  0  0  0  0  0  0  0
   -2.3475   -0.3860   -0.1932 H   0  0  0  0  0  0  0  0  0  0  0  0
   -0.2564   -0.2608    0.2447 C   0  0  1  0  0  0  0  0  0  0  0  0
    0.3647   -0.7586    0.9965 H   0  0  0  0  0  0  0  0  0  0  0  0
    0.4351   -0.4395   -1.1195 C   0  0  0  0  0  0  0  0  0  0  0  0
    1.4266    0.0236   -1.0775 H   0  0  0  0  0  0  0  0  0  0  0  0
    0.5934   -1.5113   -1.2864 H   0  0  0  0  0  0  0  0  0  0  0  0
   -0.3471    0.1681   -2.3084 C   0  0  0  0  0  0  0  0  0  0  0  0
   -1.2711    0.6493   -1.9806 H   0  0  0  0  0  0  0  0  0  0  0  0
    0.2613    0.9373   -2.7920 H   0  0  0  0  0  0  0  0  0  0  0  0
   -0.7079   -0.8950   -3.3374 C   0  0  0  0  0  0  0  0  0  0  0  0
    0.0379   -1.0649   -4.2845 O   0  0  0  0  0  0  0  0  0  0  0  0
   -1.8352   -1.6147   -3.1402 O   0  0  0  0  0  0  0  0  0  0  0  0
   -1.8669   -2.2315   -3.8878 H   0  0  0  0  0  0  0  0  0  0  0  0
   -0.3506    1.2168    0.6834 C   0  0  0  0  0  0  0  0  0  0  0  0
   -1.2482    1.9328    0.2548 O   0  0  0  0  0  0  0  0  0  0  0  0
    0.5315    1.7277    1.6177 N   0  0  0  0  0  0  0  0  0  0  0  0
    1.2130    1.0899    2.0196 H   0  0  0  0  0  0  0  0  0  0  0  0
    0.4468    3.0873    2.1382 C   0  0  0  0  0  0  0  0  0  0  0  0
   -0.4904    3.2304    2.6862 H   0  0  0  0  0  0  0  0  0  0  0  0
    1.2804    3.2844    2.8192 H   0  0  0  0  0  0  0  0  0  0  0  0
    0.4911    3.8149    1.3207 H   0  0  0  0  0  0  0  0  0  0  0  0
  1  2  1  0  0  0  0
  2  3  1  0  0  0  0
  2  4  1  0  0  0  0
  2  5  1  0  0  0  0
  5  6  2  0  0  0  0
  5  7  1  0  0  0  0
  7  8  1  0  0  0  0
  7  9  1  0  0  0  0
  9 10  1  0  0  0  0
  9 11  1  0  0  0  0
  9 21  1  0  0  0  0
 11 12  1  0  0  0  0
 11 13  1  0  0  0  0
 11 14  1  0  0  0  0
 14 15  1  0  0  0  0
 14 16  1  0  0  0  0
 14 17  1  0  0  0  0
 17 18  2  0  0  0  0
 17 19  1  0  0  0  0
 19 20  1  0  0  0  0
 21 22  2  0  0  0  0
 21 23  1  0  0  0  0
 23 24  1  0  0  0  0
 23 25  1  0  0  0  0
 25 26  1  0  0  0  0
 25 27  1  0  0  0  0
 25 28  1  0  0  0  0
M  END
$$$$

  -OEChem-03222214033D

 28 27  0     1  0  0  0  0  0999 V2000
   -3.0448   -3.8941    1.1171 H   0  0  0  0  0  0  0  0  0  0  0  0
   -3.0854   -2.8870    0.6933 C   0  0  0  0  0  0  0  0  0  0  0  0
   -3.8387   -2.3070    1.2316 H   0  0  0  0  0  0  0  0  0  0  0  0
   -3.3744   -2.9581   -0.3585 H   0  0  0  0  0  0  0  0  0  0  0  0
   -1.7317   -2.2132    0.8108 C   0  0  0  0  0  0  0  0  0  0  0  0
   -0.7927   -2.8050    1.3211 O   0  0  0  0  0  0  0  0  0  0  0  0
   -1.5605   -0.9371    0.3190 N   0  0  0  0  0  0  0  0  0  0  0  0
   -2.3568   -0.5219   -0.1633 H   0  0  0  0  0  0  0  0  0  0  0  0
   -0.2766   -0.2253    0.2502 C   0  0  1  0  0  0  0  0  0  0  0  0
    0.4382   -0.7138    0.9204 H   0  0  0  0  0  0  0  0  0  0  0  0
    0.2685   -0.3675   -1.1847 C   0  0  0  0  0  0  0  0  0  0  0  0
    1.2300    0.1540   -1.2342 H   0  0  0  0  0  0  0  0  0  0  0  0
    0.4699   -1.4252   -1.3894 H   0  0  0  0  0  0  0  0  0  0  0  0
   -0.6593    0.2155   -2.2775 C   0  0  0  0  0  0  0  0  0  0  0  0
   -1.3981    0.9063   -1.8663 H   0  0  0  0  0  0  0  0  0  0  0  0
   -0.0567    0.7805   -2.9936 H   0  0  0  0  0  0  0  0  0  0  0  0
   -1.3804   -0.8865   -3.0440 C   0  0  0  0  0  0  0  0  0  0  0  0
   -2.4499   -1.2844   -2.6136 O   0  0  0  0  0  0  0  0  0  0  0  0
   -0.7924   -1.3861   -4.1521 O   0  0  0  0  0  0  0  0  0  0  0  0
   -1.4009   -2.0678   -4.4761 H   0  0  0  0  0  0  0  0  0  0  0  0
   -0.3654    1.2397    0.7351 C   0  0  0  0  0  0  0  0  0  0  0  0
   -1.3070    1.9531    0.4106 O   0  0  0  0  0  0  0  0  0  0  0  0
    0.6006    1.7511    1.5830 N   0  0  0  0  0  0  0  0  0  0  0  0
    1.3103    1.1089    1.9242 H   0  0  0  0  0  0  0  0  0  0  0  0
    0.5221    3.0848    2.1679 C   0  0  0  0  0  0  0  0  0  0  0  0
   -0.3652    3.1721    2.8038 H   0  0  0  0  0  0  0  0  0  0  0  0
    1.4077    3.2829    2.7794 H   0  0  0  0  0  0  0  0  0  0  0  0
    0.4687    3.8465    1.3829 H   0  0  0  0  0  0  0  0  0  0  0  0
  1  2  1  0  0  0  0
  2  3  1  0  0  0  0
  2  4  1  0  0  0  0
  2  5  1  0  0  0  0
  5  6  2  0  0  0  0
  5  7  1  0  0  0  0
  7  8  1  0  0  0  0
  7  9  1  0  0  0  0
  9 10  1  0  0  0  0
  9 11  1  0  0  0  0
  9 21  1  0  0  0  0
 11 12  1  0  0  0  0
 11 13  1  0  0  0  0
 11 14  1  0  0  0  0
 14 15  1  0  0  0  0
 14 16  1  0  0  0  0
 14 17  1  0  0  0  0
 17 18  2  0  0  0  0
 17 19  1  0  0  0  0
 19 20  1  0  0  0  0
 21 22  2  0  0  0  0
 21 23  1  0  0  0  0
 23 24  1  0  0  0  0
 23 25  1  0  0  0  0
 25 26  1  0  0  0  0
 25 27  1  0  0  0  0
 25 28  1  0  0  0  0
M  END
$$$$

  -OEChem-03222214033D

 28 27  0     1  0  0  0  0  0999 V2000
   -3.1233   -3.8514    1.3160 H   0  0  0  0  0  0  0  0  0  0  0  0
   -3.1302   -2.8849    0.8050 C   0  0  0  0  0  0  0  0  0  0  0  0
   -3.9011   -2.2536    1.2530 H   0  0  0  0  0  0  0  0  0  0  0  0
   -3.3673   -3.0461   -0.2497 H   0  0  0  0  0  0  0  0  0  0  0  0
   -1.7746   -2.2163    0.9312 C   0  0  0  0  0  0  0  0  0  0  0  0
   -0.8699   -2.7755    1.5332 O   0  0  0  0  0  0  0  0  0  0  0  0
   -1.5747   -0.9681    0.3798 N   0  0  0  0  0  0  0  0  0  0  0  0
   -2.3473   -0.5707   -0.1489 H   0  0  0  0  0  0  0  0  0  0  0  0
   -0.2777   -0.2850    0.3116 C   0  0  1  0  0  0  0  0  0  0  0  0
    0.4071   -0.7471    1.0300 H   0  0  0  0  0  0  0  0  0  0  0  0
    0.3485   -0.4635   -1.0916 C   0  0  0  0  0  0  0  0  0  0  0  0
    1.3165    0.0483   -1.0844 H   0  0  0  0  0  0  0  0  0  0  0  0
    0.5545   -1.5271   -1.2553 H   0  0  0  0  0  0  0  0  0  0  0  0
   -0.4740    0.0894   -2.2872 C   0  0  0  0  0  0  0  0  0  0  0  0
   -1.0130    0.9946   -2.0023 H   0  0  0  0  0  0  0  0  0  0  0  0
    0.2342    0.3778   -3.0685 H   0  0  0  0  0  0  0  0  0  0  0  0
   -1.4682   -0.8721   -2.9446 C   0  0  0  0  0  0  0  0  0  0  0  0
   -1.8254   -1.8895   -2.3776 O   0  0  0  0  0  0  0  0  0  0  0  0
   -1.9144   -0.5229   -4.1695 O   0  0  0  0  0  0  0  0  0  0  0  0
   -2.5195   -1.2339   -4.4303 H   0  0  0  0  0  0  0  0  0  0  0  0
   -0.3845    1.1990    0.7271 C   0  0  0  0  0  0  0  0  0  0  0  0
   -1.3136    1.8937    0.3316 O   0  0  0  0  0  0  0  0  0  0  0  0
    0.5508    1.7527    1.5823 N   0  0  0  0  0  0  0  0  0  0  0  0
    1.2465    1.1288    1.9813 H   0  0  0  0  0  0  0  0  0  0  0  0
    0.4600    3.1182    2.0857 C   0  0  0  0  0  0  0  0  0  0  0  0
   -0.4391    3.2412    2.6989 H   0  0  0  0  0  0  0  0  0  0  0  0
    1.3344    3.3546    2.6997 H   0  0  0  0  0  0  0  0  0  0  0  0
    0.4202    3.8316    1.2556 H   0  0  0  0  0  0  0  0  0  0  0  0
  1  2  1  0  0  0  0
  2  3  1  0  0  0  0
  2  4  1  0  0  0  0
  2  5  1  0  0  0  0
  5  6  2  0  0  0  0
  5  7  1  0  0  0  0
  7  8  1  0  0  0  0
  7  9  1  0  0  0  0
  9 10  1  0  0  0  0
  9 11  1  0  0  0  0
  9 21  1  0  0  0  0
 11 12  1  0  0  0  0
 11 13  1  0  0  0  0
 11 14  1  0  0  0  0
 14 15  1  0  0  0  0
 14 16  1  0  0  0  0
 14 17  1  0  0  0  0
 17 18  2  0  0  0  0
 17 19  1  0  0  0  0
 19 20  1  0  0  0  0
 21 22  2  0  0  0  0
 21 23  1  0  0  0  0
 23 24  1  0  0  0  0
 23 25  1  0  0  0  0
 25 26  1  0  0  0  0
 25 27  1  0  0  0  0
 25 28  1  0  0  0  0
M  END
$$$$

  -OEChem-03222214033D

 28 27  0     1  0  0  0  0  0999 V2000
   -3.1935   -3.7955    1.3040 H   0  0  0  0  0  0  0  0  0  0  0  0
   -3.1773   -2.8307    0.7896 C   0  0  0  0  0  0  0  0  0  0  0  0
   -3.9106   -2.1689    1.2561 H   0  0  0  0  0  0  0  0  0  0  0  0
   -3.4483   -2.9855   -0.2578 H   0  0  0  0  0  0  0  0  0  0  0  0
   -1.7938   -2.2158    0.8753 C   0  0  0  0  0  0  0  0  0  0  0  0
   -0.8915   -2.8126    1.4424 O   0  0  0  0  0  0  0  0  0  0  0  0
   -1.5627   -0.9755    0.3184 N   0  0  0  0  0  0  0  0  0  0  0  0
   -2.3605   -0.4817   -0.0759 H   0  0  0  0  0  0  0  0  0  0  0  0
   -0.2611   -0.2974    0.2907 C   0  0  1  0  0  0  0  0  0  0  0  0
    0.3913   -0.7521    1.0433 H   0  0  0  0  0  0  0  0  0  0  0  0
    0.4207   -0.4972   -1.0816 C   0  0  0  0  0  0  0  0  0  0  0  0
    1.3927    0.0055   -1.0500 H   0  0  0  0  0  0  0  0  0  0  0  0
    0.6202   -1.5654   -1.2223 H   0  0  0  0  0  0  0  0  0  0  0  0
   -0.3594    0.0432   -2.3073 C   0  0  0  0  0  0  0  0  0  0  0  0
   -0.6947    1.0656   -2.1169 H   0  0  0  0  0  0  0  0  0  0  0  0
    0.3230    0.0855   -3.1597 H   0  0  0  0  0  0  0  0  0  0  0  0
   -1.5641   -0.7906   -2.7474 C   0  0  0  0  0  0  0  0  0  0  0  0
   -1.5483   -2.0018   -2.6129 O   0  0  0  0  0  0  0  0  0  0  0  0
   -2.6043   -0.1273   -3.2948 O   0  0  0  0  0  0  0  0  0  0  0  0
   -3.2435   -0.8137   -3.5377 H   0  0  0  0  0  0  0  0  0  0  0  0
   -0.3853    1.1901    0.6837 C   0  0  0  0  0  0  0  0  0  0  0  0
   -1.3183    1.8639    0.2627 O   0  0  0  0  0  0  0  0  0  0  0  0
    0.5134    1.7591    1.5673 N   0  0  0  0  0  0  0  0  0  0  0  0
    1.2150    1.1504    1.9792 H   0  0  0  0  0  0  0  0  0  0  0  0
    0.3929    3.1268    2.0589 C   0  0  0  0  0  0  0  0  0  0  0  0
   -0.5288    3.2460    2.6381 H   0  0  0  0  0  0  0  0  0  0  0  0
    1.2419    3.3731    2.7037 H   0  0  0  0  0  0  0  0  0  0  0  0
    0.3782    3.8354    1.2241 H   0  0  0  0  0  0  0  0  0  0  0  0
  1  2  1  0  0  0  0
  2  3  1  0  0  0  0
  2  4  1  0  0  0  0
  2  5  1  0  0  0  0
  5  6  2  0  0  0  0
  5  7  1  0  0  0  0
  7  8  1  0  0  0  0
  7  9  1  0  0  0  0
  9 10  1  0  0  0  0
  9 11  1  0  0  0  0
  9 21  1  0  0  0  0
 11 12  1  0  0  0  0
 11 13  1  0  0  0  0
 11 14  1  0  0  0  0
 14 15  1  0  0  0  0
 14 16  1  0  0  0  0
 14 17  1  0  0  0  0
 17 18  2  0  0  0  0
 17 19  1  0  0  0  0
 19 20  1  0  0  0  0
 21 22  2  0  0  0  0
 21 23  1  0  0  0  0
 23 24  1  0  0  0  0
 23 25  1  0  0  0  0
 25 26  1  0  0  0  0
 25 27  1  0  0  0  0
 25 28  1  0  0  0  0
M  END
$$$$

  -OEChem-03222214033D

 28 27  0     1  0  0  0  0  0999 V2000
   -3.1806   -3.8233    1.3566 H   0  0  0  0  0  0  0  0  0  0  0  0
   -3.1750   -2.8560    0.8467 C   0  0  0  0  0  0  0  0  0  0  0  0
   -3.9065   -2.2000    1.3244 H   0  0  0  0  0  0  0  0  0  0  0  0
   -3.4572   -3.0076   -0.1982 H   0  0  0  0  0  0  0  0  0  0  0  0
   -1.7940   -2.2339    0.9191 C   0  0  0  0  0  0  0  0  0  0  0  0
   -0.8840   -2.8233    1.4819 O   0  0  0  0  0  0  0  0  0  0  0  0
   -1.5724   -0.9972    0.3516 N   0  0  0  0  0  0  0  0  0  0  0  0
   -2.3723   -0.5193   -0.0579 H   0  0  0  0  0  0  0  0  0  0  0  0
   -0.2737   -0.3156    0.3032 C   0  0  1  0  0  0  0  0  0  0  0  0
    0.3886   -0.7641    1.0507 H   0  0  0  0  0  0  0  0  0  0  0  0
    0.4085   -0.4902   -1.0746 C   0  0  0  0  0  0  0  0  0  0  0  0
    1.3886   -0.0039   -1.0365 H   0  0  0  0  0  0  0  0  0  0  0  0
    0.5867   -1.5610   -1.2248 H   0  0  0  0  0  0  0  0  0  0  0  0
   -0.3496    0.0494   -2.3149 C   0  0  0  0  0  0  0  0  0  0  0  0
   -0.4734    1.1310   -2.2110 H   0  0  0  0  0  0  0  0  0  0  0  0
    0.2647   -0.1205   -3.2025 H   0  0  0  0  0  0  0  0  0  0  0  0
   -1.7256   -0.5546   -2.5917 C   0  0  0  0  0  0  0  0  0  0  0  0
   -1.8632   -1.7651   -2.5520 O   0  0  0  0  0  0  0  0  0  0  0  0
   -2.7320    0.2899   -2.9011 O   0  0  0  0  0  0  0  0  0  0  0  0
   -3.4976   -0.2758   -3.0801 H   0  0  0  0  0  0  0  0  0  0  0  0
   -0.4053    1.1724    0.6885 C   0  0  0  0  0  0  0  0  0  0  0  0
   -1.3302    1.8433    0.2467 O   0  0  0  0  0  0  0  0  0  0  0  0
    0.4980    1.7544    1.5589 N   0  0  0  0  0  0  0  0  0  0  0  0
    1.2011    1.1520    1.9777 H   0  0  0  0  0  0  0  0  0  0  0  0
    0.3886    3.1338    2.0190 C   0  0  0  0  0  0  0  0  0  0  0  0
   -0.5477    3.2821    2.5671 H   0  0  0  0  0  0  0  0  0  0  0  0
    1.2220    3.3777    2.6849 H   0  0  0  0  0  0  0  0  0  0  0  0
    0.4131    3.8248    1.1698 H   0  0  0  0  0  0  0  0  0  0  0  0
  1  2  1  0  0  0  0
  2  3  1  0  0  0  0
  2  4  1  0  0  0  0
  2  5  1  0  0  0  0
  5  6  2  0  0  0  0
  5  7  1  0  0  0  0
  7  8  1  0  0  0  0
  7  9  1  0  0  0  0
  9 10  1  0  0  0  0
  9 11  1  0  0  0  0
  9 21  1  0  0  0  0
 11 12  1  0  0  0  0
 11 13  1  0  0  0  0
 11 14  1  0  0  0  0
 14 15  1  0  0  0  0
 14 16  1  0  0  0  0
 14 17  1  0  0  0  0
 17 18  2  0  0  0  0
 17 19  1  0  0  0  0
 19 20  1  0  0  0  0
 21 22  2  0  0  0  0
 21 23  1  0  0  0  0
 23 24  1  0  0  0  0
 23 25  1  0  0  0  0
 25 26  1  0  0  0  0
 25 27  1  0  0  0  0
 25 28  1  0  0  0  0
M  END
$$$$

  -OEChem-03222214033D

 28 27  0     1  0  0  0  0  0999 V2000
   -3.0975   -3.9090    1.4070 H   0  0  0  0  0  0  0  0  0  0  0  0
   -3.1179   -2.9419    0.8972 C   0  0  0  0  0  0  0  0  0  0  0  0
   -3.9043   -2.3253    1.3390 H   0  0  0  0  0  0  0  0  0  0  0  0
   -3.3434   -3.1052   -0.1597 H   0  0  0  0  0  0  0  0  0  0  0  0
   -1.7765   -2.2478    1.0356 C   0  0  0  0  0  0  0  0  0  0  0  0
   -0.8743   -2.7780    1.6665 O   0  0  0  0  0  0  0  0  0  0  0  0
   -1.5817   -1.0178    0.4442 N   0  0  0  0  0  0  0  0  0  0  0  0
   -2.3365   -0.6809   -0.1501 H   0  0  0  0  0  0  0  0  0  0  0  0
   -0.2847   -0.3375    0.3505 C   0  0  1  0  0  0  0  0  0  0  0  0
    0.4088   -0.7814    1.0719 H   0  0  0  0  0  0  0  0  0  0  0  0
    0.3487   -0.4824   -1.0565 C   0  0  0  0  0  0  0  0  0  0  0  0
    1.3414   -0.0211   -1.0362 H   0  0  0  0  0  0  0  0  0  0  0  0
    0.4986   -1.5548   -1.2224 H   0  0  0  0  0  0  0  0  0  0  0  0
   -0.4116    0.0708   -2.2964 C   0  0  0  0  0  0  0  0  0  0  0  0
   -0.2965    1.1587   -2.2899 H   0  0  0  0  0  0  0  0  0  0  0  0
    0.0824   -0.2974   -3.1989 H   0  0  0  0  0  0  0  0  0  0  0  0
   -1.9076   -0.2021   -2.4537 C   0  0  0  0  0  0  0  0  0  0  0  0
   -2.3428   -1.3228   -2.2502 O   0  0  0  0  0  0  0  0  0  0  0  0
   -2.6805    0.8207   -2.8765 O   0  0  0  0  0  0  0  0  0  0  0  0
   -3.5799    0.4661   -2.9305 H   0  0  0  0  0  0  0  0  0  0  0  0
   -0.4131    1.1543    0.7232 C   0  0  0  0  0  0  0  0  0  0  0  0
   -1.3190    1.8331    0.2544 O   0  0  0  0  0  0  0  0  0  0  0  0
    0.5111    1.7489    1.5628 N   0  0  0  0  0  0  0  0  0  0  0  0
    1.1999    1.1456    2.0033 H   0  0  0  0  0  0  0  0  0  0  0  0
    0.4204    3.1408    1.9872 C   0  0  0  0  0  0  0  0  0  0  0  0
   -0.5139    3.3155    2.5310 H   0  0  0  0  0  0  0  0  0  0  0  0
    1.2569    3.3910    2.6468 H   0  0  0  0  0  0  0  0  0  0  0  0
    0.4534    3.8091    1.1202 H   0  0  0  0  0  0  0  0  0  0  0  0
  1  2  1  0  0  0  0
  2  3  1  0  0  0  0
  2  4  1  0  0  0  0
  2  5  1  0  0  0  0
  5  6  2  0  0  0  0
  5  7  1  0  0  0  0
  7  8  1  0  0  0  0
  7  9  1  0  0  0  0
  9 10  1  0  0  0  0
  9 11  1  0  0  0  0
  9 21  1  0  0  0  0
 11 12  1  0  0  0  0
 11 13  1  0  0  0  0
 11 14  1  0  0  0  0
 14 15  1  0  0  0  0
 14 16  1  0  0  0  0
 14 17  1  0  0  0  0
 17 18  2  0  0  0  0
 17 19  1  0  0  0  0
 19 20  1  0  0  0  0
 21 22  2  0  0  0  0
 21 23  1  0  0  0  0
 23 24  1  0  0  0  0
 23 25  1  0  0  0  0
 25 26  1  0  0  0  0
 25 27  1  0  0  0  0
 25 28  1  0  0  0  0
M  END
$$$$

  -OEChem-03222214033D

 28 27  0     1  0  0  0  0  0999 V2000
   -3.0206   -3.9716    1.3501 H   0  0  0  0  0  0  0  0  0  0  0  0
   -3.0758   -2.9748    0.9043 C   0  0  0  0  0  0  0  0  0  0  0  0
   -3.8479   -2.3984    1.4194 H   0  0  0  0  0  0  0  0  0  0  0  0
   -3.3481   -3.0738   -0.1497 H   0  0  0  0  0  0  0  0  0  0  0  0
   -1.7383   -2.2704    1.0269 C   0  0  0  0  0  0  0  0  0  0  0  0
   -0.8137   -2.8064    1.6191 O   0  0  0  0  0  0  0  0  0  0  0  0
   -1.5720   -1.0267    0.4576 N   0  0  0  0  0  0  0  0  0  0  0  0
   -2.3392   -0.7011   -0.1310 H   0  0  0  0  0  0  0  0  0  0  0  0
   -0.2859   -0.3297    0.3415 C   0  0  1  0  0  0  0  0  0  0  0  0
    0.4313   -0.7820    1.0342 H   0  0  0  0  0  0  0  0  0  0  0  0
    0.3062   -0.4489   -1.0849 C   0  0  0  0  0  0  0  0  0  0  0  0
    1.3011    0.0082   -1.0837 H   0  0  0  0  0  0  0  0  0  0  0  0
    0.4513   -1.5204   -1.2614 H   0  0  0  0  0  0  0  0  0  0  0  0
   -0.4738    0.1046   -2.3161 C   0  0  0  0  0  0  0  0  0  0  0  0
   -0.1548    1.1427   -2.4480 H   0  0  0  0  0  0  0  0  0  0  0  0
   -0.1528   -0.4418   -3.2063 H   0  0  0  0  0  0  0  0  0  0  0  0
   -2.0034    0.1387   -2.3250 C   0  0  0  0  0  0  0  0  0  0  0  0
   -2.6322   -0.8813   -2.0948 O   0  0  0  0  0  0  0  0  0  0  0  0
   -2.5918    1.3039   -2.6705 O   0  0  0  0  0  0  0  0  0  0  0  0
   -3.5449    1.1480   -2.6015 H   0  0  0  0  0  0  0  0  0  0  0  0
   -0.4098    1.1539    0.7482 C   0  0  0  0  0  0  0  0  0  0  0  0
   -1.3385    1.8364    0.3334 O   0  0  0  0  0  0  0  0  0  0  0  0
    0.5380    1.7343    1.5714 N   0  0  0  0  0  0  0  0  0  0  0  0
    1.2412    1.1237    1.9776 H   0  0  0  0  0  0  0  0  0  0  0  0
    0.4445    3.1106    2.0438 C   0  0  0  0  0  0  0  0  0  0  0  0
   -0.4602    3.2482    2.6453 H   0  0  0  0  0  0  0  0  0  0  0  0
    1.3128    3.3588    2.6618 H   0  0  0  0  0  0  0  0  0  0  0  0
    0.4140    3.8056    1.1980 H   0  0  0  0  0  0  0  0  0  0  0  0
  1  2  1  0  0  0  0
  2  3  1  0  0  0  0
  2  4  1  0  0  0  0
  2  5  1  0  0  0  0
  5  6  2  0  0  0  0
  5  7  1  0  0  0  0
  7  8  1  0  0  0  0
  7  9  1  0  0  0  0
  9 10  1  0  0  0  0
  9 11  1  0  0  0  0
  9 21  1  0  0  0  0
 11 12  1  0  0  0  0
 11 13  1  0  0  0  0
 11 14  1  0  0  0  0
 14 15  1  0  0  0  0
 14 16  1  0  0  0  0
 14 17  1  0  0  0  0
 17 18  2  0  0  0  0
 17 19  1  0  0  0  0
 19 20  1  0  0  0  0
 21 22  2  0  0  0  0
 21 23  1  0  0  0  0
 23 24  1  0  0  0  0
 23 25  1  0  0  0  0
 25 26  1  0  0  0  0
 25 27  1  0  0  0  0
 25 28  1  0  0  0  0
M  END
$$$$

  -OEChem-03222214033D

 28 27  0     1  0  0  0  0  0999 V2000
   -3.1679   -3.8486    1.1659 H   0  0  0  0  0  0  0  0  0  0  0  0
   -3.1775   -2.8347    0.7565 C   0  0  0  0  0  0  0  0  0  0  0  0
   -3.8940   -2.2331    1.3209 H   0  0  0  0  0  0  0  0  0  0  0  0
   -3.4926   -2.8787   -0.2890 H   0  0  0  0  0  0  0  0  0  0  0  0
   -1.7955   -2.2176    0.8530 C   0  0  0  0  0  0  0  0  0  0  0  0
   -0.8703   -2.8549    1.3321 O   0  0  0  0  0  0  0  0  0  0  0  0
   -1.5858   -0.9421    0.3761 N   0  0  0  0  0  0  0  0  0  0  0  0
   -2.3707   -0.4896   -0.0917 H   0  0  0  0  0  0  0  0  0  0  0  0
   -0.2846   -0.2707    0.3110 C   0  0  1  0  0  0  0  0  0  0  0  0
    0.4102   -0.7852    0.9827 H   0  0  0  0  0  0  0  0  0  0  0  0
    0.3117   -0.3526   -1.1124 C   0  0  0  0  0  0  0  0  0  0  0  0
    1.3163    0.0822   -1.0809 H   0  0  0  0  0  0  0  0  0  0  0  0
    0.4409   -1.4202   -1.3214 H   0  0  0  0  0  0  0  0  0  0  0  0
   -0.4276    0.2567   -2.3433 C   0  0  0  0  0  0  0  0  0  0  0  0
    0.1231    1.1600   -2.6238 H   0  0  0  0  0  0  0  0  0  0  0  0
   -0.3280   -0.4451   -3.1753 H   0  0  0  0  0  0  0  0  0  0  0  0
   -1.9061    0.6595   -2.2828 C   0  0  0  0  0  0  0  0  0  0  0  0
   -2.1836    1.7839   -2.6566 O   0  0  0  0  0  0  0  0  0  0  0  0
   -2.8523   -0.2607   -1.9869 O   0  0  0  0  0  0  0  0  0  0  0  0
   -3.6856    0.2201   -2.1226 H   0  0  0  0  0  0  0  0  0  0  0  0
   -0.3629    1.1843    0.8197 C   0  0  0  0  0  0  0  0  0  0  0  0
   -1.3155    1.8928    0.5232 O   0  0  0  0  0  0  0  0  0  0  0  0
    0.6011    1.6792    1.6791 N   0  0  0  0  0  0  0  0  0  0  0  0
    1.3232    1.0385    1.9955 H   0  0  0  0  0  0  0  0  0  0  0  0
    0.5343    3.0119    2.2675 C   0  0  0  0  0  0  0  0  0  0  0  0
   -0.3622    3.1124    2.8883 H   0  0  0  0  0  0  0  0  0  0  0  0
    1.4122    3.1935    2.8949 H   0  0  0  0  0  0  0  0  0  0  0  0
    0.5071    3.7762    1.4834 H   0  0  0  0  0  0  0  0  0  0  0  0
  1  2  1  0  0  0  0
  2  3  1  0  0  0  0
  2  4  1  0  0  0  0
  2  5  1  0  0  0  0
  5  6  2  0  0  0  0
  5  7  1  0  0  0  0
  7  8  1  0  0  0  0
  7  9  1  0  0  0  0
  9 10  1  0  0  0  0
  9 11  1  0  0  0  0
  9 21  1  0  0  0  0
 11 12  1  0  0  0  0
 11 13  1  0  0  0  0
 11 14  1  0  0  0  0
 14 15  1  0  0  0  0
 14 16  1  0  0  0  0
 14 17  1  0  0  0  0
 17 18  2  0  0  0  0
 17 19  1  0  0  0  0
 19 20  1  0  0  0  0
 21 22  2  0  0  0  0
 21 23  1  0  0  0  0
 23 24  1  0  0  0  0
 23 25  1  0  0  0  0
 25 26  1  0  0  0  0
 25 27  1  0  0  0  0
 25 28  1  0  0  0  0
M  END
$$$$

  -OEChem-03222214033D

 28 27  0     1  0  0  0  0  0999 V2000
   -3.0334   -3.9056    1.3543 H   0  0  0  0  0  0  0  0  0  0  0  0
   -3.0936   -2.9049    0.9180 C   0  0  0  0  0  0  0  0  0  0  0  0
   -3.8205   -2.3158    1.4824 H   0  0  0  0  0  0  0  0  0  0  0  0
   -3.4312   -2.9902   -0.1179 H   0  0  0  0  0  0  0  0  0  0  0  0
   -1.7363   -2.2303    0.9638 C   0  0  0  0  0  0  0  0  0  0  0  0
   -0.7790   -2.8056    1.4590 O   0  0  0  0  0  0  0  0  0  0  0  0
   -1.5852   -0.9710    0.4270 N   0  0  0  0  0  0  0  0  0  0  0  0
   -2.3947   -0.5777   -0.0595 H   0  0  0  0  0  0  0  0  0  0  0  0
   -0.3160   -0.2421    0.3139 C   0  0  1  0  0  0  0  0  0  0  0  0
    0.3914   -0.6878    1.0204 H   0  0  0  0  0  0  0  0  0  0  0  0
    0.2928   -0.4406   -1.0953 C   0  0  0  0  0  0  0  0  0  0  0  0
    1.2622    0.0684   -1.1061 H   0  0  0  0  0  0  0  0  0  0  0  0
    0.5013   -1.5108   -1.2025 H   0  0  0  0  0  0  0  0  0  0  0  0
   -0.4854    0.0078   -2.3692 C   0  0  0  0  0  0  0  0  0  0  0  0
    0.1411    0.7185   -2.9154 H   0  0  0  0  0  0  0  0  0  0  0  0
   -0.6125   -0.8634   -3.0175 H   0  0  0  0  0  0  0  0  0  0  0  0
   -1.8629    0.6506   -2.2162 C   0  0  0  0  0  0  0  0  0  0  0  0
   -2.8182   -0.0472   -1.9123 O   0  0  0  0  0  0  0  0  0  0  0  0
   -1.9590    1.9712   -2.4790 O   0  0  0  0  0  0  0  0  0  0  0  0
   -2.8563    2.2200   -2.2099 H   0  0  0  0  0  0  0  0  0  0  0  0
   -0.4217    1.2382    0.7487 C   0  0  0  0  0  0  0  0  0  0  0  0
   -1.4117    1.9081    0.4829 O   0  0  0  0  0  0  0  0  0  0  0  0
    0.5522    1.7891    1.5625 N   0  0  0  0  0  0  0  0  0  0  0  0
    1.2978    1.1767    1.8806 H   0  0  0  0  0  0  0  0  0  0  0  0
    0.4532    3.1282    2.1317 C   0  0  0  0  0  0  0  0  0  0  0  0
   -0.4203    3.2017    2.7882 H   0  0  0  0  0  0  0  0  0  0  0  0
    1.3479    3.3574    2.7185 H   0  0  0  0  0  0  0  0  0  0  0  0
    0.3610    3.8768    1.3376 H   0  0  0  0  0  0  0  0  0  0  0  0
  1  2  1  0  0  0  0
  2  3  1  0  0  0  0
  2  4  1  0  0  0  0
  2  5  1  0  0  0  0
  5  6  2  0  0  0  0
  5  7  1  0  0  0  0
  7  8  1  0  0  0  0
  7  9  1  0  0  0  0
  9 10  1  0  0  0  0
  9 11  1  0  0  0  0
  9 21  1  0  0  0  0
 11 12  1  0  0  0  0
 11 13  1  0  0  0  0
 11 14  1  0  0  0  0
 14 15  1  0  0  0  0
 14 16  1  0  0  0  0
 14 17  1  0  0  0  0
 17 18  2  0  0  0  0
 17 19  1  0  0  0  0
 19 20  1  0  0  0  0
 21 22  2  0  0  0  0
 21 23  1  0  0  0  0
 23 24  1  0  0  0  0
 23 25  1  0  0  0  0
 25 26  1  0  0  0  0
 25 27  1  0  0  0  0
 25 28  1  0  0  0  0
M  END
$$$$

  -OEChem-03222214033D

 28 27  0     1  0  0  0  0  0999 V2000
   -2.7841   -3.8566    1.7142 H   0  0  0  0  0  0  0  0  0  0  0  0
   -2.9215   -2.8770    1.2481 C   0  0  0  0  0  0  0  0  0  0  0  0
   -3.5828   -2.2759    1.8769 H   0  0  0  0  0  0  0  0  0  0  0  0
   -3.3872   -3.0132    0.2689 H   0  0  0  0  0  0  0  0  0  0  0  0
   -1.5844   -2.1790    1.0915 C   0  0  0  0  0  0  0  0  0  0  0  0
   -0.5586   -2.7213    1.4734 O   0  0  0  0  0  0  0  0  0  0  0  0
   -1.5300   -0.9359    0.5003 N   0  0  0  0  0  0  0  0  0  0  0  0
   -2.4059   -0.5486    0.1400 H   0  0  0  0  0  0  0  0  0  0  0  0
   -0.3078   -0.1625    0.2480 C   0  0  1  0  0  0  0  0  0  0  0  0
    0.4609   -0.5463    0.9266 H   0  0  0  0  0  0  0  0  0  0  0  0
    0.2136   -0.4638   -1.1777 C   0  0  0  0  0  0  0  0  0  0  0  0
    1.1387    0.1077   -1.3063 H   0  0  0  0  0  0  0  0  0  0  0  0
    0.4894   -1.5232   -1.2189 H   0  0  0  0  0  0  0  0  0  0  0  0
   -0.6944   -0.1600   -2.4019 C   0  0  0  0  0  0  0  0  0  0  0  0
   -0.0859    0.2855   -3.1935 H   0  0  0  0  0  0  0  0  0  0  0  0
   -1.0746   -1.1102   -2.7875 H   0  0  0  0  0  0  0  0  0  0  0  0
   -1.9040    0.7368   -2.1726 C   0  0  0  0  0  0  0  0  0  0  0  0
   -2.9369    0.2317   -1.7600 O   0  0  0  0  0  0  0  0  0  0  0  0
   -1.7659    2.0526   -2.4392 O   0  0  0  0  0  0  0  0  0  0  0  0
   -2.5608    2.4653   -2.0657 H   0  0  0  0  0  0  0  0  0  0  0  0
   -0.4104    1.3348    0.6310 C   0  0  0  0  0  0  0  0  0  0  0  0
   -1.4552    1.9600    0.4969 O   0  0  0  0  0  0  0  0  0  0  0  0
    0.6247    1.9353    1.3255 N   0  0  0  0  0  0  0  0  0  0  0  0
    1.4320    1.3619    1.5523 H   0  0  0  0  0  0  0  0  0  0  0  0
    0.5441    3.2828    1.8774 C   0  0  0  0  0  0  0  0  0  0  0  0
   -0.2590    3.3462    2.6192 H   0  0  0  0  0  0  0  0  0  0  0  0
    1.4871    3.5493    2.3645 H   0  0  0  0  0  0  0  0  0  0  0  0
    0.3482    4.0112    1.0834 H   0  0  0  0  0  0  0  0  0  0  0  0
  1  2  1  0  0  0  0
  2  3  1  0  0  0  0
  2  4  1  0  0  0  0
  2  5  1  0  0  0  0
  5  6  2  0  0  0  0
  5  7  1  0  0  0  0
  7  8  1  0  0  0  0
  7  9  1  0  0  0  0
  9 10  1  0  0  0  0
  9 11  1  0  0  0  0
  9 21  1  0  0  0  0
 11 12  1  0  0  0  0
 11 13  1  0  0  0  0
 11 14  1  0  0  0  0
 14 15  1  0  0  0  0
 14 16  1  0  0  0  0
 14 17  1  0  0  0  0
 17 18  2  0  0  0  0
 17 19  1  0  0  0  0
 19 20  1  0  0  0  0
 21 22  2  0  0  0  0
 21 23  1  0  0  0  0
 23 24  1  0  0  0  0
 23 25  1  0  0  0  0
 25 26  1  0  0  0  0
 25 27  1  0  0  0  0
 25 28  1  0  0  0  0
M  END
$$$$

  -OEChem-03222214033D

 28 27  0     1  0  0  0  0  0999 V2000
   -3.0223   -3.8785    1.2653 H   0  0  0  0  0  0  0  0  0  0  0  0
   -3.0979   -2.8706    0.8478 C   0  0  0  0  0  0  0  0  0  0  0  0
   -3.7912   -2.2867    1.4580 H   0  0  0  0  0  0  0  0  0  0  0  0
   -3.4893   -2.9387   -0.1702 H   0  0  0  0  0  0  0  0  0  0  0  0
   -1.7350   -2.2053    0.8345 C   0  0  0  0  0  0  0  0  0  0  0  0
   -0.7553   -2.8025    1.2532 O   0  0  0  0  0  0  0  0  0  0  0  0
   -1.6021   -0.9308    0.3277 N   0  0  0  0  0  0  0  0  0  0  0  0
   -2.4476   -0.4656   -0.0072 H   0  0  0  0  0  0  0  0  0  0  0  0
   -0.3550   -0.1570    0.2775 C   0  0  1  0  0  0  0  0  0  0  0  0
    0.3052   -0.5810    1.0413 H   0  0  0  0  0  0  0  0  0  0  0  0
    0.3684   -0.4224   -1.0639 C   0  0  0  0  0  0  0  0  0  0  0  0
    1.2972    0.1573   -1.0482 H   0  0  0  0  0  0  0  0  0  0  0  0
    0.6521   -1.4799   -1.1019 H   0  0  0  0  0  0  0  0  0  0  0  0
   -0.3762   -0.0753   -2.3773 C   0  0  0  0  0  0  0  0  0  0  0  0
    0.3556    0.1447   -3.1589 H   0  0  0  0  0  0  0  0  0  0  0  0
   -0.9317   -0.9621   -2.6962 H   0  0  0  0  0  0  0  0  0  0  0  0
   -1.3672    1.0754   -2.3101 C   0  0  0  0  0  0  0  0  0  0  0  0
   -2.5527    0.8052   -2.2099 O   0  0  0  0  0  0  0  0  0  0  0  0
   -0.8836    2.3348   -2.3506 O   0  0  0  0  0  0  0  0  0  0  0  0
   -1.6470    2.8931   -2.1310 H   0  0  0  0  0  0  0  0  0  0  0  0
   -0.4915    1.3190    0.7285 C   0  0  0  0  0  0  0  0  0  0  0  0
   -1.5218    1.9517    0.5308 O   0  0  0  0  0  0  0  0  0  0  0  0
    0.4530    1.8656    1.5795 N   0  0  0  0  0  0  0  0  0  0  0  0
    1.2422    1.2828    1.8430 H   0  0  0  0  0  0  0  0  0  0  0  0
    0.3118    3.1792    2.1976 C   0  0  0  0  0  0  0  0  0  0  0  0
   -0.5802    3.2105    2.8324 H   0  0  0  0  0  0  0  0  0  0  0  0
    1.1857    3.4023    2.8173 H   0  0  0  0  0  0  0  0  0  0  0  0
    0.2263    3.9563    1.4306 H   0  0  0  0  0  0  0  0  0  0  0  0
  1  2  1  0  0  0  0
  2  3  1  0  0  0  0
  2  4  1  0  0  0  0
  2  5  1  0  0  0  0
  5  6  2  0  0  0  0
  5  7  1  0  0  0  0
  7  8  1  0  0  0  0
  7  9  1  0  0  0  0
  9 10  1  0  0  0  0
  9 11  1  0  0  0  0
  9 21  1  0  0  0  0
 11 12  1  0  0  0  0
 11 13  1  0  0  0  0
 11 14  1  0  0  0  0
 14 15  1  0  0  0  0
 14 16  1  0  0  0  0
 14 17  1  0  0  0  0
 17 18  2  0  0  0  0
 17 19  1  0  0  0  0
 19 20  1  0  0  0  0
 21 22  2  0  0  0  0
 21 23  1  0  0  0  0
 23 24  1  0  0  0  0
 23 25  1  0  0  0  0
 25 26  1  0  0  0  0
 25 27  1  0  0  0  0
 25 28  1  0  0  0  0
M  END
$$$$

  -OEChem-03222214033D

 28 27  0     1  0  0  0  0  0999 V2000
   -3.2918   -3.7077    1.0587 H   0  0  0  0  0  0  0  0  0  0  0  0
   -3.2730   -2.6947    0.6470 C   0  0  0  0  0  0  0  0  0  0  0  0
   -3.9098   -2.0531    1.2609 H   0  0  0  0  0  0  0  0  0  0  0  0
   -3.6677   -2.7205   -0.3716 H   0  0  0  0  0  0  0  0  0  0  0  0
   -1.8534   -2.1605    0.6382 C   0  0  0  0  0  0  0  0  0  0  0  0
   -0.9315   -2.8632    1.0218 O   0  0  0  0  0  0  0  0  0  0  0  0
   -1.6048   -0.8824    0.1854 N   0  0  0  0  0  0  0  0  0  0  0  0
   -2.4123   -0.2996   -0.0349 H   0  0  0  0  0  0  0  0  0  0  0  0
   -0.3065   -0.1998    0.2665 C   0  0  1  0  0  0  0  0  0  0  0  0
    0.2699   -0.6883    1.0595 H   0  0  0  0  0  0  0  0  0  0  0  0
    0.4968   -0.4423   -1.0337 C   0  0  0  0  0  0  0  0  0  0  0  0
    1.4641    0.0587   -0.9199 H   0  0  0  0  0  0  0  0  0  0  0  0
    0.6987   -1.5157   -1.1179 H   0  0  0  0  0  0  0  0  0  0  0  0
   -0.1250    0.0357   -2.3668 C   0  0  0  0  0  0  0  0  0  0  0  0
    0.6320   -0.0024   -3.1543 H   0  0  0  0  0  0  0  0  0  0  0  0
   -0.9206   -0.6602   -2.6464 H   0  0  0  0  0  0  0  0  0  0  0  0
   -0.7256    1.4315   -2.3428 C   0  0  0  0  0  0  0  0  0  0  0  0
    0.0378    2.3780   -2.2611 O   0  0  0  0  0  0  0  0  0  0  0  0
   -2.0701    1.5518   -2.3832 O   0  0  0  0  0  0  0  0  0  0  0  0
   -2.2343    2.4895   -2.1938 H   0  0  0  0  0  0  0  0  0  0  0  0
   -0.4371    1.2611    0.7619 C   0  0  0  0  0  0  0  0  0  0  0  0
   -1.4613    1.8972    0.5341 O   0  0  0  0  0  0  0  0  0  0  0  0
    0.4349    1.7486    1.7185 N   0  0  0  0  0  0  0  0  0  0  0  0
    1.2455    1.1823    1.9505 H   0  0  0  0  0  0  0  0  0  0  0  0
    0.2973    3.0652    2.3303 C   0  0  0  0  0  0  0  0  0  0  0  0
   -0.6570    3.1444    2.8620 H   0  0  0  0  0  0  0  0  0  0  0  0
    1.1063    3.2355    3.0472 H   0  0  0  0  0  0  0  0  0  0  0  0
    0.3414    3.8485    1.5659 H   0  0  0  0  0  0  0  0  0  0  0  0
  1  2  1  0  0  0  0
  2  3  1  0  0  0  0
  2  4  1  0  0  0  0
  2  5  1  0  0  0  0
  5  6  2  0  0  0  0
  5  7  1  0  0  0  0
  7  8  1  0  0  0  0
  7  9  1  0  0  0  0
  9 10  1  0  0  0  0
  9 11  1  0  0  0  0
  9 21  1  0  0  0  0
 11 12  1  0  0  0  0
 11 13  1  0  0  0  0
 11 14  1  0  0  0  0
 14 15  1  0  0  0  0
 14 16  1  0  0  0  0
 14 17  1  0  0  0  0
 17 18  2  0  0  0  0
 17 19  1  0  0  0  0
 19 20  1  0  0  0  0
 21 22  2  0  0  0  0
 21 23  1  0  0  0  0
 23 24  1  0  0  0  0
 23 25  1  0  0  0  0
 25 26  1  0  0  0  0
 25 27  1  0  0  0  0
 25 28  1  0  0  0  0
M  END
$$$$

  -OEChem-03222214033D

 28 27  0     1  0  0  0  0  0999 V2000
   -3.2117   -3.7362    1.2136 H   0  0  0  0  0  0  0  0  0  0  0  0
   -3.2121   -2.7324    0.7799 C   0  0  0  0  0  0  0  0  0  0  0  0
   -3.8177   -2.0772    1.4106 H   0  0  0  0  0  0  0  0  0  0  0  0
   -3.6560   -2.7791   -0.2173 H   0  0  0  0  0  0  0  0  0  0  0  0
   -1.7943   -2.2010    0.6902 C   0  0  0  0  0  0  0  0  0  0  0  0
   -0.8547   -2.9008    1.0337 O   0  0  0  0  0  0  0  0  0  0  0  0
   -1.5683   -0.9289    0.2092 N   0  0  0  0  0  0  0  0  0  0  0  0
   -2.3863   -0.3409    0.0505 H   0  0  0  0  0  0  0  0  0  0  0  0
   -0.2698   -0.2413    0.2469 C   0  0  1  0  0  0  0  0  0  0  0  0
    0.3440   -0.7186    1.0182 H   0  0  0  0  0  0  0  0  0  0  0  0
    0.4793   -0.4531   -1.0891 C   0  0  0  0  0  0  0  0  0  0  0  0
    1.4597    0.0292   -1.0139 H   0  0  0  0  0  0  0  0  0  0  0  0
    0.6581   -1.5272   -1.2073 H   0  0  0  0  0  0  0  0  0  0  0  0
   -0.2201    0.0586   -2.3696 C   0  0  0  0  0  0  0  0  0  0  0  0
    0.4021   -0.1773   -3.2365 H   0  0  0  0  0  0  0  0  0  0  0  0
   -1.1675   -0.4725   -2.4937 H   0  0  0  0  0  0  0  0  0  0  0  0
   -0.5055    1.5548   -2.3934 C   0  0  0  0  0  0  0  0  0  0  0  0
    0.4109    2.3218   -2.1498 O   0  0  0  0  0  0  0  0  0  0  0  0
   -1.7602    1.9580   -2.6851 O   0  0  0  0  0  0  0  0  0  0  0  0
   -1.7521    2.9159   -2.5357 H   0  0  0  0  0  0  0  0  0  0  0  0
   -0.4209    1.2214    0.7245 C   0  0  0  0  0  0  0  0  0  0  0  0
   -1.4521    1.8378    0.4744 O   0  0  0  0  0  0  0  0  0  0  0  0
    0.4544    1.7469    1.6572 N   0  0  0  0  0  0  0  0  0  0  0  0
    1.2892    1.2104    1.8738 H   0  0  0  0  0  0  0  0  0  0  0  0
    0.3165    3.0882    2.2121 C   0  0  0  0  0  0  0  0  0  0  0  0
   -0.6401    3.1907    2.7353 H   0  0  0  0  0  0  0  0  0  0  0  0
    1.1219    3.2878    2.9253 H   0  0  0  0  0  0  0  0  0  0  0  0
    0.3650    3.8381    1.4154 H   0  0  0  0  0  0  0  0  0  0  0  0
  1  2  1  0  0  0  0
  2  3  1  0  0  0  0
  2  4  1  0  0  0  0
  2  5  1  0  0  0  0
  5  6  2  0  0  0  0
  5  7  1  0  0  0  0
  7  8  1  0  0  0  0
  7  9  1  0  0  0  0
  9 10  1  0  0  0  0
  9 11  1  0  0  0  0
  9 21  1  0  0  0  0
 11 12  1  0  0  0  0
 11 13  1  0  0  0  0
 11 14  1  0  0  0  0
 14 15  1  0  0  0  0
 14 16  1  0  0  0  0
 14 17  1  0  0  0  0
 17 18  2  0  0  0  0
 17 19  1  0  0  0  0
 19 20  1  0  0  0  0
 21 22  2  0  0  0  0
 21 23  1  0  0  0  0
 23 24  1  0  0  0  0
 23 25  1  0  0  0  0
 25 26  1  0  0  0  0
 25 27  1  0  0  0  0
 25 28  1  0  0  0  0
M  END
$$$$

  -OEChem-03222214033D

 28 27  0     1  0  0  0  0  0999 V2000
   -3.2134   -3.7500    1.2795 H   0  0  0  0  0  0  0  0  0  0  0  0
   -3.2070   -2.7575    0.8205 C   0  0  0  0  0  0  0  0  0  0  0  0
   -3.8113   -2.0834    1.4323 H   0  0  0  0  0  0  0  0  0  0  0  0
   -3.6474   -2.8273   -0.1769 H   0  0  0  0  0  0  0  0  0  0  0  0
   -1.7860   -2.2361    0.7224 C   0  0  0  0  0  0  0  0  0  0  0  0
   -0.8514   -2.9311    1.0877 O   0  0  0  0  0  0  0  0  0  0  0  0
   -1.5526   -0.9757    0.2151 N   0  0  0  0  0  0  0  0  0  0  0  0
   -2.3676   -0.3859    0.0485 H   0  0  0  0  0  0  0  0  0  0  0  0
   -0.2511   -0.2922    0.2514 C   0  0  1  0  0  0  0  0  0  0  0  0
    0.3710   -0.7617    1.0209 H   0  0  0  0  0  0  0  0  0  0  0  0
    0.4865   -0.4694   -1.0934 C   0  0  0  0  0  0  0  0  0  0  0  0
    1.4814   -0.0172   -1.0216 H   0  0  0  0  0  0  0  0  0  0  0  0
    0.6375   -1.5434   -1.2455 H   0  0  0  0  0  0  0  0  0  0  0  0
   -0.2482    0.0881   -2.3361 C   0  0  0  0  0  0  0  0  0  0  0  0
    0.2193   -0.3220   -3.2347 H   0  0  0  0  0  0  0  0  0  0  0  0
   -1.2892   -0.2441   -2.3312 H   0  0  0  0  0  0  0  0  0  0  0  0
   -0.2211    1.6099   -2.4684 C   0  0  0  0  0  0  0  0  0  0  0  0
    0.7671    2.2220   -2.0979 O   0  0  0  0  0  0  0  0  0  0  0  0
   -1.3006    2.2061   -3.0168 O   0  0  0  0  0  0  0  0  0  0  0  0
   -1.1218    3.1559   -2.9461 H   0  0  0  0  0  0  0  0  0  0  0  0
   -0.4209    1.1771    0.6964 C   0  0  0  0  0  0  0  0  0  0  0  0
   -1.4325    1.7922    0.3736 O   0  0  0  0  0  0  0  0  0  0  0  0
    0.4331    1.7334    1.6302 N   0  0  0  0  0  0  0  0  0  0  0  0
    1.2665    1.2072    1.8755 H   0  0  0  0  0  0  0  0  0  0  0  0
    0.3033    3.1052    2.1058 C   0  0  0  0  0  0  0  0  0  0  0  0
   -0.6710    3.2561    2.5825 H   0  0  0  0  0  0  0  0  0  0  0  0
    1.0834    3.3265    2.8405 H   0  0  0  0  0  0  0  0  0  0  0  0
    0.4019    3.8090    1.2724 H   0  0  0  0  0  0  0  0  0  0  0  0
  1  2  1  0  0  0  0
  2  3  1  0  0  0  0
  2  4  1  0  0  0  0
  2  5  1  0  0  0  0
  5  6  2  0  0  0  0
  5  7  1  0  0  0  0
  7  8  1  0  0  0  0
  7  9  1  0  0  0  0
  9 10  1  0  0  0  0
  9 11  1  0  0  0  0
  9 21  1  0  0  0  0
 11 12  1  0  0  0  0
 11 13  1  0  0  0  0
 11 14  1  0  0  0  0
 14 15  1  0  0  0  0
 14 16  1  0  0  0  0
 14 17  1  0  0  0  0
 17 18  2  0  0  0  0
 17 19  1  0  0  0  0
 19 20  1  0  0  0  0
 21 22  2  0  0  0  0
 21 23  1  0  0  0  0
 23 24  1  0  0  0  0
 23 25  1  0  0  0  0
 25 26  1  0  0  0  0
 25 27  1  0  0  0  0
 25 28  1  0  0  0  0
M  END
$$$$

  -OEChem-03222214033D

 28 27  0     1  0  0  0  0  0999 V2000
   -3.2151   -3.7609    1.3330 H   0  0  0  0  0  0  0  0  0  0  0  0
   -3.2021   -2.7848    0.8400 C   0  0  0  0  0  0  0  0  0  0  0  0
   -3.8195   -2.0911    1.4158 H   0  0  0  0  0  0  0  0  0  0  0  0
   -3.6227   -2.8902   -0.1629 H   0  0  0  0  0  0  0  0  0  0  0  0
   -1.7808   -2.2630    0.7517 C   0  0  0  0  0  0  0  0  0  0  0  0
   -0.8501   -2.9511    1.1390 O   0  0  0  0  0  0  0  0  0  0  0  0
   -1.5432   -1.0110    0.2258 N   0  0  0  0  0  0  0  0  0  0  0  0
   -2.3566   -0.4246    0.0420 H   0  0  0  0  0  0  0  0  0  0  0  0
   -0.2401   -0.3292    0.2592 C   0  0  1  0  0  0  0  0  0  0  0  0
    0.3903   -0.7958    1.0236 H   0  0  0  0  0  0  0  0  0  0  0  0
    0.4836   -0.4739   -1.0940 C   0  0  0  0  0  0  0  0  0  0  0  0
    1.4904   -0.0490   -1.0251 H   0  0  0  0  0  0  0  0  0  0  0  0
    0.6119   -1.5461   -1.2763 H   0  0  0  0  0  0  0  0  0  0  0  0
   -0.2857    0.1225   -2.3005 C   0  0  0  0  0  0  0  0  0  0  0  0
   -0.0160   -0.4423   -3.1961 H   0  0  0  0  0  0  0  0  0  0  0  0
   -1.3634    0.0105   -2.1619 H   0  0  0  0  0  0  0  0  0  0  0  0
    0.0157    1.5932   -2.6001 C   0  0  0  0  0  0  0  0  0  0  0  0
    1.0133    2.1215   -2.1371 O   0  0  0  0  0  0  0  0  0  0  0  0
   -0.8545    2.2395   -3.4043 O   0  0  0  0  0  0  0  0  0  0  0  0
   -0.5274    3.1509   -3.4425 H   0  0  0  0  0  0  0  0  0  0  0  0
   -0.4141    1.1457    0.6803 C   0  0  0  0  0  0  0  0  0  0  0  0
   -1.4022    1.7672    0.3015 O   0  0  0  0  0  0  0  0  0  0  0  0
    0.4309    1.7201    1.6111 N   0  0  0  0  0  0  0  0  0  0  0  0
    1.2532    1.1911    1.8866 H   0  0  0  0  0  0  0  0  0  0  0  0
    0.3173    3.1111    2.0320 C   0  0  0  0  0  0  0  0  0  0  0  0
   -0.6656    3.2992    2.4771 H   0  0  0  0  0  0  0  0  0  0  0  0
    1.0830    3.3447    2.7780 H   0  0  0  0  0  0  0  0  0  0  0  0
    0.4513    3.7812    1.1759 H   0  0  0  0  0  0  0  0  0  0  0  0
  1  2  1  0  0  0  0
  2  3  1  0  0  0  0
  2  4  1  0  0  0  0
  2  5  1  0  0  0  0
  5  6  2  0  0  0  0
  5  7  1  0  0  0  0
  7  8  1  0  0  0  0
  7  9  1  0  0  0  0
  9 10  1  0  0  0  0
  9 11  1  0  0  0  0
  9 21  1  0  0  0  0
 11 12  1  0  0  0  0
 11 13  1  0  0  0  0
 11 14  1  0  0  0  0
 14 15  1  0  0  0  0
 14 16  1  0  0  0  0
 14 17  1  0  0  0  0
 17 18  2  0  0  0  0
 17 19  1  0  0  0  0
 19 20  1  0  0  0  0
 21 22  2  0  0  0  0
 21 23  1  0  0  0  0
 23 24  1  0  0  0  0
 23 25  1  0  0  0  0
 25 26  1  0  0  0  0
 25 27  1  0  0  0  0
 25 28  1  0  0  0  0
M  END
$$$$

  -OEChem-03222214033D

 28 27  0     1  0  0  0  0  0999 V2000
   -3.2012   -3.7844    1.3252 H   0  0  0  0  0  0  0  0  0  0  0  0
   -3.1947   -2.7932    0.8631 C   0  0  0  0  0  0  0  0  0  0  0  0
   -3.7975   -2.1161    1.4731 H   0  0  0  0  0  0  0  0  0  0  0  0
   -3.6368   -2.8658   -0.1335 H   0  0  0  0  0  0  0  0  0  0  0  0
   -1.7738   -2.2729    0.7614 C   0  0  0  0  0  0  0  0  0  0  0  0
   -0.8401   -2.9617    1.1406 O   0  0  0  0  0  0  0  0  0  0  0  0
   -1.5408   -1.0207    0.2340 N   0  0  0  0  0  0  0  0  0  0  0  0
   -2.3558   -0.4342    0.0584 H   0  0  0  0  0  0  0  0  0  0  0  0
   -0.2374   -0.3391    0.2564 C   0  0  1  0  0  0  0  0  0  0  0  0
    0.4042   -0.8087    1.0096 H   0  0  0  0  0  0  0  0  0  0  0  0
    0.4671   -0.4653   -1.1066 C   0  0  0  0  0  0  0  0  0  0  0  0
    1.4763   -0.0463   -1.0418 H   0  0  0  0  0  0  0  0  0  0  0  0
    0.5926   -1.5347   -1.3074 H   0  0  0  0  0  0  0  0  0  0  0  0
   -0.3295    0.1514   -2.2874 C   0  0  0  0  0  0  0  0  0  0  0  0
   -0.2924   -0.5478   -3.1266 H   0  0  0  0  0  0  0  0  0  0  0  0
   -1.3821    0.2802   -2.0257 H   0  0  0  0  0  0  0  0  0  0  0  0
    0.2005    1.4920   -2.8037 C   0  0  0  0  0  0  0  0  0  0  0  0
    1.1082    2.0654   -2.2247 O   0  0  0  0  0  0  0  0  0  0  0  0
   -0.3835    1.9806   -3.9180 O   0  0  0  0  0  0  0  0  0  0  0  0
    0.0557    2.8300   -4.0762 H   0  0  0  0  0  0  0  0  0  0  0  0
   -0.4063    1.1363    0.6799 C   0  0  0  0  0  0  0  0  0  0  0  0
   -1.3987    1.7578    0.3122 O   0  0  0  0  0  0  0  0  0  0  0  0
    0.4473    1.7097    1.6034 N   0  0  0  0  0  0  0  0  0  0  0  0
    1.2760    1.1838    1.8651 H   0  0  0  0  0  0  0  0  0  0  0  0
    0.3307    3.0973    2.0343 C   0  0  0  0  0  0  0  0  0  0  0  0
   -0.6498    3.2770    2.4877 H   0  0  0  0  0  0  0  0  0  0  0  0
    1.1008    3.3296    2.7761 H   0  0  0  0  0  0  0  0  0  0  0  0
    0.4544    3.7737    1.1818 H   0  0  0  0  0  0  0  0  0  0  0  0
  1  2  1  0  0  0  0
  2  3  1  0  0  0  0
  2  4  1  0  0  0  0
  2  5  1  0  0  0  0
  5  6  2  0  0  0  0
  5  7  1  0  0  0  0
  7  8  1  0  0  0  0
  7  9  1  0  0  0  0
  9 10  1  0  0  0  0
  9 11  1  0  0  0  0
  9 21  1  0  0  0  0
 11 12  1  0  0  0  0
 11 13  1  0  0  0  0
 11 14  1  0  0  0  0
 14 15  1  0  0  0  0
 14 16  1  0  0  0  0
 14 17  1  0  0  0  0
 17 18  2  0  0  0  0
 17 19  1  0  0  0  0
 19 20  1  0  0  0  0
 21 22  2  0  0  0  0
 21 23  1  0  0  0  0
 23 24  1  0  0  0  0
 23 25  1  0  0  0  0
 25 26  1  0  0  0  0
 25 27  1  0  0  0  0
 25 28  1  0  0  0  0
M  END
$$$$

  -OEChem-03222214033D

 28 27  0     1  0  0  0  0  0999 V2000
   -3.1784   -3.7954    1.2969 H   0  0  0  0  0  0  0  0  0  0  0  0
   -3.1841   -2.7933    0.8593 C   0  0  0  0  0  0  0  0  0  0  0  0
   -3.7804   -2.1344    1.4951 H   0  0  0  0  0  0  0  0  0  0  0  0
   -3.6411   -2.8444   -0.1319 H   0  0  0  0  0  0  0  0  0  0  0  0
   -1.7675   -2.2632    0.7490 C   0  0  0  0  0  0  0  0  0  0  0  0
   -0.8260   -2.9503    1.1111 O   0  0  0  0  0  0  0  0  0  0  0  0
   -1.5474   -1.0032    0.2348 N   0  0  0  0  0  0  0  0  0  0  0  0
   -2.3677   -0.4210    0.0711 H   0  0  0  0  0  0  0  0  0  0  0  0
   -0.2474   -0.3153    0.2474 C   0  0  1  0  0  0  0  0  0  0  0  0
    0.4021   -0.7916    0.9897 H   0  0  0  0  0  0  0  0  0  0  0  0
    0.4400   -0.4453   -1.1230 C   0  0  0  0  0  0  0  0  0  0  0  0
    1.4377    0.0004   -1.0600 H   0  0  0  0  0  0  0  0  0  0  0  0
    0.5917   -1.5109   -1.3258 H   0  0  0  0  0  0  0  0  0  0  0  0
   -0.3744    0.1628   -2.2963 C   0  0  0  0  0  0  0  0  0  0  0  0
   -0.5917   -0.6336   -3.0128 H   0  0  0  0  0  0  0  0  0  0  0  0
   -1.3359    0.5493   -1.9512 H   0  0  0  0  0  0  0  0  0  0  0  0
    0.3308    1.2896   -3.0533 C   0  0  0  0  0  0  0  0  0  0  0  0
    1.1656    1.9773   -2.4904 O   0  0  0  0  0  0  0  0  0  0  0  0
   -0.0222    1.4711   -4.3437 O   0  0  0  0  0  0  0  0  0  0  0  0
    0.5067    2.2267   -4.6423 H   0  0  0  0  0  0  0  0  0  0  0  0
   -0.4004    1.1567    0.6906 C   0  0  0  0  0  0  0  0  0  0  0  0
   -1.3991    1.7876    0.3590 O   0  0  0  0  0  0  0  0  0  0  0  0
    0.4740    1.7122    1.6059 N   0  0  0  0  0  0  0  0  0  0  0  0
    1.2943    1.1706    1.8616 H   0  0  0  0  0  0  0  0  0  0  0  0
    0.3561    3.0826    2.0893 C   0  0  0  0  0  0  0  0  0  0  0  0
   -0.6089    3.2333    2.5847 H   0  0  0  0  0  0  0  0  0  0  0  0
    1.1503    3.2994    2.8099 H   0  0  0  0  0  0  0  0  0  0  0  0
    0.4403    3.7901    1.2576 H   0  0  0  0  0  0  0  0  0  0  0  0
  1  2  1  0  0  0  0
  2  3  1  0  0  0  0
  2  4  1  0  0  0  0
  2  5  1  0  0  0  0
  5  6  2  0  0  0  0
  5  7  1  0  0  0  0
  7  8  1  0  0  0  0
  7  9  1  0  0  0  0
  9 10  1  0  0  0  0
  9 11  1  0  0  0  0
  9 21  1  0  0  0  0
 11 12  1  0  0  0  0
 11 13  1  0  0  0  0
 11 14  1  0  0  0  0
 14 15  1  0  0  0  0
 14 16  1  0  0  0  0
 14 17  1  0  0  0  0
 17 18  2  0  0  0  0
 17 19  1  0  0  0  0
 19 20  1  0  0  0  0
 21 22  2  0  0  0  0
 21 23  1  0  0  0  0
 23 24  1  0  0  0  0
 23 25  1  0  0  0  0
 25 26  1  0  0  0  0
 25 27  1  0  0  0  0
 25 28  1  0  0  0  0
M  END
$$$$

  -OEChem-03222214033D

 28 27  0     1  0  0  0  0  0999 V2000
   -3.1879   -3.7749    1.3063 H   0  0  0  0  0  0  0  0  0  0  0  0
   -3.1873   -2.7928    0.8251 C   0  0  0  0  0  0  0  0  0  0  0  0
   -3.8177   -2.1158    1.4067 H   0  0  0  0  0  0  0  0  0  0  0  0
   -3.6025   -2.8925   -0.1808 H   0  0  0  0  0  0  0  0  0  0  0  0
   -1.7731   -2.2491    0.7497 C   0  0  0  0  0  0  0  0  0  0  0  0
   -0.8358   -2.9244    1.1438 O   0  0  0  0  0  0  0  0  0  0  0  0
   -1.5500   -0.9908    0.2318 N   0  0  0  0  0  0  0  0  0  0  0  0
   -2.3700   -0.4212    0.0281 H   0  0  0  0  0  0  0  0  0  0  0  0
   -0.2540   -0.2965    0.2566 C   0  0  1  0  0  0  0  0  0  0  0  0
    0.3805   -0.7651    1.0164 H   0  0  0  0  0  0  0  0  0  0  0  0
    0.4607   -0.4632   -1.0964 C   0  0  0  0  0  0  0  0  0  0  0  0
    1.4364    0.0233   -1.0042 H   0  0  0  0  0  0  0  0  0  0  0  0
    0.6551   -1.5268   -1.2710 H   0  0  0  0  0  0  0  0  0  0  0  0
   -0.3303    0.1054   -2.3075 C   0  0  0  0  0  0  0  0  0  0  0  0
   -0.7853   -0.7290   -2.8470 H   0  0  0  0  0  0  0  0  0  0  0  0
   -1.1481    0.7422   -1.9649 H   0  0  0  0  0  0  0  0  0  0  0  0
    0.4736    0.9379   -3.3101 C   0  0  0  0  0  0  0  0  0  0  0  0
    1.6471    1.1985   -3.1085 O   0  0  0  0  0  0  0  0  0  0  0  0
   -0.1889    1.3487   -4.4119 O   0  0  0  0  0  0  0  0  0  0  0  0
    0.4605    1.8602   -4.9181 H   0  0  0  0  0  0  0  0  0  0  0  0
   -0.3975    1.1799    0.6874 C   0  0  0  0  0  0  0  0  0  0  0  0
   -1.3733    1.8289    0.3274 O   0  0  0  0  0  0  0  0  0  0  0  0
    0.4751    1.7329    1.6064 N   0  0  0  0  0  0  0  0  0  0  0  0
    1.2614    1.1663    1.9118 H   0  0  0  0  0  0  0  0  0  0  0  0
    0.3585    3.1005    2.0987 C   0  0  0  0  0  0  0  0  0  0  0  0
   -0.6116    3.2531    2.5835 H   0  0  0  0  0  0  0  0  0  0  0  0
    1.1454    3.3077    2.8305 H   0  0  0  0  0  0  0  0  0  0  0  0
    0.4560    3.8143    1.2738 H   0  0  0  0  0  0  0  0  0  0  0  0
  1  2  1  0  0  0  0
  2  3  1  0  0  0  0
  2  4  1  0  0  0  0
  2  5  1  0  0  0  0
  5  6  2  0  0  0  0
  5  7  1  0  0  0  0
  7  8  1  0  0  0  0
  7  9  1  0  0  0  0
  9 10  1  0  0  0  0
  9 11  1  0  0  0  0
  9 21  1  0  0  0  0
 11 12  1  0  0  0  0
 11 13  1  0  0  0  0
 11 14  1  0  0  0  0
 14 15  1  0  0  0  0
 14 16  1  0  0  0  0
 14 17  1  0  0  0  0
 17 18  2  0  0  0  0
 17 19  1  0  0  0  0
 19 20  1  0  0  0  0
 21 22  2  0  0  0  0
 21 23  1  0  0  0  0
 23 24  1  0  0  0  0
 23 25  1  0  0  0  0
 25 26  1  0  0  0  0
 25 27  1  0  0  0  0
 25 28  1  0  0  0  0
M  END
$$$$

  -OEChem-03222214033D

 28 27  0     1  0  0  0  0  0999 V2000
   -3.1775   -3.7655    1.3256 H   0  0  0  0  0  0  0  0  0  0  0  0
   -3.1804   -2.7809    0.8496 C   0  0  0  0  0  0  0  0  0  0  0  0
   -3.7977   -2.1040    1.4451 H   0  0  0  0  0  0  0  0  0  0  0  0
   -3.6128   -2.8739   -0.1495 H   0  0  0  0  0  0  0  0  0  0  0  0
   -1.7655   -2.2423    0.7535 C   0  0  0  0  0  0  0  0  0  0  0  0
   -0.8257   -2.9157    1.1443 O   0  0  0  0  0  0  0  0  0  0  0  0
   -1.5462   -0.9857    0.2301 N   0  0  0  0  0  0  0  0  0  0  0  0
   -2.3678   -0.4174    0.0293 H   0  0  0  0  0  0  0  0  0  0  0  0
   -0.2507   -0.2908    0.2417 C   0  0  1  0  0  0  0  0  0  0  0  0
    0.3901   -0.7545    0.9993 H   0  0  0  0  0  0  0  0  0  0  0  0
    0.4525   -0.4715   -1.1166 C   0  0  0  0  0  0  0  0  0  0  0  0
    1.4178    0.0401   -1.0420 H   0  0  0  0  0  0  0  0  0  0  0  0
    0.6627   -1.5334   -1.2835 H   0  0  0  0  0  0  0  0  0  0  0  0
   -0.3432    0.0827   -2.3268 C   0  0  0  0  0  0  0  0  0  0  0  0
   -1.0215   -0.6920   -2.6927 H   0  0  0  0  0  0  0  0  0  0  0  0
   -0.9575    0.9308   -2.0190 H   0  0  0  0  0  0  0  0  0  0  0  0
    0.5107    0.5780   -3.4959 C   0  0  0  0  0  0  0  0  0  0  0  0
    1.7250    0.4762   -3.4622 O   0  0  0  0  0  0  0  0  0  0  0  0
   -0.1526    1.1062   -4.5462 O   0  0  0  0  0  0  0  0  0  0  0  0
    0.5382    1.3576   -5.1780 H   0  0  0  0  0  0  0  0  0  0  0  0
   -0.3968    1.1859    0.6698 C   0  0  0  0  0  0  0  0  0  0  0  0
   -1.3787    1.8303    0.3183 O   0  0  0  0  0  0  0  0  0  0  0  0
    0.4810    1.7434    1.5809 N   0  0  0  0  0  0  0  0  0  0  0  0
    1.2556    1.1697    1.9030 H   0  0  0  0  0  0  0  0  0  0  0  0
    0.3370    3.0956    2.1072 C   0  0  0  0  0  0  0  0  0  0  0  0
   -0.6240    3.2076    2.6203 H   0  0  0  0  0  0  0  0  0  0  0  0
    1.1369    3.3109    2.8223 H   0  0  0  0  0  0  0  0  0  0  0  0
    0.3913    3.8296    1.2963 H   0  0  0  0  0  0  0  0  0  0  0  0
  1  2  1  0  0  0  0
  2  3  1  0  0  0  0
  2  4  1  0  0  0  0
  2  5  1  0  0  0  0
  5  6  2  0  0  0  0
  5  7  1  0  0  0  0
  7  8  1  0  0  0  0
  7  9  1  0  0  0  0
  9 10  1  0  0  0  0
  9 11  1  0  0  0  0
  9 21  1  0  0  0  0
 11 12  1  0  0  0  0
 11 13  1  0  0  0  0
 11 14  1  0  0  0  0
 14 15  1  0  0  0  0
 14 16  1  0  0  0  0
 14 17  1  0  0  0  0
 17 18  2  0  0  0  0
 17 19  1  0  0  0  0
 19 20  1  0  0  0  0
 21 22  2  0  0  0  0
 21 23  1  0  0  0  0
 23 24  1  0  0  0  0
 23 25  1  0  0  0  0
 25 26  1  0  0  0  0
 25 27  1  0  0  0  0
 25 28  1  0  0  0  0
M  END
$$$$

  -OEChem-03222214033D

 28 27  0     1  0  0  0  0  0999 V2000
   -3.1817   -3.7694    1.3243 H   0  0  0  0  0  0  0  0  0  0  0  0
   -3.1823   -2.7875    0.8425 C   0  0  0  0  0  0  0  0  0  0  0  0
   -3.8106   -2.1101    1.4260 H   0  0  0  0  0  0  0  0  0  0  0  0
   -3.6008   -2.8884   -0.1617 H   0  0  0  0  0  0  0  0  0  0  0  0
   -1.7686   -2.2438    0.7610 C   0  0  0  0  0  0  0  0  0  0  0  0
   -0.8308   -2.9154    1.1593 O   0  0  0  0  0  0  0  0  0  0  0  0
   -1.5473   -0.9874    0.2375 N   0  0  0  0  0  0  0  0  0  0  0  0
   -2.3675   -0.4196    0.0300 H   0  0  0  0  0  0  0  0  0  0  0  0
   -0.2495   -0.2967    0.2439 C   0  0  1  0  0  0  0  0  0  0  0  0
    0.3970   -0.7637    0.9946 H   0  0  0  0  0  0  0  0  0  0  0  0
    0.4417   -0.4677   -1.1220 C   0  0  0  0  0  0  0  0  0  0  0  0
    1.4116    0.0386   -1.0659 H   0  0  0  0  0  0  0  0  0  0  0  0
    0.6395   -1.5308   -1.2982 H   0  0  0  0  0  0  0  0  0  0  0  0
   -0.3634    0.1000   -2.3160 C   0  0  0  0  0  0  0  0  0  0  0  0
   -1.2147   -0.5532   -2.5220 H   0  0  0  0  0  0  0  0  0  0  0  0
   -0.7571    1.0884   -2.0705 H   0  0  0  0  0  0  0  0  0  0  0  0
    0.4486    0.2611   -3.6017 C   0  0  0  0  0  0  0  0  0  0  0  0
    1.6456    0.0303   -3.6060 O   0  0  0  0  0  0  0  0  0  0  0  0
   -0.2271    0.6566   -4.7009 O   0  0  0  0  0  0  0  0  0  0  0  0
    0.4407    0.7009   -5.4021 H   0  0  0  0  0  0  0  0  0  0  0  0
   -0.3937    1.1789    0.6739 C   0  0  0  0  0  0  0  0  0  0  0  0
   -1.3674    1.8291    0.3106 O   0  0  0  0  0  0  0  0  0  0  0  0
    0.4867    1.7363    1.5825 N   0  0  0  0  0  0  0  0  0  0  0  0
    1.2535    1.1578    1.9143 H   0  0  0  0  0  0  0  0  0  0  0  0
    0.3538    3.0948    2.0953 C   0  0  0  0  0  0  0  0  0  0  0  0
   -0.6076    3.2207    2.6046 H   0  0  0  0  0  0  0  0  0  0  0  0
    1.1537    3.3100    2.8103 H   0  0  0  0  0  0  0  0  0  0  0  0
    0.4171    3.8203    1.2774 H   0  0  0  0  0  0  0  0  0  0  0  0
  1  2  1  0  0  0  0
  2  3  1  0  0  0  0
  2  4  1  0  0  0  0
  2  5  1  0  0  0  0
  5  6  2  0  0  0  0
  5  7  1  0  0  0  0
  7  8  1  0  0  0  0
  7  9  1  0  0  0  0
  9 10  1  0  0  0  0
  9 11  1  0  0  0  0
  9 21  1  0  0  0  0
 11 12  1  0  0  0  0
 11 13  1  0  0  0  0
 11 14  1  0  0  0  0
 14 15  1  0  0  0  0
 14 16  1  0  0  0  0
 14 17  1  0  0  0  0
 17 18  2  0  0  0  0
 17 19  1  0  0  0  0
 19 20  1  0  0  0  0
 21 22  2  0  0  0  0
 21 23  1  0  0  0  0
 23 24  1  0  0  0  0
 23 25  1  0  0  0  0
 25 26  1  0  0  0  0
 25 27  1  0  0  0  0
 25 28  1  0  0  0  0
M  END
$$$$

  -OEChem-03222214033D

 28 27  0     1  0  0  0  0  0999 V2000
   -3.1800   -3.7748    1.2266 H   0  0  0  0  0  0  0  0  0  0  0  0
   -3.1834   -2.7677    0.8002 C   0  0  0  0  0  0  0  0  0  0  0  0
   -3.8039   -2.1224    1.4267 H   0  0  0  0  0  0  0  0  0  0  0  0
   -3.6126   -2.8120   -0.2036 H   0  0  0  0  0  0  0  0  0  0  0  0
   -1.7692   -2.2228    0.7352 C   0  0  0  0  0  0  0  0  0  0  0  0
   -0.8349   -2.8960    1.1395 O   0  0  0  0  0  0  0  0  0  0  0  0
   -1.5438   -0.9605    0.2271 N   0  0  0  0  0  0  0  0  0  0  0  0
   -2.3620   -0.3932    0.0108 H   0  0  0  0  0  0  0  0  0  0  0  0
   -0.2443   -0.2726    0.2390 C   0  0  1  0  0  0  0  0  0  0  0  0
    0.3976   -0.7546    0.9839 H   0  0  0  0  0  0  0  0  0  0  0  0
    0.4406   -0.4505   -1.1306 C   0  0  0  0  0  0  0  0  0  0  0  0
    1.4988   -0.1898   -1.0181 H   0  0  0  0  0  0  0  0  0  0  0  0
    0.3964   -1.5069   -1.4184 H   0  0  0  0  0  0  0  0  0  0  0  0
   -0.1636    0.4169   -2.2588 C   0  0  0  0  0  0  0  0  0  0  0  0
   -1.2223    0.1714   -2.3758 H   0  0  0  0  0  0  0  0  0  0  0  0
   -0.0941    1.4772   -2.0048 H   0  0  0  0  0  0  0  0  0  0  0  0
    0.5266    0.2269   -3.6088 C   0  0  0  0  0  0  0  0  0  0  0  0
    1.6669   -0.2016   -3.6515 O   0  0  0  0  0  0  0  0  0  0  0  0
   -0.1776    0.5562   -4.7121 O   0  0  0  0  0  0  0  0  0  0  0  0
    0.4190    0.3728   -5.4537 H   0  0  0  0  0  0  0  0  0  0  0  0
   -0.3803    1.1980    0.6870 C   0  0  0  0  0  0  0  0  0  0  0  0
   -1.3453    1.8599    0.3210 O   0  0  0  0  0  0  0  0  0  0  0  0
    0.5047    1.7411    1.5997 N   0  0  0  0  0  0  0  0  0  0  0  0
    1.2497    1.1437    1.9475 H   0  0  0  0  0  0  0  0  0  0  0  0
    0.3598    3.0827    2.1522 C   0  0  0  0  0  0  0  0  0  0  0  0
   -0.5713    3.1624    2.7231 H   0  0  0  0  0  0  0  0  0  0  0  0
    1.1963    3.3100    2.8201 H   0  0  0  0  0  0  0  0  0  0  0  0
    0.3464    3.8287    1.3504 H   0  0  0  0  0  0  0  0  0  0  0  0
  1  2  1  0  0  0  0
  2  3  1  0  0  0  0
  2  4  1  0  0  0  0
  2  5  1  0  0  0  0
  5  6  2  0  0  0  0
  5  7  1  0  0  0  0
  7  8  1  0  0  0  0
  7  9  1  0  0  0  0
  9 10  1  0  0  0  0
  9 11  1  0  0  0  0
  9 21  1  0  0  0  0
 11 12  1  0  0  0  0
 11 13  1  0  0  0  0
 11 14  1  0  0  0  0
 14 15  1  0  0  0  0
 14 16  1  0  0  0  0
 14 17  1  0  0  0  0
 17 18  2  0  0  0  0
 17 19  1  0  0  0  0
 19 20  1  0  0  0  0
 21 22  2  0  0  0  0
 21 23  1  0  0  0  0
 23 24  1  0  0  0  0
 23 25  1  0  0  0  0
 25 26  1  0  0  0  0
 25 27  1  0  0  0  0
 25 28  1  0  0  0  0
M  END
$$$$

  -OEChem-03222214033D

 28 27  0     1  0  0  0  0  0999 V2000
   -3.2047   -3.7617    1.1902 H   0  0  0  0  0  0  0  0  0  0  0  0
   -3.1970   -2.7542    0.7650 C   0  0  0  0  0  0  0  0  0  0  0  0
   -3.8256   -2.1070    1.3815 H   0  0  0  0  0  0  0  0  0  0  0  0
   -3.6087   -2.7955   -0.2463 H   0  0  0  0  0  0  0  0  0  0  0  0
   -1.7798   -2.2150    0.7251 C   0  0  0  0  0  0  0  0  0  0  0  0
   -0.8555   -2.8906    1.1478 O   0  0  0  0  0  0  0  0  0  0  0  0
   -1.5413   -0.9551    0.2174 N   0  0  0  0  0  0  0  0  0  0  0  0
   -2.3532   -0.3871   -0.0197 H   0  0  0  0  0  0  0  0  0  0  0  0
   -0.2375   -0.2755    0.2386 C   0  0  1  0  0  0  0  0  0  0  0  0
    0.3998   -0.7634    0.9836 H   0  0  0  0  0  0  0  0  0  0  0  0
    0.4490   -0.4451   -1.1304 C   0  0  0  0  0  0  0  0  0  0  0  0
    1.5133   -0.2060   -1.0314 H   0  0  0  0  0  0  0  0  0  0  0  0
    0.3808   -1.4989   -1.4237 H   0  0  0  0  0  0  0  0  0  0  0  0
   -0.1552    0.4405   -2.2419 C   0  0  0  0  0  0  0  0  0  0  0  0
   -1.2463    0.3869   -2.1981 H   0  0  0  0  0  0  0  0  0  0  0  0
    0.1317    1.4850   -2.0955 H   0  0  0  0  0  0  0  0  0  0  0  0
    0.2770    0.0079   -3.6401 C   0  0  0  0  0  0  0  0  0  0  0  0
    1.4193   -0.3789   -3.8149 O   0  0  0  0  0  0  0  0  0  0  0  0
   -0.6382    0.0792   -4.6300 O   0  0  0  0  0  0  0  0  0  0  0  0
   -0.1733   -0.2282   -5.4230 H   0  0  0  0  0  0  0  0  0  0  0  0
   -0.3662    1.1969    0.6835 C   0  0  0  0  0  0  0  0  0  0  0  0
   -1.3170    1.8692    0.2999 O   0  0  0  0  0  0  0  0  0  0  0  0
    0.5157    1.7347    1.6023 N   0  0  0  0  0  0  0  0  0  0  0  0
    1.2482    1.1295    1.9633 H   0  0  0  0  0  0  0  0  0  0  0  0
    0.3761    3.0778    2.1524 C   0  0  0  0  0  0  0  0  0  0  0  0
   -0.5609    3.1664    2.7122 H   0  0  0  0  0  0  0  0  0  0  0  0
    1.2065    3.2976    2.8304 H   0  0  0  0  0  0  0  0  0  0  0  0
    0.3792    3.8236    1.3504 H   0  0  0  0  0  0  0  0  0  0  0  0
  1  2  1  0  0  0  0
  2  3  1  0  0  0  0
  2  4  1  0  0  0  0
  2  5  1  0  0  0  0
  5  6  2  0  0  0  0
  5  7  1  0  0  0  0
  7  8  1  0  0  0  0
  7  9  1  0  0  0  0
  9 10  1  0  0  0  0
  9 11  1  0  0  0  0
  9 21  1  0  0  0  0
 11 12  1  0  0  0  0
 11 13  1  0  0  0  0
 11 14  1  0  0  0  0
 14 15  1  0  0  0  0
 14 16  1  0  0  0  0
 14 17  1  0  0  0  0
 17 18  2  0  0  0  0
 17 19  1  0  0  0  0
 19 20  1  0  0  0  0
 21 22  2  0  0  0  0
 21 23  1  0  0  0  0
 23 24  1  0  0  0  0
 23 25  1  0  0  0  0
 25 26  1  0  0  0  0
 25 27  1  0  0  0  0
 25 28  1  0  0  0  0
M  END
$$$$

  -OEChem-03222214033D

 28 27  0     1  0  0  0  0  0999 V2000
   -3.2268   -3.7495    1.1344 H   0  0  0  0  0  0  0  0  0  0  0  0
   -3.2124   -2.7384    0.7180 C   0  0  0  0  0  0  0  0  0  0  0  0
   -3.8467   -2.0949    1.3325 H   0  0  0  0  0  0  0  0  0  0  0  0
   -3.6125   -2.7701   -0.2984 H   0  0  0  0  0  0  0  0  0  0  0  0
   -1.7945   -2.2007    0.6983 C   0  0  0  0  0  0  0  0  0  0  0  0
   -0.8747   -2.8804    1.1245 O   0  0  0  0  0  0  0  0  0  0  0  0
   -1.5503   -0.9378    0.2017 N   0  0  0  0  0  0  0  0  0  0  0  0
   -2.3591   -0.3717   -0.0495 H   0  0  0  0  0  0  0  0  0  0  0  0
   -0.2458   -0.2607    0.2328 C   0  0  1  0  0  0  0  0  0  0  0  0
    0.3847   -0.7563    0.9784 H   0  0  0  0  0  0  0  0  0  0  0  0
    0.4480   -0.4281   -1.1324 C   0  0  0  0  0  0  0  0  0  0  0  0
    1.5141   -0.1977   -1.0339 H   0  0  0  0  0  0  0  0  0  0  0  0
    0.3743   -1.4829   -1.4218 H   0  0  0  0  0  0  0  0  0  0  0  0
   -0.1477    0.4603   -2.2461 C   0  0  0  0  0  0  0  0  0  0  0  0
   -1.2153    0.6156   -2.0683 H   0  0  0  0  0  0  0  0  0  0  0  0
    0.3322    1.4426   -2.2499 H   0  0  0  0  0  0  0  0  0  0  0  0
   -0.0070   -0.1817   -3.6213 C   0  0  0  0  0  0  0  0  0  0  0  0
    1.1045   -0.5075   -3.9985 O   0  0  0  0  0  0  0  0  0  0  0  0
   -1.1241   -0.3719   -4.3558 O   0  0  0  0  0  0  0  0  0  0  0  0
   -0.8160   -0.7880   -5.1753 H   0  0  0  0  0  0  0  0  0  0  0  0
   -0.3617    1.2101    0.6872 C   0  0  0  0  0  0  0  0  0  0  0  0
   -1.3042    1.8961    0.3081 O   0  0  0  0  0  0  0  0  0  0  0  0
    0.5252    1.7315    1.6109 N   0  0  0  0  0  0  0  0  0  0  0  0
    1.2473    1.1139    1.9713 H   0  0  0  0  0  0  0  0  0  0  0  0
    0.4027    3.0730    2.1693 C   0  0  0  0  0  0  0  0  0  0  0  0
   -0.5288    3.1677    2.7373 H   0  0  0  0  0  0  0  0  0  0  0  0
    1.2409    3.2812    2.8413 H   0  0  0  0  0  0  0  0  0  0  0  0
    0.4068    3.8233    1.3715 H   0  0  0  0  0  0  0  0  0  0  0  0
  1  2  1  0  0  0  0
  2  3  1  0  0  0  0
  2  4  1  0  0  0  0
  2  5  1  0  0  0  0
  5  6  2  0  0  0  0
  5  7  1  0  0  0  0
  7  8  1  0  0  0  0
  7  9  1  0  0  0  0
  9 10  1  0  0  0  0
  9 11  1  0  0  0  0
  9 21  1  0  0  0  0
 11 12  1  0  0  0  0
 11 13  1  0  0  0  0
 11 14  1  0  0  0  0
 14 15  1  0  0  0  0
 14 16  1  0  0  0  0
 14 17  1  0  0  0  0
 17 18  2  0  0  0  0
 17 19  1  0  0  0  0
 19 20  1  0  0  0  0
 21 22  2  0  0  0  0
 21 23  1  0  0  0  0
 23 24  1  0  0  0  0
 23 25  1  0  0  0  0
 25 26  1  0  0  0  0
 25 27  1  0  0  0  0
 25 28  1  0  0  0  0
M  END
$$$$

  -OEChem-03222214033D

 28 27  0     1  0  0  0  0  0999 V2000
   -3.2642   -3.7394    0.9781 H   0  0  0  0  0  0  0  0  0  0  0  0
   -3.2450   -2.7109    0.6072 C   0  0  0  0  0  0  0  0  0  0  0  0
   -3.9091   -2.1007    1.2240 H   0  0  0  0  0  0  0  0  0  0  0  0
   -3.6063   -2.7020   -0.4241 H   0  0  0  0  0  0  0  0  0  0  0  0
   -1.8327   -2.1609    0.6641 C   0  0  0  0  0  0  0  0  0  0  0  0
   -0.9271   -2.8426    1.1172 O   0  0  0  0  0  0  0  0  0  0  0  0
   -1.5732   -0.8934    0.1875 N   0  0  0  0  0  0  0  0  0  0  0  0
   -2.3699   -0.3361   -0.1159 H   0  0  0  0  0  0  0  0  0  0  0  0
   -0.2637   -0.2269    0.2300 C   0  0  1  0  0  0  0  0  0  0  0  0
    0.3567   -0.7376    0.9739 H   0  0  0  0  0  0  0  0  0  0  0  0
    0.4315   -0.4082   -1.1329 C   0  0  0  0  0  0  0  0  0  0  0  0
    1.4974   -0.1811   -1.0263 H   0  0  0  0  0  0  0  0  0  0  0  0
    0.3603   -1.4660   -1.4122 H   0  0  0  0  0  0  0  0  0  0  0  0
   -0.1451    0.4768   -2.2606 C   0  0  0  0  0  0  0  0  0  0  0  0
   -1.1260    0.8707   -1.9846 H   0  0  0  0  0  0  0  0  0  0  0  0
    0.5123    1.3308   -2.4460 H   0  0  0  0  0  0  0  0  0  0  0  0
   -0.3354   -0.3196   -3.5444 C   0  0  0  0  0  0  0  0  0  0  0  0
    0.5781   -0.3470   -4.3487 O   0  0  0  0  0  0  0  0  0  0  0  0
   -1.5020   -0.9778   -3.7217 O   0  0  0  0  0  0  0  0  0  0  0  0
   -1.4111   -1.4171   -4.5812 H   0  0  0  0  0  0  0  0  0  0  0  0
   -0.3502    1.2411    0.7033 C   0  0  0  0  0  0  0  0  0  0  0  0
   -1.2784    1.9531    0.3381 O   0  0  0  0  0  0  0  0  0  0  0  0
    0.5489    1.7334    1.6317 N   0  0  0  0  0  0  0  0  0  0  0  0
    1.2558    1.0961    1.9879 H   0  0  0  0  0  0  0  0  0  0  0  0
    0.4572    3.0730    2.2009 C   0  0  0  0  0  0  0  0  0  0  0  0
   -0.4644    3.1795    2.7828 H   0  0  0  0  0  0  0  0  0  0  0  0
    1.3084    3.2628    2.8618 H   0  0  0  0  0  0  0  0  0  0  0  0
    0.4623    3.8287    1.4080 H   0  0  0  0  0  0  0  0  0  0  0  0
  1  2  1  0  0  0  0
  2  3  1  0  0  0  0
  2  4  1  0  0  0  0
  2  5  1  0  0  0  0
  5  6  2  0  0  0  0
  5  7  1  0  0  0  0
  7  8  1  0  0  0  0
  7  9  1  0  0  0  0
  9 10  1  0  0  0  0
  9 11  1  0  0  0  0
  9 21  1  0  0  0  0
 11 12  1  0  0  0  0
 11 13  1  0  0  0  0
 11 14  1  0  0  0  0
 14 15  1  0  0  0  0
 14 16  1  0  0  0  0
 14 17  1  0  0  0  0
 17 18  2  0  0  0  0
 17 19  1  0  0  0  0
 19 20  1  0  0  0  0
 21 22  2  0  0  0  0
 21 23  1  0  0  0  0
 23 24  1  0  0  0  0
 23 25  1  0  0  0  0
 25 26  1  0  0  0  0
 25 27  1  0  0  0  0
 25 28  1  0  0  0  0
M  END
$$$$

  -OEChem-03222214033D

 28 27  0     1  0  0  0  0  0999 V2000
   -3.0243   -3.8917    1.0824 H   0  0  0  0  0  0  0  0  0  0  0  0
   -3.0792   -2.8696    0.6977 C   0  0  0  0  0  0  0  0  0  0  0  0
   -3.8049   -2.3075    1.2903 H   0  0  0  0  0  0  0  0  0  0  0  0
   -3.4144   -2.9019   -0.3422 H   0  0  0  0  0  0  0  0  0  0  0  0
   -1.7186   -2.2051    0.7788 C   0  0  0  0  0  0  0  0  0  0  0  0
   -0.7667   -2.8087    1.2496 O   0  0  0  0  0  0  0  0  0  0  0  0
   -1.5590   -0.9206    0.3047 N   0  0  0  0  0  0  0  0  0  0  0  0
   -2.3775   -0.4700   -0.1005 H   0  0  0  0  0  0  0  0  0  0  0  0
   -0.2856   -0.1900    0.2489 C   0  0  1  0  0  0  0  0  0  0  0  0
    0.4175   -0.6781    0.9314 H   0  0  0  0  0  0  0  0  0  0  0  0
    0.2867   -0.3594   -1.1723 C   0  0  0  0  0  0  0  0  0  0  0  0
    1.3405   -0.0629   -1.1519 H   0  0  0  0  0  0  0  0  0  0  0  0
    0.2668   -1.4231   -1.4375 H   0  0  0  0  0  0  0  0  0  0  0  0
   -0.4246    0.4813   -2.2597 C   0  0  0  0  0  0  0  0  0  0  0  0
   -1.2360    1.0835   -1.8479 H   0  0  0  0  0  0  0  0  0  0  0  0
    0.2902    1.1691   -2.7195 H   0  0  0  0  0  0  0  0  0  0  0  0
   -1.0218   -0.4082   -3.3427 C   0  0  0  0  0  0  0  0  0  0  0  0
   -2.0170   -1.0582   -3.0710 O   0  0  0  0  0  0  0  0  0  0  0  0
   -0.4099   -0.4528   -4.5454 O   0  0  0  0  0  0  0  0  0  0  0  0
   -0.9373   -1.0722   -5.0727 H   0  0  0  0  0  0  0  0  0  0  0  0
   -0.3816    1.2694    0.7491 C   0  0  0  0  0  0  0  0  0  0  0  0
   -1.3516    1.9651    0.4729 O   0  0  0  0  0  0  0  0  0  0  0  0
    0.5828    1.7760    1.6016 N   0  0  0  0  0  0  0  0  0  0  0  0
    1.3125    1.1412    1.9130 H   0  0  0  0  0  0  0  0  0  0  0  0
    0.4899    3.0946    2.2179 C   0  0  0  0  0  0  0  0  0  0  0  0
   -0.3886    3.1524    2.8694 H   0  0  0  0  0  0  0  0  0  0  0  0
    1.3817    3.2948    2.8199 H   0  0  0  0  0  0  0  0  0  0  0  0
    0.4110    3.8723    1.4505 H   0  0  0  0  0  0  0  0  0  0  0  0
  1  2  1  0  0  0  0
  2  3  1  0  0  0  0
  2  4  1  0  0  0  0
  2  5  1  0  0  0  0
  5  6  2  0  0  0  0
  5  7  1  0  0  0  0
  7  8  1  0  0  0  0
  7  9  1  0  0  0  0
  9 10  1  0  0  0  0
  9 11  1  0  0  0  0
  9 21  1  0  0  0  0
 11 12  1  0  0  0  0
 11 13  1  0  0  0  0
 11 14  1  0  0  0  0
 14 15  1  0  0  0  0
 14 16  1  0  0  0  0
 14 17  1  0  0  0  0
 17 18  2  0  0  0  0
 17 19  1  0  0  0  0
 19 20  1  0  0  0  0
 21 22  2  0  0  0  0
 21 23  1  0  0  0  0
 23 24  1  0  0  0  0
 23 25  1  0  0  0  0
 25 26  1  0  0  0  0
 25 27  1  0  0  0  0
 25 28  1  0  0  0  0
M  END
$$$$

  -OEChem-03222214033D

 28 27  0     1  0  0  0  0  0999 V2000
   -3.0444   -3.8744    1.0393 H   0  0  0  0  0  0  0  0  0  0  0  0
   -3.0875   -2.8579    0.6388 C   0  0  0  0  0  0  0  0  0  0  0  0
   -3.8540   -2.2971    1.1788 H   0  0  0  0  0  0  0  0  0  0  0  0
   -3.3594   -2.9057   -0.4188 H   0  0  0  0  0  0  0  0  0  0  0  0
   -1.7422   -2.1753    0.7938 C   0  0  0  0  0  0  0  0  0  0  0  0
   -0.8093   -2.7675    1.3149 O   0  0  0  0  0  0  0  0  0  0  0  0
   -1.5727   -0.8917    0.3218 N   0  0  0  0  0  0  0  0  0  0  0  0
   -2.3532   -0.4913   -0.1986 H   0  0  0  0  0  0  0  0  0  0  0  0
   -0.2917   -0.1756    0.2664 C   0  0  1  0  0  0  0  0  0  0  0  0
    0.4064   -0.6721    0.9480 H   0  0  0  0  0  0  0  0  0  0  0  0
    0.2770   -0.3564   -1.1567 C   0  0  0  0  0  0  0  0  0  0  0  0
    1.3292   -0.0549   -1.1252 H   0  0  0  0  0  0  0  0  0  0  0  0
    0.2644   -1.4193   -1.4247 H   0  0  0  0  0  0  0  0  0  0  0  0
   -0.4161    0.4840   -2.2568 C   0  0  0  0  0  0  0  0  0  0  0  0
   -1.0005    1.3112   -1.8532 H   0  0  0  0  0  0  0  0  0  0  0  0
    0.3498    0.9209   -2.9033 H   0  0  0  0  0  0  0  0  0  0  0  0
   -1.3268   -0.3768   -3.1256 C   0  0  0  0  0  0  0  0  0  0  0  0
   -2.3397   -0.8385   -2.6258 O   0  0  0  0  0  0  0  0  0  0  0  0
   -0.9595   -0.6048   -4.4050 O   0  0  0  0  0  0  0  0  0  0  0  0
   -1.6596   -1.1649   -4.7738 H   0  0  0  0  0  0  0  0  0  0  0  0
   -0.3683    1.2842    0.7702 C   0  0  0  0  0  0  0  0  0  0  0  0
   -1.3234    2.0001    0.4939 O   0  0  0  0  0  0  0  0  0  0  0  0
    0.6060    1.7722    1.6222 N   0  0  0  0  0  0  0  0  0  0  0  0
    1.3176    1.1196    1.9386 H   0  0  0  0  0  0  0  0  0  0  0  0
    0.5299    3.0849    2.2528 C   0  0  0  0  0  0  0  0  0  0  0  0
   -0.3354    3.1387    2.9217 H   0  0  0  0  0  0  0  0  0  0  0  0
    1.4341    3.2762    2.8387 H   0  0  0  0  0  0  0  0  0  0  0  0
    0.4385    3.8705    1.4953 H   0  0  0  0  0  0  0  0  0  0  0  0
  1  2  1  0  0  0  0
  2  3  1  0  0  0  0
  2  4  1  0  0  0  0
  2  5  1  0  0  0  0
  5  6  2  0  0  0  0
  5  7  1  0  0  0  0
  7  8  1  0  0  0  0
  7  9  1  0  0  0  0
  9 10  1  0  0  0  0
  9 11  1  0  0  0  0
  9 21  1  0  0  0  0
 11 12  1  0  0  0  0
 11 13  1  0  0  0  0
 11 14  1  0  0  0  0
 14 15  1  0  0  0  0
 14 16  1  0  0  0  0
 14 17  1  0  0  0  0
 17 18  2  0  0  0  0
 17 19  1  0  0  0  0
 19 20  1  0  0  0  0
 21 22  2  0  0  0  0
 21 23  1  0  0  0  0
 23 24  1  0  0  0  0
 23 25  1  0  0  0  0
 25 26  1  0  0  0  0
 25 27  1  0  0  0  0
 25 28  1  0  0  0  0
M  END
$$$$

  -OEChem-03222214033D

 28 27  0     1  0  0  0  0  0999 V2000
   -3.0791   -3.8630    1.0759 H   0  0  0  0  0  0  0  0  0  0  0  0
   -3.1051   -2.8566    0.6494 C   0  0  0  0  0  0  0  0  0  0  0  0
   -3.8704   -2.2731    1.1669 H   0  0  0  0  0  0  0  0  0  0  0  0
   -3.3665   -2.9268   -0.4094 H   0  0  0  0  0  0  0  0  0  0  0  0
   -1.7530   -2.1870    0.8025 C   0  0  0  0  0  0  0  0  0  0  0  0
   -0.8210   -2.7921    1.3103 O   0  0  0  0  0  0  0  0  0  0  0  0
   -1.5747   -0.9033    0.3361 N   0  0  0  0  0  0  0  0  0  0  0  0
   -2.3514   -0.4962   -0.1903 H   0  0  0  0  0  0  0  0  0  0  0  0
   -0.2923   -0.1925    0.2777 C   0  0  1  0  0  0  0  0  0  0  0  0
    0.4068   -0.6951    0.9537 H   0  0  0  0  0  0  0  0  0  0  0  0
    0.2815   -0.3477   -1.1489 C   0  0  0  0  0  0  0  0  0  0  0  0
    1.3334   -0.0472   -1.1048 H   0  0  0  0  0  0  0  0  0  0  0  0
    0.2663   -1.4047   -1.4383 H   0  0  0  0  0  0  0  0  0  0  0  0
   -0.3962    0.5062   -2.2480 C   0  0  0  0  0  0  0  0  0  0  0  0
   -0.7379    1.4723   -1.8734 H   0  0  0  0  0  0  0  0  0  0  0  0
    0.3434    0.7159   -3.0256 H   0  0  0  0  0  0  0  0  0  0  0  0
   -1.5646   -0.2172   -2.9145 C   0  0  0  0  0  0  0  0  0  0  0  0
   -2.6013   -0.3772   -2.2917 O   0  0  0  0  0  0  0  0  0  0  0  0
   -1.3833   -0.6678   -4.1744 O   0  0  0  0  0  0  0  0  0  0  0  0
   -2.2237   -1.0857   -4.4171 H   0  0  0  0  0  0  0  0  0  0  0  0
   -0.3719    1.2642    0.7897 C   0  0  0  0  0  0  0  0  0  0  0  0
   -1.3176    1.9864    0.4991 O   0  0  0  0  0  0  0  0  0  0  0  0
    0.6015    1.7532    1.6424 N   0  0  0  0  0  0  0  0  0  0  0  0
    1.3136    1.1027    1.9618 H   0  0  0  0  0  0  0  0  0  0  0  0
    0.5386    3.0791    2.2466 C   0  0  0  0  0  0  0  0  0  0  0  0
   -0.3426    3.1654    2.8912 H   0  0  0  0  0  0  0  0  0  0  0  0
    1.4312    3.2621    2.8528 H   0  0  0  0  0  0  0  0  0  0  0  0
    0.4847    3.8517    1.4721 H   0  0  0  0  0  0  0  0  0  0  0  0
  1  2  1  0  0  0  0
  2  3  1  0  0  0  0
  2  4  1  0  0  0  0
  2  5  1  0  0  0  0
  5  6  2  0  0  0  0
  5  7  1  0  0  0  0
  7  8  1  0  0  0  0
  7  9  1  0  0  0  0
  9 10  1  0  0  0  0
  9 11  1  0  0  0  0
  9 21  1  0  0  0  0
 11 12  1  0  0  0  0
 11 13  1  0  0  0  0
 11 14  1  0  0  0  0
 14 15  1  0  0  0  0
 14 16  1  0  0  0  0
 14 17  1  0  0  0  0
 17 18  2  0  0  0  0
 17 19  1  0  0  0  0
 19 20  1  0  0  0  0
 21 22  2  0  0  0  0
 21 23  1  0  0  0  0
 23 24  1  0  0  0  0
 23 25  1  0  0  0  0
 25 26  1  0  0  0  0
 25 27  1  0  0  0  0
 25 28  1  0  0  0  0
M  END
$$$$

  -OEChem-03222214033D

 28 27  0     1  0  0  0  0  0999 V2000
   -3.0841   -3.8943    1.2134 H   0  0  0  0  0  0  0  0  0  0  0  0
   -3.1057   -2.9058    0.7467 C   0  0  0  0  0  0  0  0  0  0  0  0
   -3.9182   -2.3237    1.1881 H   0  0  0  0  0  0  0  0  0  0  0  0
   -3.2928   -3.0247   -0.3235 H   0  0  0  0  0  0  0  0  0  0  0  0
   -1.7834   -2.1949    0.9625 C   0  0  0  0  0  0  0  0  0  0  0  0
   -0.8995   -2.7302    1.6147 O   0  0  0  0  0  0  0  0  0  0  0  0
   -1.5841   -0.9489    0.4079 N   0  0  0  0  0  0  0  0  0  0  0  0
   -2.2982   -0.6417   -0.2525 H   0  0  0  0  0  0  0  0  0  0  0  0
   -0.2852   -0.2692    0.3411 C   0  0  1  0  0  0  0  0  0  0  0  0
    0.3959   -0.7366    1.0593 H   0  0  0  0  0  0  0  0  0  0  0  0
    0.3271   -0.4726   -1.0681 C   0  0  0  0  0  0  0  0  0  0  0  0
    1.3866   -0.2057   -0.9999 H   0  0  0  0  0  0  0  0  0  0  0  0
    0.2842   -1.5372   -1.3236 H   0  0  0  0  0  0  0  0  0  0  0  0
   -0.2814    0.3558   -2.2334 C   0  0  0  0  0  0  0  0  0  0  0  0
   -0.3436    1.4107   -1.9585 H   0  0  0  0  0  0  0  0  0  0  0  0
    0.4131    0.2952   -3.0750 H   0  0  0  0  0  0  0  0  0  0  0  0
   -1.6459   -0.0748   -2.7786 C   0  0  0  0  0  0  0  0  0  0  0  0
   -2.2288   -1.0446   -2.3236 O   0  0  0  0  0  0  0  0  0  0  0  0
   -2.1394    0.6660   -3.7933 O   0  0  0  0  0  0  0  0  0  0  0  0
   -2.9966    0.2680   -4.0074 H   0  0  0  0  0  0  0  0  0  0  0  0
   -0.3838    1.2167    0.7528 C   0  0  0  0  0  0  0  0  0  0  0  0
   -1.2970    1.9228    0.3404 O   0  0  0  0  0  0  0  0  0  0  0  0
    0.5544    1.7656    1.6079 N   0  0  0  0  0  0  0  0  0  0  0  0
    1.2352    1.1343    2.0206 H   0  0  0  0  0  0  0  0  0  0  0  0
    0.4777    3.1359    2.1007 C   0  0  0  0  0  0  0  0  0  0  0  0
   -0.4435    3.2860    2.6736 H   0  0  0  0  0  0  0  0  0  0  0  0
    1.3302    3.3522    2.7516 H   0  0  0  0  0  0  0  0  0  0  0  0
    0.4928    3.8452    1.2664 H   0  0  0  0  0  0  0  0  0  0  0  0
  1  2  1  0  0  0  0
  2  3  1  0  0  0  0
  2  4  1  0  0  0  0
  2  5  1  0  0  0  0
  5  6  2  0  0  0  0
  5  7  1  0  0  0  0
  7  8  1  0  0  0  0
  7  9  1  0  0  0  0
  9 10  1  0  0  0  0
  9 11  1  0  0  0  0
  9 21  1  0  0  0  0
 11 12  1  0  0  0  0
 11 13  1  0  0  0  0
 11 14  1  0  0  0  0
 14 15  1  0  0  0  0
 14 16  1  0  0  0  0
 14 17  1  0  0  0  0
 17 18  2  0  0  0  0
 17 19  1  0  0  0  0
 19 20  1  0  0  0  0
 21 22  2  0  0  0  0
 21 23  1  0  0  0  0
 23 24  1  0  0  0  0
 23 25  1  0  0  0  0
 25 26  1  0  0  0  0
 25 27  1  0  0  0  0
 25 28  1  0  0  0  0
M  END
$$$$

  -OEChem-03222214033D

 28 27  0     1  0  0  0  0  0999 V2000
   -3.0822   -3.9114    1.2347 H   0  0  0  0  0  0  0  0  0  0  0  0
   -3.1088   -2.9198    0.7746 C   0  0  0  0  0  0  0  0  0  0  0  0
   -3.9194   -2.3419    1.2249 H   0  0  0  0  0  0  0  0  0  0  0  0
   -3.3023   -3.0324   -0.2952 H   0  0  0  0  0  0  0  0  0  0  0  0
   -1.7869   -2.2075    0.9866 C   0  0  0  0  0  0  0  0  0  0  0  0
   -0.9045   -2.7359    1.6463 O   0  0  0  0  0  0  0  0  0  0  0  0
   -1.5844   -0.9693    0.4162 N   0  0  0  0  0  0  0  0  0  0  0  0
   -2.3004   -0.6648   -0.2442 H   0  0  0  0  0  0  0  0  0  0  0  0
   -0.2853   -0.2894    0.3473 C   0  0  1  0  0  0  0  0  0  0  0  0
    0.3948   -0.7488    1.0718 H   0  0  0  0  0  0  0  0  0  0  0  0
    0.3360   -0.4861   -1.0584 C   0  0  0  0  0  0  0  0  0  0  0  0
    1.3998   -0.2371   -0.9887 H   0  0  0  0  0  0  0  0  0  0  0  0
    0.2734   -1.5493   -1.3152 H   0  0  0  0  0  0  0  0  0  0  0  0
   -0.2600    0.3411   -2.2312 C   0  0  0  0  0  0  0  0  0  0  0  0
   -0.1030    1.4041   -2.0295 H   0  0  0  0  0  0  0  0  0  0  0  0
    0.3056    0.1040   -3.1355 H   0  0  0  0  0  0  0  0  0  0  0  0
   -1.7400    0.1560   -2.5750 C   0  0  0  0  0  0  0  0  0  0  0  0
   -2.3236   -0.8723   -2.2742 O   0  0  0  0  0  0  0  0  0  0  0  0
   -2.3266    1.1581   -3.2631 O   0  0  0  0  0  0  0  0  0  0  0  0
   -3.2474    0.8834   -3.3847 H   0  0  0  0  0  0  0  0  0  0  0  0
   -0.3906    1.2007    0.7380 C   0  0  0  0  0  0  0  0  0  0  0  0
   -1.2924    1.9009    0.2922 O   0  0  0  0  0  0  0  0  0  0  0  0
    0.5398    1.7649    1.5915 N   0  0  0  0  0  0  0  0  0  0  0  0
    1.2154    1.1415    2.0242 H   0  0  0  0  0  0  0  0  0  0  0  0
    0.4593    3.1451    2.0550 C   0  0  0  0  0  0  0  0  0  0  0  0
   -0.4746    3.3116    2.6021 H   0  0  0  0  0  0  0  0  0  0  0  0
    1.2965    3.3699    2.7227 H   0  0  0  0  0  0  0  0  0  0  0  0
    0.4992    3.8375    1.2074 H   0  0  0  0  0  0  0  0  0  0  0  0
  1  2  1  0  0  0  0
  2  3  1  0  0  0  0
  2  4  1  0  0  0  0
  2  5  1  0  0  0  0
  5  6  2  0  0  0  0
  5  7  1  0  0  0  0
  7  8  1  0  0  0  0
  7  9  1  0  0  0  0
  9 10  1  0  0  0  0
  9 11  1  0  0  0  0
  9 21  1  0  0  0  0
 11 12  1  0  0  0  0
 11 13  1  0  0  0  0
 11 14  1  0  0  0  0
 14 15  1  0  0  0  0
 14 16  1  0  0  0  0
 14 17  1  0  0  0  0
 17 18  2  0  0  0  0
 17 19  1  0  0  0  0
 19 20  1  0  0  0  0
 21 22  2  0  0  0  0
 21 23  1  0  0  0  0
 23 24  1  0  0  0  0
 23 25  1  0  0  0  0
 25 26  1  0  0  0  0
 25 27  1  0  0  0  0
 25 28  1  0  0  0  0
M  END
$$$$

  -OEChem-03222214033D

 28 27  0     1  0  0  0  0  0999 V2000
   -3.0736   -3.9222    1.2611 H   0  0  0  0  0  0  0  0  0  0  0  0
   -3.1080   -2.9261    0.8111 C   0  0  0  0  0  0  0  0  0  0  0  0
   -3.8997   -2.3470    1.2926 H   0  0  0  0  0  0  0  0  0  0  0  0
   -3.3366   -3.0264   -0.2531 H   0  0  0  0  0  0  0  0  0  0  0  0
   -1.7754   -2.2243    0.9877 C   0  0  0  0  0  0  0  0  0  0  0  0
   -0.8751   -2.7639    1.6129 O   0  0  0  0  0  0  0  0  0  0  0  0
   -1.5843   -0.9819    0.4236 N   0  0  0  0  0  0  0  0  0  0  0  0
   -2.3221   -0.6583   -0.2044 H   0  0  0  0  0  0  0  0  0  0  0  0
   -0.2937   -0.2871    0.3464 C   0  0  1  0  0  0  0  0  0  0  0  0
    0.3925   -0.7439    1.0665 H   0  0  0  0  0  0  0  0  0  0  0  0
    0.3277   -0.4755   -1.0597 C   0  0  0  0  0  0  0  0  0  0  0  0
    1.3935   -0.2343   -0.9943 H   0  0  0  0  0  0  0  0  0  0  0  0
    0.2578   -1.5400   -1.3090 H   0  0  0  0  0  0  0  0  0  0  0  0
   -0.2649    0.3334   -2.2484 C   0  0  0  0  0  0  0  0  0  0  0  0
    0.0911    1.3637   -2.1581 H   0  0  0  0  0  0  0  0  0  0  0  0
    0.1428   -0.0665   -3.1801 H   0  0  0  0  0  0  0  0  0  0  0  0
   -1.7854    0.4130   -2.4096 C   0  0  0  0  0  0  0  0  0  0  0  0
   -2.4766   -0.5657   -2.1764 O   0  0  0  0  0  0  0  0  0  0  0  0
   -2.2883    1.5742   -2.8803 O   0  0  0  0  0  0  0  0  0  0  0  0
   -3.2496    1.4578   -2.8831 H   0  0  0  0  0  0  0  0  0  0  0  0
   -0.4003    1.2016    0.7434 C   0  0  0  0  0  0  0  0  0  0  0  0
   -1.3129    1.8989    0.3175 O   0  0  0  0  0  0  0  0  0  0  0  0
    0.5369    1.7672    1.5888 N   0  0  0  0  0  0  0  0  0  0  0  0
    1.2257    1.1474    2.0055 H   0  0  0  0  0  0  0  0  0  0  0  0
    0.4570    3.1460    2.0568 C   0  0  0  0  0  0  0  0  0  0  0  0
   -0.4825    3.3155    2.5934 H   0  0  0  0  0  0  0  0  0  0  0  0
    1.2868    3.3644    2.7358 H   0  0  0  0  0  0  0  0  0  0  0  0
    0.5103    3.8407    1.2120 H   0  0  0  0  0  0  0  0  0  0  0  0
  1  2  1  0  0  0  0
  2  3  1  0  0  0  0
  2  4  1  0  0  0  0
  2  5  1  0  0  0  0
  5  6  2  0  0  0  0
  5  7  1  0  0  0  0
  7  8  1  0  0  0  0
  7  9  1  0  0  0  0
  9 10  1  0  0  0  0
  9 11  1  0  0  0  0
  9 21  1  0  0  0  0
 11 12  1  0  0  0  0
 11 13  1  0  0  0  0
 11 14  1  0  0  0  0
 14 15  1  0  0  0  0
 14 16  1  0  0  0  0
 14 17  1  0  0  0  0
 17 18  2  0  0  0  0
 17 19  1  0  0  0  0
 19 20  1  0  0  0  0
 21 22  2  0  0  0  0
 21 23  1  0  0  0  0
 23 24  1  0  0  0  0
 23 25  1  0  0  0  0
 25 26  1  0  0  0  0
 25 27  1  0  0  0  0
 25 28  1  0  0  0  0
M  END
$$$$

  -OEChem-03222214033D

 28 27  0     1  0  0  0  0  0999 V2000
   -3.0611   -3.9215    1.2650 H   0  0  0  0  0  0  0  0  0  0  0  0
   -3.1073   -2.9203    0.8280 C   0  0  0  0  0  0  0  0  0  0  0  0
   -3.8814   -2.3452    1.3418 H   0  0  0  0  0  0  0  0  0  0  0  0
   -3.3707   -3.0076   -0.2290 H   0  0  0  0  0  0  0  0  0  0  0  0
   -1.7675   -2.2241    0.9690 C   0  0  0  0  0  0  0  0  0  0  0  0
   -0.8427   -2.7818    1.5403 O   0  0  0  0  0  0  0  0  0  0  0  0
   -1.5949   -0.9689    0.4279 N   0  0  0  0  0  0  0  0  0  0  0  0
   -2.3614   -0.6136   -0.1482 H   0  0  0  0  0  0  0  0  0  0  0  0
   -0.3152   -0.2546    0.3409 C   0  0  1  0  0  0  0  0  0  0  0  0
    0.3746   -0.7138    1.0564 H   0  0  0  0  0  0  0  0  0  0  0  0
    0.3090   -0.4528   -1.0617 C   0  0  0  0  0  0  0  0  0  0  0  0
    1.3738   -0.2068   -0.9979 H   0  0  0  0  0  0  0  0  0  0  0  0
    0.2470   -1.5227   -1.2885 H   0  0  0  0  0  0  0  0  0  0  0  0
   -0.2794    0.3164   -2.2796 C   0  0  0  0  0  0  0  0  0  0  0  0
    0.2583    1.2661   -2.3514 H   0  0  0  0  0  0  0  0  0  0  0  0
   -0.0608   -0.2443   -3.1917 H   0  0  0  0  0  0  0  0  0  0  0  0
   -1.7681    0.6717   -2.2949 C   0  0  0  0  0  0  0  0  0  0  0  0
   -2.5973   -0.1914   -2.0528 O   0  0  0  0  0  0  0  0  0  0  0  0
   -2.0953    1.9313   -2.6549 O   0  0  0  0  0  0  0  0  0  0  0  0
   -3.0551    1.9896   -2.5383 H   0  0  0  0  0  0  0  0  0  0  0  0
   -0.4083    1.2286    0.7642 C   0  0  0  0  0  0  0  0  0  0  0  0
   -1.3540    1.9260    0.4203 O   0  0  0  0  0  0  0  0  0  0  0  0
    0.5527    1.7735    1.5966 N   0  0  0  0  0  0  0  0  0  0  0  0
    1.2648    1.1480    1.9623 H   0  0  0  0  0  0  0  0  0  0  0  0
    0.4772    3.1335    2.1176 C   0  0  0  0  0  0  0  0  0  0  0  0
   -0.4189    3.2586    2.7349 H   0  0  0  0  0  0  0  0  0  0  0  0
    1.3553    3.3528    2.7327 H   0  0  0  0  0  0  0  0  0  0  0  0
    0.4427    3.8575    1.2965 H   0  0  0  0  0  0  0  0  0  0  0  0
  1  2  1  0  0  0  0
  2  3  1  0  0  0  0
  2  4  1  0  0  0  0
  2  5  1  0  0  0  0
  5  6  2  0  0  0  0
  5  7  1  0  0  0  0
  7  8  1  0  0  0  0
  7  9  1  0  0  0  0
  9 10  1  0  0  0  0
  9 11  1  0  0  0  0
  9 21  1  0  0  0  0
 11 12  1  0  0  0  0
 11 13  1  0  0  0  0
 11 14  1  0  0  0  0
 14 15  1  0  0  0  0
 14 16  1  0  0  0  0
 14 17  1  0  0  0  0
 17 18  2  0  0  0  0
 17 19  1  0  0  0  0
 19 20  1  0  0  0  0
 21 22  2  0  0  0  0
 21 23  1  0  0  0  0
 23 24  1  0  0  0  0
 23 25  1  0  0  0  0
 25 26  1  0  0  0  0
 25 27  1  0  0  0  0
 25 28  1  0  0  0  0
M  END
$$$$

  -OEChem-03222214033D

 28 27  0     1  0  0  0  0  0999 V2000
   -3.0429   -3.8923    1.2856 H   0  0  0  0  0  0  0  0  0  0  0  0
   -3.0999   -2.8887    0.8558 C   0  0  0  0  0  0  0  0  0  0  0  0
   -3.8398   -2.3073    1.4111 H   0  0  0  0  0  0  0  0  0  0  0  0
   -3.4180   -2.9678   -0.1867 H   0  0  0  0  0  0  0  0  0  0  0  0
   -1.7469   -2.2084    0.9316 C   0  0  0  0  0  0  0  0  0  0  0  0
   -0.7936   -2.7887    1.4286 O   0  0  0  0  0  0  0  0  0  0  0  0
   -1.5943   -0.9408    0.4143 N   0  0  0  0  0  0  0  0  0  0  0  0
   -2.3958   -0.5436   -0.0821 H   0  0  0  0  0  0  0  0  0  0  0  0
   -0.3279   -0.2051    0.3159 C   0  0  1  0  0  0  0  0  0  0  0  0
    0.3622   -0.6604    1.0336 H   0  0  0  0  0  0  0  0  0  0  0  0
    0.3042   -0.4370   -1.0780 C   0  0  0  0  0  0  0  0  0  0  0  0
    1.3627   -0.1644   -1.0149 H   0  0  0  0  0  0  0  0  0  0  0  0
    0.2722   -1.5157   -1.2678 H   0  0  0  0  0  0  0  0  0  0  0  0
   -0.2886    0.2753   -2.3275 C   0  0  0  0  0  0  0  0  0  0  0  0
    0.3964    1.0812   -2.6058 H   0  0  0  0  0  0  0  0  0  0  0  0
   -0.3062   -0.4300   -3.1622 H   0  0  0  0  0  0  0  0  0  0  0  0
   -1.6777    0.9024   -2.2210 C   0  0  0  0  0  0  0  0  0  0  0  0
   -2.6344    0.1855   -1.9706 O   0  0  0  0  0  0  0  0  0  0  0  0
   -1.7806    2.2285   -2.4533 O   0  0  0  0  0  0  0  0  0  0  0  0
   -2.6922    2.4560   -2.2152 H   0  0  0  0  0  0  0  0  0  0  0  0
   -0.4157    1.2722    0.7666 C   0  0  0  0  0  0  0  0  0  0  0  0
   -1.4126    1.9475    0.5430 O   0  0  0  0  0  0  0  0  0  0  0  0
    0.5666    1.8018    1.5842 N   0  0  0  0  0  0  0  0  0  0  0  0
    1.3179    1.1831    1.8754 H   0  0  0  0  0  0  0  0  0  0  0  0
    0.4732    3.1258    2.1889 C   0  0  0  0  0  0  0  0  0  0  0  0
   -0.3846    3.1773    2.8678 H   0  0  0  0  0  0  0  0  0  0  0  0
    1.3804    3.3467    2.7590 H   0  0  0  0  0  0  0  0  0  0  0  0
    0.3572    3.8932    1.4162 H   0  0  0  0  0  0  0  0  0  0  0  0
  1  2  1  0  0  0  0
  2  3  1  0  0  0  0
  2  4  1  0  0  0  0
  2  5  1  0  0  0  0
  5  6  2  0  0  0  0
  5  7  1  0  0  0  0
  7  8  1  0  0  0  0
  7  9  1  0  0  0  0
  9 10  1  0  0  0  0
  9 11  1  0  0  0  0
  9 21  1  0  0  0  0
 11 12  1  0  0  0  0
 11 13  1  0  0  0  0
 11 14  1  0  0  0  0
 14 15  1  0  0  0  0
 14 16  1  0  0  0  0
 14 17  1  0  0  0  0
 17 18  2  0  0  0  0
 17 19  1  0  0  0  0
 19 20  1  0  0  0  0
 21 22  2  0  0  0  0
 21 23  1  0  0  0  0
 23 24  1  0  0  0  0
 23 25  1  0  0  0  0
 25 26  1  0  0  0  0
 25 27  1  0  0  0  0
 25 28  1  0  0  0  0
M  END
$$$$

  -OEChem-03222214033D

 28 27  0     1  0  0  0  0  0999 V2000
   -2.8035   -3.8021    1.7945 H   0  0  0  0  0  0  0  0  0  0  0  0
   -2.9416   -2.8212    1.3315 C   0  0  0  0  0  0  0  0  0  0  0  0
   -3.5827   -2.2140    1.9750 H   0  0  0  0  0  0  0  0  0  0  0  0
   -3.4303   -2.9534    0.3631 H   0  0  0  0  0  0  0  0  0  0  0  0
   -1.6012   -2.1370    1.1438 C   0  0  0  0  0  0  0  0  0  0  0  0
   -0.5722   -2.6975    1.4894 O   0  0  0  0  0  0  0  0  0  0  0  0
   -1.5472   -0.8916    0.5566 N   0  0  0  0  0  0  0  0  0  0  0  0
   -2.4263   -0.4908    0.2222 H   0  0  0  0  0  0  0  0  0  0  0  0
   -0.3251   -0.1335    0.2614 C   0  0  1  0  0  0  0  0  0  0  0  0
    0.4446   -0.5294    0.9320 H   0  0  0  0  0  0  0  0  0  0  0  0
    0.1734   -0.4890   -1.1611 C   0  0  0  0  0  0  0  0  0  0  0  0
    1.2138   -0.1552   -1.2301 H   0  0  0  0  0  0  0  0  0  0  0  0
    0.1917   -1.5812   -1.2442 H   0  0  0  0  0  0  0  0  0  0  0  0
   -0.5712    0.0735   -2.4035 C   0  0  0  0  0  0  0  0  0  0  0  0
    0.1384    0.6463   -3.0067 H   0  0  0  0  0  0  0  0  0  0  0  0
   -0.9066   -0.7661   -3.0186 H   0  0  0  0  0  0  0  0  0  0  0  0
   -1.7823    0.9622   -2.1527 C   0  0  0  0  0  0  0  0  0  0  0  0
   -2.8182    0.4361   -1.7766 O   0  0  0  0  0  0  0  0  0  0  0  0
   -1.6461    2.2890   -2.3594 O   0  0  0  0  0  0  0  0  0  0  0  0
   -2.4516    2.6795   -1.9847 H   0  0  0  0  0  0  0  0  0  0  0  0
   -0.3707    1.3663    0.6465 C   0  0  0  0  0  0  0  0  0  0  0  0
   -1.4107    2.0106    0.5835 O   0  0  0  0  0  0  0  0  0  0  0  0
    0.7085    1.9390    1.2966 N   0  0  0  0  0  0  0  0  0  0  0  0
    1.5163    1.3491    1.4744 H   0  0  0  0  0  0  0  0  0  0  0  0
    0.6846    3.2853    1.8578 C   0  0  0  0  0  0  0  0  0  0  0  0
   -0.0775    3.3610    2.6407 H   0  0  0  0  0  0  0  0  0  0  0  0
    1.6567    3.5305    2.2964 H   0  0  0  0  0  0  0  0  0  0  0  0
    0.4634    4.0219    1.0781 H   0  0  0  0  0  0  0  0  0  0  0  0
  1  2  1  0  0  0  0
  2  3  1  0  0  0  0
  2  4  1  0  0  0  0
  2  5  1  0  0  0  0
  5  6  2  0  0  0  0
  5  7  1  0  0  0  0
  7  8  1  0  0  0  0
  7  9  1  0  0  0  0
  9 10  1  0  0  0  0
  9 11  1  0  0  0  0
  9 21  1  0  0  0  0
 11 12  1  0  0  0  0
 11 13  1  0  0  0  0
 11 14  1  0  0  0  0
 14 15  1  0  0  0  0
 14 16  1  0  0  0  0
 14 17  1  0  0  0  0
 17 18  2  0  0  0  0
 17 19  1  0  0  0  0
 19 20  1  0  0  0  0
 21 22  2  0  0  0  0
 21 23  1  0  0  0  0
 23 24  1  0  0  0  0
 23 25  1  0  0  0  0
 25 26  1  0  0  0  0
 25 27  1  0  0  0  0
 25 28  1  0  0  0  0
M  END
$$$$

  -OEChem-03222214033D

 28 27  0     1  0  0  0  0  0999 V2000
   -3.0174   -3.8273    1.4054 H   0  0  0  0  0  0  0  0  0  0  0  0
   -3.0987   -2.8319    0.9599 C   0  0  0  0  0  0  0  0  0  0  0  0
   -3.7802   -2.2292    1.5650 H   0  0  0  0  0  0  0  0  0  0  0  0
   -3.5070   -2.9285   -0.0491 H   0  0  0  0  0  0  0  0  0  0  0  0
   -1.7351   -2.1703    0.9038 C   0  0  0  0  0  0  0  0  0  0  0  0
   -0.7473   -2.7644    1.3076 O   0  0  0  0  0  0  0  0  0  0  0  0
   -1.6129   -0.9002    0.3822 N   0  0  0  0  0  0  0  0  0  0  0  0
   -2.4659   -0.4358    0.0682 H   0  0  0  0  0  0  0  0  0  0  0  0
   -0.3699   -0.1226    0.3048 C   0  0  1  0  0  0  0  0  0  0  0  0
    0.2821   -0.5340    1.0824 H   0  0  0  0  0  0  0  0  0  0  0  0
    0.3718   -0.4424   -1.0176 C   0  0  0  0  0  0  0  0  0  0  0  0
    1.3930   -0.0665   -0.8962 H   0  0  0  0  0  0  0  0  0  0  0  0
    0.4502   -1.5306   -1.1162 H   0  0  0  0  0  0  0  0  0  0  0  0
   -0.1573    0.1305   -2.3589 C   0  0  0  0  0  0  0  0  0  0  0  0
    0.6892    0.4756   -2.9584 H   0  0  0  0  0  0  0  0  0  0  0  0
   -0.6290   -0.6862   -2.9132 H   0  0  0  0  0  0  0  0  0  0  0  0
   -1.1728    1.2588   -2.2832 C   0  0  0  0  0  0  0  0  0  0  0  0
   -2.3562    0.9644   -2.2804 O   0  0  0  0  0  0  0  0  0  0  0  0
   -0.7132    2.5261   -2.2133 O   0  0  0  0  0  0  0  0  0  0  0  0
   -1.5012    3.0564   -2.0108 H   0  0  0  0  0  0  0  0  0  0  0  0
   -0.4983    1.3578    0.7415 C   0  0  0  0  0  0  0  0  0  0  0  0
   -1.5445    1.9753    0.5805 O   0  0  0  0  0  0  0  0  0  0  0  0
    0.4607    1.9136    1.5701 N   0  0  0  0  0  0  0  0  0  0  0  0
    1.2650    1.3412    1.8100 H   0  0  0  0  0  0  0  0  0  0  0  0
    0.3247    3.2289    2.1855 C   0  0  0  0  0  0  0  0  0  0  0  0
   -0.5509    3.2562    2.8428 H   0  0  0  0  0  0  0  0  0  0  0  0
    1.2120    3.4617    2.7820 H   0  0  0  0  0  0  0  0  0  0  0  0
    0.2132    4.0012    1.4171 H   0  0  0  0  0  0  0  0  0  0  0  0
  1  2  1  0  0  0  0
  2  3  1  0  0  0  0
  2  4  1  0  0  0  0
  2  5  1  0  0  0  0
  5  6  2  0  0  0  0
  5  7  1  0  0  0  0
  7  8  1  0  0  0  0
  7  9  1  0  0  0  0
  9 10  1  0  0  0  0
  9 11  1  0  0  0  0
  9 21  1  0  0  0  0
 11 12  1  0  0  0  0
 11 13  1  0  0  0  0
 11 14  1  0  0  0  0
 14 15  1  0  0  0  0
 14 16  1  0  0  0  0
 14 17  1  0  0  0  0
 17 18  2  0  0  0  0
 17 19  1  0  0  0  0
 19 20  1  0  0  0  0
 21 22  2  0  0  0  0
 21 23  1  0  0  0  0
 23 24  1  0  0  0  0
 23 25  1  0  0  0  0
 25 26  1  0  0  0  0
 25 27  1  0  0  0  0
 25 28  1  0  0  0  0
M  END
$$$$

  -OEChem-03222214033D

 28 27  0     1  0  0  0  0  0999 V2000
   -3.3524   -3.6632    1.0177 H   0  0  0  0  0  0  0  0  0  0  0  0
   -3.3195   -2.6448    0.6206 C   0  0  0  0  0  0  0  0  0  0  0  0
   -3.9561   -2.0059    1.2374 H   0  0  0  0  0  0  0  0  0  0  0  0
   -3.7040   -2.6521   -0.4022 H   0  0  0  0  0  0  0  0  0  0  0  0
   -1.8952   -2.1233    0.6342 C   0  0  0  0  0  0  0  0  0  0  0  0
   -0.9840   -2.8393    1.0188 O   0  0  0  0  0  0  0  0  0  0  0  0
   -1.6319   -0.8404    0.2032 N   0  0  0  0  0  0  0  0  0  0  0  0
   -2.4333   -0.2504   -0.0193 H   0  0  0  0  0  0  0  0  0  0  0  0
   -0.3320   -0.1645    0.3112 C   0  0  1  0  0  0  0  0  0  0  0  0
    0.2100   -0.6633    1.1216 H   0  0  0  0  0  0  0  0  0  0  0  0
    0.5117   -0.4489   -0.9585 C   0  0  0  0  0  0  0  0  0  0  0  0
    1.5392   -0.1637   -0.7091 H   0  0  0  0  0  0  0  0  0  0  0  0
    0.5204   -1.5297   -1.1370 H   0  0  0  0  0  0  0  0  0  0  0  0
    0.1735    0.2626   -2.2932 C   0  0  0  0  0  0  0  0  0  0  0  0
    1.0746    0.3217   -2.9098 H   0  0  0  0  0  0  0  0  0  0  0  0
   -0.5442   -0.3621   -2.8320 H   0  0  0  0  0  0  0  0  0  0  0  0
   -0.4407    1.6491   -2.2019 C   0  0  0  0  0  0  0  0  0  0  0  0
    0.3047    2.5864   -1.9759 O   0  0  0  0  0  0  0  0  0  0  0  0
   -1.7772    1.7703   -2.3534 O   0  0  0  0  0  0  0  0  0  0  0  0
   -1.9698    2.6855   -2.0939 H   0  0  0  0  0  0  0  0  0  0  0  0
   -0.4556    1.2909    0.8242 C   0  0  0  0  0  0  0  0  0  0  0  0
   -1.4790    1.9311    0.6025 O   0  0  0  0  0  0  0  0  0  0  0  0
    0.4084    1.7596    1.7974 N   0  0  0  0  0  0  0  0  0  0  0  0
    1.2239    1.1948    2.0157 H   0  0  0  0  0  0  0  0  0  0  0  0
    0.2739    3.0711    2.4206 C   0  0  0  0  0  0  0  0  0  0  0  0
   -0.6812    3.1484    2.9508 H   0  0  0  0  0  0  0  0  0  0  0  0
    1.0816    3.2329    3.1409 H   0  0  0  0  0  0  0  0  0  0  0  0
    0.3217    3.8611    1.6635 H   0  0  0  0  0  0  0  0  0  0  0  0
  1  2  1  0  0  0  0
  2  3  1  0  0  0  0
  2  4  1  0  0  0  0
  2  5  1  0  0  0  0
  5  6  2  0  0  0  0
  5  7  1  0  0  0  0
  7  8  1  0  0  0  0
  7  9  1  0  0  0  0
  9 10  1  0  0  0  0
  9 11  1  0  0  0  0
  9 21  1  0  0  0  0
 11 12  1  0  0  0  0
 11 13  1  0  0  0  0
 11 14  1  0  0  0  0
 14 15  1  0  0  0  0
 14 16  1  0  0  0  0
 14 17  1  0  0  0  0
 17 18  2  0  0  0  0
 17 19  1  0  0  0  0
 19 20  1  0  0  0  0
 21 22  2  0  0  0  0
 21 23  1  0  0  0  0
 23 24  1  0  0  0  0
 23 25  1  0  0  0  0
 25 26  1  0  0  0  0
 25 27  1  0  0  0  0
 25 28  1  0  0  0  0
M  END
$$$$

  -OEChem-03222214033D

 28 27  0     1  0  0  0  0  0999 V2000
   -3.2456   -3.7342    1.0848 H   0  0  0  0  0  0  0  0  0  0  0  0
   -3.2405   -2.7163    0.6850 C   0  0  0  0  0  0  0  0  0  0  0  0
   -3.8552   -2.0825    1.3289 H   0  0  0  0  0  0  0  0  0  0  0  0
   -3.6705   -2.7299   -0.3194 H   0  0  0  0  0  0  0  0  0  0  0  0
   -1.8217   -2.1820    0.6338 C   0  0  0  0  0  0  0  0  0  0  0  0
   -0.8867   -2.8945    0.9635 O   0  0  0  0  0  0  0  0  0  0  0  0
   -1.5907   -0.8909    0.2081 N   0  0  0  0  0  0  0  0  0  0  0  0
   -2.4077   -0.3008    0.0533 H   0  0  0  0  0  0  0  0  0  0  0  0
   -0.2951   -0.2014    0.2854 C   0  0  1  0  0  0  0  0  0  0  0  0
    0.2920   -0.7047    1.0610 H   0  0  0  0  0  0  0  0  0  0  0  0
    0.4885   -0.4296   -1.0327 C   0  0  0  0  0  0  0  0  0  0  0  0
    1.5280   -0.1507   -0.8303 H   0  0  0  0  0  0  0  0  0  0  0  0
    0.4866   -1.5018   -1.2564 H   0  0  0  0  0  0  0  0  0  0  0  0
    0.0649    0.3360   -2.3107 C   0  0  0  0  0  0  0  0  0  0  0  0
    0.8391    0.2184   -3.0734 H   0  0  0  0  0  0  0  0  0  0  0  0
   -0.8447   -0.1320   -2.6968 H   0  0  0  0  0  0  0  0  0  0  0  0
   -0.2245    1.8218   -2.1567 C   0  0  0  0  0  0  0  0  0  0  0  0
    0.6727    2.5395   -1.7475 O   0  0  0  0  0  0  0  0  0  0  0  0
   -1.4556    2.2713   -2.4807 O   0  0  0  0  0  0  0  0  0  0  0  0
   -1.4669    3.1963   -2.1902 H   0  0  0  0  0  0  0  0  0  0  0  0
   -0.4448    1.2420    0.8199 C   0  0  0  0  0  0  0  0  0  0  0  0
   -1.4768    1.8672    0.5946 O   0  0  0  0  0  0  0  0  0  0  0  0
    0.4263    1.7265    1.7783 N   0  0  0  0  0  0  0  0  0  0  0  0
    1.2732    1.1936    1.9520 H   0  0  0  0  0  0  0  0  0  0  0  0
    0.3049    3.0570    2.3616 C   0  0  0  0  0  0  0  0  0  0  0  0
   -0.6576    3.1664    2.8724 H   0  0  0  0  0  0  0  0  0  0  0  0
    1.1027    3.2244    3.0917 H   0  0  0  0  0  0  0  0  0  0  0  0
    0.3808    3.8234    1.5829 H   0  0  0  0  0  0  0  0  0  0  0  0
  1  2  1  0  0  0  0
  2  3  1  0  0  0  0
  2  4  1  0  0  0  0
  2  5  1  0  0  0  0
  5  6  2  0  0  0  0
  5  7  1  0  0  0  0
  7  8  1  0  0  0  0
  7  9  1  0  0  0  0
  9 10  1  0  0  0  0
  9 11  1  0  0  0  0
  9 21  1  0  0  0  0
 11 12  1  0  0  0  0
 11 13  1  0  0  0  0
 11 14  1  0  0  0  0
 14 15  1  0  0  0  0
 14 16  1  0  0  0  0
 14 17  1  0  0  0  0
 17 18  2  0  0  0  0
 17 19  1  0  0  0  0
 19 20  1  0  0  0  0
 21 22  2  0  0  0  0
 21 23  1  0  0  0  0
 23 24  1  0  0  0  0
 23 25  1  0  0  0  0
 25 26  1  0  0  0  0
 25 27  1  0  0  0  0
 25 28  1  0  0  0  0
M  END
$$$$

  -OEChem-03222214033D

 28 27  0     1  0  0  0  0  0999 V2000
   -3.2019   -3.7465    1.2085 H   0  0  0  0  0  0  0  0  0  0  0  0
   -3.2009   -2.7424    0.7751 C   0  0  0  0  0  0  0  0  0  0  0  0
   -3.8080   -2.0870    1.4043 H   0  0  0  0  0  0  0  0  0  0  0  0
   -3.6417   -2.7885   -0.2235 H   0  0  0  0  0  0  0  0  0  0  0  0
   -1.7829   -2.2109    0.6900 C   0  0  0  0  0  0  0  0  0  0  0  0
   -0.8432   -2.9153    1.0234 O   0  0  0  0  0  0  0  0  0  0  0  0
   -1.5587   -0.9307    0.2294 N   0  0  0  0  0  0  0  0  0  0  0  0
   -2.3778   -0.3416    0.0815 H   0  0  0  0  0  0  0  0  0  0  0  0
   -0.2613   -0.2413    0.2759 C   0  0  1  0  0  0  0  0  0  0  0  0
    0.3540   -0.7313    1.0382 H   0  0  0  0  0  0  0  0  0  0  0  0
    0.4713   -0.4540   -1.0716 C   0  0  0  0  0  0  0  0  0  0  0  0
    1.5263   -0.2029   -0.9190 H   0  0  0  0  0  0  0  0  0  0  0  0
    0.4328   -1.5207   -1.3173 H   0  0  0  0  0  0  0  0  0  0  0  0
   -0.0273    0.3479   -2.2981 C   0  0  0  0  0  0  0  0  0  0  0  0
    0.5615    0.0626   -3.1733 H   0  0  0  0  0  0  0  0  0  0  0  0
   -1.0651    0.0659   -2.4954 H   0  0  0  0  0  0  0  0  0  0  0  0
    0.0280    1.8680   -2.1796 C   0  0  0  0  0  0  0  0  0  0  0  0
    1.0137    2.3778   -1.6728 O   0  0  0  0  0  0  0  0  0  0  0  0
   -1.0086    2.5788   -2.6713 O   0  0  0  0  0  0  0  0  0  0  0  0
   -0.8174    3.4985   -2.4332 H   0  0  0  0  0  0  0  0  0  0  0  0
   -0.4257    1.2104    0.7781 C   0  0  0  0  0  0  0  0  0  0  0  0
   -1.4490    1.8302    0.5039 O   0  0  0  0  0  0  0  0  0  0  0  0
    0.4415    1.7317    1.7200 N   0  0  0  0  0  0  0  0  0  0  0  0
    1.2977    1.2155    1.8993 H   0  0  0  0  0  0  0  0  0  0  0  0
    0.3223    3.0883    2.2399 C   0  0  0  0  0  0  0  0  0  0  0  0
   -0.6539    3.2340    2.7145 H   0  0  0  0  0  0  0  0  0  0  0  0
    1.0988    3.2768    2.9874 H   0  0  0  0  0  0  0  0  0  0  0  0
    0.4344    3.8179    1.4309 H   0  0  0  0  0  0  0  0  0  0  0  0
  1  2  1  0  0  0  0
  2  3  1  0  0  0  0
  2  4  1  0  0  0  0
  2  5  1  0  0  0  0
  5  6  2  0  0  0  0
  5  7  1  0  0  0  0
  7  8  1  0  0  0  0
  7  9  1  0  0  0  0
  9 10  1  0  0  0  0
  9 11  1  0  0  0  0
  9 21  1  0  0  0  0
 11 12  1  0  0  0  0
 11 13  1  0  0  0  0
 11 14  1  0  0  0  0
 14 15  1  0  0  0  0
 14 16  1  0  0  0  0
 14 17  1  0  0  0  0
 17 18  2  0  0  0  0
 17 19  1  0  0  0  0
 19 20  1  0  0  0  0
 21 22  2  0  0  0  0
 21 23  1  0  0  0  0
 23 24  1  0  0  0  0
 23 25  1  0  0  0  0
 25 26  1  0  0  0  0
 25 27  1  0  0  0  0
 25 28  1  0  0  0  0
M  END
$$$$

  -OEChem-03222214033D

 28 27  0     1  0  0  0  0  0999 V2000
   -3.2050   -3.7602    1.2535 H   0  0  0  0  0  0  0  0  0  0  0  0
   -3.1970   -2.7662    0.7978 C   0  0  0  0  0  0  0  0  0  0  0  0
   -3.8099   -2.0960    1.4054 H   0  0  0  0  0  0  0  0  0  0  0  0
   -3.6267   -2.8340   -0.2045 H   0  0  0  0  0  0  0  0  0  0  0  0
   -1.7769   -2.2395    0.7162 C   0  0  0  0  0  0  0  0  0  0  0  0
   -0.8430   -2.9369    1.0788 O   0  0  0  0  0  0  0  0  0  0  0  0
   -1.5454   -0.9711    0.2275 N   0  0  0  0  0  0  0  0  0  0  0  0
   -2.3618   -0.3841    0.0593 H   0  0  0  0  0  0  0  0  0  0  0  0
   -0.2462   -0.2840    0.2726 C   0  0  1  0  0  0  0  0  0  0  0  0
    0.3754   -0.7651    1.0352 H   0  0  0  0  0  0  0  0  0  0  0  0
    0.4766   -0.4707   -1.0804 C   0  0  0  0  0  0  0  0  0  0  0  0
    1.5408   -0.2510   -0.9447 H   0  0  0  0  0  0  0  0  0  0  0  0
    0.4087   -1.5285   -1.3561 H   0  0  0  0  0  0  0  0  0  0  0  0
   -0.0669    0.3772   -2.2558 C   0  0  0  0  0  0  0  0  0  0  0  0
    0.3183   -0.0327   -3.1925 H   0  0  0  0  0  0  0  0  0  0  0  0
   -1.1566    0.2934   -2.2850 H   0  0  0  0  0  0  0  0  0  0  0  0
    0.3007    1.8622   -2.2288 C   0  0  0  0  0  0  0  0  0  0  0  0
    1.2997    2.2235   -1.6280 O   0  0  0  0  0  0  0  0  0  0  0  0
   -0.4973    2.7086   -2.9129 O   0  0  0  0  0  0  0  0  0  0  0  0
   -0.1338    3.5900   -2.7408 H   0  0  0  0  0  0  0  0  0  0  0  0
   -0.4204    1.1775    0.7387 C   0  0  0  0  0  0  0  0  0  0  0  0
   -1.4203    1.8018    0.3966 O   0  0  0  0  0  0  0  0  0  0  0  0
    0.4303    1.7263    1.6796 N   0  0  0  0  0  0  0  0  0  0  0  0
    1.2817    1.2132    1.8889 H   0  0  0  0  0  0  0  0  0  0  0  0
    0.3216    3.1086    2.1287 C   0  0  0  0  0  0  0  0  0  0  0  0
   -0.6653    3.2946    2.5656 H   0  0  0  0  0  0  0  0  0  0  0  0
    1.0793    3.3203    2.8892 H   0  0  0  0  0  0  0  0  0  0  0  0
    0.4707    3.7953    1.2886 H   0  0  0  0  0  0  0  0  0  0  0  0
  1  2  1  0  0  0  0
  2  3  1  0  0  0  0
  2  4  1  0  0  0  0
  2  5  1  0  0  0  0
  5  6  2  0  0  0  0
  5  7  1  0  0  0  0
  7  8  1  0  0  0  0
  7  9  1  0  0  0  0
  9 10  1  0  0  0  0
  9 11  1  0  0  0  0
  9 21  1  0  0  0  0
 11 12  1  0  0  0  0
 11 13  1  0  0  0  0
 11 14  1  0  0  0  0
 14 15  1  0  0  0  0
 14 16  1  0  0  0  0
 14 17  1  0  0  0  0
 17 18  2  0  0  0  0
 17 19  1  0  0  0  0
 19 20  1  0  0  0  0
 21 22  2  0  0  0  0
 21 23  1  0  0  0  0
 23 24  1  0  0  0  0
 23 25  1  0  0  0  0
 25 26  1  0  0  0  0
 25 27  1  0  0  0  0
 25 28  1  0  0  0  0
M  END
$$$$

  -OEChem-03222214033D

 28 27  0     1  0  0  0  0  0999 V2000
   -3.1980   -3.7770    1.2904 H   0  0  0  0  0  0  0  0  0  0  0  0
   -3.1916   -2.7952    0.8089 C   0  0  0  0  0  0  0  0  0  0  0  0
   -3.8169   -2.1140    1.3910 H   0  0  0  0  0  0  0  0  0  0  0  0
   -3.6084   -2.8925   -0.1965 H   0  0  0  0  0  0  0  0  0  0  0  0
   -1.7745   -2.2602    0.7312 C   0  0  0  0  0  0  0  0  0  0  0  0
   -0.8389   -2.9499    1.1040 O   0  0  0  0  0  0  0  0  0  0  0  0
   -1.5466   -0.9962    0.2298 N   0  0  0  0  0  0  0  0  0  0  0  0
   -2.3649   -0.4159    0.0499 H   0  0  0  0  0  0  0  0  0  0  0  0
   -0.2493   -0.3045    0.2713 C   0  0  1  0  0  0  0  0  0  0  0  0
    0.3778   -0.7830    1.0309 H   0  0  0  0  0  0  0  0  0  0  0  0
    0.4704   -0.4682   -1.0833 C   0  0  0  0  0  0  0  0  0  0  0  0
    1.5392   -0.2668   -0.9572 H   0  0  0  0  0  0  0  0  0  0  0  0
    0.3887   -1.5195   -1.3794 H   0  0  0  0  0  0  0  0  0  0  0  0
   -0.1098    0.4081   -2.2211 C   0  0  0  0  0  0  0  0  0  0  0  0
    0.0558   -0.1076   -3.1702 H   0  0  0  0  0  0  0  0  0  0  0  0
   -1.1906    0.5177   -2.0984 H   0  0  0  0  0  0  0  0  0  0  0  0
    0.5127    1.8002   -2.3640 C   0  0  0  0  0  0  0  0  0  0  0  0
    1.4630    2.1243   -1.6703 O   0  0  0  0  0  0  0  0  0  0  0  0
   -0.0307    2.6135   -3.2937 O   0  0  0  0  0  0  0  0  0  0  0  0
    0.4637    3.4436   -3.2201 H   0  0  0  0  0  0  0  0  0  0  0  0
   -0.4163    1.1637    0.7209 C   0  0  0  0  0  0  0  0  0  0  0  0
   -1.4012    1.7972    0.3533 O   0  0  0  0  0  0  0  0  0  0  0  0
    0.4366    1.7190    1.6559 N   0  0  0  0  0  0  0  0  0  0  0  0
    1.2783    1.1968    1.8810 H   0  0  0  0  0  0  0  0  0  0  0  0
    0.3512    3.1142    2.0689 C   0  0  0  0  0  0  0  0  0  0  0  0
   -0.6328    3.3287    2.4989 H   0  0  0  0  0  0  0  0  0  0  0  0
    1.1115    3.3325    2.8249 H   0  0  0  0  0  0  0  0  0  0  0  0
    0.5135    3.7759    1.2115 H   0  0  0  0  0  0  0  0  0  0  0  0
  1  2  1  0  0  0  0
  2  3  1  0  0  0  0
  2  4  1  0  0  0  0
  2  5  1  0  0  0  0
  5  6  2  0  0  0  0
  5  7  1  0  0  0  0
  7  8  1  0  0  0  0
  7  9  1  0  0  0  0
  9 10  1  0  0  0  0
  9 11  1  0  0  0  0
  9 21  1  0  0  0  0
 11 12  1  0  0  0  0
 11 13  1  0  0  0  0
 11 14  1  0  0  0  0
 14 15  1  0  0  0  0
 14 16  1  0  0  0  0
 14 17  1  0  0  0  0
 17 18  2  0  0  0  0
 17 19  1  0  0  0  0
 19 20  1  0  0  0  0
 21 22  2  0  0  0  0
 21 23  1  0  0  0  0
 23 24  1  0  0  0  0
 23 25  1  0  0  0  0
 25 26  1  0  0  0  0
 25 27  1  0  0  0  0
 25 28  1  0  0  0  0
M  END
$$$$

  -OEChem-03222214033D

 28 27  0     1  0  0  0  0  0999 V2000
   -3.1685   -3.7998    1.3060 H   0  0  0  0  0  0  0  0  0  0  0  0
   -3.1795   -2.8154    0.8294 C   0  0  0  0  0  0  0  0  0  0  0  0
   -3.7979   -2.1422    1.4280 H   0  0  0  0  0  0  0  0  0  0  0  0
   -3.6164   -2.9109   -0.1675 H   0  0  0  0  0  0  0  0  0  0  0  0
   -1.7679   -2.2698    0.7250 C   0  0  0  0  0  0  0  0  0  0  0  0
   -0.8200   -2.9579    1.0681 O   0  0  0  0  0  0  0  0  0  0  0  0
   -1.5583   -0.9989    0.2325 N   0  0  0  0  0  0  0  0  0  0  0  0
   -2.3838   -0.4213    0.0792 H   0  0  0  0  0  0  0  0  0  0  0  0
   -0.2652   -0.2986    0.2581 C   0  0  1  0  0  0  0  0  0  0  0  0
    0.3747   -0.7821    1.0040 H   0  0  0  0  0  0  0  0  0  0  0  0
    0.4420   -0.4409   -1.1034 C   0  0  0  0  0  0  0  0  0  0  0  0
    1.5098   -0.2317   -0.9814 H   0  0  0  0  0  0  0  0  0  0  0  0
    0.3697   -1.4895   -1.4117 H   0  0  0  0  0  0  0  0  0  0  0  0
   -0.1623    0.4444   -2.2227 C   0  0  0  0  0  0  0  0  0  0  0  0
   -0.2343   -0.1619   -3.1294 H   0  0  0  0  0  0  0  0  0  0  0  0
   -1.1783    0.7596   -1.9738 H   0  0  0  0  0  0  0  0  0  0  0  0
    0.6686    1.6782   -2.5820 C   0  0  0  0  0  0  0  0  0  0  0  0
    1.4835    2.1186   -1.7880 O   0  0  0  0  0  0  0  0  0  0  0  0
    0.4498    2.2306   -3.7939 O   0  0  0  0  0  0  0  0  0  0  0  0
    1.0408    2.9979   -3.8288 H   0  0  0  0  0  0  0  0  0  0  0  0
   -0.4204    1.1666    0.7248 C   0  0  0  0  0  0  0  0  0  0  0  0
   -1.4235    1.7977    0.4056 O   0  0  0  0  0  0  0  0  0  0  0  0
    0.4537    1.7110    1.6471 N   0  0  0  0  0  0  0  0  0  0  0  0
    1.3049    1.1912    1.8397 H   0  0  0  0  0  0  0  0  0  0  0  0
    0.3726    3.0993    2.0842 C   0  0  0  0  0  0  0  0  0  0  0  0
   -0.6024    3.3033    2.5394 H   0  0  0  0  0  0  0  0  0  0  0  0
    1.1487    3.3083    2.8267 H   0  0  0  0  0  0  0  0  0  0  0  0
    0.5138    3.7755    1.2342 H   0  0  0  0  0  0  0  0  0  0  0  0
  1  2  1  0  0  0  0
  2  3  1  0  0  0  0
  2  4  1  0  0  0  0
  2  5  1  0  0  0  0
  5  6  2  0  0  0  0
  5  7  1  0  0  0  0
  7  8  1  0  0  0  0
  7  9  1  0  0  0  0
  9 10  1  0  0  0  0
  9 11  1  0  0  0  0
  9 21  1  0  0  0  0
 11 12  1  0  0  0  0
 11 13  1  0  0  0  0
 11 14  1  0  0  0  0
 14 15  1  0  0  0  0
 14 16  1  0  0  0  0
 14 17  1  0  0  0  0
 17 18  2  0  0  0  0
 17 19  1  0  0  0  0
 19 20  1  0  0  0  0
 21 22  2  0  0  0  0
 21 23  1  0  0  0  0
 23 24  1  0  0  0  0
 23 25  1  0  0  0  0
 25 26  1  0  0  0  0
 25 27  1  0  0  0  0
 25 28  1  0  0  0  0
M  END
$$$$

  -OEChem-03222214033D

 28 27  0     1  0  0  0  0  0999 V2000
   -3.1370   -3.8150    1.2641 H   0  0  0  0  0  0  0  0  0  0  0  0
   -3.1659   -2.8087    0.8368 C   0  0  0  0  0  0  0  0  0  0  0  0
   -3.7616   -2.1662    1.4899 H   0  0  0  0  0  0  0  0  0  0  0  0
   -3.6396   -2.8565   -0.1466 H   0  0  0  0  0  0  0  0  0  0  0  0
   -1.7594   -2.2553    0.7073 C   0  0  0  0  0  0  0  0  0  0  0  0
   -0.8006   -2.9421    1.0214 O   0  0  0  0  0  0  0  0  0  0  0  0
   -1.5674   -0.9759    0.2299 N   0  0  0  0  0  0  0  0  0  0  0  0
   -2.3994   -0.4019    0.1000 H   0  0  0  0  0  0  0  0  0  0  0  0
   -0.2788   -0.2678    0.2375 C   0  0  1  0  0  0  0  0  0  0  0  0
    0.3714   -0.7570    0.9706 H   0  0  0  0  0  0  0  0  0  0  0  0
    0.4127   -0.4091   -1.1315 C   0  0  0  0  0  0  0  0  0  0  0  0
    1.4740   -0.1708   -1.0051 H   0  0  0  0  0  0  0  0  0  0  0  0
    0.3688   -1.4602   -1.4365 H   0  0  0  0  0  0  0  0  0  0  0  0
   -0.2021    0.4640   -2.2557 C   0  0  0  0  0  0  0  0  0  0  0  0
   -0.5426   -0.1990   -3.0554 H   0  0  0  0  0  0  0  0  0  0  0  0
   -1.0815    1.0104   -1.9104 H   0  0  0  0  0  0  0  0  0  0  0  0
    0.7776    1.4655   -2.8655 C   0  0  0  0  0  0  0  0  0  0  0  0
    1.5498    2.0648   -2.1365 O   0  0  0  0  0  0  0  0  0  0  0  0
    0.7375    1.6423   -4.2034 O   0  0  0  0  0  0  0  0  0  0  0  0
    1.4120    2.3137   -4.3880 H   0  0  0  0  0  0  0  0  0  0  0  0
   -0.4193    1.1912    0.7279 C   0  0  0  0  0  0  0  0  0  0  0  0
   -1.4402    1.8204    0.4685 O   0  0  0  0  0  0  0  0  0  0  0  0
    0.4803    1.7181    1.6357 N   0  0  0  0  0  0  0  0  0  0  0  0
    1.3301    1.1900    1.8114 H   0  0  0  0  0  0  0  0  0  0  0  0
    0.3774    3.0748    2.1593 C   0  0  0  0  0  0  0  0  0  0  0  0
   -0.5746    3.2132    2.6825 H   0  0  0  0  0  0  0  0  0  0  0  0
    1.1897    3.2708    2.8658 H   0  0  0  0  0  0  0  0  0  0  0  0
    0.4416    3.8045    1.3452 H   0  0  0  0  0  0  0  0  0  0  0  0
  1  2  1  0  0  0  0
  2  3  1  0  0  0  0
  2  4  1  0  0  0  0
  2  5  1  0  0  0  0
  5  6  2  0  0  0  0
  5  7  1  0  0  0  0
  7  8  1  0  0  0  0
  7  9  1  0  0  0  0
  9 10  1  0  0  0  0
  9 11  1  0  0  0  0
  9 21  1  0  0  0  0
 11 12  1  0  0  0  0
 11 13  1  0  0  0  0
 11 14  1  0  0  0  0
 14 15  1  0  0  0  0
 14 16  1  0  0  0  0
 14 17  1  0  0  0  0
 17 18  2  0  0  0  0
 17 19  1  0  0  0  0
 19 20  1  0  0  0  0
 21 22  2  0  0  0  0
 21 23  1  0  0  0  0
 23 24  1  0  0  0  0
 23 25  1  0  0  0  0
 25 26  1  0  0  0  0
 25 27  1  0  0  0  0
 25 28  1  0  0  0  0
M  END
$$$$

  -OEChem-03222214033D

 28 27  0     1  0  0  0  0  0999 V2000
   -3.1206   -3.8314    1.1748 H   0  0  0  0  0  0  0  0  0  0  0  0
   -3.1590   -2.7972    0.8211 C   0  0  0  0  0  0  0  0  0  0  0  0
   -3.7298   -2.2012    1.5370 H   0  0  0  0  0  0  0  0  0  0  0  0
   -3.6650   -2.7750   -0.1470 H   0  0  0  0  0  0  0  0  0  0  0  0
   -1.7555   -2.2378    0.6853 C   0  0  0  0  0  0  0  0  0  0  0  0
   -0.7915   -2.9249    0.9830 O   0  0  0  0  0  0  0  0  0  0  0  0
   -1.5727   -0.9509    0.2244 N   0  0  0  0  0  0  0  0  0  0  0  0
   -2.4080   -0.3798    0.1034 H   0  0  0  0  0  0  0  0  0  0  0  0
   -0.2862   -0.2396    0.2232 C   0  0  1  0  0  0  0  0  0  0  0  0
    0.3727   -0.7366    0.9432 H   0  0  0  0  0  0  0  0  0  0  0  0
    0.3884   -0.3802   -1.1550 C   0  0  0  0  0  0  0  0  0  0  0  0
    1.4414   -0.1091   -1.0233 H   0  0  0  0  0  0  0  0  0  0  0  0
    0.3733   -1.4319   -1.4610 H   0  0  0  0  0  0  0  0  0  0  0  0
   -0.2296    0.4850   -2.2821 C   0  0  0  0  0  0  0  0  0  0  0  0
   -0.8342   -0.1563   -2.9288 H   0  0  0  0  0  0  0  0  0  0  0  0
   -0.8972    1.2514   -1.8868 H   0  0  0  0  0  0  0  0  0  0  0  0
    0.8213    1.1963   -3.1293 C   0  0  0  0  0  0  0  0  0  0  0  0
    1.6466    1.9011   -2.5746 O   0  0  0  0  0  0  0  0  0  0  0  0
    0.7911    1.0035   -4.4652 O   0  0  0  0  0  0  0  0  0  0  0  0
    1.5246    1.5343   -4.8116 H   0  0  0  0  0  0  0  0  0  0  0  0
   -0.4186    1.2118    0.7366 C   0  0  0  0  0  0  0  0  0  0  0  0
   -1.4399    1.8489    0.5008 O   0  0  0  0  0  0  0  0  0  0  0  0
    0.4966    1.7237    1.6375 N   0  0  0  0  0  0  0  0  0  0  0  0
    1.3279    1.1720    1.8292 H   0  0  0  0  0  0  0  0  0  0  0  0
    0.3876    3.0570    2.2170 C   0  0  0  0  0  0  0  0  0  0  0  0
   -0.5296    3.1436    2.8089 H   0  0  0  0  0  0  0  0  0  0  0  0
    1.2412    3.2562    2.8721 H   0  0  0  0  0  0  0  0  0  0  0  0
    0.3721    3.8171    1.4287 H   0  0  0  0  0  0  0  0  0  0  0  0
  1  2  1  0  0  0  0
  2  3  1  0  0  0  0
  2  4  1  0  0  0  0
  2  5  1  0  0  0  0
  5  6  2  0  0  0  0
  5  7  1  0  0  0  0
  7  8  1  0  0  0  0
  7  9  1  0  0  0  0
  9 10  1  0  0  0  0
  9 11  1  0  0  0  0
  9 21  1  0  0  0  0
 11 12  1  0  0  0  0
 11 13  1  0  0  0  0
 11 14  1  0  0  0  0
 14 15  1  0  0  0  0
 14 16  1  0  0  0  0
 14 17  1  0  0  0  0
 17 18  2  0  0  0  0
 17 19  1  0  0  0  0
 19 20  1  0  0  0  0
 21 22  2  0  0  0  0
 21 23  1  0  0  0  0
 23 24  1  0  0  0  0
 23 25  1  0  0  0  0
 25 26  1  0  0  0  0
 25 27  1  0  0  0  0
 25 28  1  0  0  0  0
M  END
$$$$

  -OEChem-03222214033D

 28 27  0     1  0  0  0  0  0999 V2000
   -3.1456   -3.7941    1.2469 H   0  0  0  0  0  0  0  0  0  0  0  0
   -3.1661   -2.7843    0.8273 C   0  0  0  0  0  0  0  0  0  0  0  0
   -3.7816   -2.1489    1.4687 H   0  0  0  0  0  0  0  0  0  0  0  0
   -3.6120   -2.8259   -0.1693 H   0  0  0  0  0  0  0  0  0  0  0  0
   -1.7587   -2.2252    0.7413 C   0  0  0  0  0  0  0  0  0  0  0  0
   -0.8106   -2.8933    1.1212 O   0  0  0  0  0  0  0  0  0  0  0  0
   -1.5557   -0.9584    0.2355 N   0  0  0  0  0  0  0  0  0  0  0  0
   -2.3843   -0.3989    0.0389 H   0  0  0  0  0  0  0  0  0  0  0  0
   -0.2677   -0.2505    0.2393 C   0  0  1  0  0  0  0  0  0  0  0  0
    0.3724   -0.7198    0.9941 H   0  0  0  0  0  0  0  0  0  0  0  0
    0.4347   -0.4568   -1.1179 C   0  0  0  0  0  0  0  0  0  0  0  0
    1.4771   -0.1584   -0.9653 H   0  0  0  0  0  0  0  0  0  0  0  0
    0.4429   -1.5213   -1.3767 H   0  0  0  0  0  0  0  0  0  0  0  0
   -0.1535    0.3580   -2.3002 C   0  0  0  0  0  0  0  0  0  0  0  0
   -0.9646   -0.2141   -2.7570 H   0  0  0  0  0  0  0  0  0  0  0  0
   -0.5818    1.2970   -1.9476 H   0  0  0  0  0  0  0  0  0  0  0  0
    0.8527    0.7406   -3.3880 C   0  0  0  0  0  0  0  0  0  0  0  0
    2.0013    0.3357   -3.3382 O   0  0  0  0  0  0  0  0  0  0  0  0
    0.3937    1.5230   -4.3870 O   0  0  0  0  0  0  0  0  0  0  0  0
    1.1542    1.6526   -4.9740 H   0  0  0  0  0  0  0  0  0  0  0  0
   -0.4076    1.2195    0.6906 C   0  0  0  0  0  0  0  0  0  0  0  0
   -1.4023    1.8631    0.3751 O   0  0  0  0  0  0  0  0  0  0  0  0
    0.4860    1.7640    1.5941 N   0  0  0  0  0  0  0  0  0  0  0  0
    1.2596    1.1815    1.9026 H   0  0  0  0  0  0  0  0  0  0  0  0
    0.3378    3.0985    2.1625 C   0  0  0  0  0  0  0  0  0  0  0  0
   -0.5811    3.1624    2.7547 H   0  0  0  0  0  0  0  0  0  0  0  0
    1.1864    3.3287    2.8140 H   0  0  0  0  0  0  0  0  0  0  0  0
    0.2989    3.8519    1.3686 H   0  0  0  0  0  0  0  0  0  0  0  0
  1  2  1  0  0  0  0
  2  3  1  0  0  0  0
  2  4  1  0  0  0  0
  2  5  1  0  0  0  0
  5  6  2  0  0  0  0
  5  7  1  0  0  0  0
  7  8  1  0  0  0  0
  7  9  1  0  0  0  0
  9 10  1  0  0  0  0
  9 11  1  0  0  0  0
  9 21  1  0  0  0  0
 11 12  1  0  0  0  0
 11 13  1  0  0  0  0
 11 14  1  0  0  0  0
 14 15  1  0  0  0  0
 14 16  1  0  0  0  0
 14 17  1  0  0  0  0
 17 18  2  0  0  0  0
 17 19  1  0  0  0  0
 19 20  1  0  0  0  0
 21 22  2  0  0  0  0
 21 23  1  0  0  0  0
 23 24  1  0  0  0  0
 23 25  1  0  0  0  0
 25 26  1  0  0  0  0
 25 27  1  0  0  0  0
 25 28  1  0  0  0  0
M  END
$$$$

  -OEChem-03222214033D

 28 27  0     1  0  0  0  0  0999 V2000
   -3.1600   -3.7696    1.2902 H   0  0  0  0  0  0  0  0  0  0  0  0
   -3.1687   -2.7801    0.8246 C   0  0  0  0  0  0  0  0  0  0  0  0
   -3.7953   -2.1148    1.4236 H   0  0  0  0  0  0  0  0  0  0  0  0
   -3.5940   -2.8660   -0.1782 H   0  0  0  0  0  0  0  0  0  0  0  0
   -1.7581   -2.2289    0.7425 C   0  0  0  0  0  0  0  0  0  0  0  0
   -0.8158   -2.8987    1.1333 O   0  0  0  0  0  0  0  0  0  0  0  0
   -1.5466   -0.9640    0.2355 N   0  0  0  0  0  0  0  0  0  0  0  0
   -2.3711   -0.4020    0.0298 H   0  0  0  0  0  0  0  0  0  0  0  0
   -0.2535   -0.2650    0.2390 C   0  0  1  0  0  0  0  0  0  0  0  0
    0.3918   -0.7405    0.9853 H   0  0  0  0  0  0  0  0  0  0  0  0
    0.4325   -0.4563   -1.1289 C   0  0  0  0  0  0  0  0  0  0  0  0
    1.4826   -0.1720   -1.0009 H   0  0  0  0  0  0  0  0  0  0  0  0
    0.4175   -1.5168   -1.4041 H   0  0  0  0  0  0  0  0  0  0  0  0
   -0.1694    0.3846   -2.2818 C   0  0  0  0  0  0  0  0  0  0  0  0
   -1.1379   -0.0343   -2.5657 H   0  0  0  0  0  0  0  0  0  0  0  0
   -0.3369    1.4138   -1.9593 H   0  0  0  0  0  0  0  0  0  0  0  0
    0.7147    0.4692   -3.5267 C   0  0  0  0  0  0  0  0  0  0  0  0
    1.8322   -0.0175   -3.5216 O   0  0  0  0  0  0  0  0  0  0  0  0
    0.1920    1.0979   -4.6005 O   0  0  0  0  0  0  0  0  0  0  0  0
    0.8833    1.0527   -5.2784 H   0  0  0  0  0  0  0  0  0  0  0  0
   -0.3951    1.2044    0.6905 C   0  0  0  0  0  0  0  0  0  0  0  0
   -1.3783    1.8541    0.3522 O   0  0  0  0  0  0  0  0  0  0  0  0
    0.4944    1.7514    1.5966 N   0  0  0  0  0  0  0  0  0  0  0  0
    1.2599    1.1660    1.9197 H   0  0  0  0  0  0  0  0  0  0  0  0
    0.3471    3.0913    2.1525 C   0  0  0  0  0  0  0  0  0  0  0  0
   -0.6075    3.1845    2.6811 H   0  0  0  0  0  0  0  0  0  0  0  0
    1.1555    3.2986    2.8604 H   0  0  0  0  0  0  0  0  0  0  0  0
    0.3834    3.8426    1.3566 H   0  0  0  0  0  0  0  0  0  0  0  0
  1  2  1  0  0  0  0
  2  3  1  0  0  0  0
  2  4  1  0  0  0  0
  2  5  1  0  0  0  0
  5  6  2  0  0  0  0
  5  7  1  0  0  0  0
  7  8  1  0  0  0  0
  7  9  1  0  0  0  0
  9 10  1  0  0  0  0
  9 11  1  0  0  0  0
  9 21  1  0  0  0  0
 11 12  1  0  0  0  0
 11 13  1  0  0  0  0
 11 14  1  0  0  0  0
 14 15  1  0  0  0  0
 14 16  1  0  0  0  0
 14 17  1  0  0  0  0
 17 18  2  0  0  0  0
 17 19  1  0  0  0  0
 19 20  1  0  0  0  0
 21 22  2  0  0  0  0
 21 23  1  0  0  0  0
 23 24  1  0  0  0  0
 23 25  1  0  0  0  0
 25 26  1  0  0  0  0
 25 27  1  0  0  0  0
 25 28  1  0  0  0  0
M  END
$$$$

  -OEChem-03222214033D

 28 27  0     1  0  0  0  0  0999 V2000
   -3.1702   -3.7862    1.1897 H   0  0  0  0  0  0  0  0  0  0  0  0
   -3.1762   -2.7725    0.7791 C   0  0  0  0  0  0  0  0  0  0  0  0
   -3.8034   -2.1395    1.4115 H   0  0  0  0  0  0  0  0  0  0  0  0
   -3.5992   -2.8029   -0.2280 H   0  0  0  0  0  0  0  0  0  0  0  0
   -1.7644   -2.2202    0.7316 C   0  0  0  0  0  0  0  0  0  0  0  0
   -0.8307   -2.8908    1.1414 O   0  0  0  0  0  0  0  0  0  0  0  0
   -1.5423   -0.9531    0.2346 N   0  0  0  0  0  0  0  0  0  0  0  0
   -2.3614   -0.3926    0.0049 H   0  0  0  0  0  0  0  0  0  0  0  0
   -0.2460   -0.2600    0.2463 C   0  0  1  0  0  0  0  0  0  0  0  0
    0.3943   -0.7457    0.9903 H   0  0  0  0  0  0  0  0  0  0  0  0
    0.4382   -0.4471   -1.1261 C   0  0  0  0  0  0  0  0  0  0  0  0
    1.5214   -0.4352   -0.9630 H   0  0  0  0  0  0  0  0  0  0  0  0
    0.1872   -1.4350   -1.5286 H   0  0  0  0  0  0  0  0  0  0  0  0
    0.0992    0.6417   -2.1702 C   0  0  0  0  0  0  0  0  0  0  0  0
   -0.9819    0.6584   -2.3338 H   0  0  0  0  0  0  0  0  0  0  0  0
    0.3972    1.6280   -1.8063 H   0  0  0  0  0  0  0  0  0  0  0  0
    0.7882    0.4315   -3.5180 C   0  0  0  0  0  0  0  0  0  0  0  0
    1.7847   -0.2668   -3.5872 O   0  0  0  0  0  0  0  0  0  0  0  0
    0.2498    1.0536   -4.5879 O   0  0  0  0  0  0  0  0  0  0  0  0
    0.8186    0.8080   -5.3334 H   0  0  0  0  0  0  0  0  0  0  0  0
   -0.3874    1.2061    0.7079 C   0  0  0  0  0  0  0  0  0  0  0  0
   -1.3487    1.8711    0.3382 O   0  0  0  0  0  0  0  0  0  0  0  0
    0.4978    1.7475    1.6212 N   0  0  0  0  0  0  0  0  0  0  0  0
    1.2390    1.1477    1.9730 H   0  0  0  0  0  0  0  0  0  0  0  0
    0.3580    3.0916    2.1688 C   0  0  0  0  0  0  0  0  0  0  0  0
   -0.5596    3.1697    2.7613 H   0  0  0  0  0  0  0  0  0  0  0  0
    1.2092    3.3283    2.8144 H   0  0  0  0  0  0  0  0  0  0  0  0
    0.3212    3.8327    1.3631 H   0  0  0  0  0  0  0  0  0  0  0  0
  1  2  1  0  0  0  0
  2  3  1  0  0  0  0
  2  4  1  0  0  0  0
  2  5  1  0  0  0  0
  5  6  2  0  0  0  0
  5  7  1  0  0  0  0
  7  8  1  0  0  0  0
  7  9  1  0  0  0  0
  9 10  1  0  0  0  0
  9 11  1  0  0  0  0
  9 21  1  0  0  0  0
 11 12  1  0  0  0  0
 11 13  1  0  0  0  0
 11 14  1  0  0  0  0
 14 15  1  0  0  0  0
 14 16  1  0  0  0  0
 14 17  1  0  0  0  0
 17 18  2  0  0  0  0
 17 19  1  0  0  0  0
 19 20  1  0  0  0  0
 21 22  2  0  0  0  0
 21 23  1  0  0  0  0
 23 24  1  0  0  0  0
 23 25  1  0  0  0  0
 25 26  1  0  0  0  0
 25 27  1  0  0  0  0
 25 28  1  0  0  0  0
M  END
$$$$

  -OEChem-03222214033D

 28 27  0     1  0  0  0  0  0999 V2000
   -3.1869   -3.7819    1.1437 H   0  0  0  0  0  0  0  0  0  0  0  0
   -3.1879   -2.7667    0.7374 C   0  0  0  0  0  0  0  0  0  0  0  0
   -3.8296   -2.1385    1.3598 H   0  0  0  0  0  0  0  0  0  0  0  0
   -3.5903   -2.7943   -0.2780 H   0  0  0  0  0  0  0  0  0  0  0  0
   -1.7772   -2.2098    0.7192 C   0  0  0  0  0  0  0  0  0  0  0  0
   -0.8486   -2.8807    1.1396 O   0  0  0  0  0  0  0  0  0  0  0  0
   -1.5490   -0.9417    0.2274 N   0  0  0  0  0  0  0  0  0  0  0  0
   -2.3649   -0.3834   -0.0183 H   0  0  0  0  0  0  0  0  0  0  0  0
   -0.2510   -0.2514    0.2464 C   0  0  1  0  0  0  0  0  0  0  0  0
    0.3837   -0.7427    0.9917 H   0  0  0  0  0  0  0  0  0  0  0  0
    0.4425   -0.4343   -1.1210 C   0  0  0  0  0  0  0  0  0  0  0  0
    1.5271   -0.4376   -0.9686 H   0  0  0  0  0  0  0  0  0  0  0  0
    0.1756   -1.4176   -1.5248 H   0  0  0  0  0  0  0  0  0  0  0  0
    0.1053    0.6619   -2.1549 C   0  0  0  0  0  0  0  0  0  0  0  0
   -0.9738    0.8421   -2.1498 H   0  0  0  0  0  0  0  0  0  0  0  0
    0.6029    1.6002   -1.8968 H   0  0  0  0  0  0  0  0  0  0  0  0
    0.4992    0.2735   -3.5777 C   0  0  0  0  0  0  0  0  0  0  0  0
    1.5209   -0.3661   -3.7567 O   0  0  0  0  0  0  0  0  0  0  0  0
   -0.3098    0.6691   -4.5833 O   0  0  0  0  0  0  0  0  0  0  0  0
    0.1112    0.3349   -5.3900 H   0  0  0  0  0  0  0  0  0  0  0  0
   -0.3780    1.2159    0.7107 C   0  0  0  0  0  0  0  0  0  0  0  0
   -1.3316    1.8929    0.3429 O   0  0  0  0  0  0  0  0  0  0  0  0
    0.5126    1.7447    1.6265 N   0  0  0  0  0  0  0  0  0  0  0  0
    1.2484    1.1362    1.9747 H   0  0  0  0  0  0  0  0  0  0  0  0
    0.3904    3.0898    2.1762 C   0  0  0  0  0  0  0  0  0  0  0  0
   -0.5357    3.1858    2.7528 H   0  0  0  0  0  0  0  0  0  0  0  0
    1.2345    3.3066    2.8380 H   0  0  0  0  0  0  0  0  0  0  0  0
    0.3835    3.8335    1.3722 H   0  0  0  0  0  0  0  0  0  0  0  0
  1  2  1  0  0  0  0
  2  3  1  0  0  0  0
  2  4  1  0  0  0  0
  2  5  1  0  0  0  0
  5  6  2  0  0  0  0
  5  7  1  0  0  0  0
  7  8  1  0  0  0  0
  7  9  1  0  0  0  0
  9 10  1  0  0  0  0
  9 11  1  0  0  0  0
  9 21  1  0  0  0  0
 11 12  1  0  0  0  0
 11 13  1  0  0  0  0
 11 14  1  0  0  0  0
 14 15  1  0  0  0  0
 14 16  1  0  0  0  0
 14 17  1  0  0  0  0
 17 18  2  0  0  0  0
 17 19  1  0  0  0  0
 19 20  1  0  0  0  0
 21 22  2  0  0  0  0
 21 23  1  0  0  0  0
 23 24  1  0  0  0  0
 23 25  1  0  0  0  0
 25 26  1  0  0  0  0
 25 27  1  0  0  0  0
 25 28  1  0  0  0  0
M  END
$$$$

  -OEChem-03222214033D

 28 27  0     1  0  0  0  0  0999 V2000
   -3.2041   -3.7575    1.0973 H   0  0  0  0  0  0  0  0  0  0  0  0
   -3.2035   -2.7356    0.7077 C   0  0  0  0  0  0  0  0  0  0  0  0
   -3.8381   -2.1148    1.3448 H   0  0  0  0  0  0  0  0  0  0  0  0
   -3.6131   -2.7451   -0.3053 H   0  0  0  0  0  0  0  0  0  0  0  0
   -1.7909   -2.1836    0.6888 C   0  0  0  0  0  0  0  0  0  0  0  0
   -0.8626   -2.8626    1.0974 O   0  0  0  0  0  0  0  0  0  0  0  0
   -1.5598   -0.9116    0.2085 N   0  0  0  0  0  0  0  0  0  0  0  0
   -2.3745   -0.3487   -0.0309 H   0  0  0  0  0  0  0  0  0  0  0  0
   -0.2598   -0.2259    0.2315 C   0  0  1  0  0  0  0  0  0  0  0  0
    0.3668   -0.7248    0.9782 H   0  0  0  0  0  0  0  0  0  0  0  0
    0.4454   -0.4148   -1.1290 C   0  0  0  0  0  0  0  0  0  0  0  0
    1.5293   -0.4273   -0.9734 H   0  0  0  0  0  0  0  0  0  0  0  0
    0.1731   -1.4006   -1.5239 H   0  0  0  0  0  0  0  0  0  0  0  0
    0.1241    0.6748   -2.1754 C   0  0  0  0  0  0  0  0  0  0  0  0
   -0.8957    1.0406   -2.0281 H   0  0  0  0  0  0  0  0  0  0  0  0
    0.8033    1.5245   -2.0690 H   0  0  0  0  0  0  0  0  0  0  0  0
    0.1941    0.1361   -3.6005 C   0  0  0  0  0  0  0  0  0  0  0  0
    1.2115   -0.4309   -3.9571 O   0  0  0  0  0  0  0  0  0  0  0  0
   -0.8785    0.3068   -4.4028 O   0  0  0  0  0  0  0  0  0  0  0  0
   -0.6279   -0.1007   -5.2459 H   0  0  0  0  0  0  0  0  0  0  0  0
   -0.3700    1.2390    0.7086 C   0  0  0  0  0  0  0  0  0  0  0  0
   -1.3306    1.9225    0.3735 O   0  0  0  0  0  0  0  0  0  0  0  0
    0.5313    1.7481    1.6253 N   0  0  0  0  0  0  0  0  0  0  0  0
    1.2634    1.1279    1.9602 H   0  0  0  0  0  0  0  0  0  0  0  0
    0.4049    3.0735    2.2199 C   0  0  0  0  0  0  0  0  0  0  0  0
   -0.5016    3.1335    2.8313 H   0  0  0  0  0  0  0  0  0  0  0  0
    1.2684    3.2865    2.8575 H   0  0  0  0  0  0  0  0  0  0  0  0
    0.3558    3.8416    1.4408 H   0  0  0  0  0  0  0  0  0  0  0  0
  1  2  1  0  0  0  0
  2  3  1  0  0  0  0
  2  4  1  0  0  0  0
  2  5  1  0  0  0  0
  5  6  2  0  0  0  0
  5  7  1  0  0  0  0
  7  8  1  0  0  0  0
  7  9  1  0  0  0  0
  9 10  1  0  0  0  0
  9 11  1  0  0  0  0
  9 21  1  0  0  0  0
 11 12  1  0  0  0  0
 11 13  1  0  0  0  0
 11 14  1  0  0  0  0
 14 15  1  0  0  0  0
 14 16  1  0  0  0  0
 14 17  1  0  0  0  0
 17 18  2  0  0  0  0
 17 19  1  0  0  0  0
 19 20  1  0  0  0  0
 21 22  2  0  0  0  0
 21 23  1  0  0  0  0
 23 24  1  0  0  0  0
 23 25  1  0  0  0  0
 25 26  1  0  0  0  0
 25 27  1  0  0  0  0
 25 28  1  0  0  0  0
M  END
$$$$

  -OEChem-03222214033D

 28 27  0     1  0  0  0  0  0999 V2000
   -3.2633   -3.7122    0.9581 H   0  0  0  0  0  0  0  0  0  0  0  0
   -3.2501   -2.6755    0.6104 C   0  0  0  0  0  0  0  0  0  0  0  0
   -3.8893   -2.0765    1.2633 H   0  0  0  0  0  0  0  0  0  0  0  0
   -3.6457   -2.6402   -0.4076 H   0  0  0  0  0  0  0  0  0  0  0  0
   -1.8337   -2.1334    0.6345 C   0  0  0  0  0  0  0  0  0  0  0  0
   -0.9189   -2.8267    1.0504 O   0  0  0  0  0  0  0  0  0  0  0  0
   -1.5826   -0.8551    0.1823 N   0  0  0  0  0  0  0  0  0  0  0  0
   -2.3841   -0.2914   -0.0960 H   0  0  0  0  0  0  0  0  0  0  0  0
   -0.2748   -0.1857    0.2191 C   0  0  1  0  0  0  0  0  0  0  0  0
    0.3386   -0.7058    0.9623 H   0  0  0  0  0  0  0  0  0  0  0  0
    0.4331   -0.3818   -1.1398 C   0  0  0  0  0  0  0  0  0  0  0  0
    1.5147   -0.4020   -0.9707 H   0  0  0  0  0  0  0  0  0  0  0  0
    0.1625   -1.3698   -1.5304 H   0  0  0  0  0  0  0  0  0  0  0  0
    0.1423    0.7057   -2.1990 C   0  0  0  0  0  0  0  0  0  0  0  0
   -0.7470    1.2823   -1.9373 H   0  0  0  0  0  0  0  0  0  0  0  0
    0.9824    1.4024   -2.2697 H   0  0  0  0  0  0  0  0  0  0  0  0
   -0.1432    0.0861   -3.5609 C   0  0  0  0  0  0  0  0  0  0  0  0
    0.7297    0.1257   -4.4086 O   0  0  0  0  0  0  0  0  0  0  0  0
   -1.3490   -0.4897   -3.7620 O   0  0  0  0  0  0  0  0  0  0  0  0
   -1.3200   -0.8154   -4.6745 H   0  0  0  0  0  0  0  0  0  0  0  0
   -0.3555    1.2718    0.7256 C   0  0  0  0  0  0  0  0  0  0  0  0
   -1.3074    1.9797    0.4177 O   0  0  0  0  0  0  0  0  0  0  0  0
    0.5592    1.7428    1.6495 N   0  0  0  0  0  0  0  0  0  0  0  0
    1.2813    1.1018    1.9664 H   0  0  0  0  0  0  0  0  0  0  0  0
    0.4619    3.0576    2.2728 C   0  0  0  0  0  0  0  0  0  0  0  0
   -0.4506    3.1298    2.8739 H   0  0  0  0  0  0  0  0  0  0  0  0
    1.3220    3.2310    2.9268 H   0  0  0  0  0  0  0  0  0  0  0  0
    0.4446    3.8441    1.5106 H   0  0  0  0  0  0  0  0  0  0  0  0
  1  2  1  0  0  0  0
  2  3  1  0  0  0  0
  2  4  1  0  0  0  0
  2  5  1  0  0  0  0
  5  6  2  0  0  0  0
  5  7  1  0  0  0  0
  7  8  1  0  0  0  0
  7  9  1  0  0  0  0
  9 10  1  0  0  0  0
  9 11  1  0  0  0  0
  9 21  1  0  0  0  0
 11 12  1  0  0  0  0
 11 13  1  0  0  0  0
 11 14  1  0  0  0  0
 14 15  1  0  0  0  0
 14 16  1  0  0  0  0
 14 17  1  0  0  0  0
 17 18  2  0  0  0  0
 17 19  1  0  0  0  0
 19 20  1  0  0  0  0
 21 22  2  0  0  0  0
 21 23  1  0  0  0  0
 23 24  1  0  0  0  0
 23 25  1  0  0  0  0
 25 26  1  0  0  0  0
 25 27  1  0  0  0  0
 25 28  1  0  0  0  0
M  END
$$$$

  -OEChem-03222214033D

 28 27  0     1  0  0  0  0  0999 V2000
   -3.0298   -3.8762    1.0516 H   0  0  0  0  0  0  0  0  0  0  0  0
   -3.0877   -2.8454    0.6915 C   0  0  0  0  0  0  0  0  0  0  0  0
   -3.7949   -2.2926    1.3144 H   0  0  0  0  0  0  0  0  0  0  0  0
   -3.4490   -2.8517   -0.3399 H   0  0  0  0  0  0  0  0  0  0  0  0
   -1.7214   -2.1907    0.7544 C   0  0  0  0  0  0  0  0  0  0  0  0
   -0.7632   -2.8102    1.1903 O   0  0  0  0  0  0  0  0  0  0  0  0
   -1.5640   -0.8970    0.3052 N   0  0  0  0  0  0  0  0  0  0  0  0
   -2.3884   -0.4284   -0.0673 H   0  0  0  0  0  0  0  0  0  0  0  0
   -0.2929   -0.1626    0.2555 C   0  0  1  0  0  0  0  0  0  0  0  0
    0.3992   -0.6594    0.9433 H   0  0  0  0  0  0  0  0  0  0  0  0
    0.3033   -0.3408   -1.1592 C   0  0  0  0  0  0  0  0  0  0  0  0
    1.3924   -0.2855   -1.0627 H   0  0  0  0  0  0  0  0  0  0  0  0
    0.0818   -1.3524   -1.5192 H   0  0  0  0  0  0  0  0  0  0  0  0
   -0.1151    0.7157   -2.2125 C   0  0  0  0  0  0  0  0  0  0  0  0
   -0.7877    1.4702   -1.8046 H   0  0  0  0  0  0  0  0  0  0  0  0
    0.7740    1.2370   -2.5777 H   0  0  0  0  0  0  0  0  0  0  0  0
   -0.8297    0.0743   -3.3972 C   0  0  0  0  0  0  0  0  0  0  0  0
   -1.8621   -0.5414   -3.1922 O   0  0  0  0  0  0  0  0  0  0  0  0
   -0.2765    0.2078   -4.6215 O   0  0  0  0  0  0  0  0  0  0  0  0
   -0.8750   -0.2652   -5.2198 H   0  0  0  0  0  0  0  0  0  0  0  0
   -0.3937    1.2859    0.7859 C   0  0  0  0  0  0  0  0  0  0  0  0
   -1.3832    1.9696    0.5510 O   0  0  0  0  0  0  0  0  0  0  0  0
    0.5722    1.7818    1.6429 N   0  0  0  0  0  0  0  0  0  0  0  0
    1.3209    1.1531    1.9198 H   0  0  0  0  0  0  0  0  0  0  0  0
    0.4685    3.0819    2.2955 C   0  0  0  0  0  0  0  0  0  0  0  0
   -0.4107    3.1143    2.9477 H   0  0  0  0  0  0  0  0  0  0  0  0
    1.3584    3.2725    2.9032 H   0  0  0  0  0  0  0  0  0  0  0  0
    0.3834    3.8797    1.5502 H   0  0  0  0  0  0  0  0  0  0  0  0
  1  2  1  0  0  0  0
  2  3  1  0  0  0  0
  2  4  1  0  0  0  0
  2  5  1  0  0  0  0
  5  6  2  0  0  0  0
  5  7  1  0  0  0  0
  7  8  1  0  0  0  0
  7  9  1  0  0  0  0
  9 10  1  0  0  0  0
  9 11  1  0  0  0  0
  9 21  1  0  0  0  0
 11 12  1  0  0  0  0
 11 13  1  0  0  0  0
 11 14  1  0  0  0  0
 14 15  1  0  0  0  0
 14 16  1  0  0  0  0
 14 17  1  0  0  0  0
 17 18  2  0  0  0  0
 17 19  1  0  0  0  0
 19 20  1  0  0  0  0
 21 22  2  0  0  0  0
 21 23  1  0  0  0  0
 23 24  1  0  0  0  0
 23 25  1  0  0  0  0
 25 26  1  0  0  0  0
 25 27  1  0  0  0  0
 25 28  1  0  0  0  0
M  END
$$$$

  -OEChem-03222214033D

 28 27  0     1  0  0  0  0  0999 V2000
   -3.0640   -3.8493    1.0414 H   0  0  0  0  0  0  0  0  0  0  0  0
   -3.0984   -2.8312    0.6443 C   0  0  0  0  0  0  0  0  0  0  0  0
   -3.8519   -2.2625    1.1943 H   0  0  0  0  0  0  0  0  0  0  0  0
   -3.3814   -2.8724   -0.4105 H   0  0  0  0  0  0  0  0  0  0  0  0
   -1.7428   -2.1669    0.7876 C   0  0  0  0  0  0  0  0  0  0  0  0
   -0.8126   -2.7736    1.2967 O   0  0  0  0  0  0  0  0  0  0  0  0
   -1.5626   -0.8811    0.3256 N   0  0  0  0  0  0  0  0  0  0  0  0
   -2.3448   -0.4554   -0.1714 H   0  0  0  0  0  0  0  0  0  0  0  0
   -0.2802   -0.1669    0.2848 C   0  0  1  0  0  0  0  0  0  0  0  0
    0.4033   -0.6663    0.9789 H   0  0  0  0  0  0  0  0  0  0  0  0
    0.3072   -0.3697   -1.1319 C   0  0  0  0  0  0  0  0  0  0  0  0
    1.3953   -0.3135   -1.0253 H   0  0  0  0  0  0  0  0  0  0  0  0
    0.0888   -1.3829   -1.4892 H   0  0  0  0  0  0  0  0  0  0  0  0
   -0.0884    0.6817   -2.1992 C   0  0  0  0  0  0  0  0  0  0  0  0
   -0.4644    1.6112   -1.7735 H   0  0  0  0  0  0  0  0  0  0  0  0
    0.8047    0.9390   -2.7752 H   0  0  0  0  0  0  0  0  0  0  0  0
   -1.1235    0.1405   -3.1829 C   0  0  0  0  0  0  0  0  0  0  0  0
   -2.0991   -0.4510   -2.7496 O   0  0  0  0  0  0  0  0  0  0  0  0
   -0.9066    0.3442   -4.5000 O   0  0  0  0  0  0  0  0  0  0  0  0
   -1.6685   -0.0570   -4.9453 H   0  0  0  0  0  0  0  0  0  0  0  0
   -0.3730    1.2880    0.7992 C   0  0  0  0  0  0  0  0  0  0  0  0
   -1.3362    1.9927    0.5209 O   0  0  0  0  0  0  0  0  0  0  0  0
    0.5863    1.7803    1.6658 N   0  0  0  0  0  0  0  0  0  0  0  0
    1.3048    1.1355    1.9821 H   0  0  0  0  0  0  0  0  0  0  0  0
    0.4908    3.0900    2.3001 C   0  0  0  0  0  0  0  0  0  0  0  0
   -0.3999    3.1444    2.9351 H   0  0  0  0  0  0  0  0  0  0  0  0
    1.3719    3.2745    2.9223 H   0  0  0  0  0  0  0  0  0  0  0  0
    0.4325    3.8797    1.5435 H   0  0  0  0  0  0  0  0  0  0  0  0
  1  2  1  0  0  0  0
  2  3  1  0  0  0  0
  2  4  1  0  0  0  0
  2  5  1  0  0  0  0
  5  6  2  0  0  0  0
  5  7  1  0  0  0  0
  7  8  1  0  0  0  0
  7  9  1  0  0  0  0
  9 10  1  0  0  0  0
  9 11  1  0  0  0  0
  9 21  1  0  0  0  0
 11 12  1  0  0  0  0
 11 13  1  0  0  0  0
 11 14  1  0  0  0  0
 14 15  1  0  0  0  0
 14 16  1  0  0  0  0
 14 17  1  0  0  0  0
 17 18  2  0  0  0  0
 17 19  1  0  0  0  0
 19 20  1  0  0  0  0
 21 22  2  0  0  0  0
 21 23  1  0  0  0  0
 23 24  1  0  0  0  0
 23 25  1  0  0  0  0
 25 26  1  0  0  0  0
 25 27  1  0  0  0  0
 25 28  1  0  0  0  0
M  END
$$$$

  -OEChem-03222214033D

 28 27  0     1  0  0  0  0  0999 V2000
   -3.0830   -3.8591    1.0709 H   0  0  0  0  0  0  0  0  0  0  0  0
   -3.1051   -2.8494    0.6517 C   0  0  0  0  0  0  0  0  0  0  0  0
   -3.8936   -2.2778    1.1469 H   0  0  0  0  0  0  0  0  0  0  0  0
   -3.3290   -2.9145   -0.4160 H   0  0  0  0  0  0  0  0  0  0  0  0
   -1.7664   -2.1674    0.8574 C   0  0  0  0  0  0  0  0  0  0  0  0
   -0.8665   -2.7476    1.4460 O   0  0  0  0  0  0  0  0  0  0  0  0
   -1.5667   -0.8981    0.3599 N   0  0  0  0  0  0  0  0  0  0  0  0
   -2.3028   -0.5254   -0.2424 H   0  0  0  0  0  0  0  0  0  0  0  0
   -0.2743   -0.2031    0.3196 C   0  0  1  0  0  0  0  0  0  0  0  0
    0.4024   -0.6937    1.0263 H   0  0  0  0  0  0  0  0  0  0  0  0
    0.3167   -0.4225   -1.0955 C   0  0  0  0  0  0  0  0  0  0  0  0
    1.4051   -0.3838   -0.9836 H   0  0  0  0  0  0  0  0  0  0  0  0
    0.0795   -1.4310   -1.4531 H   0  0  0  0  0  0  0  0  0  0  0  0
   -0.0565    0.6291   -2.1720 C   0  0  0  0  0  0  0  0  0  0  0  0
   -0.1339    1.6385   -1.7671 H   0  0  0  0  0  0  0  0  0  0  0  0
    0.7559    0.6534   -2.9033 H   0  0  0  0  0  0  0  0  0  0  0  0
   -1.3305    0.3000   -2.9536 C   0  0  0  0  0  0  0  0  0  0  0  0
   -2.2024   -0.3875   -2.4453 O   0  0  0  0  0  0  0  0  0  0  0  0
   -1.4257    0.8038   -4.2025 O   0  0  0  0  0  0  0  0  0  0  0  0
   -2.2929    0.5154   -4.5255 H   0  0  0  0  0  0  0  0  0  0  0  0
   -0.3682    1.2653    0.7922 C   0  0  0  0  0  0  0  0  0  0  0  0
   -1.2971    1.9829    0.4395 O   0  0  0  0  0  0  0  0  0  0  0  0
    0.5770    1.7757    1.6634 N   0  0  0  0  0  0  0  0  0  0  0  0
    1.2687    1.1294    2.0324 H   0  0  0  0  0  0  0  0  0  0  0  0
    0.4944    3.1160    2.2319 C   0  0  0  0  0  0  0  0  0  0  0  0
   -0.4263    3.2294    2.8141 H   0  0  0  0  0  0  0  0  0  0  0  0
    1.3470    3.2998    2.8927 H   0  0  0  0  0  0  0  0  0  0  0  0
    0.5046    3.8706    1.4382 H   0  0  0  0  0  0  0  0  0  0  0  0
  1  2  1  0  0  0  0
  2  3  1  0  0  0  0
  2  4  1  0  0  0  0
  2  5  1  0  0  0  0
  5  6  2  0  0  0  0
  5  7  1  0  0  0  0
  7  8  1  0  0  0  0
  7  9  1  0  0  0  0
  9 10  1  0  0  0  0
  9 11  1  0  0  0  0
  9 21  1  0  0  0  0
 11 12  1  0  0  0  0
 11 13  1  0  0  0  0
 11 14  1  0  0  0  0
 14 15  1  0  0  0  0
 14 16  1  0  0  0  0
 14 17  1  0  0  0  0
 17 18  2  0  0  0  0
 17 19  1  0  0  0  0
 19 20  1  0  0  0  0
 21 22  2  0  0  0  0
 21 23  1  0  0  0  0
 23 24  1  0  0  0  0
 23 25  1  0  0  0  0
 25 26  1  0  0  0  0
 25 27  1  0  0  0  0
 25 28  1  0  0  0  0
M  END
$$$$

  -OEChem-03222214033D

 28 27  0     1  0  0  0  0  0999 V2000
   -3.0989   -3.8728    1.1229 H   0  0  0  0  0  0  0  0  0  0  0  0
   -3.1143   -2.8704    0.6864 C   0  0  0  0  0  0  0  0  0  0  0  0
   -3.9126   -2.2918    1.1571 H   0  0  0  0  0  0  0  0  0  0  0  0
   -3.3182   -2.9544   -0.3840 H   0  0  0  0  0  0  0  0  0  0  0  0
   -1.7805   -2.1822    0.9046 C   0  0  0  0  0  0  0  0  0  0  0  0
   -0.8930   -2.7464    1.5266 O   0  0  0  0  0  0  0  0  0  0  0  0
   -1.5708   -0.9265    0.3779 N   0  0  0  0  0  0  0  0  0  0  0  0
   -2.2914   -0.5771   -0.2569 H   0  0  0  0  0  0  0  0  0  0  0  0
   -0.2752   -0.2378    0.3364 C   0  0  1  0  0  0  0  0  0  0  0  0
    0.3949   -0.7158    1.0579 H   0  0  0  0  0  0  0  0  0  0  0  0
    0.3321   -0.4649   -1.0720 C   0  0  0  0  0  0  0  0  0  0  0  0
    1.4204   -0.4430   -0.9562 H   0  0  0  0  0  0  0  0  0  0  0  0
    0.0762   -1.4688   -1.4295 H   0  0  0  0  0  0  0  0  0  0  0  0
   -0.0266    0.5837   -2.1568 C   0  0  0  0  0  0  0  0  0  0  0  0
    0.1411    1.5994   -1.7922 H   0  0  0  0  0  0  0  0  0  0  0  0
    0.6542    0.4394   -2.9994 H   0  0  0  0  0  0  0  0  0  0  0  0
   -1.4456    0.4951   -2.7272 C   0  0  0  0  0  0  0  0  0  0  0  0
   -2.2202   -0.3685   -2.3458 O   0  0  0  0  0  0  0  0  0  0  0  0
   -1.7643    1.3982   -3.6784 O   0  0  0  0  0  0  0  0  0  0  0  0
   -2.6881    1.2124   -3.9041 H   0  0  0  0  0  0  0  0  0  0  0  0
   -0.3748    1.2415    0.7719 C   0  0  0  0  0  0  0  0  0  0  0  0
   -1.2801    1.9575    0.3599 O   0  0  0  0  0  0  0  0  0  0  0  0
    0.5576    1.7743    1.6434 N   0  0  0  0  0  0  0  0  0  0  0  0
    1.2345    1.1355    2.0507 H   0  0  0  0  0  0  0  0  0  0  0  0
    0.4832    3.1381    2.1542 C   0  0  0  0  0  0  0  0  0  0  0  0
   -0.4487    3.2894    2.7091 H   0  0  0  0  0  0  0  0  0  0  0  0
    1.3230    3.3368    2.8269 H   0  0  0  0  0  0  0  0  0  0  0  0
    0.5233    3.8588    1.3306 H   0  0  0  0  0  0  0  0  0  0  0  0
  1  2  1  0  0  0  0
  2  3  1  0  0  0  0
  2  4  1  0  0  0  0
  2  5  1  0  0  0  0
  5  6  2  0  0  0  0
  5  7  1  0  0  0  0
  7  8  1  0  0  0  0
  7  9  1  0  0  0  0
  9 10  1  0  0  0  0
  9 11  1  0  0  0  0
  9 21  1  0  0  0  0
 11 12  1  0  0  0  0
 11 13  1  0  0  0  0
 11 14  1  0  0  0  0
 14 15  1  0  0  0  0
 14 16  1  0  0  0  0
 14 17  1  0  0  0  0
 17 18  2  0  0  0  0
 17 19  1  0  0  0  0
 19 20  1  0  0  0  0
 21 22  2  0  0  0  0
 21 23  1  0  0  0  0
 23 24  1  0  0  0  0
 23 25  1  0  0  0  0
 25 26  1  0  0  0  0
 25 27  1  0  0  0  0
 25 28  1  0  0  0  0
M  END
$$$$

  -OEChem-03222214033D

 28 27  0     1  0  0  0  0  0999 V2000
   -3.0996   -3.8858    1.1549 H   0  0  0  0  0  0  0  0  0  0  0  0
   -3.1203   -2.8852    0.7146 C   0  0  0  0  0  0  0  0  0  0  0  0
   -3.9171   -2.3067    1.1879 H   0  0  0  0  0  0  0  0  0  0  0  0
   -3.3308   -2.9742   -0.3541 H   0  0  0  0  0  0  0  0  0  0  0  0
   -1.7870   -2.1929    0.9218 C   0  0  0  0  0  0  0  0  0  0  0  0
   -0.8960   -2.7511    1.5442 O   0  0  0  0  0  0  0  0  0  0  0  0
   -1.5815   -0.9406    0.3849 N   0  0  0  0  0  0  0  0  0  0  0  0
   -2.3090   -0.5908   -0.2424 H   0  0  0  0  0  0  0  0  0  0  0  0
   -0.2893   -0.2449    0.3383 C   0  0  1  0  0  0  0  0  0  0  0  0
    0.3781   -0.7150    1.0677 H   0  0  0  0  0  0  0  0  0  0  0  0
    0.3376   -0.4732   -1.0609 C   0  0  0  0  0  0  0  0  0  0  0  0
    1.4254   -0.4614   -0.9408 H   0  0  0  0  0  0  0  0  0  0  0  0
    0.0704   -1.4754   -1.4144 H   0  0  0  0  0  0  0  0  0  0  0  0
   -0.0134    0.5615   -2.1609 C   0  0  0  0  0  0  0  0  0  0  0  0
    0.3559    1.5465   -1.8630 H   0  0  0  0  0  0  0  0  0  0  0  0
    0.5121    0.2863   -3.0787 H   0  0  0  0  0  0  0  0  0  0  0  0
   -1.4972    0.7064   -2.5135 C   0  0  0  0  0  0  0  0  0  0  0  0
   -2.2830   -0.1942   -2.2613 O   0  0  0  0  0  0  0  0  0  0  0  0
   -1.8576    1.8415   -3.1491 O   0  0  0  0  0  0  0  0  0  0  0  0
   -2.8190    1.7809   -3.2512 H   0  0  0  0  0  0  0  0  0  0  0  0
   -0.3841    1.2392    0.7589 C   0  0  0  0  0  0  0  0  0  0  0  0
   -1.2891    1.9538    0.3451 O   0  0  0  0  0  0  0  0  0  0  0  0
    0.5513    1.7785    1.6234 N   0  0  0  0  0  0  0  0  0  0  0  0
    1.2313    1.1439    2.0325 H   0  0  0  0  0  0  0  0  0  0  0  0
    0.4807    3.1481    2.1192 C   0  0  0  0  0  0  0  0  0  0  0  0
   -0.4444    3.3040    2.6842 H   0  0  0  0  0  0  0  0  0  0  0  0
    1.3287    3.3562    2.7786 H   0  0  0  0  0  0  0  0  0  0  0  0
    0.5086    3.8594    1.2870 H   0  0  0  0  0  0  0  0  0  0  0  0
  1  2  1  0  0  0  0
  2  3  1  0  0  0  0
  2  4  1  0  0  0  0
  2  5  1  0  0  0  0
  5  6  2  0  0  0  0
  5  7  1  0  0  0  0
  7  8  1  0  0  0  0
  7  9  1  0  0  0  0
  9 10  1  0  0  0  0
  9 11  1  0  0  0  0
  9 21  1  0  0  0  0
 11 12  1  0  0  0  0
 11 13  1  0  0  0  0
 11 14  1  0  0  0  0
 14 15  1  0  0  0  0
 14 16  1  0  0  0  0
 14 17  1  0  0  0  0
 17 18  2  0  0  0  0
 17 19  1  0  0  0  0
 19 20  1  0  0  0  0
 21 22  2  0  0  0  0
 21 23  1  0  0  0  0
 23 24  1  0  0  0  0
 23 25  1  0  0  0  0
 25 26  1  0  0  0  0
 25 27  1  0  0  0  0
 25 28  1  0  0  0  0
M  END
$$$$

  -OEChem-03222214033D

 28 27  0     1  0  0  0  0  0999 V2000
   -3.0835   -3.8888    1.1909 H   0  0  0  0  0  0  0  0  0  0  0  0
   -3.1196   -2.8877    0.7527 C   0  0  0  0  0  0  0  0  0  0  0  0
   -3.8990   -2.3097    1.2549 H   0  0  0  0  0  0  0  0  0  0  0  0
   -3.3673   -2.9748   -0.3082 H   0  0  0  0  0  0  0  0  0  0  0  0
   -1.7791   -2.1966    0.9145 C   0  0  0  0  0  0  0  0  0  0  0  0
   -0.8621   -2.7641    1.4886 O   0  0  0  0  0  0  0  0  0  0  0  0
   -1.5966   -0.9347    0.3916 N   0  0  0  0  0  0  0  0  0  0  0  0
   -2.3529   -0.5641   -0.1884 H   0  0  0  0  0  0  0  0  0  0  0  0
   -0.3166   -0.2175    0.3307 C   0  0  1  0  0  0  0  0  0  0  0  0
    0.3522   -0.6839    1.0610 H   0  0  0  0  0  0  0  0  0  0  0  0
    0.3302   -0.4530   -1.0571 C   0  0  0  0  0  0  0  0  0  0  0  0
    1.4172   -0.4367   -0.9293 H   0  0  0  0  0  0  0  0  0  0  0  0
    0.0677   -1.4630   -1.3908 H   0  0  0  0  0  0  0  0  0  0  0  0
   -0.0170    0.5417   -2.1946 C   0  0  0  0  0  0  0  0  0  0  0  0
    0.5322    1.4703   -2.0147 H   0  0  0  0  0  0  0  0  0  0  0  0
    0.3351    0.1353   -3.1458 H   0  0  0  0  0  0  0  0  0  0  0  0
   -1.4911    0.9214   -2.3595 C   0  0  0  0  0  0  0  0  0  0  0  0
   -2.3581    0.0845   -2.1583 O   0  0  0  0  0  0  0  0  0  0  0  0
   -1.7567    2.1759   -2.7815 O   0  0  0  0  0  0  0  0  0  0  0  0
   -2.7219    2.2528   -2.7530 H   0  0  0  0  0  0  0  0  0  0  0  0
   -0.3987    1.2634    0.7673 C   0  0  0  0  0  0  0  0  0  0  0  0
   -1.3389    1.9730    0.4335 O   0  0  0  0  0  0  0  0  0  0  0  0
    0.5608    1.7876    1.6145 N   0  0  0  0  0  0  0  0  0  0  0  0
    1.2683    1.1518    1.9714 H   0  0  0  0  0  0  0  0  0  0  0  0
    0.4928    3.1393    2.1573 C   0  0  0  0  0  0  0  0  0  0  0  0
   -0.4138    3.2655    2.7586 H   0  0  0  0  0  0  0  0  0  0  0  0
    1.3609    3.3355    2.7940 H   0  0  0  0  0  0  0  0  0  0  0  0
    0.4847    3.8774    1.3481 H   0  0  0  0  0  0  0  0  0  0  0  0
  1  2  1  0  0  0  0
  2  3  1  0  0  0  0
  2  4  1  0  0  0  0
  2  5  1  0  0  0  0
  5  6  2  0  0  0  0
  5  7  1  0  0  0  0
  7  8  1  0  0  0  0
  7  9  1  0  0  0  0
  9 10  1  0  0  0  0
  9 11  1  0  0  0  0
  9 21  1  0  0  0  0
 11 12  1  0  0  0  0
 11 13  1  0  0  0  0
 11 14  1  0  0  0  0
 14 15  1  0  0  0  0
 14 16  1  0  0  0  0
 14 17  1  0  0  0  0
 17 18  2  0  0  0  0
 17 19  1  0  0  0  0
 19 20  1  0  0  0  0
 21 22  2  0  0  0  0
 21 23  1  0  0  0  0
 23 24  1  0  0  0  0
 23 25  1  0  0  0  0
 25 26  1  0  0  0  0
 25 27  1  0  0  0  0
 25 28  1  0  0  0  0
M  END
$$$$

  -OEChem-03222214033D

 28 27  0     1  0  0  0  0  0999 V2000
   -3.0648   -3.8754    1.2338 H   0  0  0  0  0  0  0  0  0  0  0  0
   -3.1151   -2.8732    0.7990 C   0  0  0  0  0  0  0  0  0  0  0  0
   -3.8602   -2.2888    1.3441 H   0  0  0  0  0  0  0  0  0  0  0  0
   -3.4223   -2.9560   -0.2465 H   0  0  0  0  0  0  0  0  0  0  0  0
   -1.7616   -2.1948    0.8876 C   0  0  0  0  0  0  0  0  0  0  0  0
   -0.8110   -2.7843    1.3785 O   0  0  0  0  0  0  0  0  0  0  0  0
   -1.6062   -0.9184    0.3918 N   0  0  0  0  0  0  0  0  0  0  0  0
   -2.4028   -0.5104   -0.1020 H   0  0  0  0  0  0  0  0  0  0  0  0
   -0.3408   -0.1772    0.3150 C   0  0  1  0  0  0  0  0  0  0  0  0
    0.3284   -0.6413    1.0465 H   0  0  0  0  0  0  0  0  0  0  0  0
    0.3260   -0.4294   -1.0611 C   0  0  0  0  0  0  0  0  0  0  0  0
    1.4115   -0.3980   -0.9218 H   0  0  0  0  0  0  0  0  0  0  0  0
    0.0815   -1.4530   -1.3660 H   0  0  0  0  0  0  0  0  0  0  0  0
   -0.0168    0.5134   -2.2441 C   0  0  0  0  0  0  0  0  0  0  0  0
    0.6958    1.3428   -2.2298 H   0  0  0  0  0  0  0  0  0  0  0  0
    0.1272   -0.0209   -3.1864 H   0  0  0  0  0  0  0  0  0  0  0  0
   -1.4128    1.1350   -2.2539 C   0  0  0  0  0  0  0  0  0  0  0  0
   -2.3825    0.4114   -2.0855 O   0  0  0  0  0  0  0  0  0  0  0  0
   -1.5042    2.4616   -2.4864 O   0  0  0  0  0  0  0  0  0  0  0  0
   -2.4375    2.6771   -2.3370 H   0  0  0  0  0  0  0  0  0  0  0  0
   -0.4162    1.2957    0.7841 C   0  0  0  0  0  0  0  0  0  0  0  0
   -1.4066    1.9834    0.5704 O   0  0  0  0  0  0  0  0  0  0  0  0
    0.5691    1.8033    1.6122 N   0  0  0  0  0  0  0  0  0  0  0  0
    1.3175    1.1753    1.8906 H   0  0  0  0  0  0  0  0  0  0  0  0
    0.4972    3.1252    2.2242 C   0  0  0  0  0  0  0  0  0  0  0  0
   -0.3779    3.1982    2.8785 H   0  0  0  0  0  0  0  0  0  0  0  0
    1.3934    3.3144    2.8226 H   0  0  0  0  0  0  0  0  0  0  0  0
    0.4268    3.9008    1.4542 H   0  0  0  0  0  0  0  0  0  0  0  0
  1  2  1  0  0  0  0
  2  3  1  0  0  0  0
  2  4  1  0  0  0  0
  2  5  1  0  0  0  0
  5  6  2  0  0  0  0
  5  7  1  0  0  0  0
  7  8  1  0  0  0  0
  7  9  1  0  0  0  0
  9 10  1  0  0  0  0
  9 11  1  0  0  0  0
  9 21  1  0  0  0  0
 11 12  1  0  0  0  0
 11 13  1  0  0  0  0
 11 14  1  0  0  0  0
 14 15  1  0  0  0  0
 14 16  1  0  0  0  0
 14 17  1  0  0  0  0
 17 18  2  0  0  0  0
 17 19  1  0  0  0  0
 19 20  1  0  0  0  0
 21 22  2  0  0  0  0
 21 23  1  0  0  0  0
 23 24  1  0  0  0  0
 23 25  1  0  0  0  0
 25 26  1  0  0  0  0
 25 27  1  0  0  0  0
 25 28  1  0  0  0  0
M  END
$$$$

  -OEChem-03222214033D

 28 27  0     1  0  0  0  0  0999 V2000
   -2.7690   -3.8450    1.7158 H   0  0  0  0  0  0  0  0  0  0  0  0
   -2.9150   -2.8626    1.2583 C   0  0  0  0  0  0  0  0  0  0  0  0
   -3.5640   -2.2659    1.9039 H   0  0  0  0  0  0  0  0  0  0  0  0
   -3.3995   -2.9934    0.2876 H   0  0  0  0  0  0  0  0  0  0  0  0
   -1.5806   -2.1646    1.0790 C   0  0  0  0  0  0  0  0  0  0  0  0
   -0.5461   -2.7260    1.4056 O   0  0  0  0  0  0  0  0  0  0  0  0
   -1.5388   -0.9021    0.5273 N   0  0  0  0  0  0  0  0  0  0  0  0
   -2.4229   -0.4900    0.2253 H   0  0  0  0  0  0  0  0  0  0  0  0
   -0.3254   -0.1151    0.2721 C   0  0  1  0  0  0  0  0  0  0  0  0
    0.4261   -0.5137    0.9614 H   0  0  0  0  0  0  0  0  0  0  0  0
    0.2352   -0.4480   -1.1364 C   0  0  0  0  0  0  0  0  0  0  0  0
    1.3246   -0.3490   -1.0891 H   0  0  0  0  0  0  0  0  0  0  0  0
    0.0320   -1.5067   -1.3319 H   0  0  0  0  0  0  0  0  0  0  0  0
   -0.2429    0.3613   -2.3713 C   0  0  0  0  0  0  0  0  0  0  0  0
    0.5592    1.0435   -2.6659 H   0  0  0  0  0  0  0  0  0  0  0  0
   -0.4056   -0.3230   -3.2084 H   0  0  0  0  0  0  0  0  0  0  0  0
   -1.5011    1.2023   -2.1973 C   0  0  0  0  0  0  0  0  0  0  0  0
   -2.5537    0.6250   -1.9769 O   0  0  0  0  0  0  0  0  0  0  0  0
   -1.3872    2.5440   -2.2925 O   0  0  0  0  0  0  0  0  0  0  0  0
   -2.2466    2.8841   -1.9964 H   0  0  0  0  0  0  0  0  0  0  0  0
   -0.4046    1.3721    0.6985 C   0  0  0  0  0  0  0  0  0  0  0  0
   -1.4625    1.9889    0.6533 O   0  0  0  0  0  0  0  0  0  0  0  0
    0.6523    1.9483    1.3812 N   0  0  0  0  0  0  0  0  0  0  0  0
    1.4756    1.3759    1.5436 H   0  0  0  0  0  0  0  0  0  0  0  0
    0.5875    3.2743    1.9859 C   0  0  0  0  0  0  0  0  0  0  0  0
   -0.1844    3.3052    2.7623 H   0  0  0  0  0  0  0  0  0  0  0  0
    1.5483    3.5299    2.4428 H   0  0  0  0  0  0  0  0  0  0  0  0
    0.3545    4.0298    1.2279 H   0  0  0  0  0  0  0  0  0  0  0  0
  1  2  1  0  0  0  0
  2  3  1  0  0  0  0
  2  4  1  0  0  0  0
  2  5  1  0  0  0  0
  5  6  2  0  0  0  0
  5  7  1  0  0  0  0
  7  8  1  0  0  0  0
  7  9  1  0  0  0  0
  9 10  1  0  0  0  0
  9 11  1  0  0  0  0
  9 21  1  0  0  0  0
 11 12  1  0  0  0  0
 11 13  1  0  0  0  0
 11 14  1  0  0  0  0
 14 15  1  0  0  0  0
 14 16  1  0  0  0  0
 14 17  1  0  0  0  0
 17 18  2  0  0  0  0
 17 19  1  0  0  0  0
 19 20  1  0  0  0  0
 21 22  2  0  0  0  0
 21 23  1  0  0  0  0
 23 24  1  0  0  0  0
 23 25  1  0  0  0  0
 25 26  1  0  0  0  0
 25 27  1  0  0  0  0
 25 28  1  0  0  0  0
M  END
$$$$

  -OEChem-03222214033D

 28 27  0     1  0  0  0  0  0999 V2000
   -2.9431   -3.8264    1.5206 H   0  0  0  0  0  0  0  0  0  0  0  0
   -3.0478   -2.8349    1.0715 C   0  0  0  0  0  0  0  0  0  0  0  0
   -3.7083   -2.2316    1.6989 H   0  0  0  0  0  0  0  0  0  0  0  0
   -3.4958   -2.9416    0.0806 H   0  0  0  0  0  0  0  0  0  0  0  0
   -1.6910   -2.1668    0.9562 C   0  0  0  0  0  0  0  0  0  0  0  0
   -0.6840   -2.7562    1.3176 O   0  0  0  0  0  0  0  0  0  0  0  0
   -1.5974   -0.8951    0.4316 N   0  0  0  0  0  0  0  0  0  0  0  0
   -2.4654   -0.4328    0.1603 H   0  0  0  0  0  0  0  0  0  0  0  0
   -0.3649   -0.1057    0.3126 C   0  0  1  0  0  0  0  0  0  0  0  0
    0.3015   -0.5082    1.0825 H   0  0  0  0  0  0  0  0  0  0  0  0
    0.3642   -0.4440   -1.0166 C   0  0  0  0  0  0  0  0  0  0  0  0
    1.4341   -0.3130   -0.8247 H   0  0  0  0  0  0  0  0  0  0  0  0
    0.2206   -1.5109   -1.2199 H   0  0  0  0  0  0  0  0  0  0  0  0
    0.0544    0.3384   -2.3219 C   0  0  0  0  0  0  0  0  0  0  0  0
    0.9806    0.7878   -2.6900 H   0  0  0  0  0  0  0  0  0  0  0  0
   -0.2762   -0.3744   -3.0828 H   0  0  0  0  0  0  0  0  0  0  0  0
   -0.9899    1.4408   -2.2498 C   0  0  0  0  0  0  0  0  0  0  0  0
   -2.1628    1.1216   -2.3391 O   0  0  0  0  0  0  0  0  0  0  0  0
   -0.5682    2.7123   -2.0827 O   0  0  0  0  0  0  0  0  0  0  0  0
   -1.3819    3.2134   -1.9098 H   0  0  0  0  0  0  0  0  0  0  0  0
   -0.4979    1.3719    0.7556 C   0  0  0  0  0  0  0  0  0  0  0  0
   -1.5609    1.9698    0.6337 O   0  0  0  0  0  0  0  0  0  0  0  0
    0.4788    1.9419    1.5530 N   0  0  0  0  0  0  0  0  0  0  0  0
    1.3089    1.3903    1.7491 H   0  0  0  0  0  0  0  0  0  0  0  0
    0.3467    3.2577    2.1679 C   0  0  0  0  0  0  0  0  0  0  0  0
   -0.5196    3.2838    2.8376 H   0  0  0  0  0  0  0  0  0  0  0  0
    1.2411    3.4942    2.7520 H   0  0  0  0  0  0  0  0  0  0  0  0
    0.2222    4.0279    1.3994 H   0  0  0  0  0  0  0  0  0  0  0  0
  1  2  1  0  0  0  0
  2  3  1  0  0  0  0
  2  4  1  0  0  0  0
  2  5  1  0  0  0  0
  5  6  2  0  0  0  0
  5  7  1  0  0  0  0
  7  8  1  0  0  0  0
  7  9  1  0  0  0  0
  9 10  1  0  0  0  0
  9 11  1  0  0  0  0
  9 21  1  0  0  0  0
 11 12  1  0  0  0  0
 11 13  1  0  0  0  0
 11 14  1  0  0  0  0
 14 15  1  0  0  0  0
 14 16  1  0  0  0  0
 14 17  1  0  0  0  0
 17 18  2  0  0  0  0
 17 19  1  0  0  0  0
 19 20  1  0  0  0  0
 21 22  2  0  0  0  0
 21 23  1  0  0  0  0
 23 24  1  0  0  0  0
 23 25  1  0  0  0  0
 25 26  1  0  0  0  0
 25 27  1  0  0  0  0
 25 28  1  0  0  0  0
M  END
$$$$

  -OEChem-03222214033D

 28 27  0     1  0  0  0  0  0999 V2000
   -3.4309   -3.6192    0.9775 H   0  0  0  0  0  0  0  0  0  0  0  0
   -3.3758   -2.6034    0.5761 C   0  0  0  0  0  0  0  0  0  0  0  0
   -4.0246   -1.9548    1.1695 H   0  0  0  0  0  0  0  0  0  0  0  0
   -3.7289   -2.6127   -0.4579 H   0  0  0  0  0  0  0  0  0  0  0  0
   -1.9472   -2.0966    0.6301 C   0  0  0  0  0  0  0  0  0  0  0  0
   -1.0534   -2.8252    1.0317 O   0  0  0  0  0  0  0  0  0  0  0  0
   -1.6600   -0.8133    0.2154 N   0  0  0  0  0  0  0  0  0  0  0  0
   -2.4491   -0.2134   -0.0233 H   0  0  0  0  0  0  0  0  0  0  0  0
   -0.3552   -0.1521    0.3534 C   0  0  1  0  0  0  0  0  0  0  0  0
    0.1520   -0.6609    1.1804 H   0  0  0  0  0  0  0  0  0  0  0  0
    0.5266   -0.4638   -0.8894 C   0  0  0  0  0  0  0  0  0  0  0  0
    1.5590   -0.4378   -0.5254 H   0  0  0  0  0  0  0  0  0  0  0  0
    0.3399   -1.4978   -1.1991 H   0  0  0  0  0  0  0  0  0  0  0  0
    0.5120    0.4343   -2.1569 C   0  0  0  0  0  0  0  0  0  0  0  0
    1.5349    0.5460   -2.5277 H   0  0  0  0  0  0  0  0  0  0  0  0
   -0.0495   -0.0949   -2.9316 H   0  0  0  0  0  0  0  0  0  0  0  0
   -0.1089    1.8169   -2.0507 C   0  0  0  0  0  0  0  0  0  0  0  0
    0.6054    2.7366   -1.6910 O   0  0  0  0  0  0  0  0  0  0  0  0
   -1.4201    1.9527   -2.3432 O   0  0  0  0  0  0  0  0  0  0  0  0
   -1.6447    2.8512   -2.0527 H   0  0  0  0  0  0  0  0  0  0  0  0
   -0.4771    1.2994    0.8758 C   0  0  0  0  0  0  0  0  0  0  0  0
   -1.4869    1.9522    0.6282 O   0  0  0  0  0  0  0  0  0  0  0  0
    0.3704    1.7545    1.8694 N   0  0  0  0  0  0  0  0  0  0  0  0
    1.1852    1.1888    2.0875 H   0  0  0  0  0  0  0  0  0  0  0  0
    0.2547    3.0785    2.4693 C   0  0  0  0  0  0  0  0  0  0  0  0
   -0.7239    3.2003    2.9456 H   0  0  0  0  0  0  0  0  0  0  0  0
    1.0275    3.2174    3.2315 H   0  0  0  0  0  0  0  0  0  0  0  0
    0.3755    3.8553    1.7065 H   0  0  0  0  0  0  0  0  0  0  0  0
  1  2  1  0  0  0  0
  2  3  1  0  0  0  0
  2  4  1  0  0  0  0
  2  5  1  0  0  0  0
  5  6  2  0  0  0  0
  5  7  1  0  0  0  0
  7  8  1  0  0  0  0
  7  9  1  0  0  0  0
  9 10  1  0  0  0  0
  9 11  1  0  0  0  0
  9 21  1  0  0  0  0
 11 12  1  0  0  0  0
 11 13  1  0  0  0  0
 11 14  1  0  0  0  0
 14 15  1  0  0  0  0
 14 16  1  0  0  0  0
 14 17  1  0  0  0  0
 17 18  2  0  0  0  0
 17 19  1  0  0  0  0
 19 20  1  0  0  0  0
 21 22  2  0  0  0  0
 21 23  1  0  0  0  0
 23 24  1  0  0  0  0
 23 25  1  0  0  0  0
 25 26  1  0  0  0  0
 25 27  1  0  0  0  0
 25 28  1  0  0  0  0
M  END
$$$$

  -OEChem-03222214033D

 28 27  0     1  0  0  0  0  0999 V2000
   -3.3401   -3.7303    0.7792 H   0  0  0  0  0  0  0  0  0  0  0  0
   -3.3044   -2.6906    0.4424 C   0  0  0  0  0  0  0  0  0  0  0  0
   -3.9523   -2.0898    1.0854 H   0  0  0  0  0  0  0  0  0  0  0  0
   -3.6737   -2.6398   -0.5847 H   0  0  0  0  0  0  0  0  0  0  0  0
   -1.8818   -2.1683    0.5074 C   0  0  0  0  0  0  0  0  0  0  0  0
   -0.9753   -2.9014    0.8699 O   0  0  0  0  0  0  0  0  0  0  0  0
   -1.6150   -0.8637    0.1488 N   0  0  0  0  0  0  0  0  0  0  0  0
   -2.4159   -0.2613   -0.0397 H   0  0  0  0  0  0  0  0  0  0  0  0
   -0.3223   -0.1883    0.3310 C   0  0  1  0  0  0  0  0  0  0  0  0
    0.2006   -0.7237    1.1311 H   0  0  0  0  0  0  0  0  0  0  0  0
    0.5503   -0.4102   -0.9375 C   0  0  0  0  0  0  0  0  0  0  0  0
    1.5856   -0.3856   -0.5816 H   0  0  0  0  0  0  0  0  0  0  0  0
    0.3778   -1.4256   -1.3107 H   0  0  0  0  0  0  0  0  0  0  0  0
    0.5085    0.5666   -2.1433 C   0  0  0  0  0  0  0  0  0  0  0  0
    1.4586    0.5107   -2.6813 H   0  0  0  0  0  0  0  0  0  0  0  0
   -0.2669    0.2085   -2.8261 H   0  0  0  0  0  0  0  0  0  0  0  0
    0.2020    2.0320   -1.8763 C   0  0  0  0  0  0  0  0  0  0  0  0
    1.0361    2.6878   -1.2756 O   0  0  0  0  0  0  0  0  0  0  0  0
   -0.9708    2.5334   -2.3182 O   0  0  0  0  0  0  0  0  0  0  0  0
   -1.0239    3.4223   -1.9344 H   0  0  0  0  0  0  0  0  0  0  0  0
   -0.5007    1.2332    0.9121 C   0  0  0  0  0  0  0  0  0  0  0  0
   -1.5092    1.8769    0.6372 O   0  0  0  0  0  0  0  0  0  0  0  0
    0.3100    1.6768    1.9407 N   0  0  0  0  0  0  0  0  0  0  0  0
    1.1520    1.1425    2.1333 H   0  0  0  0  0  0  0  0  0  0  0  0
    0.1628    2.9914    2.5534 C   0  0  0  0  0  0  0  0  0  0  0  0
   -0.8319    3.0978    2.9992 H   0  0  0  0  0  0  0  0  0  0  0  0
    0.9092    3.1271    3.3420 H   0  0  0  0  0  0  0  0  0  0  0  0
    0.3006    3.7791    1.8048 H   0  0  0  0  0  0  0  0  0  0  0  0
  1  2  1  0  0  0  0
  2  3  1  0  0  0  0
  2  4  1  0  0  0  0
  2  5  1  0  0  0  0
  5  6  2  0  0  0  0
  5  7  1  0  0  0  0
  7  8  1  0  0  0  0
  7  9  1  0  0  0  0
  9 10  1  0  0  0  0
  9 11  1  0  0  0  0
  9 21  1  0  0  0  0
 11 12  1  0  0  0  0
 11 13  1  0  0  0  0
 11 14  1  0  0  0  0
 14 15  1  0  0  0  0
 14 16  1  0  0  0  0
 14 17  1  0  0  0  0
 17 18  2  0  0  0  0
 17 19  1  0  0  0  0
 19 20  1  0  0  0  0
 21 22  2  0  0  0  0
 21 23  1  0  0  0  0
 23 24  1  0  0  0  0
 23 25  1  0  0  0  0
 25 26  1  0  0  0  0
 25 27  1  0  0  0  0
 25 28  1  0  0  0  0
M  END
$$$$

  -OEChem-03222214033D

 28 27  0     1  0  0  0  0  0999 V2000
   -3.1916   -3.7640    1.1414 H   0  0  0  0  0  0  0  0  0  0  0  0
   -3.1968   -2.7418    0.7529 C   0  0  0  0  0  0  0  0  0  0  0  0
   -3.7946   -2.1153    1.4193 H   0  0  0  0  0  0  0  0  0  0  0  0
   -3.6525   -2.7441   -0.2402 H   0  0  0  0  0  0  0  0  0  0  0  0
   -1.7800   -2.2062    0.6703 C   0  0  0  0  0  0  0  0  0  0  0  0
   -0.8365   -2.9196    0.9725 O   0  0  0  0  0  0  0  0  0  0  0  0
   -1.5615   -0.9112    0.2498 N   0  0  0  0  0  0  0  0  0  0  0  0
   -2.3826   -0.3200    0.1236 H   0  0  0  0  0  0  0  0  0  0  0  0
   -0.2648   -0.2204    0.3041 C   0  0  1  0  0  0  0  0  0  0  0  0
    0.3496   -0.7292    1.0548 H   0  0  0  0  0  0  0  0  0  0  0  0
    0.4612   -0.4316   -1.0542 C   0  0  0  0  0  0  0  0  0  0  0  0
    1.5325   -0.4121   -0.8277 H   0  0  0  0  0  0  0  0  0  0  0  0
    0.2407   -1.4411   -1.4179 H   0  0  0  0  0  0  0  0  0  0  0  0
    0.2588    0.5654   -2.2249 C   0  0  0  0  0  0  0  0  0  0  0  0
    0.9984    0.3572   -3.0021 H   0  0  0  0  0  0  0  0  0  0  0  0
   -0.7275    0.3716   -2.6553 H   0  0  0  0  0  0  0  0  0  0  0  0
    0.3185    2.0554   -1.9111 C   0  0  0  0  0  0  0  0  0  0  0  0
    1.2774    2.4731   -1.2834 O   0  0  0  0  0  0  0  0  0  0  0  0
   -0.6746    2.8453   -2.3709 O   0  0  0  0  0  0  0  0  0  0  0  0
   -0.4937    3.7217   -1.9994 H   0  0  0  0  0  0  0  0  0  0  0  0
   -0.4387    1.2116    0.8565 C   0  0  0  0  0  0  0  0  0  0  0  0
   -1.4619    1.8378    0.5969 O   0  0  0  0  0  0  0  0  0  0  0  0
    0.4306    1.7108    1.8084 N   0  0  0  0  0  0  0  0  0  0  0  0
    1.3004    1.2053    1.9490 H   0  0  0  0  0  0  0  0  0  0  0  0
    0.3124    3.0564    2.3560 C   0  0  0  0  0  0  0  0  0  0  0  0
   -0.6631    3.1923    2.8349 H   0  0  0  0  0  0  0  0  0  0  0  0
    1.0901    3.2296    3.1060 H   0  0  0  0  0  0  0  0  0  0  0  0
    0.4231    3.8024    1.5619 H   0  0  0  0  0  0  0  0  0  0  0  0
  1  2  1  0  0  0  0
  2  3  1  0  0  0  0
  2  4  1  0  0  0  0
  2  5  1  0  0  0  0
  5  6  2  0  0  0  0
  5  7  1  0  0  0  0
  7  8  1  0  0  0  0
  7  9  1  0  0  0  0
  9 10  1  0  0  0  0
  9 11  1  0  0  0  0
  9 21  1  0  0  0  0
 11 12  1  0  0  0  0
 11 13  1  0  0  0  0
 11 14  1  0  0  0  0
 14 15  1  0  0  0  0
 14 16  1  0  0  0  0
 14 17  1  0  0  0  0
 17 18  2  0  0  0  0
 17 19  1  0  0  0  0
 19 20  1  0  0  0  0
 21 22  2  0  0  0  0
 21 23  1  0  0  0  0
 23 24  1  0  0  0  0
 23 25  1  0  0  0  0
 25 26  1  0  0  0  0
 25 27  1  0  0  0  0
 25 28  1  0  0  0  0
M  END
$$$$

  -OEChem-03222214033D

 28 27  0     1  0  0  0  0  0999 V2000
   -3.2035   -3.7505    1.2153 H   0  0  0  0  0  0  0  0  0  0  0  0
   -3.1955   -2.7533    0.7666 C   0  0  0  0  0  0  0  0  0  0  0  0
   -3.8164   -2.0896    1.3735 H   0  0  0  0  0  0  0  0  0  0  0  0
   -3.6163   -2.8156   -0.2398 H   0  0  0  0  0  0  0  0  0  0  0  0
   -1.7766   -2.2211    0.7011 C   0  0  0  0  0  0  0  0  0  0  0  0
   -0.8415   -2.9262    1.0450 O   0  0  0  0  0  0  0  0  0  0  0  0
   -1.5470   -0.9397    0.2465 N   0  0  0  0  0  0  0  0  0  0  0  0
   -2.3638   -0.3521    0.0822 H   0  0  0  0  0  0  0  0  0  0  0  0
   -0.2476   -0.2529    0.2983 C   0  0  1  0  0  0  0  0  0  0  0  0
    0.3715   -0.7485    1.0539 H   0  0  0  0  0  0  0  0  0  0  0  0
    0.4654   -0.4601   -1.0649 C   0  0  0  0  0  0  0  0  0  0  0  0
    1.5426   -0.4708   -0.8665 H   0  0  0  0  0  0  0  0  0  0  0  0
    0.2110   -1.4548   -1.4462 H   0  0  0  0  0  0  0  0  0  0  0  0
    0.2220    0.5745   -2.1915 C   0  0  0  0  0  0  0  0  0  0  0  0
    0.7610    0.2569   -3.0873 H   0  0  0  0  0  0  0  0  0  0  0  0
   -0.8449    0.5706   -2.4315 H   0  0  0  0  0  0  0  0  0  0  0  0
    0.6232    2.0195   -1.9018 C   0  0  0  0  0  0  0  0  0  0  0  0
    1.6075    2.2300   -1.2121 O   0  0  0  0  0  0  0  0  0  0  0  0
   -0.1137    3.0008   -2.4633 O   0  0  0  0  0  0  0  0  0  0  0  0
    0.2669    3.8269   -2.1302 H   0  0  0  0  0  0  0  0  0  0  0  0
   -0.4307    1.1934    0.8077 C   0  0  0  0  0  0  0  0  0  0  0  0
   -1.4302    1.8252    0.4794 O   0  0  0  0  0  0  0  0  0  0  0  0
    0.4219    1.7221    1.7587 N   0  0  0  0  0  0  0  0  0  0  0  0
    1.2865    1.2173    1.9314 H   0  0  0  0  0  0  0  0  0  0  0  0
    0.3082    3.0900    2.2486 C   0  0  0  0  0  0  0  0  0  0  0  0
   -0.6849    3.2650    2.6758 H   0  0  0  0  0  0  0  0  0  0  0  0
    1.0540    3.2750    3.0276 H   0  0  0  0  0  0  0  0  0  0  0  0
    0.4723    3.8024    1.4334 H   0  0  0  0  0  0  0  0  0  0  0  0
  1  2  1  0  0  0  0
  2  3  1  0  0  0  0
  2  4  1  0  0  0  0
  2  5  1  0  0  0  0
  5  6  2  0  0  0  0
  5  7  1  0  0  0  0
  7  8  1  0  0  0  0
  7  9  1  0  0  0  0
  9 10  1  0  0  0  0
  9 11  1  0  0  0  0
  9 21  1  0  0  0  0
 11 12  1  0  0  0  0
 11 13  1  0  0  0  0
 11 14  1  0  0  0  0
 14 15  1  0  0  0  0
 14 16  1  0  0  0  0
 14 17  1  0  0  0  0
 17 18  2  0  0  0  0
 17 19  1  0  0  0  0
 19 20  1  0  0  0  0
 21 22  2  0  0  0  0
 21 23  1  0  0  0  0
 23 24  1  0  0  0  0
 23 25  1  0  0  0  0
 25 26  1  0  0  0  0
 25 27  1  0  0  0  0
 25 28  1  0  0  0  0
M  END
$$$$

  -OEChem-03222214033D

 28 27  0     1  0  0  0  0  0999 V2000
   -3.1990   -3.7681    1.2458 H   0  0  0  0  0  0  0  0  0  0  0  0
   -3.1914   -2.7735    0.7911 C   0  0  0  0  0  0  0  0  0  0  0  0
   -3.8100   -2.1057    1.3956 H   0  0  0  0  0  0  0  0  0  0  0  0
   -3.6143   -2.8415   -0.2140 H   0  0  0  0  0  0  0  0  0  0  0  0
   -1.7727   -2.2421    0.7189 C   0  0  0  0  0  0  0  0  0  0  0  0
   -0.8387   -2.9397    1.0805 O   0  0  0  0  0  0  0  0  0  0  0  0
   -1.5421   -0.9703    0.2386 N   0  0  0  0  0  0  0  0  0  0  0  0
   -2.3582   -0.3869    0.0585 H   0  0  0  0  0  0  0  0  0  0  0  0
   -0.2433   -0.2826    0.2845 C   0  0  1  0  0  0  0  0  0  0  0  0
    0.3801   -0.7684    1.0427 H   0  0  0  0  0  0  0  0  0  0  0  0
    0.4684   -0.4725   -1.0781 C   0  0  0  0  0  0  0  0  0  0  0  0
    1.5489   -0.5108   -0.9031 H   0  0  0  0  0  0  0  0  0  0  0  0
    0.1884   -1.4516   -1.4817 H   0  0  0  0  0  0  0  0  0  0  0  0
    0.1813    0.6040   -2.1528 C   0  0  0  0  0  0  0  0  0  0  0  0
    0.5005    0.2217   -3.1253 H   0  0  0  0  0  0  0  0  0  0  0  0
   -0.8972    0.7770   -2.2068 H   0  0  0  0  0  0  0  0  0  0  0  0
    0.8766    1.9529   -1.9506 C   0  0  0  0  0  0  0  0  0  0  0  0
    1.8248    2.0374   -1.1866 O   0  0  0  0  0  0  0  0  0  0  0  0
    0.4146    2.9963   -2.6708 O   0  0  0  0  0  0  0  0  0  0  0  0
    0.9564    3.7516   -2.3980 H   0  0  0  0  0  0  0  0  0  0  0  0
   -0.4263    1.1747    0.7621 C   0  0  0  0  0  0  0  0  0  0  0  0
   -1.4113    1.8087    0.3960 O   0  0  0  0  0  0  0  0  0  0  0  0
    0.4210    1.7226    1.7063 N   0  0  0  0  0  0  0  0  0  0  0  0
    1.2858    1.2212    1.8891 H   0  0  0  0  0  0  0  0  0  0  0  0
    0.3188    3.1088    2.1446 C   0  0  0  0  0  0  0  0  0  0  0  0
   -0.6745    3.3087    2.5605 H   0  0  0  0  0  0  0  0  0  0  0  0
    1.0632    3.3162    2.9193 H   0  0  0  0  0  0  0  0  0  0  0  0
    0.4931    3.7885    1.3039 H   0  0  0  0  0  0  0  0  0  0  0  0
  1  2  1  0  0  0  0
  2  3  1  0  0  0  0
  2  4  1  0  0  0  0
  2  5  1  0  0  0  0
  5  6  2  0  0  0  0
  5  7  1  0  0  0  0
  7  8  1  0  0  0  0
  7  9  1  0  0  0  0
  9 10  1  0  0  0  0
  9 11  1  0  0  0  0
  9 21  1  0  0  0  0
 11 12  1  0  0  0  0
 11 13  1  0  0  0  0
 11 14  1  0  0  0  0
 14 15  1  0  0  0  0
 14 16  1  0  0  0  0
 14 17  1  0  0  0  0
 17 18  2  0  0  0  0
 17 19  1  0  0  0  0
 19 20  1  0  0  0  0
 21 22  2  0  0  0  0
 21 23  1  0  0  0  0
 23 24  1  0  0  0  0
 23 25  1  0  0  0  0
 25 26  1  0  0  0  0
 25 27  1  0  0  0  0
 25 28  1  0  0  0  0
M  END
$$$$

  -OEChem-03222214033D

 28 27  0     1  0  0  0  0  0999 V2000
   -3.1774   -3.7961    1.2576 H   0  0  0  0  0  0  0  0  0  0  0  0
   -3.1830   -2.8000    0.8062 C   0  0  0  0  0  0  0  0  0  0  0  0
   -3.7997   -2.1392    1.4204 H   0  0  0  0  0  0  0  0  0  0  0  0
   -3.6181   -2.8682   -0.1938 H   0  0  0  0  0  0  0  0  0  0  0  0
   -1.7690   -2.2578    0.7187 C   0  0  0  0  0  0  0  0  0  0  0  0
   -0.8257   -2.9495    1.0674 O   0  0  0  0  0  0  0  0  0  0  0  0
   -1.5536   -0.9840    0.2364 N   0  0  0  0  0  0  0  0  0  0  0  0
   -2.3769   -0.4067    0.0701 H   0  0  0  0  0  0  0  0  0  0  0  0
   -0.2604   -0.2847    0.2708 C   0  0  1  0  0  0  0  0  0  0  0  0
    0.3683   -0.7691    1.0258 H   0  0  0  0  0  0  0  0  0  0  0  0
    0.4587   -0.4573   -1.0871 C   0  0  0  0  0  0  0  0  0  0  0  0
    1.5399   -0.5012   -0.9180 H   0  0  0  0  0  0  0  0  0  0  0  0
    0.1769   -1.4309   -1.5023 H   0  0  0  0  0  0  0  0  0  0  0  0
    0.1399    0.6359   -2.1360 C   0  0  0  0  0  0  0  0  0  0  0  0
    0.2405    0.1905   -3.1289 H   0  0  0  0  0  0  0  0  0  0  0  0
   -0.8970    0.9685   -2.0399 H   0  0  0  0  0  0  0  0  0  0  0  0
    1.0647    1.8562   -2.1113 C   0  0  0  0  0  0  0  0  0  0  0  0
    1.9048    1.9727   -1.2337 O   0  0  0  0  0  0  0  0  0  0  0  0
    0.9026    2.7611   -3.0994 O   0  0  0  0  0  0  0  0  0  0  0  0
    1.5502    3.4575   -2.9128 H   0  0  0  0  0  0  0  0  0  0  0  0
   -0.4273    1.1757    0.7479 C   0  0  0  0  0  0  0  0  0  0  0  0
   -1.4242    1.8085    0.4127 O   0  0  0  0  0  0  0  0  0  0  0  0
    0.4375    1.7190    1.6789 N   0  0  0  0  0  0  0  0  0  0  0  0
    1.3114    1.2229    1.8308 H   0  0  0  0  0  0  0  0  0  0  0  0
    0.3457    3.1049    2.1205 C   0  0  0  0  0  0  0  0  0  0  0  0
   -0.6393    3.3066    2.5547 H   0  0  0  0  0  0  0  0  0  0  0  0
    1.1044    3.3096    2.8819 H   0  0  0  0  0  0  0  0  0  0  0  0
    0.5060    3.7852    1.2775 H   0  0  0  0  0  0  0  0  0  0  0  0
  1  2  1  0  0  0  0
  2  3  1  0  0  0  0
  2  4  1  0  0  0  0
  2  5  1  0  0  0  0
  5  6  2  0  0  0  0
  5  7  1  0  0  0  0
  7  8  1  0  0  0  0
  7  9  1  0  0  0  0
  9 10  1  0  0  0  0
  9 11  1  0  0  0  0
  9 21  1  0  0  0  0
 11 12  1  0  0  0  0
 11 13  1  0  0  0  0
 11 14  1  0  0  0  0
 14 15  1  0  0  0  0
 14 16  1  0  0  0  0
 14 17  1  0  0  0  0
 17 18  2  0  0  0  0
 17 19  1  0  0  0  0
 19 20  1  0  0  0  0
 21 22  2  0  0  0  0
 21 23  1  0  0  0  0
 23 24  1  0  0  0  0
 23 25  1  0  0  0  0
 25 26  1  0  0  0  0
 25 27  1  0  0  0  0
 25 28  1  0  0  0  0
M  END
$$$$

  -OEChem-03222214033D

 28 27  0     1  0  0  0  0  0999 V2000
   -3.1364   -3.8239    1.2511 H   0  0  0  0  0  0  0  0  0  0  0  0
   -3.1638   -2.8209    0.8163 C   0  0  0  0  0  0  0  0  0  0  0  0
   -3.7704   -2.1763    1.4571 H   0  0  0  0  0  0  0  0  0  0  0  0
   -3.6245   -2.8777   -0.1727 H   0  0  0  0  0  0  0  0  0  0  0  0
   -1.7582   -2.2623    0.7006 C   0  0  0  0  0  0  0  0  0  0  0  0
   -0.7988   -2.9496    1.0124 O   0  0  0  0  0  0  0  0  0  0  0  0
   -1.5693   -0.9783    0.2342 N   0  0  0  0  0  0  0  0  0  0  0  0
   -2.4036   -0.4081    0.1021 H   0  0  0  0  0  0  0  0  0  0  0  0
   -0.2847   -0.2628    0.2509 C   0  0  1  0  0  0  0  0  0  0  0  0
    0.3555   -0.7521    0.9929 H   0  0  0  0  0  0  0  0  0  0  0  0
    0.4303   -0.4163   -1.1091 C   0  0  0  0  0  0  0  0  0  0  0  0
    1.5118   -0.4416   -0.9394 H   0  0  0  0  0  0  0  0  0  0  0  0
    0.1672   -1.3942   -1.5267 H   0  0  0  0  0  0  0  0  0  0  0  0
    0.0881    0.6765   -2.1522 C   0  0  0  0  0  0  0  0  0  0  0  0
   -0.0577    0.1824   -3.1165 H   0  0  0  0  0  0  0  0  0  0  0  0
   -0.8515    1.1820   -1.9201 H   0  0  0  0  0  0  0  0  0  0  0  0
    1.1929    1.7142   -2.3527 C   0  0  0  0  0  0  0  0  0  0  0  0
    1.9094    2.0168   -1.4126 O   0  0  0  0  0  0  0  0  0  0  0  0
    1.3198    2.2572   -3.5821 O   0  0  0  0  0  0  0  0  0  0  0  0
    2.0486    2.8913   -3.5035 H   0  0  0  0  0  0  0  0  0  0  0  0
   -0.4371    1.1915    0.7523 C   0  0  0  0  0  0  0  0  0  0  0  0
   -1.4574    1.8181    0.4827 O   0  0  0  0  0  0  0  0  0  0  0  0
    0.4551    1.7187    1.6667 N   0  0  0  0  0  0  0  0  0  0  0  0
    1.3321    1.2202    1.7890 H   0  0  0  0  0  0  0  0  0  0  0  0
    0.3651    3.0896    2.1538 C   0  0  0  0  0  0  0  0  0  0  0  0
   -0.6036    3.2648    2.6338 H   0  0  0  0  0  0  0  0  0  0  0  0
    1.1517    3.2818    2.8898 H   0  0  0  0  0  0  0  0  0  0  0  0
    0.4826    3.7976    1.3265 H   0  0  0  0  0  0  0  0  0  0  0  0
  1  2  1  0  0  0  0
  2  3  1  0  0  0  0
  2  4  1  0  0  0  0
  2  5  1  0  0  0  0
  5  6  2  0  0  0  0
  5  7  1  0  0  0  0
  7  8  1  0  0  0  0
  7  9  1  0  0  0  0
  9 10  1  0  0  0  0
  9 11  1  0  0  0  0
  9 21  1  0  0  0  0
 11 12  1  0  0  0  0
 11 13  1  0  0  0  0
 11 14  1  0  0  0  0
 14 15  1  0  0  0  0
 14 16  1  0  0  0  0
 14 17  1  0  0  0  0
 17 18  2  0  0  0  0
 17 19  1  0  0  0  0
 19 20  1  0  0  0  0
 21 22  2  0  0  0  0
 21 23  1  0  0  0  0
 23 24  1  0  0  0  0
 23 25  1  0  0  0  0
 25 26  1  0  0  0  0
 25 27  1  0  0  0  0
 25 28  1  0  0  0  0
M  END
$$$$

  -OEChem-03222214033D

 28 27  0     1  0  0  0  0  0999 V2000
   -3.1017   -3.8376    1.2116 H   0  0  0  0  0  0  0  0  0  0  0  0
   -3.1462   -2.8218    0.8087 C   0  0  0  0  0  0  0  0  0  0  0  0
   -3.7422   -2.2020    1.4830 H   0  0  0  0  0  0  0  0  0  0  0  0
   -3.6295   -2.8518   -0.1707 H   0  0  0  0  0  0  0  0  0  0  0  0
   -1.7476   -2.2494    0.6779 C   0  0  0  0  0  0  0  0  0  0  0  0
   -0.7775   -2.9333    0.9628 O   0  0  0  0  0  0  0  0  0  0  0  0
   -1.5768   -0.9561    0.2307 N   0  0  0  0  0  0  0  0  0  0  0  0
   -2.4178   -0.3921    0.1158 H   0  0  0  0  0  0  0  0  0  0  0  0
   -0.2980   -0.2308    0.2348 C   0  0  1  0  0  0  0  0  0  0  0  0
    0.3538   -0.7265    0.9623 H   0  0  0  0  0  0  0  0  0  0  0  0
    0.4030   -0.3751   -1.1335 C   0  0  0  0  0  0  0  0  0  0  0  0
    1.4836   -0.3724   -0.9549 H   0  0  0  0  0  0  0  0  0  0  0  0
    0.1685   -1.3611   -1.5491 H   0  0  0  0  0  0  0  0  0  0  0  0
    0.0529    0.7092   -2.1854 C   0  0  0  0  0  0  0  0  0  0  0  0
   -0.3737    0.2102   -3.0596 H   0  0  0  0  0  0  0  0  0  0  0  0
   -0.7065    1.4077   -1.8320 H   0  0  0  0  0  0  0  0  0  0  0  0
    1.2687    1.5060   -2.6498 C   0  0  0  0  0  0  0  0  0  0  0  0
    2.0161    1.9775   -1.8096 O   0  0  0  0  0  0  0  0  0  0  0  0
    1.4620    1.6510   -3.9779 O   0  0  0  0  0  0  0  0  0  0  0  0
    2.2671    2.1847   -4.0588 H   0  0  0  0  0  0  0  0  0  0  0  0
   -0.4419    1.2143    0.7631 C   0  0  0  0  0  0  0  0  0  0  0  0
   -1.4705    1.8427    0.5338 O   0  0  0  0  0  0  0  0  0  0  0  0
    0.4705    1.7256    1.6665 N   0  0  0  0  0  0  0  0  0  0  0  0
    1.3333    1.2058    1.8004 H   0  0  0  0  0  0  0  0  0  0  0  0
    0.3725    3.0710    2.2190 C   0  0  0  0  0  0  0  0  0  0  0  0
   -0.5700    3.1956    2.7626 H   0  0  0  0  0  0  0  0  0  0  0  0
    1.1970    3.2547    2.9145 H   0  0  0  0  0  0  0  0  0  0  0  0
    0.4201    3.8176    1.4194 H   0  0  0  0  0  0  0  0  0  0  0  0
  1  2  1  0  0  0  0
  2  3  1  0  0  0  0
  2  4  1  0  0  0  0
  2  5  1  0  0  0  0
  5  6  2  0  0  0  0
  5  7  1  0  0  0  0
  7  8  1  0  0  0  0
  7  9  1  0  0  0  0
  9 10  1  0  0  0  0
  9 11  1  0  0  0  0
  9 21  1  0  0  0  0
 11 12  1  0  0  0  0
 11 13  1  0  0  0  0
 11 14  1  0  0  0  0
 14 15  1  0  0  0  0
 14 16  1  0  0  0  0
 14 17  1  0  0  0  0
 17 18  2  0  0  0  0
 17 19  1  0  0  0  0
 19 20  1  0  0  0  0
 21 22  2  0  0  0  0
 21 23  1  0  0  0  0
 23 24  1  0  0  0  0
 23 25  1  0  0  0  0
 25 26  1  0  0  0  0
 25 27  1  0  0  0  0
 25 28  1  0  0  0  0
M  END
$$$$

  -OEChem-03222214033D

 28 27  0     1  0  0  0  0  0999 V2000
   -3.0922   -3.8525    1.1062 H   0  0  0  0  0  0  0  0  0  0  0  0
   -3.1404   -2.8135    0.7683 C   0  0  0  0  0  0  0  0  0  0  0  0
   -3.7313   -2.2374    1.4843 H   0  0  0  0  0  0  0  0  0  0  0  0
   -3.6314   -2.7831   -0.2072 H   0  0  0  0  0  0  0  0  0  0  0  0
   -1.7432   -2.2324    0.6626 C   0  0  0  0  0  0  0  0  0  0  0  0
   -0.7735   -2.9162    0.9487 O   0  0  0  0  0  0  0  0  0  0  0  0
   -1.5722   -0.9334    0.2316 N   0  0  0  0  0  0  0  0  0  0  0  0
   -2.4133   -0.3705    0.1123 H   0  0  0  0  0  0  0  0  0  0  0  0
   -0.2925   -0.2096    0.2343 C   0  0  1  0  0  0  0  0  0  0  0  0
    0.3659   -0.7149    0.9491 H   0  0  0  0  0  0  0  0  0  0  0  0
    0.3859   -0.3491   -1.1474 C   0  0  0  0  0  0  0  0  0  0  0  0
    1.4656   -0.3222   -0.9641 H   0  0  0  0  0  0  0  0  0  0  0  0
    0.1718   -1.3390   -1.5651 H   0  0  0  0  0  0  0  0  0  0  0  0
    0.0354    0.7345   -2.2002 C   0  0  0  0  0  0  0  0  0  0  0  0
   -0.6645    0.3107   -2.9256 H   0  0  0  0  0  0  0  0  0  0  0  0
   -0.4573    1.6015   -1.7601 H   0  0  0  0  0  0  0  0  0  0  0  0
    1.2668    1.2504   -2.9365 C   0  0  0  0  0  0  0  0  0  0  0  0
    2.1489    1.7888   -2.2903 O   0  0  0  0  0  0  0  0  0  0  0  0
    1.3276    1.0772   -4.2739 O   0  0  0  0  0  0  0  0  0  0  0  0
    2.1741    1.4674   -4.5402 H   0  0  0  0  0  0  0  0  0  0  0  0
   -0.4330    1.2279    0.7830 C   0  0  0  0  0  0  0  0  0  0  0  0
   -1.4549    1.8661    0.5525 O   0  0  0  0  0  0  0  0  0  0  0  0
    0.4839    1.7317    1.6865 N   0  0  0  0  0  0  0  0  0  0  0  0
    1.3265    1.1886    1.8533 H   0  0  0  0  0  0  0  0  0  0  0  0
    0.3808    3.0652    2.2670 C   0  0  0  0  0  0  0  0  0  0  0  0
   -0.5540    3.1682    2.8280 H   0  0  0  0  0  0  0  0  0  0  0  0
    1.2152    3.2458    2.9516 H   0  0  0  0  0  0  0  0  0  0  0  0
    0.4065    3.8277    1.4812 H   0  0  0  0  0  0  0  0  0  0  0  0
  1  2  1  0  0  0  0
  2  3  1  0  0  0  0
  2  4  1  0  0  0  0
  2  5  1  0  0  0  0
  5  6  2  0  0  0  0
  5  7  1  0  0  0  0
  7  8  1  0  0  0  0
  7  9  1  0  0  0  0
  9 10  1  0  0  0  0
  9 11  1  0  0  0  0
  9 21  1  0  0  0  0
 11 12  1  0  0  0  0
 11 13  1  0  0  0  0
 11 14  1  0  0  0  0
 14 15  1  0  0  0  0
 14 16  1  0  0  0  0
 14 17  1  0  0  0  0
 17 18  2  0  0  0  0
 17 19  1  0  0  0  0
 19 20  1  0  0  0  0
 21 22  2  0  0  0  0
 21 23  1  0  0  0  0
 23 24  1  0  0  0  0
 23 25  1  0  0  0  0
 25 26  1  0  0  0  0
 25 27  1  0  0  0  0
 25 28  1  0  0  0  0
M  END
$$$$

  -OEChem-03222214033D

 28 27  0     1  0  0  0  0  0999 V2000
   -3.1231   -3.8084    1.2173 H   0  0  0  0  0  0  0  0  0  0  0  0
   -3.1523   -2.7862    0.8297 C   0  0  0  0  0  0  0  0  0  0  0  0
   -3.7596   -2.1725    1.4993 H   0  0  0  0  0  0  0  0  0  0  0  0
   -3.6129   -2.7984   -0.1610 H   0  0  0  0  0  0  0  0  0  0  0  0
   -1.7478   -2.2205    0.7406 C   0  0  0  0  0  0  0  0  0  0  0  0
   -0.7953   -2.8847    1.1162 O   0  0  0  0  0  0  0  0  0  0  0  0
   -1.5535   -0.9485    0.2441 N   0  0  0  0  0  0  0  0  0  0  0  0
   -2.3856   -0.3953    0.0446 H   0  0  0  0  0  0  0  0  0  0  0  0
   -0.2680   -0.2356    0.2381 C   0  0  1  0  0  0  0  0  0  0  0  0
    0.3766   -0.7078    0.9871 H   0  0  0  0  0  0  0  0  0  0  0  0
    0.4228   -0.4497   -1.1294 C   0  0  0  0  0  0  0  0  0  0  0  0
    1.4974   -0.3987   -0.9244 H   0  0  0  0  0  0  0  0  0  0  0  0
    0.2238   -1.4609   -1.5013 H   0  0  0  0  0  0  0  0  0  0  0  0
    0.0964    0.5856   -2.2399 C   0  0  0  0  0  0  0  0  0  0  0  0
   -0.8029    0.2686   -2.7735 H   0  0  0  0  0  0  0  0  0  0  0  0
   -0.1126    1.5665   -1.8119 H   0  0  0  0  0  0  0  0  0  0  0  0
    1.2218    0.8138   -3.2516 C   0  0  0  0  0  0  0  0  0  0  0  0
    2.1753    0.0557   -3.2920 O   0  0  0  0  0  0  0  0  0  0  0  0
    1.0885    1.8701   -4.0811 O   0  0  0  0  0  0  0  0  0  0  0  0
    1.8761    1.8462   -4.6456 H   0  0  0  0  0  0  0  0  0  0  0  0
   -0.4189    1.2278    0.7057 C   0  0  0  0  0  0  0  0  0  0  0  0
   -1.4133    1.8694    0.3853 O   0  0  0  0  0  0  0  0  0  0  0  0
    0.4763    1.7759    1.6055 N   0  0  0  0  0  0  0  0  0  0  0  0
    1.2464    1.1920    1.9200 H   0  0  0  0  0  0  0  0  0  0  0  0
    0.3149    3.1036    2.1864 C   0  0  0  0  0  0  0  0  0  0  0  0
   -0.5756    3.1371    2.8229 H   0  0  0  0  0  0  0  0  0  0  0  0
    1.1871    3.3590    2.7961 H   0  0  0  0  0  0  0  0  0  0  0  0
    0.2135    3.8579    1.3987 H   0  0  0  0  0  0  0  0  0  0  0  0
  1  2  1  0  0  0  0
  2  3  1  0  0  0  0
  2  4  1  0  0  0  0
  2  5  1  0  0  0  0
  5  6  2  0  0  0  0
  5  7  1  0  0  0  0
  7  8  1  0  0  0  0
  7  9  1  0  0  0  0
  9 10  1  0  0  0  0
  9 11  1  0  0  0  0
  9 21  1  0  0  0  0
 11 12  1  0  0  0  0
 11 13  1  0  0  0  0
 11 14  1  0  0  0  0
 14 15  1  0  0  0  0
 14 16  1  0  0  0  0
 14 17  1  0  0  0  0
 17 18  2  0  0  0  0
 17 19  1  0  0  0  0
 19 20  1  0  0  0  0
 21 22  2  0  0  0  0
 21 23  1  0  0  0  0
 23 24  1  0  0  0  0
 23 25  1  0  0  0  0
 25 26  1  0  0  0  0
 25 27  1  0  0  0  0
 25 28  1  0  0  0  0
M  END
$$$$

  -OEChem-03222214033D

 28 27  0     1  0  0  0  0  0999 V2000
   -3.1427   -3.7887    1.2462 H   0  0  0  0  0  0  0  0  0  0  0  0
   -3.1582   -2.7880    0.8051 C   0  0  0  0  0  0  0  0  0  0  0  0
   -3.7932   -2.1429    1.4171 H   0  0  0  0  0  0  0  0  0  0  0  0
   -3.5785   -2.8531   -0.2014 H   0  0  0  0  0  0  0  0  0  0  0  0
   -1.7519   -2.2228    0.7435 C   0  0  0  0  0  0  0  0  0  0  0  0
   -0.8083   -2.8859    1.1428 O   0  0  0  0  0  0  0  0  0  0  0  0
   -1.5451   -0.9529    0.2460 N   0  0  0  0  0  0  0  0  0  0  0  0
   -2.3707   -0.3983    0.0245 H   0  0  0  0  0  0  0  0  0  0  0  0
   -0.2541   -0.2495    0.2464 C   0  0  1  0  0  0  0  0  0  0  0  0
    0.3922   -0.7281    0.9899 H   0  0  0  0  0  0  0  0  0  0  0  0
    0.4246   -0.4484   -1.1289 C   0  0  0  0  0  0  0  0  0  0  0  0
    1.5046   -0.4148   -0.9493 H   0  0  0  0  0  0  0  0  0  0  0  0
    0.1994   -1.4478   -1.5174 H   0  0  0  0  0  0  0  0  0  0  0  0
    0.0868    0.6157   -2.2033 C   0  0  0  0  0  0  0  0  0  0  0  0
   -0.9394    0.4668   -2.5486 H   0  0  0  0  0  0  0  0  0  0  0  0
    0.1522    1.6213   -1.7838 H   0  0  0  0  0  0  0  0  0  0  0  0
    1.0233    0.6086   -3.4126 C   0  0  0  0  0  0  0  0  0  0  0  0
    1.9677   -0.1607   -3.4546 O   0  0  0  0  0  0  0  0  0  0  0  0
    0.7424    1.4815   -4.4028 O   0  0  0  0  0  0  0  0  0  0  0  0
    1.4264    1.3299   -5.0727 H   0  0  0  0  0  0  0  0  0  0  0  0
   -0.4029    1.2147    0.7115 C   0  0  0  0  0  0  0  0  0  0  0  0
   -1.3776    1.8701    0.3597 O   0  0  0  0  0  0  0  0  0  0  0  0
    0.4878    1.7599    1.6173 N   0  0  0  0  0  0  0  0  0  0  0  0
    1.2430    1.1675    1.9513 H   0  0  0  0  0  0  0  0  0  0  0  0
    0.3414    3.0986    2.1760 C   0  0  0  0  0  0  0  0  0  0  0  0
   -0.6013    3.1829    2.7271 H   0  0  0  0  0  0  0  0  0  0  0  0
    1.1645    3.3137    2.8643 H   0  0  0  0  0  0  0  0  0  0  0  0
    0.3526    3.8498    1.3791 H   0  0  0  0  0  0  0  0  0  0  0  0
  1  2  1  0  0  0  0
  2  3  1  0  0  0  0
  2  4  1  0  0  0  0
  2  5  1  0  0  0  0
  5  6  2  0  0  0  0
  5  7  1  0  0  0  0
  7  8  1  0  0  0  0
  7  9  1  0  0  0  0
  9 10  1  0  0  0  0
  9 11  1  0  0  0  0
  9 21  1  0  0  0  0
 11 12  1  0  0  0  0
 11 13  1  0  0  0  0
 11 14  1  0  0  0  0
 14 15  1  0  0  0  0
 14 16  1  0  0  0  0
 14 17  1  0  0  0  0
 17 18  2  0  0  0  0
 17 19  1  0  0  0  0
 19 20  1  0  0  0  0
 21 22  2  0  0  0  0
 21 23  1  0  0  0  0
 23 24  1  0  0  0  0
 23 25  1  0  0  0  0
 25 26  1  0  0  0  0
 25 27  1  0  0  0  0
 25 28  1  0  0  0  0
M  END
$$$$

  -OEChem-03222214033D

 28 27  0     1  0  0  0  0  0999 V2000
   -3.1583   -3.7784    1.2463 H   0  0  0  0  0  0  0  0  0  0  0  0
   -3.1608   -2.7855    0.7875 C   0  0  0  0  0  0  0  0  0  0  0  0
   -3.8129   -2.1298    1.3697 H   0  0  0  0  0  0  0  0  0  0  0  0
   -3.5521   -2.8679   -0.2294 H   0  0  0  0  0  0  0  0  0  0  0  0
   -1.7535   -2.2209    0.7551 C   0  0  0  0  0  0  0  0  0  0  0  0
   -0.8188   -2.8811    1.1792 O   0  0  0  0  0  0  0  0  0  0  0  0
   -1.5359   -0.9545    0.2541 N   0  0  0  0  0  0  0  0  0  0  0  0
   -2.3551   -0.4038    0.0018 H   0  0  0  0  0  0  0  0  0  0  0  0
   -0.2395   -0.2606    0.2533 C   0  0  1  0  0  0  0  0  0  0  0  0
    0.4093   -0.7402    0.9939 H   0  0  0  0  0  0  0  0  0  0  0  0
    0.4310   -0.4525   -1.1303 C   0  0  0  0  0  0  0  0  0  0  0  0
    1.4805   -0.7158   -0.9587 H   0  0  0  0  0  0  0  0  0  0  0  0
   -0.0265   -1.3049   -1.6451 H   0  0  0  0  0  0  0  0  0  0  0  0
    0.3951    0.7844   -2.0586 C   0  0  0  0  0  0  0  0  0  0  0  0
   -0.6451    1.0714   -2.2372 H   0  0  0  0  0  0  0  0  0  0  0  0
    0.9002    1.6289   -1.5833 H   0  0  0  0  0  0  0  0  0  0  0  0
    1.0641    0.5614   -3.4151 C   0  0  0  0  0  0  0  0  0  0  0  0
    1.6936   -0.4606   -3.6256 O   0  0  0  0  0  0  0  0  0  0  0  0
    0.9264    1.5419   -4.3320 O   0  0  0  0  0  0  0  0  0  0  0  0
    1.4098    1.2266   -5.1109 H   0  0  0  0  0  0  0  0  0  0  0  0
   -0.3939    1.2045    0.7158 C   0  0  0  0  0  0  0  0  0  0  0  0
   -1.3527    1.8673    0.3357 O   0  0  0  0  0  0  0  0  0  0  0  0
    0.4910    1.7547    1.6243 N   0  0  0  0  0  0  0  0  0  0  0  0
    1.2334    1.1589    1.9806 H   0  0  0  0  0  0  0  0  0  0  0  0
    0.3435    3.1002    2.1666 C   0  0  0  0  0  0  0  0  0  0  0  0
   -0.6167    3.2019    2.6837 H   0  0  0  0  0  0  0  0  0  0  0  0
    1.1445    3.3109    2.8817 H   0  0  0  0  0  0  0  0  0  0  0  0
    0.3921    3.8438    1.3642 H   0  0  0  0  0  0  0  0  0  0  0  0
  1  2  1  0  0  0  0
  2  3  1  0  0  0  0
  2  4  1  0  0  0  0
  2  5  1  0  0  0  0
  5  6  2  0  0  0  0
  5  7  1  0  0  0  0
  7  8  1  0  0  0  0
  7  9  1  0  0  0  0
  9 10  1  0  0  0  0
  9 11  1  0  0  0  0
  9 21  1  0  0  0  0
 11 12  1  0  0  0  0
 11 13  1  0  0  0  0
 11 14  1  0  0  0  0
 14 15  1  0  0  0  0
 14 16  1  0  0  0  0
 14 17  1  0  0  0  0
 17 18  2  0  0  0  0
 17 19  1  0  0  0  0
 19 20  1  0  0  0  0
 21 22  2  0  0  0  0
 21 23  1  0  0  0  0
 23 24  1  0  0  0  0
 23 25  1  0  0  0  0
 25 26  1  0  0  0  0
 25 27  1  0  0  0  0
 25 28  1  0  0  0  0
M  END
$$$$

  -OEChem-03222214033D

 28 27  0     1  0  0  0  0  0999 V2000
   -3.1728   -3.7767    1.1866 H   0  0  0  0  0  0  0  0  0  0  0  0
   -3.1794   -2.7666    0.7675 C   0  0  0  0  0  0  0  0  0  0  0  0
   -3.8140   -2.1312    1.3899 H   0  0  0  0  0  0  0  0  0  0  0  0
   -3.5942   -2.8074   -0.2425 H   0  0  0  0  0  0  0  0  0  0  0  0
   -1.7693   -2.2090    0.7264 C   0  0  0  0  0  0  0  0  0  0  0  0
   -0.8349   -2.8783    1.1368 O   0  0  0  0  0  0  0  0  0  0  0  0
   -1.5491   -0.9389    0.2356 N   0  0  0  0  0  0  0  0  0  0  0  0
   -2.3679   -0.3816   -0.0030 H   0  0  0  0  0  0  0  0  0  0  0  0
   -0.2518   -0.2467    0.2432 C   0  0  1  0  0  0  0  0  0  0  0  0
    0.3852   -0.7331    0.9897 H   0  0  0  0  0  0  0  0  0  0  0  0
    0.4443   -0.4390   -1.1270 C   0  0  0  0  0  0  0  0  0  0  0  0
    1.4904   -0.7127   -0.9522 H   0  0  0  0  0  0  0  0  0  0  0  0
   -0.0187   -1.2876   -1.6437 H   0  0  0  0  0  0  0  0  0  0  0  0
    0.4199    0.7980   -2.0543 C   0  0  0  0  0  0  0  0  0  0  0  0
   -0.5898    1.2182   -2.0693 H   0  0  0  0  0  0  0  0  0  0  0  0
    1.1010    1.5676   -1.6824 H   0  0  0  0  0  0  0  0  0  0  0  0
    0.7828    0.4758   -3.5030 C   0  0  0  0  0  0  0  0  0  0  0  0
    1.5052   -0.4754   -3.7439 O   0  0  0  0  0  0  0  0  0  0  0  0
    0.2889    1.2875   -4.4616 O   0  0  0  0  0  0  0  0  0  0  0  0
    0.6297    0.9286   -5.2950 H   0  0  0  0  0  0  0  0  0  0  0  0
   -0.3893    1.2180    0.7148 C   0  0  0  0  0  0  0  0  0  0  0  0
   -1.3556    1.8854    0.3633 O   0  0  0  0  0  0  0  0  0  0  0  0
    0.5033    1.7519    1.6259 N   0  0  0  0  0  0  0  0  0  0  0  0
    1.2438    1.1472    1.9708 H   0  0  0  0  0  0  0  0  0  0  0  0
    0.3614    3.0873    2.1944 C   0  0  0  0  0  0  0  0  0  0  0  0
   -0.5566    3.1554    2.7878 H   0  0  0  0  0  0  0  0  0  0  0  0
    1.2118    3.3144    2.8446 H   0  0  0  0  0  0  0  0  0  0  0  0
    0.3241    3.8407    1.4003 H   0  0  0  0  0  0  0  0  0  0  0  0
  1  2  1  0  0  0  0
  2  3  1  0  0  0  0
  2  4  1  0  0  0  0
  2  5  1  0  0  0  0
  5  6  2  0  0  0  0
  5  7  1  0  0  0  0
  7  8  1  0  0  0  0
  7  9  1  0  0  0  0
  9 10  1  0  0  0  0
  9 11  1  0  0  0  0
  9 21  1  0  0  0  0
 11 12  1  0  0  0  0
 11 13  1  0  0  0  0
 11 14  1  0  0  0  0
 14 15  1  0  0  0  0
 14 16  1  0  0  0  0
 14 17  1  0  0  0  0
 17 18  2  0  0  0  0
 17 19  1  0  0  0  0
 19 20  1  0  0  0  0
 21 22  2  0  0  0  0
 21 23  1  0  0  0  0
 23 24  1  0  0  0  0
 23 25  1  0  0  0  0
 25 26  1  0  0  0  0
 25 27  1  0  0  0  0
 25 28  1  0  0  0  0
M  END
$$$$

  -OEChem-03222214033D

 28 27  0     1  0  0  0  0  0999 V2000
   -3.1794   -3.7715    1.1180 H   0  0  0  0  0  0  0  0  0  0  0  0
   -3.1905   -2.7500    0.7274 C   0  0  0  0  0  0  0  0  0  0  0  0
   -3.8278   -2.1348    1.3672 H   0  0  0  0  0  0  0  0  0  0  0  0
   -3.6054   -2.7647   -0.2833 H   0  0  0  0  0  0  0  0  0  0  0  0
   -1.7828   -2.1857    0.7008 C   0  0  0  0  0  0  0  0  0  0  0  0
   -0.8466   -2.8591    1.1005 O   0  0  0  0  0  0  0  0  0  0  0  0
   -1.5646   -0.9086    0.2270 N   0  0  0  0  0  0  0  0  0  0  0  0
   -2.3845   -0.3495   -0.0037 H   0  0  0  0  0  0  0  0  0  0  0  0
   -0.2673   -0.2160    0.2385 C   0  0  1  0  0  0  0  0  0  0  0  0
    0.3616   -0.7103    0.9862 H   0  0  0  0  0  0  0  0  0  0  0  0
    0.4449   -0.4127   -1.1236 C   0  0  0  0  0  0  0  0  0  0  0  0
    1.4882   -0.6911   -0.9407 H   0  0  0  0  0  0  0  0  0  0  0  0
   -0.0176   -1.2665   -1.6324 H   0  0  0  0  0  0  0  0  0  0  0  0
    0.4374    0.8110   -2.0707 C   0  0  0  0  0  0  0  0  0  0  0  0
   -0.4826    1.3839   -1.9318 H   0  0  0  0  0  0  0  0  0  0  0  0
    1.2814    1.4705   -1.8536 H   0  0  0  0  0  0  0  0  0  0  0  0
    0.4620    0.4117   -3.5441 C   0  0  0  0  0  0  0  0  0  0  0  0
    1.2290   -0.4648   -3.9015 O   0  0  0  0  0  0  0  0  0  0  0  0
   -0.3647    1.0606   -4.3915 O   0  0  0  0  0  0  0  0  0  0  0  0
   -0.1904    0.6690   -5.2609 H   0  0  0  0  0  0  0  0  0  0  0  0
   -0.3880    1.2438    0.7294 C   0  0  0  0  0  0  0  0  0  0  0  0
   -1.3613    1.9185    0.4137 O   0  0  0  0  0  0  0  0  0  0  0  0
    0.5181    1.7552    1.6402 N   0  0  0  0  0  0  0  0  0  0  0  0
    1.2631    1.1417    1.9585 H   0  0  0  0  0  0  0  0  0  0  0  0
    0.3903    3.0782    2.2401 C   0  0  0  0  0  0  0  0  0  0  0  0
   -0.5165    3.1357    2.8514 H   0  0  0  0  0  0  0  0  0  0  0  0
    1.2536    3.2892    2.8788 H   0  0  0  0  0  0  0  0  0  0  0  0
    0.3409    3.8487    1.4633 H   0  0  0  0  0  0  0  0  0  0  0  0
  1  2  1  0  0  0  0
  2  3  1  0  0  0  0
  2  4  1  0  0  0  0
  2  5  1  0  0  0  0
  5  6  2  0  0  0  0
  5  7  1  0  0  0  0
  7  8  1  0  0  0  0
  7  9  1  0  0  0  0
  9 10  1  0  0  0  0
  9 11  1  0  0  0  0
  9 21  1  0  0  0  0
 11 12  1  0  0  0  0
 11 13  1  0  0  0  0
 11 14  1  0  0  0  0
 14 15  1  0  0  0  0
 14 16  1  0  0  0  0
 14 17  1  0  0  0  0
 17 18  2  0  0  0  0
 17 19  1  0  0  0  0
 19 20  1  0  0  0  0
 21 22  2  0  0  0  0
 21 23  1  0  0  0  0
 23 24  1  0  0  0  0
 23 25  1  0  0  0  0
 25 26  1  0  0  0  0
 25 27  1  0  0  0  0
 25 28  1  0  0  0  0
M  END
$$$$

  -OEChem-03222214033D

 28 27  0     1  0  0  0  0  0999 V2000
   -3.2617   -3.6861    0.9847 H   0  0  0  0  0  0  0  0  0  0  0  0
   -3.2466   -2.6549    0.6209 C   0  0  0  0  0  0  0  0  0  0  0  0
   -3.8788   -2.0431    1.2691 H   0  0  0  0  0  0  0  0  0  0  0  0
   -3.6486   -2.6336   -0.3950 H   0  0  0  0  0  0  0  0  0  0  0  0
   -1.8273   -2.1201    0.6266 C   0  0  0  0  0  0  0  0  0  0  0  0
   -0.9090   -2.8238    1.0166 O   0  0  0  0  0  0  0  0  0  0  0  0
   -1.5771   -0.8364    0.1892 N   0  0  0  0  0  0  0  0  0  0  0  0
   -2.3801   -0.2612   -0.0608 H   0  0  0  0  0  0  0  0  0  0  0  0
   -0.2668   -0.1716    0.2248 C   0  0  1  0  0  0  0  0  0  0  0  0
    0.3442   -0.6962    0.9669 H   0  0  0  0  0  0  0  0  0  0  0  0
    0.4475   -0.3698   -1.1373 C   0  0  0  0  0  0  0  0  0  0  0  0
    1.4837   -0.6637   -0.9405 H   0  0  0  0  0  0  0  0  0  0  0  0
   -0.0154   -1.2216   -1.6491 H   0  0  0  0  0  0  0  0  0  0  0  0
    0.4850    0.8517   -2.0889 C   0  0  0  0  0  0  0  0  0  0  0  0
   -0.2549    1.6024   -1.8090 H   0  0  0  0  0  0  0  0  0  0  0  0
    1.4701    1.3264   -2.0554 H   0  0  0  0  0  0  0  0  0  0  0  0
    0.1419    0.4550   -3.5201 C   0  0  0  0  0  0  0  0  0  0  0  0
    1.0187    0.5224   -4.3620 O   0  0  0  0  0  0  0  0  0  0  0  0
   -1.1177    0.0480   -3.7912 O   0  0  0  0  0  0  0  0  0  0  0  0
   -1.1183   -0.1433   -4.7415 H   0  0  0  0  0  0  0  0  0  0  0  0
   -0.3599    1.2768    0.7540 C   0  0  0  0  0  0  0  0  0  0  0  0
   -1.3179    1.9801    0.4543 O   0  0  0  0  0  0  0  0  0  0  0  0
    0.5523    1.7442    1.6820 N   0  0  0  0  0  0  0  0  0  0  0  0
    1.2808    1.1062    1.9899 H   0  0  0  0  0  0  0  0  0  0  0  0
    0.4495    3.0542    2.3141 C   0  0  0  0  0  0  0  0  0  0  0  0
   -0.4866    3.1370    2.8767 H   0  0  0  0  0  0  0  0  0  0  0  0
    1.2831    3.2071    3.0063 H   0  0  0  0  0  0  0  0  0  0  0  0
    0.4782    3.8470    1.5591 H   0  0  0  0  0  0  0  0  0  0  0  0
  1  2  1  0  0  0  0
  2  3  1  0  0  0  0
  2  4  1  0  0  0  0
  2  5  1  0  0  0  0
  5  6  2  0  0  0  0
  5  7  1  0  0  0  0
  7  8  1  0  0  0  0
  7  9  1  0  0  0  0
  9 10  1  0  0  0  0
  9 11  1  0  0  0  0
  9 21  1  0  0  0  0
 11 12  1  0  0  0  0
 11 13  1  0  0  0  0
 11 14  1  0  0  0  0
 14 15  1  0  0  0  0
 14 16  1  0  0  0  0
 14 17  1  0  0  0  0
 17 18  2  0  0  0  0
 17 19  1  0  0  0  0
 19 20  1  0  0  0  0
 21 22  2  0  0  0  0
 21 23  1  0  0  0  0
 23 24  1  0  0  0  0
 23 25  1  0  0  0  0
 25 26  1  0  0  0  0
 25 27  1  0  0  0  0
 25 28  1  0  0  0  0
M  END
$$$$

  -OEChem-03222214033D

 28 27  0     1  0  0  0  0  0999 V2000
   -3.0442   -3.8576    1.0615 H   0  0  0  0  0  0  0  0  0  0  0  0
   -3.0971   -2.8230    0.7111 C   0  0  0  0  0  0  0  0  0  0  0  0
   -3.7758   -2.2647    1.3605 H   0  0  0  0  0  0  0  0  0  0  0  0
   -3.4913   -2.8159   -0.3081 H   0  0  0  0  0  0  0  0  0  0  0  0
   -1.7187   -2.1906    0.7365 C   0  0  0  0  0  0  0  0  0  0  0  0
   -0.7578   -2.8292    1.1374 O   0  0  0  0  0  0  0  0  0  0  0  0
   -1.5537   -0.8935    0.2998 N   0  0  0  0  0  0  0  0  0  0  0  0
   -2.3832   -0.3955   -0.0205 H   0  0  0  0  0  0  0  0  0  0  0  0
   -0.2790   -0.1638    0.2625 C   0  0  1  0  0  0  0  0  0  0  0  0
    0.4059   -0.6633    0.9557 H   0  0  0  0  0  0  0  0  0  0  0  0
    0.3341   -0.3342   -1.1522 C   0  0  0  0  0  0  0  0  0  0  0  0
    1.3978   -0.5522   -1.0114 H   0  0  0  0  0  0  0  0  0  0  0  0
   -0.0888   -1.2278   -1.6259 H   0  0  0  0  0  0  0  0  0  0  0  0
    0.2533    0.8771   -2.1204 C   0  0  0  0  0  0  0  0  0  0  0  0
   -0.2228    1.7504   -1.6756 H   0  0  0  0  0  0  0  0  0  0  0  0
    1.2671    1.1751   -2.4011 H   0  0  0  0  0  0  0  0  0  0  0  0
   -0.5204    0.5454   -3.3940 C   0  0  0  0  0  0  0  0  0  0  0  0
   -1.6270    0.0429   -3.3008 O   0  0  0  0  0  0  0  0  0  0  0  0
    0.0696    0.8199   -4.5769 O   0  0  0  0  0  0  0  0  0  0  0  0
   -0.5732    0.5411   -5.2469 H   0  0  0  0  0  0  0  0  0  0  0  0
   -0.4062    1.2750    0.8108 C   0  0  0  0  0  0  0  0  0  0  0  0
   -1.3972    1.9498    0.5569 O   0  0  0  0  0  0  0  0  0  0  0  0
    0.5409    1.7760    1.6854 N   0  0  0  0  0  0  0  0  0  0  0  0
    1.2904    1.1527    1.9723 H   0  0  0  0  0  0  0  0  0  0  0  0
    0.4107    3.0692    2.3466 C   0  0  0  0  0  0  0  0  0  0  0  0
   -0.4551    3.0708    3.0173 H   0  0  0  0  0  0  0  0  0  0  0  0
    1.3070    3.2851    2.9361 H   0  0  0  0  0  0  0  0  0  0  0  0
    0.2847    3.8677    1.6076 H   0  0  0  0  0  0  0  0  0  0  0  0
  1  2  1  0  0  0  0
  2  3  1  0  0  0  0
  2  4  1  0  0  0  0
  2  5  1  0  0  0  0
  5  6  2  0  0  0  0
  5  7  1  0  0  0  0
  7  8  1  0  0  0  0
  7  9  1  0  0  0  0
  9 10  1  0  0  0  0
  9 11  1  0  0  0  0
  9 21  1  0  0  0  0
 11 12  1  0  0  0  0
 11 13  1  0  0  0  0
 11 14  1  0  0  0  0
 14 15  1  0  0  0  0
 14 16  1  0  0  0  0
 14 17  1  0  0  0  0
 17 18  2  0  0  0  0
 17 19  1  0  0  0  0
 19 20  1  0  0  0  0
 21 22  2  0  0  0  0
 21 23  1  0  0  0  0
 23 24  1  0  0  0  0
 23 25  1  0  0  0  0
 25 26  1  0  0  0  0
 25 27  1  0  0  0  0
 25 28  1  0  0  0  0
M  END
$$$$

  -OEChem-03222214033D

 28 27  0     1  0  0  0  0  0999 V2000
   -3.0907   -3.8333    1.0835 H   0  0  0  0  0  0  0  0  0  0  0  0
   -3.1130   -2.8176    0.6791 C   0  0  0  0  0  0  0  0  0  0  0  0
   -3.8374   -2.2279    1.2459 H   0  0  0  0  0  0  0  0  0  0  0  0
   -3.4274   -2.8605   -0.3665 H   0  0  0  0  0  0  0  0  0  0  0  0
   -1.7390   -2.1835    0.7790 C   0  0  0  0  0  0  0  0  0  0  0  0
   -0.8063   -2.8113    1.2565 O   0  0  0  0  0  0  0  0  0  0  0  0
   -1.5461   -0.8977    0.3217 N   0  0  0  0  0  0  0  0  0  0  0  0
   -2.3424   -0.4275   -0.1081 H   0  0  0  0  0  0  0  0  0  0  0  0
   -0.2608   -0.1876    0.2966 C   0  0  1  0  0  0  0  0  0  0  0  0
    0.4149   -0.6862    0.9993 H   0  0  0  0  0  0  0  0  0  0  0  0
    0.3400   -0.3834   -1.1203 C   0  0  0  0  0  0  0  0  0  0  0  0
    1.4029   -0.5969   -0.9680 H   0  0  0  0  0  0  0  0  0  0  0  0
   -0.0756   -1.2818   -1.5913 H   0  0  0  0  0  0  0  0  0  0  0  0
    0.2767    0.8230   -2.0948 C   0  0  0  0  0  0  0  0  0  0  0  0
    0.1309    1.7814   -1.5970 H   0  0  0  0  0  0  0  0  0  0  0  0
    1.2382    0.8877   -2.6114 H   0  0  0  0  0  0  0  0  0  0  0  0
   -0.7940    0.6598   -3.1743 C   0  0  0  0  0  0  0  0  0  0  0  0
   -1.8239    0.0574   -2.9183 O   0  0  0  0  0  0  0  0  0  0  0  0
   -0.5408    1.2061   -4.3826 O   0  0  0  0  0  0  0  0  0  0  0  0
   -1.3297    1.0152   -4.9128 H   0  0  0  0  0  0  0  0  0  0  0  0
   -0.3861    1.2617    0.8170 C   0  0  0  0  0  0  0  0  0  0  0  0
   -1.3404    1.9593    0.4939 O   0  0  0  0  0  0  0  0  0  0  0  0
    0.5461    1.7696    1.7037 N   0  0  0  0  0  0  0  0  0  0  0  0
    1.2681    1.1377    2.0382 H   0  0  0  0  0  0  0  0  0  0  0  0
    0.4330    3.0920    2.3081 C   0  0  0  0  0  0  0  0  0  0  0  0
   -0.4788    3.1616    2.9108 H   0  0  0  0  0  0  0  0  0  0  0  0
    1.2924    3.2871    2.9567 H   0  0  0  0  0  0  0  0  0  0  0  0
    0.4034    3.8659    1.5339 H   0  0  0  0  0  0  0  0  0  0  0  0
  1  2  1  0  0  0  0
  2  3  1  0  0  0  0
  2  4  1  0  0  0  0
  2  5  1  0  0  0  0
  5  6  2  0  0  0  0
  5  7  1  0  0  0  0
  7  8  1  0  0  0  0
  7  9  1  0  0  0  0
  9 10  1  0  0  0  0
  9 11  1  0  0  0  0
  9 21  1  0  0  0  0
 11 12  1  0  0  0  0
 11 13  1  0  0  0  0
 11 14  1  0  0  0  0
 14 15  1  0  0  0  0
 14 16  1  0  0  0  0
 14 17  1  0  0  0  0
 17 18  2  0  0  0  0
 17 19  1  0  0  0  0
 19 20  1  0  0  0  0
 21 22  2  0  0  0  0
 21 23  1  0  0  0  0
 23 24  1  0  0  0  0
 23 25  1  0  0  0  0
 25 26  1  0  0  0  0
 25 27  1  0  0  0  0
 25 28  1  0  0  0  0
M  END
$$$$

  -OEChem-03222214033D

 28 27  0     1  0  0  0  0  0999 V2000
   -3.1150   -3.8323    1.0872 H   0  0  0  0  0  0  0  0  0  0  0  0
   -3.1217   -2.8244    0.6631 C   0  0  0  0  0  0  0  0  0  0  0  0
   -3.8795   -2.2290    1.1780 H   0  0  0  0  0  0  0  0  0  0  0  0
   -3.3783   -2.8886   -0.3973 H   0  0  0  0  0  0  0  0  0  0  0  0
   -1.7592   -2.1785    0.8257 C   0  0  0  0  0  0  0  0  0  0  0  0
   -0.8527   -2.7864    1.3744 O   0  0  0  0  0  0  0  0  0  0  0  0
   -1.5459   -0.9071    0.3391 N   0  0  0  0  0  0  0  0  0  0  0  0
   -2.3054   -0.4755   -0.1890 H   0  0  0  0  0  0  0  0  0  0  0  0
   -0.2531   -0.2115    0.3199 C   0  0  1  0  0  0  0  0  0  0  0  0
    0.4152   -0.7020    1.0351 H   0  0  0  0  0  0  0  0  0  0  0  0
    0.3467   -0.4317   -1.0940 C   0  0  0  0  0  0  0  0  0  0  0  0
    1.4072   -0.6575   -0.9423 H   0  0  0  0  0  0  0  0  0  0  0  0
   -0.0838   -1.3226   -1.5659 H   0  0  0  0  0  0  0  0  0  0  0  0
    0.2909    0.7749   -2.0642 C   0  0  0  0  0  0  0  0  0  0  0  0
    0.4337    1.7328   -1.5618 H   0  0  0  0  0  0  0  0  0  0  0  0
    1.1191    0.6721   -2.7700 H   0  0  0  0  0  0  0  0  0  0  0  0
   -0.9877    0.8218   -2.9055 C   0  0  0  0  0  0  0  0  0  0  0  0
   -1.9505    0.1339   -2.6026 O   0  0  0  0  0  0  0  0  0  0  0  0
   -0.9785    1.6432   -3.9765 O   0  0  0  0  0  0  0  0  0  0  0  0
   -1.8652    1.5629   -4.3597 H   0  0  0  0  0  0  0  0  0  0  0  0
   -0.3746    1.2518    0.8014 C   0  0  0  0  0  0  0  0  0  0  0  0
   -1.2905    1.9664    0.4114 O   0  0  0  0  0  0  0  0  0  0  0  0
    0.5465    1.7703    1.6931 N   0  0  0  0  0  0  0  0  0  0  0  0
    1.2368    1.1314    2.0775 H   0  0  0  0  0  0  0  0  0  0  0  0
    0.4517    3.1176    2.2429 C   0  0  0  0  0  0  0  0  0  0  0  0
   -0.4812    3.2380    2.8037 H   0  0  0  0  0  0  0  0  0  0  0  0
    1.2899    3.3105    2.9193 H   0  0  0  0  0  0  0  0  0  0  0  0
    0.4786    3.8623    1.4402 H   0  0  0  0  0  0  0  0  0  0  0  0
  1  2  1  0  0  0  0
  2  3  1  0  0  0  0
  2  4  1  0  0  0  0
  2  5  1  0  0  0  0
  5  6  2  0  0  0  0
  5  7  1  0  0  0  0
  7  8  1  0  0  0  0
  7  9  1  0  0  0  0
  9 10  1  0  0  0  0
  9 11  1  0  0  0  0
  9 21  1  0  0  0  0
 11 12  1  0  0  0  0
 11 13  1  0  0  0  0
 11 14  1  0  0  0  0
 14 15  1  0  0  0  0
 14 16  1  0  0  0  0
 14 17  1  0  0  0  0
 17 18  2  0  0  0  0
 17 19  1  0  0  0  0
 19 20  1  0  0  0  0
 21 22  2  0  0  0  0
 21 23  1  0  0  0  0
 23 24  1  0  0  0  0
 23 25  1  0  0  0  0
 25 26  1  0  0  0  0
 25 27  1  0  0  0  0
 25 28  1  0  0  0  0
M  END
$$$$

  -OEChem-03222214033D

 28 27  0     1  0  0  0  0  0999 V2000
   -3.1238   -3.8401    1.1132 H   0  0  0  0  0  0  0  0  0  0  0  0
   -3.1309   -2.8376    0.6766 C   0  0  0  0  0  0  0  0  0  0  0  0
   -3.9005   -2.2415    1.1727 H   0  0  0  0  0  0  0  0  0  0  0  0
   -3.3708   -2.9171   -0.3866 H   0  0  0  0  0  0  0  0  0  0  0  0
   -1.7755   -2.1804    0.8523 C   0  0  0  0  0  0  0  0  0  0  0  0
   -0.8758   -2.7742    1.4269 O   0  0  0  0  0  0  0  0  0  0  0  0
   -1.5595   -0.9170    0.3466 N   0  0  0  0  0  0  0  0  0  0  0  0
   -2.3080   -0.5037   -0.2120 H   0  0  0  0  0  0  0  0  0  0  0  0
   -0.2668   -0.2214    0.3253 C   0  0  1  0  0  0  0  0  0  0  0  0
    0.3929   -0.7025    1.0547 H   0  0  0  0  0  0  0  0  0  0  0  0
    0.3547   -0.4603   -1.0766 C   0  0  0  0  0  0  0  0  0  0  0  0
    1.4119   -0.6969   -0.9188 H   0  0  0  0  0  0  0  0  0  0  0  0
   -0.0892   -1.3450   -1.5478 H   0  0  0  0  0  0  0  0  0  0  0  0
    0.3034    0.7374   -2.0548 C   0  0  0  0  0  0  0  0  0  0  0  0
    0.6646    1.6532   -1.5809 H   0  0  0  0  0  0  0  0  0  0  0  0
    0.9755    0.5280   -2.8907 H   0  0  0  0  0  0  0  0  0  0  0  0
   -1.0839    0.9948   -2.6533 C   0  0  0  0  0  0  0  0  0  0  0  0
   -2.0012    0.2143   -2.4472 O   0  0  0  0  0  0  0  0  0  0  0  0
   -1.2128    2.0951   -3.4242 O   0  0  0  0  0  0  0  0  0  0  0  0
   -2.1486    2.1157   -3.6746 H   0  0  0  0  0  0  0  0  0  0  0  0
   -0.3771    1.2520    0.7802 C   0  0  0  0  0  0  0  0  0  0  0  0
   -1.2822    1.9705    0.3737 O   0  0  0  0  0  0  0  0  0  0  0  0
    0.5458    1.7771    1.6666 N   0  0  0  0  0  0  0  0  0  0  0  0
    1.2273    1.1382    2.0662 H   0  0  0  0  0  0  0  0  0  0  0  0
    0.4659    3.1365    2.1887 C   0  0  0  0  0  0  0  0  0  0  0  0
   -0.4646    3.2784    2.7486 H   0  0  0  0  0  0  0  0  0  0  0  0
    1.3074    3.3343    2.8597 H   0  0  0  0  0  0  0  0  0  0  0  0
    0.4992    3.8645    1.3710 H   0  0  0  0  0  0  0  0  0  0  0  0
  1  2  1  0  0  0  0
  2  3  1  0  0  0  0
  2  4  1  0  0  0  0
  2  5  1  0  0  0  0
  5  6  2  0  0  0  0
  5  7  1  0  0  0  0
  7  8  1  0  0  0  0
  7  9  1  0  0  0  0
  9 10  1  0  0  0  0
  9 11  1  0  0  0  0
  9 21  1  0  0  0  0
 11 12  1  0  0  0  0
 11 13  1  0  0  0  0
 11 14  1  0  0  0  0
 14 15  1  0  0  0  0
 14 16  1  0  0  0  0
 14 17  1  0  0  0  0
 17 18  2  0  0  0  0
 17 19  1  0  0  0  0
 19 20  1  0  0  0  0
 21 22  2  0  0  0  0
 21 23  1  0  0  0  0
 23 24  1  0  0  0  0
 23 25  1  0  0  0  0
 25 26  1  0  0  0  0
 25 27  1  0  0  0  0
 25 28  1  0  0  0  0
M  END
$$$$

  -OEChem-03222214033D

 28 27  0     1  0  0  0  0  0999 V2000
   -3.1184   -3.8424    1.1464 H   0  0  0  0  0  0  0  0  0  0  0  0
   -3.1376   -2.8398    0.7104 C   0  0  0  0  0  0  0  0  0  0  0  0
   -3.8971   -2.2457    1.2245 H   0  0  0  0  0  0  0  0  0  0  0  0
   -3.4020   -2.9194   -0.3470 H   0  0  0  0  0  0  0  0  0  0  0  0
   -1.7799   -2.1796    0.8550 C   0  0  0  0  0  0  0  0  0  0  0  0
   -0.8639   -2.7746    1.4019 O   0  0  0  0  0  0  0  0  0  0  0  0
   -1.5806   -0.9126    0.3506 N   0  0  0  0  0  0  0  0  0  0  0  0
   -2.3466   -0.4949   -0.1802 H   0  0  0  0  0  0  0  0  0  0  0  0
   -0.2961   -0.2018    0.3154 C   0  0  1  0  0  0  0  0  0  0  0  0
    0.3570   -0.6749    1.0558 H   0  0  0  0  0  0  0  0  0  0  0  0
    0.3612   -0.4567   -1.0667 C   0  0  0  0  0  0  0  0  0  0  0  0
    1.4159   -0.6921   -0.8925 H   0  0  0  0  0  0  0  0  0  0  0  0
   -0.0834   -1.3463   -1.5271 H   0  0  0  0  0  0  0  0  0  0  0  0
    0.3134    0.7108   -2.0786 C   0  0  0  0  0  0  0  0  0  0  0  0
    0.8530    1.5711   -1.6736 H   0  0  0  0  0  0  0  0  0  0  0  0
    0.8230    0.4092   -2.9969 H   0  0  0  0  0  0  0  0  0  0  0  0
   -1.0996    1.1667   -2.4556 C   0  0  0  0  0  0  0  0  0  0  0  0
   -2.0359    0.3880   -2.3546 O   0  0  0  0  0  0  0  0  0  0  0  0
   -1.2311    2.4257   -2.9238 O   0  0  0  0  0  0  0  0  0  0  0  0
   -2.1852    2.5503   -3.0383 H   0  0  0  0  0  0  0  0  0  0  0  0
   -0.3886    1.2737    0.7707 C   0  0  0  0  0  0  0  0  0  0  0  0
   -1.3281    1.9835    0.4340 O   0  0  0  0  0  0  0  0  0  0  0  0
    0.5557    1.7901    1.6397 N   0  0  0  0  0  0  0  0  0  0  0  0
    1.2600    1.1520    1.9990 H   0  0  0  0  0  0  0  0  0  0  0  0
    0.4749    3.1350    2.1981 C   0  0  0  0  0  0  0  0  0  0  0  0
   -0.4305    3.2442    2.8043 H   0  0  0  0  0  0  0  0  0  0  0  0
    1.3433    3.3345    2.8332 H   0  0  0  0  0  0  0  0  0  0  0  0
    0.4547    3.8823    1.3977 H   0  0  0  0  0  0  0  0  0  0  0  0
  1  2  1  0  0  0  0
  2  3  1  0  0  0  0
  2  4  1  0  0  0  0
  2  5  1  0  0  0  0
  5  6  2  0  0  0  0
  5  7  1  0  0  0  0
  7  8  1  0  0  0  0
  7  9  1  0  0  0  0
  9 10  1  0  0  0  0
  9 11  1  0  0  0  0
  9 21  1  0  0  0  0
 11 12  1  0  0  0  0
 11 13  1  0  0  0  0
 11 14  1  0  0  0  0
 14 15  1  0  0  0  0
 14 16  1  0  0  0  0
 14 17  1  0  0  0  0
 17 18  2  0  0  0  0
 17 19  1  0  0  0  0
 19 20  1  0  0  0  0
 21 22  2  0  0  0  0
 21 23  1  0  0  0  0
 23 24  1  0  0  0  0
 23 25  1  0  0  0  0
 25 26  1  0  0  0  0
 25 27  1  0  0  0  0
 25 28  1  0  0  0  0
M  END
$$$$

  -OEChem-03222214033D

 28 27  0     1  0  0  0  0  0999 V2000
   -3.0980   -3.8365    1.2054 H   0  0  0  0  0  0  0  0  0  0  0  0
   -3.1360   -2.8316    0.7759 C   0  0  0  0  0  0  0  0  0  0  0  0
   -3.8576   -2.2344    1.3386 H   0  0  0  0  0  0  0  0  0  0  0  0
   -3.4657   -2.9038   -0.2634 H   0  0  0  0  0  0  0  0  0  0  0  0
   -1.7668   -2.1826    0.8394 C   0  0  0  0  0  0  0  0  0  0  0  0
   -0.8184   -2.7953    1.3056 O   0  0  0  0  0  0  0  0  0  0  0  0
   -1.5957   -0.9040    0.3542 N   0  0  0  0  0  0  0  0  0  0  0  0
   -2.4016   -0.4541   -0.0815 H   0  0  0  0  0  0  0  0  0  0  0  0
   -0.3238   -0.1727    0.2970 C   0  0  1  0  0  0  0  0  0  0  0  0
    0.3293   -0.6412    1.0402 H   0  0  0  0  0  0  0  0  0  0  0  0
    0.3639   -0.4370   -1.0698 C   0  0  0  0  0  0  0  0  0  0  0  0
    1.4166   -0.6684   -0.8788 H   0  0  0  0  0  0  0  0  0  0  0  0
   -0.0763   -1.3375   -1.5125 H   0  0  0  0  0  0  0  0  0  0  0  0
    0.3228    0.6870   -2.1312 C   0  0  0  0  0  0  0  0  0  0  0  0
    1.0333    1.4662   -1.8418 H   0  0  0  0  0  0  0  0  0  0  0  0
    0.6462    0.2902   -3.0967 H   0  0  0  0  0  0  0  0  0  0  0  0
   -1.0391    1.3556   -2.3158 C   0  0  0  0  0  0  0  0  0  0  0  0
   -2.0437    0.6615   -2.3055 O   0  0  0  0  0  0  0  0  0  0  0  0
   -1.0585    2.6916   -2.5065 O   0  0  0  0  0  0  0  0  0  0  0  0
   -1.9983    2.9290   -2.4939 H   0  0  0  0  0  0  0  0  0  0  0  0
   -0.4104    1.2955    0.7788 C   0  0  0  0  0  0  0  0  0  0  0  0
   -1.4047    1.9766    0.5603 O   0  0  0  0  0  0  0  0  0  0  0  0
    0.5595    1.8012    1.6262 N   0  0  0  0  0  0  0  0  0  0  0  0
    1.3084    1.1756    1.9089 H   0  0  0  0  0  0  0  0  0  0  0  0
    0.4689    3.1163    2.2499 C   0  0  0  0  0  0  0  0  0  0  0  0
   -0.4057    3.1692    2.9068 H   0  0  0  0  0  0  0  0  0  0  0  0
    1.3636    3.3150    2.8476 H   0  0  0  0  0  0  0  0  0  0  0  0
    0.3842    3.8971    1.4866 H   0  0  0  0  0  0  0  0  0  0  0  0
  1  2  1  0  0  0  0
  2  3  1  0  0  0  0
  2  4  1  0  0  0  0
  2  5  1  0  0  0  0
  5  6  2  0  0  0  0
  5  7  1  0  0  0  0
  7  8  1  0  0  0  0
  7  9  1  0  0  0  0
  9 10  1  0  0  0  0
  9 11  1  0  0  0  0
  9 21  1  0  0  0  0
 11 12  1  0  0  0  0
 11 13  1  0  0  0  0
 11 14  1  0  0  0  0
 14 15  1  0  0  0  0
 14 16  1  0  0  0  0
 14 17  1  0  0  0  0
 17 18  2  0  0  0  0
 17 19  1  0  0  0  0
 19 20  1  0  0  0  0
 21 22  2  0  0  0  0
 21 23  1  0  0  0  0
 23 24  1  0  0  0  0
 23 25  1  0  0  0  0
 25 26  1  0  0  0  0
 25 27  1  0  0  0  0
 25 28  1  0  0  0  0
M  END
$$$$

  -OEChem-03222214033D

 28 27  0     1  0  0  0  0  0999 V2000
   -3.0560   -3.8445    1.2519 H   0  0  0  0  0  0  0  0  0  0  0  0
   -3.1217   -2.8328    0.8423 C   0  0  0  0  0  0  0  0  0  0  0  0
   -3.7956   -2.2422    1.4676 H   0  0  0  0  0  0  0  0  0  0  0  0
   -3.5295   -2.8874   -0.1700 H   0  0  0  0  0  0  0  0  0  0  0  0
   -1.7480   -2.1905    0.8118 C   0  0  0  0  0  0  0  0  0  0  0  0
   -0.7684   -2.8207    1.1794 O   0  0  0  0  0  0  0  0  0  0  0  0
   -1.6069   -0.8977    0.3544 N   0  0  0  0  0  0  0  0  0  0  0  0
   -2.4493   -0.4094    0.0503 H   0  0  0  0  0  0  0  0  0  0  0  0
   -0.3464   -0.1476    0.2818 C   0  0  1  0  0  0  0  0  0  0  0  0
    0.3109   -0.6162    1.0218 H   0  0  0  0  0  0  0  0  0  0  0  0
    0.3600   -0.4130   -1.0781 C   0  0  0  0  0  0  0  0  0  0  0  0
    1.4115   -0.6378   -0.8719 H   0  0  0  0  0  0  0  0  0  0  0  0
   -0.0697   -1.3267   -1.5033 H   0  0  0  0  0  0  0  0  0  0  0  0
    0.3321    0.6692   -2.1863 C   0  0  0  0  0  0  0  0  0  0  0  0
    1.2013    1.3189   -2.0519 H   0  0  0  0  0  0  0  0  0  0  0  0
    0.4322    0.1921   -3.1648 H   0  0  0  0  0  0  0  0  0  0  0  0
   -0.8969    1.5699   -2.2110 C   0  0  0  0  0  0  0  0  0  0  0  0
   -1.9923    1.0447   -2.3186 O   0  0  0  0  0  0  0  0  0  0  0  0
   -0.7119    2.9032   -2.1096 O   0  0  0  0  0  0  0  0  0  0  0  0
   -1.6057    3.2657   -2.0035 H   0  0  0  0  0  0  0  0  0  0  0  0
   -0.4413    1.3070    0.8026 C   0  0  0  0  0  0  0  0  0  0  0  0
   -1.4767    1.9515    0.6815 O   0  0  0  0  0  0  0  0  0  0  0  0
    0.5438    1.8061    1.6362 N   0  0  0  0  0  0  0  0  0  0  0  0
    1.3362    1.2047    1.8418 H   0  0  0  0  0  0  0  0  0  0  0  0
    0.4455    3.0955    2.3101 C   0  0  0  0  0  0  0  0  0  0  0  0
   -0.4066    3.1049    2.9980 H   0  0  0  0  0  0  0  0  0  0  0  0
    1.3560    3.2933    2.8838 H   0  0  0  0  0  0  0  0  0  0  0  0
    0.3170    3.9003    1.5787 H   0  0  0  0  0  0  0  0  0  0  0  0
  1  2  1  0  0  0  0
  2  3  1  0  0  0  0
  2  4  1  0  0  0  0
  2  5  1  0  0  0  0
  5  6  2  0  0  0  0
  5  7  1  0  0  0  0
  7  8  1  0  0  0  0
  7  9  1  0  0  0  0
  9 10  1  0  0  0  0
  9 11  1  0  0  0  0
  9 21  1  0  0  0  0
 11 12  1  0  0  0  0
 11 13  1  0  0  0  0
 11 14  1  0  0  0  0
 14 15  1  0  0  0  0
 14 16  1  0  0  0  0
 14 17  1  0  0  0  0
 17 18  2  0  0  0  0
 17 19  1  0  0  0  0
 19 20  1  0  0  0  0
 21 22  2  0  0  0  0
 21 23  1  0  0  0  0
 23 24  1  0  0  0  0
 23 25  1  0  0  0  0
 25 26  1  0  0  0  0
 25 27  1  0  0  0  0
 25 28  1  0  0  0  0
M  END
$$$$

  -OEChem-03222214033D

 28 27  0     1  0  0  0  0  0999 V2000
   -2.9580   -3.8339    1.4902 H   0  0  0  0  0  0  0  0  0  0  0  0
   -3.0593   -2.8315    1.0649 C   0  0  0  0  0  0  0  0  0  0  0  0
   -3.6952   -2.2329    1.7216 H   0  0  0  0  0  0  0  0  0  0  0  0
   -3.5334   -2.9106    0.0836 H   0  0  0  0  0  0  0  0  0  0  0  0
   -1.6960   -2.1803    0.9293 C   0  0  0  0  0  0  0  0  0  0  0  0
   -0.6899   -2.7899    1.2577 O   0  0  0  0  0  0  0  0  0  0  0  0
   -1.5955   -0.9007    0.4252 N   0  0  0  0  0  0  0  0  0  0  0  0
   -2.4632   -0.4129    0.2038 H   0  0  0  0  0  0  0  0  0  0  0  0
   -0.3539   -0.1234    0.3099 C   0  0  1  0  0  0  0  0  0  0  0  0
    0.3130   -0.5430    1.0705 H   0  0  0  0  0  0  0  0  0  0  0  0
    0.3676   -0.4422   -1.0333 C   0  0  0  0  0  0  0  0  0  0  0  0
    1.4214   -0.6233   -0.7971 H   0  0  0  0  0  0  0  0  0  0  0  0
   -0.0266   -1.3970   -1.3984 H   0  0  0  0  0  0  0  0  0  0  0  0
    0.3445    0.5477   -2.2300 C   0  0  0  0  0  0  0  0  0  0  0  0
    1.3267    1.0233   -2.2983 H   0  0  0  0  0  0  0  0  0  0  0  0
    0.1999   -0.0172   -3.1552 H   0  0  0  0  0  0  0  0  0  0  0  0
   -0.6835    1.6688   -2.1995 C   0  0  0  0  0  0  0  0  0  0  0  0
   -1.8406    1.3856   -2.4537 O   0  0  0  0  0  0  0  0  0  0  0  0
   -0.2660    2.9169   -1.8979 O   0  0  0  0  0  0  0  0  0  0  0  0
   -1.0862    3.4289   -1.8090 H   0  0  0  0  0  0  0  0  0  0  0  0
   -0.4887    1.3428    0.7842 C   0  0  0  0  0  0  0  0  0  0  0  0
   -1.5536    1.9384    0.6664 O   0  0  0  0  0  0  0  0  0  0  0  0
    0.4868    1.9025    1.5898 N   0  0  0  0  0  0  0  0  0  0  0  0
    1.3225    1.3540    1.7700 H   0  0  0  0  0  0  0  0  0  0  0  0
    0.3598    3.2169    2.2083 C   0  0  0  0  0  0  0  0  0  0  0  0
   -0.4952    3.2379    2.8924 H   0  0  0  0  0  0  0  0  0  0  0  0
    1.2634    3.4568    2.7769 H   0  0  0  0  0  0  0  0  0  0  0  0
    0.2185    3.9876    1.4433 H   0  0  0  0  0  0  0  0  0  0  0  0
  1  2  1  0  0  0  0
  2  3  1  0  0  0  0
  2  4  1  0  0  0  0
  2  5  1  0  0  0  0
  5  6  2  0  0  0  0
  5  7  1  0  0  0  0
  7  8  1  0  0  0  0
  7  9  1  0  0  0  0
  9 10  1  0  0  0  0
  9 11  1  0  0  0  0
  9 21  1  0  0  0  0
 11 12  1  0  0  0  0
 11 13  1  0  0  0  0
 11 14  1  0  0  0  0
 14 15  1  0  0  0  0
 14 16  1  0  0  0  0
 14 17  1  0  0  0  0
 17 18  2  0  0  0  0
 17 19  1  0  0  0  0
 19 20  1  0  0  0  0
 21 22  2  0  0  0  0
 21 23  1  0  0  0  0
 23 24  1  0  0  0  0
 23 25  1  0  0  0  0
 25 26  1  0  0  0  0
 25 27  1  0  0  0  0
 25 28  1  0  0  0  0
M  END
$$$$

  -OEChem-03222214033D

 28 27  0     1  0  0  0  0  0999 V2000
   -3.4073   -3.6268    1.0271 H   0  0  0  0  0  0  0  0  0  0  0  0
   -3.3560   -2.6156    0.6141 C   0  0  0  0  0  0  0  0  0  0  0  0
   -4.0093   -1.9629    1.1983 H   0  0  0  0  0  0  0  0  0  0  0  0
   -3.7065   -2.6389   -0.4204 H   0  0  0  0  0  0  0  0  0  0  0  0
   -1.9299   -2.1018    0.6647 C   0  0  0  0  0  0  0  0  0  0  0  0
   -1.0330   -2.8222    1.0739 O   0  0  0  0  0  0  0  0  0  0  0  0
   -1.6475   -0.8206    0.2397 N   0  0  0  0  0  0  0  0  0  0  0  0
   -2.4383   -0.2245   -0.0027 H   0  0  0  0  0  0  0  0  0  0  0  0
   -0.3444   -0.1542    0.3791 C   0  0  1  0  0  0  0  0  0  0  0  0
    0.1615   -0.6510    1.2141 H   0  0  0  0  0  0  0  0  0  0  0  0
    0.5442   -0.4704   -0.8640 C   0  0  0  0  0  0  0  0  0  0  0  0
    1.5280   -0.7375   -0.4640 H   0  0  0  0  0  0  0  0  0  0  0  0
    0.1578   -1.3827   -1.3316 H   0  0  0  0  0  0  0  0  0  0  0  0
    0.8191    0.5549   -2.0024 C   0  0  0  0  0  0  0  0  0  0  0  0
    1.9009    0.6864   -2.0982 H   0  0  0  0  0  0  0  0  0  0  0  0
    0.4716    0.1169   -2.9419 H   0  0  0  0  0  0  0  0  0  0  0  0
    0.1960    1.9384   -1.9119 C   0  0  0  0  0  0  0  0  0  0  0  0
    0.8677    2.8404   -1.4417 O   0  0  0  0  0  0  0  0  0  0  0  0
   -1.0711    2.0945   -2.3498 O   0  0  0  0  0  0  0  0  0  0  0  0
   -1.3256    2.9850   -2.0600 H   0  0  0  0  0  0  0  0  0  0  0  0
   -0.4979    1.2975    0.8896 C   0  0  0  0  0  0  0  0  0  0  0  0
   -1.5051    1.9382    0.6022 O   0  0  0  0  0  0  0  0  0  0  0  0
    0.3278    1.7792    1.8886 N   0  0  0  0  0  0  0  0  0  0  0  0
    1.1535    1.2340    2.1175 H   0  0  0  0  0  0  0  0  0  0  0  0
    0.2014    3.1224    2.4411 C   0  0  0  0  0  0  0  0  0  0  0  0
   -0.7804    3.2547    2.9079 H   0  0  0  0  0  0  0  0  0  0  0  0
    0.9696    3.2932    3.2013 H   0  0  0  0  0  0  0  0  0  0  0  0
    0.3214    3.8726    1.6520 H   0  0  0  0  0  0  0  0  0  0  0  0
  1  2  1  0  0  0  0
  2  3  1  0  0  0  0
  2  4  1  0  0  0  0
  2  5  1  0  0  0  0
  5  6  2  0  0  0  0
  5  7  1  0  0  0  0
  7  8  1  0  0  0  0
  7  9  1  0  0  0  0
  9 10  1  0  0  0  0
  9 11  1  0  0  0  0
  9 21  1  0  0  0  0
 11 12  1  0  0  0  0
 11 13  1  0  0  0  0
 11 14  1  0  0  0  0
 14 15  1  0  0  0  0
 14 16  1  0  0  0  0
 14 17  1  0  0  0  0
 17 18  2  0  0  0  0
 17 19  1  0  0  0  0
 19 20  1  0  0  0  0
 21 22  2  0  0  0  0
 21 23  1  0  0  0  0
 23 24  1  0  0  0  0
 23 25  1  0  0  0  0
 25 26  1  0  0  0  0
 25 27  1  0  0  0  0
 25 28  1  0  0  0  0
M  END
$$$$

  -OEChem-03222214033D

 28 27  0     1  0  0  0  0  0999 V2000
   -3.2086   -3.8118    0.7808 H   0  0  0  0  0  0  0  0  0  0  0  0
   -3.2081   -2.7676    0.4559 C   0  0  0  0  0  0  0  0  0  0  0  0
   -3.8581   -2.1924    1.1197 H   0  0  0  0  0  0  0  0  0  0  0  0
   -3.5996   -2.7143   -0.5628 H   0  0  0  0  0  0  0  0  0  0  0  0
   -1.7991   -2.2077    0.4980 C   0  0  0  0  0  0  0  0  0  0  0  0
   -0.8634   -2.9252    0.8147 O   0  0  0  0  0  0  0  0  0  0  0  0
   -1.5763   -0.8875    0.1678 N   0  0  0  0  0  0  0  0  0  0  0  0
   -2.3969   -0.3010    0.0177 H   0  0  0  0  0  0  0  0  0  0  0  0
   -0.2955   -0.1851    0.3346 C   0  0  1  0  0  0  0  0  0  0  0  0
    0.2610   -0.7241    1.1092 H   0  0  0  0  0  0  0  0  0  0  0  0
    0.5462   -0.3558   -0.9688 C   0  0  0  0  0  0  0  0  0  0  0  0
    1.5561   -0.5935   -0.6184 H   0  0  0  0  0  0  0  0  0  0  0  0
    0.1975   -1.2502   -1.4966 H   0  0  0  0  0  0  0  0  0  0  0  0
    0.7444    0.7718   -2.0231 C   0  0  0  0  0  0  0  0  0  0  0  0
    1.7806    0.7516   -2.3724 H   0  0  0  0  0  0  0  0  0  0  0  0
    0.1179    0.5231   -2.8842 H   0  0  0  0  0  0  0  0  0  0  0  0
    0.4037    2.2078   -1.6568 C   0  0  0  0  0  0  0  0  0  0  0  0
    1.1965    2.8239   -0.9653 O   0  0  0  0  0  0  0  0  0  0  0  0
   -0.7527    2.7287   -2.1185 O   0  0  0  0  0  0  0  0  0  0  0  0
   -0.8428    3.5834   -1.6698 H   0  0  0  0  0  0  0  0  0  0  0  0
   -0.5159    1.2109    0.9599 C   0  0  0  0  0  0  0  0  0  0  0  0
   -1.5413    1.8351    0.7031 O   0  0  0  0  0  0  0  0  0  0  0  0
    0.2978    1.6574    1.9847 N   0  0  0  0  0  0  0  0  0  0  0  0
    1.1679    1.1559    2.1357 H   0  0  0  0  0  0  0  0  0  0  0  0
    0.1315    2.9628    2.6118 C   0  0  0  0  0  0  0  0  0  0  0  0
   -0.8650    3.0512    3.0575 H   0  0  0  0  0  0  0  0  0  0  0  0
    0.8747    3.0994    3.4031 H   0  0  0  0  0  0  0  0  0  0  0  0
    0.2600    3.7608    1.8727 H   0  0  0  0  0  0  0  0  0  0  0  0
  1  2  1  0  0  0  0
  2  3  1  0  0  0  0
  2  4  1  0  0  0  0
  2  5  1  0  0  0  0
  5  6  2  0  0  0  0
  5  7  1  0  0  0  0
  7  8  1  0  0  0  0
  7  9  1  0  0  0  0
  9 10  1  0  0  0  0
  9 11  1  0  0  0  0
  9 21  1  0  0  0  0
 11 12  1  0  0  0  0
 11 13  1  0  0  0  0
 11 14  1  0  0  0  0
 14 15  1  0  0  0  0
 14 16  1  0  0  0  0
 14 17  1  0  0  0  0
 17 18  2  0  0  0  0
 17 19  1  0  0  0  0
 19 20  1  0  0  0  0
 21 22  2  0  0  0  0
 21 23  1  0  0  0  0
 23 24  1  0  0  0  0
 23 25  1  0  0  0  0
 25 26  1  0  0  0  0
 25 27  1  0  0  0  0
 25 28  1  0  0  0  0
M  END
$$$$

  -OEChem-03222214033D

 28 27  0     1  0  0  0  0  0999 V2000
   -3.0789   -3.8684    0.9802 H   0  0  0  0  0  0  0  0  0  0  0  0
   -3.1126   -2.8249    0.6548 C   0  0  0  0  0  0  0  0  0  0  0  0
   -3.7082   -2.2525    1.3701 H   0  0  0  0  0  0  0  0  0  0  0  0
   -3.5891   -2.7767   -0.3272 H   0  0  0  0  0  0  0  0  0  0  0  0
   -1.7090   -2.2549    0.5775 C   0  0  0  0  0  0  0  0  0  0  0  0
   -0.7454   -2.9623    0.8250 O   0  0  0  0  0  0  0  0  0  0  0  0
   -1.5247   -0.9342    0.2262 N   0  0  0  0  0  0  0  0  0  0  0  0
   -2.3603   -0.3558    0.1407 H   0  0  0  0  0  0  0  0  0  0  0  0
   -0.2426   -0.2177    0.3041 C   0  0  1  0  0  0  0  0  0  0  0  0
    0.3919   -0.7475    1.0231 H   0  0  0  0  0  0  0  0  0  0  0  0
    0.4670   -0.3483   -1.0792 C   0  0  0  0  0  0  0  0  0  0  0  0
    1.5096   -0.5792   -0.8364 H   0  0  0  0  0  0  0  0  0  0  0  0
    0.0771   -1.2309   -1.5978 H   0  0  0  0  0  0  0  0  0  0  0  0
    0.5447    0.8150   -2.1075 C   0  0  0  0  0  0  0  0  0  0  0  0
    1.4184    0.6652   -2.7472 H   0  0  0  0  0  0  0  0  0  0  0  0
   -0.3372    0.7343   -2.7489 H   0  0  0  0  0  0  0  0  0  0  0  0
    0.5734    2.2530   -1.6075 C   0  0  0  0  0  0  0  0  0  0  0  0
    1.4958    2.5881   -0.8836 O   0  0  0  0  0  0  0  0  0  0  0  0
   -0.3999    3.0941   -2.0163 O   0  0  0  0  0  0  0  0  0  0  0  0
   -0.2454    3.9195   -1.5330 H   0  0  0  0  0  0  0  0  0  0  0  0
   -0.4647    1.1730    0.9384 C   0  0  0  0  0  0  0  0  0  0  0  0
   -1.5018    1.7861    0.7045 O   0  0  0  0  0  0  0  0  0  0  0  0
    0.3925    1.6482    1.9135 N   0  0  0  0  0  0  0  0  0  0  0  0
    1.2885    1.1779    2.0046 H   0  0  0  0  0  0  0  0  0  0  0  0
    0.2347    2.9596    2.5299 C   0  0  0  0  0  0  0  0  0  0  0  0
   -0.7421    3.0395    3.0186 H   0  0  0  0  0  0  0  0  0  0  0  0
    1.0107    3.1181    3.2850 H   0  0  0  0  0  0  0  0  0  0  0  0
    0.3180    3.7488    1.7752 H   0  0  0  0  0  0  0  0  0  0  0  0
  1  2  1  0  0  0  0
  2  3  1  0  0  0  0
  2  4  1  0  0  0  0
  2  5  1  0  0  0  0
  5  6  2  0  0  0  0
  5  7  1  0  0  0  0
  7  8  1  0  0  0  0
  7  9  1  0  0  0  0
  9 10  1  0  0  0  0
  9 11  1  0  0  0  0
  9 21  1  0  0  0  0
 11 12  1  0  0  0  0
 11 13  1  0  0  0  0
 11 14  1  0  0  0  0
 14 15  1  0  0  0  0
 14 16  1  0  0  0  0
 14 17  1  0  0  0  0
 17 18  2  0  0  0  0
 17 19  1  0  0  0  0
 19 20  1  0  0  0  0
 21 22  2  0  0  0  0
 21 23  1  0  0  0  0
 23 24  1  0  0  0  0
 23 25  1  0  0  0  0
 25 26  1  0  0  0  0
 25 27  1  0  0  0  0
 25 28  1  0  0  0  0
M  END
$$$$

  -OEChem-03222214033D

 28 27  0     1  0  0  0  0  0999 V2000
   -3.1928   -3.7577    1.1889 H   0  0  0  0  0  0  0  0  0  0  0  0
   -3.1843   -2.7527    0.7579 C   0  0  0  0  0  0  0  0  0  0  0  0
   -3.8014   -2.0986    1.3787 H   0  0  0  0  0  0  0  0  0  0  0  0
   -3.6087   -2.7965   -0.2479 H   0  0  0  0  0  0  0  0  0  0  0  0
   -1.7649   -2.2217    0.6964 C   0  0  0  0  0  0  0  0  0  0  0  0
   -0.8286   -2.9364    1.0165 O   0  0  0  0  0  0  0  0  0  0  0  0
   -1.5354   -0.9310    0.2690 N   0  0  0  0  0  0  0  0  0  0  0  0
   -2.3512   -0.3373    0.1216 H   0  0  0  0  0  0  0  0  0  0  0  0
   -0.2324   -0.2503    0.3214 C   0  0  1  0  0  0  0  0  0  0  0  0
    0.3980   -0.7578    1.0595 H   0  0  0  0  0  0  0  0  0  0  0  0
    0.4502   -0.4396   -1.0670 C   0  0  0  0  0  0  0  0  0  0  0  0
    1.4890   -0.7107   -0.8505 H   0  0  0  0  0  0  0  0  0  0  0  0
    0.0089   -1.3074   -1.5692 H   0  0  0  0  0  0  0  0  0  0  0  0
    0.5260    0.7218   -2.0932 C   0  0  0  0  0  0  0  0  0  0  0  0
    1.2081    0.4397   -2.8993 H   0  0  0  0  0  0  0  0  0  0  0  0
   -0.4688    0.8346   -2.5335 H   0  0  0  0  0  0  0  0  0  0  0  0
    0.9428    2.1007   -1.5913 C   0  0  0  0  0  0  0  0  0  0  0  0
    1.8893    2.1751   -0.8253 O   0  0  0  0  0  0  0  0  0  0  0  0
    0.2763    3.1777   -2.0576 O   0  0  0  0  0  0  0  0  0  0  0  0
    0.6661    3.9385   -1.6024 H   0  0  0  0  0  0  0  0  0  0  0  0
   -0.4402    1.1787    0.8698 C   0  0  0  0  0  0  0  0  0  0  0  0
   -1.4414    1.8104    0.5467 O   0  0  0  0  0  0  0  0  0  0  0  0
    0.4061    1.6974    1.8318 N   0  0  0  0  0  0  0  0  0  0  0  0
    1.2930    1.2180    1.9617 H   0  0  0  0  0  0  0  0  0  0  0  0
    0.2722    3.0523    2.3520 C   0  0  0  0  0  0  0  0  0  0  0  0
   -0.7239    3.2032    2.7812 H   0  0  0  0  0  0  0  0  0  0  0  0
    1.0142    3.2309    3.1364 H   0  0  0  0  0  0  0  0  0  0  0  0
    0.4265    3.7850    1.5532 H   0  0  0  0  0  0  0  0  0  0  0  0
  1  2  1  0  0  0  0
  2  3  1  0  0  0  0
  2  4  1  0  0  0  0
  2  5  1  0  0  0  0
  5  6  2  0  0  0  0
  5  7  1  0  0  0  0
  7  8  1  0  0  0  0
  7  9  1  0  0  0  0
  9 10  1  0  0  0  0
  9 11  1  0  0  0  0
  9 21  1  0  0  0  0
 11 12  1  0  0  0  0
 11 13  1  0  0  0  0
 11 14  1  0  0  0  0
 14 15  1  0  0  0  0
 14 16  1  0  0  0  0
 14 17  1  0  0  0  0
 17 18  2  0  0  0  0
 17 19  1  0  0  0  0
 19 20  1  0  0  0  0
 21 22  2  0  0  0  0
 21 23  1  0  0  0  0
 23 24  1  0  0  0  0
 23 25  1  0  0  0  0
 25 26  1  0  0  0  0
 25 27  1  0  0  0  0
 25 28  1  0  0  0  0
M  END
$$$$

  -OEChem-03222214033D

 28 27  0     1  0  0  0  0  0999 V2000
   -3.2121   -3.7481    1.2280 H   0  0  0  0  0  0  0  0  0  0  0  0
   -3.1956   -2.7518    0.7773 C   0  0  0  0  0  0  0  0  0  0  0  0
   -3.8168   -2.0833    1.3782 H   0  0  0  0  0  0  0  0  0  0  0  0
   -3.6103   -2.8140   -0.2316 H   0  0  0  0  0  0  0  0  0  0  0  0
   -1.7735   -2.2273    0.7201 C   0  0  0  0  0  0  0  0  0  0  0  0
   -0.8456   -2.9335    1.0807 O   0  0  0  0  0  0  0  0  0  0  0  0
   -1.5319   -0.9524    0.2540 N   0  0  0  0  0  0  0  0  0  0  0  0
   -2.3424   -0.3611    0.0727 H   0  0  0  0  0  0  0  0  0  0  0  0
   -0.2262   -0.2770    0.3069 C   0  0  1  0  0  0  0  0  0  0  0  0
    0.4004   -0.7683    1.0594 H   0  0  0  0  0  0  0  0  0  0  0  0
    0.4644   -0.4696   -1.0737 C   0  0  0  0  0  0  0  0  0  0  0  0
    1.4990   -0.7699   -0.8753 H   0  0  0  0  0  0  0  0  0  0  0  0
   -0.0037   -1.3133   -1.5922 H   0  0  0  0  0  0  0  0  0  0  0  0
    0.5176    0.7285   -2.0544 C   0  0  0  0  0  0  0  0  0  0  0  0
    0.9977    0.4076   -2.9820 H   0  0  0  0  0  0  0  0  0  0  0  0
   -0.5088    1.0172   -2.2986 H   0  0  0  0  0  0  0  0  0  0  0  0
    1.2469    1.9808   -1.5675 C   0  0  0  0  0  0  0  0  0  0  0  0
    2.1477    1.8633   -0.7526 O   0  0  0  0  0  0  0  0  0  0  0  0
    0.8832    3.1647   -2.1034 O   0  0  0  0  0  0  0  0  0  0  0  0
    1.4449    3.8251   -1.6716 H   0  0  0  0  0  0  0  0  0  0  0  0
   -0.4363    1.1705    0.8045 C   0  0  0  0  0  0  0  0  0  0  0  0
   -1.4158    1.8034    0.4226 O   0  0  0  0  0  0  0  0  0  0  0  0
    0.3933    1.7200    1.7636 N   0  0  0  0  0  0  0  0  0  0  0  0
    1.2743    1.2398    1.9287 H   0  0  0  0  0  0  0  0  0  0  0  0
    0.2600    3.0957    2.2256 C   0  0  0  0  0  0  0  0  0  0  0  0
   -0.7395    3.2673    2.6389 H   0  0  0  0  0  0  0  0  0  0  0  0
    0.9954    3.3038    3.0086 H   0  0  0  0  0  0  0  0  0  0  0  0
    0.4248    3.7944    1.3988 H   0  0  0  0  0  0  0  0  0  0  0  0
  1  2  1  0  0  0  0
  2  3  1  0  0  0  0
  2  4  1  0  0  0  0
  2  5  1  0  0  0  0
  5  6  2  0  0  0  0
  5  7  1  0  0  0  0
  7  8  1  0  0  0  0
  7  9  1  0  0  0  0
  9 10  1  0  0  0  0
  9 11  1  0  0  0  0
  9 21  1  0  0  0  0
 11 12  1  0  0  0  0
 11 13  1  0  0  0  0
 11 14  1  0  0  0  0
 14 15  1  0  0  0  0
 14 16  1  0  0  0  0
 14 17  1  0  0  0  0
 17 18  2  0  0  0  0
 17 19  1  0  0  0  0
 19 20  1  0  0  0  0
 21 22  2  0  0  0  0
 21 23  1  0  0  0  0
 23 24  1  0  0  0  0
 23 25  1  0  0  0  0
 25 26  1  0  0  0  0
 25 27  1  0  0  0  0
 25 28  1  0  0  0  0
M  END
$$$$

  -OEChem-03222214033D

 28 27  0     1  0  0  0  0  0999 V2000
   -3.1956   -3.7661    1.2607 H   0  0  0  0  0  0  0  0  0  0  0  0
   -3.1901   -2.7718    0.8051 C   0  0  0  0  0  0  0  0  0  0  0  0
   -3.8025   -2.1026    1.4143 H   0  0  0  0  0  0  0  0  0  0  0  0
   -3.6222   -2.8402   -0.1961 H   0  0  0  0  0  0  0  0  0  0  0  0
   -1.7706   -2.2434    0.7212 C   0  0  0  0  0  0  0  0  0  0  0  0
   -0.8358   -2.9432    1.0760 O   0  0  0  0  0  0  0  0  0  0  0  0
   -1.5400   -0.9717    0.2404 N   0  0  0  0  0  0  0  0  0  0  0  0
   -2.3557   -0.3868    0.0627 H   0  0  0  0  0  0  0  0  0  0  0  0
   -0.2392   -0.2860    0.2801 C   0  0  1  0  0  0  0  0  0  0  0  0
    0.3891   -0.7688    1.0364 H   0  0  0  0  0  0  0  0  0  0  0  0
    0.4688   -0.4712   -1.0887 C   0  0  0  0  0  0  0  0  0  0  0  0
    1.5023   -0.7834   -0.9036 H   0  0  0  0  0  0  0  0  0  0  0  0
   -0.0082   -1.3014   -1.6203 H   0  0  0  0  0  0  0  0  0  0  0  0
    0.4857    0.7567   -2.0309 C   0  0  0  0  0  0  0  0  0  0  0  0
    0.7627    0.4200   -3.0330 H   0  0  0  0  0  0  0  0  0  0  0  0
   -0.5200    1.1810   -2.0991 H   0  0  0  0  0  0  0  0  0  0  0  0
    1.4648    1.8698   -1.6486 C   0  0  0  0  0  0  0  0  0  0  0  0
    2.2792    1.6858   -0.7581 O   0  0  0  0  0  0  0  0  0  0  0  0
    1.3867    3.0200   -2.3495 O   0  0  0  0  0  0  0  0  0  0  0  0
    2.0675    3.5964   -1.9714 H   0  0  0  0  0  0  0  0  0  0  0  0
   -0.4322    1.1703    0.7612 C   0  0  0  0  0  0  0  0  0  0  0  0
   -1.4187    1.8013    0.3941 O   0  0  0  0  0  0  0  0  0  0  0  0
    0.4122    1.7240    1.7046 N   0  0  0  0  0  0  0  0  0  0  0  0
    1.2988    1.2473    1.8511 H   0  0  0  0  0  0  0  0  0  0  0  0
    0.2881    3.1030    2.1596 C   0  0  0  0  0  0  0  0  0  0  0  0
   -0.7070    3.2805    2.5811 H   0  0  0  0  0  0  0  0  0  0  0  0
    1.0310    3.3136    2.9351 H   0  0  0  0  0  0  0  0  0  0  0  0
    0.4476    3.7960    1.3270 H   0  0  0  0  0  0  0  0  0  0  0  0
  1  2  1  0  0  0  0
  2  3  1  0  0  0  0
  2  4  1  0  0  0  0
  2  5  1  0  0  0  0
  5  6  2  0  0  0  0
  5  7  1  0  0  0  0
  7  8  1  0  0  0  0
  7  9  1  0  0  0  0
  9 10  1  0  0  0  0
  9 11  1  0  0  0  0
  9 21  1  0  0  0  0
 11 12  1  0  0  0  0
 11 13  1  0  0  0  0
 11 14  1  0  0  0  0
 14 15  1  0  0  0  0
 14 16  1  0  0  0  0
 14 17  1  0  0  0  0
 17 18  2  0  0  0  0
 17 19  1  0  0  0  0
 19 20  1  0  0  0  0
 21 22  2  0  0  0  0
 21 23  1  0  0  0  0
 23 24  1  0  0  0  0
 23 25  1  0  0  0  0
 25 26  1  0  0  0  0
 25 27  1  0  0  0  0
 25 28  1  0  0  0  0
M  END
$$$$

  -OEChem-03222214033D

 28 27  0     1  0  0  0  0  0999 V2000
   -3.1561   -3.8015    1.2594 H   0  0  0  0  0  0  0  0  0  0  0  0
   -3.1717   -2.8045    0.8099 C   0  0  0  0  0  0  0  0  0  0  0  0
   -3.7847   -2.1474    1.4317 H   0  0  0  0  0  0  0  0  0  0  0  0
   -3.6171   -2.8732   -0.1854 H   0  0  0  0  0  0  0  0  0  0  0  0
   -1.7613   -2.2554    0.7083 C   0  0  0  0  0  0  0  0  0  0  0  0
   -0.8109   -2.9482    1.0347 O   0  0  0  0  0  0  0  0  0  0  0  0
   -1.5572   -0.9753    0.2378 N   0  0  0  0  0  0  0  0  0  0  0  0
   -2.3844   -0.3979    0.0920 H   0  0  0  0  0  0  0  0  0  0  0  0
   -0.2659   -0.2714    0.2633 C   0  0  1  0  0  0  0  0  0  0  0  0
    0.3691   -0.7554    1.0134 H   0  0  0  0  0  0  0  0  0  0  0  0
    0.4529   -0.4408   -1.0993 C   0  0  0  0  0  0  0  0  0  0  0  0
    1.4887   -0.7477   -0.9180 H   0  0  0  0  0  0  0  0  0  0  0  0
   -0.0170   -1.2724   -1.6352 H   0  0  0  0  0  0  0  0  0  0  0  0
    0.4398    0.7988   -2.0268 C   0  0  0  0  0  0  0  0  0  0  0  0
    0.4952    0.4436   -3.0592 H   0  0  0  0  0  0  0  0  0  0  0  0
   -0.4987    1.3513   -1.9370 H   0  0  0  0  0  0  0  0  0  0  0  0
    1.6216    1.7521   -1.8328 C   0  0  0  0  0  0  0  0  0  0  0  0
    2.2994    1.6838   -0.8200 O   0  0  0  0  0  0  0  0  0  0  0  0
    1.8592    2.6417   -2.8194 O   0  0  0  0  0  0  0  0  0  0  0  0
    2.6269    3.1529   -2.5213 H   0  0  0  0  0  0  0  0  0  0  0  0
   -0.4430    1.1818    0.7607 C   0  0  0  0  0  0  0  0  0  0  0  0
   -1.4539    1.8056    0.4513 O   0  0  0  0  0  0  0  0  0  0  0  0
    0.4268    1.7218    1.6886 N   0  0  0  0  0  0  0  0  0  0  0  0
    1.3247    1.2536    1.7848 H   0  0  0  0  0  0  0  0  0  0  0  0
    0.3165    3.0959    2.1617 C   0  0  0  0  0  0  0  0  0  0  0  0
   -0.6669    3.2706    2.6108 H   0  0  0  0  0  0  0  0  0  0  0  0
    1.0797    3.2960    2.9198 H   0  0  0  0  0  0  0  0  0  0  0  0
    0.4560    3.7981    1.3331 H   0  0  0  0  0  0  0  0  0  0  0  0
  1  2  1  0  0  0  0
  2  3  1  0  0  0  0
  2  4  1  0  0  0  0
  2  5  1  0  0  0  0
  5  6  2  0  0  0  0
  5  7  1  0  0  0  0
  7  8  1  0  0  0  0
  7  9  1  0  0  0  0
  9 10  1  0  0  0  0
  9 11  1  0  0  0  0
  9 21  1  0  0  0  0
 11 12  1  0  0  0  0
 11 13  1  0  0  0  0
 11 14  1  0  0  0  0
 14 15  1  0  0  0  0
 14 16  1  0  0  0  0
 14 17  1  0  0  0  0
 17 18  2  0  0  0  0
 17 19  1  0  0  0  0
 19 20  1  0  0  0  0
 21 22  2  0  0  0  0
 21 23  1  0  0  0  0
 23 24  1  0  0  0  0
 23 25  1  0  0  0  0
 25 26  1  0  0  0  0
 25 27  1  0  0  0  0
 25 28  1  0  0  0  0
M  END
$$$$

  -OEChem-03222214033D

 28 27  0     1  0  0  0  0  0999 V2000
   -3.1017   -3.8371    1.2260 H   0  0  0  0  0  0  0  0  0  0  0  0
   -3.1429   -2.8290    0.8043 C   0  0  0  0  0  0  0  0  0  0  0  0
   -3.7489   -2.1981    1.4590 H   0  0  0  0  0  0  0  0  0  0  0  0
   -3.6127   -2.8780   -0.1809 H   0  0  0  0  0  0  0  0  0  0  0  0
   -1.7438   -2.2562    0.6821 C   0  0  0  0  0  0  0  0  0  0  0  0
   -0.7754   -2.9406    0.9717 O   0  0  0  0  0  0  0  0  0  0  0  0
   -1.5704   -0.9637    0.2334 N   0  0  0  0  0  0  0  0  0  0  0  0
   -2.4100   -0.3978    0.1174 H   0  0  0  0  0  0  0  0  0  0  0  0
   -0.2904   -0.2396    0.2451 C   0  0  1  0  0  0  0  0  0  0  0  0
    0.3555   -0.7286    0.9824 H   0  0  0  0  0  0  0  0  0  0  0  0
    0.4264   -0.3893   -1.1195 C   0  0  0  0  0  0  0  0  0  0  0  0
    1.4675   -0.6770   -0.9362 H   0  0  0  0  0  0  0  0  0  0  0  0
   -0.0260   -1.2307   -1.6555 H   0  0  0  0  0  0  0  0  0  0  0  0
    0.3901    0.8505   -2.0485 C   0  0  0  0  0  0  0  0  0  0  0  0
    0.1897    0.4990   -3.0644 H   0  0  0  0  0  0  0  0  0  0  0  0
   -0.4180    1.5414   -1.8018 H   0  0  0  0  0  0  0  0  0  0  0  0
    1.7198    1.6001   -2.0943 C   0  0  0  0  0  0  0  0  0  0  0  0
    2.3380    1.7650   -1.0554 O   0  0  0  0  0  0  0  0  0  0  0  0
    2.1510    2.0496   -3.2917 O   0  0  0  0  0  0  0  0  0  0  0  0
    2.9927    2.4939   -3.1081 H   0  0  0  0  0  0  0  0  0  0  0  0
   -0.4555    1.2039    0.7723 C   0  0  0  0  0  0  0  0  0  0  0  0
   -1.4823    1.8252    0.5156 O   0  0  0  0  0  0  0  0  0  0  0  0
    0.4397    1.7274    1.6857 N   0  0  0  0  0  0  0  0  0  0  0  0
    1.3321    1.2478    1.7725 H   0  0  0  0  0  0  0  0  0  0  0  0
    0.3341    3.0860    2.2027 C   0  0  0  0  0  0  0  0  0  0  0  0
   -0.6337    3.2369    2.6924 H   0  0  0  0  0  0  0  0  0  0  0  0
    1.1228    3.2730    2.9378 H   0  0  0  0  0  0  0  0  0  0  0  0
    0.4362    3.8132    1.3903 H   0  0  0  0  0  0  0  0  0  0  0  0
  1  2  1  0  0  0  0
  2  3  1  0  0  0  0
  2  4  1  0  0  0  0
  2  5  1  0  0  0  0
  5  6  2  0  0  0  0
  5  7  1  0  0  0  0
  7  8  1  0  0  0  0
  7  9  1  0  0  0  0
  9 10  1  0  0  0  0
  9 11  1  0  0  0  0
  9 21  1  0  0  0  0
 11 12  1  0  0  0  0
 11 13  1  0  0  0  0
 11 14  1  0  0  0  0
 14 15  1  0  0  0  0
 14 16  1  0  0  0  0
 14 17  1  0  0  0  0
 17 18  2  0  0  0  0
 17 19  1  0  0  0  0
 19 20  1  0  0  0  0
 21 22  2  0  0  0  0
 21 23  1  0  0  0  0
 23 24  1  0  0  0  0
 23 25  1  0  0  0  0
 25 26  1  0  0  0  0
 25 27  1  0  0  0  0
 25 28  1  0  0  0  0
M  END
$$$$

  -OEChem-03222214033D

 28 27  0     1  0  0  0  0  0999 V2000
   -3.0752   -3.8502    1.1619 H   0  0  0  0  0  0  0  0  0  0  0  0
   -3.1267   -2.8282    0.7759 C   0  0  0  0  0  0  0  0  0  0  0  0
   -3.7299   -2.2244    1.4583 H   0  0  0  0  0  0  0  0  0  0  0  0
   -3.6062   -2.8457   -0.2057 H   0  0  0  0  0  0  0  0  0  0  0  0
   -1.7321   -2.2428    0.6600 C   0  0  0  0  0  0  0  0  0  0  0  0
   -0.7584   -2.9234    0.9403 O   0  0  0  0  0  0  0  0  0  0  0  0
   -1.5680   -0.9422    0.2315 N   0  0  0  0  0  0  0  0  0  0  0  0
   -2.4116   -0.3824    0.1146 H   0  0  0  0  0  0  0  0  0  0  0  0
   -0.2922   -0.2112    0.2406 C   0  0  1  0  0  0  0  0  0  0  0  0
    0.3614   -0.7085    0.9658 H   0  0  0  0  0  0  0  0  0  0  0  0
    0.4105   -0.3497   -1.1336 C   0  0  0  0  0  0  0  0  0  0  0  0
    1.4551   -0.6161   -0.9389 H   0  0  0  0  0  0  0  0  0  0  0  0
   -0.0192   -1.2042   -1.6676 H   0  0  0  0  0  0  0  0  0  0  0  0
    0.3716    0.8848   -2.0743 C   0  0  0  0  0  0  0  0  0  0  0  0
   -0.1164    0.5890   -3.0070 H   0  0  0  0  0  0  0  0  0  0  0  0
   -0.2140    1.7137   -1.6768 H   0  0  0  0  0  0  0  0  0  0  0  0
    1.7659    1.3995   -2.4164 C   0  0  0  0  0  0  0  0  0  0  0  0
    2.5098    1.7061   -1.5002 O   0  0  0  0  0  0  0  0  0  0  0  0
    2.1153    1.4865   -3.7177 O   0  0  0  0  0  0  0  0  0  0  0  0
    3.0220    1.8295   -3.7139 H   0  0  0  0  0  0  0  0  0  0  0  0
   -0.4561    1.2222    0.7929 C   0  0  0  0  0  0  0  0  0  0  0  0
   -1.4810    1.8503    0.5472 O   0  0  0  0  0  0  0  0  0  0  0  0
    0.4478    1.7350    1.7042 N   0  0  0  0  0  0  0  0  0  0  0  0
    1.3155    1.2221    1.8361 H   0  0  0  0  0  0  0  0  0  0  0  0
    0.3367    3.0756    2.2661 C   0  0  0  0  0  0  0  0  0  0  0  0
   -0.6100    3.1886    2.8051 H   0  0  0  0  0  0  0  0  0  0  0  0
    1.1559    3.2609    2.9675 H   0  0  0  0  0  0  0  0  0  0  0  0
    0.3831    3.8284    1.4722 H   0  0  0  0  0  0  0  0  0  0  0  0
  1  2  1  0  0  0  0
  2  3  1  0  0  0  0
  2  4  1  0  0  0  0
  2  5  1  0  0  0  0
  5  6  2  0  0  0  0
  5  7  1  0  0  0  0
  7  8  1  0  0  0  0
  7  9  1  0  0  0  0
  9 10  1  0  0  0  0
  9 11  1  0  0  0  0
  9 21  1  0  0  0  0
 11 12  1  0  0  0  0
 11 13  1  0  0  0  0
 11 14  1  0  0  0  0
 14 15  1  0  0  0  0
 14 16  1  0  0  0  0
 14 17  1  0  0  0  0
 17 18  2  0  0  0  0
 17 19  1  0  0  0  0
 19 20  1  0  0  0  0
 21 22  2  0  0  0  0
 21 23  1  0  0  0  0
 23 24  1  0  0  0  0
 23 25  1  0  0  0  0
 25 26  1  0  0  0  0
 25 27  1  0  0  0  0
 25 28  1  0  0  0  0
M  END
$$$$

  -OEChem-03222214033D

 28 27  0     1  0  0  0  0  0999 V2000
   -3.0770   -3.8492    1.0635 H   0  0  0  0  0  0  0  0  0  0  0  0
   -3.1237   -2.8069    0.7356 C   0  0  0  0  0  0  0  0  0  0  0  0
   -3.7201   -2.2382    1.4533 H   0  0  0  0  0  0  0  0  0  0  0  0
   -3.6081   -2.7672   -0.2431 H   0  0  0  0  0  0  0  0  0  0  0  0
   -1.7259   -2.2238    0.6461 C   0  0  0  0  0  0  0  0  0  0  0  0
   -0.7581   -2.9063    0.9419 O   0  0  0  0  0  0  0  0  0  0  0  0
   -1.5521   -0.9214    0.2268 N   0  0  0  0  0  0  0  0  0  0  0  0
   -2.3920   -0.3604    0.0915 H   0  0  0  0  0  0  0  0  0  0  0  0
   -0.2721   -0.1976    0.2429 C   0  0  1  0  0  0  0  0  0  0  0  0
    0.3860   -0.7037    0.9574 H   0  0  0  0  0  0  0  0  0  0  0  0
    0.4067   -0.3275   -1.1457 C   0  0  0  0  0  0  0  0  0  0  0  0
    1.4549   -0.5765   -0.9465 H   0  0  0  0  0  0  0  0  0  0  0  0
   -0.0088   -1.1871   -1.6828 H   0  0  0  0  0  0  0  0  0  0  0  0
    0.3727    0.9106   -2.0820 C   0  0  0  0  0  0  0  0  0  0  0  0
   -0.3766    0.7483   -2.8614 H   0  0  0  0  0  0  0  0  0  0  0  0
    0.0934    1.8287   -1.5651 H   0  0  0  0  0  0  0  0  0  0  0  0
    1.7266    1.1733   -2.7310 C   0  0  0  0  0  0  0  0  0  0  0  0
    2.6556    1.5082   -2.0168 O   0  0  0  0  0  0  0  0  0  0  0  0
    1.8376    1.0089   -4.0664 O   0  0  0  0  0  0  0  0  0  0  0  0
    2.7619    1.2175   -4.2706 H   0  0  0  0  0  0  0  0  0  0  0  0
   -0.4409    1.2303    0.8059 C   0  0  0  0  0  0  0  0  0  0  0  0
   -1.4480    1.8740    0.5306 O   0  0  0  0  0  0  0  0  0  0  0  0
    0.4563    1.7392    1.7260 N   0  0  0  0  0  0  0  0  0  0  0  0
    1.2882    1.1904    1.9260 H   0  0  0  0  0  0  0  0  0  0  0  0
    0.3302    3.0666    2.3156 C   0  0  0  0  0  0  0  0  0  0  0  0
   -0.6111    3.1529    2.8686 H   0  0  0  0  0  0  0  0  0  0  0  0
    1.1558    3.2524    3.0094 H   0  0  0  0  0  0  0  0  0  0  0  0
    0.3533    3.8359    1.5365 H   0  0  0  0  0  0  0  0  0  0  0  0
  1  2  1  0  0  0  0
  2  3  1  0  0  0  0
  2  4  1  0  0  0  0
  2  5  1  0  0  0  0
  5  6  2  0  0  0  0
  5  7  1  0  0  0  0
  7  8  1  0  0  0  0
  7  9  1  0  0  0  0
  9 10  1  0  0  0  0
  9 11  1  0  0  0  0
  9 21  1  0  0  0  0
 11 12  1  0  0  0  0
 11 13  1  0  0  0  0
 11 14  1  0  0  0  0
 14 15  1  0  0  0  0
 14 16  1  0  0  0  0
 14 17  1  0  0  0  0
 17 18  2  0  0  0  0
 17 19  1  0  0  0  0
 19 20  1  0  0  0  0
 21 22  2  0  0  0  0
 21 23  1  0  0  0  0
 23 24  1  0  0  0  0
 23 25  1  0  0  0  0
 25 26  1  0  0  0  0
 25 27  1  0  0  0  0
 25 28  1  0  0  0  0
M  END
$$$$

  -OEChem-03222214033D

 28 27  0     1  0  0  0  0  0999 V2000
   -3.0707   -3.8344    1.2181 H   0  0  0  0  0  0  0  0  0  0  0  0
   -3.1116   -2.8141    0.8264 C   0  0  0  0  0  0  0  0  0  0  0  0
   -3.7479   -2.2114    1.4788 H   0  0  0  0  0  0  0  0  0  0  0  0
   -3.5477   -2.8392   -0.1751 H   0  0  0  0  0  0  0  0  0  0  0  0
   -1.7170   -2.2199    0.7691 C   0  0  0  0  0  0  0  0  0  0  0  0
   -0.7606   -2.8640    1.1690 O   0  0  0  0  0  0  0  0  0  0  0  0
   -1.5344   -0.9471    0.2703 N   0  0  0  0  0  0  0  0  0  0  0  0
   -2.3688   -0.4106    0.0379 H   0  0  0  0  0  0  0  0  0  0  0  0
   -0.2520   -0.2287    0.2435 C   0  0  1  0  0  0  0  0  0  0  0  0
    0.4168   -0.6950    0.9749 H   0  0  0  0  0  0  0  0  0  0  0  0
    0.3927   -0.4320   -1.1535 C   0  0  0  0  0  0  0  0  0  0  0  0
    1.4476   -0.6589   -0.9633 H   0  0  0  0  0  0  0  0  0  0  0  0
   -0.0273   -1.3181   -1.6423 H   0  0  0  0  0  0  0  0  0  0  0  0
    0.3440    0.7630   -2.1419 C   0  0  0  0  0  0  0  0  0  0  0  0
   -0.5903    0.7356   -2.7081 H   0  0  0  0  0  0  0  0  0  0  0  0
    0.3759    1.7169   -1.6137 H   0  0  0  0  0  0  0  0  0  0  0  0
    1.5264    0.7874   -3.1095 C   0  0  0  0  0  0  0  0  0  0  0  0
    1.9731   -0.2648   -3.5311 O   0  0  0  0  0  0  0  0  0  0  0  0
    2.0259    1.9922   -3.4579 O   0  0  0  0  0  0  0  0  0  0  0  0
    2.7478    1.7948   -4.0742 H   0  0  0  0  0  0  0  0  0  0  0  0
   -0.4282    1.2297    0.7178 C   0  0  0  0  0  0  0  0  0  0  0  0
   -1.4126    1.8699    0.3651 O   0  0  0  0  0  0  0  0  0  0  0  0
    0.4640    1.7950    1.6097 N   0  0  0  0  0  0  0  0  0  0  0  0
    1.2283    1.2148    1.9443 H   0  0  0  0  0  0  0  0  0  0  0  0
    0.2972    3.1320    2.1673 C   0  0  0  0  0  0  0  0  0  0  0  0
   -0.6211    3.1871    2.7614 H   0  0  0  0  0  0  0  0  0  0  0  0
    1.1437    3.3809    2.8146 H   0  0  0  0  0  0  0  0  0  0  0  0
    0.2445    3.8781    1.3674 H   0  0  0  0  0  0  0  0  0  0  0  0
  1  2  1  0  0  0  0
  2  3  1  0  0  0  0
  2  4  1  0  0  0  0
  2  5  1  0  0  0  0
  5  6  2  0  0  0  0
  5  7  1  0  0  0  0
  7  8  1  0  0  0  0
  7  9  1  0  0  0  0
  9 10  1  0  0  0  0
  9 11  1  0  0  0  0
  9 21  1  0  0  0  0
 11 12  1  0  0  0  0
 11 13  1  0  0  0  0
 11 14  1  0  0  0  0
 14 15  1  0  0  0  0
 14 16  1  0  0  0  0
 14 17  1  0  0  0  0
 17 18  2  0  0  0  0
 17 19  1  0  0  0  0
 19 20  1  0  0  0  0
 21 22  2  0  0  0  0
 21 23  1  0  0  0  0
 23 24  1  0  0  0  0
 23 25  1  0  0  0  0
 25 26  1  0  0  0  0
 25 27  1  0  0  0  0
 25 28  1  0  0  0  0
M  END
$$$$

  -OEChem-03222214033D

 28 27  0     1  0  0  0  0  0999 V2000
   -3.1338   -3.7966    1.2344 H   0  0  0  0  0  0  0  0  0  0  0  0
   -3.1490   -2.7877    0.8129 C   0  0  0  0  0  0  0  0  0  0  0  0
   -3.7801   -2.1536    1.4402 H   0  0  0  0  0  0  0  0  0  0  0  0
   -3.5739   -2.8326   -0.1926 H   0  0  0  0  0  0  0  0  0  0  0  0
   -1.7421   -2.2237    0.7555 C   0  0  0  0  0  0  0  0  0  0  0  0
   -0.8006   -2.8845    1.1634 O   0  0  0  0  0  0  0  0  0  0  0  0
   -1.5329   -0.9554    0.2555 N   0  0  0  0  0  0  0  0  0  0  0  0
   -2.3562   -0.4034    0.0195 H   0  0  0  0  0  0  0  0  0  0  0  0
   -0.2397   -0.2561    0.2500 C   0  0  1  0  0  0  0  0  0  0  0  0
    0.4147   -0.7321    0.9882 H   0  0  0  0  0  0  0  0  0  0  0  0
    0.4218   -0.4493   -1.1392 C   0  0  0  0  0  0  0  0  0  0  0  0
    1.4723   -0.6969   -0.9513 H   0  0  0  0  0  0  0  0  0  0  0  0
   -0.0161   -1.3145   -1.6493 H   0  0  0  0  0  0  0  0  0  0  0  0
    0.3882    0.7747   -2.0891 C   0  0  0  0  0  0  0  0  0  0  0  0
   -0.6298    0.9216   -2.4599 H   0  0  0  0  0  0  0  0  0  0  0  0
    0.6819    1.6811   -1.5555 H   0  0  0  0  0  0  0  0  0  0  0  0
    1.3429    0.6673   -3.2792 C   0  0  0  0  0  0  0  0  0  0  0  0
    1.9492   -0.3691   -3.4875 O   0  0  0  0  0  0  0  0  0  0  0  0
    1.4670    1.7604   -4.0606 O   0  0  0  0  0  0  0  0  0  0  0  0
    2.0957    1.5040   -4.7527 H   0  0  0  0  0  0  0  0  0  0  0  0
   -0.4082    1.2055    0.7168 C   0  0  0  0  0  0  0  0  0  0  0  0
   -1.3723    1.8597    0.3349 O   0  0  0  0  0  0  0  0  0  0  0  0
    0.4729    1.7629    1.6245 N   0  0  0  0  0  0  0  0  0  0  0  0
    1.2164    1.1709    1.9850 H   0  0  0  0  0  0  0  0  0  0  0  0
    0.3131    3.1058    2.1698 C   0  0  0  0  0  0  0  0  0  0  0  0
   -0.6112    3.1749    2.7531 H   0  0  0  0  0  0  0  0  0  0  0  0
    1.1551    3.3517    2.8241 H   0  0  0  0  0  0  0  0  0  0  0  0
    0.2765    3.8457    1.3631 H   0  0  0  0  0  0  0  0  0  0  0  0
  1  2  1  0  0  0  0
  2  3  1  0  0  0  0
  2  4  1  0  0  0  0
  2  5  1  0  0  0  0
  5  6  2  0  0  0  0
  5  7  1  0  0  0  0
  7  8  1  0  0  0  0
  7  9  1  0  0  0  0
  9 10  1  0  0  0  0
  9 11  1  0  0  0  0
  9 21  1  0  0  0  0
 11 12  1  0  0  0  0
 11 13  1  0  0  0  0
 11 14  1  0  0  0  0
 14 15  1  0  0  0  0
 14 16  1  0  0  0  0
 14 17  1  0  0  0  0
 17 18  2  0  0  0  0
 17 19  1  0  0  0  0
 19 20  1  0  0  0  0
 21 22  2  0  0  0  0
 21 23  1  0  0  0  0
 23 24  1  0  0  0  0
 23 25  1  0  0  0  0
 25 26  1  0  0  0  0
 25 27  1  0  0  0  0
 25 28  1  0  0  0  0
M  END
$$$$

  -OEChem-03222214033D

 28 27  0     1  0  0  0  0  0999 V2000
   -3.1520   -3.7734    1.2549 H   0  0  0  0  0  0  0  0  0  0  0  0
   -3.1530   -2.7819    0.7934 C   0  0  0  0  0  0  0  0  0  0  0  0
   -3.8083   -2.1253    1.3707 H   0  0  0  0  0  0  0  0  0  0  0  0
   -3.5389   -2.8676   -0.2253 H   0  0  0  0  0  0  0  0  0  0  0  0
   -1.7459   -2.2168    0.7669 C   0  0  0  0  0  0  0  0  0  0  0  0
   -0.8141   -2.8730    1.2039 O   0  0  0  0  0  0  0  0  0  0  0  0
   -1.5248   -0.9539    0.2595 N   0  0  0  0  0  0  0  0  0  0  0  0
   -2.3409   -0.4040   -0.0049 H   0  0  0  0  0  0  0  0  0  0  0  0
   -0.2252   -0.2668    0.2554 C   0  0  1  0  0  0  0  0  0  0  0  0
    0.4313   -0.7387    0.9942 H   0  0  0  0  0  0  0  0  0  0  0  0
    0.4338   -0.4539   -1.1370 C   0  0  0  0  0  0  0  0  0  0  0  0
    1.3747   -0.9967   -0.9942 H   0  0  0  0  0  0  0  0  0  0  0  0
   -0.2040   -1.0913   -1.7601 H   0  0  0  0  0  0  0  0  0  0  0  0
    0.7319    0.8490   -1.9159 C   0  0  0  0  0  0  0  0  0  0  0  0
   -0.1999    1.3976   -2.0809 H   0  0  0  0  0  0  0  0  0  0  0  0
    1.4026    1.4863   -1.3341 H   0  0  0  0  0  0  0  0  0  0  0  0
    1.3804    0.6215   -3.2818 C   0  0  0  0  0  0  0  0  0  0  0  0
    1.6783   -0.5048   -3.6391 O   0  0  0  0  0  0  0  0  0  0  0  0
    1.6045    1.7159   -4.0386 O   0  0  0  0  0  0  0  0  0  0  0  0
    2.0105    1.3793   -4.8521 H   0  0  0  0  0  0  0  0  0  0  0  0
   -0.3957    1.1985    0.7144 C   0  0  0  0  0  0  0  0  0  0  0  0
   -1.3533    1.8557    0.3218 O   0  0  0  0  0  0  0  0  0  0  0  0
    0.4808    1.7577    1.6258 N   0  0  0  0  0  0  0  0  0  0  0  0
    1.2161    1.1632    1.9983 H   0  0  0  0  0  0  0  0  0  0  0  0
    0.3169    3.1008    2.1695 C   0  0  0  0  0  0  0  0  0  0  0  0
   -0.6487    3.1933    2.6783 H   0  0  0  0  0  0  0  0  0  0  0  0
    1.1099    3.3165    2.8922 H   0  0  0  0  0  0  0  0  0  0  0  0
    0.3660    3.8466    1.3692 H   0  0  0  0  0  0  0  0  0  0  0  0
  1  2  1  0  0  0  0
  2  3  1  0  0  0  0
  2  4  1  0  0  0  0
  2  5  1  0  0  0  0
  5  6  2  0  0  0  0
  5  7  1  0  0  0  0
  7  8  1  0  0  0  0
  7  9  1  0  0  0  0
  9 10  1  0  0  0  0
  9 11  1  0  0  0  0
  9 21  1  0  0  0  0
 11 12  1  0  0  0  0
 11 13  1  0  0  0  0
 11 14  1  0  0  0  0
 14 15  1  0  0  0  0
 14 16  1  0  0  0  0
 14 17  1  0  0  0  0
 17 18  2  0  0  0  0
 17 19  1  0  0  0  0
 19 20  1  0  0  0  0
 21 22  2  0  0  0  0
 21 23  1  0  0  0  0
 23 24  1  0  0  0  0
 23 25  1  0  0  0  0
 25 26  1  0  0  0  0
 25 27  1  0  0  0  0
 25 28  1  0  0  0  0
M  END
$$$$

  -OEChem-03222214033D

 28 27  0     1  0  0  0  0  0999 V2000
   -3.1627   -3.7718    1.2186 H   0  0  0  0  0  0  0  0  0  0  0  0
   -3.1683   -2.7682    0.7841 C   0  0  0  0  0  0  0  0  0  0  0  0
   -3.8073   -2.1244    1.3932 H   0  0  0  0  0  0  0  0  0  0  0  0
   -3.5770   -2.8247   -0.2277 H   0  0  0  0  0  0  0  0  0  0  0  0
   -1.7588   -2.2094    0.7423 C   0  0  0  0  0  0  0  0  0  0  0  0
   -0.8244   -2.8740    1.1606 O   0  0  0  0  0  0  0  0  0  0  0  0
   -1.5384   -0.9413    0.2470 N   0  0  0  0  0  0  0  0  0  0  0  0
   -2.3561   -0.3845    0.0027 H   0  0  0  0  0  0  0  0  0  0  0  0
   -0.2385   -0.2538    0.2486 C   0  0  1  0  0  0  0  0  0  0  0  0
    0.4075   -0.7316    0.9927 H   0  0  0  0  0  0  0  0  0  0  0  0
    0.4455   -0.4432   -1.1325 C   0  0  0  0  0  0  0  0  0  0  0  0
    1.3800   -0.9962   -0.9883 H   0  0  0  0  0  0  0  0  0  0  0  0
   -0.1977   -1.0763   -1.7545 H   0  0  0  0  0  0  0  0  0  0  0  0
    0.7563    0.8534   -1.9194 C   0  0  0  0  0  0  0  0  0  0  0  0
   -0.1201    1.5068   -1.9114 H   0  0  0  0  0  0  0  0  0  0  0  0
    1.5846    1.3905   -1.4505 H   0  0  0  0  0  0  0  0  0  0  0  0
    1.0894    0.6150   -3.3925 C   0  0  0  0  0  0  0  0  0  0  0  0
    1.4299   -0.4936   -3.7668 O   0  0  0  0  0  0  0  0  0  0  0  0
    1.0080    1.6781   -4.2201 O   0  0  0  0  0  0  0  0  0  0  0  0
    1.2553    1.3358   -5.0927 H   0  0  0  0  0  0  0  0  0  0  0  0
   -0.3971    1.2085    0.7207 C   0  0  0  0  0  0  0  0  0  0  0  0
   -1.3642    1.8680    0.3564 O   0  0  0  0  0  0  0  0  0  0  0  0
    0.4867    1.7531    1.6340 N   0  0  0  0  0  0  0  0  0  0  0  0
    1.2207    1.1503    1.9958 H   0  0  0  0  0  0  0  0  0  0  0  0
    0.3304    3.0894    2.1967 C   0  0  0  0  0  0  0  0  0  0  0  0
   -0.5980    3.1561    2.7736 H   0  0  0  0  0  0  0  0  0  0  0  0
    1.1688    3.3210    2.8607 H   0  0  0  0  0  0  0  0  0  0  0  0
    0.3043    3.8408    1.4004 H   0  0  0  0  0  0  0  0  0  0  0  0
  1  2  1  0  0  0  0
  2  3  1  0  0  0  0
  2  4  1  0  0  0  0
  2  5  1  0  0  0  0
  5  6  2  0  0  0  0
  5  7  1  0  0  0  0
  7  8  1  0  0  0  0
  7  9  1  0  0  0  0
  9 10  1  0  0  0  0
  9 11  1  0  0  0  0
  9 21  1  0  0  0  0
 11 12  1  0  0  0  0
 11 13  1  0  0  0  0
 11 14  1  0  0  0  0
 14 15  1  0  0  0  0
 14 16  1  0  0  0  0
 14 17  1  0  0  0  0
 17 18  2  0  0  0  0
 17 19  1  0  0  0  0
 19 20  1  0  0  0  0
 21 22  2  0  0  0  0
 21 23  1  0  0  0  0
 23 24  1  0  0  0  0
 23 25  1  0  0  0  0
 25 26  1  0  0  0  0
 25 27  1  0  0  0  0
 25 28  1  0  0  0  0
M  END
$$$$

  -OEChem-03222214033D

 28 27  0     1  0  0  0  0  0999 V2000
   -3.1769   -3.7509    1.1745 H   0  0  0  0  0  0  0  0  0  0  0  0
   -3.1794   -2.7379    0.7625 C   0  0  0  0  0  0  0  0  0  0  0  0
   -3.8067   -2.1028    1.3927 H   0  0  0  0  0  0  0  0  0  0  0  0
   -3.5999   -2.7688   -0.2455 H   0  0  0  0  0  0  0  0  0  0  0  0
   -1.7663   -2.1885    0.7167 C   0  0  0  0  0  0  0  0  0  0  0  0
   -0.8326   -2.8641    1.1188 O   0  0  0  0  0  0  0  0  0  0  0  0
   -1.5428   -0.9148    0.2375 N   0  0  0  0  0  0  0  0  0  0  0  0
   -2.3595   -0.3499    0.0085 H   0  0  0  0  0  0  0  0  0  0  0  0
   -0.2409   -0.2313    0.2448 C   0  0  1  0  0  0  0  0  0  0  0  0
    0.3974   -0.7168    0.9908 H   0  0  0  0  0  0  0  0  0  0  0  0
    0.4569   -0.4260   -1.1307 C   0  0  0  0  0  0  0  0  0  0  0  0
    1.3842   -0.9891   -0.9807 H   0  0  0  0  0  0  0  0  0  0  0  0
   -0.1900   -1.0619   -1.7458 H   0  0  0  0  0  0  0  0  0  0  0  0
    0.7889    0.8546   -1.9407 C   0  0  0  0  0  0  0  0  0  0  0  0
    0.0379    1.6260   -1.7592 H   0  0  0  0  0  0  0  0  0  0  0  0
    1.7601    1.2537   -1.6378 H   0  0  0  0  0  0  0  0  0  0  0  0
    0.7768    0.6306   -3.4528 C   0  0  0  0  0  0  0  0  0  0  0  0
    1.1738   -0.4309   -3.9005 O   0  0  0  0  0  0  0  0  0  0  0  0
    0.3433    1.6438   -4.2328 O   0  0  0  0  0  0  0  0  0  0  0  0
    0.4183    1.3120   -5.1406 H   0  0  0  0  0  0  0  0  0  0  0  0
   -0.3936    1.2251    0.7360 C   0  0  0  0  0  0  0  0  0  0  0  0
   -1.3689    1.8859    0.3968 O   0  0  0  0  0  0  0  0  0  0  0  0
    0.4947    1.7544    1.6539 N   0  0  0  0  0  0  0  0  0  0  0  0
    1.2350    1.1480    1.9959 H   0  0  0  0  0  0  0  0  0  0  0  0
    0.3341    3.0754    2.2502 C   0  0  0  0  0  0  0  0  0  0  0  0
   -0.5793    3.1152    2.8530 H   0  0  0  0  0  0  0  0  0  0  0  0
    1.1869    3.3053    2.8962 H   0  0  0  0  0  0  0  0  0  0  0  0
    0.2754    3.8435    1.4718 H   0  0  0  0  0  0  0  0  0  0  0  0
  1  2  1  0  0  0  0
  2  3  1  0  0  0  0
  2  4  1  0  0  0  0
  2  5  1  0  0  0  0
  5  6  2  0  0  0  0
  5  7  1  0  0  0  0
  7  8  1  0  0  0  0
  7  9  1  0  0  0  0
  9 10  1  0  0  0  0
  9 11  1  0  0  0  0
  9 21  1  0  0  0  0
 11 12  1  0  0  0  0
 11 13  1  0  0  0  0
 11 14  1  0  0  0  0
 14 15  1  0  0  0  0
 14 16  1  0  0  0  0
 14 17  1  0  0  0  0
 17 18  2  0  0  0  0
 17 19  1  0  0  0  0
 19 20  1  0  0  0  0
 21 22  2  0  0  0  0
 21 23  1  0  0  0  0
 23 24  1  0  0  0  0
 23 25  1  0  0  0  0
 25 26  1  0  0  0  0
 25 27  1  0  0  0  0
 25 28  1  0  0  0  0
M  END
$$$$

  -OEChem-03222214033D

 28 27  0     1  0  0  0  0  0999 V2000
   -3.1985   -3.7353    1.0939 H   0  0  0  0  0  0  0  0  0  0  0  0
   -3.1957   -2.7078    0.7194 C   0  0  0  0  0  0  0  0  0  0  0  0
   -3.8232   -2.0939    1.3700 H   0  0  0  0  0  0  0  0  0  0  0  0
   -3.6124   -2.7007   -0.2906 H   0  0  0  0  0  0  0  0  0  0  0  0
   -1.7803   -2.1625    0.6988 C   0  0  0  0  0  0  0  0  0  0  0  0
   -0.8532   -2.8476    1.1001 O   0  0  0  0  0  0  0  0  0  0  0  0
   -1.5442   -0.8863    0.2325 N   0  0  0  0  0  0  0  0  0  0  0  0
   -2.3547   -0.3135    0.0003 H   0  0  0  0  0  0  0  0  0  0  0  0
   -0.2370   -0.2132    0.2511 C   0  0  1  0  0  0  0  0  0  0  0  0
    0.3932   -0.7083    0.9976 H   0  0  0  0  0  0  0  0  0  0  0  0
    0.4631   -0.4151   -1.1234 C   0  0  0  0  0  0  0  0  0  0  0  0
    1.3854   -0.9824   -0.9594 H   0  0  0  0  0  0  0  0  0  0  0  0
   -0.1789   -1.0611   -1.7336 H   0  0  0  0  0  0  0  0  0  0  0  0
    0.8222    0.8469   -1.9554 C   0  0  0  0  0  0  0  0  0  0  0  0
    0.2900    1.7319   -1.6057 H   0  0  0  0  0  0  0  0  0  0  0  0
    1.8918    1.0556   -1.8723 H   0  0  0  0  0  0  0  0  0  0  0  0
    0.4550    0.6919   -3.4292 C   0  0  0  0  0  0  0  0  0  0  0  0
    0.8940   -0.2662   -4.0402 O   0  0  0  0  0  0  0  0  0  0  0  0
   -0.3333    1.6310   -3.9938 O   0  0  0  0  0  0  0  0  0  0  0  0
   -0.4421    1.3486   -4.9144 H   0  0  0  0  0  0  0  0  0  0  0  0
   -0.3830    1.2389    0.7552 C   0  0  0  0  0  0  0  0  0  0  0  0
   -1.3492    1.9103    0.4117 O   0  0  0  0  0  0  0  0  0  0  0  0
    0.5034    1.7559    1.6818 N   0  0  0  0  0  0  0  0  0  0  0  0
    1.2379    1.1427    2.0242 H   0  0  0  0  0  0  0  0  0  0  0  0
    0.3539    3.0784    2.2780 C   0  0  0  0  0  0  0  0  0  0  0  0
   -0.5527    3.1219    2.8905 H   0  0  0  0  0  0  0  0  0  0  0  0
    1.2143    3.3071    2.9142 H   0  0  0  0  0  0  0  0  0  0  0  0
    0.2895    3.8460    1.4994 H   0  0  0  0  0  0  0  0  0  0  0  0
  1  2  1  0  0  0  0
  2  3  1  0  0  0  0
  2  4  1  0  0  0  0
  2  5  1  0  0  0  0
  5  6  2  0  0  0  0
  5  7  1  0  0  0  0
  7  8  1  0  0  0  0
  7  9  1  0  0  0  0
  9 10  1  0  0  0  0
  9 11  1  0  0  0  0
  9 21  1  0  0  0  0
 11 12  1  0  0  0  0
 11 13  1  0  0  0  0
 11 14  1  0  0  0  0
 14 15  1  0  0  0  0
 14 16  1  0  0  0  0
 14 17  1  0  0  0  0
 17 18  2  0  0  0  0
 17 19  1  0  0  0  0
 19 20  1  0  0  0  0
 21 22  2  0  0  0  0
 21 23  1  0  0  0  0
 23 24  1  0  0  0  0
 23 25  1  0  0  0  0
 25 26  1  0  0  0  0
 25 27  1  0  0  0  0
 25 28  1  0  0  0  0
M  END
$$$$

  -OEChem-03222214033D

 28 27  0     1  0  0  0  0  0999 V2000
   -3.0638   -3.8470    1.1094 H   0  0  0  0  0  0  0  0  0  0  0  0
   -3.1001   -2.8223    0.7294 C   0  0  0  0  0  0  0  0  0  0  0  0
   -3.7782   -2.2375    1.3556 H   0  0  0  0  0  0  0  0  0  0  0  0
   -3.4839   -2.8391   -0.2936 H   0  0  0  0  0  0  0  0  0  0  0  0
   -1.7142   -2.2061    0.7517 C   0  0  0  0  0  0  0  0  0  0  0  0
   -0.7621   -2.8497    1.1647 O   0  0  0  0  0  0  0  0  0  0  0  0
   -1.5322   -0.9155    0.3032 N   0  0  0  0  0  0  0  0  0  0  0  0
   -2.3555   -0.4019   -0.0095 H   0  0  0  0  0  0  0  0  0  0  0  0
   -0.2502   -0.1981    0.2837 C   0  0  1  0  0  0  0  0  0  0  0  0
    0.4319   -0.6872    0.9870 H   0  0  0  0  0  0  0  0  0  0  0  0
    0.3685   -0.3596   -1.1346 C   0  0  0  0  0  0  0  0  0  0  0  0
    1.3312   -0.8639   -1.0014 H   0  0  0  0  0  0  0  0  0  0  0  0
   -0.2427   -1.0578   -1.7173 H   0  0  0  0  0  0  0  0  0  0  0  0
    0.6425    0.9241   -1.9710 C   0  0  0  0  0  0  0  0  0  0  0  0
    0.4032    1.8452   -1.4412 H   0  0  0  0  0  0  0  0  0  0  0  0
    1.7114    0.9635   -2.1971 H   0  0  0  0  0  0  0  0  0  0  0  0
   -0.1150    0.9600   -3.2988 C   0  0  0  0  0  0  0  0  0  0  0  0
   -1.2621    0.5516   -3.3532 O   0  0  0  0  0  0  0  0  0  0  0  0
    0.5408    1.4571   -4.3690 O   0  0  0  0  0  0  0  0  0  0  0  0
   -0.0980    1.4062   -5.0967 H   0  0  0  0  0  0  0  0  0  0  0  0
   -0.4205    1.2398    0.8203 C   0  0  0  0  0  0  0  0  0  0  0  0
   -1.3906    1.9123    0.4922 O   0  0  0  0  0  0  0  0  0  0  0  0
    0.4891    1.7639    1.7208 N   0  0  0  0  0  0  0  0  0  0  0  0
    1.2352    1.1547    2.0441 H   0  0  0  0  0  0  0  0  0  0  0  0
    0.3450    3.0833    2.3245 C   0  0  0  0  0  0  0  0  0  0  0  0
   -0.5982    3.1517    2.8770 H   0  0  0  0  0  0  0  0  0  0  0  0
    1.1674    3.2730    3.0210 H   0  0  0  0  0  0  0  0  0  0  0  0
    0.3590    3.8610    1.5536 H   0  0  0  0  0  0  0  0  0  0  0  0
  1  2  1  0  0  0  0
  2  3  1  0  0  0  0
  2  4  1  0  0  0  0
  2  5  1  0  0  0  0
  5  6  2  0  0  0  0
  5  7  1  0  0  0  0
  7  8  1  0  0  0  0
  7  9  1  0  0  0  0
  9 10  1  0  0  0  0
  9 11  1  0  0  0  0
  9 21  1  0  0  0  0
 11 12  1  0  0  0  0
 11 13  1  0  0  0  0
 11 14  1  0  0  0  0
 14 15  1  0  0  0  0
 14 16  1  0  0  0  0
 14 17  1  0  0  0  0
 17 18  2  0  0  0  0
 17 19  1  0  0  0  0
 19 20  1  0  0  0  0
 21 22  2  0  0  0  0
 21 23  1  0  0  0  0
 23 24  1  0  0  0  0
 23 25  1  0  0  0  0
 25 26  1  0  0  0  0
 25 27  1  0  0  0  0
 25 28  1  0  0  0  0
M  END
$$$$

  -OEChem-03222214033D

 28 27  0     1  0  0  0  0  0999 V2000
   -3.1201   -3.8194    1.1706 H   0  0  0  0  0  0  0  0  0  0  0  0
   -3.1311   -2.8121    0.7450 C   0  0  0  0  0  0  0  0  0  0  0  0
   -3.8253   -2.1942    1.3197 H   0  0  0  0  0  0  0  0  0  0  0  0
   -3.4769   -2.8703   -0.2899 H   0  0  0  0  0  0  0  0  0  0  0  0
   -1.7403   -2.2083    0.7911 C   0  0  0  0  0  0  0  0  0  0  0  0
   -0.8081   -2.8486    1.2522 O   0  0  0  0  0  0  0  0  0  0  0  0
   -1.5315   -0.9318    0.3148 N   0  0  0  0  0  0  0  0  0  0  0  0
   -2.3358   -0.4256   -0.0545 H   0  0  0  0  0  0  0  0  0  0  0  0
   -0.2391   -0.2339    0.2992 C   0  0  1  0  0  0  0  0  0  0  0  0
    0.4349   -0.7187    1.0131 H   0  0  0  0  0  0  0  0  0  0  0  0
    0.3724   -0.4170   -1.1189 C   0  0  0  0  0  0  0  0  0  0  0  0
    1.3360   -0.9146   -0.9688 H   0  0  0  0  0  0  0  0  0  0  0  0
   -0.2267   -1.1236   -1.7037 H   0  0  0  0  0  0  0  0  0  0  0  0
    0.6612    0.8637   -1.9526 C   0  0  0  0  0  0  0  0  0  0  0  0
    0.7445    1.7642   -1.3437 H   0  0  0  0  0  0  0  0  0  0  0  0
    1.6349    0.7313   -2.4315 H   0  0  0  0  0  0  0  0  0  0  0  0
   -0.3359    1.1240   -3.0849 C   0  0  0  0  0  0  0  0  0  0  0  0
   -1.4060    0.5398   -3.1164 O   0  0  0  0  0  0  0  0  0  0  0  0
    0.0399    2.0189   -4.0230 O   0  0  0  0  0  0  0  0  0  0  0  0
   -0.7130    2.0701   -4.6315 H   0  0  0  0  0  0  0  0  0  0  0  0
   -0.4060    1.2176    0.7996 C   0  0  0  0  0  0  0  0  0  0  0  0
   -1.3437    1.9043    0.4122 O   0  0  0  0  0  0  0  0  0  0  0  0
    0.4923    1.7530    1.7047 N   0  0  0  0  0  0  0  0  0  0  0  0
    1.2104    1.1366    2.0748 H   0  0  0  0  0  0  0  0  0  0  0  0
    0.3614    3.0953    2.2588 C   0  0  0  0  0  0  0  0  0  0  0  0
   -0.5723    3.1879    2.8236 H   0  0  0  0  0  0  0  0  0  0  0  0
    1.1966    3.3102    2.9324 H   0  0  0  0  0  0  0  0  0  0  0  0
    0.3640    3.8422    1.4578 H   0  0  0  0  0  0  0  0  0  0  0  0
  1  2  1  0  0  0  0
  2  3  1  0  0  0  0
  2  4  1  0  0  0  0
  2  5  1  0  0  0  0
  5  6  2  0  0  0  0
  5  7  1  0  0  0  0
  7  8  1  0  0  0  0
  7  9  1  0  0  0  0
  9 10  1  0  0  0  0
  9 11  1  0  0  0  0
  9 21  1  0  0  0  0
 11 12  1  0  0  0  0
 11 13  1  0  0  0  0
 11 14  1  0  0  0  0
 14 15  1  0  0  0  0
 14 16  1  0  0  0  0
 14 17  1  0  0  0  0
 17 18  2  0  0  0  0
 17 19  1  0  0  0  0
 19 20  1  0  0  0  0
 21 22  2  0  0  0  0
 21 23  1  0  0  0  0
 23 24  1  0  0  0  0
 23 25  1  0  0  0  0
 25 26  1  0  0  0  0
 25 27  1  0  0  0  0
 25 28  1  0  0  0  0
M  END
$$$$

  -OEChem-03222214033D

 28 27  0     1  0  0  0  0  0999 V2000
   -3.1443   -3.8062    1.1885 H   0  0  0  0  0  0  0  0  0  0  0  0
   -3.1436   -2.8072    0.7439 C   0  0  0  0  0  0  0  0  0  0  0  0
   -3.8524   -2.1782    1.2879 H   0  0  0  0  0  0  0  0  0  0  0  0
   -3.4616   -2.8848   -0.2988 H   0  0  0  0  0  0  0  0  0  0  0  0
   -1.7544   -2.2030    0.8169 C   0  0  0  0  0  0  0  0  0  0  0  0
   -0.8355   -2.8348    1.3151 O   0  0  0  0  0  0  0  0  0  0  0  0
   -1.5315   -0.9381    0.3172 N   0  0  0  0  0  0  0  0  0  0  0  0
   -2.3223   -0.4444   -0.0961 H   0  0  0  0  0  0  0  0  0  0  0  0
   -0.2344   -0.2499    0.3025 C   0  0  1  0  0  0  0  0  0  0  0  0
    0.4324   -0.7269    1.0284 H   0  0  0  0  0  0  0  0  0  0  0  0
    0.3804   -0.4585   -1.1091 C   0  0  0  0  0  0  0  0  0  0  0  0
    1.3407   -0.9607   -0.9539 H   0  0  0  0  0  0  0  0  0  0  0  0
   -0.2249   -1.1584   -1.6964 H   0  0  0  0  0  0  0  0  0  0  0  0
    0.6725    0.8198   -1.9365 C   0  0  0  0  0  0  0  0  0  0  0  0
    1.0086    1.6484   -1.3104 H   0  0  0  0  0  0  0  0  0  0  0  0
    1.4969    0.5949   -2.6176 H   0  0  0  0  0  0  0  0  0  0  0  0
   -0.4903    1.2843   -2.8189 C   0  0  0  0  0  0  0  0  0  0  0  0
   -1.5028    0.6107   -2.9178 O   0  0  0  0  0  0  0  0  0  0  0  0
   -0.3155    2.4498   -3.4765 O   0  0  0  0  0  0  0  0  0  0  0  0
   -1.1523    2.5978   -3.9426 H   0  0  0  0  0  0  0  0  0  0  0  0
   -0.3922    1.2145    0.7711 C   0  0  0  0  0  0  0  0  0  0  0  0
   -1.3155    1.9050    0.3569 O   0  0  0  0  0  0  0  0  0  0  0  0
    0.5014    1.7602    1.6746 N   0  0  0  0  0  0  0  0  0  0  0  0
    1.2053    1.1432    2.0700 H   0  0  0  0  0  0  0  0  0  0  0  0
    0.3758    3.1143    2.2012 C   0  0  0  0  0  0  0  0  0  0  0  0
   -0.5729    3.2316    2.7355 H   0  0  0  0  0  0  0  0  0  0  0  0
    1.1933    3.3278    2.8966 H   0  0  0  0  0  0  0  0  0  0  0  0
    0.4145    3.8471    1.3883 H   0  0  0  0  0  0  0  0  0  0  0  0
  1  2  1  0  0  0  0
  2  3  1  0  0  0  0
  2  4  1  0  0  0  0
  2  5  1  0  0  0  0
  5  6  2  0  0  0  0
  5  7  1  0  0  0  0
  7  8  1  0  0  0  0
  7  9  1  0  0  0  0
  9 10  1  0  0  0  0
  9 11  1  0  0  0  0
  9 21  1  0  0  0  0
 11 12  1  0  0  0  0
 11 13  1  0  0  0  0
 11 14  1  0  0  0  0
 14 15  1  0  0  0  0
 14 16  1  0  0  0  0
 14 17  1  0  0  0  0
 17 18  2  0  0  0  0
 17 19  1  0  0  0  0
 19 20  1  0  0  0  0
 21 22  2  0  0  0  0
 21 23  1  0  0  0  0
 23 24  1  0  0  0  0
 23 25  1  0  0  0  0
 25 26  1  0  0  0  0
 25 27  1  0  0  0  0
 25 28  1  0  0  0  0
M  END
$$$$

  -OEChem-03222214033D

 28 27  0     1  0  0  0  0  0999 V2000
   -3.1511   -3.7950    1.2046 H   0  0  0  0  0  0  0  0  0  0  0  0
   -3.1541   -2.7967    0.7584 C   0  0  0  0  0  0  0  0  0  0  0  0
   -3.8568   -2.1665    1.3087 H   0  0  0  0  0  0  0  0  0  0  0  0
   -3.4831   -2.8757   -0.2806 H   0  0  0  0  0  0  0  0  0  0  0  0
   -1.7637   -2.1936    0.8154 C   0  0  0  0  0  0  0  0  0  0  0  0
   -0.8400   -2.8252    1.3049 O   0  0  0  0  0  0  0  0  0  0  0  0
   -1.5449   -0.9304    0.3098 N   0  0  0  0  0  0  0  0  0  0  0  0
   -2.3410   -0.4351   -0.0912 H   0  0  0  0  0  0  0  0  0  0  0  0
   -0.2506   -0.2372    0.2893 C   0  0  1  0  0  0  0  0  0  0  0  0
    0.4059   -0.7073    1.0289 H   0  0  0  0  0  0  0  0  0  0  0  0
    0.3955   -0.4695   -1.1041 C   0  0  0  0  0  0  0  0  0  0  0  0
    1.3503   -0.9769   -0.9336 H   0  0  0  0  0  0  0  0  0  0  0  0
   -0.2140   -1.1636   -1.6941 H   0  0  0  0  0  0  0  0  0  0  0  0
    0.6900    0.7941   -1.9455 C   0  0  0  0  0  0  0  0  0  0  0  0
    1.2122    1.5442   -1.3463 H   0  0  0  0  0  0  0  0  0  0  0  0
    1.3570    0.5191   -2.7664 H   0  0  0  0  0  0  0  0  0  0  0  0
   -0.5537    1.4279   -2.5743 C   0  0  0  0  0  0  0  0  0  0  0  0
   -1.5467    0.7481   -2.7773 O   0  0  0  0  0  0  0  0  0  0  0  0
   -0.4737    2.7352   -2.8997 O   0  0  0  0  0  0  0  0  0  0  0  0
   -1.3606    2.9644   -3.2166 H   0  0  0  0  0  0  0  0  0  0  0  0
   -0.3922    1.2326    0.7488 C   0  0  0  0  0  0  0  0  0  0  0  0
   -1.3447    1.9121    0.3860 O   0  0  0  0  0  0  0  0  0  0  0  0
    0.5135    1.7745    1.6426 N   0  0  0  0  0  0  0  0  0  0  0  0
    1.2346    1.1610    2.0112 H   0  0  0  0  0  0  0  0  0  0  0  0
    0.3849    3.1196    2.1914 C   0  0  0  0  0  0  0  0  0  0  0  0
   -0.5480    3.2155    2.7572 H   0  0  0  0  0  0  0  0  0  0  0  0
    1.2209    3.3365    2.8633 H   0  0  0  0  0  0  0  0  0  0  0  0
    0.3871    3.8633    1.3873 H   0  0  0  0  0  0  0  0  0  0  0  0
  1  2  1  0  0  0  0
  2  3  1  0  0  0  0
  2  4  1  0  0  0  0
  2  5  1  0  0  0  0
  5  6  2  0  0  0  0
  5  7  1  0  0  0  0
  7  8  1  0  0  0  0
  7  9  1  0  0  0  0
  9 10  1  0  0  0  0
  9 11  1  0  0  0  0
  9 21  1  0  0  0  0
 11 12  1  0  0  0  0
 11 13  1  0  0  0  0
 11 14  1  0  0  0  0
 14 15  1  0  0  0  0
 14 16  1  0  0  0  0
 14 17  1  0  0  0  0
 17 18  2  0  0  0  0
 17 19  1  0  0  0  0
 19 20  1  0  0  0  0
 21 22  2  0  0  0  0
 21 23  1  0  0  0  0
 23 24  1  0  0  0  0
 23 25  1  0  0  0  0
 25 26  1  0  0  0  0
 25 27  1  0  0  0  0
 25 28  1  0  0  0  0
M  END
$$$$

  -OEChem-03222214033D

 28 27  0     1  0  0  0  0  0999 V2000
   -3.1321   -3.7926    1.2357 H   0  0  0  0  0  0  0  0  0  0  0  0
   -3.1536   -2.7907    0.7979 C   0  0  0  0  0  0  0  0  0  0  0  0
   -3.8299   -2.1641    1.3843 H   0  0  0  0  0  0  0  0  0  0  0  0
   -3.5287   -2.8609   -0.2260 H   0  0  0  0  0  0  0  0  0  0  0  0
   -1.7612   -2.1895    0.7975 C   0  0  0  0  0  0  0  0  0  0  0  0
   -0.8153   -2.8317    1.2271 O   0  0  0  0  0  0  0  0  0  0  0  0
   -1.5657   -0.9167    0.3059 N   0  0  0  0  0  0  0  0  0  0  0  0
   -2.3830   -0.4069   -0.0290 H   0  0  0  0  0  0  0  0  0  0  0  0
   -0.2808   -0.2065    0.2726 C   0  0  1  0  0  0  0  0  0  0  0  0
    0.3688   -0.6725    1.0210 H   0  0  0  0  0  0  0  0  0  0  0  0
    0.4037   -0.4554   -1.1005 C   0  0  0  0  0  0  0  0  0  0  0  0
    1.3538   -0.9649   -0.9099 H   0  0  0  0  0  0  0  0  0  0  0  0
   -0.2069   -1.1525   -1.6857 H   0  0  0  0  0  0  0  0  0  0  0  0
    0.7019    0.7775   -1.9829 C   0  0  0  0  0  0  0  0  0  0  0  0
    1.3916    1.4430   -1.4566 H   0  0  0  0  0  0  0  0  0  0  0  0
    1.1973    0.4517   -2.9010 H   0  0  0  0  0  0  0  0  0  0  0  0
   -0.5368    1.5804   -2.3790 C   0  0  0  0  0  0  0  0  0  0  0  0
   -1.5633    0.9843   -2.6597 O   0  0  0  0  0  0  0  0  0  0  0  0
   -0.4245    2.9248   -2.4113 O   0  0  0  0  0  0  0  0  0  0  0  0
   -1.3245    3.2414   -2.5844 H   0  0  0  0  0  0  0  0  0  0  0  0
   -0.4098    1.2588    0.7509 C   0  0  0  0  0  0  0  0  0  0  0  0
   -1.4102    1.9160    0.4894 O   0  0  0  0  0  0  0  0  0  0  0  0
    0.5188    1.7865    1.6298 N   0  0  0  0  0  0  0  0  0  0  0  0
    1.2760    1.1814    1.9341 H   0  0  0  0  0  0  0  0  0  0  0  0
    0.3872    3.1081    2.2321 C   0  0  0  0  0  0  0  0  0  0  0  0
   -0.5176    3.1614    2.8467 H   0  0  0  0  0  0  0  0  0  0  0  0
    1.2510    3.3219    2.8689 H   0  0  0  0  0  0  0  0  0  0  0  0
    0.3317    3.8790    1.4561 H   0  0  0  0  0  0  0  0  0  0  0  0
  1  2  1  0  0  0  0
  2  3  1  0  0  0  0
  2  4  1  0  0  0  0
  2  5  1  0  0  0  0
  5  6  2  0  0  0  0
  5  7  1  0  0  0  0
  7  8  1  0  0  0  0
  7  9  1  0  0  0  0
  9 10  1  0  0  0  0
  9 11  1  0  0  0  0
  9 21  1  0  0  0  0
 11 12  1  0  0  0  0
 11 13  1  0  0  0  0
 11 14  1  0  0  0  0
 14 15  1  0  0  0  0
 14 16  1  0  0  0  0
 14 17  1  0  0  0  0
 17 18  2  0  0  0  0
 17 19  1  0  0  0  0
 19 20  1  0  0  0  0
 21 22  2  0  0  0  0
 21 23  1  0  0  0  0
 23 24  1  0  0  0  0
 23 25  1  0  0  0  0
 25 26  1  0  0  0  0
 25 27  1  0  0  0  0
 25 28  1  0  0  0  0
M  END
$$$$

  -OEChem-03222214033D

 28 27  0     1  0  0  0  0  0999 V2000
   -3.0779   -3.8117    1.2898 H   0  0  0  0  0  0  0  0  0  0  0  0
   -3.1301   -2.8021    0.8729 C   0  0  0  0  0  0  0  0  0  0  0  0
   -3.7670   -2.1885    1.5146 H   0  0  0  0  0  0  0  0  0  0  0  0
   -3.5724   -2.8548   -0.1248 H   0  0  0  0  0  0  0  0  0  0  0  0
   -1.7416   -2.1970    0.7916 C   0  0  0  0  0  0  0  0  0  0  0  0
   -0.7684   -2.8462    1.1423 O   0  0  0  0  0  0  0  0  0  0  0  0
   -1.5808   -0.9109    0.3217 N   0  0  0  0  0  0  0  0  0  0  0  0
   -2.4217   -0.3876    0.0789 H   0  0  0  0  0  0  0  0  0  0  0  0
   -0.3076   -0.1800    0.2654 C   0  0  1  0  0  0  0  0  0  0  0  0
    0.3493   -0.6442    1.0084 H   0  0  0  0  0  0  0  0  0  0  0  0
    0.3912   -0.4327   -1.1032 C   0  0  0  0  0  0  0  0  0  0  0  0
    1.3380   -0.9464   -0.9074 H   0  0  0  0  0  0  0  0  0  0  0  0
   -0.2270   -1.1361   -1.6720 H   0  0  0  0  0  0  0  0  0  0  0  0
    0.6900    0.7611   -2.0419 C   0  0  0  0  0  0  0  0  0  0  0  0
    1.5459    1.3119   -1.6424 H   0  0  0  0  0  0  0  0  0  0  0  0
    0.9755    0.3850   -3.0279 H   0  0  0  0  0  0  0  0  0  0  0  0
   -0.4524    1.7555   -2.2209 C   0  0  0  0  0  0  0  0  0  0  0  0
   -1.5362    1.3283   -2.5785 O   0  0  0  0  0  0  0  0  0  0  0  0
   -0.2069    3.0600   -1.9754 O   0  0  0  0  0  0  0  0  0  0  0  0
   -1.0778    3.4844   -2.0293 H   0  0  0  0  0  0  0  0  0  0  0  0
   -0.4374    1.2737    0.7776 C   0  0  0  0  0  0  0  0  0  0  0  0
   -1.4754    1.9028    0.6062 O   0  0  0  0  0  0  0  0  0  0  0  0
    0.5133    1.7939    1.6373 N   0  0  0  0  0  0  0  0  0  0  0  0
    1.3142    1.2117    1.8641 H   0  0  0  0  0  0  0  0  0  0  0  0
    0.3868    3.0989    2.2757 C   0  0  0  0  0  0  0  0  0  0  0  0
   -0.4913    3.1226    2.9295 H   0  0  0  0  0  0  0  0  0  0  0  0
    1.2738    3.3126    2.8797 H   0  0  0  0  0  0  0  0  0  0  0  0
    0.2856    3.8860    1.5209 H   0  0  0  0  0  0  0  0  0  0  0  0
  1  2  1  0  0  0  0
  2  3  1  0  0  0  0
  2  4  1  0  0  0  0
  2  5  1  0  0  0  0
  5  6  2  0  0  0  0
  5  7  1  0  0  0  0
  7  8  1  0  0  0  0
  7  9  1  0  0  0  0
  9 10  1  0  0  0  0
  9 11  1  0  0  0  0
  9 21  1  0  0  0  0
 11 12  1  0  0  0  0
 11 13  1  0  0  0  0
 11 14  1  0  0  0  0
 14 15  1  0  0  0  0
 14 16  1  0  0  0  0
 14 17  1  0  0  0  0
 17 18  2  0  0  0  0
 17 19  1  0  0  0  0
 19 20  1  0  0  0  0
 21 22  2  0  0  0  0
 21 23  1  0  0  0  0
 23 24  1  0  0  0  0
 23 25  1  0  0  0  0
 25 26  1  0  0  0  0
 25 27  1  0  0  0  0
 25 28  1  0  0  0  0
M  END
$$$$

  -OEChem-03222214033D

 28 27  0     1  0  0  0  0  0999 V2000
   -2.9895   -3.8420    1.3964 H   0  0  0  0  0  0  0  0  0  0  0  0
   -3.0747   -2.8300    0.9909 C   0  0  0  0  0  0  0  0  0  0  0  0
   -3.6942   -2.2318    1.6635 H   0  0  0  0  0  0  0  0  0  0  0  0
   -3.5574   -2.8820    0.0120 H   0  0  0  0  0  0  0  0  0  0  0  0
   -1.7002   -2.2021    0.8572 C   0  0  0  0  0  0  0  0  0  0  0  0
   -0.7036   -2.8339    1.1717 O   0  0  0  0  0  0  0  0  0  0  0  0
   -1.5783   -0.9160    0.3756 N   0  0  0  0  0  0  0  0  0  0  0  0
   -2.4378   -0.4005    0.1874 H   0  0  0  0  0  0  0  0  0  0  0  0
   -0.3229   -0.1561    0.2956 C   0  0  1  0  0  0  0  0  0  0  0  0
    0.3443   -0.5921    1.0468 H   0  0  0  0  0  0  0  0  0  0  0  0
    0.3883   -0.4346   -1.0649 C   0  0  0  0  0  0  0  0  0  0  0  0
    1.3368   -0.9370   -0.8475 H   0  0  0  0  0  0  0  0  0  0  0  0
   -0.2241   -1.1673   -1.6017 H   0  0  0  0  0  0  0  0  0  0  0  0
    0.6871    0.6974   -2.0834 C   0  0  0  0  0  0  0  0  0  0  0  0
    1.6761    1.1038   -1.8550 H   0  0  0  0  0  0  0  0  0  0  0  0
    0.7411    0.2699   -3.0884 H   0  0  0  0  0  0  0  0  0  0  0  0
   -0.2729    1.8788   -2.1194 C   0  0  0  0  0  0  0  0  0  0  0  0
   -1.3855    1.6915   -2.5772 O   0  0  0  0  0  0  0  0  0  0  0  0
    0.1550    3.0734   -1.6582 O   0  0  0  0  0  0  0  0  0  0  0  0
   -0.6368    3.6347   -1.6781 H   0  0  0  0  0  0  0  0  0  0  0  0
   -0.4846    1.2959    0.8000 C   0  0  0  0  0  0  0  0  0  0  0  0
   -1.5447    1.8913    0.6428 O   0  0  0  0  0  0  0  0  0  0  0  0
    0.4628    1.8473    1.6436 N   0  0  0  0  0  0  0  0  0  0  0  0
    1.3007    1.3050    1.8323 H   0  0  0  0  0  0  0  0  0  0  0  0
    0.3205    3.1617    2.2583 C   0  0  0  0  0  0  0  0  0  0  0  0
   -0.5640    3.1900    2.9035 H   0  0  0  0  0  0  0  0  0  0  0  0
    1.1997    3.3917    2.8676 H   0  0  0  0  0  0  0  0  0  0  0  0
    0.2213    3.9349    1.4891 H   0  0  0  0  0  0  0  0  0  0  0  0
  1  2  1  0  0  0  0
  2  3  1  0  0  0  0
  2  4  1  0  0  0  0
  2  5  1  0  0  0  0
  5  6  2  0  0  0  0
  5  7  1  0  0  0  0
  7  8  1  0  0  0  0
  7  9  1  0  0  0  0
  9 10  1  0  0  0  0
  9 11  1  0  0  0  0
  9 21  1  0  0  0  0
 11 12  1  0  0  0  0
 11 13  1  0  0  0  0
 11 14  1  0  0  0  0
 14 15  1  0  0  0  0
 14 16  1  0  0  0  0
 14 17  1  0  0  0  0
 17 18  2  0  0  0  0
 17 19  1  0  0  0  0
 19 20  1  0  0  0  0
 21 22  2  0  0  0  0
 21 23  1  0  0  0  0
 23 24  1  0  0  0  0
 23 25  1  0  0  0  0
 25 26  1  0  0  0  0
 25 27  1  0  0  0  0
 25 28  1  0  0  0  0
M  END
$$$$

  -OEChem-03222214033D

 28 27  0     1  0  0  0  0  0999 V2000
   -3.2604   -3.7648    1.0650 H   0  0  0  0  0  0  0  0  0  0  0  0
   -3.2596   -2.7503    0.6566 C   0  0  0  0  0  0  0  0  0  0  0  0
   -3.9309   -2.1291    1.2545 H   0  0  0  0  0  0  0  0  0  0  0  0
   -3.6255   -2.7839   -0.3724 H   0  0  0  0  0  0  0  0  0  0  0  0
   -1.8571   -2.1737    0.6874 C   0  0  0  0  0  0  0  0  0  0  0  0
   -0.9256   -2.8442    1.1046 O   0  0  0  0  0  0  0  0  0  0  0  0
   -1.6366   -0.8885    0.2395 N   0  0  0  0  0  0  0  0  0  0  0  0
   -2.4541   -0.3347   -0.0160 H   0  0  0  0  0  0  0  0  0  0  0  0
   -0.3604   -0.1657    0.3419 C   0  0  1  0  0  0  0  0  0  0  0  0
    0.1895   -0.6231    1.1714 H   0  0  0  0  0  0  0  0  0  0  0  0
    0.5102   -0.4598   -0.9215 C   0  0  0  0  0  0  0  0  0  0  0  0
    1.4010   -0.9948   -0.5756 H   0  0  0  0  0  0  0  0  0  0  0  0
   -0.0470   -1.1803   -1.5302 H   0  0  0  0  0  0  0  0  0  0  0  0
    0.9999    0.6364   -1.9118 C   0  0  0  0  0  0  0  0  0  0  0  0
    2.0668    0.7930   -1.7319 H   0  0  0  0  0  0  0  0  0  0  0  0
    0.9075    0.2490   -2.9306 H   0  0  0  0  0  0  0  0  0  0  0  0
    0.3596    2.0175   -1.8841 C   0  0  0  0  0  0  0  0  0  0  0  0
   -0.6307    2.1974   -2.5679 O   0  0  0  0  0  0  0  0  0  0  0  0
    0.9438    2.9878   -1.1491 O   0  0  0  0  0  0  0  0  0  0  0  0
    0.3430    3.7453   -1.2374 H   0  0  0  0  0  0  0  0  0  0  0  0
   -0.5733    1.2823    0.8352 C   0  0  0  0  0  0  0  0  0  0  0  0
   -1.5869    1.8964    0.5230 O   0  0  0  0  0  0  0  0  0  0  0  0
    0.2484    1.8134    1.8131 N   0  0  0  0  0  0  0  0  0  0  0  0
    1.0644    1.2744    2.0876 H   0  0  0  0  0  0  0  0  0  0  0  0
    0.0406    3.1285    2.4071 C   0  0  0  0  0  0  0  0  0  0  0  0
   -0.9489    3.1876    2.8728 H   0  0  0  0  0  0  0  0  0  0  0  0
    0.7950    3.3198    3.1762 H   0  0  0  0  0  0  0  0  0  0  0  0
    0.1185    3.9097    1.6438 H   0  0  0  0  0  0  0  0  0  0  0  0
  1  2  1  0  0  0  0
  2  3  1  0  0  0  0
  2  4  1  0  0  0  0
  2  5  1  0  0  0  0
  5  6  2  0  0  0  0
  5  7  1  0  0  0  0
  7  8  1  0  0  0  0
  7  9  1  0  0  0  0
  9 10  1  0  0  0  0
  9 11  1  0  0  0  0
  9 21  1  0  0  0  0
 11 12  1  0  0  0  0
 11 13  1  0  0  0  0
 11 14  1  0  0  0  0
 14 15  1  0  0  0  0
 14 16  1  0  0  0  0
 14 17  1  0  0  0  0
 17 18  2  0  0  0  0
 17 19  1  0  0  0  0
 19 20  1  0  0  0  0
 21 22  2  0  0  0  0
 21 23  1  0  0  0  0
 23 24  1  0  0  0  0
 23 25  1  0  0  0  0
 25 26  1  0  0  0  0
 25 27  1  0  0  0  0
 25 28  1  0  0  0  0
M  END
$$$$

  -OEChem-03222214033D

 28 27  0     1  0  0  0  0  0999 V2000
   -3.2078   -3.8038    0.8184 H   0  0  0  0  0  0  0  0  0  0  0  0
   -3.2012   -2.7629    0.4826 C   0  0  0  0  0  0  0  0  0  0  0  0
   -3.8487   -2.1771    1.1396 H   0  0  0  0  0  0  0  0  0  0  0  0
   -3.5919   -2.7184   -0.5369 H   0  0  0  0  0  0  0  0  0  0  0  0
   -1.7890   -2.2105    0.5199 C   0  0  0  0  0  0  0  0  0  0  0  0
   -0.8577   -2.9296    0.8455 O   0  0  0  0  0  0  0  0  0  0  0  0
   -1.5576   -0.8944    0.1804 N   0  0  0  0  0  0  0  0  0  0  0  0
   -2.3735   -0.3021    0.0265 H   0  0  0  0  0  0  0  0  0  0  0  0
   -0.2704   -0.2016    0.3459 C   0  0  1  0  0  0  0  0  0  0  0  0
    0.2984   -0.7319    1.1178 H   0  0  0  0  0  0  0  0  0  0  0  0
    0.5522   -0.3621   -0.9761 C   0  0  0  0  0  0  0  0  0  0  0  0
    1.4506   -0.9232   -0.6975 H   0  0  0  0  0  0  0  0  0  0  0  0
   -0.0113   -1.0270   -1.6399 H   0  0  0  0  0  0  0  0  0  0  0  0
    1.0437    0.8218   -1.8634 C   0  0  0  0  0  0  0  0  0  0  0  0
    2.1305    0.7466   -1.9619 H   0  0  0  0  0  0  0  0  0  0  0  0
    0.6303    0.6814   -2.8660 H   0  0  0  0  0  0  0  0  0  0  0  0
    0.7307    2.2557   -1.4643 C   0  0  0  0  0  0  0  0  0  0  0  0
    1.4911    2.8183   -0.6952 O   0  0  0  0  0  0  0  0  0  0  0  0
   -0.3665    2.8364   -1.9934 O   0  0  0  0  0  0  0  0  0  0  0  0
   -0.4574    3.6832   -1.5306 H   0  0  0  0  0  0  0  0  0  0  0  0
   -0.5194    1.1937    0.9623 C   0  0  0  0  0  0  0  0  0  0  0  0
   -1.5338    1.8183    0.6663 O   0  0  0  0  0  0  0  0  0  0  0  0
    0.2739    1.6563    1.9961 N   0  0  0  0  0  0  0  0  0  0  0  0
    1.1478    1.1656    2.1613 H   0  0  0  0  0  0  0  0  0  0  0  0
    0.0919    2.9680    2.6055 C   0  0  0  0  0  0  0  0  0  0  0  0
   -0.9184    3.0646    3.0171 H   0  0  0  0  0  0  0  0  0  0  0  0
    0.8091    3.1096    3.4196 H   0  0  0  0  0  0  0  0  0  0  0  0
    0.2479    3.7586    1.8640 H   0  0  0  0  0  0  0  0  0  0  0  0
  1  2  1  0  0  0  0
  2  3  1  0  0  0  0
  2  4  1  0  0  0  0
  2  5  1  0  0  0  0
  5  6  2  0  0  0  0
  5  7  1  0  0  0  0
  7  8  1  0  0  0  0
  7  9  1  0  0  0  0
  9 10  1  0  0  0  0
  9 11  1  0  0  0  0
  9 21  1  0  0  0  0
 11 12  1  0  0  0  0
 11 13  1  0  0  0  0
 11 14  1  0  0  0  0
 14 15  1  0  0  0  0
 14 16  1  0  0  0  0
 14 17  1  0  0  0  0
 17 18  2  0  0  0  0
 17 19  1  0  0  0  0
 19 20  1  0  0  0  0
 21 22  2  0  0  0  0
 21 23  1  0  0  0  0
 23 24  1  0  0  0  0
 23 25  1  0  0  0  0
 25 26  1  0  0  0  0
 25 27  1  0  0  0  0
 25 28  1  0  0  0  0
M  END
$$$$

  -OEChem-03222214033D

 28 27  0     1  0  0  0  0  0999 V2000
   -2.9637   -3.9488    0.8649 H   0  0  0  0  0  0  0  0  0  0  0  0
   -3.0180   -2.9012    0.5558 C   0  0  0  0  0  0  0  0  0  0  0  0
   -3.6332   -2.3535    1.2739 H   0  0  0  0  0  0  0  0  0  0  0  0
   -3.4865   -2.8482   -0.4299 H   0  0  0  0  0  0  0  0  0  0  0  0
   -1.6265   -2.2996    0.5004 C   0  0  0  0  0  0  0  0  0  0  0  0
   -0.6486   -2.9941    0.7274 O   0  0  0  0  0  0  0  0  0  0  0  0
   -1.4683   -0.9648    0.1933 N   0  0  0  0  0  0  0  0  0  0  0  0
   -2.3140   -0.3981    0.1281 H   0  0  0  0  0  0  0  0  0  0  0  0
   -0.1981   -0.2298    0.2979 C   0  0  1  0  0  0  0  0  0  0  0  0
    0.4630   -0.7615    0.9912 H   0  0  0  0  0  0  0  0  0  0  0  0
    0.4855   -0.2755   -1.1088 C   0  0  0  0  0  0  0  0  0  0  0  0
    1.4365   -0.7918   -0.9397 H   0  0  0  0  0  0  0  0  0  0  0  0
   -0.0950   -0.9387   -1.7595 H   0  0  0  0  0  0  0  0  0  0  0  0
    0.8434    0.9818   -1.9558 C   0  0  0  0  0  0  0  0  0  0  0  0
    1.8200    0.8245   -2.4218 H   0  0  0  0  0  0  0  0  0  0  0  0
    0.1137    1.0392   -2.7684 H   0  0  0  0  0  0  0  0  0  0  0  0
    0.8592    2.3605   -1.3113 C   0  0  0  0  0  0  0  0  0  0  0  0
    1.7462    2.6056   -0.5113 O   0  0  0  0  0  0  0  0  0  0  0  0
   -0.0838    3.2532   -1.6794 O   0  0  0  0  0  0  0  0  0  0  0  0
    0.0577    4.0275   -1.1149 H   0  0  0  0  0  0  0  0  0  0  0  0
   -0.4920    1.1245    0.9827 C   0  0  0  0  0  0  0  0  0  0  0  0
   -1.5419    1.7131    0.7424 O   0  0  0  0  0  0  0  0  0  0  0  0
    0.3284    1.5992    1.9893 N   0  0  0  0  0  0  0  0  0  0  0  0
    1.2479    1.1731    2.0669 H   0  0  0  0  0  0  0  0  0  0  0  0
    0.1019    2.8744    2.6580 C   0  0  0  0  0  0  0  0  0  0  0  0
   -0.8883    2.8934    3.1255 H   0  0  0  0  0  0  0  0  0  0  0  0
    0.8529    3.0298    3.4385 H   0  0  0  0  0  0  0  0  0  0  0  0
    0.1701    3.6993    1.9414 H   0  0  0  0  0  0  0  0  0  0  0  0
  1  2  1  0  0  0  0
  2  3  1  0  0  0  0
  2  4  1  0  0  0  0
  2  5  1  0  0  0  0
  5  6  2  0  0  0  0
  5  7  1  0  0  0  0
  7  8  1  0  0  0  0
  7  9  1  0  0  0  0
  9 10  1  0  0  0  0
  9 11  1  0  0  0  0
  9 21  1  0  0  0  0
 11 12  1  0  0  0  0
 11 13  1  0  0  0  0
 11 14  1  0  0  0  0
 14 15  1  0  0  0  0
 14 16  1  0  0  0  0
 14 17  1  0  0  0  0
 17 18  2  0  0  0  0
 17 19  1  0  0  0  0
 19 20  1  0  0  0  0
 21 22  2  0  0  0  0
 21 23  1  0  0  0  0
 23 24  1  0  0  0  0
 23 25  1  0  0  0  0
 25 26  1  0  0  0  0
 25 27  1  0  0  0  0
 25 28  1  0  0  0  0
M  END
$$$$

  -OEChem-03222214033D

 28 27  0     1  0  0  0  0  0999 V2000
   -3.1745   -3.7399    1.2542 H   0  0  0  0  0  0  0  0  0  0  0  0
   -3.1678   -2.7361    0.8204 C   0  0  0  0  0  0  0  0  0  0  0  0
   -3.7590   -2.0737    1.4573 H   0  0  0  0  0  0  0  0  0  0  0  0
   -3.6223   -2.7769   -0.1723 H   0  0  0  0  0  0  0  0  0  0  0  0
   -1.7447   -2.2217    0.7158 C   0  0  0  0  0  0  0  0  0  0  0  0
   -0.8070   -2.9489    1.0018 O   0  0  0  0  0  0  0  0  0  0  0  0
   -1.5124   -0.9296    0.2953 N   0  0  0  0  0  0  0  0  0  0  0  0
   -2.3239   -0.3220    0.1818 H   0  0  0  0  0  0  0  0  0  0  0  0
   -0.1993   -0.2664    0.3265 C   0  0  1  0  0  0  0  0  0  0  0  0
    0.4602   -0.7781    1.0361 H   0  0  0  0  0  0  0  0  0  0  0  0
    0.4180   -0.4226   -1.1007 C   0  0  0  0  0  0  0  0  0  0  0  0
    1.3468   -0.9825   -0.9475 H   0  0  0  0  0  0  0  0  0  0  0  0
   -0.2260   -1.0731   -1.7024 H   0  0  0  0  0  0  0  0  0  0  0  0
    0.8033    0.7885   -1.9953 C   0  0  0  0  0  0  0  0  0  0  0  0
    1.5838    0.4804   -2.6959 H   0  0  0  0  0  0  0  0  0  0  0  0
   -0.0797    1.0412   -2.5894 H   0  0  0  0  0  0  0  0  0  0  0  0
    1.2509    2.0856   -1.3329 C   0  0  0  0  0  0  0  0  0  0  0  0
    2.1643    2.0295   -0.5265 O   0  0  0  0  0  0  0  0  0  0  0  0
    0.6497    3.2371   -1.6991 O   0  0  0  0  0  0  0  0  0  0  0  0
    1.0576    3.9267   -1.1552 H   0  0  0  0  0  0  0  0  0  0  0  0
   -0.4319    1.1510    0.8997 C   0  0  0  0  0  0  0  0  0  0  0  0
   -1.4420    1.7745    0.5876 O   0  0  0  0  0  0  0  0  0  0  0  0
    0.4102    1.6745    1.8629 N   0  0  0  0  0  0  0  0  0  0  0  0
    1.3159    1.2229    1.9652 H   0  0  0  0  0  0  0  0  0  0  0  0
    0.2394    3.0101    2.4205 C   0  0  0  0  0  0  0  0  0  0  0  0
   -0.7373    3.1010    2.9077 H   0  0  0  0  0  0  0  0  0  0  0  0
    1.0153    3.2091    3.1659 H   0  0  0  0  0  0  0  0  0  0  0  0
    0.3124    3.7669    1.6327 H   0  0  0  0  0  0  0  0  0  0  0  0
  1  2  1  0  0  0  0
  2  3  1  0  0  0  0
  2  4  1  0  0  0  0
  2  5  1  0  0  0  0
  5  6  2  0  0  0  0
  5  7  1  0  0  0  0
  7  8  1  0  0  0  0
  7  9  1  0  0  0  0
  9 10  1  0  0  0  0
  9 11  1  0  0  0  0
  9 21  1  0  0  0  0
 11 12  1  0  0  0  0
 11 13  1  0  0  0  0
 11 14  1  0  0  0  0
 14 15  1  0  0  0  0
 14 16  1  0  0  0  0
 14 17  1  0  0  0  0
 17 18  2  0  0  0  0
 17 19  1  0  0  0  0
 19 20  1  0  0  0  0
 21 22  2  0  0  0  0
 21 23  1  0  0  0  0
 23 24  1  0  0  0  0
 23 25  1  0  0  0  0
 25 26  1  0  0  0  0
 25 27  1  0  0  0  0
 25 28  1  0  0  0  0
M  END
$$$$

  -OEChem-03222214033D

 28 27  0     1  0  0  0  0  0999 V2000
   -3.2363   -3.7187    1.2226 H   0  0  0  0  0  0  0  0  0  0  0  0
   -3.2037   -2.7235    0.7707 C   0  0  0  0  0  0  0  0  0  0  0  0
   -3.8232   -2.0472    1.3646 H   0  0  0  0  0  0  0  0  0  0  0  0
   -3.6087   -2.7824   -0.2424 H   0  0  0  0  0  0  0  0  0  0  0  0
   -1.7750   -2.2157    0.7275 C   0  0  0  0  0  0  0  0  0  0  0  0
   -0.8591   -2.9320    1.0982 O   0  0  0  0  0  0  0  0  0  0  0  0
   -1.5132   -0.9442    0.2634 N   0  0  0  0  0  0  0  0  0  0  0  0
   -2.3137   -0.3400    0.0783 H   0  0  0  0  0  0  0  0  0  0  0  0
   -0.1978   -0.2879    0.3281 C   0  0  1  0  0  0  0  0  0  0  0  0
    0.4354   -0.7775    1.0763 H   0  0  0  0  0  0  0  0  0  0  0  0
    0.4691   -0.4663   -1.0704 C   0  0  0  0  0  0  0  0  0  0  0  0
    1.3862   -1.0395   -0.8963 H   0  0  0  0  0  0  0  0  0  0  0  0
   -0.1687   -1.0978   -1.6983 H   0  0  0  0  0  0  0  0  0  0  0  0
    0.8717    0.7666   -1.9205 C   0  0  0  0  0  0  0  0  0  0  0  0
    1.4933    0.4375   -2.7568 H   0  0  0  0  0  0  0  0  0  0  0  0
   -0.0443    1.1913   -2.3417 H   0  0  0  0  0  0  0  0  0  0  0  0
    1.6001    1.9048   -1.2099 C   0  0  0  0  0  0  0  0  0  0  0  0
    2.4120    1.6259   -0.3425 O   0  0  0  0  0  0  0  0  0  0  0  0
    1.3425    3.1689   -1.6065 O   0  0  0  0  0  0  0  0  0  0  0  0
    1.8995    3.7328   -1.0498 H   0  0  0  0  0  0  0  0  0  0  0  0
   -0.4455    1.1545    0.8283 C   0  0  0  0  0  0  0  0  0  0  0  0
   -1.4187    1.7801    0.4186 O   0  0  0  0  0  0  0  0  0  0  0  0
    0.3534    1.7156    1.8066 N   0  0  0  0  0  0  0  0  0  0  0  0
    1.2450    1.2552    1.9783 H   0  0  0  0  0  0  0  0  0  0  0  0
    0.1764    3.0809    2.2845 C   0  0  0  0  0  0  0  0  0  0  0  0
   -0.8289    3.2155    2.6975 H   0  0  0  0  0  0  0  0  0  0  0  0
    0.9035    3.3018    3.0718 H   0  0  0  0  0  0  0  0  0  0  0  0
    0.3203    3.7951    1.4672 H   0  0  0  0  0  0  0  0  0  0  0  0
  1  2  1  0  0  0  0
  2  3  1  0  0  0  0
  2  4  1  0  0  0  0
  2  5  1  0  0  0  0
  5  6  2  0  0  0  0
  5  7  1  0  0  0  0
  7  8  1  0  0  0  0
  7  9  1  0  0  0  0
  9 10  1  0  0  0  0
  9 11  1  0  0  0  0
  9 21  1  0  0  0  0
 11 12  1  0  0  0  0
 11 13  1  0  0  0  0
 11 14  1  0  0  0  0
 14 15  1  0  0  0  0
 14 16  1  0  0  0  0
 14 17  1  0  0  0  0
 17 18  2  0  0  0  0
 17 19  1  0  0  0  0
 19 20  1  0  0  0  0
 21 22  2  0  0  0  0
 21 23  1  0  0  0  0
 23 24  1  0  0  0  0
 23 25  1  0  0  0  0
 25 26  1  0  0  0  0
 25 27  1  0  0  0  0
 25 28  1  0  0  0  0
M  END
$$$$

  -OEChem-03222214033D

 28 27  0     1  0  0  0  0  0999 V2000
   -3.2183   -3.7376    1.2579 H   0  0  0  0  0  0  0  0  0  0  0  0
   -3.1953   -2.7479    0.7936 C   0  0  0  0  0  0  0  0  0  0  0  0
   -3.8150   -2.0683    1.3833 H   0  0  0  0  0  0  0  0  0  0  0  0
   -3.6067   -2.8224   -0.2158 H   0  0  0  0  0  0  0  0  0  0  0  0
   -1.7701   -2.2315    0.7352 C   0  0  0  0  0  0  0  0  0  0  0  0
   -0.8482   -2.9369    1.1119 O   0  0  0  0  0  0  0  0  0  0  0  0
   -1.5194   -0.9651    0.2512 N   0  0  0  0  0  0  0  0  0  0  0  0
   -2.3250   -0.3709    0.0576 H   0  0  0  0  0  0  0  0  0  0  0  0
   -0.2090   -0.2981    0.3016 C   0  0  1  0  0  0  0  0  0  0  0  0
    0.4276   -0.7768    1.0537 H   0  0  0  0  0  0  0  0  0  0  0  0
    0.4703   -0.4735   -1.0879 C   0  0  0  0  0  0  0  0  0  0  0  0
    1.3875   -1.0523   -0.9334 H   0  0  0  0  0  0  0  0  0  0  0  0
   -0.1746   -1.0867   -1.7265 H   0  0  0  0  0  0  0  0  0  0  0  0
    0.8379    0.7989   -1.8899 C   0  0  0  0  0  0  0  0  0  0  0  0
    1.2741    0.5007   -2.8465 H   0  0  0  0  0  0  0  0  0  0  0  0
   -0.0790    1.3543   -2.1081 H   0  0  0  0  0  0  0  0  0  0  0  0
    1.8197    1.7567   -1.2120 C   0  0  0  0  0  0  0  0  0  0  0  0
    2.5318    1.3472   -0.3090 O   0  0  0  0  0  0  0  0  0  0  0  0
    1.8671    3.0240   -1.6727 O   0  0  0  0  0  0  0  0  0  0  0  0
    2.5428    3.4669   -1.1381 H   0  0  0  0  0  0  0  0  0  0  0  0
   -0.4391    1.1550    0.7793 C   0  0  0  0  0  0  0  0  0  0  0  0
   -1.4081    1.7829    0.3635 O   0  0  0  0  0  0  0  0  0  0  0  0
    0.3737    1.7255    1.7405 N   0  0  0  0  0  0  0  0  0  0  0  0
    1.2590    1.2543    1.9170 H   0  0  0  0  0  0  0  0  0  0  0  0
    0.2245    3.1062    2.1831 C   0  0  0  0  0  0  0  0  0  0  0  0
   -0.7787    3.2731    2.5896 H   0  0  0  0  0  0  0  0  0  0  0  0
    0.9538    3.3326    2.9669 H   0  0  0  0  0  0  0  0  0  0  0  0
    0.3856    3.7955    1.3476 H   0  0  0  0  0  0  0  0  0  0  0  0
  1  2  1  0  0  0  0
  2  3  1  0  0  0  0
  2  4  1  0  0  0  0
  2  5  1  0  0  0  0
  5  6  2  0  0  0  0
  5  7  1  0  0  0  0
  7  8  1  0  0  0  0
  7  9  1  0  0  0  0
  9 10  1  0  0  0  0
  9 11  1  0  0  0  0
  9 21  1  0  0  0  0
 11 12  1  0  0  0  0
 11 13  1  0  0  0  0
 11 14  1  0  0  0  0
 14 15  1  0  0  0  0
 14 16  1  0  0  0  0
 14 17  1  0  0  0  0
 17 18  2  0  0  0  0
 17 19  1  0  0  0  0
 19 20  1  0  0  0  0
 21 22  2  0  0  0  0
 21 23  1  0  0  0  0
 23 24  1  0  0  0  0
 23 25  1  0  0  0  0
 25 26  1  0  0  0  0
 25 27  1  0  0  0  0
 25 28  1  0  0  0  0
M  END
$$$$

  -OEChem-03222214033D

 28 27  0     1  0  0  0  0  0999 V2000
   -3.1851   -3.7642    1.2809 H   0  0  0  0  0  0  0  0  0  0  0  0
   -3.1806   -2.7765    0.8116 C   0  0  0  0  0  0  0  0  0  0  0  0
   -3.7954   -2.0999    1.4098 H   0  0  0  0  0  0  0  0  0  0  0  0
   -3.6100   -2.8594   -0.1896 H   0  0  0  0  0  0  0  0  0  0  0  0
   -1.7620   -2.2467    0.7235 C   0  0  0  0  0  0  0  0  0  0  0  0
   -0.8255   -2.9448    1.0769 O   0  0  0  0  0  0  0  0  0  0  0  0
   -1.5352   -0.9757    0.2401 N   0  0  0  0  0  0  0  0  0  0  0  0
   -2.3521   -0.3907    0.0679 H   0  0  0  0  0  0  0  0  0  0  0  0
   -0.2341   -0.2905    0.2758 C   0  0  1  0  0  0  0  0  0  0  0  0
    0.4048   -0.7656    1.0284 H   0  0  0  0  0  0  0  0  0  0  0  0
    0.4666   -0.4599   -1.1005 C   0  0  0  0  0  0  0  0  0  0  0  0
    1.3865   -1.0364   -0.9531 H   0  0  0  0  0  0  0  0  0  0  0  0
   -0.1748   -1.0693   -1.7460 H   0  0  0  0  0  0  0  0  0  0  0  0
    0.8019    0.8369   -1.8760 C   0  0  0  0  0  0  0  0  0  0  0  0
    1.0457    0.5646   -2.9061 H   0  0  0  0  0  0  0  0  0  0  0  0
   -0.0723    1.4922   -1.9189 H   0  0  0  0  0  0  0  0  0  0  0  0
    1.9957    1.6259   -1.3314 C   0  0  0  0  0  0  0  0  0  0  0  0
    2.5725    1.2450   -0.3251 O   0  0  0  0  0  0  0  0  0  0  0  0
    2.3607    2.7299   -2.0160 O   0  0  0  0  0  0  0  0  0  0  0  0
    3.1218    3.0898   -1.5359 H   0  0  0  0  0  0  0  0  0  0  0  0
   -0.4431    1.1641    0.7575 C   0  0  0  0  0  0  0  0  0  0  0  0
   -1.4311    1.7895    0.3847 O   0  0  0  0  0  0  0  0  0  0  0  0
    0.3957    1.7242    1.7017 N   0  0  0  0  0  0  0  0  0  0  0  0
    1.2923    1.2585    1.8323 H   0  0  0  0  0  0  0  0  0  0  0  0
    0.2617    3.1014    2.1595 C   0  0  0  0  0  0  0  0  0  0  0  0
   -0.7355    3.2725    2.5789 H   0  0  0  0  0  0  0  0  0  0  0  0
    1.0013    3.3137    2.9375 H   0  0  0  0  0  0  0  0  0  0  0  0
    0.4194    3.7975    1.3292 H   0  0  0  0  0  0  0  0  0  0  0  0
  1  2  1  0  0  0  0
  2  3  1  0  0  0  0
  2  4  1  0  0  0  0
  2  5  1  0  0  0  0
  5  6  2  0  0  0  0
  5  7  1  0  0  0  0
  7  8  1  0  0  0  0
  7  9  1  0  0  0  0
  9 10  1  0  0  0  0
  9 11  1  0  0  0  0
  9 21  1  0  0  0  0
 11 12  1  0  0  0  0
 11 13  1  0  0  0  0
 11 14  1  0  0  0  0
 14 15  1  0  0  0  0
 14 16  1  0  0  0  0
 14 17  1  0  0  0  0
 17 18  2  0  0  0  0
 17 19  1  0  0  0  0
 19 20  1  0  0  0  0
 21 22  2  0  0  0  0
 21 23  1  0  0  0  0
 23 24  1  0  0  0  0
 23 25  1  0  0  0  0
 25 26  1  0  0  0  0
 25 27  1  0  0  0  0
 25 28  1  0  0  0  0
M  END
$$$$

  -OEChem-03222214033D

 28 27  0     1  0  0  0  0  0999 V2000
   -3.1280   -3.8091    1.2540 H   0  0  0  0  0  0  0  0  0  0  0  0
   -3.1508   -2.8105    0.8086 C   0  0  0  0  0  0  0  0  0  0  0  0
   -3.7620   -2.1586    1.4375 H   0  0  0  0  0  0  0  0  0  0  0  0
   -3.6029   -2.8772   -0.1839 H   0  0  0  0  0  0  0  0  0  0  0  0
   -1.7435   -2.2548    0.6993 C   0  0  0  0  0  0  0  0  0  0  0  0
   -0.7878   -2.9451    1.0151 O   0  0  0  0  0  0  0  0  0  0  0  0
   -1.5486   -0.9713    0.2344 N   0  0  0  0  0  0  0  0  0  0  0  0
   -2.3792   -0.3964    0.0976 H   0  0  0  0  0  0  0  0  0  0  0  0
   -0.2595   -0.2630    0.2568 C   0  0  1  0  0  0  0  0  0  0  0  0
    0.3874   -0.7402    1.0013 H   0  0  0  0  0  0  0  0  0  0  0  0
    0.4525   -0.4145   -1.1138 C   0  0  0  0  0  0  0  0  0  0  0  0
    1.3791   -0.9814   -0.9703 H   0  0  0  0  0  0  0  0  0  0  0  0
   -0.1821   -1.0296   -1.7604 H   0  0  0  0  0  0  0  0  0  0  0  0
    0.7592    0.8940   -1.8825 C   0  0  0  0  0  0  0  0  0  0  0  0
    0.7818    0.6545   -2.9491 H   0  0  0  0  0  0  0  0  0  0  0  0
   -0.0237    1.6446   -1.7532 H   0  0  0  0  0  0  0  0  0  0  0  0
    2.1241    1.4928   -1.5411 C   0  0  0  0  0  0  0  0  0  0  0  0
    2.5842    1.3331   -0.4216 O   0  0  0  0  0  0  0  0  0  0  0  0
    2.7607    2.1842   -2.5098 O   0  0  0  0  0  0  0  0  0  0  0  0
    3.5918    2.4810   -2.1085 H   0  0  0  0  0  0  0  0  0  0  0  0
   -0.4582    1.1833    0.7655 C   0  0  0  0  0  0  0  0  0  0  0  0
   -1.4714    1.8005    0.4508 O   0  0  0  0  0  0  0  0  0  0  0  0
    0.4057    1.7278    1.6959 N   0  0  0  0  0  0  0  0  0  0  0  0
    1.3163    1.2775    1.7709 H   0  0  0  0  0  0  0  0  0  0  0  0
    0.2756    3.0942    2.1854 C   0  0  0  0  0  0  0  0  0  0  0  0
   -0.7098    3.2484    2.6377 H   0  0  0  0  0  0  0  0  0  0  0  0
    1.0365    3.2960    2.9453 H   0  0  0  0  0  0  0  0  0  0  0  0
    0.4039    3.8086    1.3655 H   0  0  0  0  0  0  0  0  0  0  0  0
  1  2  1  0  0  0  0
  2  3  1  0  0  0  0
  2  4  1  0  0  0  0
  2  5  1  0  0  0  0
  5  6  2  0  0  0  0
  5  7  1  0  0  0  0
  7  8  1  0  0  0  0
  7  9  1  0  0  0  0
  9 10  1  0  0  0  0
  9 11  1  0  0  0  0
  9 21  1  0  0  0  0
 11 12  1  0  0  0  0
 11 13  1  0  0  0  0
 11 14  1  0  0  0  0
 14 15  1  0  0  0  0
 14 16  1  0  0  0  0
 14 17  1  0  0  0  0
 17 18  2  0  0  0  0
 17 19  1  0  0  0  0
 19 20  1  0  0  0  0
 21 22  2  0  0  0  0
 21 23  1  0  0  0  0
 23 24  1  0  0  0  0
 23 25  1  0  0  0  0
 25 26  1  0  0  0  0
 25 27  1  0  0  0  0
 25 28  1  0  0  0  0
M  END
$$$$

  -OEChem-03222214033D

 28 27  0     1  0  0  0  0  0999 V2000
   -3.0784   -3.8439    1.2011 H   0  0  0  0  0  0  0  0  0  0  0  0
   -3.1224   -2.8337    0.7844 C   0  0  0  0  0  0  0  0  0  0  0  0
   -3.7368   -2.2099    1.4381 H   0  0  0  0  0  0  0  0  0  0  0  0
   -3.5850   -2.8799   -0.2044 H   0  0  0  0  0  0  0  0  0  0  0  0
   -1.7257   -2.2522    0.6752 C   0  0  0  0  0  0  0  0  0  0  0  0
   -0.7562   -2.9305    0.9744 O   0  0  0  0  0  0  0  0  0  0  0  0
   -1.5558   -0.9576    0.2319 N   0  0  0  0  0  0  0  0  0  0  0  0
   -2.3968   -0.3973    0.0998 H   0  0  0  0  0  0  0  0  0  0  0  0
   -0.2778   -0.2298    0.2464 C   0  0  1  0  0  0  0  0  0  0  0  0
    0.3758   -0.7118    0.9816 H   0  0  0  0  0  0  0  0  0  0  0  0
    0.4385   -0.3669   -1.1231 C   0  0  0  0  0  0  0  0  0  0  0  0
    1.3717   -0.9219   -0.9744 H   0  0  0  0  0  0  0  0  0  0  0  0
   -0.1836   -0.9961   -1.7686 H   0  0  0  0  0  0  0  0  0  0  0  0
    0.7274    0.9434   -1.9011 C   0  0  0  0  0  0  0  0  0  0  0  0
    0.4997    0.7621   -2.9553 H   0  0  0  0  0  0  0  0  0  0  0  0
    0.0995    1.7828   -1.5996 H   0  0  0  0  0  0  0  0  0  0  0  0
    2.1980    1.3390   -1.8264 C   0  0  0  0  0  0  0  0  0  0  0  0
    2.7240    1.3933   -0.7268 O   0  0  0  0  0  0  0  0  0  0  0  0
    2.8498    1.6114   -2.9766 O   0  0  0  0  0  0  0  0  0  0  0  0
    3.7533    1.8395   -2.7094 H   0  0  0  0  0  0  0  0  0  0  0  0
   -0.4673    1.2064    0.7818 C   0  0  0  0  0  0  0  0  0  0  0  0
   -1.4843    1.8294    0.4935 O   0  0  0  0  0  0  0  0  0  0  0  0
    0.4169    1.7359    1.7023 N   0  0  0  0  0  0  0  0  0  0  0  0
    1.3089    1.2565    1.8031 H   0  0  0  0  0  0  0  0  0  0  0  0
    0.2972    3.0906    2.2258 C   0  0  0  0  0  0  0  0  0  0  0  0
   -0.6756    3.2313    2.7087 H   0  0  0  0  0  0  0  0  0  0  0  0
    1.0790    3.2782    2.9681 H   0  0  0  0  0  0  0  0  0  0  0  0
    0.4006    3.8240    1.4193 H   0  0  0  0  0  0  0  0  0  0  0  0
  1  2  1  0  0  0  0
  2  3  1  0  0  0  0
  2  4  1  0  0  0  0
  2  5  1  0  0  0  0
  5  6  2  0  0  0  0
  5  7  1  0  0  0  0
  7  8  1  0  0  0  0
  7  9  1  0  0  0  0
  9 10  1  0  0  0  0
  9 11  1  0  0  0  0
  9 21  1  0  0  0  0
 11 12  1  0  0  0  0
 11 13  1  0  0  0  0
 11 14  1  0  0  0  0
 14 15  1  0  0  0  0
 14 16  1  0  0  0  0
 14 17  1  0  0  0  0
 17 18  2  0  0  0  0
 17 19  1  0  0  0  0
 19 20  1  0  0  0  0
 21 22  2  0  0  0  0
 21 23  1  0  0  0  0
 23 24  1  0  0  0  0
 23 25  1  0  0  0  0
 25 26  1  0  0  0  0
 25 27  1  0  0  0  0
 25 28  1  0  0  0  0
M  END
$$$$

  -OEChem-03222214033D

 28 27  0     1  0  0  0  0  0999 V2000
   -3.0618   -3.8428    1.1228 H   0  0  0  0  0  0  0  0  0  0  0  0
   -3.1053   -2.8186    0.7422 C   0  0  0  0  0  0  0  0  0  0  0  0
   -3.7212   -2.2186    1.4165 H   0  0  0  0  0  0  0  0  0  0  0  0
   -3.5662   -2.8301   -0.2483 H   0  0  0  0  0  0  0  0  0  0  0  0
   -1.7087   -2.2327    0.6565 C   0  0  0  0  0  0  0  0  0  0  0  0
   -0.7410   -2.9098    0.9642 O   0  0  0  0  0  0  0  0  0  0  0  0
   -1.5365   -0.9332    0.2281 N   0  0  0  0  0  0  0  0  0  0  0  0
   -2.3766   -0.3741    0.0842 H   0  0  0  0  0  0  0  0  0  0  0  0
   -0.2581   -0.2068    0.2524 C   0  0  1  0  0  0  0  0  0  0  0  0
    0.4007   -0.6965    0.9778 H   0  0  0  0  0  0  0  0  0  0  0  0
    0.4371   -0.3324   -1.1309 C   0  0  0  0  0  0  0  0  0  0  0  0
    1.3733   -0.8801   -0.9753 H   0  0  0  0  0  0  0  0  0  0  0  0
   -0.1759   -0.9721   -1.7752 H   0  0  0  0  0  0  0  0  0  0  0  0
    0.7329    0.9732   -1.9196 C   0  0  0  0  0  0  0  0  0  0  0  0
    0.2212    0.9186   -2.8845 H   0  0  0  0  0  0  0  0  0  0  0  0
    0.3675    1.8769   -1.4326 H   0  0  0  0  0  0  0  0  0  0  0  0
    2.2233    1.1481   -2.1826 C   0  0  0  0  0  0  0  0  0  0  0  0
    2.9605    1.2897   -1.2222 O   0  0  0  0  0  0  0  0  0  0  0  0
    2.6603    1.1269   -3.4596 O   0  0  0  0  0  0  0  0  0  0  0  0
    3.6203    1.2481   -3.4009 H   0  0  0  0  0  0  0  0  0  0  0  0
   -0.4599    1.2202    0.8051 C   0  0  0  0  0  0  0  0  0  0  0  0
   -1.4641    1.8534    0.4962 O   0  0  0  0  0  0  0  0  0  0  0  0
    0.4153    1.7458    1.7367 N   0  0  0  0  0  0  0  0  0  0  0  0
    1.2712    1.2272    1.9178 H   0  0  0  0  0  0  0  0  0  0  0  0
    0.2718    3.0819    2.3014 C   0  0  0  0  0  0  0  0  0  0  0  0
   -0.6904    3.1799    2.8153 H   0  0  0  0  0  0  0  0  0  0  0  0
    1.0697    3.2739    3.0254 H   0  0  0  0  0  0  0  0  0  0  0  0
    0.3292    3.8397    1.5130 H   0  0  0  0  0  0  0  0  0  0  0  0
  1  2  1  0  0  0  0
  2  3  1  0  0  0  0
  2  4  1  0  0  0  0
  2  5  1  0  0  0  0
  5  6  2  0  0  0  0
  5  7  1  0  0  0  0
  7  8  1  0  0  0  0
  7  9  1  0  0  0  0
  9 10  1  0  0  0  0
  9 11  1  0  0  0  0
  9 21  1  0  0  0  0
 11 12  1  0  0  0  0
 11 13  1  0  0  0  0
 11 14  1  0  0  0  0
 14 15  1  0  0  0  0
 14 16  1  0  0  0  0
 14 17  1  0  0  0  0
 17 18  2  0  0  0  0
 17 19  1  0  0  0  0
 19 20  1  0  0  0  0
 21 22  2  0  0  0  0
 21 23  1  0  0  0  0
 23 24  1  0  0  0  0
 23 25  1  0  0  0  0
 25 26  1  0  0  0  0
 25 27  1  0  0  0  0
 25 28  1  0  0  0  0
M  END
$$$$

  -OEChem-03222214033D

 28 27  0     1  0  0  0  0  0999 V2000
   -3.0747   -3.8312    1.0304 H   0  0  0  0  0  0  0  0  0  0  0  0
   -3.1070   -2.7912    0.6939 C   0  0  0  0  0  0  0  0  0  0  0  0
   -3.7266   -2.2158    1.3858 H   0  0  0  0  0  0  0  0  0  0  0  0
   -3.5559   -2.7572   -0.3017 H   0  0  0  0  0  0  0  0  0  0  0  0
   -1.7057   -2.2125    0.6500 C   0  0  0  0  0  0  0  0  0  0  0  0
   -0.7510   -2.8933    0.9886 O   0  0  0  0  0  0  0  0  0  0  0  0
   -1.5133   -0.9155    0.2233 N   0  0  0  0  0  0  0  0  0  0  0  0
   -2.3446   -0.3525    0.0478 H   0  0  0  0  0  0  0  0  0  0  0  0
   -0.2275   -0.2030    0.2609 C   0  0  1  0  0  0  0  0  0  0  0  0
    0.4321   -0.7006    0.9802 H   0  0  0  0  0  0  0  0  0  0  0  0
    0.4449   -0.3193   -1.1353 C   0  0  0  0  0  0  0  0  0  0  0  0
    1.3859   -0.8579   -0.9759 H   0  0  0  0  0  0  0  0  0  0  0  0
   -0.1600   -0.9609   -1.7853 H   0  0  0  0  0  0  0  0  0  0  0  0
    0.7503    0.9906   -1.9110 C   0  0  0  0  0  0  0  0  0  0  0  0
    0.0105    1.1237   -2.7052 H   0  0  0  0  0  0  0  0  0  0  0  0
    0.7052    1.8803   -1.2826 H   0  0  0  0  0  0  0  0  0  0  0  0
    2.1490    0.9683   -2.5141 C   0  0  0  0  0  0  0  0  0  0  0  0
    3.1014    1.0931   -1.7644 O   0  0  0  0  0  0  0  0  0  0  0  0
    2.2694    0.7915   -3.8470 O   0  0  0  0  0  0  0  0  0  0  0  0
    3.2238    0.7971   -4.0170 H   0  0  0  0  0  0  0  0  0  0  0  0
   -0.4369    1.2235    0.8126 C   0  0  0  0  0  0  0  0  0  0  0  0
   -1.4167    1.8728    0.4630 O   0  0  0  0  0  0  0  0  0  0  0  0
    0.4236    1.7488    1.7582 N   0  0  0  0  0  0  0  0  0  0  0  0
    1.2293    1.1893    2.0254 H   0  0  0  0  0  0  0  0  0  0  0  0
    0.2625    3.0767    2.3384 C   0  0  0  0  0  0  0  0  0  0  0  0
   -0.6907    3.1479    2.8727 H   0  0  0  0  0  0  0  0  0  0  0  0
    1.0713    3.2810    3.0468 H   0  0  0  0  0  0  0  0  0  0  0  0
    0.2865    3.8430    1.5563 H   0  0  0  0  0  0  0  0  0  0  0  0
  1  2  1  0  0  0  0
  2  3  1  0  0  0  0
  2  4  1  0  0  0  0
  2  5  1  0  0  0  0
  5  6  2  0  0  0  0
  5  7  1  0  0  0  0
  7  8  1  0  0  0  0
  7  9  1  0  0  0  0
  9 10  1  0  0  0  0
  9 11  1  0  0  0  0
  9 21  1  0  0  0  0
 11 12  1  0  0  0  0
 11 13  1  0  0  0  0
 11 14  1  0  0  0  0
 14 15  1  0  0  0  0
 14 16  1  0  0  0  0
 14 17  1  0  0  0  0
 17 18  2  0  0  0  0
 17 19  1  0  0  0  0
 19 20  1  0  0  0  0
 21 22  2  0  0  0  0
 21 23  1  0  0  0  0
 23 24  1  0  0  0  0
 23 25  1  0  0  0  0
 25 26  1  0  0  0  0
 25 27  1  0  0  0  0
 25 28  1  0  0  0  0
M  END
$$$$

  -OEChem-03222214033D

 28 27  0     1  0  0  0  0  0999 V2000
   -3.0570   -3.8296    1.2356 H   0  0  0  0  0  0  0  0  0  0  0  0
   -3.0922   -2.8142    0.8305 C   0  0  0  0  0  0  0  0  0  0  0  0
   -3.7331   -2.2016    1.4692 H   0  0  0  0  0  0  0  0  0  0  0  0
   -3.5187   -2.8509   -0.1750 H   0  0  0  0  0  0  0  0  0  0  0  0
   -1.6960   -2.2235    0.7787 C   0  0  0  0  0  0  0  0  0  0  0  0
   -0.7434   -2.8654    1.1911 O   0  0  0  0  0  0  0  0  0  0  0  0
   -1.5069   -0.9544    0.2738 N   0  0  0  0  0  0  0  0  0  0  0  0
   -2.3373   -0.4165    0.0293 H   0  0  0  0  0  0  0  0  0  0  0  0
   -0.2197   -0.2445    0.2479 C   0  0  1  0  0  0  0  0  0  0  0  0
    0.4641   -0.7047    0.9693 H   0  0  0  0  0  0  0  0  0  0  0  0
    0.3980   -0.4177   -1.1680 C   0  0  0  0  0  0  0  0  0  0  0  0
    1.3508   -0.9394   -1.0244 H   0  0  0  0  0  0  0  0  0  0  0  0
   -0.2251   -1.0834   -1.7756 H   0  0  0  0  0  0  0  0  0  0  0  0
    0.6716    0.8701   -1.9870 C   0  0  0  0  0  0  0  0  0  0  0  0
   -0.2224    1.1540   -2.5484 H   0  0  0  0  0  0  0  0  0  0  0  0
    0.9294    1.7051   -1.3332 H   0  0  0  0  0  0  0  0  0  0  0  0
    1.8532    0.7142   -2.9412 C   0  0  0  0  0  0  0  0  0  0  0  0
    1.9385   -0.2976   -3.6138 O   0  0  0  0  0  0  0  0  0  0  0  0
    2.7612    1.7124   -2.9901 O   0  0  0  0  0  0  0  0  0  0  0  0
    3.4125    1.4254   -3.6486 H   0  0  0  0  0  0  0  0  0  0  0  0
   -0.4297    1.2106    0.7206 C   0  0  0  0  0  0  0  0  0  0  0  0
   -1.3988    1.8478    0.3234 O   0  0  0  0  0  0  0  0  0  0  0  0
    0.4415    1.7920    1.6230 N   0  0  0  0  0  0  0  0  0  0  0  0
    1.1971    1.2177    1.9863 H   0  0  0  0  0  0  0  0  0  0  0  0
    0.2647    3.1401    2.1494 C   0  0  0  0  0  0  0  0  0  0  0  0
   -0.6598    3.2052    2.7325 H   0  0  0  0  0  0  0  0  0  0  0  0
    1.1039    3.4057    2.7994 H   0  0  0  0  0  0  0  0  0  0  0  0
    0.2182    3.8684    1.3327 H   0  0  0  0  0  0  0  0  0  0  0  0
  1  2  1  0  0  0  0
  2  3  1  0  0  0  0
  2  4  1  0  0  0  0
  2  5  1  0  0  0  0
  5  6  2  0  0  0  0
  5  7  1  0  0  0  0
  7  8  1  0  0  0  0
  7  9  1  0  0  0  0
  9 10  1  0  0  0  0
  9 11  1  0  0  0  0
  9 21  1  0  0  0  0
 11 12  1  0  0  0  0
 11 13  1  0  0  0  0
 11 14  1  0  0  0  0
 14 15  1  0  0  0  0
 14 16  1  0  0  0  0
 14 17  1  0  0  0  0
 17 18  2  0  0  0  0
 17 19  1  0  0  0  0
 19 20  1  0  0  0  0
 21 22  2  0  0  0  0
 21 23  1  0  0  0  0
 23 24  1  0  0  0  0
 23 25  1  0  0  0  0
 25 26  1  0  0  0  0
 25 27  1  0  0  0  0
 25 28  1  0  0  0  0
M  END
$$$$

  -OEChem-03222214033D

 28 27  0     1  0  0  0  0  0999 V2000
   -3.1148   -3.8052    1.2431 H   0  0  0  0  0  0  0  0  0  0  0  0
   -3.1315   -2.7964    0.8210 C   0  0  0  0  0  0  0  0  0  0  0  0
   -3.7718   -2.1650    1.4416 H   0  0  0  0  0  0  0  0  0  0  0  0
   -3.5469   -2.8442   -0.1886 H   0  0  0  0  0  0  0  0  0  0  0  0
   -1.7268   -2.2251    0.7768 C   0  0  0  0  0  0  0  0  0  0  0  0
   -0.7872   -2.8750    1.2064 O   0  0  0  0  0  0  0  0  0  0  0  0
   -1.5171   -0.9616    0.2657 N   0  0  0  0  0  0  0  0  0  0  0  0
   -2.3387   -0.4154    0.0105 H   0  0  0  0  0  0  0  0  0  0  0  0
   -0.2217   -0.2663    0.2512 C   0  0  1  0  0  0  0  0  0  0  0  0
    0.4473   -0.7313    0.9833 H   0  0  0  0  0  0  0  0  0  0  0  0
    0.4169   -0.4447   -1.1529 C   0  0  0  0  0  0  0  0  0  0  0  0
    1.3645   -0.9757   -1.0097 H   0  0  0  0  0  0  0  0  0  0  0  0
   -0.2128   -1.0930   -1.7723 H   0  0  0  0  0  0  0  0  0  0  0  0
    0.7033    0.8561   -1.9421 C   0  0  0  0  0  0  0  0  0  0  0  0
   -0.2359    1.2889   -2.2976 H   0  0  0  0  0  0  0  0  0  0  0  0
    1.1879    1.5898   -1.2933 H   0  0  0  0  0  0  0  0  0  0  0  0
    1.6409    0.6561   -3.1327 C   0  0  0  0  0  0  0  0  0  0  0  0
    1.7759   -0.4528   -3.6193 O   0  0  0  0  0  0  0  0  0  0  0  0
    2.2867    1.7469   -3.5963 O   0  0  0  0  0  0  0  0  0  0  0  0
    2.8142    1.4257   -4.3437 H   0  0  0  0  0  0  0  0  0  0  0  0
   -0.4127    1.1961    0.7105 C   0  0  0  0  0  0  0  0  0  0  0  0
   -1.3722    1.8442    0.3073 O   0  0  0  0  0  0  0  0  0  0  0  0
    0.4594    1.7681    1.6180 N   0  0  0  0  0  0  0  0  0  0  0  0
    1.2005    1.1820    1.9926 H   0  0  0  0  0  0  0  0  0  0  0  0
    0.2889    3.1153    2.1492 C   0  0  0  0  0  0  0  0  0  0  0  0
   -0.6369    3.1832    2.7303 H   0  0  0  0  0  0  0  0  0  0  0  0
    1.1282    3.3735    2.8022 H   0  0  0  0  0  0  0  0  0  0  0  0
    0.2485    3.8473    1.3354 H   0  0  0  0  0  0  0  0  0  0  0  0
  1  2  1  0  0  0  0
  2  3  1  0  0  0  0
  2  4  1  0  0  0  0
  2  5  1  0  0  0  0
  5  6  2  0  0  0  0
  5  7  1  0  0  0  0
  7  8  1  0  0  0  0
  7  9  1  0  0  0  0
  9 10  1  0  0  0  0
  9 11  1  0  0  0  0
  9 21  1  0  0  0  0
 11 12  1  0  0  0  0
 11 13  1  0  0  0  0
 11 14  1  0  0  0  0
 14 15  1  0  0  0  0
 14 16  1  0  0  0  0
 14 17  1  0  0  0  0
 17 18  2  0  0  0  0
 17 19  1  0  0  0  0
 19 20  1  0  0  0  0
 21 22  2  0  0  0  0
 21 23  1  0  0  0  0
 23 24  1  0  0  0  0
 23 25  1  0  0  0  0
 25 26  1  0  0  0  0
 25 27  1  0  0  0  0
 25 28  1  0  0  0  0
M  END
$$$$

  -OEChem-03222214033D

 28 27  0     1  0  0  0  0  0999 V2000
   -3.1519   -3.7739    1.2540 H   0  0  0  0  0  0  0  0  0  0  0  0
   -3.1496   -2.7784    0.8014 C   0  0  0  0  0  0  0  0  0  0  0  0
   -3.8009   -2.1243    1.3861 H   0  0  0  0  0  0  0  0  0  0  0  0
   -3.5383   -2.8541   -0.2170 H   0  0  0  0  0  0  0  0  0  0  0  0
   -1.7399   -2.2192    0.7765 C   0  0  0  0  0  0  0  0  0  0  0  0
   -0.8131   -2.8736    1.2269 O   0  0  0  0  0  0  0  0  0  0  0  0
   -1.5094   -0.9617    0.2602 N   0  0  0  0  0  0  0  0  0  0  0  0
   -2.3198   -0.4086   -0.0157 H   0  0  0  0  0  0  0  0  0  0  0  0
   -0.2049   -0.2844    0.2607 C   0  0  1  0  0  0  0  0  0  0  0  0
    0.4597   -0.7489    0.9969 H   0  0  0  0  0  0  0  0  0  0  0  0
    0.4379   -0.4576   -1.1406 C   0  0  0  0  0  0  0  0  0  0  0  0
    1.1972   -1.2446   -1.0759 H   0  0  0  0  0  0  0  0  0  0  0  0
   -0.3264   -0.8105   -1.8426 H   0  0  0  0  0  0  0  0  0  0  0  0
    1.0710    0.8172   -1.7466 C   0  0  0  0  0  0  0  0  0  0  0  0
    0.3097    1.5947   -1.8555 H   0  0  0  0  0  0  0  0  0  0  0  0
    1.8503    1.1943   -1.0797 H   0  0  0  0  0  0  0  0  0  0  0  0
    1.6943    0.6060   -3.1266 C   0  0  0  0  0  0  0  0  0  0  0  0
    1.6353   -0.4843   -3.6676 O   0  0  0  0  0  0  0  0  0  0  0  0
    2.3035    1.6724   -3.6857 O   0  0  0  0  0  0  0  0  0  0  0  0
    2.6262    1.3546   -4.5430 H   0  0  0  0  0  0  0  0  0  0  0  0
   -0.3940    1.1817    0.7100 C   0  0  0  0  0  0  0  0  0  0  0  0
   -1.3387    1.8358    0.2824 O   0  0  0  0  0  0  0  0  0  0  0  0
    0.4654    1.7543    1.6296 N   0  0  0  0  0  0  0  0  0  0  0  0
    1.1834    1.1609    2.0360 H   0  0  0  0  0  0  0  0  0  0  0  0
    0.2912    3.1058    2.1488 C   0  0  0  0  0  0  0  0  0  0  0  0
   -0.6607    3.1912    2.6836 H   0  0  0  0  0  0  0  0  0  0  0  0
    1.1012    3.3532    2.8417 H   0  0  0  0  0  0  0  0  0  0  0  0
    0.3024    3.8348    1.3315 H   0  0  0  0  0  0  0  0  0  0  0  0
  1  2  1  0  0  0  0
  2  3  1  0  0  0  0
  2  4  1  0  0  0  0
  2  5  1  0  0  0  0
  5  6  2  0  0  0  0
  5  7  1  0  0  0  0
  7  8  1  0  0  0  0
  7  9  1  0  0  0  0
  9 10  1  0  0  0  0
  9 11  1  0  0  0  0
  9 21  1  0  0  0  0
 11 12  1  0  0  0  0
 11 13  1  0  0  0  0
 11 14  1  0  0  0  0
 14 15  1  0  0  0  0
 14 16  1  0  0  0  0
 14 17  1  0  0  0  0
 17 18  2  0  0  0  0
 17 19  1  0  0  0  0
 19 20  1  0  0  0  0
 21 22  2  0  0  0  0
 21 23  1  0  0  0  0
 23 24  1  0  0  0  0
 23 25  1  0  0  0  0
 25 26  1  0  0  0  0
 25 27  1  0  0  0  0
 25 28  1  0  0  0  0
M  END
$$$$

  -OEChem-03222214033D

 28 27  0     1  0  0  0  0  0999 V2000
   -3.1654   -3.7651    1.2279 H   0  0  0  0  0  0  0  0  0  0  0  0
   -3.1602   -2.7681    0.7788 C   0  0  0  0  0  0  0  0  0  0  0  0
   -3.8129   -2.1153    1.3634 H   0  0  0  0  0  0  0  0  0  0  0  0
   -3.5459   -2.8395   -0.2410 H   0  0  0  0  0  0  0  0  0  0  0  0
   -1.7494   -2.2103    0.7607 C   0  0  0  0  0  0  0  0  0  0  0  0
   -0.8240   -2.8704    1.2057 O   0  0  0  0  0  0  0  0  0  0  0  0
   -1.5165   -0.9476    0.2576 N   0  0  0  0  0  0  0  0  0  0  0  0
   -2.3255   -0.3919   -0.0167 H   0  0  0  0  0  0  0  0  0  0  0  0
   -0.2113   -0.2708    0.2651 C   0  0  1  0  0  0  0  0  0  0  0  0
    0.4454   -0.7409    1.0048 H   0  0  0  0  0  0  0  0  0  0  0  0
    0.4496   -0.4492   -1.1291 C   0  0  0  0  0  0  0  0  0  0  0  0
    1.1983   -1.2462   -1.0676 H   0  0  0  0  0  0  0  0  0  0  0  0
   -0.3219   -0.7963   -1.8260 H   0  0  0  0  0  0  0  0  0  0  0  0
    1.0962    0.8133   -1.7531 C   0  0  0  0  0  0  0  0  0  0  0  0
    0.4154    1.6641   -1.6726 H   0  0  0  0  0  0  0  0  0  0  0  0
    2.0169    1.0635   -1.2204 H   0  0  0  0  0  0  0  0  0  0  0  0
    1.4059    0.6764   -3.2446 C   0  0  0  0  0  0  0  0  0  0  0  0
    1.3990   -0.4222   -3.7719 O   0  0  0  0  0  0  0  0  0  0  0  0
    1.7015    1.8110   -3.9131 O   0  0  0  0  0  0  0  0  0  0  0  0
    1.8691    1.5279   -4.8251 H   0  0  0  0  0  0  0  0  0  0  0  0
   -0.3941    1.1912    0.7285 C   0  0  0  0  0  0  0  0  0  0  0  0
   -1.3422    1.8500    0.3161 O   0  0  0  0  0  0  0  0  0  0  0  0
    0.4690    1.7509    1.6525 N   0  0  0  0  0  0  0  0  0  0  0  0
    1.1895    1.1521    2.0462 H   0  0  0  0  0  0  0  0  0  0  0  0
    0.3049    3.0989    2.1837 C   0  0  0  0  0  0  0  0  0  0  0  0
   -0.6501    3.1891    2.7121 H   0  0  0  0  0  0  0  0  0  0  0  0
    1.1120    3.3301    2.8855 H   0  0  0  0  0  0  0  0  0  0  0  0
    0.3306    3.8363    1.3743 H   0  0  0  0  0  0  0  0  0  0  0  0
  1  2  1  0  0  0  0
  2  3  1  0  0  0  0
  2  4  1  0  0  0  0
  2  5  1  0  0  0  0
  5  6  2  0  0  0  0
  5  7  1  0  0  0  0
  7  8  1  0  0  0  0
  7  9  1  0  0  0  0
  9 10  1  0  0  0  0
  9 11  1  0  0  0  0
  9 21  1  0  0  0  0
 11 12  1  0  0  0  0
 11 13  1  0  0  0  0
 11 14  1  0  0  0  0
 14 15  1  0  0  0  0
 14 16  1  0  0  0  0
 14 17  1  0  0  0  0
 17 18  2  0  0  0  0
 17 19  1  0  0  0  0
 19 20  1  0  0  0  0
 21 22  2  0  0  0  0
 21 23  1  0  0  0  0
 23 24  1  0  0  0  0
 23 25  1  0  0  0  0
 25 26  1  0  0  0  0
 25 27  1  0  0  0  0
 25 28  1  0  0  0  0
M  END
$$$$

  -OEChem-03222214033D

 28 27  0     1  0  0  0  0  0999 V2000
   -3.1812   -3.7475    1.1968 H   0  0  0  0  0  0  0  0  0  0  0  0
   -3.1704   -2.7445    0.7610 C   0  0  0  0  0  0  0  0  0  0  0  0
   -3.8179   -2.0953    1.3553 H   0  0  0  0  0  0  0  0  0  0  0  0
   -3.5580   -2.7996   -0.2592 H   0  0  0  0  0  0  0  0  0  0  0  0
   -1.7565   -2.1954    0.7476 C   0  0  0  0  0  0  0  0  0  0  0  0
   -0.8346   -2.8650    1.1859 O   0  0  0  0  0  0  0  0  0  0  0  0
   -1.5163   -0.9302    0.2550 N   0  0  0  0  0  0  0  0  0  0  0  0
   -2.3226   -0.3657   -0.0097 H   0  0  0  0  0  0  0  0  0  0  0  0
   -0.2068   -0.2615    0.2698 C   0  0  1  0  0  0  0  0  0  0  0  0
    0.4432   -0.7383    1.0109 H   0  0  0  0  0  0  0  0  0  0  0  0
    0.4618   -0.4431   -1.1226 C   0  0  0  0  0  0  0  0  0  0  0  0
    1.1950   -1.2547   -1.0654 H   0  0  0  0  0  0  0  0  0  0  0  0
   -0.3204   -0.7819   -1.8116 H   0  0  0  0  0  0  0  0  0  0  0  0
    1.1301    0.8019   -1.7684 C   0  0  0  0  0  0  0  0  0  0  0  0
    0.6054    1.7173   -1.4905 H   0  0  0  0  0  0  0  0  0  0  0  0
    2.1624    0.8923   -1.4219 H   0  0  0  0  0  0  0  0  0  0  0  0
    1.1089    0.7836   -3.2973 C   0  0  0  0  0  0  0  0  0  0  0  0
    1.1346   -0.2824   -3.8871 O   0  0  0  0  0  0  0  0  0  0  0  0
    1.0908    1.9756   -3.9306 O   0  0  0  0  0  0  0  0  0  0  0  0
    1.0813    1.7580   -4.8752 H   0  0  0  0  0  0  0  0  0  0  0  0
   -0.3908    1.1957    0.7459 C   0  0  0  0  0  0  0  0  0  0  0  0
   -1.3367    1.8588    0.3352 O   0  0  0  0  0  0  0  0  0  0  0  0
    0.4693    1.7469    1.6775 N   0  0  0  0  0  0  0  0  0  0  0  0
    1.1932    1.1469    2.0633 H   0  0  0  0  0  0  0  0  0  0  0  0
    0.3063    3.0923    2.2154 C   0  0  0  0  0  0  0  0  0  0  0  0
   -0.6447    3.1782    2.7516 H   0  0  0  0  0  0  0  0  0  0  0  0
    1.1185    3.3233    2.9113 H   0  0  0  0  0  0  0  0  0  0  0  0
    0.3233    3.8325    1.4084 H   0  0  0  0  0  0  0  0  0  0  0  0
  1  2  1  0  0  0  0
  2  3  1  0  0  0  0
  2  4  1  0  0  0  0
  2  5  1  0  0  0  0
  5  6  2  0  0  0  0
  5  7  1  0  0  0  0
  7  8  1  0  0  0  0
  7  9  1  0  0  0  0
  9 10  1  0  0  0  0
  9 11  1  0  0  0  0
  9 21  1  0  0  0  0
 11 12  1  0  0  0  0
 11 13  1  0  0  0  0
 11 14  1  0  0  0  0
 14 15  1  0  0  0  0
 14 16  1  0  0  0  0
 14 17  1  0  0  0  0
 17 18  2  0  0  0  0
 17 19  1  0  0  0  0
 19 20  1  0  0  0  0
 21 22  2  0  0  0  0
 21 23  1  0  0  0  0
 23 24  1  0  0  0  0
 23 25  1  0  0  0  0
 25 26  1  0  0  0  0
 25 27  1  0  0  0  0
 25 28  1  0  0  0  0
M  END
$$$$

  -OEChem-03222214033D

 28 27  0     1  0  0  0  0  0999 V2000
   -3.2030   -3.7243    1.1948 H   0  0  0  0  0  0  0  0  0  0  0  0
   -3.1836   -2.7207    0.7607 C   0  0  0  0  0  0  0  0  0  0  0  0
   -3.8216   -2.0653    1.3586 H   0  0  0  0  0  0  0  0  0  0  0  0
   -3.5759   -2.7702   -0.2579 H   0  0  0  0  0  0  0  0  0  0  0  0
   -1.7641   -2.1863    0.7425 C   0  0  0  0  0  0  0  0  0  0  0  0
   -0.8469   -2.8672    1.1731 O   0  0  0  0  0  0  0  0  0  0  0  0
   -1.5125   -0.9222    0.2529 N   0  0  0  0  0  0  0  0  0  0  0  0
   -2.3135   -0.3501   -0.0120 H   0  0  0  0  0  0  0  0  0  0  0  0
   -0.1977   -0.2638    0.2735 C   0  0  1  0  0  0  0  0  0  0  0  0
    0.4495   -0.7452    1.0141 H   0  0  0  0  0  0  0  0  0  0  0  0
    0.4663   -0.4480   -1.1221 C   0  0  0  0  0  0  0  0  0  0  0  0
    1.1937   -1.2642   -1.0580 H   0  0  0  0  0  0  0  0  0  0  0  0
   -0.3166   -0.7948   -1.8061 H   0  0  0  0  0  0  0  0  0  0  0  0
    1.1525    0.7827   -1.7847 C   0  0  0  0  0  0  0  0  0  0  0  0
    0.8674    1.7207   -1.3083 H   0  0  0  0  0  0  0  0  0  0  0  0
    2.2367    0.6907   -1.6834 H   0  0  0  0  0  0  0  0  0  0  0  0
    0.8121    0.9438   -3.2660 C   0  0  0  0  0  0  0  0  0  0  0  0
    0.8060   -0.0404   -3.9844 O   0  0  0  0  0  0  0  0  0  0  0  0
    0.5603    2.1899   -3.7196 O   0  0  0  0  0  0  0  0  0  0  0  0
    0.3684    2.0801   -4.6632 H   0  0  0  0  0  0  0  0  0  0  0  0
   -0.3858    1.1921    0.7525 C   0  0  0  0  0  0  0  0  0  0  0  0
   -1.3234    1.8583    0.3290 O   0  0  0  0  0  0  0  0  0  0  0  0
    0.4671    1.7430    1.6912 N   0  0  0  0  0  0  0  0  0  0  0  0
    1.1885    1.1439    2.0829 H   0  0  0  0  0  0  0  0  0  0  0  0
    0.3087    3.0937    2.2177 C   0  0  0  0  0  0  0  0  0  0  0  0
   -0.6403    3.1864    2.7564 H   0  0  0  0  0  0  0  0  0  0  0  0
    1.1240    3.3292    2.9086 H   0  0  0  0  0  0  0  0  0  0  0  0
    0.3247    3.8270    1.4043 H   0  0  0  0  0  0  0  0  0  0  0  0
  1  2  1  0  0  0  0
  2  3  1  0  0  0  0
  2  4  1  0  0  0  0
  2  5  1  0  0  0  0
  5  6  2  0  0  0  0
  5  7  1  0  0  0  0
  7  8  1  0  0  0  0
  7  9  1  0  0  0  0
  9 10  1  0  0  0  0
  9 11  1  0  0  0  0
  9 21  1  0  0  0  0
 11 12  1  0  0  0  0
 11 13  1  0  0  0  0
 11 14  1  0  0  0  0
 14 15  1  0  0  0  0
 14 16  1  0  0  0  0
 14 17  1  0  0  0  0
 17 18  2  0  0  0  0
 17 19  1  0  0  0  0
 19 20  1  0  0  0  0
 21 22  2  0  0  0  0
 21 23  1  0  0  0  0
 23 24  1  0  0  0  0
 23 25  1  0  0  0  0
 25 26  1  0  0  0  0
 25 27  1  0  0  0  0
 25 28  1  0  0  0  0
M  END
$$$$

  -OEChem-03222214033D

 28 27  0     1  0  0  0  0  0999 V2000
   -3.2158   -3.7113    1.2138 H   0  0  0  0  0  0  0  0  0  0  0  0
   -3.1901   -2.7055    0.7856 C   0  0  0  0  0  0  0  0  0  0  0  0
   -3.8195   -2.0486    1.3908 H   0  0  0  0  0  0  0  0  0  0  0  0
   -3.5879   -2.7451   -0.2312 H   0  0  0  0  0  0  0  0  0  0  0  0
   -1.7664   -2.1829    0.7635 C   0  0  0  0  0  0  0  0  0  0  0  0
   -0.8547   -2.8637    1.2060 O   0  0  0  0  0  0  0  0  0  0  0  0
   -1.5053   -0.9274    0.2579 N   0  0  0  0  0  0  0  0  0  0  0  0
   -2.3016   -0.3536   -0.0180 H   0  0  0  0  0  0  0  0  0  0  0  0
   -0.1869   -0.2772    0.2711 C   0  0  1  0  0  0  0  0  0  0  0  0
    0.4637   -0.7534    1.0123 H   0  0  0  0  0  0  0  0  0  0  0  0
    0.4582   -0.4687   -1.1316 C   0  0  0  0  0  0  0  0  0  0  0  0
    1.1988   -1.2710   -1.0482 H   0  0  0  0  0  0  0  0  0  0  0  0
   -0.3128   -0.8452   -1.8130 H   0  0  0  0  0  0  0  0  0  0  0  0
    1.1456    0.7585   -1.7996 C   0  0  0  0  0  0  0  0  0  0  0  0
    1.1520    1.6411   -1.1598 H   0  0  0  0  0  0  0  0  0  0  0  0
    2.1931    0.5088   -1.9867 H   0  0  0  0  0  0  0  0  0  0  0  0
    0.5303    1.1532   -3.1415 C   0  0  0  0  0  0  0  0  0  0  0  0
    0.3319    0.2919   -3.9804 O   0  0  0  0  0  0  0  0  0  0  0  0
    0.2640    2.4601   -3.3473 O   0  0  0  0  0  0  0  0  0  0  0  0
   -0.1242    2.5019   -4.2341 H   0  0  0  0  0  0  0  0  0  0  0  0
   -0.3800    1.1839    0.7322 C   0  0  0  0  0  0  0  0  0  0  0  0
   -1.3160    1.8448    0.2969 O   0  0  0  0  0  0  0  0  0  0  0  0
    0.4699    1.7448    1.6676 N   0  0  0  0  0  0  0  0  0  0  0  0
    1.1861    1.1475    2.0713 H   0  0  0  0  0  0  0  0  0  0  0  0
    0.3009    3.0957    2.1897 C   0  0  0  0  0  0  0  0  0  0  0  0
   -0.6416    3.1776    2.7413 H   0  0  0  0  0  0  0  0  0  0  0  0
    1.1226    3.3451    2.8680 H   0  0  0  0  0  0  0  0  0  0  0  0
    0.2956    3.8254    1.3728 H   0  0  0  0  0  0  0  0  0  0  0  0
  1  2  1  0  0  0  0
  2  3  1  0  0  0  0
  2  4  1  0  0  0  0
  2  5  1  0  0  0  0
  5  6  2  0  0  0  0
  5  7  1  0  0  0  0
  7  8  1  0  0  0  0
  7  9  1  0  0  0  0
  9 10  1  0  0  0  0
  9 11  1  0  0  0  0
  9 21  1  0  0  0  0
 11 12  1  0  0  0  0
 11 13  1  0  0  0  0
 11 14  1  0  0  0  0
 14 15  1  0  0  0  0
 14 16  1  0  0  0  0
 14 17  1  0  0  0  0
 17 18  2  0  0  0  0
 17 19  1  0  0  0  0
 19 20  1  0  0  0  0
 21 22  2  0  0  0  0
 21 23  1  0  0  0  0
 23 24  1  0  0  0  0
 23 25  1  0  0  0  0
 25 26  1  0  0  0  0
 25 27  1  0  0  0  0
 25 28  1  0  0  0  0
M  END
$$$$

  -OEChem-03222214033D

 28 27  0     1  0  0  0  0  0999 V2000
   -3.2038   -3.7341    1.2619 H   0  0  0  0  0  0  0  0  0  0  0  0
   -3.1803   -2.7362    0.8155 C   0  0  0  0  0  0  0  0  0  0  0  0
   -3.8187   -2.0717    1.4026 H   0  0  0  0  0  0  0  0  0  0  0  0
   -3.5691   -2.7968   -0.2039 H   0  0  0  0  0  0  0  0  0  0  0  0
   -1.7600   -2.2044    0.7964 C   0  0  0  0  0  0  0  0  0  0  0  0
   -0.8463   -2.8722    1.2547 O   0  0  0  0  0  0  0  0  0  0  0  0
   -1.5041   -0.9552    0.2732 N   0  0  0  0  0  0  0  0  0  0  0  0
   -2.3011   -0.3956   -0.0289 H   0  0  0  0  0  0  0  0  0  0  0  0
   -0.1889   -0.2995    0.2730 C   0  0  1  0  0  0  0  0  0  0  0  0
    0.4735   -0.7665    1.0095 H   0  0  0  0  0  0  0  0  0  0  0  0
    0.4309   -0.4896   -1.1390 C   0  0  0  0  0  0  0  0  0  0  0  0
    1.1945   -1.2689   -1.0465 H   0  0  0  0  0  0  0  0  0  0  0  0
   -0.3261   -0.8967   -1.8177 H   0  0  0  0  0  0  0  0  0  0  0  0
    1.0963    0.7540   -1.7937 C   0  0  0  0  0  0  0  0  0  0  0  0
    1.3754    1.5109   -1.0589 H   0  0  0  0  0  0  0  0  0  0  0  0
    2.0293    0.4274   -2.2600 H   0  0  0  0  0  0  0  0  0  0  0  0
    0.2769    1.4059   -2.9086 C   0  0  0  0  0  0  0  0  0  0  0  0
   -0.3378    0.7097   -3.6978 O   0  0  0  0  0  0  0  0  0  0  0  0
    0.3083    2.7533   -2.9831 O   0  0  0  0  0  0  0  0  0  0  0  0
   -0.2837    2.9768   -3.7171 H   0  0  0  0  0  0  0  0  0  0  0  0
   -0.3868    1.1680    0.7147 C   0  0  0  0  0  0  0  0  0  0  0  0
   -1.3214    1.8221    0.2661 O   0  0  0  0  0  0  0  0  0  0  0  0
    0.4628    1.7469    1.6394 N   0  0  0  0  0  0  0  0  0  0  0  0
    1.1777    1.1578    2.0570 H   0  0  0  0  0  0  0  0  0  0  0  0
    0.2974    3.1107    2.1286 C   0  0  0  0  0  0  0  0  0  0  0  0
   -0.6473    3.2103    2.6734 H   0  0  0  0  0  0  0  0  0  0  0  0
    1.1169    3.3727    2.8048 H   0  0  0  0  0  0  0  0  0  0  0  0
    0.2994    3.8207    1.2945 H   0  0  0  0  0  0  0  0  0  0  0  0
  1  2  1  0  0  0  0
  2  3  1  0  0  0  0
  2  4  1  0  0  0  0
  2  5  1  0  0  0  0
  5  6  2  0  0  0  0
  5  7  1  0  0  0  0
  7  8  1  0  0  0  0
  7  9  1  0  0  0  0
  9 10  1  0  0  0  0
  9 11  1  0  0  0  0
  9 21  1  0  0  0  0
 11 12  1  0  0  0  0
 11 13  1  0  0  0  0
 11 14  1  0  0  0  0
 14 15  1  0  0  0  0
 14 16  1  0  0  0  0
 14 17  1  0  0  0  0
 17 18  2  0  0  0  0
 17 19  1  0  0  0  0
 19 20  1  0  0  0  0
 21 22  2  0  0  0  0
 21 23  1  0  0  0  0
 23 24  1  0  0  0  0
 23 25  1  0  0  0  0
 25 26  1  0  0  0  0
 25 27  1  0  0  0  0
 25 28  1  0  0  0  0
M  END
$$$$

  -OEChem-03222214033D

 28 27  0     1  0  0  0  0  0999 V2000
   -3.1865   -3.7503    1.2801 H   0  0  0  0  0  0  0  0  0  0  0  0
   -3.1713   -2.7621    0.8122 C   0  0  0  0  0  0  0  0  0  0  0  0
   -3.8307   -2.0958    1.3735 H   0  0  0  0  0  0  0  0  0  0  0  0
   -3.5406   -2.8513   -0.2123 H   0  0  0  0  0  0  0  0  0  0  0  0
   -1.7594   -2.2083    0.8058 C   0  0  0  0  0  0  0  0  0  0  0  0
   -0.8402   -2.8641    1.2706 O   0  0  0  0  0  0  0  0  0  0  0  0
   -1.5149   -0.9587    0.2779 N   0  0  0  0  0  0  0  0  0  0  0  0
   -2.3149   -0.4125   -0.0403 H   0  0  0  0  0  0  0  0  0  0  0  0
   -0.2052   -0.2933    0.2710 C   0  0  1  0  0  0  0  0  0  0  0  0
    0.4585   -0.7546    1.0097 H   0  0  0  0  0  0  0  0  0  0  0  0
    0.4194   -0.4917   -1.1363 C   0  0  0  0  0  0  0  0  0  0  0  0
    1.1944   -1.2584   -1.0343 H   0  0  0  0  0  0  0  0  0  0  0  0
   -0.3263   -0.9080   -1.8227 H   0  0  0  0  0  0  0  0  0  0  0  0
    1.0676    0.7592   -1.7821 C   0  0  0  0  0  0  0  0  0  0  0  0
    1.5503    1.3889   -1.0311 H   0  0  0  0  0  0  0  0  0  0  0  0
    1.8565    0.4214   -2.4588 H   0  0  0  0  0  0  0  0  0  0  0  0
    0.1136    1.6028   -2.6292 C   0  0  0  0  0  0  0  0  0  0  0  0
   -0.7253    1.0560   -3.3242 O   0  0  0  0  0  0  0  0  0  0  0  0
    0.2752    2.9418   -2.5811 O   0  0  0  0  0  0  0  0  0  0  0  0
   -0.4436    3.2971   -3.1257 H   0  0  0  0  0  0  0  0  0  0  0  0
   -0.3932    1.1778    0.7069 C   0  0  0  0  0  0  0  0  0  0  0  0
   -1.3374    1.8316    0.2789 O   0  0  0  0  0  0  0  0  0  0  0  0
    0.4674    1.7544    1.6229 N   0  0  0  0  0  0  0  0  0  0  0  0
    1.1939    1.1676    2.0229 H   0  0  0  0  0  0  0  0  0  0  0  0
    0.3192    3.1226    2.1051 C   0  0  0  0  0  0  0  0  0  0  0  0
   -0.6407    3.2471    2.6173 H   0  0  0  0  0  0  0  0  0  0  0  0
    1.1210    3.3651    2.8094 H   0  0  0  0  0  0  0  0  0  0  0  0
    0.3676    3.8301    1.2704 H   0  0  0  0  0  0  0  0  0  0  0  0
  1  2  1  0  0  0  0
  2  3  1  0  0  0  0
  2  4  1  0  0  0  0
  2  5  1  0  0  0  0
  5  6  2  0  0  0  0
  5  7  1  0  0  0  0
  7  8  1  0  0  0  0
  7  9  1  0  0  0  0
  9 10  1  0  0  0  0
  9 11  1  0  0  0  0
  9 21  1  0  0  0  0
 11 12  1  0  0  0  0
 11 13  1  0  0  0  0
 11 14  1  0  0  0  0
 14 15  1  0  0  0  0
 14 16  1  0  0  0  0
 14 17  1  0  0  0  0
 17 18  2  0  0  0  0
 17 19  1  0  0  0  0
 19 20  1  0  0  0  0
 21 22  2  0  0  0  0
 21 23  1  0  0  0  0
 23 24  1  0  0  0  0
 23 25  1  0  0  0  0
 25 26  1  0  0  0  0
 25 27  1  0  0  0  0
 25 28  1  0  0  0  0
M  END
$$$$

  -OEChem-03222214033D

 28 27  0     1  0  0  0  0  0999 V2000
   -3.1687   -3.7531    1.2882 H   0  0  0  0  0  0  0  0  0  0  0  0
   -3.1667   -2.7649    0.8199 C   0  0  0  0  0  0  0  0  0  0  0  0
   -3.8206   -2.1025    1.3924 H   0  0  0  0  0  0  0  0  0  0  0  0
   -3.5529   -2.8564   -0.1982 H   0  0  0  0  0  0  0  0  0  0  0  0
   -1.7574   -2.2044    0.7895 C   0  0  0  0  0  0  0  0  0  0  0  0
   -0.8245   -2.8655    1.2182 O   0  0  0  0  0  0  0  0  0  0  0  0
   -1.5301   -0.9462    0.2749 N   0  0  0  0  0  0  0  0  0  0  0  0
   -2.3410   -0.3951   -0.0055 H   0  0  0  0  0  0  0  0  0  0  0  0
   -0.2278   -0.2668    0.2618 C   0  0  1  0  0  0  0  0  0  0  0  0
    0.4300   -0.7274    1.0063 H   0  0  0  0  0  0  0  0  0  0  0  0
    0.4244   -0.4812   -1.1315 C   0  0  0  0  0  0  0  0  0  0  0  0
    1.1977   -1.2475   -1.0156 H   0  0  0  0  0  0  0  0  0  0  0  0
   -0.3177   -0.8964   -1.8231 H   0  0  0  0  0  0  0  0  0  0  0  0
    1.0665    0.7570   -1.7998 C   0  0  0  0  0  0  0  0  0  0  0  0
    1.7136    1.2755   -1.0876 H   0  0  0  0  0  0  0  0  0  0  0  0
    1.6991    0.4222   -2.6258 H   0  0  0  0  0  0  0  0  0  0  0  0
    0.0596    1.7490   -2.3808 C   0  0  0  0  0  0  0  0  0  0  0  0
   -0.8698    1.3297   -3.0483 O   0  0  0  0  0  0  0  0  0  0  0  0
    0.2643    3.0597   -2.1316 O   0  0  0  0  0  0  0  0  0  0  0  0
   -0.5137    3.5040   -2.5022 H   0  0  0  0  0  0  0  0  0  0  0  0
   -0.4041    1.2006    0.7152 C   0  0  0  0  0  0  0  0  0  0  0  0
   -1.3898    1.8398    0.3658 O   0  0  0  0  0  0  0  0  0  0  0  0
    0.4730    1.7654    1.6228 N   0  0  0  0  0  0  0  0  0  0  0  0
    1.2364    1.1894    1.9658 H   0  0  0  0  0  0  0  0  0  0  0  0
    0.3289    3.1244    2.1313 C   0  0  0  0  0  0  0  0  0  0  0  0
   -0.6252    3.2390    2.6569 H   0  0  0  0  0  0  0  0  0  0  0  0
    1.1382    3.3550    2.8306 H   0  0  0  0  0  0  0  0  0  0  0  0
    0.3669    3.8465    1.3085 H   0  0  0  0  0  0  0  0  0  0  0  0
  1  2  1  0  0  0  0
  2  3  1  0  0  0  0
  2  4  1  0  0  0  0
  2  5  1  0  0  0  0
  5  6  2  0  0  0  0
  5  7  1  0  0  0  0
  7  8  1  0  0  0  0
  7  9  1  0  0  0  0
  9 10  1  0  0  0  0
  9 11  1  0  0  0  0
  9 21  1  0  0  0  0
 11 12  1  0  0  0  0
 11 13  1  0  0  0  0
 11 14  1  0  0  0  0
 14 15  1  0  0  0  0
 14 16  1  0  0  0  0
 14 17  1  0  0  0  0
 17 18  2  0  0  0  0
 17 19  1  0  0  0  0
 19 20  1  0  0  0  0
 21 22  2  0  0  0  0
 21 23  1  0  0  0  0
 23 24  1  0  0  0  0
 23 25  1  0  0  0  0
 25 26  1  0  0  0  0
 25 27  1  0  0  0  0
 25 28  1  0  0  0  0
M  END
$$$$

  -OEChem-03222214033D

 28 27  0     1  0  0  0  0  0999 V2000
   -3.1264   -3.7698    1.3049 H   0  0  0  0  0  0  0  0  0  0  0  0
   -3.1469   -2.7758    0.8498 C   0  0  0  0  0  0  0  0  0  0  0  0
   -3.7812   -2.1242    1.4556 H   0  0  0  0  0  0  0  0  0  0  0  0
   -3.5715   -2.8558   -0.1538 H   0  0  0  0  0  0  0  0  0  0  0  0
   -1.7432   -2.2063    0.7732 C   0  0  0  0  0  0  0  0  0  0  0  0
   -0.7893   -2.8715    1.1460 O   0  0  0  0  0  0  0  0  0  0  0  0
   -1.5458   -0.9330    0.2836 N   0  0  0  0  0  0  0  0  0  0  0  0
   -2.3722   -0.3797    0.0579 H   0  0  0  0  0  0  0  0  0  0  0  0
   -0.2543   -0.2333    0.2599 C   0  0  1  0  0  0  0  0  0  0  0  0
    0.4059   -0.6941    1.0024 H   0  0  0  0  0  0  0  0  0  0  0  0
    0.4168   -0.4571   -1.1259 C   0  0  0  0  0  0  0  0  0  0  0  0
    1.1837   -1.2290   -1.0038 H   0  0  0  0  0  0  0  0  0  0  0  0
   -0.3336   -0.8710   -1.8093 H   0  0  0  0  0  0  0  0  0  0  0  0
    1.0551    0.7526   -1.8485 C   0  0  0  0  0  0  0  0  0  0  0  0
    1.8656    1.1503   -1.2320 H   0  0  0  0  0  0  0  0  0  0  0  0
    1.4966    0.4131   -2.7892 H   0  0  0  0  0  0  0  0  0  0  0  0
    0.0948    1.8930   -2.1730 C   0  0  0  0  0  0  0  0  0  0  0  0
   -0.9054    1.6413   -2.8208 O   0  0  0  0  0  0  0  0  0  0  0  0
    0.4061    3.1300   -1.7308 O   0  0  0  0  0  0  0  0  0  0  0  0
   -0.3695    3.6684   -1.9538 H   0  0  0  0  0  0  0  0  0  0  0  0
   -0.4294    1.2223    0.7490 C   0  0  0  0  0  0  0  0  0  0  0  0
   -1.4490    1.8468    0.4769 O   0  0  0  0  0  0  0  0  0  0  0  0
    0.4672    1.7702    1.6477 N   0  0  0  0  0  0  0  0  0  0  0  0
    1.2699    1.2096    1.9179 H   0  0  0  0  0  0  0  0  0  0  0  0
    0.3225    3.1107    2.2018 C   0  0  0  0  0  0  0  0  0  0  0  0
   -0.6250    3.2019    2.7435 H   0  0  0  0  0  0  0  0  0  0  0  0
    1.1398    3.3239    2.8976 H   0  0  0  0  0  0  0  0  0  0  0  0
    0.3448    3.8580    1.4015 H   0  0  0  0  0  0  0  0  0  0  0  0
  1  2  1  0  0  0  0
  2  3  1  0  0  0  0
  2  4  1  0  0  0  0
  2  5  1  0  0  0  0
  5  6  2  0  0  0  0
  5  7  1  0  0  0  0
  7  8  1  0  0  0  0
  7  9  1  0  0  0  0
  9 10  1  0  0  0  0
  9 11  1  0  0  0  0
  9 21  1  0  0  0  0
 11 12  1  0  0  0  0
 11 13  1  0  0  0  0
 11 14  1  0  0  0  0
 14 15  1  0  0  0  0
 14 16  1  0  0  0  0
 14 17  1  0  0  0  0
 17 18  2  0  0  0  0
 17 19  1  0  0  0  0
 19 20  1  0  0  0  0
 21 22  2  0  0  0  0
 21 23  1  0  0  0  0
 23 24  1  0  0  0  0
 23 25  1  0  0  0  0
 25 26  1  0  0  0  0
 25 27  1  0  0  0  0
 25 28  1  0  0  0  0
M  END
$$$$

  -OEChem-03222214033D

 28 27  0     1  0  0  0  0  0999 V2000
   -3.0738   -3.8010    1.3097 H   0  0  0  0  0  0  0  0  0  0  0  0
   -3.1192   -2.7967    0.8790 C   0  0  0  0  0  0  0  0  0  0  0  0
   -3.7386   -2.1661    1.5215 H   0  0  0  0  0  0  0  0  0  0  0  0
   -3.5776   -2.8576   -0.1110 H   0  0  0  0  0  0  0  0  0  0  0  0
   -1.7244   -2.2111    0.7682 C   0  0  0  0  0  0  0  0  0  0  0  0
   -0.7521   -2.8747    1.0933 O   0  0  0  0  0  0  0  0  0  0  0  0
   -1.5563   -0.9249    0.3020 N   0  0  0  0  0  0  0  0  0  0  0  0
   -2.3967   -0.3751    0.1240 H   0  0  0  0  0  0  0  0  0  0  0  0
   -0.2773   -0.2014    0.2743 C   0  0  1  0  0  0  0  0  0  0  0  0
    0.3867   -0.6589    1.0155 H   0  0  0  0  0  0  0  0  0  0  0  0
    0.4086   -0.4347   -1.1067 C   0  0  0  0  0  0  0  0  0  0  0  0
    1.1680   -1.2128   -0.9763 H   0  0  0  0  0  0  0  0  0  0  0  0
   -0.3501   -0.8548   -1.7765 H   0  0  0  0  0  0  0  0  0  0  0  0
    1.0473    0.7361   -1.8965 C   0  0  0  0  0  0  0  0  0  0  0  0
    1.9973    0.9921   -1.4200 H   0  0  0  0  0  0  0  0  0  0  0  0
    1.2754    0.3988   -2.9113 H   0  0  0  0  0  0  0  0  0  0  0  0
    0.2328    2.0200   -1.9993 C   0  0  0  0  0  0  0  0  0  0  0  0
   -0.7969    1.9880   -2.6473 O   0  0  0  0  0  0  0  0  0  0  0  0
    0.6967    3.1316   -1.3899 O   0  0  0  0  0  0  0  0  0  0  0  0
   -0.0088    3.7857   -1.5185 H   0  0  0  0  0  0  0  0  0  0  0  0
   -0.4652    1.2415    0.7944 C   0  0  0  0  0  0  0  0  0  0  0  0
   -1.5027    1.8519    0.5622 O   0  0  0  0  0  0  0  0  0  0  0  0
    0.4390    1.7827    1.6904 N   0  0  0  0  0  0  0  0  0  0  0  0
    1.2677    1.2390    1.9126 H   0  0  0  0  0  0  0  0  0  0  0  0
    0.2791    3.1011    2.2919 C   0  0  0  0  0  0  0  0  0  0  0  0
   -0.6683    3.1622    2.8378 H   0  0  0  0  0  0  0  0  0  0  0  0
    1.0944    3.2984    2.9945 H   0  0  0  0  0  0  0  0  0  0  0  0
    0.2921    3.8774    1.5197 H   0  0  0  0  0  0  0  0  0  0  0  0
  1  2  1  0  0  0  0
  2  3  1  0  0  0  0
  2  4  1  0  0  0  0
  2  5  1  0  0  0  0
  5  6  2  0  0  0  0
  5  7  1  0  0  0  0
  7  8  1  0  0  0  0
  7  9  1  0  0  0  0
  9 10  1  0  0  0  0
  9 11  1  0  0  0  0
  9 21  1  0  0  0  0
 11 12  1  0  0  0  0
 11 13  1  0  0  0  0
 11 14  1  0  0  0  0
 14 15  1  0  0  0  0
 14 16  1  0  0  0  0
 14 17  1  0  0  0  0
 17 18  2  0  0  0  0
 17 19  1  0  0  0  0
 19 20  1  0  0  0  0
 21 22  2  0  0  0  0
 21 23  1  0  0  0  0
 23 24  1  0  0  0  0
 23 25  1  0  0  0  0
 25 26  1  0  0  0  0
 25 27  1  0  0  0  0
 25 28  1  0  0  0  0
M  END
$$$$

  -OEChem-03222214033D

 28 27  0     1  0  0  0  0  0999 V2000
   -3.1849   -3.7734    1.1335 H   0  0  0  0  0  0  0  0  0  0  0  0
   -3.1987   -2.7569    0.7303 C   0  0  0  0  0  0  0  0  0  0  0  0
   -3.8373   -2.1357    1.3630 H   0  0  0  0  0  0  0  0  0  0  0  0
   -3.6142   -2.7837   -0.2799 H   0  0  0  0  0  0  0  0  0  0  0  0
   -1.7930   -2.1884    0.6967 C   0  0  0  0  0  0  0  0  0  0  0  0
   -0.8478   -2.8641    1.0724 O   0  0  0  0  0  0  0  0  0  0  0  0
   -1.5833   -0.9039    0.2426 N   0  0  0  0  0  0  0  0  0  0  0  0
   -2.4067   -0.3383    0.0357 H   0  0  0  0  0  0  0  0  0  0  0  0
   -0.2985   -0.1922    0.3087 C   0  0  1  0  0  0  0  0  0  0  0  0
    0.3076   -0.6497    1.0979 H   0  0  0  0  0  0  0  0  0  0  0  0
    0.4786   -0.4451   -1.0221 C   0  0  0  0  0  0  0  0  0  0  0  0
    1.1997   -1.2480   -0.8362 H   0  0  0  0  0  0  0  0  0  0  0  0
   -0.2508   -0.8522   -1.7314 H   0  0  0  0  0  0  0  0  0  0  0  0
    1.2047    0.6756   -1.8164 C   0  0  0  0  0  0  0  0  0  0  0  0
    2.2310    0.7294   -1.4437 H   0  0  0  0  0  0  0  0  0  0  0  0
    1.2652    0.3782   -2.8673 H   0  0  0  0  0  0  0  0  0  0  0  0
    0.6577    2.0959   -1.7618 C   0  0  0  0  0  0  0  0  0  0  0  0
   -0.2900    2.3646   -2.4754 O   0  0  0  0  0  0  0  0  0  0  0  0
    1.2749    3.0005   -0.9725 O   0  0  0  0  0  0  0  0  0  0  0  0
    0.7431    3.8058   -1.0752 H   0  0  0  0  0  0  0  0  0  0  0  0
   -0.5315    1.2482    0.8144 C   0  0  0  0  0  0  0  0  0  0  0  0
   -1.5524    1.8527    0.5076 O   0  0  0  0  0  0  0  0  0  0  0  0
    0.2984    1.7899    1.7792 N   0  0  0  0  0  0  0  0  0  0  0  0
    1.1193    1.2561    2.0487 H   0  0  0  0  0  0  0  0  0  0  0  0
    0.0714    3.0918    2.3944 C   0  0  0  0  0  0  0  0  0  0  0  0
   -0.8914    3.1066    2.9162 H   0  0  0  0  0  0  0  0  0  0  0  0
    0.8608    3.3097    3.1202 H   0  0  0  0  0  0  0  0  0  0  0  0
    0.0728    3.8805    1.6349 H   0  0  0  0  0  0  0  0  0  0  0  0
  1  2  1  0  0  0  0
  2  3  1  0  0  0  0
  2  4  1  0  0  0  0
  2  5  1  0  0  0  0
  5  6  2  0  0  0  0
  5  7  1  0  0  0  0
  7  8  1  0  0  0  0
  7  9  1  0  0  0  0
  9 10  1  0  0  0  0
  9 11  1  0  0  0  0
  9 21  1  0  0  0  0
 11 12  1  0  0  0  0
 11 13  1  0  0  0  0
 11 14  1  0  0  0  0
 14 15  1  0  0  0  0
 14 16  1  0  0  0  0
 14 17  1  0  0  0  0
 17 18  2  0  0  0  0
 17 19  1  0  0  0  0
 19 20  1  0  0  0  0
 21 22  2  0  0  0  0
 21 23  1  0  0  0  0
 23 24  1  0  0  0  0
 23 25  1  0  0  0  0
 25 26  1  0  0  0  0
 25 27  1  0  0  0  0
 25 28  1  0  0  0  0
M  END
$$$$

  -OEChem-03222214033D

 28 27  0     1  0  0  0  0  0999 V2000
   -3.2134   -3.7746    0.9178 H   0  0  0  0  0  0  0  0  0  0  0  0
   -3.1879   -2.7512    0.5330 C   0  0  0  0  0  0  0  0  0  0  0  0
   -3.8442   -2.1282    1.1457 H   0  0  0  0  0  0  0  0  0  0  0  0
   -3.5539   -2.7515   -0.4966 H   0  0  0  0  0  0  0  0  0  0  0  0
   -1.7713   -2.2109    0.5765 C   0  0  0  0  0  0  0  0  0  0  0  0
   -0.8510   -2.9280    0.9357 O   0  0  0  0  0  0  0  0  0  0  0  0
   -1.5229   -0.9080    0.2015 N   0  0  0  0  0  0  0  0  0  0  0  0
   -2.3304   -0.3109    0.0225 H   0  0  0  0  0  0  0  0  0  0  0  0
   -0.2285   -0.2269    0.3598 C   0  0  1  0  0  0  0  0  0  0  0  0
    0.3590   -0.7341    1.1329 H   0  0  0  0  0  0  0  0  0  0  0  0
    0.5586   -0.3877   -0.9828 C   0  0  0  0  0  0  0  0  0  0  0  0
    1.2561   -1.2212   -0.8470 H   0  0  0  0  0  0  0  0  0  0  0  0
   -0.1688   -0.7277   -1.7282 H   0  0  0  0  0  0  0  0  0  0  0  0
    1.3307    0.7619   -1.6968 C   0  0  0  0  0  0  0  0  0  0  0  0
    2.3995    0.5814   -1.5490 H   0  0  0  0  0  0  0  0  0  0  0  0
    1.1472    0.6842   -2.7721 H   0  0  0  0  0  0  0  0  0  0  0  0
    1.0798    2.2089   -1.2989 C   0  0  0  0  0  0  0  0  0  0  0  0
    1.8204    2.7211   -0.4771 O   0  0  0  0  0  0  0  0  0  0  0  0
    0.0585    2.8582   -1.8955 O   0  0  0  0  0  0  0  0  0  0  0  0
   -0.0024    3.7149   -1.4467 H   0  0  0  0  0  0  0  0  0  0  0  0
   -0.5105    1.1800    0.9348 C   0  0  0  0  0  0  0  0  0  0  0  0
   -1.5081    1.7991    0.5766 O   0  0  0  0  0  0  0  0  0  0  0  0
    0.2531    1.6812    1.9727 N   0  0  0  0  0  0  0  0  0  0  0  0
    1.1296    1.2064    2.1693 H   0  0  0  0  0  0  0  0  0  0  0  0
    0.0499    3.0122    2.5316 C   0  0  0  0  0  0  0  0  0  0  0  0
   -0.9769    3.1244    2.8954 H   0  0  0  0  0  0  0  0  0  0  0  0
    0.7313    3.1773    3.3716 H   0  0  0  0  0  0  0  0  0  0  0  0
    0.2417    3.7783    1.7731 H   0  0  0  0  0  0  0  0  0  0  0  0
  1  2  1  0  0  0  0
  2  3  1  0  0  0  0
  2  4  1  0  0  0  0
  2  5  1  0  0  0  0
  5  6  2  0  0  0  0
  5  7  1  0  0  0  0
  7  8  1  0  0  0  0
  7  9  1  0  0  0  0
  9 10  1  0  0  0  0
  9 11  1  0  0  0  0
  9 21  1  0  0  0  0
 11 12  1  0  0  0  0
 11 13  1  0  0  0  0
 11 14  1  0  0  0  0
 14 15  1  0  0  0  0
 14 16  1  0  0  0  0
 14 17  1  0  0  0  0
 17 18  2  0  0  0  0
 17 19  1  0  0  0  0
 19 20  1  0  0  0  0
 21 22  2  0  0  0  0
 21 23  1  0  0  0  0
 23 24  1  0  0  0  0
 23 25  1  0  0  0  0
 25 26  1  0  0  0  0
 25 27  1  0  0  0  0
 25 28  1  0  0  0  0
M  END
$$$$

  -OEChem-03222214033D

 28 27  0     1  0  0  0  0  0999 V2000
   -2.9218   -3.9714    0.8462 H   0  0  0  0  0  0  0  0  0  0  0  0
   -2.9805   -2.9221    0.5439 C   0  0  0  0  0  0  0  0  0  0  0  0
   -3.5971   -2.3816    1.2661 H   0  0  0  0  0  0  0  0  0  0  0  0
   -3.4501   -2.8647   -0.4409 H   0  0  0  0  0  0  0  0  0  0  0  0
   -1.5913   -2.3153    0.4911 C   0  0  0  0  0  0  0  0  0  0  0  0
   -0.6105   -3.0081    0.7105 O   0  0  0  0  0  0  0  0  0  0  0  0
   -1.4364   -0.9786    0.1920 N   0  0  0  0  0  0  0  0  0  0  0  0
   -2.2822   -0.4106    0.1363 H   0  0  0  0  0  0  0  0  0  0  0  0
   -0.1638   -0.2464    0.2956 C   0  0  1  0  0  0  0  0  0  0  0  0
    0.5245   -0.7724    0.9663 H   0  0  0  0  0  0  0  0  0  0  0  0
    0.4746   -0.2468   -1.1327 C   0  0  0  0  0  0  0  0  0  0  0  0
    1.2345   -1.0354   -1.1231 H   0  0  0  0  0  0  0  0  0  0  0  0
   -0.2949   -0.5869   -1.8349 H   0  0  0  0  0  0  0  0  0  0  0  0
    1.1183    0.9974   -1.8155 C   0  0  0  0  0  0  0  0  0  0  0  0
    2.1502    0.7444   -2.0751 H   0  0  0  0  0  0  0  0  0  0  0  0
    0.5936    1.1690   -2.7597 H   0  0  0  0  0  0  0  0  0  0  0  0
    1.1628    2.3361   -1.0943 C   0  0  0  0  0  0  0  0  0  0  0  0
    2.0259    2.5033   -0.2494 O   0  0  0  0  0  0  0  0  0  0  0  0
    0.2667    3.2818   -1.4461 O   0  0  0  0  0  0  0  0  0  0  0  0
    0.4227    4.0270   -0.8476 H   0  0  0  0  0  0  0  0  0  0  0  0
   -0.4904    1.0944    0.9946 C   0  0  0  0  0  0  0  0  0  0  0  0
   -1.5414    1.6760    0.7425 O   0  0  0  0  0  0  0  0  0  0  0  0
    0.3137    1.5739    2.0119 N   0  0  0  0  0  0  0  0  0  0  0  0
    1.2433    1.1683    2.0852 H   0  0  0  0  0  0  0  0  0  0  0  0
    0.0592    2.8358    2.6954 C   0  0  0  0  0  0  0  0  0  0  0  0
   -0.9401    2.8361    3.1437 H   0  0  0  0  0  0  0  0  0  0  0  0
    0.7929    2.9873    3.4931 H   0  0  0  0  0  0  0  0  0  0  0  0
    0.1317    3.6727    1.9932 H   0  0  0  0  0  0  0  0  0  0  0  0
  1  2  1  0  0  0  0
  2  3  1  0  0  0  0
  2  4  1  0  0  0  0
  2  5  1  0  0  0  0
  5  6  2  0  0  0  0
  5  7  1  0  0  0  0
  7  8  1  0  0  0  0
  7  9  1  0  0  0  0
  9 10  1  0  0  0  0
  9 11  1  0  0  0  0
  9 21  1  0  0  0  0
 11 12  1  0  0  0  0
 11 13  1  0  0  0  0
 11 14  1  0  0  0  0
 14 15  1  0  0  0  0
 14 16  1  0  0  0  0
 14 17  1  0  0  0  0
 17 18  2  0  0  0  0
 17 19  1  0  0  0  0
 19 20  1  0  0  0  0
 21 22  2  0  0  0  0
 21 23  1  0  0  0  0
 23 24  1  0  0  0  0
 23 25  1  0  0  0  0
 25 26  1  0  0  0  0
 25 27  1  0  0  0  0
 25 28  1  0  0  0  0
M  END
$$$$

  -OEChem-03222214033D

 28 27  0     1  0  0  0  0  0999 V2000
   -3.0980   -3.7483    1.3542 H   0  0  0  0  0  0  0  0  0  0  0  0
   -3.1139   -2.7568    0.8928 C   0  0  0  0  0  0  0  0  0  0  0  0
   -3.7300   -2.0935    1.5047 H   0  0  0  0  0  0  0  0  0  0  0  0
   -3.5557   -2.8375   -0.1032 H   0  0  0  0  0  0  0  0  0  0  0  0
   -1.7047   -2.2057    0.7891 C   0  0  0  0  0  0  0  0  0  0  0  0
   -0.7513   -2.8894    1.1266 O   0  0  0  0  0  0  0  0  0  0  0  0
   -1.5006   -0.9286    0.3130 N   0  0  0  0  0  0  0  0  0  0  0  0
   -2.3248   -0.3457    0.1623 H   0  0  0  0  0  0  0  0  0  0  0  0
   -0.2022   -0.2360    0.3246 C   0  0  1  0  0  0  0  0  0  0  0  0
    0.4872   -0.6937    1.0423 H   0  0  0  0  0  0  0  0  0  0  0  0
    0.3887   -0.3958   -1.1124 C   0  0  0  0  0  0  0  0  0  0  0  0
    1.1387   -1.1897   -1.0310 H   0  0  0  0  0  0  0  0  0  0  0  0
   -0.3951   -0.7920   -1.7676 H   0  0  0  0  0  0  0  0  0  0  0  0
    1.0523    0.7649   -1.9090 C   0  0  0  0  0  0  0  0  0  0  0  0
    1.9365    0.3725   -2.4180 H   0  0  0  0  0  0  0  0  0  0  0  0
    0.3461    1.0692   -2.6880 H   0  0  0  0  0  0  0  0  0  0  0  0
    1.4713    2.0393   -1.1859 C   0  0  0  0  0  0  0  0  0  0  0  0
    0.9993    3.1035   -1.5379 O   0  0  0  0  0  0  0  0  0  0  0  0
    2.4294    1.9332   -0.2387 O   0  0  0  0  0  0  0  0  0  0  0  0
    2.5951    2.8491    0.0349 H   0  0  0  0  0  0  0  0  0  0  0  0
   -0.5112    1.1912    0.8371 C   0  0  0  0  0  0  0  0  0  0  0  0
   -1.5377    1.7586    0.4774 O   0  0  0  0  0  0  0  0  0  0  0  0
    0.2868    1.7932    1.7927 N   0  0  0  0  0  0  0  0  0  0  0  0
    1.1557    1.3248    2.0359 H   0  0  0  0  0  0  0  0  0  0  0  0
    0.0356    3.1339    2.3079 C   0  0  0  0  0  0  0  0  0  0  0  0
   -0.9473    3.1819    2.7886 H   0  0  0  0  0  0  0  0  0  0  0  0
    0.7948    3.4039    3.0481 H   0  0  0  0  0  0  0  0  0  0  0  0
    0.0663    3.8682    1.4958 H   0  0  0  0  0  0  0  0  0  0  0  0
  1  2  1  0  0  0  0
  2  3  1  0  0  0  0
  2  4  1  0  0  0  0
  2  5  1  0  0  0  0
  5  6  2  0  0  0  0
  5  7  1  0  0  0  0
  7  8  1  0  0  0  0
  7  9  1  0  0  0  0
  9 10  1  0  0  0  0
  9 11  1  0  0  0  0
  9 21  1  0  0  0  0
 11 12  1  0  0  0  0
 11 13  1  0  0  0  0
 11 14  1  0  0  0  0
 14 15  1  0  0  0  0
 14 16  1  0  0  0  0
 14 17  1  0  0  0  0
 17 18  2  0  0  0  0
 17 19  1  0  0  0  0
 19 20  1  0  0  0  0
 21 22  2  0  0  0  0
 21 23  1  0  0  0  0
 23 24  1  0  0  0  0
 23 25  1  0  0  0  0
 25 26  1  0  0  0  0
 25 27  1  0  0  0  0
 25 28  1  0  0  0  0
M  END
$$$$

  -OEChem-03222214033D

 28 27  0     1  0  0  0  0  0999 V2000
   -3.2614   -3.6906    1.2261 H   0  0  0  0  0  0  0  0  0  0  0  0
   -3.2138   -2.6930    0.7809 C   0  0  0  0  0  0  0  0  0  0  0  0
   -3.8181   -2.0097    1.3824 H   0  0  0  0  0  0  0  0  0  0  0  0
   -3.6244   -2.7378   -0.2305 H   0  0  0  0  0  0  0  0  0  0  0  0
   -1.7769   -2.2096    0.7343 C   0  0  0  0  0  0  0  0  0  0  0  0
   -0.8723   -2.9370    1.1114 O   0  0  0  0  0  0  0  0  0  0  0  0
   -1.4950   -0.9449    0.2651 N   0  0  0  0  0  0  0  0  0  0  0  0
   -2.2859   -0.3279    0.0789 H   0  0  0  0  0  0  0  0  0  0  0  0
   -0.1718   -0.3060    0.3458 C   0  0  1  0  0  0  0  0  0  0  0  0
    0.4658   -0.7895    1.0943 H   0  0  0  0  0  0  0  0  0  0  0  0
    0.4791   -0.4676   -1.0624 C   0  0  0  0  0  0  0  0  0  0  0  0
    1.2041   -1.2823   -0.9613 H   0  0  0  0  0  0  0  0  0  0  0  0
   -0.2796   -0.8203   -1.7696 H   0  0  0  0  0  0  0  0  0  0  0  0
    1.2130    0.7079   -1.7633 C   0  0  0  0  0  0  0  0  0  0  0  0
    1.9464    0.3055   -2.4669 H   0  0  0  0  0  0  0  0  0  0  0  0
    0.4672    1.2518   -2.3506 H   0  0  0  0  0  0  0  0  0  0  0  0
    1.9101    1.7463   -0.8903 C   0  0  0  0  0  0  0  0  0  0  0  0
    2.5967    1.3541    0.0392 O   0  0  0  0  0  0  0  0  0  0  0  0
    1.7626    3.0501   -1.2060 O   0  0  0  0  0  0  0  0  0  0  0  0
    2.2824    3.5357   -0.5487 H   0  0  0  0  0  0  0  0  0  0  0  0
   -0.4511    1.1370    0.8353 C   0  0  0  0  0  0  0  0  0  0  0  0
   -1.4169    1.7531    0.3938 O   0  0  0  0  0  0  0  0  0  0  0  0
    0.3136    1.7160    1.8308 N   0  0  0  0  0  0  0  0  0  0  0  0
    1.2055    1.2660    2.0317 H   0  0  0  0  0  0  0  0  0  0  0  0
    0.1027    3.0803    2.2981 C   0  0  0  0  0  0  0  0  0  0  0  0
   -0.9027    3.1896    2.7180 H   0  0  0  0  0  0  0  0  0  0  0  0
    0.8297    3.3296    3.0770 H   0  0  0  0  0  0  0  0  0  0  0  0
    0.2188    3.7907    1.4731 H   0  0  0  0  0  0  0  0  0  0  0  0
  1  2  1  0  0  0  0
  2  3  1  0  0  0  0
  2  4  1  0  0  0  0
  2  5  1  0  0  0  0
  5  6  2  0  0  0  0
  5  7  1  0  0  0  0
  7  8  1  0  0  0  0
  7  9  1  0  0  0  0
  9 10  1  0  0  0  0
  9 11  1  0  0  0  0
  9 21  1  0  0  0  0
 11 12  1  0  0  0  0
 11 13  1  0  0  0  0
 11 14  1  0  0  0  0
 14 15  1  0  0  0  0
 14 16  1  0  0  0  0
 14 17  1  0  0  0  0
 17 18  2  0  0  0  0
 17 19  1  0  0  0  0
 19 20  1  0  0  0  0
 21 22  2  0  0  0  0
 21 23  1  0  0  0  0
 23 24  1  0  0  0  0
 23 25  1  0  0  0  0
 25 26  1  0  0  0  0
 25 27  1  0  0  0  0
 25 28  1  0  0  0  0
M  END
$$$$

  -OEChem-03222214033D

 28 27  0     1  0  0  0  0  0999 V2000
   -3.2505   -3.7118    1.2446 H   0  0  0  0  0  0  0  0  0  0  0  0
   -3.2078   -2.7221    0.7815 C   0  0  0  0  0  0  0  0  0  0  0  0
   -3.8282   -2.0348    1.3617 H   0  0  0  0  0  0  0  0  0  0  0  0
   -3.6040   -2.7907   -0.2345 H   0  0  0  0  0  0  0  0  0  0  0  0
   -1.7757   -2.2234    0.7459 C   0  0  0  0  0  0  0  0  0  0  0  0
   -0.8698   -2.9343    1.1498 O   0  0  0  0  0  0  0  0  0  0  0  0
   -1.5007   -0.9651    0.2551 N   0  0  0  0  0  0  0  0  0  0  0  0
   -2.2951   -0.3622    0.0416 H   0  0  0  0  0  0  0  0  0  0  0  0
   -0.1828   -0.3150    0.3266 C   0  0  1  0  0  0  0  0  0  0  0  0
    0.4568   -0.7885    1.0798 H   0  0  0  0  0  0  0  0  0  0  0  0
    0.4788   -0.4740   -1.0731 C   0  0  0  0  0  0  0  0  0  0  0  0
    1.2126   -1.2823   -0.9840 H   0  0  0  0  0  0  0  0  0  0  0  0
   -0.2752   -0.8164   -1.7902 H   0  0  0  0  0  0  0  0  0  0  0  0
    1.1874    0.7417   -1.7228 C   0  0  0  0  0  0  0  0  0  0  0  0
    1.7619    0.4009   -2.5879 H   0  0  0  0  0  0  0  0  0  0  0  0
    0.4151    1.4235   -2.0917 H   0  0  0  0  0  0  0  0  0  0  0  0
    2.1175    1.5618   -0.8291 C   0  0  0  0  0  0  0  0  0  0  0  0
    2.6687    1.0197    0.1155 O   0  0  0  0  0  0  0  0  0  0  0  0
    2.3061    2.8590   -1.1494 O   0  0  0  0  0  0  0  0  0  0  0  0
    2.9331    3.1986   -0.4936 H   0  0  0  0  0  0  0  0  0  0  0  0
   -0.4438    1.1391    0.7885 C   0  0  0  0  0  0  0  0  0  0  0  0
   -1.3918    1.7640    0.3223 O   0  0  0  0  0  0  0  0  0  0  0  0
    0.3332    1.7262    1.7693 N   0  0  0  0  0  0  0  0  0  0  0  0
    1.2063    1.2511    1.9950 H   0  0  0  0  0  0  0  0  0  0  0  0
    0.1588    3.1073    2.2008 C   0  0  0  0  0  0  0  0  0  0  0  0
   -0.8577    3.2668    2.5759 H   0  0  0  0  0  0  0  0  0  0  0  0
    0.8618    3.3432    3.0056 H   0  0  0  0  0  0  0  0  0  0  0  0
    0.3390    3.7946    1.3677 H   0  0  0  0  0  0  0  0  0  0  0  0
  1  2  1  0  0  0  0
  2  3  1  0  0  0  0
  2  4  1  0  0  0  0
  2  5  1  0  0  0  0
  5  6  2  0  0  0  0
  5  7  1  0  0  0  0
  7  8  1  0  0  0  0
  7  9  1  0  0  0  0
  9 10  1  0  0  0  0
  9 11  1  0  0  0  0
  9 21  1  0  0  0  0
 11 12  1  0  0  0  0
 11 13  1  0  0  0  0
 11 14  1  0  0  0  0
 14 15  1  0  0  0  0
 14 16  1  0  0  0  0
 14 17  1  0  0  0  0
 17 18  2  0  0  0  0
 17 19  1  0  0  0  0
 19 20  1  0  0  0  0
 21 22  2  0  0  0  0
 21 23  1  0  0  0  0
 23 24  1  0  0  0  0
 23 25  1  0  0  0  0
 25 26  1  0  0  0  0
 25 27  1  0  0  0  0
 25 28  1  0  0  0  0
M  END
$$$$

  -OEChem-03222214033D

 28 27  0     1  0  0  0  0  0999 V2000
   -3.2163   -3.7511    1.2601 H   0  0  0  0  0  0  0  0  0  0  0  0
   -3.1921   -2.7611    0.7961 C   0  0  0  0  0  0  0  0  0  0  0  0
   -3.8165   -2.0824    1.3822 H   0  0  0  0  0  0  0  0  0  0  0  0
   -3.5975   -2.8363   -0.2157 H   0  0  0  0  0  0  0  0  0  0  0  0
   -1.7676   -2.2422    0.7462 C   0  0  0  0  0  0  0  0  0  0  0  0
   -0.8489   -2.9407    1.1426 O   0  0  0  0  0  0  0  0  0  0  0  0
   -1.5155   -0.9812    0.2495 N   0  0  0  0  0  0  0  0  0  0  0  0
   -2.3206   -0.3920    0.0397 H   0  0  0  0  0  0  0  0  0  0  0  0
   -0.2065   -0.3128    0.3017 C   0  0  1  0  0  0  0  0  0  0  0  0
    0.4384   -0.7815    1.0537 H   0  0  0  0  0  0  0  0  0  0  0  0
    0.4692   -0.4656   -1.0888 C   0  0  0  0  0  0  0  0  0  0  0  0
    1.2131   -1.2663   -1.0145 H   0  0  0  0  0  0  0  0  0  0  0  0
   -0.2822   -0.8012   -1.8114 H   0  0  0  0  0  0  0  0  0  0  0  0
    1.1439    0.7883   -1.6970 C   0  0  0  0  0  0  0  0  0  0  0  0
    1.5509    0.5251   -2.6765 H   0  0  0  0  0  0  0  0  0  0  0  0
    0.3881    1.5623   -1.8595 H   0  0  0  0  0  0  0  0  0  0  0  0
    2.2824    1.3984   -0.8753 C   0  0  0  0  0  0  0  0  0  0  0  0
    2.6937    0.8243    0.1203 O   0  0  0  0  0  0  0  0  0  0  0  0
    2.7908    2.5693   -1.3126 O   0  0  0  0  0  0  0  0  0  0  0  0
    3.4988    2.7914   -0.6892 H   0  0  0  0  0  0  0  0  0  0  0  0
   -0.4423    1.1449    0.7614 C   0  0  0  0  0  0  0  0  0  0  0  0
   -1.3947    1.7770    0.3150 O   0  0  0  0  0  0  0  0  0  0  0  0
    0.3643    1.7238    1.7220 N   0  0  0  0  0  0  0  0  0  0  0  0
    1.2359    1.2357    1.9269 H   0  0  0  0  0  0  0  0  0  0  0  0
    0.2296    3.1135    2.1392 C   0  0  0  0  0  0  0  0  0  0  0  0
   -0.7787    3.3036    2.5221 H   0  0  0  0  0  0  0  0  0  0  0  0
    0.9466    3.3402    2.9341 H   0  0  0  0  0  0  0  0  0  0  0  0
    0.4191    3.7861    1.2961 H   0  0  0  0  0  0  0  0  0  0  0  0
  1  2  1  0  0  0  0
  2  3  1  0  0  0  0
  2  4  1  0  0  0  0
  2  5  1  0  0  0  0
  5  6  2  0  0  0  0
  5  7  1  0  0  0  0
  7  8  1  0  0  0  0
  7  9  1  0  0  0  0
  9 10  1  0  0  0  0
  9 11  1  0  0  0  0
  9 21  1  0  0  0  0
 11 12  1  0  0  0  0
 11 13  1  0  0  0  0
 11 14  1  0  0  0  0
 14 15  1  0  0  0  0
 14 16  1  0  0  0  0
 14 17  1  0  0  0  0
 17 18  2  0  0  0  0
 17 19  1  0  0  0  0
 19 20  1  0  0  0  0
 21 22  2  0  0  0  0
 21 23  1  0  0  0  0
 23 24  1  0  0  0  0
 23 25  1  0  0  0  0
 25 26  1  0  0  0  0
 25 27  1  0  0  0  0
 25 28  1  0  0  0  0
M  END
$$$$

  -OEChem-03222214033D

 28 27  0     1  0  0  0  0  0999 V2000
   -3.1639   -3.7835    1.2607 H   0  0  0  0  0  0  0  0  0  0  0  0
   -3.1635   -2.7902    0.8033 C   0  0  0  0  0  0  0  0  0  0  0  0
   -3.7838   -2.1242    1.4081 H   0  0  0  0  0  0  0  0  0  0  0  0
   -3.5899   -2.8638   -0.2000 H   0  0  0  0  0  0  0  0  0  0  0  0
   -1.7474   -2.2519    0.7249 C   0  0  0  0  0  0  0  0  0  0  0  0
   -0.8097   -2.9444    1.0859 O   0  0  0  0  0  0  0  0  0  0  0  0
   -1.5244   -0.9811    0.2390 N   0  0  0  0  0  0  0  0  0  0  0  0
   -2.3430   -0.4002    0.0611 H   0  0  0  0  0  0  0  0  0  0  0  0
   -0.2262   -0.2912    0.2784 C   0  0  1  0  0  0  0  0  0  0  0  0
    0.4235   -0.7578    1.0272 H   0  0  0  0  0  0  0  0  0  0  0  0
    0.4658   -0.4358   -1.1037 C   0  0  0  0  0  0  0  0  0  0  0  0
    1.2171   -1.2306   -1.0383 H   0  0  0  0  0  0  0  0  0  0  0  0
   -0.2834   -0.7721   -1.8284 H   0  0  0  0  0  0  0  0  0  0  0  0
    1.1125    0.8401   -1.6948 C   0  0  0  0  0  0  0  0  0  0  0  0
    1.3331    0.6470   -2.7482 H   0  0  0  0  0  0  0  0  0  0  0  0
    0.4180    1.6839   -1.6698 H   0  0  0  0  0  0  0  0  0  0  0  0
    2.4314    1.2457   -1.0323 C   0  0  0  0  0  0  0  0  0  0  0  0
    2.7022    0.8385    0.0863 O   0  0  0  0  0  0  0  0  0  0  0  0
    3.2444    2.0606   -1.7364 O   0  0  0  0  0  0  0  0  0  0  0  0
    4.0189    2.2023   -1.1709 H   0  0  0  0  0  0  0  0  0  0  0  0
   -0.4532    1.1613    0.7564 C   0  0  0  0  0  0  0  0  0  0  0  0
   -1.4329    1.7853    0.3601 O   0  0  0  0  0  0  0  0  0  0  0  0
    0.3754    1.7288    1.7048 N   0  0  0  0  0  0  0  0  0  0  0  0
    1.2682    1.2578    1.8521 H   0  0  0  0  0  0  0  0  0  0  0  0
    0.2366    3.1077    2.1551 C   0  0  0  0  0  0  0  0  0  0  0  0
   -0.7653    3.2801    2.5621 H   0  0  0  0  0  0  0  0  0  0  0  0
    0.9672    3.3231    2.9407 H   0  0  0  0  0  0  0  0  0  0  0  0
    0.4035    3.8009    1.3242 H   0  0  0  0  0  0  0  0  0  0  0  0
  1  2  1  0  0  0  0
  2  3  1  0  0  0  0
  2  4  1  0  0  0  0
  2  5  1  0  0  0  0
  5  6  2  0  0  0  0
  5  7  1  0  0  0  0
  7  8  1  0  0  0  0
  7  9  1  0  0  0  0
  9 10  1  0  0  0  0
  9 11  1  0  0  0  0
  9 21  1  0  0  0  0
 11 12  1  0  0  0  0
 11 13  1  0  0  0  0
 11 14  1  0  0  0  0
 14 15  1  0  0  0  0
 14 16  1  0  0  0  0
 14 17  1  0  0  0  0
 17 18  2  0  0  0  0
 17 19  1  0  0  0  0
 19 20  1  0  0  0  0
 21 22  2  0  0  0  0
 21 23  1  0  0  0  0
 23 24  1  0  0  0  0
 23 25  1  0  0  0  0
 25 26  1  0  0  0  0
 25 27  1  0  0  0  0
 25 28  1  0  0  0  0
M  END
$$$$

  -OEChem-03222214033D

 28 27  0     1  0  0  0  0  0999 V2000
   -3.0877   -3.8283    1.2160 H   0  0  0  0  0  0  0  0  0  0  0  0
   -3.1170   -2.8226    0.7875 C   0  0  0  0  0  0  0  0  0  0  0  0
   -3.7355   -2.1864    1.4252 H   0  0  0  0  0  0  0  0  0  0  0  0
   -3.5656   -2.8759   -0.2074 H   0  0  0  0  0  0  0  0  0  0  0  0
   -1.7140   -2.2537    0.6920 C   0  0  0  0  0  0  0  0  0  0  0  0
   -0.7547   -2.9346    1.0171 O   0  0  0  0  0  0  0  0  0  0  0  0
   -1.5270   -0.9690    0.2280 N   0  0  0  0  0  0  0  0  0  0  0  0
   -2.3610   -0.4022    0.0794 H   0  0  0  0  0  0  0  0  0  0  0  0
   -0.2433   -0.2522    0.2569 C   0  0  1  0  0  0  0  0  0  0  0  0
    0.4146   -0.7186    0.9986 H   0  0  0  0  0  0  0  0  0  0  0  0
    0.4610   -0.3841   -1.1184 C   0  0  0  0  0  0  0  0  0  0  0  0
    1.2215   -1.1707   -1.0571 H   0  0  0  0  0  0  0  0  0  0  0  0
   -0.2848   -0.7298   -1.8421 H   0  0  0  0  0  0  0  0  0  0  0  0
    1.0782    0.9072   -1.7073 C   0  0  0  0  0  0  0  0  0  0  0  0
    1.0895    0.8051   -2.7961 H   0  0  0  0  0  0  0  0  0  0  0  0
    0.4924    1.8032   -1.4925 H   0  0  0  0  0  0  0  0  0  0  0  0
    2.5256    1.0991   -1.2637 C   0  0  0  0  0  0  0  0  0  0  0  0
    2.7870    0.9926   -0.0760 O   0  0  0  0  0  0  0  0  0  0  0  0
    3.4507    1.3818   -2.2052 O   0  0  0  0  0  0  0  0  0  0  0  0
    4.2890    1.4618   -1.7249 H   0  0  0  0  0  0  0  0  0  0  0  0
   -0.4669    1.1892    0.7655 C   0  0  0  0  0  0  0  0  0  0  0  0
   -1.4690    1.8066    0.4184 O   0  0  0  0  0  0  0  0  0  0  0  0
    0.3844    1.7412    1.7032 N   0  0  0  0  0  0  0  0  0  0  0  0
    1.2911    1.2854    1.8030 H   0  0  0  0  0  0  0  0  0  0  0  0
    0.2421    3.1066    2.1922 C   0  0  0  0  0  0  0  0  0  0  0  0
   -0.7489    3.2556    2.6336 H   0  0  0  0  0  0  0  0  0  0  0  0
    0.9937    3.3120    2.9604 H   0  0  0  0  0  0  0  0  0  0  0  0
    0.3753    3.8223    1.3744 H   0  0  0  0  0  0  0  0  0  0  0  0
  1  2  1  0  0  0  0
  2  3  1  0  0  0  0
  2  4  1  0  0  0  0
  2  5  1  0  0  0  0
  5  6  2  0  0  0  0
  5  7  1  0  0  0  0
  7  8  1  0  0  0  0
  7  9  1  0  0  0  0
  9 10  1  0  0  0  0
  9 11  1  0  0  0  0
  9 21  1  0  0  0  0
 11 12  1  0  0  0  0
 11 13  1  0  0  0  0
 11 14  1  0  0  0  0
 14 15  1  0  0  0  0
 14 16  1  0  0  0  0
 14 17  1  0  0  0  0
 17 18  2  0  0  0  0
 17 19  1  0  0  0  0
 19 20  1  0  0  0  0
 21 22  2  0  0  0  0
 21 23  1  0  0  0  0
 23 24  1  0  0  0  0
 23 25  1  0  0  0  0
 25 26  1  0  0  0  0
 25 27  1  0  0  0  0
 25 28  1  0  0  0  0
M  END
$$$$

  -OEChem-03222214033D

 28 27  0     1  0  0  0  0  0999 V2000
   -3.0618   -3.8424    1.1552 H   0  0  0  0  0  0  0  0  0  0  0  0
   -3.0970   -2.8283    0.7472 C   0  0  0  0  0  0  0  0  0  0  0  0
   -3.7265   -2.2108    1.3924 H   0  0  0  0  0  0  0  0  0  0  0  0
   -3.5369   -2.8657   -0.2522 H   0  0  0  0  0  0  0  0  0  0  0  0
   -1.6987   -2.2446    0.6760 C   0  0  0  0  0  0  0  0  0  0  0  0
   -0.7373   -2.9165    1.0129 O   0  0  0  0  0  0  0  0  0  0  0  0
   -1.5178   -0.9535    0.2276 N   0  0  0  0  0  0  0  0  0  0  0  0
   -2.3545   -0.3956    0.0617 H   0  0  0  0  0  0  0  0  0  0  0  0
   -0.2385   -0.2294    0.2625 C   0  0  1  0  0  0  0  0  0  0  0  0
    0.4227   -0.7014    0.9977 H   0  0  0  0  0  0  0  0  0  0  0  0
    0.4634   -0.3505   -1.1160 C   0  0  0  0  0  0  0  0  0  0  0  0
    1.2206   -1.1406   -1.0564 H   0  0  0  0  0  0  0  0  0  0  0  0
   -0.2830   -0.6991   -1.8378 H   0  0  0  0  0  0  0  0  0  0  0  0
    1.0802    0.9392   -1.7180 C   0  0  0  0  0  0  0  0  0  0  0  0
    0.8464    0.9586   -2.7862 H   0  0  0  0  0  0  0  0  0  0  0  0
    0.6781    1.8650   -1.3055 H   0  0  0  0  0  0  0  0  0  0  0  0
    2.5975    0.9370   -1.5899 C   0  0  0  0  0  0  0  0  0  0  0  0
    3.0703    0.9175   -0.4659 O   0  0  0  0  0  0  0  0  0  0  0  0
    3.3455    0.9496   -2.7137 O   0  0  0  0  0  0  0  0  0  0  0  0
    4.2654    0.9395   -2.4077 H   0  0  0  0  0  0  0  0  0  0  0  0
   -0.4667    1.2034    0.7881 C   0  0  0  0  0  0  0  0  0  0  0  0
   -1.4549    1.8338    0.4267 O   0  0  0  0  0  0  0  0  0  0  0  0
    0.3843    1.7483    1.7307 N   0  0  0  0  0  0  0  0  0  0  0  0
    1.2506    1.2463    1.9148 H   0  0  0  0  0  0  0  0  0  0  0  0
    0.2406    3.1056    2.2418 C   0  0  0  0  0  0  0  0  0  0  0  0
   -0.7447    3.2407    2.7004 H   0  0  0  0  0  0  0  0  0  0  0  0
    1.0031    3.3061    3.0007 H   0  0  0  0  0  0  0  0  0  0  0  0
    0.3558    3.8340    1.4324 H   0  0  0  0  0  0  0  0  0  0  0  0
  1  2  1  0  0  0  0
  2  3  1  0  0  0  0
  2  4  1  0  0  0  0
  2  5  1  0  0  0  0
  5  6  2  0  0  0  0
  5  7  1  0  0  0  0
  7  8  1  0  0  0  0
  7  9  1  0  0  0  0
  9 10  1  0  0  0  0
  9 11  1  0  0  0  0
  9 21  1  0  0  0  0
 11 12  1  0  0  0  0
 11 13  1  0  0  0  0
 11 14  1  0  0  0  0
 14 15  1  0  0  0  0
 14 16  1  0  0  0  0
 14 17  1  0  0  0  0
 17 18  2  0  0  0  0
 17 19  1  0  0  0  0
 19 20  1  0  0  0  0
 21 22  2  0  0  0  0
 21 23  1  0  0  0  0
 23 24  1  0  0  0  0
 23 25  1  0  0  0  0
 25 26  1  0  0  0  0
 25 27  1  0  0  0  0
 25 28  1  0  0  0  0
M  END
$$$$

  -OEChem-03222214033D

 28 27  0     1  0  0  0  0  0999 V2000
   -3.0721   -3.8102    1.1093 H   0  0  0  0  0  0  0  0  0  0  0  0
   -3.0939   -2.7917    0.7119 C   0  0  0  0  0  0  0  0  0  0  0  0
   -3.7232   -2.1750    1.3582 H   0  0  0  0  0  0  0  0  0  0  0  0
   -3.5252   -2.8140   -0.2918 H   0  0  0  0  0  0  0  0  0  0  0  0
   -1.6893   -2.2211    0.6595 C   0  0  0  0  0  0  0  0  0  0  0  0
   -0.7391   -2.8989    1.0159 O   0  0  0  0  0  0  0  0  0  0  0  0
   -1.4893   -0.9313    0.2155 N   0  0  0  0  0  0  0  0  0  0  0  0
   -2.3171   -0.3662    0.0286 H   0  0  0  0  0  0  0  0  0  0  0  0
   -0.2027   -0.2212    0.2693 C   0  0  1  0  0  0  0  0  0  0  0  0
    0.4570   -0.7007    1.0009 H   0  0  0  0  0  0  0  0  0  0  0  0
    0.4826   -0.3313   -1.1204 C   0  0  0  0  0  0  0  0  0  0  0  0
    1.2351   -1.1255   -1.0564 H   0  0  0  0  0  0  0  0  0  0  0  0
   -0.2610   -0.6799   -1.8455 H   0  0  0  0  0  0  0  0  0  0  0  0
    1.1187    0.9513   -1.7234 C   0  0  0  0  0  0  0  0  0  0  0  0
    0.6395    1.1663   -2.6826 H   0  0  0  0  0  0  0  0  0  0  0  0
    0.9883    1.8397   -1.1058 H   0  0  0  0  0  0  0  0  0  0  0  0
    2.6118    0.7703   -1.9618 C   0  0  0  0  0  0  0  0  0  0  0  0
    3.3435    0.7319   -0.9882 O   0  0  0  0  0  0  0  0  0  0  0  0
    3.0541    0.6458   -3.2312 O   0  0  0  0  0  0  0  0  0  0  0  0
    4.0138    0.5317   -3.1548 H   0  0  0  0  0  0  0  0  0  0  0  0
   -0.4488    1.2083    0.7966 C   0  0  0  0  0  0  0  0  0  0  0  0
   -1.4180    1.8468    0.4006 O   0  0  0  0  0  0  0  0  0  0  0  0
    0.3793    1.7547    1.7587 N   0  0  0  0  0  0  0  0  0  0  0  0
    1.1933    1.2140    2.0410 H   0  0  0  0  0  0  0  0  0  0  0  0
    0.1931    3.0906    2.3113 C   0  0  0  0  0  0  0  0  0  0  0  0
   -0.7849    3.1708    2.7974 H   0  0  0  0  0  0  0  0  0  0  0  0
    0.9664    3.3035    3.0557 H   0  0  0  0  0  0  0  0  0  0  0  0
    0.2571    3.8455    1.5205 H   0  0  0  0  0  0  0  0  0  0  0  0
  1  2  1  0  0  0  0
  2  3  1  0  0  0  0
  2  4  1  0  0  0  0
  2  5  1  0  0  0  0
  5  6  2  0  0  0  0
  5  7  1  0  0  0  0
  7  8  1  0  0  0  0
  7  9  1  0  0  0  0
  9 10  1  0  0  0  0
  9 11  1  0  0  0  0
  9 21  1  0  0  0  0
 11 12  1  0  0  0  0
 11 13  1  0  0  0  0
 11 14  1  0  0  0  0
 14 15  1  0  0  0  0
 14 16  1  0  0  0  0
 14 17  1  0  0  0  0
 17 18  2  0  0  0  0
 17 19  1  0  0  0  0
 19 20  1  0  0  0  0
 21 22  2  0  0  0  0
 21 23  1  0  0  0  0
 23 24  1  0  0  0  0
 23 25  1  0  0  0  0
 25 26  1  0  0  0  0
 25 27  1  0  0  0  0
 25 28  1  0  0  0  0
M  END
$$$$

  -OEChem-03222214033D

 28 27  0     1  0  0  0  0  0999 V2000
   -3.1731   -3.7581    1.2394 H   0  0  0  0  0  0  0  0  0  0  0  0
   -3.1541   -2.7688    0.7736 C   0  0  0  0  0  0  0  0  0  0  0  0
   -3.8210   -2.1051    1.3293 H   0  0  0  0  0  0  0  0  0  0  0  0
   -3.5123   -2.8570   -0.2549 H   0  0  0  0  0  0  0  0  0  0  0  0
   -1.7424   -2.2135    0.7835 C   0  0  0  0  0  0  0  0  0  0  0  0
   -0.8280   -2.8731    1.2503 O   0  0  0  0  0  0  0  0  0  0  0  0
   -1.4964   -0.9559    0.2744 N   0  0  0  0  0  0  0  0  0  0  0  0
   -2.2993   -0.3979   -0.0133 H   0  0  0  0  0  0  0  0  0  0  0  0
   -0.1890   -0.2833    0.2976 C   0  0  1  0  0  0  0  0  0  0  0  0
    0.4690   -0.7472    1.0403 H   0  0  0  0  0  0  0  0  0  0  0  0
    0.4571   -0.4604   -1.1058 C   0  0  0  0  0  0  0  0  0  0  0  0
    1.1842   -1.2717   -1.0008 H   0  0  0  0  0  0  0  0  0  0  0  0
   -0.2965   -0.8224   -1.8134 H   0  0  0  0  0  0  0  0  0  0  0  0
    1.1216    0.7917   -1.7569 C   0  0  0  0  0  0  0  0  0  0  0  0
    0.4421    1.1988   -2.5105 H   0  0  0  0  0  0  0  0  0  0  0  0
    1.2901    1.5781   -1.0211 H   0  0  0  0  0  0  0  0  0  0  0  0
    2.4931    0.5705   -2.4026 C   0  0  0  0  0  0  0  0  0  0  0  0
    3.0488   -0.5114   -2.3417 O   0  0  0  0  0  0  0  0  0  0  0  0
    3.0364    1.6378   -3.0248 O   0  0  0  0  0  0  0  0  0  0  0  0
    3.8841    1.3202   -3.3721 H   0  0  0  0  0  0  0  0  0  0  0  0
   -0.4099    1.1767    0.7494 C   0  0  0  0  0  0  0  0  0  0  0  0
   -1.3346    1.8299    0.2788 O   0  0  0  0  0  0  0  0  0  0  0  0
    0.4214    1.7558    1.6905 N   0  0  0  0  0  0  0  0  0  0  0  0
    1.1463    1.1734    2.1014 H   0  0  0  0  0  0  0  0  0  0  0  0
    0.2518    3.1202    2.1759 C   0  0  0  0  0  0  0  0  0  0  0  0
   -0.7458    3.2531    2.6081 H   0  0  0  0  0  0  0  0  0  0  0  0
    0.9946    3.3426    2.9483 H   0  0  0  0  0  0  0  0  0  0  0  0
    0.3795    3.8363    1.3573 H   0  0  0  0  0  0  0  0  0  0  0  0
  1  2  1  0  0  0  0
  2  3  1  0  0  0  0
  2  4  1  0  0  0  0
  2  5  1  0  0  0  0
  5  6  2  0  0  0  0
  5  7  1  0  0  0  0
  7  8  1  0  0  0  0
  7  9  1  0  0  0  0
  9 10  1  0  0  0  0
  9 11  1  0  0  0  0
  9 21  1  0  0  0  0
 11 12  1  0  0  0  0
 11 13  1  0  0  0  0
 11 14  1  0  0  0  0
 14 15  1  0  0  0  0
 14 16  1  0  0  0  0
 14 17  1  0  0  0  0
 17 18  2  0  0  0  0
 17 19  1  0  0  0  0
 19 20  1  0  0  0  0
 21 22  2  0  0  0  0
 21 23  1  0  0  0  0
 23 24  1  0  0  0  0
 23 25  1  0  0  0  0
 25 26  1  0  0  0  0
 25 27  1  0  0  0  0
 25 28  1  0  0  0  0
M  END
$$$$

  -OEChem-03222214033D

 28 27  0     1  0  0  0  0  0999 V2000
   -3.0681   -3.8034    1.2747 H   0  0  0  0  0  0  0  0  0  0  0  0
   -3.0876   -2.8004    0.8395 C   0  0  0  0  0  0  0  0  0  0  0  0
   -3.7256   -2.1616    1.4549 H   0  0  0  0  0  0  0  0  0  0  0  0
   -3.5073   -2.8615   -0.1674 H   0  0  0  0  0  0  0  0  0  0  0  0
   -1.6839   -2.2285    0.7805 C   0  0  0  0  0  0  0  0  0  0  0  0
   -0.7391   -2.8744    1.2048 O   0  0  0  0  0  0  0  0  0  0  0  0
   -1.4799   -0.9667    0.2639 N   0  0  0  0  0  0  0  0  0  0  0  0
   -2.3035   -0.4222    0.0100 H   0  0  0  0  0  0  0  0  0  0  0  0
   -0.1866   -0.2683    0.2490 C   0  0  1  0  0  0  0  0  0  0  0  0
    0.5041   -0.7213    0.9683 H   0  0  0  0  0  0  0  0  0  0  0  0
    0.4174   -0.4159   -1.1734 C   0  0  0  0  0  0  0  0  0  0  0  0
    1.1928   -1.1878   -1.1107 H   0  0  0  0  0  0  0  0  0  0  0  0
   -0.3421   -0.7935   -1.8670 H   0  0  0  0  0  0  0  0  0  0  0  0
    1.0232    0.8637   -1.8003 C   0  0  0  0  0  0  0  0  0  0  0  0
    0.2477    1.4334   -2.3202 H   0  0  0  0  0  0  0  0  0  0  0  0
    1.4475    1.5065   -1.0262 H   0  0  0  0  0  0  0  0  0  0  0  0
    2.1672    0.5541   -2.7618 C   0  0  0  0  0  0  0  0  0  0  0  0
    2.0148   -0.3179   -3.5982 O   0  0  0  0  0  0  0  0  0  0  0  0
    3.3094    1.2626   -2.6320 O   0  0  0  0  0  0  0  0  0  0  0  0
    3.8952    0.9207   -3.3251 H   0  0  0  0  0  0  0  0  0  0  0  0
   -0.4190    1.1893    0.7066 C   0  0  0  0  0  0  0  0  0  0  0  0
   -1.3761    1.8218    0.2742 O   0  0  0  0  0  0  0  0  0  0  0  0
    0.4294    1.7849    1.6218 N   0  0  0  0  0  0  0  0  0  0  0  0
    1.1722    1.2144    2.0165 H   0  0  0  0  0  0  0  0  0  0  0  0
    0.2337    3.1377    2.1297 C   0  0  0  0  0  0  0  0  0  0  0  0
   -0.7005    3.2022    2.6975 H   0  0  0  0  0  0  0  0  0  0  0  0
    1.0607    3.4178    2.7895 H   0  0  0  0  0  0  0  0  0  0  0  0
    0.1945    3.8565    1.3042 H   0  0  0  0  0  0  0  0  0  0  0  0
  1  2  1  0  0  0  0
  2  3  1  0  0  0  0
  2  4  1  0  0  0  0
  2  5  1  0  0  0  0
  5  6  2  0  0  0  0
  5  7  1  0  0  0  0
  7  8  1  0  0  0  0
  7  9  1  0  0  0  0
  9 10  1  0  0  0  0
  9 11  1  0  0  0  0
  9 21  1  0  0  0  0
 11 12  1  0  0  0  0
 11 13  1  0  0  0  0
 11 14  1  0  0  0  0
 14 15  1  0  0  0  0
 14 16  1  0  0  0  0
 14 17  1  0  0  0  0
 17 18  2  0  0  0  0
 17 19  1  0  0  0  0
 19 20  1  0  0  0  0
 21 22  2  0  0  0  0
 21 23  1  0  0  0  0
 23 24  1  0  0  0  0
 23 25  1  0  0  0  0
 25 26  1  0  0  0  0
 25 27  1  0  0  0  0
 25 28  1  0  0  0  0
M  END
$$$$

  -OEChem-03222214033D

 28 27  0     1  0  0  0  0  0999 V2000
   -3.1315   -3.7820    1.2766 H   0  0  0  0  0  0  0  0  0  0  0  0
   -3.1324   -2.7877    0.8214 C   0  0  0  0  0  0  0  0  0  0  0  0
   -3.7798   -2.1320    1.4088 H   0  0  0  0  0  0  0  0  0  0  0  0
   -3.5282   -2.8654   -0.1941 H   0  0  0  0  0  0  0  0  0  0  0  0
   -1.7232   -2.2277    0.7851 C   0  0  0  0  0  0  0  0  0  0  0  0
   -0.7928   -2.8776    1.2345 O   0  0  0  0  0  0  0  0  0  0  0  0
   -1.4991   -0.9714    0.2637 N   0  0  0  0  0  0  0  0  0  0  0  0
   -2.3128   -0.4224   -0.0104 H   0  0  0  0  0  0  0  0  0  0  0  0
   -0.1977   -0.2883    0.2578 C   0  0  1  0  0  0  0  0  0  0  0  0
    0.4773   -0.7481    0.9875 H   0  0  0  0  0  0  0  0  0  0  0  0
    0.4269   -0.4494   -1.1532 C   0  0  0  0  0  0  0  0  0  0  0  0
    1.1958   -1.2271   -1.0857 H   0  0  0  0  0  0  0  0  0  0  0  0
   -0.3308   -0.8142   -1.8558 H   0  0  0  0  0  0  0  0  0  0  0  0
    1.0486    0.8320   -1.7583 C   0  0  0  0  0  0  0  0  0  0  0  0
    0.2574    1.5231   -2.0630 H   0  0  0  0  0  0  0  0  0  0  0  0
    1.6642    1.3326   -1.0068 H   0  0  0  0  0  0  0  0  0  0  0  0
    1.9553    0.5669   -2.9600 C   0  0  0  0  0  0  0  0  0  0  0  0
    1.8495   -0.4744   -3.5838 O   0  0  0  0  0  0  0  0  0  0  0  0
    2.8497    1.5272   -3.2764 O   0  0  0  0  0  0  0  0  0  0  0  0
    3.3147    1.1880   -4.0567 H   0  0  0  0  0  0  0  0  0  0  0  0
   -0.4031    1.1767    0.7036 C   0  0  0  0  0  0  0  0  0  0  0  0
   -1.3472    1.8243    0.2650 O   0  0  0  0  0  0  0  0  0  0  0  0
    0.4513    1.7600    1.6210 N   0  0  0  0  0  0  0  0  0  0  0  0
    1.1746    1.1743    2.0293 H   0  0  0  0  0  0  0  0  0  0  0  0
    0.2740    3.1161    2.1269 C   0  0  0  0  0  0  0  0  0  0  0  0
   -0.6762    3.2037    2.6644 H   0  0  0  0  0  0  0  0  0  0  0  0
    1.0858    3.3730    2.8144 H   0  0  0  0  0  0  0  0  0  0  0  0
    0.2797    3.8368    1.3023 H   0  0  0  0  0  0  0  0  0  0  0  0
  1  2  1  0  0  0  0
  2  3  1  0  0  0  0
  2  4  1  0  0  0  0
  2  5  1  0  0  0  0
  5  6  2  0  0  0  0
  5  7  1  0  0  0  0
  7  8  1  0  0  0  0
  7  9  1  0  0  0  0
  9 10  1  0  0  0  0
  9 11  1  0  0  0  0
  9 21  1  0  0  0  0
 11 12  1  0  0  0  0
 11 13  1  0  0  0  0
 11 14  1  0  0  0  0
 14 15  1  0  0  0  0
 14 16  1  0  0  0  0
 14 17  1  0  0  0  0
 17 18  2  0  0  0  0
 17 19  1  0  0  0  0
 19 20  1  0  0  0  0
 21 22  2  0  0  0  0
 21 23  1  0  0  0  0
 23 24  1  0  0  0  0
 23 25  1  0  0  0  0
 25 26  1  0  0  0  0
 25 27  1  0  0  0  0
 25 28  1  0  0  0  0
M  END
$$$$

  -OEChem-03222214033D

 28 27  0     1  0  0  0  0  0999 V2000
   -3.1605   -3.7762    1.2502 H   0  0  0  0  0  0  0  0  0  0  0  0
   -3.1489   -2.7853    0.7877 C   0  0  0  0  0  0  0  0  0  0  0  0
   -3.8130   -2.1257    1.3513 H   0  0  0  0  0  0  0  0  0  0  0  0
   -3.5161   -2.8711   -0.2378 H   0  0  0  0  0  0  0  0  0  0  0  0
   -1.7391   -2.2248    0.7869 C   0  0  0  0  0  0  0  0  0  0  0  0
   -0.8211   -2.8736    1.2629 O   0  0  0  0  0  0  0  0  0  0  0  0
   -1.4987   -0.9722    0.2630 N   0  0  0  0  0  0  0  0  0  0  0  0
   -2.3022   -0.4258   -0.0439 H   0  0  0  0  0  0  0  0  0  0  0  0
   -0.1932   -0.2977    0.2745 C   0  0  1  0  0  0  0  0  0  0  0  0
    0.4747   -0.7595    1.0089 H   0  0  0  0  0  0  0  0  0  0  0  0
    0.4364   -0.4601   -1.1299 C   0  0  0  0  0  0  0  0  0  0  0  0
    0.9800   -1.4110   -1.1596 H   0  0  0  0  0  0  0  0  0  0  0  0
   -0.3686   -0.5241   -1.8712 H   0  0  0  0  0  0  0  0  0  0  0  0
    1.3738    0.6914   -1.5639 C   0  0  0  0  0  0  0  0  0  0  0  0
    0.8228    1.6356   -1.5858 H   0  0  0  0  0  0  0  0  0  0  0  0
    2.1903    0.7904   -0.8442 H   0  0  0  0  0  0  0  0  0  0  0  0
    1.9827    0.5046   -2.9540 C   0  0  0  0  0  0  0  0  0  0  0  0
    1.6806   -0.4610   -3.6331 O   0  0  0  0  0  0  0  0  0  0  0  0
    2.8579    1.4468   -3.3631 O   0  0  0  0  0  0  0  0  0  0  0  0
    3.1299    1.1656   -4.2503 H   0  0  0  0  0  0  0  0  0  0  0  0
   -0.3883    1.1710    0.7087 C   0  0  0  0  0  0  0  0  0  0  0  0
   -1.3088    1.8308    0.2399 O   0  0  0  0  0  0  0  0  0  0  0  0
    0.4591    1.7501    1.6353 N   0  0  0  0  0  0  0  0  0  0  0  0
    1.1618    1.1559    2.0666 H   0  0  0  0  0  0  0  0  0  0  0  0
    0.2978    3.1160    2.1192 C   0  0  0  0  0  0  0  0  0  0  0  0
   -0.6660    3.2317    2.6259 H   0  0  0  0  0  0  0  0  0  0  0  0
    1.0938    3.3633    2.8283 H   0  0  0  0  0  0  0  0  0  0  0  0
    0.3456    3.8257    1.2864 H   0  0  0  0  0  0  0  0  0  0  0  0
  1  2  1  0  0  0  0
  2  3  1  0  0  0  0
  2  4  1  0  0  0  0
  2  5  1  0  0  0  0
  5  6  2  0  0  0  0
  5  7  1  0  0  0  0
  7  8  1  0  0  0  0
  7  9  1  0  0  0  0
  9 10  1  0  0  0  0
  9 11  1  0  0  0  0
  9 21  1  0  0  0  0
 11 12  1  0  0  0  0
 11 13  1  0  0  0  0
 11 14  1  0  0  0  0
 14 15  1  0  0  0  0
 14 16  1  0  0  0  0
 14 17  1  0  0  0  0
 17 18  2  0  0  0  0
 17 19  1  0  0  0  0
 19 20  1  0  0  0  0
 21 22  2  0  0  0  0
 21 23  1  0  0  0  0
 23 24  1  0  0  0  0
 23 25  1  0  0  0  0
 25 26  1  0  0  0  0
 25 27  1  0  0  0  0
 25 28  1  0  0  0  0
M  END
$$$$

  -OEChem-03222214033D

 28 27  0     1  0  0  0  0  0999 V2000
   -3.1709   -3.7578    1.2298 H   0  0  0  0  0  0  0  0  0  0  0  0
   -3.1528   -2.7699    0.7610 C   0  0  0  0  0  0  0  0  0  0  0  0
   -3.8263   -2.1072    1.3098 H   0  0  0  0  0  0  0  0  0  0  0  0
   -3.5030   -2.8628   -0.2699 H   0  0  0  0  0  0  0  0  0  0  0  0
   -1.7435   -2.2094    0.7792 C   0  0  0  0  0  0  0  0  0  0  0  0
   -0.8304   -2.8631    1.2581 O   0  0  0  0  0  0  0  0  0  0  0  0
   -1.4963   -0.9544    0.2647 N   0  0  0  0  0  0  0  0  0  0  0  0
   -2.2956   -0.4036   -0.0456 H   0  0  0  0  0  0  0  0  0  0  0  0
   -0.1872   -0.2870    0.2853 C   0  0  1  0  0  0  0  0  0  0  0  0
    0.4743   -0.7544    1.0223 H   0  0  0  0  0  0  0  0  0  0  0  0
    0.4494   -0.4579   -1.1168 C   0  0  0  0  0  0  0  0  0  0  0  0
    0.9714   -1.4201   -1.1583 H   0  0  0  0  0  0  0  0  0  0  0  0
   -0.3674   -0.5042   -1.8466 H   0  0  0  0  0  0  0  0  0  0  0  0
    1.4032    0.6734   -1.5759 C   0  0  0  0  0  0  0  0  0  0  0  0
    0.9567    1.6523   -1.3871 H   0  0  0  0  0  0  0  0  0  0  0  0
    2.3402    0.6158   -1.0169 H   0  0  0  0  0  0  0  0  0  0  0  0
    1.7169    0.6462   -3.0726 C   0  0  0  0  0  0  0  0  0  0  0  0
    1.4346   -0.3332   -3.7404 O   0  0  0  0  0  0  0  0  0  0  0  0
    2.3267    1.7352   -3.5859 O   0  0  0  0  0  0  0  0  0  0  0  0
    2.4400    1.5368   -4.5282 H   0  0  0  0  0  0  0  0  0  0  0  0
   -0.3835    1.1784    0.7301 C   0  0  0  0  0  0  0  0  0  0  0  0
   -1.3007    1.8426    0.2613 O   0  0  0  0  0  0  0  0  0  0  0  0
    0.4598    1.7498    1.6652 N   0  0  0  0  0  0  0  0  0  0  0  0
    1.1634    1.1532    2.0916 H   0  0  0  0  0  0  0  0  0  0  0  0
    0.2969    3.1117    2.1601 C   0  0  0  0  0  0  0  0  0  0  0  0
   -0.6933    3.2416    2.6098 H   0  0  0  0  0  0  0  0  0  0  0  0
    1.0525    3.3310    2.9206 H   0  0  0  0  0  0  0  0  0  0  0  0
    0.4098    3.8320    1.3430 H   0  0  0  0  0  0  0  0  0  0  0  0
  1  2  1  0  0  0  0
  2  3  1  0  0  0  0
  2  4  1  0  0  0  0
  2  5  1  0  0  0  0
  5  6  2  0  0  0  0
  5  7  1  0  0  0  0
  7  8  1  0  0  0  0
  7  9  1  0  0  0  0
  9 10  1  0  0  0  0
  9 11  1  0  0  0  0
  9 21  1  0  0  0  0
 11 12  1  0  0  0  0
 11 13  1  0  0  0  0
 11 14  1  0  0  0  0
 14 15  1  0  0  0  0
 14 16  1  0  0  0  0
 14 17  1  0  0  0  0
 17 18  2  0  0  0  0
 17 19  1  0  0  0  0
 19 20  1  0  0  0  0
 21 22  2  0  0  0  0
 21 23  1  0  0  0  0
 23 24  1  0  0  0  0
 23 25  1  0  0  0  0
 25 26  1  0  0  0  0
 25 27  1  0  0  0  0
 25 28  1  0  0  0  0
M  END
$$$$

  -OEChem-03222214033D

 28 27  0     1  0  0  0  0  0999 V2000
   -3.2043   -3.7232    1.2083 H   0  0  0  0  0  0  0  0  0  0  0  0
   -3.1719   -2.7280    0.7561 C   0  0  0  0  0  0  0  0  0  0  0  0
   -3.8234   -2.0608    1.3255 H   0  0  0  0  0  0  0  0  0  0  0  0
   -3.5388   -2.7949   -0.2710 H   0  0  0  0  0  0  0  0  0  0  0  0
   -1.7515   -2.1960    0.7641 C   0  0  0  0  0  0  0  0  0  0  0  0
   -0.8467   -2.8672    1.2341 O   0  0  0  0  0  0  0  0  0  0  0  0
   -1.4866   -0.9427    0.2550 N   0  0  0  0  0  0  0  0  0  0  0  0
   -2.2801   -0.3757   -0.0413 H   0  0  0  0  0  0  0  0  0  0  0  0
   -0.1707   -0.2884    0.2854 C   0  0  1  0  0  0  0  0  0  0  0  0
    0.4817   -0.7616    1.0269 H   0  0  0  0  0  0  0  0  0  0  0  0
    0.4735   -0.4629   -1.1147 C   0  0  0  0  0  0  0  0  0  0  0  0
    0.9749   -1.4353   -1.1646 H   0  0  0  0  0  0  0  0  0  0  0  0
   -0.3498   -0.4949   -1.8379 H   0  0  0  0  0  0  0  0  0  0  0  0
    1.4482    0.6489   -1.5892 C   0  0  0  0  0  0  0  0  0  0  0  0
    1.1668    1.6229   -1.1860 H   0  0  0  0  0  0  0  0  0  0  0  0
    2.4587    0.4272   -1.2380 H   0  0  0  0  0  0  0  0  0  0  0  0
    1.4727    0.8267   -3.1075 C   0  0  0  0  0  0  0  0  0  0  0  0
    1.2803   -0.1366   -3.8283 O   0  0  0  0  0  0  0  0  0  0  0  0
    1.7374    2.0618   -3.5833 O   0  0  0  0  0  0  0  0  0  0  0  0
    1.7068    1.9702   -4.5480 H   0  0  0  0  0  0  0  0  0  0  0  0
   -0.3717    1.1752    0.7340 C   0  0  0  0  0  0  0  0  0  0  0  0
   -1.2895    1.8381    0.2644 O   0  0  0  0  0  0  0  0  0  0  0  0
    0.4619    1.7449    1.6787 N   0  0  0  0  0  0  0  0  0  0  0  0
    1.1664    1.1499    2.1058 H   0  0  0  0  0  0  0  0  0  0  0  0
    0.2817    3.1002    2.1856 C   0  0  0  0  0  0  0  0  0  0  0  0
   -0.6948    3.2007    2.6713 H   0  0  0  0  0  0  0  0  0  0  0  0
    1.0591    3.3374    2.9185 H   0  0  0  0  0  0  0  0  0  0  0  0
    0.3447    3.8267    1.3685 H   0  0  0  0  0  0  0  0  0  0  0  0
  1  2  1  0  0  0  0
  2  3  1  0  0  0  0
  2  4  1  0  0  0  0
  2  5  1  0  0  0  0
  5  6  2  0  0  0  0
  5  7  1  0  0  0  0
  7  8  1  0  0  0  0
  7  9  1  0  0  0  0
  9 10  1  0  0  0  0
  9 11  1  0  0  0  0
  9 21  1  0  0  0  0
 11 12  1  0  0  0  0
 11 13  1  0  0  0  0
 11 14  1  0  0  0  0
 14 15  1  0  0  0  0
 14 16  1  0  0  0  0
 14 17  1  0  0  0  0
 17 18  2  0  0  0  0
 17 19  1  0  0  0  0
 19 20  1  0  0  0  0
 21 22  2  0  0  0  0
 21 23  1  0  0  0  0
 23 24  1  0  0  0  0
 23 25  1  0  0  0  0
 25 26  1  0  0  0  0
 25 27  1  0  0  0  0
 25 28  1  0  0  0  0
M  END
$$$$

  -OEChem-03222214033D

 28 27  0     1  0  0  0  0  0999 V2000
   -3.2205   -3.7073    1.2228 H   0  0  0  0  0  0  0  0  0  0  0  0
   -3.1846   -2.7143    0.7663 C   0  0  0  0  0  0  0  0  0  0  0  0
   -3.8293   -2.0411    1.3363 H   0  0  0  0  0  0  0  0  0  0  0  0
   -3.5569   -2.7840   -0.2585 H   0  0  0  0  0  0  0  0  0  0  0  0
   -1.7607   -2.1916    0.7650 C   0  0  0  0  0  0  0  0  0  0  0  0
   -0.8581   -2.8691    1.2304 O   0  0  0  0  0  0  0  0  0  0  0  0
   -1.4879   -0.9411    0.2528 N   0  0  0  0  0  0  0  0  0  0  0  0
   -2.2779   -0.3663   -0.0386 H   0  0  0  0  0  0  0  0  0  0  0  0
   -0.1668   -0.2967    0.2849 C   0  0  1  0  0  0  0  0  0  0  0  0
    0.4841   -0.7721    1.0262 H   0  0  0  0  0  0  0  0  0  0  0  0
    0.4720   -0.4721   -1.1182 C   0  0  0  0  0  0  0  0  0  0  0  0
    0.9682   -1.4472   -1.1651 H   0  0  0  0  0  0  0  0  0  0  0  0
   -0.3536   -0.5095   -1.8383 H   0  0  0  0  0  0  0  0  0  0  0  0
    1.4582    0.6293   -1.6009 C   0  0  0  0  0  0  0  0  0  0  0  0
    1.3978    1.5309   -0.9911 H   0  0  0  0  0  0  0  0  0  0  0  0
    2.4820    0.2567   -1.5143 H   0  0  0  0  0  0  0  0  0  0  0  0
    1.2233    1.0636   -3.0471 C   0  0  0  0  0  0  0  0  0  0  0  0
    1.0122    0.2144   -3.8948 O   0  0  0  0  0  0  0  0  0  0  0  0
    1.2885    2.3832   -3.3238 O   0  0  0  0  0  0  0  0  0  0  0  0
    1.1054    2.4498   -4.2734 H   0  0  0  0  0  0  0  0  0  0  0  0
   -0.3696    1.1681    0.7307 C   0  0  0  0  0  0  0  0  0  0  0  0
   -1.2832    1.8319    0.2545 O   0  0  0  0  0  0  0  0  0  0  0  0
    0.4603    1.7380    1.6787 N   0  0  0  0  0  0  0  0  0  0  0  0
    1.1625    1.1433    2.1098 H   0  0  0  0  0  0  0  0  0  0  0  0
    0.2966    3.1029    2.1649 C   0  0  0  0  0  0  0  0  0  0  0  0
   -0.6763    3.2222    2.6534 H   0  0  0  0  0  0  0  0  0  0  0  0
    1.0799    3.3434    2.8902 H   0  0  0  0  0  0  0  0  0  0  0  0
    0.3641    3.8158    1.3362 H   0  0  0  0  0  0  0  0  0  0  0  0
  1  2  1  0  0  0  0
  2  3  1  0  0  0  0
  2  4  1  0  0  0  0
  2  5  1  0  0  0  0
  5  6  2  0  0  0  0
  5  7  1  0  0  0  0
  7  8  1  0  0  0  0
  7  9  1  0  0  0  0
  9 10  1  0  0  0  0
  9 11  1  0  0  0  0
  9 21  1  0  0  0  0
 11 12  1  0  0  0  0
 11 13  1  0  0  0  0
 11 14  1  0  0  0  0
 14 15  1  0  0  0  0
 14 16  1  0  0  0  0
 14 17  1  0  0  0  0
 17 18  2  0  0  0  0
 17 19  1  0  0  0  0
 19 20  1  0  0  0  0
 21 22  2  0  0  0  0
 21 23  1  0  0  0  0
 23 24  1  0  0  0  0
 23 25  1  0  0  0  0
 25 26  1  0  0  0  0
 25 27  1  0  0  0  0
 25 28  1  0  0  0  0
M  END
$$$$

  -OEChem-03222214033D

 28 27  0     1  0  0  0  0  0999 V2000
   -3.2327   -3.6969    1.2553 H   0  0  0  0  0  0  0  0  0  0  0  0
   -3.1921   -2.7057    0.7951 C   0  0  0  0  0  0  0  0  0  0  0  0
   -3.8272   -2.0250    1.3672 H   0  0  0  0  0  0  0  0  0  0  0  0
   -3.5725   -2.7761   -0.2268 H   0  0  0  0  0  0  0  0  0  0  0  0
   -1.7646   -2.1933    0.7820 C   0  0  0  0  0  0  0  0  0  0  0  0
   -0.8644   -2.8715    1.2512 O   0  0  0  0  0  0  0  0  0  0  0  0
   -1.4862   -0.9509    0.2538 N   0  0  0  0  0  0  0  0  0  0  0  0
   -2.2737   -0.3739   -0.0401 H   0  0  0  0  0  0  0  0  0  0  0  0
   -0.1621   -0.3137    0.2757 C   0  0  1  0  0  0  0  0  0  0  0  0
    0.4936   -0.7848    1.0154 H   0  0  0  0  0  0  0  0  0  0  0  0
    0.4594   -0.4898   -1.1333 C   0  0  0  0  0  0  0  0  0  0  0  0
    0.9703   -1.4579   -1.1621 H   0  0  0  0  0  0  0  0  0  0  0  0
   -0.3603   -0.5528   -1.8582 H   0  0  0  0  0  0  0  0  0  0  0  0
    1.4443    0.6147   -1.6086 C   0  0  0  0  0  0  0  0  0  0  0  0
    1.6294    1.3663   -0.8404 H   0  0  0  0  0  0  0  0  0  0  0  0
    2.4104    0.1495   -1.8208 H   0  0  0  0  0  0  0  0  0  0  0  0
    0.9970    1.3260   -2.8840 C   0  0  0  0  0  0  0  0  0  0  0  0
    0.6877    0.6599   -3.8564 O   0  0  0  0  0  0  0  0  0  0  0  0
    0.9918    2.6758   -2.8790 O   0  0  0  0  0  0  0  0  0  0  0  0
    0.6598    2.9290   -3.7536 H   0  0  0  0  0  0  0  0  0  0  0  0
   -0.3621    1.1575    0.7042 C   0  0  0  0  0  0  0  0  0  0  0  0
   -1.2796    1.8145    0.2257 O   0  0  0  0  0  0  0  0  0  0  0  0
    0.4693    1.7375    1.6450 N   0  0  0  0  0  0  0  0  0  0  0  0
    1.1754    1.1488    2.0779 H   0  0  0  0  0  0  0  0  0  0  0  0
    0.3069    3.1079    2.1157 C   0  0  0  0  0  0  0  0  0  0  0  0
   -0.6619    3.2311    2.6112 H   0  0  0  0  0  0  0  0  0  0  0  0
    1.0960    3.3587    2.8313 H   0  0  0  0  0  0  0  0  0  0  0  0
    0.3657    3.8105    1.2775 H   0  0  0  0  0  0  0  0  0  0  0  0
  1  2  1  0  0  0  0
  2  3  1  0  0  0  0
  2  4  1  0  0  0  0
  2  5  1  0  0  0  0
  5  6  2  0  0  0  0
  5  7  1  0  0  0  0
  7  8  1  0  0  0  0
  7  9  1  0  0  0  0
  9 10  1  0  0  0  0
  9 11  1  0  0  0  0
  9 21  1  0  0  0  0
 11 12  1  0  0  0  0
 11 13  1  0  0  0  0
 11 14  1  0  0  0  0
 14 15  1  0  0  0  0
 14 16  1  0  0  0  0
 14 17  1  0  0  0  0
 17 18  2  0  0  0  0
 17 19  1  0  0  0  0
 19 20  1  0  0  0  0
 21 22  2  0  0  0  0
 21 23  1  0  0  0  0
 23 24  1  0  0  0  0
 23 25  1  0  0  0  0
 25 26  1  0  0  0  0
 25 27  1  0  0  0  0
 25 28  1  0  0  0  0
M  END
$$$$

  -OEChem-03222214033D

 28 27  0     1  0  0  0  0  0999 V2000
   -3.2261   -3.7068    1.2918 H   0  0  0  0  0  0  0  0  0  0  0  0
   -3.1908   -2.7206    0.8205 C   0  0  0  0  0  0  0  0  0  0  0  0
   -3.8238   -2.0353    1.3893 H   0  0  0  0  0  0  0  0  0  0  0  0
   -3.5779   -2.8030   -0.1980 H   0  0  0  0  0  0  0  0  0  0  0  0
   -1.7643   -2.2058    0.7918 C   0  0  0  0  0  0  0  0  0  0  0  0
   -0.8581   -2.8818    1.2527 O   0  0  0  0  0  0  0  0  0  0  0  0
   -1.4911   -0.9669    0.2531 N   0  0  0  0  0  0  0  0  0  0  0  0
   -2.2818   -0.3916   -0.0360 H   0  0  0  0  0  0  0  0  0  0  0  0
   -0.1691   -0.3256    0.2649 C   0  0  1  0  0  0  0  0  0  0  0  0
    0.4927   -0.7913    1.0028 H   0  0  0  0  0  0  0  0  0  0  0  0
    0.4427   -0.5004   -1.1464 C   0  0  0  0  0  0  0  0  0  0  0  0
    0.9771   -1.4561   -1.1569 H   0  0  0  0  0  0  0  0  0  0  0  0
   -0.3653   -0.5908   -1.8813 H   0  0  0  0  0  0  0  0  0  0  0  0
    1.4142    0.6190   -1.6022 C   0  0  0  0  0  0  0  0  0  0  0  0
    1.8101    1.1850   -0.7565 H   0  0  0  0  0  0  0  0  0  0  0  0
    2.2736    0.1488   -2.0874 H   0  0  0  0  0  0  0  0  0  0  0  0
    0.8109    1.5765   -2.6275 C   0  0  0  0  0  0  0  0  0  0  0  0
    0.3134    1.1243   -3.6439 O   0  0  0  0  0  0  0  0  0  0  0  0
    0.8816    2.8976   -2.3604 O   0  0  0  0  0  0  0  0  0  0  0  0
    0.4097    3.3254   -3.0908 H   0  0  0  0  0  0  0  0  0  0  0  0
   -0.3660    1.1499    0.6822 C   0  0  0  0  0  0  0  0  0  0  0  0
   -1.2915    1.7997    0.2090 O   0  0  0  0  0  0  0  0  0  0  0  0
    0.4694    1.7391    1.6135 N   0  0  0  0  0  0  0  0  0  0  0  0
    1.1879    1.1602    2.0387 H   0  0  0  0  0  0  0  0  0  0  0  0
    0.3259    3.1230    2.0495 C   0  0  0  0  0  0  0  0  0  0  0  0
   -0.6405    3.2716    2.5427 H   0  0  0  0  0  0  0  0  0  0  0  0
    1.1193    3.3817    2.7573 H   0  0  0  0  0  0  0  0  0  0  0  0
    0.3926    3.8028    1.1933 H   0  0  0  0  0  0  0  0  0  0  0  0
  1  2  1  0  0  0  0
  2  3  1  0  0  0  0
  2  4  1  0  0  0  0
  2  5  1  0  0  0  0
  5  6  2  0  0  0  0
  5  7  1  0  0  0  0
  7  8  1  0  0  0  0
  7  9  1  0  0  0  0
  9 10  1  0  0  0  0
  9 11  1  0  0  0  0
  9 21  1  0  0  0  0
 11 12  1  0  0  0  0
 11 13  1  0  0  0  0
 11 14  1  0  0  0  0
 14 15  1  0  0  0  0
 14 16  1  0  0  0  0
 14 17  1  0  0  0  0
 17 18  2  0  0  0  0
 17 19  1  0  0  0  0
 19 20  1  0  0  0  0
 21 22  2  0  0  0  0
 21 23  1  0  0  0  0
 23 24  1  0  0  0  0
 23 25  1  0  0  0  0
 25 26  1  0  0  0  0
 25 27  1  0  0  0  0
 25 28  1  0  0  0  0
M  END
$$$$

  -OEChem-03222214033D

 28 27  0     1  0  0  0  0  0999 V2000
   -3.2053   -3.7148    1.3106 H   0  0  0  0  0  0  0  0  0  0  0  0
   -3.1792   -2.7333    0.8292 C   0  0  0  0  0  0  0  0  0  0  0  0
   -3.8154   -2.0471    1.3934 H   0  0  0  0  0  0  0  0  0  0  0  0
   -3.5690   -2.8288   -0.1871 H   0  0  0  0  0  0  0  0  0  0  0  0
   -1.7570   -2.2078    0.7907 C   0  0  0  0  0  0  0  0  0  0  0  0
   -0.8416   -2.8781    1.2417 O   0  0  0  0  0  0  0  0  0  0  0  0
   -1.4994   -0.9649    0.2540 N   0  0  0  0  0  0  0  0  0  0  0  0
   -2.2976   -0.3967   -0.0288 H   0  0  0  0  0  0  0  0  0  0  0  0
   -0.1845   -0.3103    0.2564 C   0  0  1  0  0  0  0  0  0  0  0  0
    0.4787   -0.7707    0.9963 H   0  0  0  0  0  0  0  0  0  0  0  0
    0.4352   -0.4973   -1.1501 C   0  0  0  0  0  0  0  0  0  0  0  0
    0.9850   -1.4443   -1.1420 H   0  0  0  0  0  0  0  0  0  0  0  0
   -0.3636   -0.6072   -1.8925 H   0  0  0  0  0  0  0  0  0  0  0  0
    1.3917    0.6278   -1.6116 C   0  0  0  0  0  0  0  0  0  0  0  0
    1.9545    1.0315   -0.7662 H   0  0  0  0  0  0  0  0  0  0  0  0
    2.1213    0.2000   -2.3044 H   0  0  0  0  0  0  0  0  0  0  0  0
    0.6926    1.7619   -2.3587 C   0  0  0  0  0  0  0  0  0  0  0  0
    0.0118    1.4977   -3.3338 O   0  0  0  0  0  0  0  0  0  0  0  0
    0.8821    3.0181   -1.9030 O   0  0  0  0  0  0  0  0  0  0  0  0
    0.3082    3.5702   -2.4559 H   0  0  0  0  0  0  0  0  0  0  0  0
   -0.3765    1.1644    0.6783 C   0  0  0  0  0  0  0  0  0  0  0  0
   -1.3264    1.8062    0.2437 O   0  0  0  0  0  0  0  0  0  0  0  0
    0.4710    1.7499    1.6007 N   0  0  0  0  0  0  0  0  0  0  0  0
    1.2133    1.1778    1.9927 H   0  0  0  0  0  0  0  0  0  0  0  0
    0.3325    3.1308    2.0470 C   0  0  0  0  0  0  0  0  0  0  0  0
   -0.6375    3.2819    2.5323 H   0  0  0  0  0  0  0  0  0  0  0  0
    1.1205    3.3772    2.7651 H   0  0  0  0  0  0  0  0  0  0  0  0
    0.4126    3.8171    1.1971 H   0  0  0  0  0  0  0  0  0  0  0  0
  1  2  1  0  0  0  0
  2  3  1  0  0  0  0
  2  4  1  0  0  0  0
  2  5  1  0  0  0  0
  5  6  2  0  0  0  0
  5  7  1  0  0  0  0
  7  8  1  0  0  0  0
  7  9  1  0  0  0  0
  9 10  1  0  0  0  0
  9 11  1  0  0  0  0
  9 21  1  0  0  0  0
 11 12  1  0  0  0  0
 11 13  1  0  0  0  0
 11 14  1  0  0  0  0
 14 15  1  0  0  0  0
 14 16  1  0  0  0  0
 14 17  1  0  0  0  0
 17 18  2  0  0  0  0
 17 19  1  0  0  0  0
 19 20  1  0  0  0  0
 21 22  2  0  0  0  0
 21 23  1  0  0  0  0
 23 24  1  0  0  0  0
 23 25  1  0  0  0  0
 25 26  1  0  0  0  0
 25 27  1  0  0  0  0
 25 28  1  0  0  0  0
M  END
$$$$

  -OEChem-03222214033D

 28 27  0     1  0  0  0  0  0999 V2000
   -3.1670   -3.7422    1.3052 H   0  0  0  0  0  0  0  0  0  0  0  0
   -3.1602   -2.7573    0.8299 C   0  0  0  0  0  0  0  0  0  0  0  0
   -3.8024   -2.0849    1.4040 H   0  0  0  0  0  0  0  0  0  0  0  0
   -3.5573   -2.8521   -0.1836 H   0  0  0  0  0  0  0  0  0  0  0  0
   -1.7464   -2.2097    0.7812 C   0  0  0  0  0  0  0  0  0  0  0  0
   -0.8138   -2.8782    1.1986 O   0  0  0  0  0  0  0  0  0  0  0  0
   -1.5156   -0.9527    0.2654 N   0  0  0  0  0  0  0  0  0  0  0  0
   -2.3271   -0.3899    0.0111 H   0  0  0  0  0  0  0  0  0  0  0  0
   -0.2119   -0.2759    0.2612 C   0  0  1  0  0  0  0  0  0  0  0  0
    0.4521   -0.7347    1.0015 H   0  0  0  0  0  0  0  0  0  0  0  0
    0.4268   -0.4793   -1.1372 C   0  0  0  0  0  0  0  0  0  0  0  0
    0.9807   -1.4237   -1.1135 H   0  0  0  0  0  0  0  0  0  0  0  0
   -0.3700   -0.6010   -1.8799 H   0  0  0  0  0  0  0  0  0  0  0  0
    1.3709    0.6368   -1.6418 C   0  0  0  0  0  0  0  0  0  0  0  0
    2.0848    0.8993   -0.8568 H   0  0  0  0  0  0  0  0  0  0  0  0
    1.9458    0.2560   -2.4899 H   0  0  0  0  0  0  0  0  0  0  0  0
    0.6565    1.9018   -2.1132 C   0  0  0  0  0  0  0  0  0  0  0  0
   -0.1767    1.8057   -2.9962 O   0  0  0  0  0  0  0  0  0  0  0  0
    0.9976    3.0736   -1.5365 O   0  0  0  0  0  0  0  0  0  0  0  0
    0.3836    3.7195   -1.9200 H   0  0  0  0  0  0  0  0  0  0  0  0
   -0.4023    1.1895    0.7118 C   0  0  0  0  0  0  0  0  0  0  0  0
   -1.3781    1.8278    0.3332 O   0  0  0  0  0  0  0  0  0  0  0  0
    0.4623    1.7587    1.6285 N   0  0  0  0  0  0  0  0  0  0  0  0
    1.2373    1.1941    1.9632 H   0  0  0  0  0  0  0  0  0  0  0  0
    0.3322    3.1310    2.1027 C   0  0  0  0  0  0  0  0  0  0  0  0
   -0.6382    3.2795    2.5881 H   0  0  0  0  0  0  0  0  0  0  0  0
    1.1193    3.3568    2.8284 H   0  0  0  0  0  0  0  0  0  0  0  0
    0.4201    3.8340    1.2676 H   0  0  0  0  0  0  0  0  0  0  0  0
  1  2  1  0  0  0  0
  2  3  1  0  0  0  0
  2  4  1  0  0  0  0
  2  5  1  0  0  0  0
  5  6  2  0  0  0  0
  5  7  1  0  0  0  0
  7  8  1  0  0  0  0
  7  9  1  0  0  0  0
  9 10  1  0  0  0  0
  9 11  1  0  0  0  0
  9 21  1  0  0  0  0
 11 12  1  0  0  0  0
 11 13  1  0  0  0  0
 11 14  1  0  0  0  0
 14 15  1  0  0  0  0
 14 16  1  0  0  0  0
 14 17  1  0  0  0  0
 17 18  2  0  0  0  0
 17 19  1  0  0  0  0
 19 20  1  0  0  0  0
 21 22  2  0  0  0  0
 21 23  1  0  0  0  0
 23 24  1  0  0  0  0
 23 25  1  0  0  0  0
 25 26  1  0  0  0  0
 25 27  1  0  0  0  0
 25 28  1  0  0  0  0
M  END
$$$$

  -OEChem-03222214033D

 28 27  0     1  0  0  0  0  0999 V2000
   -3.1131   -3.7603    1.3030 H   0  0  0  0  0  0  0  0  0  0  0  0
   -3.1300   -2.7658    0.8484 C   0  0  0  0  0  0  0  0  0  0  0  0
   -3.7577   -2.1111    1.4578 H   0  0  0  0  0  0  0  0  0  0  0  0
   -3.5600   -2.8427   -0.1532 H   0  0  0  0  0  0  0  0  0  0  0  0
   -1.7233   -2.2045    0.7655 C   0  0  0  0  0  0  0  0  0  0  0  0
   -0.7720   -2.8736    1.1375 O   0  0  0  0  0  0  0  0  0  0  0  0
   -1.5198   -0.9335    0.2725 N   0  0  0  0  0  0  0  0  0  0  0  0
   -2.3443   -0.3709    0.0633 H   0  0  0  0  0  0  0  0  0  0  0  0
   -0.2261   -0.2372    0.2665 C   0  0  1  0  0  0  0  0  0  0  0  0
    0.4410   -0.6938    1.0054 H   0  0  0  0  0  0  0  0  0  0  0  0
    0.4212   -0.4567   -1.1293 C   0  0  0  0  0  0  0  0  0  0  0  0
    0.9630   -1.4079   -1.0992 H   0  0  0  0  0  0  0  0  0  0  0  0
   -0.3878   -0.5776   -1.8591 H   0  0  0  0  0  0  0  0  0  0  0  0
    1.3618    0.6281   -1.7070 C   0  0  0  0  0  0  0  0  0  0  0  0
    2.2220    0.7391   -1.0416 H   0  0  0  0  0  0  0  0  0  0  0  0
    1.7403    0.2883   -2.6749 H   0  0  0  0  0  0  0  0  0  0  0  0
    0.7403    2.0057   -1.9142 C   0  0  0  0  0  0  0  0  0  0  0  0
   -0.1684    2.1075   -2.7171 O   0  0  0  0  0  0  0  0  0  0  0  0
    1.2436    3.0508   -1.2239 O   0  0  0  0  0  0  0  0  0  0  0  0
    0.6738    3.7966   -1.4707 H   0  0  0  0  0  0  0  0  0  0  0  0
   -0.4316    1.2153    0.7492 C   0  0  0  0  0  0  0  0  0  0  0  0
   -1.4372    1.8373    0.4262 O   0  0  0  0  0  0  0  0  0  0  0  0
    0.4386    1.7742    1.6672 N   0  0  0  0  0  0  0  0  0  0  0  0
    1.2407    1.2221    1.9557 H   0  0  0  0  0  0  0  0  0  0  0  0
    0.2599    3.1057    2.2325 C   0  0  0  0  0  0  0  0  0  0  0  0
   -0.7061    3.1795    2.7434 H   0  0  0  0  0  0  0  0  0  0  0  0
    1.0508    3.3177    2.9585 H   0  0  0  0  0  0  0  0  0  0  0  0
    0.3012    3.8646    1.4444 H   0  0  0  0  0  0  0  0  0  0  0  0
  1  2  1  0  0  0  0
  2  3  1  0  0  0  0
  2  4  1  0  0  0  0
  2  5  1  0  0  0  0
  5  6  2  0  0  0  0
  5  7  1  0  0  0  0
  7  8  1  0  0  0  0
  7  9  1  0  0  0  0
  9 10  1  0  0  0  0
  9 11  1  0  0  0  0
  9 21  1  0  0  0  0
 11 12  1  0  0  0  0
 11 13  1  0  0  0  0
 11 14  1  0  0  0  0
 14 15  1  0  0  0  0
 14 16  1  0  0  0  0
 14 17  1  0  0  0  0
 17 18  2  0  0  0  0
 17 19  1  0  0  0  0
 19 20  1  0  0  0  0
 21 22  2  0  0  0  0
 21 23  1  0  0  0  0
 23 24  1  0  0  0  0
 23 25  1  0  0  0  0
 25 26  1  0  0  0  0
 25 27  1  0  0  0  0
 25 28  1  0  0  0  0
M  END
$$$$

  -OEChem-03222214033D

 28 27  0     1  0  0  0  0  0999 V2000
   -3.1134   -3.7771    1.2264 H   0  0  0  0  0  0  0  0  0  0  0  0
   -3.1292   -2.7767    0.7851 C   0  0  0  0  0  0  0  0  0  0  0  0
   -3.7675   -2.1326    1.3950 H   0  0  0  0  0  0  0  0  0  0  0  0
   -3.5460   -2.8420   -0.2230 H   0  0  0  0  0  0  0  0  0  0  0  0
   -1.7241   -2.2084    0.7277 C   0  0  0  0  0  0  0  0  0  0  0  0
   -0.7738   -2.8800    1.0977 O   0  0  0  0  0  0  0  0  0  0  0  0
   -1.5205   -0.9292    0.2566 N   0  0  0  0  0  0  0  0  0  0  0  0
   -2.3462   -0.3640    0.0580 H   0  0  0  0  0  0  0  0  0  0  0  0
   -0.2328   -0.2210    0.2907 C   0  0  1  0  0  0  0  0  0  0  0  0
    0.4200   -0.6748    1.0439 H   0  0  0  0  0  0  0  0  0  0  0  0
    0.4476   -0.4384   -1.0926 C   0  0  0  0  0  0  0  0  0  0  0  0
    0.9669   -1.4021   -1.0612 H   0  0  0  0  0  0  0  0  0  0  0  0
   -0.3600   -0.5413   -1.8263 H   0  0  0  0  0  0  0  0  0  0  0  0
    1.4063    0.6152   -1.7046 C   0  0  0  0  0  0  0  0  0  0  0  0
    2.3632    0.5439   -1.1807 H   0  0  0  0  0  0  0  0  0  0  0  0
    1.5930    0.3527   -2.7498 H   0  0  0  0  0  0  0  0  0  0  0  0
    0.9823    2.0780   -1.6621 C   0  0  0  0  0  0  0  0  0  0  0  0
    0.0897    2.4326   -2.4081 O   0  0  0  0  0  0  0  0  0  0  0  0
    1.6434    2.9209   -0.8410 O   0  0  0  0  0  0  0  0  0  0  0  0
    1.2001    3.7745   -0.9698 H   0  0  0  0  0  0  0  0  0  0  0  0
   -0.4840    1.2192    0.7893 C   0  0  0  0  0  0  0  0  0  0  0  0
   -1.5059    1.8139    0.4666 O   0  0  0  0  0  0  0  0  0  0  0  0
    0.3463    1.7845    1.7400 N   0  0  0  0  0  0  0  0  0  0  0  0
    1.1769    1.2660    2.0104 H   0  0  0  0  0  0  0  0  0  0  0  0
    0.1106    3.0957    2.3314 C   0  0  0  0  0  0  0  0  0  0  0  0
   -0.8460    3.1091    2.8641 H   0  0  0  0  0  0  0  0  0  0  0  0
    0.9059    3.3382    3.0429 H   0  0  0  0  0  0  0  0  0  0  0  0
    0.0928    3.8686    1.5562 H   0  0  0  0  0  0  0  0  0  0  0  0
  1  2  1  0  0  0  0
  2  3  1  0  0  0  0
  2  4  1  0  0  0  0
  2  5  1  0  0  0  0
  5  6  2  0  0  0  0
  5  7  1  0  0  0  0
  7  8  1  0  0  0  0
  7  9  1  0  0  0  0
  9 10  1  0  0  0  0
  9 11  1  0  0  0  0
  9 21  1  0  0  0  0
 11 12  1  0  0  0  0
 11 13  1  0  0  0  0
 11 14  1  0  0  0  0
 14 15  1  0  0  0  0
 14 16  1  0  0  0  0
 14 17  1  0  0  0  0
 17 18  2  0  0  0  0
 17 19  1  0  0  0  0
 19 20  1  0  0  0  0
 21 22  2  0  0  0  0
 21 23  1  0  0  0  0
 23 24  1  0  0  0  0
 23 25  1  0  0  0  0
 25 26  1  0  0  0  0
 25 27  1  0  0  0  0
 25 28  1  0  0  0  0
M  END
$$$$

  -OEChem-03222214033D

 28 27  0     1  0  0  0  0  0999 V2000
   -3.0869   -3.8372    0.9900 H   0  0  0  0  0  0  0  0  0  0  0  0
   -3.0926   -2.8263    0.5730 C   0  0  0  0  0  0  0  0  0  0  0  0
   -3.7731   -2.2062    1.1616 H   0  0  0  0  0  0  0  0  0  0  0  0
   -3.4514   -2.8720   -0.4581 H   0  0  0  0  0  0  0  0  0  0  0  0
   -1.6950   -2.2384    0.6072 C   0  0  0  0  0  0  0  0  0  0  0  0
   -0.7585   -2.9037    1.0209 O   0  0  0  0  0  0  0  0  0  0  0  0
   -1.4819   -0.9493    0.1689 N   0  0  0  0  0  0  0  0  0  0  0  0
   -2.3040   -0.3855   -0.0505 H   0  0  0  0  0  0  0  0  0  0  0  0
   -0.2093   -0.2246    0.3044 C   0  0  1  0  0  0  0  0  0  0  0  0
    0.4105   -0.6769    1.0858 H   0  0  0  0  0  0  0  0  0  0  0  0
    0.5421   -0.3887   -1.0511 C   0  0  0  0  0  0  0  0  0  0  0  0
    1.0521   -1.3579   -1.0339 H   0  0  0  0  0  0  0  0  0  0  0  0
   -0.2364   -0.4616   -1.8191 H   0  0  0  0  0  0  0  0  0  0  0  0
    1.5287    0.6720   -1.6128 C   0  0  0  0  0  0  0  0  0  0  0  0
    2.5254    0.4144   -1.2448 H   0  0  0  0  0  0  0  0  0  0  0  0
    1.5602    0.5732   -2.7018 H   0  0  0  0  0  0  0  0  0  0  0  0
    1.3264    2.1456   -1.2874 C   0  0  0  0  0  0  0  0  0  0  0  0
    0.5464    2.7833   -1.9674 O   0  0  0  0  0  0  0  0  0  0  0  0
    2.0692    2.6915   -0.3008 O   0  0  0  0  0  0  0  0  0  0  0  0
    1.7923    3.6213   -0.2805 H   0  0  0  0  0  0  0  0  0  0  0  0
   -0.5599    1.1952    0.8061 C   0  0  0  0  0  0  0  0  0  0  0  0
   -1.5855    1.7461    0.4212 O   0  0  0  0  0  0  0  0  0  0  0  0
    0.1644    1.7791    1.8293 N   0  0  0  0  0  0  0  0  0  0  0  0
    1.0115    1.3085    2.1351 H   0  0  0  0  0  0  0  0  0  0  0  0
   -0.1843    3.0628    2.4252 C   0  0  0  0  0  0  0  0  0  0  0  0
   -1.1482    2.9953    2.9404 H   0  0  0  0  0  0  0  0  0  0  0  0
    0.5770    3.3619    3.1520 H   0  0  0  0  0  0  0  0  0  0  0  0
   -0.2503    3.8387    1.6551 H   0  0  0  0  0  0  0  0  0  0  0  0
  1  2  1  0  0  0  0
  2  3  1  0  0  0  0
  2  4  1  0  0  0  0
  2  5  1  0  0  0  0
  5  6  2  0  0  0  0
  5  7  1  0  0  0  0
  7  8  1  0  0  0  0
  7  9  1  0  0  0  0
  9 10  1  0  0  0  0
  9 11  1  0  0  0  0
  9 21  1  0  0  0  0
 11 12  1  0  0  0  0
 11 13  1  0  0  0  0
 11 14  1  0  0  0  0
 14 15  1  0  0  0  0
 14 16  1  0  0  0  0
 14 17  1  0  0  0  0
 17 18  2  0  0  0  0
 17 19  1  0  0  0  0
 19 20  1  0  0  0  0
 21 22  2  0  0  0  0
 21 23  1  0  0  0  0
 23 24  1  0  0  0  0
 23 25  1  0  0  0  0
 25 26  1  0  0  0  0
 25 27  1  0  0  0  0
 25 28  1  0  0  0  0
M  END
$$$$

  -OEChem-03222214033D

 28 27  0     1  0  0  0  0  0999 V2000
   -2.8296   -3.9731    1.0852 H   0  0  0  0  0  0  0  0  0  0  0  0
   -2.9063   -2.9591    0.6830 C   0  0  0  0  0  0  0  0  0  0  0  0
   -3.5616   -2.3721    1.3310 H   0  0  0  0  0  0  0  0  0  0  0  0
   -3.3432   -3.0079   -0.3173 H   0  0  0  0  0  0  0  0  0  0  0  0
   -1.5334   -2.3178    0.6167 C   0  0  0  0  0  0  0  0  0  0  0  0
   -0.5400   -2.9586    0.9219 O   0  0  0  0  0  0  0  0  0  0  0  0
   -1.4080   -1.0059    0.2140 N   0  0  0  0  0  0  0  0  0  0  0  0
   -2.2669   -0.4679    0.0924 H   0  0  0  0  0  0  0  0  0  0  0  0
   -0.1591   -0.2317    0.2864 C   0  0  1  0  0  0  0  0  0  0  0  0
    0.5499   -0.6810    0.9900 H   0  0  0  0  0  0  0  0  0  0  0  0
    0.4610   -0.2827   -1.1426 C   0  0  0  0  0  0  0  0  0  0  0  0
    1.0058   -1.2290   -1.2288 H   0  0  0  0  0  0  0  0  0  0  0  0
   -0.3846   -0.3512   -1.8365 H   0  0  0  0  0  0  0  0  0  0  0  0
    1.3510    0.8449   -1.7409 C   0  0  0  0  0  0  0  0  0  0  0  0
    2.3816    0.4800   -1.7367 H   0  0  0  0  0  0  0  0  0  0  0  0
    1.0731    0.9813   -2.7904 H   0  0  0  0  0  0  0  0  0  0  0  0
    1.3949    2.2221   -1.0938 C   0  0  0  0  0  0  0  0  0  0  0  0
    0.6840    3.1005   -1.5419 O   0  0  0  0  0  0  0  0  0  0  0  0
    2.2790    2.4228   -0.0921 O   0  0  0  0  0  0  0  0  0  0  0  0
    2.1726    3.3603    0.1345 H   0  0  0  0  0  0  0  0  0  0  0  0
   -0.5645    1.1438    0.8693 C   0  0  0  0  0  0  0  0  0  0  0  0
   -1.6376    1.6488    0.5554 O   0  0  0  0  0  0  0  0  0  0  0  0
    0.1833    1.7388    1.8688 N   0  0  0  0  0  0  0  0  0  0  0  0
    1.0839    1.3225    2.0904 H   0  0  0  0  0  0  0  0  0  0  0  0
   -0.1893    2.9991    2.5003 C   0  0  0  0  0  0  0  0  0  0  0  0
   -1.1466    2.8970    3.0226 H   0  0  0  0  0  0  0  0  0  0  0  0
    0.5708    3.2977    3.2286 H   0  0  0  0  0  0  0  0  0  0  0  0
   -0.2808    3.7915    1.7497 H   0  0  0  0  0  0  0  0  0  0  0  0
  1  2  1  0  0  0  0
  2  3  1  0  0  0  0
  2  4  1  0  0  0  0
  2  5  1  0  0  0  0
  5  6  2  0  0  0  0
  5  7  1  0  0  0  0
  7  8  1  0  0  0  0
  7  9  1  0  0  0  0
  9 10  1  0  0  0  0
  9 11  1  0  0  0  0
  9 21  1  0  0  0  0
 11 12  1  0  0  0  0
 11 13  1  0  0  0  0
 11 14  1  0  0  0  0
 14 15  1  0  0  0  0
 14 16  1  0  0  0  0
 14 17  1  0  0  0  0
 17 18  2  0  0  0  0
 17 19  1  0  0  0  0
 19 20  1  0  0  0  0
 21 22  2  0  0  0  0
 21 23  1  0  0  0  0
 23 24  1  0  0  0  0
 23 25  1  0  0  0  0
 25 26  1  0  0  0  0
 25 27  1  0  0  0  0
 25 28  1  0  0  0  0
M  END
$$$$

  -OEChem-03222214033D

 28 27  0     1  0  0  0  0  0999 V2000
   -3.0630   -3.7648    1.3947 H   0  0  0  0  0  0  0  0  0  0  0  0
   -3.0868   -2.7713    0.9382 C   0  0  0  0  0  0  0  0  0  0  0  0
   -3.6888   -2.1100    1.5660 H   0  0  0  0  0  0  0  0  0  0  0  0
   -3.5505   -2.8469   -0.0483 H   0  0  0  0  0  0  0  0  0  0  0  0
   -1.6788   -2.2224    0.8068 C   0  0  0  0  0  0  0  0  0  0  0  0
   -0.7192   -2.9113    1.1145 O   0  0  0  0  0  0  0  0  0  0  0  0
   -1.4831   -0.9413    0.3385 N   0  0  0  0  0  0  0  0  0  0  0  0
   -2.3094   -0.3558    0.2114 H   0  0  0  0  0  0  0  0  0  0  0  0
   -0.1840   -0.2508    0.3267 C   0  0  1  0  0  0  0  0  0  0  0  0
    0.5366   -0.7171    1.0072 H   0  0  0  0  0  0  0  0  0  0  0  0
    0.3386   -0.3685   -1.1363 C   0  0  0  0  0  0  0  0  0  0  0  0
    0.8372   -1.3408   -1.2137 H   0  0  0  0  0  0  0  0  0  0  0  0
   -0.5407   -0.4233   -1.7883 H   0  0  0  0  0  0  0  0  0  0  0  0
    1.2634    0.6927   -1.8011 C   0  0  0  0  0  0  0  0  0  0  0  0
    2.1758    0.1849   -2.1248 H   0  0  0  0  0  0  0  0  0  0  0  0
    0.7654    1.0517   -2.7073 H   0  0  0  0  0  0  0  0  0  0  0  0
    1.7066    1.9208   -1.0162 C   0  0  0  0  0  0  0  0  0  0  0  0
    1.2839    3.0133   -1.3429 O   0  0  0  0  0  0  0  0  0  0  0  0
    2.6196    1.7447   -0.0352 O   0  0  0  0  0  0  0  0  0  0  0  0
    2.8176    2.6446    0.2692 H   0  0  0  0  0  0  0  0  0  0  0  0
   -0.4897    1.1697    0.8612 C   0  0  0  0  0  0  0  0  0  0  0  0
   -1.5180    1.7427    0.5152 O   0  0  0  0  0  0  0  0  0  0  0  0
    0.3242    1.7657    1.8068 N   0  0  0  0  0  0  0  0  0  0  0  0
    1.1956    1.2930    2.0328 H   0  0  0  0  0  0  0  0  0  0  0  0
    0.0976    3.1140    2.3136 C   0  0  0  0  0  0  0  0  0  0  0  0
   -0.8866    3.1844    2.7887 H   0  0  0  0  0  0  0  0  0  0  0  0
    0.8576    3.3728    3.0569 H   0  0  0  0  0  0  0  0  0  0  0  0
    0.1476    3.8426    1.4973 H   0  0  0  0  0  0  0  0  0  0  0  0
  1  2  1  0  0  0  0
  2  3  1  0  0  0  0
  2  4  1  0  0  0  0
  2  5  1  0  0  0  0
  5  6  2  0  0  0  0
  5  7  1  0  0  0  0
  7  8  1  0  0  0  0
  7  9  1  0  0  0  0
  9 10  1  0  0  0  0
  9 11  1  0  0  0  0
  9 21  1  0  0  0  0
 11 12  1  0  0  0  0
 11 13  1  0  0  0  0
 11 14  1  0  0  0  0
 14 15  1  0  0  0  0
 14 16  1  0  0  0  0
 14 17  1  0  0  0  0
 17 18  2  0  0  0  0
 17 19  1  0  0  0  0
 19 20  1  0  0  0  0
 21 22  2  0  0  0  0
 21 23  1  0  0  0  0
 23 24  1  0  0  0  0
 23 25  1  0  0  0  0
 25 26  1  0  0  0  0
 25 27  1  0  0  0  0
 25 28  1  0  0  0  0
M  END
$$$$

  -OEChem-03222214033D

 28 27  0     1  0  0  0  0  0999 V2000
   -3.3071   -3.6477    1.2652 H   0  0  0  0  0  0  0  0  0  0  0  0
   -3.2388   -2.6610    0.7988 C   0  0  0  0  0  0  0  0  0  0  0  0
   -3.8532   -1.9592    1.3679 H   0  0  0  0  0  0  0  0  0  0  0  0
   -3.6221   -2.7264   -0.2223 H   0  0  0  0  0  0  0  0  0  0  0  0
   -1.7968   -2.1907    0.7798 C   0  0  0  0  0  0  0  0  0  0  0  0
   -0.9102   -2.9142    1.2041 O   0  0  0  0  0  0  0  0  0  0  0  0
   -1.4897   -0.9428    0.2823 N   0  0  0  0  0  0  0  0  0  0  0  0
   -2.2688   -0.3241    0.0555 H   0  0  0  0  0  0  0  0  0  0  0  0
   -0.1616   -0.3162    0.3774 C   0  0  1  0  0  0  0  0  0  0  0  0
    0.4685   -0.7868    1.1405 H   0  0  0  0  0  0  0  0  0  0  0  0
    0.4892   -0.4963   -1.0247 C   0  0  0  0  0  0  0  0  0  0  0  0
    0.9726   -1.4791   -1.0094 H   0  0  0  0  0  0  0  0  0  0  0  0
   -0.3113   -0.5567   -1.7707 H   0  0  0  0  0  0  0  0  0  0  0  0
    1.5206    0.5217   -1.5879 C   0  0  0  0  0  0  0  0  0  0  0  0
    2.3197   -0.0269   -2.0933 H   0  0  0  0  0  0  0  0  0  0  0  0
    1.0098    1.1157   -2.3514 H   0  0  0  0  0  0  0  0  0  0  0  0
    2.1706    1.5172   -0.6338 C   0  0  0  0  0  0  0  0  0  0  0  0
    2.7142    1.0857    0.3698 O   0  0  0  0  0  0  0  0  0  0  0  0
    2.1402    2.8275   -0.9564 O   0  0  0  0  0  0  0  0  0  0  0  0
    2.6129    3.2818   -0.2433 H   0  0  0  0  0  0  0  0  0  0  0  0
   -0.4475    1.1414    0.8198 C   0  0  0  0  0  0  0  0  0  0  0  0
   -1.3926    1.7526    0.3292 O   0  0  0  0  0  0  0  0  0  0  0  0
    0.2913    1.7464    1.8191 N   0  0  0  0  0  0  0  0  0  0  0  0
    1.1647    1.2868    2.0757 H   0  0  0  0  0  0  0  0  0  0  0  0
    0.0706    3.1208    2.2509 C   0  0  0  0  0  0  0  0  0  0  0  0
   -0.9444    3.2391    2.6448 H   0  0  0  0  0  0  0  0  0  0  0  0
    0.7793    3.3869    3.0411 H   0  0  0  0  0  0  0  0  0  0  0  0
    0.2066    3.8134    1.4136 H   0  0  0  0  0  0  0  0  0  0  0  0
  1  2  1  0  0  0  0
  2  3  1  0  0  0  0
  2  4  1  0  0  0  0
  2  5  1  0  0  0  0
  5  6  2  0  0  0  0
  5  7  1  0  0  0  0
  7  8  1  0  0  0  0
  7  9  1  0  0  0  0
  9 10  1  0  0  0  0
  9 11  1  0  0  0  0
  9 21  1  0  0  0  0
 11 12  1  0  0  0  0
 11 13  1  0  0  0  0
 11 14  1  0  0  0  0
 14 15  1  0  0  0  0
 14 16  1  0  0  0  0
 14 17  1  0  0  0  0
 17 18  2  0  0  0  0
 17 19  1  0  0  0  0
 19 20  1  0  0  0  0
 21 22  2  0  0  0  0
 21 23  1  0  0  0  0
 23 24  1  0  0  0  0
 23 25  1  0  0  0  0
 25 26  1  0  0  0  0
 25 27  1  0  0  0  0
 25 28  1  0  0  0  0
M  END
$$$$

  -OEChem-03222214033D

 28 27  0     1  0  0  0  0  0999 V2000
   -3.2911   -3.6987    1.2070 H   0  0  0  0  0  0  0  0  0  0  0  0
   -3.2286   -2.7075    0.7496 C   0  0  0  0  0  0  0  0  0  0  0  0
   -3.8563   -2.0171    1.3182 H   0  0  0  0  0  0  0  0  0  0  0  0
   -3.6011   -2.7682   -0.2758 H   0  0  0  0  0  0  0  0  0  0  0  0
   -1.7919   -2.2211    0.7499 C   0  0  0  0  0  0  0  0  0  0  0  0
   -0.9038   -2.9344    1.1875 O   0  0  0  0  0  0  0  0  0  0  0  0
   -1.4937   -0.9703    0.2536 N   0  0  0  0  0  0  0  0  0  0  0  0
   -2.2770   -0.3654    0.0076 H   0  0  0  0  0  0  0  0  0  0  0  0
   -0.1742   -0.3283    0.3550 C   0  0  1  0  0  0  0  0  0  0  0  0
    0.4558   -0.8010    1.1171 H   0  0  0  0  0  0  0  0  0  0  0  0
    0.4903   -0.4785   -1.0404 C   0  0  0  0  0  0  0  0  0  0  0  0
    1.0017   -1.4470   -1.0345 H   0  0  0  0  0  0  0  0  0  0  0  0
   -0.2951   -0.5414   -1.8016 H   0  0  0  0  0  0  0  0  0  0  0  0
    1.5019    0.5882   -1.5386 C   0  0  0  0  0  0  0  0  0  0  0  0
    2.1775    0.1293   -2.2649 H   0  0  0  0  0  0  0  0  0  0  0  0
    0.9309    1.3563   -2.0689 H   0  0  0  0  0  0  0  0  0  0  0  0
    2.3471    1.3230   -0.4993 C   0  0  0  0  0  0  0  0  0  0  0  0
    2.7261    0.7228    0.4932 O   0  0  0  0  0  0  0  0  0  0  0  0
    2.6584    2.6130   -0.7460 O   0  0  0  0  0  0  0  0  0  0  0  0
    3.2108    2.8931   -0.0009 H   0  0  0  0  0  0  0  0  0  0  0  0
   -0.4463    1.1314    0.7935 C   0  0  0  0  0  0  0  0  0  0  0  0
   -1.3682    1.7588    0.2809 O   0  0  0  0  0  0  0  0  0  0  0  0
    0.3010    1.7287    1.7908 N   0  0  0  0  0  0  0  0  0  0  0  0
    1.1460    1.2350    2.0780 H   0  0  0  0  0  0  0  0  0  0  0  0
    0.1272    3.1178    2.1954 C   0  0  0  0  0  0  0  0  0  0  0  0
   -0.8991    3.2927    2.5351 H   0  0  0  0  0  0  0  0  0  0  0  0
    0.8071    3.3594    3.0181 H   0  0  0  0  0  0  0  0  0  0  0  0
    0.3406    3.7905    1.3581 H   0  0  0  0  0  0  0  0  0  0  0  0
  1  2  1  0  0  0  0
  2  3  1  0  0  0  0
  2  4  1  0  0  0  0
  2  5  1  0  0  0  0
  5  6  2  0  0  0  0
  5  7  1  0  0  0  0
  7  8  1  0  0  0  0
  7  9  1  0  0  0  0
  9 10  1  0  0  0  0
  9 11  1  0  0  0  0
  9 21  1  0  0  0  0
 11 12  1  0  0  0  0
 11 13  1  0  0  0  0
 11 14  1  0  0  0  0
 14 15  1  0  0  0  0
 14 16  1  0  0  0  0
 14 17  1  0  0  0  0
 17 18  2  0  0  0  0
 17 19  1  0  0  0  0
 19 20  1  0  0  0  0
 21 22  2  0  0  0  0
 21 23  1  0  0  0  0
 23 24  1  0  0  0  0
 23 25  1  0  0  0  0
 25 26  1  0  0  0  0
 25 27  1  0  0  0  0
 25 28  1  0  0  0  0
M  END
$$$$

  -OEChem-03222214033D

 28 27  0     1  0  0  0  0  0999 V2000
   -3.2607   -3.7350    1.2388 H   0  0  0  0  0  0  0  0  0  0  0  0
   -3.2151   -2.7477    0.7708 C   0  0  0  0  0  0  0  0  0  0  0  0
   -3.8498   -2.0608    1.3359 H   0  0  0  0  0  0  0  0  0  0  0  0
   -3.5919   -2.8243   -0.2519 H   0  0  0  0  0  0  0  0  0  0  0  0
   -1.7858   -2.2403    0.7586 C   0  0  0  0  0  0  0  0  0  0  0  0
   -0.8859   -2.9383    1.1964 O   0  0  0  0  0  0  0  0  0  0  0  0
   -1.5095   -0.9887    0.2513 N   0  0  0  0  0  0  0  0  0  0  0  0
   -2.3032   -0.3998    0.0018 H   0  0  0  0  0  0  0  0  0  0  0  0
   -0.1980   -0.3281    0.3302 C   0  0  1  0  0  0  0  0  0  0  0  0
    0.4366   -0.7969    1.0908 H   0  0  0  0  0  0  0  0  0  0  0  0
    0.4748   -0.4752   -1.0584 C   0  0  0  0  0  0  0  0  0  0  0  0
    1.0068   -1.4327   -1.0597 H   0  0  0  0  0  0  0  0  0  0  0  0
   -0.3051   -0.5418   -1.8244 H   0  0  0  0  0  0  0  0  0  0  0  0
    1.4581    0.6329   -1.5154 C   0  0  0  0  0  0  0  0  0  0  0  0
    1.9968    0.2831   -2.3996 H   0  0  0  0  0  0  0  0  0  0  0  0
    0.8698    1.5043   -1.8184 H   0  0  0  0  0  0  0  0  0  0  0  0
    2.4916    1.1249   -0.4991 C   0  0  0  0  0  0  0  0  0  0  0  0
    2.7277    0.4695    0.5024 O   0  0  0  0  0  0  0  0  0  0  0  0
    3.1136    2.2891   -0.7792 O   0  0  0  0  0  0  0  0  0  0  0  0
    3.7399    2.4284   -0.0528 H   0  0  0  0  0  0  0  0  0  0  0  0
   -0.4382    1.1368    0.7616 C   0  0  0  0  0  0  0  0  0  0  0  0
   -1.3562    1.7772    0.2595 O   0  0  0  0  0  0  0  0  0  0  0  0
    0.3446    1.7241    1.7370 N   0  0  0  0  0  0  0  0  0  0  0  0
    1.1751    1.2052    2.0227 H   0  0  0  0  0  0  0  0  0  0  0  0
    0.2158    3.1205    2.1334 C   0  0  0  0  0  0  0  0  0  0  0  0
   -0.8028    3.3289    2.4774 H   0  0  0  0  0  0  0  0  0  0  0  0
    0.9069    3.3460    2.9511 H   0  0  0  0  0  0  0  0  0  0  0  0
    0.4455    3.7813    1.2909 H   0  0  0  0  0  0  0  0  0  0  0  0
  1  2  1  0  0  0  0
  2  3  1  0  0  0  0
  2  4  1  0  0  0  0
  2  5  1  0  0  0  0
  5  6  2  0  0  0  0
  5  7  1  0  0  0  0
  7  8  1  0  0  0  0
  7  9  1  0  0  0  0
  9 10  1  0  0  0  0
  9 11  1  0  0  0  0
  9 21  1  0  0  0  0
 11 12  1  0  0  0  0
 11 13  1  0  0  0  0
 11 14  1  0  0  0  0
 14 15  1  0  0  0  0
 14 16  1  0  0  0  0
 14 17  1  0  0  0  0
 17 18  2  0  0  0  0
 17 19  1  0  0  0  0
 19 20  1  0  0  0  0
 21 22  2  0  0  0  0
 21 23  1  0  0  0  0
 23 24  1  0  0  0  0
 23 25  1  0  0  0  0
 25 26  1  0  0  0  0
 25 27  1  0  0  0  0
 25 28  1  0  0  0  0
M  END
$$$$

  -OEChem-03222214033D

 28 27  0     1  0  0  0  0  0999 V2000
   -3.2142   -3.7704    1.2473 H   0  0  0  0  0  0  0  0  0  0  0  0
   -3.1904   -2.7814    0.7812 C   0  0  0  0  0  0  0  0  0  0  0  0
   -3.8249   -2.1049    1.3589 H   0  0  0  0  0  0  0  0  0  0  0  0
   -3.5836   -2.8612   -0.2350 H   0  0  0  0  0  0  0  0  0  0  0  0
   -1.7681   -2.2550    0.7455 C   0  0  0  0  0  0  0  0  0  0  0  0
   -0.8504   -2.9480    1.1537 O   0  0  0  0  0  0  0  0  0  0  0  0
   -1.5179   -0.9958    0.2429 N   0  0  0  0  0  0  0  0  0  0  0  0
   -2.3248   -0.4150    0.0185 H   0  0  0  0  0  0  0  0  0  0  0  0
   -0.2156   -0.3159    0.3087 C   0  0  1  0  0  0  0  0  0  0  0  0
    0.4234   -0.7832    1.0664 H   0  0  0  0  0  0  0  0  0  0  0  0
    0.4684   -0.4538   -1.0735 C   0  0  0  0  0  0  0  0  0  0  0  0
    1.0121   -1.4047   -1.0891 H   0  0  0  0  0  0  0  0  0  0  0  0
   -0.3107   -0.5155   -1.8409 H   0  0  0  0  0  0  0  0  0  0  0  0
    1.4269    0.6865   -1.4996 C   0  0  0  0  0  0  0  0  0  0  0  0
    1.8122    0.4514   -2.4954 H   0  0  0  0  0  0  0  0  0  0  0  0
    0.8667    1.6218   -1.5869 H   0  0  0  0  0  0  0  0  0  0  0  0
    2.6349    0.9399   -0.5922 C   0  0  0  0  0  0  0  0  0  0  0  0
    2.7135    0.4053    0.5016 O   0  0  0  0  0  0  0  0  0  0  0  0
    3.5794    1.7771   -1.0692 O   0  0  0  0  0  0  0  0  0  0  0  0
    4.2650    1.8083   -0.3845 H   0  0  0  0  0  0  0  0  0  0  0  0
   -0.4444    1.1464    0.7513 C   0  0  0  0  0  0  0  0  0  0  0  0
   -1.3774    1.7871    0.2780 O   0  0  0  0  0  0  0  0  0  0  0  0
    0.3591    1.7254    1.7140 N   0  0  0  0  0  0  0  0  0  0  0  0
    1.2076    1.2129    1.9575 H   0  0  0  0  0  0  0  0  0  0  0  0
    0.2392    3.1195    2.1208 C   0  0  0  0  0  0  0  0  0  0  0  0
   -0.7708    3.3259    2.4905 H   0  0  0  0  0  0  0  0  0  0  0  0
    0.9499    3.3414    2.9228 H   0  0  0  0  0  0  0  0  0  0  0  0
    0.4483    3.7843    1.2763 H   0  0  0  0  0  0  0  0  0  0  0  0
  1  2  1  0  0  0  0
  2  3  1  0  0  0  0
  2  4  1  0  0  0  0
  2  5  1  0  0  0  0
  5  6  2  0  0  0  0
  5  7  1  0  0  0  0
  7  8  1  0  0  0  0
  7  9  1  0  0  0  0
  9 10  1  0  0  0  0
  9 11  1  0  0  0  0
  9 21  1  0  0  0  0
 11 12  1  0  0  0  0
 11 13  1  0  0  0  0
 11 14  1  0  0  0  0
 14 15  1  0  0  0  0
 14 16  1  0  0  0  0
 14 17  1  0  0  0  0
 17 18  2  0  0  0  0
 17 19  1  0  0  0  0
 19 20  1  0  0  0  0
 21 22  2  0  0  0  0
 21 23  1  0  0  0  0
 23 24  1  0  0  0  0
 23 25  1  0  0  0  0
 25 26  1  0  0  0  0
 25 27  1  0  0  0  0
 25 28  1  0  0  0  0
M  END
$$$$

  -OEChem-03222214033D

 28 27  0     1  0  0  0  0  0999 V2000
   -3.1089   -3.8109    1.2148 H   0  0  0  0  0  0  0  0  0  0  0  0
   -3.1182   -2.8070    0.7811 C   0  0  0  0  0  0  0  0  0  0  0  0
   -3.7452   -2.1616    1.4009 H   0  0  0  0  0  0  0  0  0  0  0  0
   -3.5437   -2.8607   -0.2238 H   0  0  0  0  0  0  0  0  0  0  0  0
   -1.7078   -2.2528    0.7161 C   0  0  0  0  0  0  0  0  0  0  0  0
   -0.7658   -2.9340    1.0872 O   0  0  0  0  0  0  0  0  0  0  0  0
   -1.4947   -0.9809    0.2292 N   0  0  0  0  0  0  0  0  0  0  0  0
   -2.3181   -0.4095    0.0424 H   0  0  0  0  0  0  0  0  0  0  0  0
   -0.2057   -0.2762    0.2828 C   0  0  1  0  0  0  0  0  0  0  0  0
    0.4512   -0.7360    1.0299 H   0  0  0  0  0  0  0  0  0  0  0  0
    0.4756   -0.3931   -1.1025 C   0  0  0  0  0  0  0  0  0  0  0  0
    1.0287   -1.3378   -1.1455 H   0  0  0  0  0  0  0  0  0  0  0  0
   -0.3123   -0.4480   -1.8614 H   0  0  0  0  0  0  0  0  0  0  0  0
    1.4030    0.7751   -1.5108 C   0  0  0  0  0  0  0  0  0  0  0  0
    1.6118    0.6821   -2.5802 H   0  0  0  0  0  0  0  0  0  0  0  0
    0.9199    1.7450   -1.3705 H   0  0  0  0  0  0  0  0  0  0  0  0
    2.7455    0.7601   -0.7804 C   0  0  0  0  0  0  0  0  0  0  0  0
    2.7597    0.6544    0.4352 O   0  0  0  0  0  0  0  0  0  0  0  0
    3.8652    0.8692   -1.5260 O   0  0  0  0  0  0  0  0  0  0  0  0
    4.5994    0.8310   -0.8941 H   0  0  0  0  0  0  0  0  0  0  0  0
   -0.4603    1.1733    0.7539 C   0  0  0  0  0  0  0  0  0  0  0  0
   -1.4354    1.7878    0.3326 O   0  0  0  0  0  0  0  0  0  0  0  0
    0.3485    1.7521    1.7119 N   0  0  0  0  0  0  0  0  0  0  0  0
    1.2446    1.2893    1.8729 H   0  0  0  0  0  0  0  0  0  0  0  0
    0.1857    3.1268    2.1658 C   0  0  0  0  0  0  0  0  0  0  0  0
   -0.8249    3.2850    2.5570 H   0  0  0  0  0  0  0  0  0  0  0  0
    0.9005    3.3462    2.9648 H   0  0  0  0  0  0  0  0  0  0  0  0
    0.3586    3.8259    1.3412 H   0  0  0  0  0  0  0  0  0  0  0  0
  1  2  1  0  0  0  0
  2  3  1  0  0  0  0
  2  4  1  0  0  0  0
  2  5  1  0  0  0  0
  5  6  2  0  0  0  0
  5  7  1  0  0  0  0
  7  8  1  0  0  0  0
  7  9  1  0  0  0  0
  9 10  1  0  0  0  0
  9 11  1  0  0  0  0
  9 21  1  0  0  0  0
 11 12  1  0  0  0  0
 11 13  1  0  0  0  0
 11 14  1  0  0  0  0
 14 15  1  0  0  0  0
 14 16  1  0  0  0  0
 14 17  1  0  0  0  0
 17 18  2  0  0  0  0
 17 19  1  0  0  0  0
 19 20  1  0  0  0  0
 21 22  2  0  0  0  0
 21 23  1  0  0  0  0
 23 24  1  0  0  0  0
 23 25  1  0  0  0  0
 25 26  1  0  0  0  0
 25 27  1  0  0  0  0
 25 28  1  0  0  0  0
M  END
$$$$

  -OEChem-03222214033D

 28 27  0     1  0  0  0  0  0999 V2000
   -3.0530   -3.8393    1.1885 H   0  0  0  0  0  0  0  0  0  0  0  0
   -3.0829   -2.8359    0.7549 C   0  0  0  0  0  0  0  0  0  0  0  0
   -3.7193   -2.2027    1.3779 H   0  0  0  0  0  0  0  0  0  0  0  0
   -3.5117   -2.8977   -0.2480 H   0  0  0  0  0  0  0  0  0  0  0  0
   -1.6834   -2.2553    0.6837 C   0  0  0  0  0  0  0  0  0  0  0  0
   -0.7253   -2.9243    1.0355 O   0  0  0  0  0  0  0  0  0  0  0  0
   -1.4980   -0.9719    0.2152 N   0  0  0  0  0  0  0  0  0  0  0  0
   -2.3334   -0.4151    0.0391 H   0  0  0  0  0  0  0  0  0  0  0  0
   -0.2207   -0.2457    0.2603 C   0  0  1  0  0  0  0  0  0  0  0  0
    0.4402   -0.7053    1.0038 H   0  0  0  0  0  0  0  0  0  0  0  0
    0.4809   -0.3619   -1.1139 C   0  0  0  0  0  0  0  0  0  0  0  0
    1.0418   -1.3024   -1.1571 H   0  0  0  0  0  0  0  0  0  0  0  0
   -0.3024   -0.4247   -1.8768 H   0  0  0  0  0  0  0  0  0  0  0  0
    1.3863    0.8273   -1.5127 C   0  0  0  0  0  0  0  0  0  0  0  0
    1.4232    0.8745   -2.6046 H   0  0  0  0  0  0  0  0  0  0  0  0
    1.0128    1.7970   -1.1789 H   0  0  0  0  0  0  0  0  0  0  0  0
    2.8118    0.6120   -1.0240 C   0  0  0  0  0  0  0  0  0  0  0  0
    3.0047    0.6468    0.1805 O   0  0  0  0  0  0  0  0  0  0  0  0
    3.7860    0.3845   -1.9305 O   0  0  0  0  0  0  0  0  0  0  0  0
    4.5959    0.2626   -1.4116 H   0  0  0  0  0  0  0  0  0  0  0  0
   -0.4640    1.1946    0.7562 C   0  0  0  0  0  0  0  0  0  0  0  0
   -1.4419    1.8200    0.3603 O   0  0  0  0  0  0  0  0  0  0  0  0
    0.3712    1.7525    1.7050 N   0  0  0  0  0  0  0  0  0  0  0  0
    1.2494    1.2646    1.8802 H   0  0  0  0  0  0  0  0  0  0  0  0
    0.2280    3.1215    2.1824 C   0  0  0  0  0  0  0  0  0  0  0  0
   -0.7685    3.2771    2.6089 H   0  0  0  0  0  0  0  0  0  0  0  0
    0.9702    3.3293    2.9591 H   0  0  0  0  0  0  0  0  0  0  0  0
    0.3751    3.8308    1.3614 H   0  0  0  0  0  0  0  0  0  0  0  0
  1  2  1  0  0  0  0
  2  3  1  0  0  0  0
  2  4  1  0  0  0  0
  2  5  1  0  0  0  0
  5  6  2  0  0  0  0
  5  7  1  0  0  0  0
  7  8  1  0  0  0  0
  7  9  1  0  0  0  0
  9 10  1  0  0  0  0
  9 11  1  0  0  0  0
  9 21  1  0  0  0  0
 11 12  1  0  0  0  0
 11 13  1  0  0  0  0
 11 14  1  0  0  0  0
 14 15  1  0  0  0  0
 14 16  1  0  0  0  0
 14 17  1  0  0  0  0
 17 18  2  0  0  0  0
 17 19  1  0  0  0  0
 19 20  1  0  0  0  0
 21 22  2  0  0  0  0
 21 23  1  0  0  0  0
 23 24  1  0  0  0  0
 23 25  1  0  0  0  0
 25 26  1  0  0  0  0
 25 27  1  0  0  0  0
 25 28  1  0  0  0  0
M  END
$$$$

  -OEChem-03222214033D

 28 27  0     1  0  0  0  0  0999 V2000
   -3.0601   -3.8210    1.1280 H   0  0  0  0  0  0  0  0  0  0  0  0
   -3.0784   -2.8111    0.7089 C   0  0  0  0  0  0  0  0  0  0  0  0
   -3.7254   -2.1846    1.3277 H   0  0  0  0  0  0  0  0  0  0  0  0
   -3.4867   -2.8571   -0.3035 H   0  0  0  0  0  0  0  0  0  0  0  0
   -1.6761   -2.2340    0.6768 C   0  0  0  0  0  0  0  0  0  0  0  0
   -0.7310   -2.9011    1.0653 O   0  0  0  0  0  0  0  0  0  0  0  0
   -1.4729   -0.9521    0.2117 N   0  0  0  0  0  0  0  0  0  0  0  0
   -2.2998   -0.3948   -0.0001 H   0  0  0  0  0  0  0  0  0  0  0  0
   -0.1910   -0.2353    0.2781 C   0  0  1  0  0  0  0  0  0  0  0  0
    0.4667   -0.6992    1.0216 H   0  0  0  0  0  0  0  0  0  0  0  0
    0.5023   -0.3508   -1.1013 C   0  0  0  0  0  0  0  0  0  0  0  0
    1.0439   -1.3024   -1.1484 H   0  0  0  0  0  0  0  0  0  0  0  0
   -0.2859   -0.4037   -1.8601 H   0  0  0  0  0  0  0  0  0  0  0  0
    1.4266    0.8209   -1.5184 C   0  0  0  0  0  0  0  0  0  0  0  0
    1.2416    1.0481   -2.5721 H   0  0  0  0  0  0  0  0  0  0  0  0
    1.2486    1.7457   -0.9688 H   0  0  0  0  0  0  0  0  0  0  0  0
    2.8915    0.4321   -1.3863 C   0  0  0  0  0  0  0  0  0  0  0  0
    3.3579    0.3712   -0.2621 O   0  0  0  0  0  0  0  0  0  0  0  0
    3.5981    0.1592   -2.5037 O   0  0  0  0  0  0  0  0  0  0  0  0
    4.4853   -0.0762   -2.1915 H   0  0  0  0  0  0  0  0  0  0  0  0
   -0.4493    1.2036    0.7715 C   0  0  0  0  0  0  0  0  0  0  0  0
   -1.4033    1.8382    0.3348 O   0  0  0  0  0  0  0  0  0  0  0  0
    0.3613    1.7669    1.7390 N   0  0  0  0  0  0  0  0  0  0  0  0
    1.1735    1.2318    2.0391 H   0  0  0  0  0  0  0  0  0  0  0  0
    0.1816    3.1212    2.2467 C   0  0  0  0  0  0  0  0  0  0  0  0
   -0.8113    3.2343    2.6947 H   0  0  0  0  0  0  0  0  0  0  0  0
    0.9319    3.3401    3.0126 H   0  0  0  0  0  0  0  0  0  0  0  0
    0.2887    3.8512    1.4375 H   0  0  0  0  0  0  0  0  0  0  0  0
  1  2  1  0  0  0  0
  2  3  1  0  0  0  0
  2  4  1  0  0  0  0
  2  5  1  0  0  0  0
  5  6  2  0  0  0  0
  5  7  1  0  0  0  0
  7  8  1  0  0  0  0
  7  9  1  0  0  0  0
  9 10  1  0  0  0  0
  9 11  1  0  0  0  0
  9 21  1  0  0  0  0
 11 12  1  0  0  0  0
 11 13  1  0  0  0  0
 11 14  1  0  0  0  0
 14 15  1  0  0  0  0
 14 16  1  0  0  0  0
 14 17  1  0  0  0  0
 17 18  2  0  0  0  0
 17 19  1  0  0  0  0
 19 20  1  0  0  0  0
 21 22  2  0  0  0  0
 21 23  1  0  0  0  0
 23 24  1  0  0  0  0
 23 25  1  0  0  0  0
 25 26  1  0  0  0  0
 25 27  1  0  0  0  0
 25 28  1  0  0  0  0
M  END
$$$$

  -OEChem-03222214033D

 28 27  0     1  0  0  0  0  0999 V2000
   -3.0990   -3.7910    1.0723 H   0  0  0  0  0  0  0  0  0  0  0  0
   -3.0936   -2.7757    0.6661 C   0  0  0  0  0  0  0  0  0  0  0  0
   -3.7507   -2.1494    1.2744 H   0  0  0  0  0  0  0  0  0  0  0  0
   -3.4739   -2.8038   -0.3579 H   0  0  0  0  0  0  0  0  0  0  0  0
   -1.6841   -2.2148    0.6790 C   0  0  0  0  0  0  0  0  0  0  0  0
   -0.7600   -2.8882    1.1053 O   0  0  0  0  0  0  0  0  0  0  0  0
   -1.4510   -0.9393    0.2111 N   0  0  0  0  0  0  0  0  0  0  0  0
   -2.2635   -0.3738   -0.0322 H   0  0  0  0  0  0  0  0  0  0  0  0
   -0.1593   -0.2423    0.2938 C   0  0  1  0  0  0  0  0  0  0  0  0
    0.4919   -0.7140    1.0378 H   0  0  0  0  0  0  0  0  0  0  0  0
    0.5231   -0.3524   -1.0925 C   0  0  0  0  0  0  0  0  0  0  0  0
    1.0567   -1.3090   -1.1316 H   0  0  0  0  0  0  0  0  0  0  0  0
   -0.2600   -0.4025   -1.8570 H   0  0  0  0  0  0  0  0  0  0  0  0
    1.4676    0.8073   -1.5032 C   0  0  0  0  0  0  0  0  0  0  0  0
    1.0936    1.2669   -2.4226 H   0  0  0  0  0  0  0  0  0  0  0  0
    1.5265    1.5980   -0.7547 H   0  0  0  0  0  0  0  0  0  0  0  0
    2.8838    0.3069   -1.7518 C   0  0  0  0  0  0  0  0  0  0  0  0
    3.5959    0.1081   -0.7839 O   0  0  0  0  0  0  0  0  0  0  0  0
    3.2801    0.0942   -3.0245 O   0  0  0  0  0  0  0  0  0  0  0  0
    4.1925   -0.2262   -2.9546 H   0  0  0  0  0  0  0  0  0  0  0  0
   -0.4224    1.2007    0.7767 C   0  0  0  0  0  0  0  0  0  0  0  0
   -1.3575    1.8414    0.3093 O   0  0  0  0  0  0  0  0  0  0  0  0
    0.3687    1.7685    1.7582 N   0  0  0  0  0  0  0  0  0  0  0  0
    1.1301    1.2078    2.1329 H   0  0  0  0  0  0  0  0  0  0  0  0
    0.1585    3.1135    2.2795 C   0  0  0  0  0  0  0  0  0  0  0  0
   -0.8277    3.1926    2.7490 H   0  0  0  0  0  0  0  0  0  0  0  0
    0.9184    3.3511    3.0301 H   0  0  0  0  0  0  0  0  0  0  0  0
    0.2259    3.8525    1.4742 H   0  0  0  0  0  0  0  0  0  0  0  0
  1  2  1  0  0  0  0
  2  3  1  0  0  0  0
  2  4  1  0  0  0  0
  2  5  1  0  0  0  0
  5  6  2  0  0  0  0
  5  7  1  0  0  0  0
  7  8  1  0  0  0  0
  7  9  1  0  0  0  0
  9 10  1  0  0  0  0
  9 11  1  0  0  0  0
  9 21  1  0  0  0  0
 11 12  1  0  0  0  0
 11 13  1  0  0  0  0
 11 14  1  0  0  0  0
 14 15  1  0  0  0  0
 14 16  1  0  0  0  0
 14 17  1  0  0  0  0
 17 18  2  0  0  0  0
 17 19  1  0  0  0  0
 19 20  1  0  0  0  0
 21 22  2  0  0  0  0
 21 23  1  0  0  0  0
 23 24  1  0  0  0  0
 23 25  1  0  0  0  0
 25 26  1  0  0  0  0
 25 27  1  0  0  0  0
 25 28  1  0  0  0  0
M  END
$$$$

  -OEChem-03222214033D

 28 27  0     1  0  0  0  0  0999 V2000
   -2.9808   -3.8268    1.2841 H   0  0  0  0  0  0  0  0  0  0  0  0
   -3.0151   -2.8260    0.8448 C   0  0  0  0  0  0  0  0  0  0  0  0
   -3.6726   -2.1972    1.4500 H   0  0  0  0  0  0  0  0  0  0  0  0
   -3.4216   -2.8995   -0.1668 H   0  0  0  0  0  0  0  0  0  0  0  0
   -1.6224   -2.2268    0.7992 C   0  0  0  0  0  0  0  0  0  0  0  0
   -0.6698   -2.8524    1.2359 O   0  0  0  0  0  0  0  0  0  0  0  0
   -1.4350   -0.9678    0.2702 N   0  0  0  0  0  0  0  0  0  0  0  0
   -2.2650   -0.4379    0.0069 H   0  0  0  0  0  0  0  0  0  0  0  0
   -0.1523   -0.2512    0.2554 C   0  0  1  0  0  0  0  0  0  0  0  0
    0.5545   -0.6872    0.9697 H   0  0  0  0  0  0  0  0  0  0  0  0
    0.4293   -0.3853   -1.1730 C   0  0  0  0  0  0  0  0  0  0  0  0
    0.9920   -1.3251   -1.2080 H   0  0  0  0  0  0  0  0  0  0  0  0
   -0.3907   -0.4838   -1.8932 H   0  0  0  0  0  0  0  0  0  0  0  0
    1.3217    0.7828   -1.6572 C   0  0  0  0  0  0  0  0  0  0  0  0
    0.7618    1.4218   -2.3465 H   0  0  0  0  0  0  0  0  0  0  0  0
    1.6530    1.4070   -0.8255 H   0  0  0  0  0  0  0  0  0  0  0  0
    2.5836    0.2699   -2.3385 C   0  0  0  0  0  0  0  0  0  0  0  0
    2.5197   -0.0647   -3.5069 O   0  0  0  0  0  0  0  0  0  0  0  0
    3.7132    0.1906   -1.6027 O   0  0  0  0  0  0  0  0  0  0  0  0
    4.3807   -0.1656   -2.2096 H   0  0  0  0  0  0  0  0  0  0  0  0
   -0.4129    1.2065    0.6962 C   0  0  0  0  0  0  0  0  0  0  0  0
   -1.3709    1.8214    0.2416 O   0  0  0  0  0  0  0  0  0  0  0  0
    0.4188    1.8254    1.6114 N   0  0  0  0  0  0  0  0  0  0  0  0
    1.1699    1.2723    2.0153 H   0  0  0  0  0  0  0  0  0  0  0  0
    0.2025    3.1829    2.0973 C   0  0  0  0  0  0  0  0  0  0  0  0
   -0.7681    3.2611    2.5987 H   0  0  0  0  0  0  0  0  0  0  0  0
    0.9841    3.4581    2.8121 H   0  0  0  0  0  0  0  0  0  0  0  0
    0.2282    3.8957    1.2664 H   0  0  0  0  0  0  0  0  0  0  0  0
  1  2  1  0  0  0  0
  2  3  1  0  0  0  0
  2  4  1  0  0  0  0
  2  5  1  0  0  0  0
  5  6  2  0  0  0  0
  5  7  1  0  0  0  0
  7  8  1  0  0  0  0
  7  9  1  0  0  0  0
  9 10  1  0  0  0  0
  9 11  1  0  0  0  0
  9 21  1  0  0  0  0
 11 12  1  0  0  0  0
 11 13  1  0  0  0  0
 11 14  1  0  0  0  0
 14 15  1  0  0  0  0
 14 16  1  0  0  0  0
 14 17  1  0  0  0  0
 17 18  2  0  0  0  0
 17 19  1  0  0  0  0
 19 20  1  0  0  0  0
 21 22  2  0  0  0  0
 21 23  1  0  0  0  0
 23 24  1  0  0  0  0
 23 25  1  0  0  0  0
 25 26  1  0  0  0  0
 25 27  1  0  0  0  0
 25 28  1  0  0  0  0
M  END
$$$$

  -OEChem-03222214033D

 28 27  0     1  0  0  0  0  0999 V2000
   -3.0882   -3.7934    1.2849 H   0  0  0  0  0  0  0  0  0  0  0  0
   -3.0929   -2.8011    0.8248 C   0  0  0  0  0  0  0  0  0  0  0  0
   -3.7484   -2.1468    1.4050 H   0  0  0  0  0  0  0  0  0  0  0  0
   -3.4824   -2.8863   -0.1926 H   0  0  0  0  0  0  0  0  0  0  0  0
   -1.6872   -2.2316    0.7941 C   0  0  0  0  0  0  0  0  0  0  0  0
   -0.7551   -2.8723    1.2530 O   0  0  0  0  0  0  0  0  0  0  0  0
   -1.4669   -0.9784    0.2637 N   0  0  0  0  0  0  0  0  0  0  0  0
   -2.2812   -0.4370   -0.0237 H   0  0  0  0  0  0  0  0  0  0  0  0
   -0.1698   -0.2886    0.2614 C   0  0  1  0  0  0  0  0  0  0  0  0
    0.5204   -0.7398    0.9821 H   0  0  0  0  0  0  0  0  0  0  0  0
    0.4250   -0.4259   -1.1601 C   0  0  0  0  0  0  0  0  0  0  0  0
    0.9832   -1.3686   -1.1902 H   0  0  0  0  0  0  0  0  0  0  0  0
   -0.3821   -0.5091   -1.8965 H   0  0  0  0  0  0  0  0  0  0  0  0
    1.3405    0.7397   -1.6016 C   0  0  0  0  0  0  0  0  0  0  0  0
    0.7445    1.5386   -2.0518 H   0  0  0  0  0  0  0  0  0  0  0  0
    1.8588    1.1560   -0.7345 H   0  0  0  0  0  0  0  0  0  0  0  0
    2.4245    0.2988   -2.5815 C   0  0  0  0  0  0  0  0  0  0  0  0
    2.1292   -0.4530   -3.4930 O   0  0  0  0  0  0  0  0  0  0  0  0
    3.6753    0.7678   -2.3854 O   0  0  0  0  0  0  0  0  0  0  0  0
    4.2023    0.3801   -3.1013 H   0  0  0  0  0  0  0  0  0  0  0  0
   -0.3984    1.1771    0.6947 C   0  0  0  0  0  0  0  0  0  0  0  0
   -1.3351    1.8143    0.2265 O   0  0  0  0  0  0  0  0  0  0  0  0
    0.4385    1.7800    1.6161 N   0  0  0  0  0  0  0  0  0  0  0  0
    1.1583    1.2049    2.0453 H   0  0  0  0  0  0  0  0  0  0  0  0
    0.2439    3.1418    2.0999 C   0  0  0  0  0  0  0  0  0  0  0  0
   -0.7124    3.2287    2.6264 H   0  0  0  0  0  0  0  0  0  0  0  0
    1.0463    3.4163    2.7915 H   0  0  0  0  0  0  0  0  0  0  0  0
    0.2520    3.8505    1.2649 H   0  0  0  0  0  0  0  0  0  0  0  0
  1  2  1  0  0  0  0
  2  3  1  0  0  0  0
  2  4  1  0  0  0  0
  2  5  1  0  0  0  0
  5  6  2  0  0  0  0
  5  7  1  0  0  0  0
  7  8  1  0  0  0  0
  7  9  1  0  0  0  0
  9 10  1  0  0  0  0
  9 11  1  0  0  0  0
  9 21  1  0  0  0  0
 11 12  1  0  0  0  0
 11 13  1  0  0  0  0
 11 14  1  0  0  0  0
 14 15  1  0  0  0  0
 14 16  1  0  0  0  0
 14 17  1  0  0  0  0
 17 18  2  0  0  0  0
 17 19  1  0  0  0  0
 19 20  1  0  0  0  0
 21 22  2  0  0  0  0
 21 23  1  0  0  0  0
 23 24  1  0  0  0  0
 23 25  1  0  0  0  0
 25 26  1  0  0  0  0
 25 27  1  0  0  0  0
 25 28  1  0  0  0  0
M  END
$$$$

  -OEChem-03222214033D

 28 27  0     1  0  0  0  0  0999 V2000
   -3.1343   -3.7828    1.2758 H   0  0  0  0  0  0  0  0  0  0  0  0
   -3.1291   -2.7932    0.8102 C   0  0  0  0  0  0  0  0  0  0  0  0
   -3.7891   -2.1334    1.3786 H   0  0  0  0  0  0  0  0  0  0  0  0
   -3.5056   -2.8833   -0.2116 H   0  0  0  0  0  0  0  0  0  0  0  0
   -1.7207   -2.2297    0.7949 C   0  0  0  0  0  0  0  0  0  0  0  0
   -0.7973   -2.8736    1.2668 O   0  0  0  0  0  0  0  0  0  0  0  0
   -1.4877   -0.9791    0.2634 N   0  0  0  0  0  0  0  0  0  0  0  0
   -2.2955   -0.4352   -0.0367 H   0  0  0  0  0  0  0  0  0  0  0  0
   -0.1850   -0.2996    0.2665 C   0  0  1  0  0  0  0  0  0  0  0  0
    0.4932   -0.7570    0.9948 H   0  0  0  0  0  0  0  0  0  0  0  0
    0.4264   -0.4498   -1.1461 C   0  0  0  0  0  0  0  0  0  0  0  0
    0.9801   -1.3950   -1.1728 H   0  0  0  0  0  0  0  0  0  0  0  0
   -0.3760   -0.5243   -1.8889 H   0  0  0  0  0  0  0  0  0  0  0  0
    1.3525    0.7116   -1.5740 C   0  0  0  0  0  0  0  0  0  0  0  0
    0.7576    1.6010   -1.8017 H   0  0  0  0  0  0  0  0  0  0  0  0
    2.0304    0.9579   -0.7526 H   0  0  0  0  0  0  0  0  0  0  0  0
    2.2187    0.3879   -2.7907 C   0  0  0  0  0  0  0  0  0  0  0  0
    1.8830   -0.4967   -3.5582 O   0  0  0  0  0  0  0  0  0  0  0  0
    3.3396    1.1212   -2.9567 O   0  0  0  0  0  0  0  0  0  0  0  0
    3.7423    0.7794   -3.7699 H   0  0  0  0  0  0  0  0  0  0  0  0
   -0.3898    1.1703    0.6945 C   0  0  0  0  0  0  0  0  0  0  0  0
   -1.3141    1.8220    0.2219 O   0  0  0  0  0  0  0  0  0  0  0  0
    0.4557    1.7599    1.6161 N   0  0  0  0  0  0  0  0  0  0  0  0
    1.1573    1.1699    2.0549 H   0  0  0  0  0  0  0  0  0  0  0  0
    0.2782    3.1230    2.1019 C   0  0  0  0  0  0  0  0  0  0  0  0
   -0.6844    3.2243    2.6141 H   0  0  0  0  0  0  0  0  0  0  0  0
    1.0748    3.3806    2.8065 H   0  0  0  0  0  0  0  0  0  0  0  0
    0.3110    3.8345    1.2700 H   0  0  0  0  0  0  0  0  0  0  0  0
  1  2  1  0  0  0  0
  2  3  1  0  0  0  0
  2  4  1  0  0  0  0
  2  5  1  0  0  0  0
  5  6  2  0  0  0  0
  5  7  1  0  0  0  0
  7  8  1  0  0  0  0
  7  9  1  0  0  0  0
  9 10  1  0  0  0  0
  9 11  1  0  0  0  0
  9 21  1  0  0  0  0
 11 12  1  0  0  0  0
 11 13  1  0  0  0  0
 11 14  1  0  0  0  0
 14 15  1  0  0  0  0
 14 16  1  0  0  0  0
 14 17  1  0  0  0  0
 17 18  2  0  0  0  0
 17 19  1  0  0  0  0
 19 20  1  0  0  0  0
 21 22  2  0  0  0  0
 21 23  1  0  0  0  0
 23 24  1  0  0  0  0
 23 25  1  0  0  0  0
 25 26  1  0  0  0  0
 25 27  1  0  0  0  0
 25 28  1  0  0  0  0
M  END
$$$$

  -OEChem-03222214033D

 28 27  0     1  0  0  0  0  0999 V2000
   -3.1715   -3.7680    1.2537 H   0  0  0  0  0  0  0  0  0  0  0  0
   -3.1514   -2.7829    0.7794 C   0  0  0  0  0  0  0  0  0  0  0  0
   -3.8256   -2.1163    1.3224 H   0  0  0  0  0  0  0  0  0  0  0  0
   -3.4992   -2.8812   -0.2517 H   0  0  0  0  0  0  0  0  0  0  0  0
   -1.7419   -2.2232    0.7975 C   0  0  0  0  0  0  0  0  0  0  0  0
   -0.8324   -2.8681    1.2945 O   0  0  0  0  0  0  0  0  0  0  0  0
   -1.4917   -0.9776    0.2625 N   0  0  0  0  0  0  0  0  0  0  0  0
   -2.2895   -0.4343   -0.0643 H   0  0  0  0  0  0  0  0  0  0  0  0
   -0.1848   -0.3074    0.2805 C   0  0  1  0  0  0  0  0  0  0  0  0
    0.4815   -0.7720    1.0150 H   0  0  0  0  0  0  0  0  0  0  0  0
    0.4333   -0.4668   -1.1239 C   0  0  0  0  0  0  0  0  0  0  0  0
    0.7472   -1.5088   -1.2523 H   0  0  0  0  0  0  0  0  0  0  0  0
   -0.3388   -0.2609   -1.8744 H   0  0  0  0  0  0  0  0  0  0  0  0
    1.6298    0.4728   -1.3972 C   0  0  0  0  0  0  0  0  0  0  0  0
    1.3164    1.5162   -1.3080 H   0  0  0  0  0  0  0  0  0  0  0  0
    2.4137    0.2894   -0.6582 H   0  0  0  0  0  0  0  0  0  0  0  0
    2.2397    0.3103   -2.7900 C   0  0  0  0  0  0  0  0  0  0  0  0
    1.7808   -0.5046   -3.5710 O   0  0  0  0  0  0  0  0  0  0  0  0
    3.2929    1.1006   -3.0857 O   0  0  0  0  0  0  0  0  0  0  0  0
    3.5363    0.8609   -3.9933 H   0  0  0  0  0  0  0  0  0  0  0  0
   -0.3732    1.1670    0.6957 C   0  0  0  0  0  0  0  0  0  0  0  0
   -1.2797    1.8297    0.2052 O   0  0  0  0  0  0  0  0  0  0  0  0
    0.4694    1.7505    1.6239 N   0  0  0  0  0  0  0  0  0  0  0  0
    1.1587    1.1545    2.0735 H   0  0  0  0  0  0  0  0  0  0  0  0
    0.3047    3.1190    2.0992 C   0  0  0  0  0  0  0  0  0  0  0  0
   -0.6765    3.2460    2.5689 H   0  0  0  0  0  0  0  0  0  0  0  0
    1.0753    3.3587    2.8383 H   0  0  0  0  0  0  0  0  0  0  0  0
    0.3919    3.8270    1.2682 H   0  0  0  0  0  0  0  0  0  0  0  0
  1  2  1  0  0  0  0
  2  3  1  0  0  0  0
  2  4  1  0  0  0  0
  2  5  1  0  0  0  0
  5  6  2  0  0  0  0
  5  7  1  0  0  0  0
  7  8  1  0  0  0  0
  7  9  1  0  0  0  0
  9 10  1  0  0  0  0
  9 11  1  0  0  0  0
  9 21  1  0  0  0  0
 11 12  1  0  0  0  0
 11 13  1  0  0  0  0
 11 14  1  0  0  0  0
 14 15  1  0  0  0  0
 14 16  1  0  0  0  0
 14 17  1  0  0  0  0
 17 18  2  0  0  0  0
 17 19  1  0  0  0  0
 19 20  1  0  0  0  0
 21 22  2  0  0  0  0
 21 23  1  0  0  0  0
 23 24  1  0  0  0  0
 23 25  1  0  0  0  0
 25 26  1  0  0  0  0
 25 27  1  0  0  0  0
 25 28  1  0  0  0  0
M  END
$$$$

  -OEChem-03222214033D

 28 27  0     1  0  0  0  0  0999 V2000
   -3.1915   -3.7509    1.2306 H   0  0  0  0  0  0  0  0  0  0  0  0
   -3.1614   -2.7647    0.7588 C   0  0  0  0  0  0  0  0  0  0  0  0
   -3.8360   -2.0955    1.2981 H   0  0  0  0  0  0  0  0  0  0  0  0
   -3.5016   -2.8585   -0.2754 H   0  0  0  0  0  0  0  0  0  0  0  0
   -1.7484   -2.2138    0.7901 C   0  0  0  0  0  0  0  0  0  0  0  0
   -0.8471   -2.8665    1.2920 O   0  0  0  0  0  0  0  0  0  0  0  0
   -1.4856   -0.9676    0.2623 N   0  0  0  0  0  0  0  0  0  0  0  0
   -2.2769   -0.4180   -0.0700 H   0  0  0  0  0  0  0  0  0  0  0  0
   -0.1741   -0.3063    0.2924 C   0  0  1  0  0  0  0  0  0  0  0  0
    0.4854   -0.7753    1.0299 H   0  0  0  0  0  0  0  0  0  0  0  0
    0.4493   -0.4718   -1.1109 C   0  0  0  0  0  0  0  0  0  0  0  0
    0.7407   -1.5180   -1.2566 H   0  0  0  0  0  0  0  0  0  0  0  0
   -0.3296   -0.2443   -1.8481 H   0  0  0  0  0  0  0  0  0  0  0  0
    1.6591    0.4483   -1.4033 C   0  0  0  0  0  0  0  0  0  0  0  0
    1.4462    1.4728   -1.0903 H   0  0  0  0  0  0  0  0  0  0  0  0
    2.5303    0.0996   -0.8433 H   0  0  0  0  0  0  0  0  0  0  0  0
    2.0261    0.5283   -2.8857 C   0  0  0  0  0  0  0  0  0  0  0  0
    1.5854   -0.2926   -3.6711 O   0  0  0  0  0  0  0  0  0  0  0  0
    2.8584    1.5252   -3.2527 O   0  0  0  0  0  0  0  0  0  0  0  0
    2.9711    1.4154   -4.2095 H   0  0  0  0  0  0  0  0  0  0  0  0
   -0.3675    1.1663    0.7136 C   0  0  0  0  0  0  0  0  0  0  0  0
   -1.2668    1.8320    0.2139 O   0  0  0  0  0  0  0  0  0  0  0  0
    0.4652    1.7472    1.6525 N   0  0  0  0  0  0  0  0  0  0  0  0
    1.1499    1.1503    2.1083 H   0  0  0  0  0  0  0  0  0  0  0  0
    0.3022    3.1183    2.1215 C   0  0  0  0  0  0  0  0  0  0  0  0
   -0.6884    3.2558    2.5681 H   0  0  0  0  0  0  0  0  0  0  0  0
    1.0578    3.3527    2.8775 H   0  0  0  0  0  0  0  0  0  0  0  0
    0.4148    3.8230    1.2907 H   0  0  0  0  0  0  0  0  0  0  0  0
  1  2  1  0  0  0  0
  2  3  1  0  0  0  0
  2  4  1  0  0  0  0
  2  5  1  0  0  0  0
  5  6  2  0  0  0  0
  5  7  1  0  0  0  0
  7  8  1  0  0  0  0
  7  9  1  0  0  0  0
  9 10  1  0  0  0  0
  9 11  1  0  0  0  0
  9 21  1  0  0  0  0
 11 12  1  0  0  0  0
 11 13  1  0  0  0  0
 11 14  1  0  0  0  0
 14 15  1  0  0  0  0
 14 16  1  0  0  0  0
 14 17  1  0  0  0  0
 17 18  2  0  0  0  0
 17 19  1  0  0  0  0
 19 20  1  0  0  0  0
 21 22  2  0  0  0  0
 21 23  1  0  0  0  0
 23 24  1  0  0  0  0
 23 25  1  0  0  0  0
 25 26  1  0  0  0  0
 25 27  1  0  0  0  0
 25 28  1  0  0  0  0
M  END
$$$$

  -OEChem-03222214033D

 28 27  0     1  0  0  0  0  0999 V2000
   -3.2149   -3.7266    1.2243 H   0  0  0  0  0  0  0  0  0  0  0  0
   -3.1766   -2.7388    0.7563 C   0  0  0  0  0  0  0  0  0  0  0  0
   -3.8373   -2.0631    1.3049 H   0  0  0  0  0  0  0  0  0  0  0  0
   -3.5280   -2.8236   -0.2749 H   0  0  0  0  0  0  0  0  0  0  0  0
   -1.7569   -2.2053    0.7770 C   0  0  0  0  0  0  0  0  0  0  0  0
   -0.8589   -2.8705    1.2684 O   0  0  0  0  0  0  0  0  0  0  0  0
   -1.4832   -0.9601    0.2526 N   0  0  0  0  0  0  0  0  0  0  0  0
   -2.2712   -0.3981   -0.0672 H   0  0  0  0  0  0  0  0  0  0  0  0
   -0.1672   -0.3079    0.2926 C   0  0  1  0  0  0  0  0  0  0  0  0
    0.4834   -0.7810    1.0356 H   0  0  0  0  0  0  0  0  0  0  0  0
    0.4646   -0.4789   -1.1072 C   0  0  0  0  0  0  0  0  0  0  0  0
    0.7399   -1.5282   -1.2601 H   0  0  0  0  0  0  0  0  0  0  0  0
   -0.3170   -0.2414   -1.8385 H   0  0  0  0  0  0  0  0  0  0  0  0
    1.6872    0.4248   -1.4114 C   0  0  0  0  0  0  0  0  0  0  0  0
    1.6144    1.3755   -0.8809 H   0  0  0  0  0  0  0  0  0  0  0  0
    2.6017   -0.0691   -1.0741 H   0  0  0  0  0  0  0  0  0  0  0  0
    1.8282    0.7768   -2.8926 C   0  0  0  0  0  0  0  0  0  0  0  0
    1.4587   -0.0197   -3.7374 O   0  0  0  0  0  0  0  0  0  0  0  0
    2.3909    1.9657   -3.1961 O   0  0  0  0  0  0  0  0  0  0  0  0
    2.3901    2.0020   -4.1650 H   0  0  0  0  0  0  0  0  0  0  0  0
   -0.3618    1.1645    0.7153 C   0  0  0  0  0  0  0  0  0  0  0  0
   -1.2619    1.8299    0.2166 O   0  0  0  0  0  0  0  0  0  0  0  0
    0.4647    1.7413    1.6623 N   0  0  0  0  0  0  0  0  0  0  0  0
    1.1537    1.1455    2.1125 H   0  0  0  0  0  0  0  0  0  0  0  0
    0.3046    3.1127    2.1308 C   0  0  0  0  0  0  0  0  0  0  0  0
   -0.6785    3.2477    2.5938 H   0  0  0  0  0  0  0  0  0  0  0  0
    1.0722    3.3513    2.8733 H   0  0  0  0  0  0  0  0  0  0  0  0
    0.4008    3.8162    1.2972 H   0  0  0  0  0  0  0  0  0  0  0  0
  1  2  1  0  0  0  0
  2  3  1  0  0  0  0
  2  4  1  0  0  0  0
  2  5  1  0  0  0  0
  5  6  2  0  0  0  0
  5  7  1  0  0  0  0
  7  8  1  0  0  0  0
  7  9  1  0  0  0  0
  9 10  1  0  0  0  0
  9 11  1  0  0  0  0
  9 21  1  0  0  0  0
 11 12  1  0  0  0  0
 11 13  1  0  0  0  0
 11 14  1  0  0  0  0
 14 15  1  0  0  0  0
 14 16  1  0  0  0  0
 14 17  1  0  0  0  0
 17 18  2  0  0  0  0
 17 19  1  0  0  0  0
 19 20  1  0  0  0  0
 21 22  2  0  0  0  0
 21 23  1  0  0  0  0
 23 24  1  0  0  0  0
 23 25  1  0  0  0  0
 25 26  1  0  0  0  0
 25 27  1  0  0  0  0
 25 28  1  0  0  0  0
M  END
$$$$

  -OEChem-03222214033D

 28 27  0     1  0  0  0  0  0999 V2000
   -3.2379   -3.7026    1.2365 H   0  0  0  0  0  0  0  0  0  0  0  0
   -3.1911   -2.7146    0.7698 C   0  0  0  0  0  0  0  0  0  0  0  0
   -3.8386   -2.0317    1.3251 H   0  0  0  0  0  0  0  0  0  0  0  0
   -3.5521   -2.7931   -0.2585 H   0  0  0  0  0  0  0  0  0  0  0  0
   -1.7646   -2.1993    0.7786 C   0  0  0  0  0  0  0  0  0  0  0  0
   -0.8711   -2.8745    1.2645 O   0  0  0  0  0  0  0  0  0  0  0  0
   -1.4790   -0.9596    0.2480 N   0  0  0  0  0  0  0  0  0  0  0  0
   -2.2623   -0.3871   -0.0648 H   0  0  0  0  0  0  0  0  0  0  0  0
   -0.1567   -0.3204    0.2867 C   0  0  1  0  0  0  0  0  0  0  0  0
    0.4929   -0.7960    1.0288 H   0  0  0  0  0  0  0  0  0  0  0  0
    0.4665   -0.4921   -1.1169 C   0  0  0  0  0  0  0  0  0  0  0  0
    0.7368   -1.5429   -1.2675 H   0  0  0  0  0  0  0  0  0  0  0  0
   -0.3170   -0.2583   -1.8473 H   0  0  0  0  0  0  0  0  0  0  0  0
    1.6976    0.4012   -1.4215 C   0  0  0  0  0  0  0  0  0  0  0  0
    1.8037    1.2024   -0.6892 H   0  0  0  0  0  0  0  0  0  0  0  0
    2.6057   -0.2041   -1.3630 H   0  0  0  0  0  0  0  0  0  0  0  0
    1.6402    1.0548   -2.8007 C   0  0  0  0  0  0  0  0  0  0  0  0
    1.3402    0.3748   -3.7659 O   0  0  0  0  0  0  0  0  0  0  0  0
    1.9482    2.3664   -2.8862 O   0  0  0  0  0  0  0  0  0  0  0  0
    1.8416    2.5880   -3.8240 H   0  0  0  0  0  0  0  0  0  0  0  0
   -0.3469    1.1555    0.7024 C   0  0  0  0  0  0  0  0  0  0  0  0
   -1.2457    1.8199    0.2000 O   0  0  0  0  0  0  0  0  0  0  0  0
    0.4776    1.7358    1.6494 N   0  0  0  0  0  0  0  0  0  0  0  0
    1.1634    1.1411    2.1061 H   0  0  0  0  0  0  0  0  0  0  0  0
    0.3207    3.1114    2.1068 C   0  0  0  0  0  0  0  0  0  0  0  0
   -0.6573    3.2490    2.5798 H   0  0  0  0  0  0  0  0  0  0  0  0
    1.0966    3.3585    2.8377 H   0  0  0  0  0  0  0  0  0  0  0  0
    0.4059    3.8072    1.2653 H   0  0  0  0  0  0  0  0  0  0  0  0
  1  2  1  0  0  0  0
  2  3  1  0  0  0  0
  2  4  1  0  0  0  0
  2  5  1  0  0  0  0
  5  6  2  0  0  0  0
  5  7  1  0  0  0  0
  7  8  1  0  0  0  0
  7  9  1  0  0  0  0
  9 10  1  0  0  0  0
  9 11  1  0  0  0  0
  9 21  1  0  0  0  0
 11 12  1  0  0  0  0
 11 13  1  0  0  0  0
 11 14  1  0  0  0  0
 14 15  1  0  0  0  0
 14 16  1  0  0  0  0
 14 17  1  0  0  0  0
 17 18  2  0  0  0  0
 17 19  1  0  0  0  0
 19 20  1  0  0  0  0
 21 22  2  0  0  0  0
 21 23  1  0  0  0  0
 23 24  1  0  0  0  0
 23 25  1  0  0  0  0
 25 26  1  0  0  0  0
 25 27  1  0  0  0  0
 25 28  1  0  0  0  0
M  END
$$$$

  -OEChem-03222214033D

 28 27  0     1  0  0  0  0  0999 V2000
   -3.2492   -3.6927    1.2635 H   0  0  0  0  0  0  0  0  0  0  0  0
   -3.2008   -2.7052    0.7962 C   0  0  0  0  0  0  0  0  0  0  0  0
   -3.8332   -2.0162    1.3614 H   0  0  0  0  0  0  0  0  0  0  0  0
   -3.5784   -2.7806   -0.2265 H   0  0  0  0  0  0  0  0  0  0  0  0
   -1.7699   -2.2024    0.7837 C   0  0  0  0  0  0  0  0  0  0  0  0
   -0.8759   -2.8822    1.2624 O   0  0  0  0  0  0  0  0  0  0  0  0
   -1.4811   -0.9681    0.2422 N   0  0  0  0  0  0  0  0  0  0  0  0
   -2.2647   -0.3891   -0.0581 H   0  0  0  0  0  0  0  0  0  0  0  0
   -0.1559   -0.3346    0.2712 C   0  0  1  0  0  0  0  0  0  0  0  0
    0.4969   -0.8097    1.0109 H   0  0  0  0  0  0  0  0  0  0  0  0
    0.4582   -0.5008   -1.1349 C   0  0  0  0  0  0  0  0  0  0  0  0
    0.7430   -1.5502   -1.2673 H   0  0  0  0  0  0  0  0  0  0  0  0
   -0.3205   -0.2886   -1.8769 H   0  0  0  0  0  0  0  0  0  0  0  0
    1.6880    0.3971   -1.4232 C   0  0  0  0  0  0  0  0  0  0  0  0
    1.9767    0.9853   -0.5505 H   0  0  0  0  0  0  0  0  0  0  0  0
    2.5416   -0.2417   -1.6652 H   0  0  0  0  0  0  0  0  0  0  0  0
    1.4714    1.3406   -2.6021 C   0  0  0  0  0  0  0  0  0  0  0  0
    1.2050    0.8677   -3.6925 O   0  0  0  0  0  0  0  0  0  0  0  0
    1.5959    2.6655   -2.3776 O   0  0  0  0  0  0  0  0  0  0  0  0
    1.3893    3.0840   -3.2272 H   0  0  0  0  0  0  0  0  0  0  0  0
   -0.3378    1.1457    0.6762 C   0  0  0  0  0  0  0  0  0  0  0  0
   -1.2453    1.8055    0.1826 O   0  0  0  0  0  0  0  0  0  0  0  0
    0.4928    1.7293    1.6153 N   0  0  0  0  0  0  0  0  0  0  0  0
    1.1900    1.1401    2.0613 H   0  0  0  0  0  0  0  0  0  0  0  0
    0.3567    3.1142    2.0496 C   0  0  0  0  0  0  0  0  0  0  0  0
   -0.6123    3.2700    2.5352 H   0  0  0  0  0  0  0  0  0  0  0  0
    1.1466    3.3663    2.7636 H   0  0  0  0  0  0  0  0  0  0  0  0
    0.4359    3.7938    1.1944 H   0  0  0  0  0  0  0  0  0  0  0  0
  1  2  1  0  0  0  0
  2  3  1  0  0  0  0
  2  4  1  0  0  0  0
  2  5  1  0  0  0  0
  5  6  2  0  0  0  0
  5  7  1  0  0  0  0
  7  8  1  0  0  0  0
  7  9  1  0  0  0  0
  9 10  1  0  0  0  0
  9 11  1  0  0  0  0
  9 21  1  0  0  0  0
 11 12  1  0  0  0  0
 11 13  1  0  0  0  0
 11 14  1  0  0  0  0
 14 15  1  0  0  0  0
 14 16  1  0  0  0  0
 14 17  1  0  0  0  0
 17 18  2  0  0  0  0
 17 19  1  0  0  0  0
 19 20  1  0  0  0  0
 21 22  2  0  0  0  0
 21 23  1  0  0  0  0
 23 24  1  0  0  0  0
 23 25  1  0  0  0  0
 25 26  1  0  0  0  0
 25 27  1  0  0  0  0
 25 28  1  0  0  0  0
M  END
$$$$

  -OEChem-03222214033D

 28 27  0     1  0  0  0  0  0999 V2000
   -3.2372   -3.7068    1.2870 H   0  0  0  0  0  0  0  0  0  0  0  0
   -3.1953   -2.7198    0.8179 C   0  0  0  0  0  0  0  0  0  0  0  0
   -3.8227   -2.0314    1.3893 H   0  0  0  0  0  0  0  0  0  0  0  0
   -3.5840   -2.7967   -0.2005 H   0  0  0  0  0  0  0  0  0  0  0  0
   -1.7654   -2.2147    0.7885 C   0  0  0  0  0  0  0  0  0  0  0  0
   -0.8632   -2.8939    1.2524 O   0  0  0  0  0  0  0  0  0  0  0  0
   -1.4862   -0.9800    0.2438 N   0  0  0  0  0  0  0  0  0  0  0  0
   -2.2749   -0.4030   -0.0467 H   0  0  0  0  0  0  0  0  0  0  0  0
   -0.1647   -0.3397    0.2606 C   0  0  1  0  0  0  0  0  0  0  0  0
    0.4959   -0.8118    0.9956 H   0  0  0  0  0  0  0  0  0  0  0  0
    0.4398   -0.5009   -1.1491 C   0  0  0  0  0  0  0  0  0  0  0  0
    0.7474   -1.5458   -1.2649 H   0  0  0  0  0  0  0  0  0  0  0  0
   -0.3354   -0.3126   -1.9011 H   0  0  0  0  0  0  0  0  0  0  0  0
    1.6578    0.4117   -1.4247 C   0  0  0  0  0  0  0  0  0  0  0  0
    2.1065    0.7710   -0.4957 H   0  0  0  0  0  0  0  0  0  0  0  0
    2.4242   -0.1743   -1.9393 H   0  0  0  0  0  0  0  0  0  0  0  0
    1.3231    1.5942   -2.3288 C   0  0  0  0  0  0  0  0  0  0  0  0
    0.9446    1.3771   -3.4660 O   0  0  0  0  0  0  0  0  0  0  0  0
    1.4716    2.8349   -1.8181 O   0  0  0  0  0  0  0  0  0  0  0  0
    1.1609    3.4305   -2.5172 H   0  0  0  0  0  0  0  0  0  0  0  0
   -0.3426    1.1413    0.6648 C   0  0  0  0  0  0  0  0  0  0  0  0
   -1.2594    1.7967    0.1823 O   0  0  0  0  0  0  0  0  0  0  0  0
    0.4960    1.7291    1.5939 N   0  0  0  0  0  0  0  0  0  0  0  0
    1.2202    1.1527    2.0122 H   0  0  0  0  0  0  0  0  0  0  0  0
    0.3894    3.1279    1.9900 C   0  0  0  0  0  0  0  0  0  0  0  0
   -0.5790    3.3188    2.4644 H   0  0  0  0  0  0  0  0  0  0  0  0
    1.1802    3.3808    2.7027 H   0  0  0  0  0  0  0  0  0  0  0  0
    0.4897    3.7818    1.1169 H   0  0  0  0  0  0  0  0  0  0  0  0
  1  2  1  0  0  0  0
  2  3  1  0  0  0  0
  2  4  1  0  0  0  0
  2  5  1  0  0  0  0
  5  6  2  0  0  0  0
  5  7  1  0  0  0  0
  7  8  1  0  0  0  0
  7  9  1  0  0  0  0
  9 10  1  0  0  0  0
  9 11  1  0  0  0  0
  9 21  1  0  0  0  0
 11 12  1  0  0  0  0
 11 13  1  0  0  0  0
 11 14  1  0  0  0  0
 14 15  1  0  0  0  0
 14 16  1  0  0  0  0
 14 17  1  0  0  0  0
 17 18  2  0  0  0  0
 17 19  1  0  0  0  0
 19 20  1  0  0  0  0
 21 22  2  0  0  0  0
 21 23  1  0  0  0  0
 23 24  1  0  0  0  0
 23 25  1  0  0  0  0
 25 26  1  0  0  0  0
 25 27  1  0  0  0  0
 25 28  1  0  0  0  0
M  END
$$$$

  -OEChem-03222214033D

 28 27  0     1  0  0  0  0  0999 V2000
   -3.1969   -3.7262    1.3009 H   0  0  0  0  0  0  0  0  0  0  0  0
   -3.1750   -2.7386    0.8314 C   0  0  0  0  0  0  0  0  0  0  0  0
   -3.8043   -2.0591    1.4113 H   0  0  0  0  0  0  0  0  0  0  0  0
   -3.5763   -2.8211   -0.1816 H   0  0  0  0  0  0  0  0  0  0  0  0
   -1.7523   -2.2141    0.7835 C   0  0  0  0  0  0  0  0  0  0  0  0
   -0.8349   -2.8878    1.2254 O   0  0  0  0  0  0  0  0  0  0  0  0
   -1.4956   -0.9706    0.2467 N   0  0  0  0  0  0  0  0  0  0  0  0
   -2.2954   -0.3997   -0.0252 H   0  0  0  0  0  0  0  0  0  0  0  0
   -0.1821   -0.3129    0.2546 C   0  0  1  0  0  0  0  0  0  0  0  0
    0.4818   -0.7794    0.9900 H   0  0  0  0  0  0  0  0  0  0  0  0
    0.4284   -0.4908   -1.1522 C   0  0  0  0  0  0  0  0  0  0  0  0
    0.7501   -1.5336   -1.2441 H   0  0  0  0  0  0  0  0  0  0  0  0
   -0.3449   -0.3269   -1.9116 H   0  0  0  0  0  0  0  0  0  0  0  0
    1.6342    0.4275   -1.4530 C   0  0  0  0  0  0  0  0  0  0  0  0
    2.2217    0.5979   -0.5473 H   0  0  0  0  0  0  0  0  0  0  0  0
    2.2875   -0.0749   -2.1716 H   0  0  0  0  0  0  0  0  0  0  0  0
    1.2402    1.7672   -2.0708 C   0  0  0  0  0  0  0  0  0  0  0  0
    0.6679    1.7705   -3.1455 O   0  0  0  0  0  0  0  0  0  0  0  0
    1.5621    2.8916   -1.3973 O   0  0  0  0  0  0  0  0  0  0  0  0
    1.1788    3.6100   -1.9242 H   0  0  0  0  0  0  0  0  0  0  0  0
   -0.3615    1.1631    0.6726 C   0  0  0  0  0  0  0  0  0  0  0  0
   -1.2960    1.8160    0.2220 O   0  0  0  0  0  0  0  0  0  0  0  0
    0.4893    1.7429    1.5955 N   0  0  0  0  0  0  0  0  0  0  0  0
    1.2366    1.1706    1.9769 H   0  0  0  0  0  0  0  0  0  0  0  0
    0.3754    3.1316    2.0242 C   0  0  0  0  0  0  0  0  0  0  0  0
   -0.5909    3.3054    2.5090 H   0  0  0  0  0  0  0  0  0  0  0  0
    1.1686    3.3740    2.7378 H   0  0  0  0  0  0  0  0  0  0  0  0
    0.4658    3.8058    1.1661 H   0  0  0  0  0  0  0  0  0  0  0  0
  1  2  1  0  0  0  0
  2  3  1  0  0  0  0
  2  4  1  0  0  0  0
  2  5  1  0  0  0  0
  5  6  2  0  0  0  0
  5  7  1  0  0  0  0
  7  8  1  0  0  0  0
  7  9  1  0  0  0  0
  9 10  1  0  0  0  0
  9 11  1  0  0  0  0
  9 21  1  0  0  0  0
 11 12  1  0  0  0  0
 11 13  1  0  0  0  0
 11 14  1  0  0  0  0
 14 15  1  0  0  0  0
 14 16  1  0  0  0  0
 14 17  1  0  0  0  0
 17 18  2  0  0  0  0
 17 19  1  0  0  0  0
 19 20  1  0  0  0  0
 21 22  2  0  0  0  0
 21 23  1  0  0  0  0
 23 24  1  0  0  0  0
 23 25  1  0  0  0  0
 25 26  1  0  0  0  0
 25 27  1  0  0  0  0
 25 28  1  0  0  0  0
M  END
$$$$

  -OEChem-03222214033D

 28 27  0     1  0  0  0  0  0999 V2000
   -3.1536   -3.7372    1.3091 H   0  0  0  0  0  0  0  0  0  0  0  0
   -3.1467   -2.7528    0.8325 C   0  0  0  0  0  0  0  0  0  0  0  0
   -3.7841   -2.0779    1.4090 H   0  0  0  0  0  0  0  0  0  0  0  0
   -3.5488   -2.8478   -0.1791 H   0  0  0  0  0  0  0  0  0  0  0  0
   -1.7319   -2.2085    0.7774 C   0  0  0  0  0  0  0  0  0  0  0  0
   -0.7992   -2.8791    1.1910 O   0  0  0  0  0  0  0  0  0  0  0  0
   -1.4989   -0.9525    0.2593 N   0  0  0  0  0  0  0  0  0  0  0  0
   -2.3102   -0.3864    0.0122 H   0  0  0  0  0  0  0  0  0  0  0  0
   -0.1952   -0.2755    0.2641 C   0  0  1  0  0  0  0  0  0  0  0  0
    0.4721   -0.7375    0.9993 H   0  0  0  0  0  0  0  0  0  0  0  0
    0.4202   -0.4761   -1.1408 C   0  0  0  0  0  0  0  0  0  0  0  0
    0.7400   -1.5209   -1.2170 H   0  0  0  0  0  0  0  0  0  0  0  0
   -0.3611   -0.3240   -1.8945 H   0  0  0  0  0  0  0  0  0  0  0  0
    1.6174    0.4305   -1.5042 C   0  0  0  0  0  0  0  0  0  0  0  0
    2.3410    0.4269   -0.6849 H   0  0  0  0  0  0  0  0  0  0  0  0
    2.1184    0.0167   -2.3833 H   0  0  0  0  0  0  0  0  0  0  0  0
    1.2454    1.8737   -1.8346 C   0  0  0  0  0  0  0  0  0  0  0  0
    0.5060    2.0784   -2.7792 O   0  0  0  0  0  0  0  0  0  0  0  0
    1.7761    2.8591   -1.0807 O   0  0  0  0  0  0  0  0  0  0  0  0
    1.3852    3.6721   -1.4379 H   0  0  0  0  0  0  0  0  0  0  0  0
   -0.3898    1.1903    0.7087 C   0  0  0  0  0  0  0  0  0  0  0  0
   -1.3560    1.8297    0.3097 O   0  0  0  0  0  0  0  0  0  0  0  0
    0.4659    1.7627    1.6318 N   0  0  0  0  0  0  0  0  0  0  0  0
    1.2503    1.2065    1.9587 H   0  0  0  0  0  0  0  0  0  0  0  0
    0.3176    3.1273    2.1219 C   0  0  0  0  0  0  0  0  0  0  0  0
   -0.6538    3.2562    2.6106 H   0  0  0  0  0  0  0  0  0  0  0  0
    1.1028    3.3549    2.8491 H   0  0  0  0  0  0  0  0  0  0  0  0
    0.3939    3.8420    1.2960 H   0  0  0  0  0  0  0  0  0  0  0  0
  1  2  1  0  0  0  0
  2  3  1  0  0  0  0
  2  4  1  0  0  0  0
  2  5  1  0  0  0  0
  5  6  2  0  0  0  0
  5  7  1  0  0  0  0
  7  8  1  0  0  0  0
  7  9  1  0  0  0  0
  9 10  1  0  0  0  0
  9 11  1  0  0  0  0
  9 21  1  0  0  0  0
 11 12  1  0  0  0  0
 11 13  1  0  0  0  0
 11 14  1  0  0  0  0
 14 15  1  0  0  0  0
 14 16  1  0  0  0  0
 14 17  1  0  0  0  0
 17 18  2  0  0  0  0
 17 19  1  0  0  0  0
 19 20  1  0  0  0  0
 21 22  2  0  0  0  0
 21 23  1  0  0  0  0
 23 24  1  0  0  0  0
 23 25  1  0  0  0  0
 25 26  1  0  0  0  0
 25 27  1  0  0  0  0
 25 28  1  0  0  0  0
M  END
$$$$

  -OEChem-03222214033D

 28 27  0     1  0  0  0  0  0999 V2000
   -3.1169   -3.7476    1.3052 H   0  0  0  0  0  0  0  0  0  0  0  0
   -3.1228   -2.7536    0.8494 C   0  0  0  0  0  0  0  0  0  0  0  0
   -3.7441   -2.0913    1.4571 H   0  0  0  0  0  0  0  0  0  0  0  0
   -3.5524   -2.8272   -0.1525 H   0  0  0  0  0  0  0  0  0  0  0  0
   -1.7101   -2.2081    0.7663 C   0  0  0  0  0  0  0  0  0  0  0  0
   -0.7662   -2.8854    1.1420 O   0  0  0  0  0  0  0  0  0  0  0  0
   -1.4926   -0.9428    0.2653 N   0  0  0  0  0  0  0  0  0  0  0  0
   -2.3116   -0.3677    0.0673 H   0  0  0  0  0  0  0  0  0  0  0  0
   -0.1939   -0.2559    0.2720 C   0  0  1  0  0  0  0  0  0  0  0  0
    0.4797   -0.7153    1.0032 H   0  0  0  0  0  0  0  0  0  0  0  0
    0.4178   -0.4566   -1.1383 C   0  0  0  0  0  0  0  0  0  0  0  0
    0.7170   -1.5063   -1.2275 H   0  0  0  0  0  0  0  0  0  0  0  0
   -0.3762   -0.2853   -1.8743 H   0  0  0  0  0  0  0  0  0  0  0  0
    1.6133    0.4289   -1.5618 C   0  0  0  0  0  0  0  0  0  0  0  0
    2.4492    0.2329   -0.8852 H   0  0  0  0  0  0  0  0  0  0  0  0
    1.9317    0.1312   -2.5646 H   0  0  0  0  0  0  0  0  0  0  0  0
    1.3690    1.9333   -1.5874 C   0  0  0  0  0  0  0  0  0  0  0  0
    0.5589    2.3707   -2.3818 O   0  0  0  0  0  0  0  0  0  0  0  0
    2.0881    2.7143   -0.7539 O   0  0  0  0  0  0  0  0  0  0  0  0
    1.7715    3.6132   -0.9359 H   0  0  0  0  0  0  0  0  0  0  0  0
   -0.4264    1.1970    0.7433 C   0  0  0  0  0  0  0  0  0  0  0  0
   -1.4345    1.8012    0.3956 O   0  0  0  0  0  0  0  0  0  0  0  0
    0.4139    1.7772    1.6757 N   0  0  0  0  0  0  0  0  0  0  0  0
    1.2418    1.2583    1.9541 H   0  0  0  0  0  0  0  0  0  0  0  0
    0.2044    3.1138    2.2183 C   0  0  0  0  0  0  0  0  0  0  0  0
   -0.7561    3.1692    2.7415 H   0  0  0  0  0  0  0  0  0  0  0  0
    0.9989    3.3626    2.9283 H   0  0  0  0  0  0  0  0  0  0  0  0
    0.2116    3.8586    1.4157 H   0  0  0  0  0  0  0  0  0  0  0  0
  1  2  1  0  0  0  0
  2  3  1  0  0  0  0
  2  4  1  0  0  0  0
  2  5  1  0  0  0  0
  5  6  2  0  0  0  0
  5  7  1  0  0  0  0
  7  8  1  0  0  0  0
  7  9  1  0  0  0  0
  9 10  1  0  0  0  0
  9 11  1  0  0  0  0
  9 21  1  0  0  0  0
 11 12  1  0  0  0  0
 11 13  1  0  0  0  0
 11 14  1  0  0  0  0
 14 15  1  0  0  0  0
 14 16  1  0  0  0  0
 14 17  1  0  0  0  0
 17 18  2  0  0  0  0
 17 19  1  0  0  0  0
 19 20  1  0  0  0  0
 21 22  2  0  0  0  0
 21 23  1  0  0  0  0
 23 24  1  0  0  0  0
 23 25  1  0  0  0  0
 25 26  1  0  0  0  0
 25 27  1  0  0  0  0
 25 28  1  0  0  0  0
M  END
$$$$

  -OEChem-03222214033D

 28 27  0     1  0  0  0  0  0999 V2000
   -3.0873   -3.7642    1.3039 H   0  0  0  0  0  0  0  0  0  0  0  0
   -3.1021   -2.7647    0.8605 C   0  0  0  0  0  0  0  0  0  0  0  0
   -3.7111   -2.1096    1.4882 H   0  0  0  0  0  0  0  0  0  0  0  0
   -3.5519   -2.8263   -0.1334 H   0  0  0  0  0  0  0  0  0  0  0  0
   -1.6913   -2.2173    0.7566 C   0  0  0  0  0  0  0  0  0  0  0  0
   -0.7402   -2.8988    1.1056 O   0  0  0  0  0  0  0  0  0  0  0  0
   -1.4834   -0.9449    0.2698 N   0  0  0  0  0  0  0  0  0  0  0  0
   -2.3072   -0.3655    0.1053 H   0  0  0  0  0  0  0  0  0  0  0  0
   -0.1882   -0.2498    0.2859 C   0  0  1  0  0  0  0  0  0  0  0  0
    0.4933   -0.7089    1.0097 H   0  0  0  0  0  0  0  0  0  0  0  0
    0.4128   -0.4283   -1.1341 C   0  0  0  0  0  0  0  0  0  0  0  0
    0.6904   -1.4812   -1.2532 H   0  0  0  0  0  0  0  0  0  0  0  0
   -0.3969   -0.2281   -1.8454 H   0  0  0  0  0  0  0  0  0  0  0  0
    1.6056    0.4440   -1.6015 C   0  0  0  0  0  0  0  0  0  0  0  0
    2.5093    0.0581   -1.1220 H   0  0  0  0  0  0  0  0  0  0  0  0
    1.7341    0.3098   -2.6792 H   0  0  0  0  0  0  0  0  0  0  0  0
    1.5601    1.9408   -1.3246 C   0  0  0  0  0  0  0  0  0  0  0  0
    0.8013    2.6257   -1.9823 O   0  0  0  0  0  0  0  0  0  0  0  0
    2.3938    2.4451   -0.3896 O   0  0  0  0  0  0  0  0  0  0  0  0
    2.2109    3.3981   -0.3950 H   0  0  0  0  0  0  0  0  0  0  0  0
   -0.4615    1.1912    0.7769 C   0  0  0  0  0  0  0  0  0  0  0  0
   -1.4952    1.7635    0.4487 O   0  0  0  0  0  0  0  0  0  0  0  0
    0.3553    1.7821    1.7236 N   0  0  0  0  0  0  0  0  0  0  0  0
    1.2187    1.3034    1.9653 H   0  0  0  0  0  0  0  0  0  0  0  0
    0.1026    3.1052    2.2809 C   0  0  0  0  0  0  0  0  0  0  0  0
   -0.8566    3.1212    2.8089 H   0  0  0  0  0  0  0  0  0  0  0  0
    0.8912    3.3747    2.9898 H   0  0  0  0  0  0  0  0  0  0  0  0
    0.0794    3.8576    1.4857 H   0  0  0  0  0  0  0  0  0  0  0  0
  1  2  1  0  0  0  0
  2  3  1  0  0  0  0
  2  4  1  0  0  0  0
  2  5  1  0  0  0  0
  5  6  2  0  0  0  0
  5  7  1  0  0  0  0
  7  8  1  0  0  0  0
  7  9  1  0  0  0  0
  9 10  1  0  0  0  0
  9 11  1  0  0  0  0
  9 21  1  0  0  0  0
 11 12  1  0  0  0  0
 11 13  1  0  0  0  0
 11 14  1  0  0  0  0
 14 15  1  0  0  0  0
 14 16  1  0  0  0  0
 14 17  1  0  0  0  0
 17 18  2  0  0  0  0
 17 19  1  0  0  0  0
 19 20  1  0  0  0  0
 21 22  2  0  0  0  0
 21 23  1  0  0  0  0
 23 24  1  0  0  0  0
 23 25  1  0  0  0  0
 25 26  1  0  0  0  0
 25 27  1  0  0  0  0
 25 28  1  0  0  0  0
M  END
$$$$

  -OEChem-03222214033D

 28 27  0     1  0  0  0  0  0999 V2000
   -3.0568   -3.7842    1.2908 H   0  0  0  0  0  0  0  0  0  0  0  0
   -3.0752   -2.7888    0.8386 C   0  0  0  0  0  0  0  0  0  0  0  0
   -3.6956   -2.1341    1.4551 H   0  0  0  0  0  0  0  0  0  0  0  0
   -3.5142   -2.8620   -0.1591 H   0  0  0  0  0  0  0  0  0  0  0  0
   -1.6677   -2.2318    0.7440 C   0  0  0  0  0  0  0  0  0  0  0  0
   -0.7135   -2.9119    1.0866 O   0  0  0  0  0  0  0  0  0  0  0  0
   -1.4658   -0.9531    0.2716 N   0  0  0  0  0  0  0  0  0  0  0  0
   -2.2920   -0.3749    0.1142 H   0  0  0  0  0  0  0  0  0  0  0  0
   -0.1741   -0.2511    0.3041 C   0  0  1  0  0  0  0  0  0  0  0  0
    0.5177   -0.7123    1.0171 H   0  0  0  0  0  0  0  0  0  0  0  0
    0.4077   -0.3896   -1.1288 C   0  0  0  0  0  0  0  0  0  0  0  0
    0.6711   -1.4410   -1.2868 H   0  0  0  0  0  0  0  0  0  0  0  0
   -0.4169   -0.1627   -1.8143 H   0  0  0  0  0  0  0  0  0  0  0  0
    1.5941    0.4847   -1.6157 C   0  0  0  0  0  0  0  0  0  0  0  0
    2.5149   -0.0582   -1.3857 H   0  0  0  0  0  0  0  0  0  0  0  0
    1.5397    0.5673   -2.7051 H   0  0  0  0  0  0  0  0  0  0  0  0
    1.7755    1.8859   -1.0493 C   0  0  0  0  0  0  0  0  0  0  0  0
    1.1804    2.8066   -1.5741 O   0  0  0  0  0  0  0  0  0  0  0  0
    2.6310    2.0488   -0.0161 O   0  0  0  0  0  0  0  0  0  0  0  0
    2.6292    3.0055    0.1469 H   0  0  0  0  0  0  0  0  0  0  0  0
   -0.4871    1.1776    0.8111 C   0  0  0  0  0  0  0  0  0  0  0  0
   -1.5219    1.7361    0.4611 O   0  0  0  0  0  0  0  0  0  0  0  0
    0.3012    1.7769    1.7763 N   0  0  0  0  0  0  0  0  0  0  0  0
    1.1773    1.3186    2.0144 H   0  0  0  0  0  0  0  0  0  0  0  0
    0.0272    3.1028    2.3168 C   0  0  0  0  0  0  0  0  0  0  0  0
   -0.9604    3.1274    2.7896 H   0  0  0  0  0  0  0  0  0  0  0  0
    0.7758    3.3667    3.0701 H   0  0  0  0  0  0  0  0  0  0  0  0
    0.0547    3.8539    1.5201 H   0  0  0  0  0  0  0  0  0  0  0  0
  1  2  1  0  0  0  0
  2  3  1  0  0  0  0
  2  4  1  0  0  0  0
  2  5  1  0  0  0  0
  5  6  2  0  0  0  0
  5  7  1  0  0  0  0
  7  8  1  0  0  0  0
  7  9  1  0  0  0  0
  9 10  1  0  0  0  0
  9 11  1  0  0  0  0
  9 21  1  0  0  0  0
 11 12  1  0  0  0  0
 11 13  1  0  0  0  0
 11 14  1  0  0  0  0
 14 15  1  0  0  0  0
 14 16  1  0  0  0  0
 14 17  1  0  0  0  0
 17 18  2  0  0  0  0
 17 19  1  0  0  0  0
 19 20  1  0  0  0  0
 21 22  2  0  0  0  0
 21 23  1  0  0  0  0
 23 24  1  0  0  0  0
 23 25  1  0  0  0  0
 25 26  1  0  0  0  0
 25 27  1  0  0  0  0
 25 28  1  0  0  0  0
M  END
$$$$

  -OEChem-03222214033D

 28 27  0     1  0  0  0  0  0999 V2000
   -3.0286   -3.8007    1.3573 H   0  0  0  0  0  0  0  0  0  0  0  0
   -3.0585   -2.8048    0.9064 C   0  0  0  0  0  0  0  0  0  0  0  0
   -3.6679   -2.1516    1.5359 H   0  0  0  0  0  0  0  0  0  0  0  0
   -3.5178   -2.8783   -0.0824 H   0  0  0  0  0  0  0  0  0  0  0  0
   -1.6545   -2.2442    0.7832 C   0  0  0  0  0  0  0  0  0  0  0  0
   -0.6909   -2.9295    1.0859 O   0  0  0  0  0  0  0  0  0  0  0  0
   -1.4668   -0.9573    0.3274 N   0  0  0  0  0  0  0  0  0  0  0  0
   -2.2972   -0.3778    0.2008 H   0  0  0  0  0  0  0  0  0  0  0  0
   -0.1727   -0.2582    0.3227 C   0  0  1  0  0  0  0  0  0  0  0  0
    0.5564   -0.7359    0.9861 H   0  0  0  0  0  0  0  0  0  0  0  0
    0.3247   -0.3414   -1.1455 C   0  0  0  0  0  0  0  0  0  0  0  0
    0.5762   -1.3872   -1.3534 H   0  0  0  0  0  0  0  0  0  0  0  0
   -0.5375   -0.0940   -1.7757 H   0  0  0  0  0  0  0  0  0  0  0  0
    1.4863    0.5465   -1.6722 C   0  0  0  0  0  0  0  0  0  0  0  0
    2.3668   -0.0932   -1.7761 H   0  0  0  0  0  0  0  0  0  0  0  0
    1.2279    0.8911   -2.6782 H   0  0  0  0  0  0  0  0  0  0  0  0
    1.9396    1.7560   -0.8656 C   0  0  0  0  0  0  0  0  0  0  0  0
    1.5834    2.8626   -1.2217 O   0  0  0  0  0  0  0  0  0  0  0  0
    2.7742    1.5480    0.1771 O   0  0  0  0  0  0  0  0  0  0  0  0
    3.0007    2.4411    0.4823 H   0  0  0  0  0  0  0  0  0  0  0  0
   -0.4717    1.1593    0.8690 C   0  0  0  0  0  0  0  0  0  0  0  0
   -1.4963    1.7396    0.5245 O   0  0  0  0  0  0  0  0  0  0  0  0
    0.3460    1.7466    1.8165 N   0  0  0  0  0  0  0  0  0  0  0  0
    1.2187    1.2707    2.0322 H   0  0  0  0  0  0  0  0  0  0  0  0
    0.1356    3.0997    2.3170 C   0  0  0  0  0  0  0  0  0  0  0  0
   -0.8560    3.1904    2.7731 H   0  0  0  0  0  0  0  0  0  0  0  0
    0.8859    3.3448    3.0748 H   0  0  0  0  0  0  0  0  0  0  0  0
    0.2154    3.8253    1.5004 H   0  0  0  0  0  0  0  0  0  0  0  0
  1  2  1  0  0  0  0
  2  3  1  0  0  0  0
  2  4  1  0  0  0  0
  2  5  1  0  0  0  0
  5  6  2  0  0  0  0
  5  7  1  0  0  0  0
  7  8  1  0  0  0  0
  7  9  1  0  0  0  0
  9 10  1  0  0  0  0
  9 11  1  0  0  0  0
  9 21  1  0  0  0  0
 11 12  1  0  0  0  0
 11 13  1  0  0  0  0
 11 14  1  0  0  0  0
 14 15  1  0  0  0  0
 14 16  1  0  0  0  0
 14 17  1  0  0  0  0
 17 18  2  0  0  0  0
 17 19  1  0  0  0  0
 19 20  1  0  0  0  0
 21 22  2  0  0  0  0
 21 23  1  0  0  0  0
 23 24  1  0  0  0  0
 23 25  1  0  0  0  0
 25 26  1  0  0  0  0
 25 27  1  0  0  0  0
 25 28  1  0  0  0  0
M  END
$$$$

  -OEChem-03222214033D

 28 27  0     1  0  0  0  0  0999 V2000
   -3.2754   -3.6740    1.2731 H   0  0  0  0  0  0  0  0  0  0  0  0
   -3.2184   -2.6743    0.8334 C   0  0  0  0  0  0  0  0  0  0  0  0
   -3.8163   -1.9884    1.4385 H   0  0  0  0  0  0  0  0  0  0  0  0
   -3.6294   -2.7100   -0.1784 H   0  0  0  0  0  0  0  0  0  0  0  0
   -1.7769   -2.2042    0.7896 C   0  0  0  0  0  0  0  0  0  0  0  0
   -0.8827   -2.9301    1.1928 O   0  0  0  0  0  0  0  0  0  0  0  0
   -1.4803   -0.9534    0.2928 N   0  0  0  0  0  0  0  0  0  0  0  0
   -2.2650   -0.3372    0.0803 H   0  0  0  0  0  0  0  0  0  0  0  0
   -0.1554   -0.3200    0.3761 C   0  0  1  0  0  0  0  0  0  0  0  0
    0.4866   -0.7998    1.1231 H   0  0  0  0  0  0  0  0  0  0  0  0
    0.4656   -0.4838   -1.0366 C   0  0  0  0  0  0  0  0  0  0  0  0
    0.7041   -1.5460   -1.1601 H   0  0  0  0  0  0  0  0  0  0  0  0
   -0.3190   -0.2509   -1.7657 H   0  0  0  0  0  0  0  0  0  0  0  0
    1.7148    0.3350   -1.4682 C   0  0  0  0  0  0  0  0  0  0  0  0
    2.5015   -0.3664   -1.7595 H   0  0  0  0  0  0  0  0  0  0  0  0
    1.4528    0.9054   -2.3640 H   0  0  0  0  0  0  0  0  0  0  0  0
    2.3358    1.3109   -0.4771 C   0  0  0  0  0  0  0  0  0  0  0  0
    2.7895    0.8704    0.5663 O   0  0  0  0  0  0  0  0  0  0  0  0
    2.3637    2.6199   -0.8049 O   0  0  0  0  0  0  0  0  0  0  0  0
    2.7973    3.0660   -0.0624 H   0  0  0  0  0  0  0  0  0  0  0  0
   -0.4265    1.1384    0.8249 C   0  0  0  0  0  0  0  0  0  0  0  0
   -1.3757    1.7538    0.3487 O   0  0  0  0  0  0  0  0  0  0  0  0
    0.3283    1.7388    1.8150 N   0  0  0  0  0  0  0  0  0  0  0  0
    1.1928    1.2640    2.0766 H   0  0  0  0  0  0  0  0  0  0  0  0
    0.1168    3.1107    2.2593 C   0  0  0  0  0  0  0  0  0  0  0  0
   -0.8905    3.2277    2.6732 H   0  0  0  0  0  0  0  0  0  0  0  0
    0.8405    3.3721    3.0373 H   0  0  0  0  0  0  0  0  0  0  0  0
    0.2372    3.8076    1.4233 H   0  0  0  0  0  0  0  0  0  0  0  0
  1  2  1  0  0  0  0
  2  3  1  0  0  0  0
  2  4  1  0  0  0  0
  2  5  1  0  0  0  0
  5  6  2  0  0  0  0
  5  7  1  0  0  0  0
  7  8  1  0  0  0  0
  7  9  1  0  0  0  0
  9 10  1  0  0  0  0
  9 11  1  0  0  0  0
  9 21  1  0  0  0  0
 11 12  1  0  0  0  0
 11 13  1  0  0  0  0
 11 14  1  0  0  0  0
 14 15  1  0  0  0  0
 14 16  1  0  0  0  0
 14 17  1  0  0  0  0
 17 18  2  0  0  0  0
 17 19  1  0  0  0  0
 19 20  1  0  0  0  0
 21 22  2  0  0  0  0
 21 23  1  0  0  0  0
 23 24  1  0  0  0  0
 23 25  1  0  0  0  0
 25 26  1  0  0  0  0
 25 27  1  0  0  0  0
 25 28  1  0  0  0  0
M  END
$$$$

  -OEChem-03222214033D

 28 27  0     1  0  0  0  0  0999 V2000
   -3.3516   -3.6625    1.2009 H   0  0  0  0  0  0  0  0  0  0  0  0
   -3.2707   -2.6776    0.7325 C   0  0  0  0  0  0  0  0  0  0  0  0
   -3.9062   -1.9754    1.2774 H   0  0  0  0  0  0  0  0  0  0  0  0
   -3.6193   -2.7485   -0.3006 H   0  0  0  0  0  0  0  0  0  0  0  0
   -1.8304   -2.2026    0.7606 C   0  0  0  0  0  0  0  0  0  0  0  0
   -0.9615   -2.9155    1.2355 O   0  0  0  0  0  0  0  0  0  0  0  0
   -1.5068   -0.9656    0.2456 N   0  0  0  0  0  0  0  0  0  0  0  0
   -2.2780   -0.3600   -0.0340 H   0  0  0  0  0  0  0  0  0  0  0  0
   -0.1863   -0.3311    0.3753 C   0  0  1  0  0  0  0  0  0  0  0  0
    0.4141   -0.8028    1.1614 H   0  0  0  0  0  0  0  0  0  0  0  0
    0.5072   -0.5079   -0.9978 C   0  0  0  0  0  0  0  0  0  0  0  0
    0.7777   -1.5667   -1.0740 H   0  0  0  0  0  0  0  0  0  0  0  0
   -0.2314   -0.3121   -1.7832 H   0  0  0  0  0  0  0  0  0  0  0  0
    1.7726    0.3241   -1.3485 C   0  0  0  0  0  0  0  0  0  0  0  0
    2.4856   -0.3206   -1.8690 H   0  0  0  0  0  0  0  0  0  0  0  0
    1.4655    1.0980   -2.0581 H   0  0  0  0  0  0  0  0  0  0  0  0
    2.5259    1.0413   -0.2297 C   0  0  0  0  0  0  0  0  0  0  0  0
    2.7356    0.4572    0.8203 O   0  0  0  0  0  0  0  0  0  0  0  0
    2.9494    2.3000   -0.4708 O   0  0  0  0  0  0  0  0  0  0  0  0
    3.4243    2.5723    0.3286 H   0  0  0  0  0  0  0  0  0  0  0  0
   -0.4381    1.1432    0.7712 C   0  0  0  0  0  0  0  0  0  0  0  0
   -1.3299    1.7776    0.2166 O   0  0  0  0  0  0  0  0  0  0  0  0
    0.2935    1.7476    1.7752 N   0  0  0  0  0  0  0  0  0  0  0  0
    1.1002    1.2286    2.1232 H   0  0  0  0  0  0  0  0  0  0  0  0
    0.1357    3.1461    2.1525 C   0  0  0  0  0  0  0  0  0  0  0  0
   -0.8914    3.3418    2.4783 H   0  0  0  0  0  0  0  0  0  0  0  0
    0.8108    3.3929    2.9774 H   0  0  0  0  0  0  0  0  0  0  0  0
    0.3678    3.8002    1.3054 H   0  0  0  0  0  0  0  0  0  0  0  0
  1  2  1  0  0  0  0
  2  3  1  0  0  0  0
  2  4  1  0  0  0  0
  2  5  1  0  0  0  0
  5  6  2  0  0  0  0
  5  7  1  0  0  0  0
  7  8  1  0  0  0  0
  7  9  1  0  0  0  0
  9 10  1  0  0  0  0
  9 11  1  0  0  0  0
  9 21  1  0  0  0  0
 11 12  1  0  0  0  0
 11 13  1  0  0  0  0
 11 14  1  0  0  0  0
 14 15  1  0  0  0  0
 14 16  1  0  0  0  0
 14 17  1  0  0  0  0
 17 18  2  0  0  0  0
 17 19  1  0  0  0  0
 19 20  1  0  0  0  0
 21 22  2  0  0  0  0
 21 23  1  0  0  0  0
 23 24  1  0  0  0  0
 23 25  1  0  0  0  0
 25 26  1  0  0  0  0
 25 27  1  0  0  0  0
 25 28  1  0  0  0  0
M  END
$$$$

  -OEChem-03222214033D

 28 27  0     1  0  0  0  0  0999 V2000
   -3.3071   -3.7260    1.2044 H   0  0  0  0  0  0  0  0  0  0  0  0
   -3.2462   -2.7374    0.7412 C   0  0  0  0  0  0  0  0  0  0  0  0
   -3.8898   -2.0492    1.2943 H   0  0  0  0  0  0  0  0  0  0  0  0
   -3.6009   -2.8086   -0.2897 H   0  0  0  0  0  0  0  0  0  0  0  0
   -1.8143   -2.2378    0.7622 C   0  0  0  0  0  0  0  0  0  0  0  0
   -0.9304   -2.9373    1.2290 O   0  0  0  0  0  0  0  0  0  0  0  0
   -1.5182   -0.9939    0.2469 N   0  0  0  0  0  0  0  0  0  0  0  0
   -2.3033   -0.4065   -0.0311 H   0  0  0  0  0  0  0  0  0  0  0  0
   -0.2086   -0.3344    0.3533 C   0  0  1  0  0  0  0  0  0  0  0  0
    0.3993   -0.8093    1.1309 H   0  0  0  0  0  0  0  0  0  0  0  0
    0.4827   -0.4901   -1.0204 C   0  0  0  0  0  0  0  0  0  0  0  0
    0.7904   -1.5386   -1.0977 H   0  0  0  0  0  0  0  0  0  0  0  0
   -0.2567   -0.3132   -1.8092 H   0  0  0  0  0  0  0  0  0  0  0  0
    1.7208    0.3909   -1.3404 C   0  0  0  0  0  0  0  0  0  0  0  0
    2.3343   -0.1221   -2.0856 H   0  0  0  0  0  0  0  0  0  0  0  0
    1.3507    1.3092   -1.8059 H   0  0  0  0  0  0  0  0  0  0  0  0
    2.6403    0.8360   -0.2003 C   0  0  0  0  0  0  0  0  0  0  0  0
    2.7111    0.1839    0.8272 O   0  0  0  0  0  0  0  0  0  0  0  0
    3.3591    1.9596   -0.4071 O   0  0  0  0  0  0  0  0  0  0  0  0
    3.8987    2.0721    0.3900 H   0  0  0  0  0  0  0  0  0  0  0  0
   -0.4318    1.1392    0.7568 C   0  0  0  0  0  0  0  0  0  0  0  0
   -1.3220    1.7897    0.2197 O   0  0  0  0  0  0  0  0  0  0  0  0
    0.3387    1.7259    1.7416 N   0  0  0  0  0  0  0  0  0  0  0  0
    1.1277    1.1799    2.0884 H   0  0  0  0  0  0  0  0  0  0  0  0
    0.2148    3.1235    2.1336 C   0  0  0  0  0  0  0  0  0  0  0  0
   -0.8073    3.3400    2.4619 H   0  0  0  0  0  0  0  0  0  0  0  0
    0.8957    3.3461    2.9607 H   0  0  0  0  0  0  0  0  0  0  0  0
    0.4619    3.7801    1.2929 H   0  0  0  0  0  0  0  0  0  0  0  0
  1  2  1  0  0  0  0
  2  3  1  0  0  0  0
  2  4  1  0  0  0  0
  2  5  1  0  0  0  0
  5  6  2  0  0  0  0
  5  7  1  0  0  0  0
  7  8  1  0  0  0  0
  7  9  1  0  0  0  0
  9 10  1  0  0  0  0
  9 11  1  0  0  0  0
  9 21  1  0  0  0  0
 11 12  1  0  0  0  0
 11 13  1  0  0  0  0
 11 14  1  0  0  0  0
 14 15  1  0  0  0  0
 14 16  1  0  0  0  0
 14 17  1  0  0  0  0
 17 18  2  0  0  0  0
 17 19  1  0  0  0  0
 19 20  1  0  0  0  0
 21 22  2  0  0  0  0
 21 23  1  0  0  0  0
 23 24  1  0  0  0  0
 23 25  1  0  0  0  0
 25 26  1  0  0  0  0
 25 27  1  0  0  0  0
 25 28  1  0  0  0  0
M  END
$$$$

  -OEChem-03222214033D

 28 27  0     1  0  0  0  0  0999 V2000
   -3.2767   -3.7607    1.2175 H   0  0  0  0  0  0  0  0  0  0  0  0
   -3.2328   -2.7713    0.7536 C   0  0  0  0  0  0  0  0  0  0  0  0
   -3.8764   -2.0902    1.3157 H   0  0  0  0  0  0  0  0  0  0  0  0
   -3.6006   -2.8468   -0.2725 H   0  0  0  0  0  0  0  0  0  0  0  0
   -1.8058   -2.2560    0.7554 C   0  0  0  0  0  0  0  0  0  0  0  0
   -0.9083   -2.9487    1.2061 O   0  0  0  0  0  0  0  0  0  0  0  0
   -1.5302   -1.0074    0.2394 N   0  0  0  0  0  0  0  0  0  0  0  0
   -2.3257   -0.4294   -0.0278 H   0  0  0  0  0  0  0  0  0  0  0  0
   -0.2287   -0.3301    0.3351 C   0  0  1  0  0  0  0  0  0  0  0  0
    0.3776   -0.8039    1.1139 H   0  0  0  0  0  0  0  0  0  0  0  0
    0.4763   -0.4749   -1.0309 C   0  0  0  0  0  0  0  0  0  0  0  0
    0.8015   -1.5171   -1.1179 H   0  0  0  0  0  0  0  0  0  0  0  0
   -0.2590   -0.2971   -1.8232 H   0  0  0  0  0  0  0  0  0  0  0  0
    1.6975    0.4397   -1.3184 C   0  0  0  0  0  0  0  0  0  0  0  0
    2.1956    0.0674   -2.2175 H   0  0  0  0  0  0  0  0  0  0  0  0
    1.3203    1.4396   -1.5513 H   0  0  0  0  0  0  0  0  0  0  0  0
    2.7730    0.6215   -0.2416 C   0  0  0  0  0  0  0  0  0  0  0  0
    2.6680    0.0980    0.8538 O   0  0  0  0  0  0  0  0  0  0  0  0
    3.8253    1.3931   -0.5850 O   0  0  0  0  0  0  0  0  0  0  0  0
    4.4111    1.3880    0.1874 H   0  0  0  0  0  0  0  0  0  0  0  0
   -0.4391    1.1432    0.7413 C   0  0  0  0  0  0  0  0  0  0  0  0
   -1.3382    1.7961    0.2224 O   0  0  0  0  0  0  0  0  0  0  0  0
    0.3504    1.7222    1.7151 N   0  0  0  0  0  0  0  0  0  0  0  0
    1.1525    1.1759    2.0322 H   0  0  0  0  0  0  0  0  0  0  0  0
    0.2420    3.1193    2.1132 C   0  0  0  0  0  0  0  0  0  0  0  0
   -0.7716    3.3403    2.4641 H   0  0  0  0  0  0  0  0  0  0  0  0
    0.9419    3.3358    2.9260 H   0  0  0  0  0  0  0  0  0  0  0  0
    0.4742    3.7771    1.2693 H   0  0  0  0  0  0  0  0  0  0  0  0
  1  2  1  0  0  0  0
  2  3  1  0  0  0  0
  2  4  1  0  0  0  0
  2  5  1  0  0  0  0
  5  6  2  0  0  0  0
  5  7  1  0  0  0  0
  7  8  1  0  0  0  0
  7  9  1  0  0  0  0
  9 10  1  0  0  0  0
  9 11  1  0  0  0  0
  9 21  1  0  0  0  0
 11 12  1  0  0  0  0
 11 13  1  0  0  0  0
 11 14  1  0  0  0  0
 14 15  1  0  0  0  0
 14 16  1  0  0  0  0
 14 17  1  0  0  0  0
 17 18  2  0  0  0  0
 17 19  1  0  0  0  0
 19 20  1  0  0  0  0
 21 22  2  0  0  0  0
 21 23  1  0  0  0  0
 23 24  1  0  0  0  0
 23 25  1  0  0  0  0
 25 26  1  0  0  0  0
 25 27  1  0  0  0  0
 25 28  1  0  0  0  0
M  END
$$$$

  -OEChem-03222214033D

 28 27  0     1  0  0  0  0  0999 V2000
   -3.0671   -3.8171    1.1860 H   0  0  0  0  0  0  0  0  0  0  0  0
   -3.0702   -2.8063    0.7685 C   0  0  0  0  0  0  0  0  0  0  0  0
   -3.6978   -2.1683    1.3954 H   0  0  0  0  0  0  0  0  0  0  0  0
   -3.4909   -2.8423   -0.2392 H   0  0  0  0  0  0  0  0  0  0  0  0
   -1.6575   -2.2557    0.7200 C   0  0  0  0  0  0  0  0  0  0  0  0
   -0.7211   -2.9341    1.1108 O   0  0  0  0  0  0  0  0  0  0  0  0
   -1.4354   -0.9875    0.2279 N   0  0  0  0  0  0  0  0  0  0  0  0
   -2.2555   -0.4148    0.0298 H   0  0  0  0  0  0  0  0  0  0  0  0
   -0.1489   -0.2814    0.3063 C   0  0  1  0  0  0  0  0  0  0  0  0
    0.5153   -0.7420    1.0459 H   0  0  0  0  0  0  0  0  0  0  0  0
    0.4954   -0.3462   -1.0959 C   0  0  0  0  0  0  0  0  0  0  0  0
    0.8318   -1.3738   -1.2721 H   0  0  0  0  0  0  0  0  0  0  0  0
   -0.2753   -0.1232   -1.8420 H   0  0  0  0  0  0  0  0  0  0  0  0
    1.6748    0.6186   -1.3455 C   0  0  0  0  0  0  0  0  0  0  0  0
    2.0306    0.4845   -2.3708 H   0  0  0  0  0  0  0  0  0  0  0  0
    1.3424    1.6563   -1.2535 H   0  0  0  0  0  0  0  0  0  0  0  0
    2.8503    0.3905   -0.3954 C   0  0  0  0  0  0  0  0  0  0  0  0
    2.7766    0.7852    0.7556 O   0  0  0  0  0  0  0  0  0  0  0  0
    3.9256   -0.2617   -0.8851 O   0  0  0  0  0  0  0  0  0  0  0  0
    4.5480   -0.3267   -0.1445 H   0  0  0  0  0  0  0  0  0  0  0  0
   -0.4508    1.1673    0.7623 C   0  0  0  0  0  0  0  0  0  0  0  0
   -1.4289    1.7503    0.3033 O   0  0  0  0  0  0  0  0  0  0  0  0
    0.3028    1.7865    1.7396 N   0  0  0  0  0  0  0  0  0  0  0  0
    1.2174    1.3687    1.9221 H   0  0  0  0  0  0  0  0  0  0  0  0
    0.0815    3.1654    2.1557 C   0  0  0  0  0  0  0  0  0  0  0  0
   -0.9461    3.2995    2.5098 H   0  0  0  0  0  0  0  0  0  0  0  0
    0.7620    3.4266    2.9718 H   0  0  0  0  0  0  0  0  0  0  0  0
    0.2591    3.8512    1.3209 H   0  0  0  0  0  0  0  0  0  0  0  0
  1  2  1  0  0  0  0
  2  3  1  0  0  0  0
  2  4  1  0  0  0  0
  2  5  1  0  0  0  0
  5  6  2  0  0  0  0
  5  7  1  0  0  0  0
  7  8  1  0  0  0  0
  7  9  1  0  0  0  0
  9 10  1  0  0  0  0
  9 11  1  0  0  0  0
  9 21  1  0  0  0  0
 11 12  1  0  0  0  0
 11 13  1  0  0  0  0
 11 14  1  0  0  0  0
 14 15  1  0  0  0  0
 14 16  1  0  0  0  0
 14 17  1  0  0  0  0
 17 18  2  0  0  0  0
 17 19  1  0  0  0  0
 19 20  1  0  0  0  0
 21 22  2  0  0  0  0
 21 23  1  0  0  0  0
 23 24  1  0  0  0  0
 23 25  1  0  0  0  0
 25 26  1  0  0  0  0
 25 27  1  0  0  0  0
 25 28  1  0  0  0  0
M  END
$$$$

  -OEChem-03222214033D

 28 27  0     1  0  0  0  0  0999 V2000
   -3.0387   -3.8457    1.1930 H   0  0  0  0  0  0  0  0  0  0  0  0
   -3.0640   -2.8443    0.7544 C   0  0  0  0  0  0  0  0  0  0  0  0
   -3.7054   -2.2076    1.3685 H   0  0  0  0  0  0  0  0  0  0  0  0
   -3.4838   -2.9108   -0.2522 H   0  0  0  0  0  0  0  0  0  0  0  0
   -1.6636   -2.2644    0.6938 C   0  0  0  0  0  0  0  0  0  0  0  0
   -0.7097   -2.9288    1.0653 O   0  0  0  0  0  0  0  0  0  0  0  0
   -1.4723   -0.9885    0.2077 N   0  0  0  0  0  0  0  0  0  0  0  0
   -2.3060   -0.4349    0.0147 H   0  0  0  0  0  0  0  0  0  0  0  0
   -0.1980   -0.2591    0.2640 C   0  0  1  0  0  0  0  0  0  0  0  0
    0.4588   -0.7161    1.0123 H   0  0  0  0  0  0  0  0  0  0  0  0
    0.4915   -0.3653   -1.1123 C   0  0  0  0  0  0  0  0  0  0  0  0
    0.8515   -1.3899   -1.2584 H   0  0  0  0  0  0  0  0  0  0  0  0
   -0.2606   -0.1706   -1.8844 H   0  0  0  0  0  0  0  0  0  0  0  0
    1.6474    0.6350   -1.3258 C   0  0  0  0  0  0  0  0  0  0  0  0
    1.9075    0.6435   -2.3878 H   0  0  0  0  0  0  0  0  0  0  0  0
    1.3638    1.6576   -1.0647 H   0  0  0  0  0  0  0  0  0  0  0  0
    2.8906    0.2219   -0.5480 C   0  0  0  0  0  0  0  0  0  0  0  0
    2.9195    0.4648    0.6477 O   0  0  0  0  0  0  0  0  0  0  0  0
    3.8886   -0.4038   -1.2070 O   0  0  0  0  0  0  0  0  0  0  0  0
    4.5608   -0.5955   -0.5350 H   0  0  0  0  0  0  0  0  0  0  0  0
   -0.4473    1.1902    0.7314 C   0  0  0  0  0  0  0  0  0  0  0  0
   -1.4185    1.8079    0.3082 O   0  0  0  0  0  0  0  0  0  0  0  0
    0.3707    1.7654    1.6847 N   0  0  0  0  0  0  0  0  0  0  0  0
    1.2513    1.2837    1.8749 H   0  0  0  0  0  0  0  0  0  0  0  0
    0.2187    3.1429    2.1347 C   0  0  0  0  0  0  0  0  0  0  0  0
   -0.7830    3.3033    2.5470 H   0  0  0  0  0  0  0  0  0  0  0  0
    0.9511    3.3672    2.9160 H   0  0  0  0  0  0  0  0  0  0  0  0
    0.3732    3.8376    1.3026 H   0  0  0  0  0  0  0  0  0  0  0  0
  1  2  1  0  0  0  0
  2  3  1  0  0  0  0
  2  4  1  0  0  0  0
  2  5  1  0  0  0  0
  5  6  2  0  0  0  0
  5  7  1  0  0  0  0
  7  8  1  0  0  0  0
  7  9  1  0  0  0  0
  9 10  1  0  0  0  0
  9 11  1  0  0  0  0
  9 21  1  0  0  0  0
 11 12  1  0  0  0  0
 11 13  1  0  0  0  0
 11 14  1  0  0  0  0
 14 15  1  0  0  0  0
 14 16  1  0  0  0  0
 14 17  1  0  0  0  0
 17 18  2  0  0  0  0
 17 19  1  0  0  0  0
 19 20  1  0  0  0  0
 21 22  2  0  0  0  0
 21 23  1  0  0  0  0
 23 24  1  0  0  0  0
 23 25  1  0  0  0  0
 25 26  1  0  0  0  0
 25 27  1  0  0  0  0
 25 28  1  0  0  0  0
M  END
$$$$

  -OEChem-03222214033D

 28 27  0     1  0  0  0  0  0999 V2000
   -3.0488   -3.8310    1.1573 H   0  0  0  0  0  0  0  0  0  0  0  0
   -3.0645   -2.8290    0.7195 C   0  0  0  0  0  0  0  0  0  0  0  0
   -3.7156   -2.1917    1.3228 H   0  0  0  0  0  0  0  0  0  0  0  0
   -3.4665   -2.8935   -0.2944 H   0  0  0  0  0  0  0  0  0  0  0  0
   -1.6623   -2.2510    0.6840 C   0  0  0  0  0  0  0  0  0  0  0  0
   -0.7175   -2.9120    1.0836 O   0  0  0  0  0  0  0  0  0  0  0  0
   -1.4607   -0.9759    0.1998 N   0  0  0  0  0  0  0  0  0  0  0  0
   -2.2891   -0.4266   -0.0251 H   0  0  0  0  0  0  0  0  0  0  0  0
   -0.1855   -0.2487    0.2676 C   0  0  1  0  0  0  0  0  0  0  0  0
    0.4679   -0.7055    1.0195 H   0  0  0  0  0  0  0  0  0  0  0  0
    0.5120   -0.3684   -1.1038 C   0  0  0  0  0  0  0  0  0  0  0  0
    0.8553   -1.3985   -1.2532 H   0  0  0  0  0  0  0  0  0  0  0  0
   -0.2393   -0.1645   -1.8745 H   0  0  0  0  0  0  0  0  0  0  0  0
    1.6750    0.6236   -1.3261 C   0  0  0  0  0  0  0  0  0  0  0  0
    1.7713    0.8070   -2.3997 H   0  0  0  0  0  0  0  0  0  0  0  0
    1.5101    1.5965   -0.8598 H   0  0  0  0  0  0  0  0  0  0  0  0
    2.9916    0.0297   -0.8503 C   0  0  0  0  0  0  0  0  0  0  0  0
    3.2398    0.1073    0.3408 O   0  0  0  0  0  0  0  0  0  0  0  0
    3.8066   -0.5644   -1.7474 O   0  0  0  0  0  0  0  0  0  0  0  0
    4.5620   -0.8859   -1.2314 H   0  0  0  0  0  0  0  0  0  0  0  0
   -0.4372    1.2000    0.7316 C   0  0  0  0  0  0  0  0  0  0  0  0
   -1.3889    1.8294    0.2832 O   0  0  0  0  0  0  0  0  0  0  0  0
    0.3733    1.7728    1.6936 N   0  0  0  0  0  0  0  0  0  0  0  0
    1.1925    1.2438    1.9890 H   0  0  0  0  0  0  0  0  0  0  0  0
    0.1997    3.1356    2.1793 C   0  0  0  0  0  0  0  0  0  0  0  0
   -0.7959    3.2620    2.6176 H   0  0  0  0  0  0  0  0  0  0  0  0
    0.9454    3.3608    2.9479 H   0  0  0  0  0  0  0  0  0  0  0  0
    0.3181    3.8528    1.3603 H   0  0  0  0  0  0  0  0  0  0  0  0
  1  2  1  0  0  0  0
  2  3  1  0  0  0  0
  2  4  1  0  0  0  0
  2  5  1  0  0  0  0
  5  6  2  0  0  0  0
  5  7  1  0  0  0  0
  7  8  1  0  0  0  0
  7  9  1  0  0  0  0
  9 10  1  0  0  0  0
  9 11  1  0  0  0  0
  9 21  1  0  0  0  0
 11 12  1  0  0  0  0
 11 13  1  0  0  0  0
 11 14  1  0  0  0  0
 14 15  1  0  0  0  0
 14 16  1  0  0  0  0
 14 17  1  0  0  0  0
 17 18  2  0  0  0  0
 17 19  1  0  0  0  0
 19 20  1  0  0  0  0
 21 22  2  0  0  0  0
 21 23  1  0  0  0  0
 23 24  1  0  0  0  0
 23 25  1  0  0  0  0
 25 26  1  0  0  0  0
 25 27  1  0  0  0  0
 25 28  1  0  0  0  0
M  END
$$$$

  -OEChem-03222214033D

 28 27  0     1  0  0  0  0  0999 V2000
   -3.0725   -3.7948    1.1088 H   0  0  0  0  0  0  0  0  0  0  0  0
   -3.0690   -2.7911    0.6746 C   0  0  0  0  0  0  0  0  0  0  0  0
   -3.7255   -2.1493    1.2671 H   0  0  0  0  0  0  0  0  0  0  0  0
   -3.4508   -2.8474   -0.3475 H   0  0  0  0  0  0  0  0  0  0  0  0
   -1.6605   -2.2283    0.6703 C   0  0  0  0  0  0  0  0  0  0  0  0
   -0.7336   -2.8946    1.1017 O   0  0  0  0  0  0  0  0  0  0  0  0
   -1.4319   -0.9572    0.1879 N   0  0  0  0  0  0  0  0  0  0  0  0
   -2.2464   -0.3987   -0.0643 H   0  0  0  0  0  0  0  0  0  0  0  0
   -0.1481   -0.2488    0.2840 C   0  0  1  0  0  0  0  0  0  0  0  0
    0.4966   -0.7133    1.0381 H   0  0  0  0  0  0  0  0  0  0  0  0
    0.5457   -0.3598   -1.0903 C   0  0  0  0  0  0  0  0  0  0  0  0
    0.8635   -1.3966   -1.2504 H   0  0  0  0  0  0  0  0  0  0  0  0
   -0.2030   -0.1351   -1.8581 H   0  0  0  0  0  0  0  0  0  0  0  0
    1.7303    0.6095   -1.3134 C   0  0  0  0  0  0  0  0  0  0  0  0
    1.6590    1.0256   -2.3220 H   0  0  0  0  0  0  0  0  0  0  0  0
    1.7304    1.4551   -0.6240 H   0  0  0  0  0  0  0  0  0  0  0  0
    3.0607   -0.1218   -1.2127 C   0  0  0  0  0  0  0  0  0  0  0  0
    3.6125   -0.1465   -0.1272 O   0  0  0  0  0  0  0  0  0  0  0  0
    3.5562   -0.7211   -2.3160 O   0  0  0  0  0  0  0  0  0  0  0  0
    4.3826   -1.1385   -2.0280 H   0  0  0  0  0  0  0  0  0  0  0  0
   -0.4145    1.2010    0.7411 C   0  0  0  0  0  0  0  0  0  0  0  0
   -1.3454    1.8334    0.2548 O   0  0  0  0  0  0  0  0  0  0  0  0
    0.3634    1.7812    1.7256 N   0  0  0  0  0  0  0  0  0  0  0  0
    1.1188    1.2246    2.1191 H   0  0  0  0  0  0  0  0  0  0  0  0
    0.1399    3.1292    2.2324 C   0  0  0  0  0  0  0  0  0  0  0  0
   -0.8483    3.2030    2.6984 H   0  0  0  0  0  0  0  0  0  0  0  0
    0.8960    3.3821    2.9819 H   0  0  0  0  0  0  0  0  0  0  0  0
    0.2019    3.8605    1.4196 H   0  0  0  0  0  0  0  0  0  0  0  0
  1  2  1  0  0  0  0
  2  3  1  0  0  0  0
  2  4  1  0  0  0  0
  2  5  1  0  0  0  0
  5  6  2  0  0  0  0
  5  7  1  0  0  0  0
  7  8  1  0  0  0  0
  7  9  1  0  0  0  0
  9 10  1  0  0  0  0
  9 11  1  0  0  0  0
  9 21  1  0  0  0  0
 11 12  1  0  0  0  0
 11 13  1  0  0  0  0
 11 14  1  0  0  0  0
 14 15  1  0  0  0  0
 14 16  1  0  0  0  0
 14 17  1  0  0  0  0
 17 18  2  0  0  0  0
 17 19  1  0  0  0  0
 19 20  1  0  0  0  0
 21 22  2  0  0  0  0
 21 23  1  0  0  0  0
 23 24  1  0  0  0  0
 23 25  1  0  0  0  0
 25 26  1  0  0  0  0
 25 27  1  0  0  0  0
 25 28  1  0  0  0  0
M  END
$$$$

  -OEChem-03222214033D

 28 27  0     1  0  0  0  0  0999 V2000
   -3.1084   -3.7802    1.0472 H   0  0  0  0  0  0  0  0  0  0  0  0
   -3.0893   -2.7709    0.6267 C   0  0  0  0  0  0  0  0  0  0  0  0
   -3.7609   -2.1346    1.2081 H   0  0  0  0  0  0  0  0  0  0  0  0
   -3.4413   -2.8134   -0.4067 H   0  0  0  0  0  0  0  0  0  0  0  0
   -1.6791   -2.2139    0.6711 C   0  0  0  0  0  0  0  0  0  0  0  0
   -0.7722   -2.8808    1.1420 O   0  0  0  0  0  0  0  0  0  0  0  0
   -1.4250   -0.9481    0.1876 N   0  0  0  0  0  0  0  0  0  0  0  0
   -2.2247   -0.3866   -0.1025 H   0  0  0  0  0  0  0  0  0  0  0  0
   -0.1323   -0.2575    0.2978 C   0  0  1  0  0  0  0  0  0  0  0  0
    0.5046   -0.7304    1.0536 H   0  0  0  0  0  0  0  0  0  0  0  0
    0.5589   -0.3629   -1.0780 C   0  0  0  0  0  0  0  0  0  0  0  0
    0.8717   -1.4029   -1.2270 H   0  0  0  0  0  0  0  0  0  0  0  0
   -0.1799   -0.1396   -1.8557 H   0  0  0  0  0  0  0  0  0  0  0  0
    1.7576    0.5933   -1.2874 C   0  0  0  0  0  0  0  0  0  0  0  0
    1.5540    1.2490   -2.1384 H   0  0  0  0  0  0  0  0  0  0  0  0
    1.9318    1.2338   -0.4209 H   0  0  0  0  0  0  0  0  0  0  0  0
    3.0406   -0.1777   -1.5681 C   0  0  0  0  0  0  0  0  0  0  0  0
    3.8455   -0.3005   -0.6628 O   0  0  0  0  0  0  0  0  0  0  0  0
    3.2217   -0.6960   -2.8016 O   0  0  0  0  0  0  0  0  0  0  0  0
    4.0776   -1.1498   -2.7614 H   0  0  0  0  0  0  0  0  0  0  0  0
   -0.3890    1.1977    0.7469 C   0  0  0  0  0  0  0  0  0  0  0  0
   -1.2991    1.8417    0.2372 O   0  0  0  0  0  0  0  0  0  0  0  0
    0.3799    1.7753    1.7405 N   0  0  0  0  0  0  0  0  0  0  0  0
    1.0921    1.1981    2.1809 H   0  0  0  0  0  0  0  0  0  0  0  0
    0.1515    3.1231    2.2469 C   0  0  0  0  0  0  0  0  0  0  0  0
   -0.8257    3.1869    2.7369 H   0  0  0  0  0  0  0  0  0  0  0  0
    0.9229    3.3891    2.9759 H   0  0  0  0  0  0  0  0  0  0  0  0
    0.1848    3.8516    1.4298 H   0  0  0  0  0  0  0  0  0  0  0  0
  1  2  1  0  0  0  0
  2  3  1  0  0  0  0
  2  4  1  0  0  0  0
  2  5  1  0  0  0  0
  5  6  2  0  0  0  0
  5  7  1  0  0  0  0
  7  8  1  0  0  0  0
  7  9  1  0  0  0  0
  9 10  1  0  0  0  0
  9 11  1  0  0  0  0
  9 21  1  0  0  0  0
 11 12  1  0  0  0  0
 11 13  1  0  0  0  0
 11 14  1  0  0  0  0
 14 15  1  0  0  0  0
 14 16  1  0  0  0  0
 14 17  1  0  0  0  0
 17 18  2  0  0  0  0
 17 19  1  0  0  0  0
 19 20  1  0  0  0  0
 21 22  2  0  0  0  0
 21 23  1  0  0  0  0
 23 24  1  0  0  0  0
 23 25  1  0  0  0  0
 25 26  1  0  0  0  0
 25 27  1  0  0  0  0
 25 28  1  0  0  0  0
M  END
$$$$

  -OEChem-03222214033D

 28 27  0     1  0  0  0  0  0999 V2000
   -3.0443   -3.8072    1.2948 H   0  0  0  0  0  0  0  0  0  0  0  0
   -3.0572   -2.8166    0.8317 C   0  0  0  0  0  0  0  0  0  0  0  0
   -3.7183   -2.1661    1.4096 H   0  0  0  0  0  0  0  0  0  0  0  0
   -3.4456   -2.9086   -0.1854 H   0  0  0  0  0  0  0  0  0  0  0  0
   -1.6563   -2.2357    0.8000 C   0  0  0  0  0  0  0  0  0  0  0  0
   -0.7191   -2.8678    1.2604 O   0  0  0  0  0  0  0  0  0  0  0  0
   -1.4448   -0.9848    0.2606 N   0  0  0  0  0  0  0  0  0  0  0  0
   -2.2641   -0.4495   -0.0240 H   0  0  0  0  0  0  0  0  0  0  0  0
   -0.1546   -0.2825    0.2607 C   0  0  1  0  0  0  0  0  0  0  0  0
    0.5394   -0.7305    0.9799 H   0  0  0  0  0  0  0  0  0  0  0  0
    0.4327   -0.4108   -1.1596 C   0  0  0  0  0  0  0  0  0  0  0  0
    0.7628   -1.4482   -1.2880 H   0  0  0  0  0  0  0  0  0  0  0  0
   -0.3539   -0.2307   -1.9009 H   0  0  0  0  0  0  0  0  0  0  0  0
    1.6015    0.5564   -1.4587 C   0  0  0  0  0  0  0  0  0  0  0  0
    1.2508    1.3894   -2.0746 H   0  0  0  0  0  0  0  0  0  0  0  0
    2.0030    0.9761   -0.5337 H   0  0  0  0  0  0  0  0  0  0  0  0
    2.7568   -0.1435   -2.1652 C   0  0  0  0  0  0  0  0  0  0  0  0
    2.5601   -0.6285   -3.2644 O   0  0  0  0  0  0  0  0  0  0  0  0
    3.9466   -0.2028   -1.5297 O   0  0  0  0  0  0  0  0  0  0  0  0
    4.5284   -0.6874   -2.1357 H   0  0  0  0  0  0  0  0  0  0  0  0
   -0.3856    1.1865    0.6788 C   0  0  0  0  0  0  0  0  0  0  0  0
   -1.3234    1.8159    0.2029 O   0  0  0  0  0  0  0  0  0  0  0  0
    0.4466    1.7998    1.5975 N   0  0  0  0  0  0  0  0  0  0  0  0
    1.1613    1.2283    2.0399 H   0  0  0  0  0  0  0  0  0  0  0  0
    0.2437    3.1642    2.0701 C   0  0  0  0  0  0  0  0  0  0  0  0
   -0.7037    3.2445    2.6132 H   0  0  0  0  0  0  0  0  0  0  0  0
    1.0554    3.4566    2.7432 H   0  0  0  0  0  0  0  0  0  0  0  0
    0.2270    3.8639    1.2277 H   0  0  0  0  0  0  0  0  0  0  0  0
  1  2  1  0  0  0  0
  2  3  1  0  0  0  0
  2  4  1  0  0  0  0
  2  5  1  0  0  0  0
  5  6  2  0  0  0  0
  5  7  1  0  0  0  0
  7  8  1  0  0  0  0
  7  9  1  0  0  0  0
  9 10  1  0  0  0  0
  9 11  1  0  0  0  0
  9 21  1  0  0  0  0
 11 12  1  0  0  0  0
 11 13  1  0  0  0  0
 11 14  1  0  0  0  0
 14 15  1  0  0  0  0
 14 16  1  0  0  0  0
 14 17  1  0  0  0  0
 17 18  2  0  0  0  0
 17 19  1  0  0  0  0
 19 20  1  0  0  0  0
 21 22  2  0  0  0  0
 21 23  1  0  0  0  0
 23 24  1  0  0  0  0
 23 25  1  0  0  0  0
 25 26  1  0  0  0  0
 25 27  1  0  0  0  0
 25 28  1  0  0  0  0
M  END
$$$$

  -OEChem-03222214033D

 28 27  0     1  0  0  0  0  0999 V2000
   -3.1095   -3.7980    1.2818 H   0  0  0  0  0  0  0  0  0  0  0  0
   -3.1068   -2.8113    0.8103 C   0  0  0  0  0  0  0  0  0  0  0  0
   -3.7770   -2.1526    1.3678 H   0  0  0  0  0  0  0  0  0  0  0  0
   -3.4728   -2.9097   -0.2146 H   0  0  0  0  0  0  0  0  0  0  0  0
   -1.7023   -2.2380    0.8052 C   0  0  0  0  0  0  0  0  0  0  0  0
   -0.7795   -2.8708    1.2932 O   0  0  0  0  0  0  0  0  0  0  0  0
   -1.4721   -0.9910    0.2644 N   0  0  0  0  0  0  0  0  0  0  0  0
   -2.2802   -0.4569   -0.0521 H   0  0  0  0  0  0  0  0  0  0  0  0
   -0.1741   -0.3036    0.2704 C   0  0  1  0  0  0  0  0  0  0  0  0
    0.5102   -0.7604    0.9932 H   0  0  0  0  0  0  0  0  0  0  0  0
    0.4196   -0.4350   -1.1458 C   0  0  0  0  0  0  0  0  0  0  0  0
    0.7513   -1.4724   -1.2690 H   0  0  0  0  0  0  0  0  0  0  0  0
   -0.3560   -0.2497   -1.8972 H   0  0  0  0  0  0  0  0  0  0  0  0
    1.5976    0.5273   -1.4171 C   0  0  0  0  0  0  0  0  0  0  0  0
    1.2225    1.4885   -1.7799 H   0  0  0  0  0  0  0  0  0  0  0  0
    2.1433    0.7097   -0.4877 H   0  0  0  0  0  0  0  0  0  0  0  0
    2.6081   -0.0276   -2.4186 C   0  0  0  0  0  0  0  0  0  0  0  0
    2.2103   -0.6693   -3.3745 O   0  0  0  0  0  0  0  0  0  0  0  0
    3.9140    0.2313   -2.1942 O   0  0  0  0  0  0  0  0  0  0  0  0
    4.3821   -0.1937   -2.9297 H   0  0  0  0  0  0  0  0  0  0  0  0
   -0.3803    1.1701    0.6827 C   0  0  0  0  0  0  0  0  0  0  0  0
   -1.2990    1.8179    0.1946 O   0  0  0  0  0  0  0  0  0  0  0  0
    0.4596    1.7704    1.6029 N   0  0  0  0  0  0  0  0  0  0  0  0
    1.1591    1.1865    2.0531 H   0  0  0  0  0  0  0  0  0  0  0  0
    0.2845    3.1424    2.0644 C   0  0  0  0  0  0  0  0  0  0  0  0
   -0.6787    3.2563    2.5730 H   0  0  0  0  0  0  0  0  0  0  0  0
    1.0804    3.4107    2.7657 H   0  0  0  0  0  0  0  0  0  0  0  0
    0.3208    3.8385    1.2196 H   0  0  0  0  0  0  0  0  0  0  0  0
  1  2  1  0  0  0  0
  2  3  1  0  0  0  0
  2  4  1  0  0  0  0
  2  5  1  0  0  0  0
  5  6  2  0  0  0  0
  5  7  1  0  0  0  0
  7  8  1  0  0  0  0
  7  9  1  0  0  0  0
  9 10  1  0  0  0  0
  9 11  1  0  0  0  0
  9 21  1  0  0  0  0
 11 12  1  0  0  0  0
 11 13  1  0  0  0  0
 11 14  1  0  0  0  0
 14 15  1  0  0  0  0
 14 16  1  0  0  0  0
 14 17  1  0  0  0  0
 17 18  2  0  0  0  0
 17 19  1  0  0  0  0
 19 20  1  0  0  0  0
 21 22  2  0  0  0  0
 21 23  1  0  0  0  0
 23 24  1  0  0  0  0
 23 25  1  0  0  0  0
 25 26  1  0  0  0  0
 25 27  1  0  0  0  0
 25 28  1  0  0  0  0
M  END
$$$$

  -OEChem-03222214033D

 28 27  0     1  0  0  0  0  0999 V2000
   -3.1425   -3.7752    1.2930 H   0  0  0  0  0  0  0  0  0  0  0  0
   -3.1324   -2.7940    0.8101 C   0  0  0  0  0  0  0  0  0  0  0  0
   -3.7930   -2.1222    1.3635 H   0  0  0  0  0  0  0  0  0  0  0  0
   -3.5044   -2.9004   -0.2118 H   0  0  0  0  0  0  0  0  0  0  0  0
   -1.7223   -2.2353    0.7924 C   0  0  0  0  0  0  0  0  0  0  0  0
   -0.8014   -2.8789    1.2698 O   0  0  0  0  0  0  0  0  0  0  0  0
   -1.4853   -0.9881    0.2549 N   0  0  0  0  0  0  0  0  0  0  0  0
   -2.2912   -0.4452   -0.0525 H   0  0  0  0  0  0  0  0  0  0  0  0
   -0.1836   -0.3081    0.2657 C   0  0  1  0  0  0  0  0  0  0  0  0
    0.4918   -0.7688    0.9943 H   0  0  0  0  0  0  0  0  0  0  0  0
    0.4237   -0.4518   -1.1437 C   0  0  0  0  0  0  0  0  0  0  0  0
    0.7532   -1.4898   -1.2664 H   0  0  0  0  0  0  0  0  0  0  0  0
   -0.3472   -0.2601   -1.8987 H   0  0  0  0  0  0  0  0  0  0  0  0
    1.6078    0.5041   -1.4055 C   0  0  0  0  0  0  0  0  0  0  0  0
    1.2427    1.5266   -1.5362 H   0  0  0  0  0  0  0  0  0  0  0  0
    2.2801    0.4918   -0.5437 H   0  0  0  0  0  0  0  0  0  0  0  0
    2.4360    0.1318   -2.6348 C   0  0  0  0  0  0  0  0  0  0  0  0
    1.9529   -0.5706   -3.5051 O   0  0  0  0  0  0  0  0  0  0  0  0
    3.6933    0.6185   -2.6942 O   0  0  0  0  0  0  0  0  0  0  0  0
    4.0502    0.2848   -3.5319 H   0  0  0  0  0  0  0  0  0  0  0  0
   -0.3789    1.1659    0.6808 C   0  0  0  0  0  0  0  0  0  0  0  0
   -1.2957    1.8204    0.1983 O   0  0  0  0  0  0  0  0  0  0  0  0
    0.4646    1.7567    1.6037 N   0  0  0  0  0  0  0  0  0  0  0  0
    1.1602    1.1659    2.0509 H   0  0  0  0  0  0  0  0  0  0  0  0
    0.2904    3.1235    2.0807 C   0  0  0  0  0  0  0  0  0  0  0  0
   -0.6804    3.2362    2.5752 H   0  0  0  0  0  0  0  0  0  0  0  0
    1.0761    3.3772    2.7990 H   0  0  0  0  0  0  0  0  0  0  0  0
    0.3448    3.8304    1.2460 H   0  0  0  0  0  0  0  0  0  0  0  0
  1  2  1  0  0  0  0
  2  3  1  0  0  0  0
  2  4  1  0  0  0  0
  2  5  1  0  0  0  0
  5  6  2  0  0  0  0
  5  7  1  0  0  0  0
  7  8  1  0  0  0  0
  7  9  1  0  0  0  0
  9 10  1  0  0  0  0
  9 11  1  0  0  0  0
  9 21  1  0  0  0  0
 11 12  1  0  0  0  0
 11 13  1  0  0  0  0
 11 14  1  0  0  0  0
 14 15  1  0  0  0  0
 14 16  1  0  0  0  0
 14 17  1  0  0  0  0
 17 18  2  0  0  0  0
 17 19  1  0  0  0  0
 19 20  1  0  0  0  0
 21 22  2  0  0  0  0
 21 23  1  0  0  0  0
 23 24  1  0  0  0  0
 23 25  1  0  0  0  0
 25 26  1  0  0  0  0
 25 27  1  0  0  0  0
 25 28  1  0  0  0  0
M  END
$$$$
