@<TRIPOS>MOLECULE
default_name
   25    25     1     0     0
SMALL
No Charge or Current Charge


@<TRIPOS>ATOM
      1 N           27.4690    25.5750    23.8380 N.4        1 NHI       0.000000
      2 H1          27.9590    25.0690    23.1110 H          1 NHI       0.000000
      3 H2          26.4880    25.6450    23.6100 H          1 NHI       0.000000
      4 H3          27.5890    25.0570    24.6990 H          1 NHI       0.000000
      5 CA          28.0710    26.9180    24.0030 C.3        1 NHI       0.000000
      6 HA          28.0290    27.4430    23.0480 H          1 NHI       0.000000
      7 CB          27.2900    27.7420    25.0400 C.3        1 NHI       0.000000
      8 HB2         26.2470    27.8160    24.7290 H          1 NHI       0.000000
      9 HB3         27.3220    27.2330    26.0040 H          1 NHI       0.000000
     10 CG          27.8360    29.1360    25.2120 C.2        1 NHI       0.000000
     11 ND1         28.6990    29.5670    26.2000 N.pl3      1 NHI       0.000000
     12 HD1         28.9790    29.0660    27.0310 H          1 NHI       0.000000
     13 CE1         29.0490    30.8350    25.9210 C.2        1 NHI       0.000000
     14 HE1         29.7030    31.4550    26.5240 H          1 NHI       0.000000
     15 NE2         28.4680    31.2310    24.7810 N.2        1 NHI       0.000000
     16 CD2         27.6780    30.1750    24.3340 C.2        1 NHI       0.000000
     17 HD2         27.0860    30.1750    23.4280 H          1 NHI       0.000000
     18 C           29.5450    26.7530    24.3740 C.2        1 NHI       0.000000
     19 O           29.8950    25.6670    24.8200 O.2        1 NHI       0.000000
     20 N           30.3910    27.7710    24.1720 N.am       2 NME      -0.415700
     21 H           30.0260    28.6640    23.8610 H          2 NME       0.271900
     22 CH3         31.8260    27.7090    24.4530 C.3        2 NME      -0.149000
     23 HH31        32.2300    26.7350    24.1670 H          2 NME       0.097600
     24 HH32        32.3530    28.4840    23.8920 H          2 NME       0.097600
     25 HH33        32.0060    27.8610    25.5190 H          2 NME       0.097600
@<TRIPOS>BOND
     1    18    19 2   
     2    18    20 am  
     3    16    17 1   
     4    15    16 1   
     5    13    14 1   
     6    13    15 2   
     7    11    12 1   
     8    11    13 1   
     9    10    11 1   
    10    10    16 2   
    11     7     8 1   
    12     7     9 1   
    13     7    10 1   
    14     5     6 1   
    15     5     7 1   
    16     5    18 1   
    17     1     2 1   
    18     1     3 1   
    19     1     4 1   
    20     1     5 1   
    21    22    23 1   
    22    22    24 1   
    23    22    25 1   
    24    20    21 1   
    25    20    22 1   
@<TRIPOS>SUBSTRUCTURE
     1 NHI         1 TEMP              0 ****  ****    0 ROOT
