
  -OEChem-03222214083D

 36 37  0     1  0  0  0  0  0999 V2000
   -3.5445   -4.6075    0.6723 H   0  0  0  0  0  0  0  0  0  0  0  0
   -3.3704   -3.8045   -0.0499 C   0  0  0  0  0  0  0  0  0  0  0  0
   -4.2674   -3.1835   -0.1075 H   0  0  0  0  0  0  0  0  0  0  0  0
   -3.1776   -4.2498   -1.0289 H   0  0  0  0  0  0  0  0  0  0  0  0
   -2.1838   -2.9639    0.3831 C   0  0  0  0  0  0  0  0  0  0  0  0
   -1.6145   -3.2199    1.4267 O   0  0  0  0  0  0  0  0  0  0  0  0
   -1.7483   -1.9319   -0.4259 N   0  0  0  0  0  0  0  0  0  0  0  0
   -2.2050   -1.8412   -1.3273 H   0  0  0  0  0  0  0  0  0  0  0  0
   -0.5803   -1.0693   -0.1388 C   0  0  1  0  0  0  0  0  0  0  0  0
    0.3384   -1.6623   -0.0908 H   0  0  0  0  0  0  0  0  0  0  0  0
   -0.5288   -0.0745   -1.3166 C   0  0  0  0  0  0  0  0  0  0  0  0
   -0.4419   -0.6608   -2.2372 H   0  0  0  0  0  0  0  0  0  0  0  0
   -1.4855    0.4566   -1.3579 H   0  0  0  0  0  0  0  0  0  0  0  0
    0.5669    0.9728   -1.3609 C   0  0  0  0  0  0  0  0  0  0  0  0
    0.5998    1.8629   -2.4115 C   0  0  0  0  0  0  0  0  0  0  0  0
   -0.1659    1.9572   -3.1780 H   0  0  0  0  0  0  0  0  0  0  0  0
    1.7541    2.6260   -2.3135 N   0  0  0  0  0  0  0  0  0  0  0  0
    2.0258    3.3770   -2.9443 H   0  0  0  0  0  0  0  0  0  0  0  0
    2.5328    2.1647   -1.2720 C   0  0  0  0  0  0  0  0  0  0  0  0
    3.7961    2.5860   -0.8576 C   0  0  0  0  0  0  0  0  0  0  0  0
    4.2840    3.4221   -1.3457 H   0  0  0  0  0  0  0  0  0  0  0  0
    4.4303    1.9050    0.1862 C   0  0  0  0  0  0  0  0  0  0  0  0
    5.4125    2.2180    0.5270 H   0  0  0  0  0  0  0  0  0  0  0  0
    3.8019    0.8027    0.7774 C   0  0  0  0  0  0  0  0  0  0  0  0
    4.2973    0.2564    1.5744 H   0  0  0  0  0  0  0  0  0  0  0  0
    2.5330    0.3926    0.3452 C   0  0  0  0  0  0  0  0  0  0  0  0
    2.0972   -0.4842    0.8051 H   0  0  0  0  0  0  0  0  0  0  0  0
    1.8634    1.1003   -0.6658 C   0  0  0  0  0  0  0  0  0  0  0  0
   -0.7802   -0.3142    1.2060 C   0  0  0  0  0  0  0  0  0  0  0  0
    0.0769   -0.3044    2.0783 O   0  0  0  0  0  0  0  0  0  0  0  0
   -1.9983    0.2869    1.4811 N   0  0  0  0  0  0  0  0  0  0  0  0
   -2.7452    0.1219    0.8169 H   0  0  0  0  0  0  0  0  0  0  0  0
   -2.3274    0.8538    2.7829 C   0  0  0  0  0  0  0  0  0  0  0  0
   -1.6110    1.6371    3.0521 H   0  0  0  0  0  0  0  0  0  0  0  0
   -3.3279    1.2957    2.7614 H   0  0  0  0  0  0  0  0  0  0  0  0
   -2.3065    0.0766    3.5540 H   0  0  0  0  0  0  0  0  0  0  0  0
  1  2  1  0  0  0  0
  2  3  1  0  0  0  0
  2  4  1  0  0  0  0
  2  5  1  0  0  0  0
  5  6  2  0  0  0  0
  5  7  1  0  0  0  0
  7  8  1  0  0  0  0
  7  9  1  0  0  0  0
  9 10  1  0  0  0  0
  9 11  1  0  0  0  0
  9 29  1  0  0  0  0
 11 12  1  0  0  0  0
 11 13  1  0  0  0  0
 11 14  1  0  0  0  0
 14 15  2  0  0  0  0
 14 28  1  0  0  0  0
 15 16  1  0  0  0  0
 15 17  1  0  0  0  0
 17 18  1  0  0  0  0
 17 19  1  0  0  0  0
 19 20  1  0  0  0  0
 19 28  2  0  0  0  0
 20 21  1  0  0  0  0
 20 22  2  0  0  0  0
 22 23  1  0  0  0  0
 22 24  1  0  0  0  0
 24 25  1  0  0  0  0
 24 26  2  0  0  0  0
 26 27  1  0  0  0  0
 26 28  1  0  0  0  0
 29 30  2  0  0  0  0
 29 31  1  0  0  0  0
 31 32  1  0  0  0  0
 31 33  1  0  0  0  0
 33 34  1  0  0  0  0
 33 35  1  0  0  0  0
 33 36  1  0  0  0  0
M  END
$$$$

  -OEChem-03222214083D

 36 37  0     1  0  0  0  0  0999 V2000
   -3.5430   -4.6167    0.7005 H   0  0  0  0  0  0  0  0  0  0  0  0
   -3.3926   -3.8163   -0.0299 C   0  0  0  0  0  0  0  0  0  0  0  0
   -4.2974   -3.2053   -0.0726 H   0  0  0  0  0  0  0  0  0  0  0  0
   -3.2151   -4.2656   -1.0099 H   0  0  0  0  0  0  0  0  0  0  0  0
   -2.2063   -2.9607    0.3733 C   0  0  0  0  0  0  0  0  0  0  0  0
   -1.6202   -3.1968    1.4125 O   0  0  0  0  0  0  0  0  0  0  0  0
   -1.7956   -1.9299   -0.4497 N   0  0  0  0  0  0  0  0  0  0  0  0
   -2.2582   -1.8605   -1.3503 H   0  0  0  0  0  0  0  0  0  0  0  0
   -0.6052   -1.0866   -0.2062 C   0  0  1  0  0  0  0  0  0  0  0  0
    0.2881   -1.7166   -0.1930 H   0  0  0  0  0  0  0  0  0  0  0  0
   -0.5443   -0.1065   -1.3935 C   0  0  0  0  0  0  0  0  0  0  0  0
   -0.4704   -0.7020   -2.3089 H   0  0  0  0  0  0  0  0  0  0  0  0
   -1.4877    0.4481   -1.4374 H   0  0  0  0  0  0  0  0  0  0  0  0
    0.5873    0.9000   -1.4325 C   0  0  0  0  0  0  0  0  0  0  0  0
    0.5238    1.9850   -2.2773 C   0  0  0  0  0  0  0  0  0  0  0  0
   -0.3307    2.2517   -2.8947 H   0  0  0  0  0  0  0  0  0  0  0  0
    1.7307    2.6674   -2.2094 N   0  0  0  0  0  0  0  0  0  0  0  0
    1.9618    3.5182   -2.7178 H   0  0  0  0  0  0  0  0  0  0  0  0
    2.6030    2.0003   -1.3715 C   0  0  0  0  0  0  0  0  0  0  0  0
    3.9244    2.2991   -1.0404 C   0  0  0  0  0  0  0  0  0  0  0  0
    4.4045    3.1832   -1.4442 H   0  0  0  0  0  0  0  0  0  0  0  0
    4.6217    1.4406   -0.1837 C   0  0  0  0  0  0  0  0  0  0  0  0
    5.6495    1.6583    0.0902 H   0  0  0  0  0  0  0  0  0  0  0  0
    3.9903    0.2964    0.3192 C   0  0  0  0  0  0  0  0  0  0  0  0
    4.5270   -0.3725    0.9848 H   0  0  0  0  0  0  0  0  0  0  0  0
    2.6617    0.0099   -0.0245 C   0  0  0  0  0  0  0  0  0  0  0  0
    2.2033   -0.8807    0.3866 H   0  0  0  0  0  0  0  0  0  0  0  0
    1.9485    0.8754   -0.8689 C   0  0  0  0  0  0  0  0  0  0  0  0
   -0.6912   -0.3206    1.1396 C   0  0  0  0  0  0  0  0  0  0  0  0
    0.2544   -0.2852    1.9150 O   0  0  0  0  0  0  0  0  0  0  0  0
   -1.8680    0.3177    1.4945 N   0  0  0  0  0  0  0  0  0  0  0  0
   -2.6745    0.1367    0.9083 H   0  0  0  0  0  0  0  0  0  0  0  0
   -2.0715    0.9274    2.8022 C   0  0  0  0  0  0  0  0  0  0  0  0
   -1.3237    1.7070    2.9818 H   0  0  0  0  0  0  0  0  0  0  0  0
   -3.0644    1.3835    2.8570 H   0  0  0  0  0  0  0  0  0  0  0  0
   -1.9907    0.1727    3.5917 H   0  0  0  0  0  0  0  0  0  0  0  0
  1  2  1  0  0  0  0
  2  3  1  0  0  0  0
  2  4  1  0  0  0  0
  2  5  1  0  0  0  0
  5  6  2  0  0  0  0
  5  7  1  0  0  0  0
  7  8  1  0  0  0  0
  7  9  1  0  0  0  0
  9 10  1  0  0  0  0
  9 11  1  0  0  0  0
  9 29  1  0  0  0  0
 11 12  1  0  0  0  0
 11 13  1  0  0  0  0
 11 14  1  0  0  0  0
 14 15  2  0  0  0  0
 14 28  1  0  0  0  0
 15 16  1  0  0  0  0
 15 17  1  0  0  0  0
 17 18  1  0  0  0  0
 17 19  1  0  0  0  0
 19 20  1  0  0  0  0
 19 28  2  0  0  0  0
 20 21  1  0  0  0  0
 20 22  2  0  0  0  0
 22 23  1  0  0  0  0
 22 24  1  0  0  0  0
 24 25  1  0  0  0  0
 24 26  2  0  0  0  0
 26 27  1  0  0  0  0
 26 28  1  0  0  0  0
 29 30  2  0  0  0  0
 29 31  1  0  0  0  0
 31 32  1  0  0  0  0
 31 33  1  0  0  0  0
 33 34  1  0  0  0  0
 33 35  1  0  0  0  0
 33 36  1  0  0  0  0
M  END
$$$$

  -OEChem-03222214083D

 36 37  0     1  0  0  0  0  0999 V2000
   -3.5179   -4.6316    0.7238 H   0  0  0  0  0  0  0  0  0  0  0  0
   -3.3940   -3.8307   -0.0107 C   0  0  0  0  0  0  0  0  0  0  0  0
   -4.3058   -3.2291   -0.0319 H   0  0  0  0  0  0  0  0  0  0  0  0
   -3.2361   -4.2791   -0.9944 H   0  0  0  0  0  0  0  0  0  0  0  0
   -2.2066   -2.9627    0.3612 C   0  0  0  0  0  0  0  0  0  0  0  0
   -1.5919   -3.1874    1.3866 O   0  0  0  0  0  0  0  0  0  0  0  0
   -1.8302   -1.9282   -0.4727 N   0  0  0  0  0  0  0  0  0  0  0  0
   -2.3175   -1.8649   -1.3606 H   0  0  0  0  0  0  0  0  0  0  0  0
   -0.6268   -1.0934   -0.2743 C   0  0  1  0  0  0  0  0  0  0  0  0
    0.2474   -1.7475   -0.2896 H   0  0  0  0  0  0  0  0  0  0  0  0
   -0.5725   -0.1281   -1.4730 C   0  0  0  0  0  0  0  0  0  0  0  0
   -0.5163   -0.7305   -2.3853 H   0  0  0  0  0  0  0  0  0  0  0  0
   -1.5077    0.4402   -1.5097 H   0  0  0  0  0  0  0  0  0  0  0  0
    0.5816    0.8509   -1.5165 C   0  0  0  0  0  0  0  0  0  0  0  0
    0.4531    2.0866   -2.1086 C   0  0  0  0  0  0  0  0  0  0  0  0
   -0.4633    2.4897   -2.5332 H   0  0  0  0  0  0  0  0  0  0  0  0
    1.6919    2.7142   -2.0824 N   0  0  0  0  0  0  0  0  0  0  0  0
    1.8927    3.6462   -2.4380 H   0  0  0  0  0  0  0  0  0  0  0  0
    2.6309    1.8849   -1.4984 C   0  0  0  0  0  0  0  0  0  0  0  0
    3.9924    2.0899   -1.2761 C   0  0  0  0  0  0  0  0  0  0  0  0
    4.4626    3.0202   -1.5739 H   0  0  0  0  0  0  0  0  0  0  0  0
    4.7411    1.0801   -0.6609 C   0  0  0  0  0  0  0  0  0  0  0  0
    5.8009    1.2238   -0.4734 H   0  0  0  0  0  0  0  0  0  0  0  0
    4.1181   -0.1154   -0.2799 C   0  0  0  0  0  0  0  0  0  0  0  0
    4.6935   -0.8966    0.2073 H   0  0  0  0  0  0  0  0  0  0  0  0
    2.7486   -0.3070   -0.5117 C   0  0  0  0  0  0  0  0  0  0  0  0
    2.2924   -1.2343   -0.1904 H   0  0  0  0  0  0  0  0  0  0  0  0
    1.9924    0.7023   -1.1272 C   0  0  0  0  0  0  0  0  0  0  0  0
   -0.6140   -0.3234    1.0685 C   0  0  0  0  0  0  0  0  0  0  0  0
    0.4026   -0.2648    1.7472 O   0  0  0  0  0  0  0  0  0  0  0  0
   -1.7522    0.3368    1.4999 N   0  0  0  0  0  0  0  0  0  0  0  0
   -2.6075    0.1370    0.9942 H   0  0  0  0  0  0  0  0  0  0  0  0
   -1.8412    0.9793    2.8047 C   0  0  0  0  0  0  0  0  0  0  0  0
   -1.0722    1.7529    2.9038 H   0  0  0  0  0  0  0  0  0  0  0  0
   -2.8210    1.4498    2.9293 H   0  0  0  0  0  0  0  0  0  0  0  0
   -1.7048    0.2426    3.6035 H   0  0  0  0  0  0  0  0  0  0  0  0
  1  2  1  0  0  0  0
  2  3  1  0  0  0  0
  2  4  1  0  0  0  0
  2  5  1  0  0  0  0
  5  6  2  0  0  0  0
  5  7  1  0  0  0  0
  7  8  1  0  0  0  0
  7  9  1  0  0  0  0
  9 10  1  0  0  0  0
  9 11  1  0  0  0  0
  9 29  1  0  0  0  0
 11 12  1  0  0  0  0
 11 13  1  0  0  0  0
 11 14  1  0  0  0  0
 14 15  2  0  0  0  0
 14 28  1  0  0  0  0
 15 16  1  0  0  0  0
 15 17  1  0  0  0  0
 17 18  1  0  0  0  0
 17 19  1  0  0  0  0
 19 20  1  0  0  0  0
 19 28  2  0  0  0  0
 20 21  1  0  0  0  0
 20 22  2  0  0  0  0
 22 23  1  0  0  0  0
 22 24  1  0  0  0  0
 24 25  1  0  0  0  0
 24 26  2  0  0  0  0
 26 27  1  0  0  0  0
 26 28  1  0  0  0  0
 29 30  2  0  0  0  0
 29 31  1  0  0  0  0
 31 32  1  0  0  0  0
 31 33  1  0  0  0  0
 33 34  1  0  0  0  0
 33 35  1  0  0  0  0
 33 36  1  0  0  0  0
M  END
$$$$

  -OEChem-03222214083D

 36 37  0     1  0  0  0  0  0999 V2000
   -3.4117   -4.6541    0.7894 H   0  0  0  0  0  0  0  0  0  0  0  0
   -3.3187   -3.8623    0.0406 C   0  0  0  0  0  0  0  0  0  0  0  0
   -4.2430   -3.2800    0.0284 H   0  0  0  0  0  0  0  0  0  0  0  0
   -3.1711   -4.3227   -0.9390 H   0  0  0  0  0  0  0  0  0  0  0  0
   -2.1427   -2.9644    0.3764 C   0  0  0  0  0  0  0  0  0  0  0  0
   -1.5040   -3.1612    1.3928 O   0  0  0  0  0  0  0  0  0  0  0  0
   -1.8042   -1.9330   -0.4774 N   0  0  0  0  0  0  0  0  0  0  0  0
   -2.3093   -1.8909   -1.3567 H   0  0  0  0  0  0  0  0  0  0  0  0
   -0.6129   -1.0736   -0.3147 C   0  0  1  0  0  0  0  0  0  0  0  0
    0.2749   -1.7090   -0.3323 H   0  0  0  0  0  0  0  0  0  0  0  0
   -0.5939   -0.1161   -1.5211 C   0  0  0  0  0  0  0  0  0  0  0  0
   -0.5420   -0.7144   -2.4359 H   0  0  0  0  0  0  0  0  0  0  0  0
   -1.5325    0.4468   -1.5460 H   0  0  0  0  0  0  0  0  0  0  0  0
    0.5599    0.8589   -1.5482 C   0  0  0  0  0  0  0  0  0  0  0  0
    0.4147    2.1961   -1.8359 C   0  0  0  0  0  0  0  0  0  0  0  0
   -0.5289    2.7049   -2.0174 H   0  0  0  0  0  0  0  0  0  0  0  0
    1.6792    2.7732   -1.8529 N   0  0  0  0  0  0  0  0  0  0  0  0
    1.8784    3.7585   -2.0091 H   0  0  0  0  0  0  0  0  0  0  0  0
    2.6445    1.8137   -1.6063 C   0  0  0  0  0  0  0  0  0  0  0  0
    4.0336    1.9207   -1.5417 C   0  0  0  0  0  0  0  0  0  0  0  0
    4.5157    2.8809   -1.6859 H   0  0  0  0  0  0  0  0  0  0  0  0
    4.7944    0.7729   -1.2874 C   0  0  0  0  0  0  0  0  0  0  0  0
    5.8766    0.8397   -1.2288 H   0  0  0  0  0  0  0  0  0  0  0  0
    4.1568   -0.4621   -1.1062 C   0  0  0  0  0  0  0  0  0  0  0  0
    4.7453   -1.3520   -0.9055 H   0  0  0  0  0  0  0  0  0  0  0  0
    2.7594   -0.5548   -1.1739 C   0  0  0  0  0  0  0  0  0  0  0  0
    2.2864   -1.5178   -1.0295 H   0  0  0  0  0  0  0  0  0  0  0  0
    1.9964    0.5952   -1.4194 C   0  0  0  0  0  0  0  0  0  0  0  0
   -0.5801   -0.2855    1.0166 C   0  0  0  0  0  0  0  0  0  0  0  0
    0.4621   -0.1639    1.6465 O   0  0  0  0  0  0  0  0  0  0  0  0
   -1.7195    0.3603    1.4662 N   0  0  0  0  0  0  0  0  0  0  0  0
   -2.5880    0.1069    1.0088 H   0  0  0  0  0  0  0  0  0  0  0  0
   -1.7774    1.0422    2.7525 C   0  0  0  0  0  0  0  0  0  0  0  0
   -1.0215    1.8331    2.8012 H   0  0  0  0  0  0  0  0  0  0  0  0
   -2.7617    1.4979    2.8951 H   0  0  0  0  0  0  0  0  0  0  0  0
   -1.5993    0.3343    3.5689 H   0  0  0  0  0  0  0  0  0  0  0  0
  1  2  1  0  0  0  0
  2  3  1  0  0  0  0
  2  4  1  0  0  0  0
  2  5  1  0  0  0  0
  5  6  2  0  0  0  0
  5  7  1  0  0  0  0
  7  8  1  0  0  0  0
  7  9  1  0  0  0  0
  9 10  1  0  0  0  0
  9 11  1  0  0  0  0
  9 29  1  0  0  0  0
 11 12  1  0  0  0  0
 11 13  1  0  0  0  0
 11 14  1  0  0  0  0
 14 15  2  0  0  0  0
 14 28  1  0  0  0  0
 15 16  1  0  0  0  0
 15 17  1  0  0  0  0
 17 18  1  0  0  0  0
 17 19  1  0  0  0  0
 19 20  1  0  0  0  0
 19 28  2  0  0  0  0
 20 21  1  0  0  0  0
 20 22  2  0  0  0  0
 22 23  1  0  0  0  0
 22 24  1  0  0  0  0
 24 25  1  0  0  0  0
 24 26  2  0  0  0  0
 26 27  1  0  0  0  0
 26 28  1  0  0  0  0
 29 30  2  0  0  0  0
 29 31  1  0  0  0  0
 31 32  1  0  0  0  0
 31 33  1  0  0  0  0
 33 34  1  0  0  0  0
 33 35  1  0  0  0  0
 33 36  1  0  0  0  0
M  END
$$$$

  -OEChem-03222214083D

 36 37  0     1  0  0  0  0  0999 V2000
   -3.2828   -4.6868    0.7990 H   0  0  0  0  0  0  0  0  0  0  0  0
   -3.2310   -3.8840    0.0580 C   0  0  0  0  0  0  0  0  0  0  0  0
   -4.1705   -3.3266    0.0771 H   0  0  0  0  0  0  0  0  0  0  0  0
   -3.0974   -4.3286   -0.9310 H   0  0  0  0  0  0  0  0  0  0  0  0
   -2.0712   -2.9583    0.3741 C   0  0  0  0  0  0  0  0  0  0  0  0
   -1.4184   -3.1313    1.3859 O   0  0  0  0  0  0  0  0  0  0  0  0
   -1.7673   -1.9261   -0.4913 N   0  0  0  0  0  0  0  0  0  0  0  0
   -2.2837   -1.9047   -1.3647 H   0  0  0  0  0  0  0  0  0  0  0  0
   -0.5890   -1.0445   -0.3578 C   0  0  1  0  0  0  0  0  0  0  0  0
    0.3185   -1.6547   -0.3921 H   0  0  0  0  0  0  0  0  0  0  0  0
   -0.6154   -0.0911   -1.5668 C   0  0  0  0  0  0  0  0  0  0  0  0
   -0.5783   -0.6797   -2.4889 H   0  0  0  0  0  0  0  0  0  0  0  0
   -1.5570    0.4672   -1.5660 H   0  0  0  0  0  0  0  0  0  0  0  0
    0.5329    0.8840   -1.5848 C   0  0  0  0  0  0  0  0  0  0  0  0
    0.4186    2.2536   -1.5584 C   0  0  0  0  0  0  0  0  0  0  0  0
   -0.5120    2.8098   -1.4760 H   0  0  0  0  0  0  0  0  0  0  0  0
    1.7007    2.7884   -1.6484 N   0  0  0  0  0  0  0  0  0  0  0  0
    1.9316    3.7786   -1.6097 H   0  0  0  0  0  0  0  0  0  0  0  0
    2.6382    1.7741   -1.7504 C   0  0  0  0  0  0  0  0  0  0  0  0
    4.0275    1.8116   -1.8683 C   0  0  0  0  0  0  0  0  0  0  0  0
    4.5492    2.7619   -1.8838 H   0  0  0  0  0  0  0  0  0  0  0  0
    4.7374    0.6070   -1.9644 C   0  0  0  0  0  0  0  0  0  0  0  0
    5.8195    0.6203   -2.0530 H   0  0  0  0  0  0  0  0  0  0  0  0
    4.0510   -0.6162   -1.9438 C   0  0  0  0  0  0  0  0  0  0  0  0
    4.6031   -1.5483   -2.0151 H   0  0  0  0  0  0  0  0  0  0  0  0
    2.6540   -0.6408   -1.8241 C   0  0  0  0  0  0  0  0  0  0  0  0
    2.1278   -1.5885   -1.8053 H   0  0  0  0  0  0  0  0  0  0  0  0
    1.9508    0.5655   -1.7227 C   0  0  0  0  0  0  0  0  0  0  0  0
   -0.5487   -0.2496    0.9703 C   0  0  0  0  0  0  0  0  0  0  0  0
    0.5037   -0.0881    1.5735 O   0  0  0  0  0  0  0  0  0  0  0  0
   -1.6933    0.3753    1.4367 N   0  0  0  0  0  0  0  0  0  0  0  0
   -2.5646    0.0893    1.0043 H   0  0  0  0  0  0  0  0  0  0  0  0
   -1.7416    1.0575    2.7238 C   0  0  0  0  0  0  0  0  0  0  0  0
   -1.0065    1.8687    2.7561 H   0  0  0  0  0  0  0  0  0  0  0  0
   -2.7343    1.4867    2.8889 H   0  0  0  0  0  0  0  0  0  0  0  0
   -1.5260    0.3550    3.5357 H   0  0  0  0  0  0  0  0  0  0  0  0
  1  2  1  0  0  0  0
  2  3  1  0  0  0  0
  2  4  1  0  0  0  0
  2  5  1  0  0  0  0
  5  6  2  0  0  0  0
  5  7  1  0  0  0  0
  7  8  1  0  0  0  0
  7  9  1  0  0  0  0
  9 10  1  0  0  0  0
  9 11  1  0  0  0  0
  9 29  1  0  0  0  0
 11 12  1  0  0  0  0
 11 13  1  0  0  0  0
 11 14  1  0  0  0  0
 14 15  2  0  0  0  0
 14 28  1  0  0  0  0
 15 16  1  0  0  0  0
 15 17  1  0  0  0  0
 17 18  1  0  0  0  0
 17 19  1  0  0  0  0
 19 20  1  0  0  0  0
 19 28  2  0  0  0  0
 20 21  1  0  0  0  0
 20 22  2  0  0  0  0
 22 23  1  0  0  0  0
 22 24  1  0  0  0  0
 24 25  1  0  0  0  0
 24 26  2  0  0  0  0
 26 27  1  0  0  0  0
 26 28  1  0  0  0  0
 29 30  2  0  0  0  0
 29 31  1  0  0  0  0
 31 32  1  0  0  0  0
 31 33  1  0  0  0  0
 33 34  1  0  0  0  0
 33 35  1  0  0  0  0
 33 36  1  0  0  0  0
M  END
$$$$

  -OEChem-03222214083D

 36 37  0     1  0  0  0  0  0999 V2000
   -3.2161   -4.6987    0.7906 H   0  0  0  0  0  0  0  0  0  0  0  0
   -3.1907   -3.8885    0.0559 C   0  0  0  0  0  0  0  0  0  0  0  0
   -4.1375   -3.3451    0.0987 H   0  0  0  0  0  0  0  0  0  0  0  0
   -3.0706   -4.3232   -0.9392 H   0  0  0  0  0  0  0  0  0  0  0  0
   -2.0385   -2.9482    0.3565 C   0  0  0  0  0  0  0  0  0  0  0  0
   -1.3712   -3.1130    1.3601 O   0  0  0  0  0  0  0  0  0  0  0  0
   -1.7584   -1.9111   -0.5114 N   0  0  0  0  0  0  0  0  0  0  0  0
   -2.2870   -1.8948   -1.3778 H   0  0  0  0  0  0  0  0  0  0  0  0
   -0.5820   -1.0238   -0.3985 C   0  0  1  0  0  0  0  0  0  0  0  0
    0.3323   -1.6239   -0.4574 H   0  0  0  0  0  0  0  0  0  0  0  0
   -0.6366   -0.0642   -1.6011 C   0  0  0  0  0  0  0  0  0  0  0  0
   -0.6278   -0.6381   -2.5328 H   0  0  0  0  0  0  0  0  0  0  0  0
   -1.5740    0.5000   -1.5676 H   0  0  0  0  0  0  0  0  0  0  0  0
    0.5129    0.9068   -1.6212 C   0  0  0  0  0  0  0  0  0  0  0  0
    0.4664    2.2415   -1.2965 C   0  0  0  0  0  0  0  0  0  0  0  0
   -0.4124    2.7793   -0.9486 H   0  0  0  0  0  0  0  0  0  0  0  0
    1.7443    2.7644   -1.4807 N   0  0  0  0  0  0  0  0  0  0  0  0
    2.0253    3.7190   -1.2693 H   0  0  0  0  0  0  0  0  0  0  0  0
    2.6118    1.7763   -1.9176 C   0  0  0  0  0  0  0  0  0  0  0  0
    3.9716    1.8046   -2.2274 C   0  0  0  0  0  0  0  0  0  0  0  0
    4.5328    2.7282   -2.1393 H   0  0  0  0  0  0  0  0  0  0  0  0
    4.6010    0.6243   -2.6483 C   0  0  0  0  0  0  0  0  0  0  0  0
    5.6600    0.6307   -2.8884 H   0  0  0  0  0  0  0  0  0  0  0  0
    3.8657   -0.5665   -2.7533 C   0  0  0  0  0  0  0  0  0  0  0  0
    4.3568   -1.4801   -3.0735 H   0  0  0  0  0  0  0  0  0  0  0  0
    2.4996   -0.5827   -2.4384 C   0  0  0  0  0  0  0  0  0  0  0  0
    1.9307   -1.5031   -2.5110 H   0  0  0  0  0  0  0  0  0  0  0  0
    1.8797    0.5993   -2.0202 C   0  0  0  0  0  0  0  0  0  0  0  0
   -0.5262   -0.2374    0.9347 C   0  0  0  0  0  0  0  0  0  0  0  0
    0.5348   -0.0575    1.5175 O   0  0  0  0  0  0  0  0  0  0  0  0
   -1.6705    0.3737    1.4199 N   0  0  0  0  0  0  0  0  0  0  0  0
   -2.5435    0.0673    1.0052 H   0  0  0  0  0  0  0  0  0  0  0  0
   -1.7105    1.0370    2.7168 C   0  0  0  0  0  0  0  0  0  0  0  0
   -0.9842    1.8559    2.7518 H   0  0  0  0  0  0  0  0  0  0  0  0
   -2.7062    1.4520    2.8991 H   0  0  0  0  0  0  0  0  0  0  0  0
   -1.4778    0.3253    3.5161 H   0  0  0  0  0  0  0  0  0  0  0  0
  1  2  1  0  0  0  0
  2  3  1  0  0  0  0
  2  4  1  0  0  0  0
  2  5  1  0  0  0  0
  5  6  2  0  0  0  0
  5  7  1  0  0  0  0
  7  8  1  0  0  0  0
  7  9  1  0  0  0  0
  9 10  1  0  0  0  0
  9 11  1  0  0  0  0
  9 29  1  0  0  0  0
 11 12  1  0  0  0  0
 11 13  1  0  0  0  0
 11 14  1  0  0  0  0
 14 15  2  0  0  0  0
 14 28  1  0  0  0  0
 15 16  1  0  0  0  0
 15 17  1  0  0  0  0
 17 18  1  0  0  0  0
 17 19  1  0  0  0  0
 19 20  1  0  0  0  0
 19 28  2  0  0  0  0
 20 21  1  0  0  0  0
 20 22  2  0  0  0  0
 22 23  1  0  0  0  0
 22 24  1  0  0  0  0
 24 25  1  0  0  0  0
 24 26  2  0  0  0  0
 26 27  1  0  0  0  0
 26 28  1  0  0  0  0
 29 30  2  0  0  0  0
 29 31  1  0  0  0  0
 31 32  1  0  0  0  0
 31 33  1  0  0  0  0
 33 34  1  0  0  0  0
 33 35  1  0  0  0  0
 33 36  1  0  0  0  0
M  END
$$$$

  -OEChem-03222214083D

 36 37  0     1  0  0  0  0  0999 V2000
   -3.2524   -4.6785    0.7825 H   0  0  0  0  0  0  0  0  0  0  0  0
   -3.2171   -3.8687    0.0479 C   0  0  0  0  0  0  0  0  0  0  0  0
   -4.1553   -3.3106    0.0946 H   0  0  0  0  0  0  0  0  0  0  0  0
   -3.1071   -4.3044   -0.9483 H   0  0  0  0  0  0  0  0  0  0  0  0
   -2.0494   -2.9467    0.3455 C   0  0  0  0  0  0  0  0  0  0  0  0
   -1.3794   -3.1245    1.3451 O   0  0  0  0  0  0  0  0  0  0  0  0
   -1.7622   -1.9074   -0.5173 N   0  0  0  0  0  0  0  0  0  0  0  0
   -2.2957   -1.8791   -1.3805 H   0  0  0  0  0  0  0  0  0  0  0  0
   -0.5794   -1.0287   -0.4018 C   0  0  1  0  0  0  0  0  0  0  0  0
    0.3325   -1.6327   -0.4656 H   0  0  0  0  0  0  0  0  0  0  0  0
   -0.6301   -0.0669   -1.6030 C   0  0  0  0  0  0  0  0  0  0  0  0
   -0.6377   -0.6381   -2.5363 H   0  0  0  0  0  0  0  0  0  0  0  0
   -1.5621    0.5057   -1.5607 H   0  0  0  0  0  0  0  0  0  0  0  0
    0.5226    0.9013   -1.6309 C   0  0  0  0  0  0  0  0  0  0  0  0
    0.5676    2.1465   -1.0496 C   0  0  0  0  0  0  0  0  0  0  0  0
   -0.2261    2.5992   -0.4594 H   0  0  0  0  0  0  0  0  0  0  0  0
    1.8135    2.6998   -1.3351 N   0  0  0  0  0  0  0  0  0  0  0  0
    2.1537    3.5921   -0.9841 H   0  0  0  0  0  0  0  0  0  0  0  0
    2.5721    1.8182   -2.0878 C   0  0  0  0  0  0  0  0  0  0  0  0
    3.8661    1.9110   -2.6003 C   0  0  0  0  0  0  0  0  0  0  0  0
    4.4583    2.8026   -2.4278 H   0  0  0  0  0  0  0  0  0  0  0  0
    4.3886    0.8374   -3.3352 C   0  0  0  0  0  0  0  0  0  0  0  0
    5.3953    0.8957   -3.7379 H   0  0  0  0  0  0  0  0  0  0  0  0
    3.6144   -0.3140   -3.5458 C   0  0  0  0  0  0  0  0  0  0  0  0
    4.0237   -1.1456   -4.1112 H   0  0  0  0  0  0  0  0  0  0  0  0
    2.3156   -0.3968   -3.0234 C   0  0  0  0  0  0  0  0  0  0  0  0
    1.7186   -1.2889   -3.1777 H   0  0  0  0  0  0  0  0  0  0  0  0
    1.8006    0.6806   -2.2947 C   0  0  0  0  0  0  0  0  0  0  0  0
   -0.5226   -0.2522    0.9372 C   0  0  0  0  0  0  0  0  0  0  0  0
    0.5398   -0.0652    1.5154 O   0  0  0  0  0  0  0  0  0  0  0  0
   -1.6654    0.3609    1.4237 N   0  0  0  0  0  0  0  0  0  0  0  0
   -2.5389    0.0542    1.0094 H   0  0  0  0  0  0  0  0  0  0  0  0
   -1.7058    1.0162    2.7251 C   0  0  0  0  0  0  0  0  0  0  0  0
   -0.9785    1.8340    2.7668 H   0  0  0  0  0  0  0  0  0  0  0  0
   -2.7013    1.4314    2.9088 H   0  0  0  0  0  0  0  0  0  0  0  0
   -1.4754    0.2992    3.5204 H   0  0  0  0  0  0  0  0  0  0  0  0
  1  2  1  0  0  0  0
  2  3  1  0  0  0  0
  2  4  1  0  0  0  0
  2  5  1  0  0  0  0
  5  6  2  0  0  0  0
  5  7  1  0  0  0  0
  7  8  1  0  0  0  0
  7  9  1  0  0  0  0
  9 10  1  0  0  0  0
  9 11  1  0  0  0  0
  9 29  1  0  0  0  0
 11 12  1  0  0  0  0
 11 13  1  0  0  0  0
 11 14  1  0  0  0  0
 14 15  2  0  0  0  0
 14 28  1  0  0  0  0
 15 16  1  0  0  0  0
 15 17  1  0  0  0  0
 17 18  1  0  0  0  0
 17 19  1  0  0  0  0
 19 20  1  0  0  0  0
 19 28  2  0  0  0  0
 20 21  1  0  0  0  0
 20 22  2  0  0  0  0
 22 23  1  0  0  0  0
 22 24  1  0  0  0  0
 24 25  1  0  0  0  0
 24 26  2  0  0  0  0
 26 27  1  0  0  0  0
 26 28  1  0  0  0  0
 29 30  2  0  0  0  0
 29 31  1  0  0  0  0
 31 32  1  0  0  0  0
 31 33  1  0  0  0  0
 33 34  1  0  0  0  0
 33 35  1  0  0  0  0
 33 36  1  0  0  0  0
M  END
$$$$

  -OEChem-03222214083D

 36 37  0     1  0  0  0  0  0999 V2000
   -3.3037   -4.6602    0.7615 H   0  0  0  0  0  0  0  0  0  0  0  0
   -3.2413   -3.8582    0.0201 C   0  0  0  0  0  0  0  0  0  0  0  0
   -4.1787   -3.2970    0.0292 H   0  0  0  0  0  0  0  0  0  0  0  0
   -3.0999   -4.3048   -0.9670 H   0  0  0  0  0  0  0  0  0  0  0  0
   -2.0808   -2.9371    0.3462 C   0  0  0  0  0  0  0  0  0  0  0  0
   -1.4351   -3.1159    1.3615 O   0  0  0  0  0  0  0  0  0  0  0  0
   -1.7737   -1.8965   -0.5086 N   0  0  0  0  0  0  0  0  0  0  0  0
   -2.2852   -1.8722   -1.3851 H   0  0  0  0  0  0  0  0  0  0  0  0
   -0.5791   -1.0349   -0.3801 C   0  0  1  0  0  0  0  0  0  0  0  0
    0.3257   -1.6500   -0.4397 H   0  0  0  0  0  0  0  0  0  0  0  0
   -0.6100   -0.0696   -1.5824 C   0  0  0  0  0  0  0  0  0  0  0  0
   -0.6287   -0.6463   -2.5116 H   0  0  0  0  0  0  0  0  0  0  0  0
   -1.5356    0.5138   -1.5427 H   0  0  0  0  0  0  0  0  0  0  0  0
    0.5468    0.8984   -1.6280 C   0  0  0  0  0  0  0  0  0  0  0  0
    0.7286    2.0135   -0.8429 C   0  0  0  0  0  0  0  0  0  0  0  0
    0.0629    2.3443   -0.0483 H   0  0  0  0  0  0  0  0  0  0  0  0
    1.9225    2.6162   -1.2290 N   0  0  0  0  0  0  0  0  0  0  0  0
    2.3412    3.4266   -0.7783 H   0  0  0  0  0  0  0  0  0  0  0  0
    2.5166    1.8970   -2.2520 C   0  0  0  0  0  0  0  0  0  0  0  0
    3.7079    2.0937   -2.9503 C   0  0  0  0  0  0  0  0  0  0  0  0
    4.3446    2.9396   -2.7162 H   0  0  0  0  0  0  0  0  0  0  0  0
    4.0694    1.1843   -3.9539 C   0  0  0  0  0  0  0  0  0  0  0  0
    4.9943    1.3251   -4.5053 H   0  0  0  0  0  0  0  0  0  0  0  0
    3.2399    0.0901   -4.2429 C   0  0  0  0  0  0  0  0  0  0  0  0
    3.5250   -0.6151   -5.0175 H   0  0  0  0  0  0  0  0  0  0  0  0
    2.0466   -0.0994   -3.5308 C   0  0  0  0  0  0  0  0  0  0  0  0
    1.4105   -0.9502   -3.7490 H   0  0  0  0  0  0  0  0  0  0  0  0
    1.6891    0.8152   -2.5332 C   0  0  0  0  0  0  0  0  0  0  0  0
   -0.5305   -0.2728    0.9673 C   0  0  0  0  0  0  0  0  0  0  0  0
    0.5291   -0.0901    1.5524 O   0  0  0  0  0  0  0  0  0  0  0  0
   -1.6720    0.3477    1.4466 N   0  0  0  0  0  0  0  0  0  0  0  0
   -2.5441    0.0488    1.0234 H   0  0  0  0  0  0  0  0  0  0  0  0
   -1.7200    0.9951    2.7516 C   0  0  0  0  0  0  0  0  0  0  0  0
   -0.9884    1.8082    2.8048 H   0  0  0  0  0  0  0  0  0  0  0  0
   -2.7145    1.4153    2.9291 H   0  0  0  0  0  0  0  0  0  0  0  0
   -1.5009    0.2717    3.5442 H   0  0  0  0  0  0  0  0  0  0  0  0
  1  2  1  0  0  0  0
  2  3  1  0  0  0  0
  2  4  1  0  0  0  0
  2  5  1  0  0  0  0
  5  6  2  0  0  0  0
  5  7  1  0  0  0  0
  7  8  1  0  0  0  0
  7  9  1  0  0  0  0
  9 10  1  0  0  0  0
  9 11  1  0  0  0  0
  9 29  1  0  0  0  0
 11 12  1  0  0  0  0
 11 13  1  0  0  0  0
 11 14  1  0  0  0  0
 14 15  2  0  0  0  0
 14 28  1  0  0  0  0
 15 16  1  0  0  0  0
 15 17  1  0  0  0  0
 17 18  1  0  0  0  0
 17 19  1  0  0  0  0
 19 20  1  0  0  0  0
 19 28  2  0  0  0  0
 20 21  1  0  0  0  0
 20 22  2  0  0  0  0
 22 23  1  0  0  0  0
 22 24  1  0  0  0  0
 24 25  1  0  0  0  0
 24 26  2  0  0  0  0
 26 27  1  0  0  0  0
 26 28  1  0  0  0  0
 29 30  2  0  0  0  0
 29 31  1  0  0  0  0
 31 32  1  0  0  0  0
 31 33  1  0  0  0  0
 33 34  1  0  0  0  0
 33 35  1  0  0  0  0
 33 36  1  0  0  0  0
M  END
$$$$

  -OEChem-03222214083D

 36 37  0     1  0  0  0  0  0999 V2000
   -3.3646   -4.6326    0.7202 H   0  0  0  0  0  0  0  0  0  0  0  0
   -3.2746   -3.8272   -0.0146 C   0  0  0  0  0  0  0  0  0  0  0  0
   -4.1973   -3.2424   -0.0090 H   0  0  0  0  0  0  0  0  0  0  0  0
   -3.1356   -4.2697   -1.0039 H   0  0  0  0  0  0  0  0  0  0  0  0
   -2.0934   -2.9388    0.3288 C   0  0  0  0  0  0  0  0  0  0  0  0
   -1.4491   -3.1550    1.3379 O   0  0  0  0  0  0  0  0  0  0  0  0
   -1.7619   -1.8890   -0.5058 N   0  0  0  0  0  0  0  0  0  0  0  0
   -2.2786   -1.8273   -1.3775 H   0  0  0  0  0  0  0  0  0  0  0  0
   -0.5617   -1.0399   -0.3461 C   0  0  1  0  0  0  0  0  0  0  0  0
    0.3389   -1.6622   -0.3934 H   0  0  0  0  0  0  0  0  0  0  0  0
   -0.5632   -0.0714   -1.5495 C   0  0  0  0  0  0  0  0  0  0  0  0
   -0.5693   -0.6642   -2.4681 H   0  0  0  0  0  0  0  0  0  0  0  0
   -1.4904    0.5101   -1.5343 H   0  0  0  0  0  0  0  0  0  0  0  0
    0.5883    0.9094   -1.6112 C   0  0  0  0  0  0  0  0  0  0  0  0
    0.9398    1.8737   -0.6925 C   0  0  0  0  0  0  0  0  0  0  0  0
    0.4346    2.0729    0.2504 H   0  0  0  0  0  0  0  0  0  0  0  0
    2.0632    2.5386   -1.1748 N   0  0  0  0  0  0  0  0  0  0  0  0
    2.5700    3.2666   -0.6760 H   0  0  0  0  0  0  0  0  0  0  0  0
    2.4459    2.0149   -2.3966 C   0  0  0  0  0  0  0  0  0  0  0  0
    3.4982    2.3413   -3.2522 C   0  0  0  0  0  0  0  0  0  0  0  0
    4.1869    3.1371   -2.9912 H   0  0  0  0  0  0  0  0  0  0  0  0
    3.6517    1.6280   -4.4488 C   0  0  0  0  0  0  0  0  0  0  0  0
    4.4663    1.8710   -5.1246 H   0  0  0  0  0  0  0  0  0  0  0  0
    2.7553    0.5988   -4.7722 C   0  0  0  0  0  0  0  0  0  0  0  0
    2.8789    0.0459   -5.6984 H   0  0  0  0  0  0  0  0  0  0  0  0
    1.7032    0.2786   -3.9018 C   0  0  0  0  0  0  0  0  0  0  0  0
    1.0163   -0.5217   -4.1527 H   0  0  0  0  0  0  0  0  0  0  0  0
    1.5521    0.9960   -2.7084 C   0  0  0  0  0  0  0  0  0  0  0  0
   -0.5403   -0.3021    1.0148 C   0  0  0  0  0  0  0  0  0  0  0  0
    0.5055   -0.1453    1.6320 O   0  0  0  0  0  0  0  0  0  0  0  0
   -1.6875    0.3173    1.4806 N   0  0  0  0  0  0  0  0  0  0  0  0
   -2.5516    0.0505    1.0211 H   0  0  0  0  0  0  0  0  0  0  0  0
   -1.7631    0.9483    2.7922 C   0  0  0  0  0  0  0  0  0  0  0  0
   -1.0282    1.7560    2.8734 H   0  0  0  0  0  0  0  0  0  0  0  0
   -2.7591    1.3728    2.9502 H   0  0  0  0  0  0  0  0  0  0  0  0
   -1.5684    0.2140    3.5812 H   0  0  0  0  0  0  0  0  0  0  0  0
  1  2  1  0  0  0  0
  2  3  1  0  0  0  0
  2  4  1  0  0  0  0
  2  5  1  0  0  0  0
  5  6  2  0  0  0  0
  5  7  1  0  0  0  0
  7  8  1  0  0  0  0
  7  9  1  0  0  0  0
  9 10  1  0  0  0  0
  9 11  1  0  0  0  0
  9 29  1  0  0  0  0
 11 12  1  0  0  0  0
 11 13  1  0  0  0  0
 11 14  1  0  0  0  0
 14 15  2  0  0  0  0
 14 28  1  0  0  0  0
 15 16  1  0  0  0  0
 15 17  1  0  0  0  0
 17 18  1  0  0  0  0
 17 19  1  0  0  0  0
 19 20  1  0  0  0  0
 19 28  2  0  0  0  0
 20 21  1  0  0  0  0
 20 22  2  0  0  0  0
 22 23  1  0  0  0  0
 22 24  1  0  0  0  0
 24 25  1  0  0  0  0
 24 26  2  0  0  0  0
 26 27  1  0  0  0  0
 26 28  1  0  0  0  0
 29 30  2  0  0  0  0
 29 31  1  0  0  0  0
 31 32  1  0  0  0  0
 31 33  1  0  0  0  0
 33 34  1  0  0  0  0
 33 35  1  0  0  0  0
 33 36  1  0  0  0  0
M  END
$$$$

  -OEChem-03222214083D

 36 37  0     1  0  0  0  0  0999 V2000
   -3.4186   -4.6072    0.6416 H   0  0  0  0  0  0  0  0  0  0  0  0
   -3.3005   -3.7924   -0.0786 C   0  0  0  0  0  0  0  0  0  0  0  0
   -4.2163   -3.1969   -0.0886 H   0  0  0  0  0  0  0  0  0  0  0  0
   -3.1406   -4.2226   -1.0701 H   0  0  0  0  0  0  0  0  0  0  0  0
   -2.1189   -2.9230    0.3085 C   0  0  0  0  0  0  0  0  0  0  0  0
   -1.5041   -3.1629    1.3305 O   0  0  0  0  0  0  0  0  0  0  0  0
   -1.7480   -1.8695   -0.5049 N   0  0  0  0  0  0  0  0  0  0  0  0
   -2.2411   -1.7886   -1.3886 H   0  0  0  0  0  0  0  0  0  0  0  0
   -0.5382   -1.0424   -0.3042 C   0  0  1  0  0  0  0  0  0  0  0  0
    0.3541   -1.6775   -0.3340 H   0  0  0  0  0  0  0  0  0  0  0  0
   -0.5006   -0.0690   -1.5050 C   0  0  0  0  0  0  0  0  0  0  0  0
   -0.4819   -0.6780   -2.4129 H   0  0  0  0  0  0  0  0  0  0  0  0
   -1.4284    0.5119   -1.5217 H   0  0  0  0  0  0  0  0  0  0  0  0
    0.6501    0.9171   -1.5775 C   0  0  0  0  0  0  0  0  0  0  0  0
    1.1979    1.7126   -0.5927 C   0  0  0  0  0  0  0  0  0  0  0  0
    0.8841    1.7696    0.4465 H   0  0  0  0  0  0  0  0  0  0  0  0
    2.2346    2.4490   -1.1573 N   0  0  0  0  0  0  0  0  0  0  0  0
    2.8349    3.0959   -0.6503 H   0  0  0  0  0  0  0  0  0  0  0  0
    2.3655    2.1482   -2.4997 C   0  0  0  0  0  0  0  0  0  0  0  0
    3.2479    2.6241   -3.4696 C   0  0  0  0  0  0  0  0  0  0  0  0
    3.9993    3.3615   -3.2099 H   0  0  0  0  0  0  0  0  0  0  0  0
    3.1493    2.1371   -4.7797 C   0  0  0  0  0  0  0  0  0  0  0  0
    3.8291    2.4988   -5.5456 H   0  0  0  0  0  0  0  0  0  0  0  0
    2.1731    1.1826   -5.1012 C   0  0  0  0  0  0  0  0  0  0  0  0
    2.0993    0.8058   -6.1167 H   0  0  0  0  0  0  0  0  0  0  0  0
    1.2933    0.7116   -4.1158 C   0  0  0  0  0  0  0  0  0  0  0  0
    0.5418   -0.0268   -4.3713 H   0  0  0  0  0  0  0  0  0  0  0  0
    1.3956    1.2002   -2.8065 C   0  0  0  0  0  0  0  0  0  0  0  0
   -0.5485   -0.3243    1.0665 C   0  0  0  0  0  0  0  0  0  0  0  0
    0.4727   -0.2341    1.7368 O   0  0  0  0  0  0  0  0  0  0  0  0
   -1.6979    0.3070    1.5098 N   0  0  0  0  0  0  0  0  0  0  0  0
   -2.5485    0.0921    1.0008 H   0  0  0  0  0  0  0  0  0  0  0  0
   -1.8098    0.8996    2.8365 C   0  0  0  0  0  0  0  0  0  0  0  0
   -1.0592    1.6853    2.9712 H   0  0  0  0  0  0  0  0  0  0  0  0
   -2.8006    1.3443    2.9696 H   0  0  0  0  0  0  0  0  0  0  0  0
   -1.6642    0.1369    3.6088 H   0  0  0  0  0  0  0  0  0  0  0  0
  1  2  1  0  0  0  0
  2  3  1  0  0  0  0
  2  4  1  0  0  0  0
  2  5  1  0  0  0  0
  5  6  2  0  0  0  0
  5  7  1  0  0  0  0
  7  8  1  0  0  0  0
  7  9  1  0  0  0  0
  9 10  1  0  0  0  0
  9 11  1  0  0  0  0
  9 29  1  0  0  0  0
 11 12  1  0  0  0  0
 11 13  1  0  0  0  0
 11 14  1  0  0  0  0
 14 15  2  0  0  0  0
 14 28  1  0  0  0  0
 15 16  1  0  0  0  0
 15 17  1  0  0  0  0
 17 18  1  0  0  0  0
 17 19  1  0  0  0  0
 19 20  1  0  0  0  0
 19 28  2  0  0  0  0
 20 21  1  0  0  0  0
 20 22  2  0  0  0  0
 22 23  1  0  0  0  0
 22 24  1  0  0  0  0
 24 25  1  0  0  0  0
 24 26  2  0  0  0  0
 26 27  1  0  0  0  0
 26 28  1  0  0  0  0
 29 30  2  0  0  0  0
 29 31  1  0  0  0  0
 31 32  1  0  0  0  0
 31 33  1  0  0  0  0
 33 34  1  0  0  0  0
 33 35  1  0  0  0  0
 33 36  1  0  0  0  0
M  END
$$$$

  -OEChem-03222214083D

 36 37  0     1  0  0  0  0  0999 V2000
   -3.5031   -4.5500    0.5849 H   0  0  0  0  0  0  0  0  0  0  0  0
   -3.3487   -3.7305   -0.1231 C   0  0  0  0  0  0  0  0  0  0  0  0
   -4.2431   -3.1033   -0.1345 H   0  0  0  0  0  0  0  0  0  0  0  0
   -3.1930   -4.1529   -1.1188 H   0  0  0  0  0  0  0  0  0  0  0  0
   -2.1421   -2.9077    0.2879 C   0  0  0  0  0  0  0  0  0  0  0  0
   -1.5478   -3.1798    1.3137 O   0  0  0  0  0  0  0  0  0  0  0  0
   -1.7248   -1.8611   -0.5114 N   0  0  0  0  0  0  0  0  0  0  0  0
   -2.2052   -1.7538   -1.3991 H   0  0  0  0  0  0  0  0  0  0  0  0
   -0.5027   -1.0611   -0.2779 C   0  0  1  0  0  0  0  0  0  0  0  0
    0.3797   -1.7104   -0.2918 H   0  0  0  0  0  0  0  0  0  0  0  0
   -0.4329   -0.0822   -1.4730 C   0  0  0  0  0  0  0  0  0  0  0  0
   -0.3998   -0.6944   -2.3792 H   0  0  0  0  0  0  0  0  0  0  0  0
   -1.3565    0.5042   -1.5073 H   0  0  0  0  0  0  0  0  0  0  0  0
    0.7238    0.8970   -1.5500 C   0  0  0  0  0  0  0  0  0  0  0  0
    1.4726    1.5003   -0.5605 C   0  0  0  0  0  0  0  0  0  0  0  0
    1.3684    1.3699    0.5121 H   0  0  0  0  0  0  0  0  0  0  0  0
    2.4084    2.3306   -1.1703 N   0  0  0  0  0  0  0  0  0  0  0  0
    3.1053    2.8853   -0.6777 H   0  0  0  0  0  0  0  0  0  0  0  0
    2.2720    2.2867   -2.5444 C   0  0  0  0  0  0  0  0  0  0  0  0
    2.9662    2.9376   -3.5640 C   0  0  0  0  0  0  0  0  0  0  0  0
    3.7782    3.6155   -3.3254 H   0  0  0  0  0  0  0  0  0  0  0  0
    2.5998    2.7040   -4.8961 C   0  0  0  0  0  0  0  0  0  0  0  0
    3.1313    3.2039   -5.7005 H   0  0  0  0  0  0  0  0  0  0  0  0
    1.5464    1.8254   -5.1901 C   0  0  0  0  0  0  0  0  0  0  0  0
    1.2632    1.6474   -6.2232 H   0  0  0  0  0  0  0  0  0  0  0  0
    0.8586    1.1755   -4.1548 C   0  0  0  0  0  0  0  0  0  0  0  0
    0.0453    0.4971   -4.3863 H   0  0  0  0  0  0  0  0  0  0  0  0
    1.2308    1.4098   -2.8248 C   0  0  0  0  0  0  0  0  0  0  0  0
   -0.5403   -0.3484    1.0957 C   0  0  0  0  0  0  0  0  0  0  0  0
    0.4466   -0.3307    1.8210 O   0  0  0  0  0  0  0  0  0  0  0  0
   -1.6882    0.3051    1.5096 N   0  0  0  0  0  0  0  0  0  0  0  0
   -2.5209    0.1451    0.9533 H   0  0  0  0  0  0  0  0  0  0  0  0
   -1.8363    0.8721    2.8436 C   0  0  0  0  0  0  0  0  0  0  0  0
   -1.0701    1.6331    3.0248 H   0  0  0  0  0  0  0  0  0  0  0  0
   -2.8189    1.3418    2.9475 H   0  0  0  0  0  0  0  0  0  0  0  0
   -1.7422    0.0892    3.6036 H   0  0  0  0  0  0  0  0  0  0  0  0
  1  2  1  0  0  0  0
  2  3  1  0  0  0  0
  2  4  1  0  0  0  0
  2  5  1  0  0  0  0
  5  6  2  0  0  0  0
  5  7  1  0  0  0  0
  7  8  1  0  0  0  0
  7  9  1  0  0  0  0
  9 10  1  0  0  0  0
  9 11  1  0  0  0  0
  9 29  1  0  0  0  0
 11 12  1  0  0  0  0
 11 13  1  0  0  0  0
 11 14  1  0  0  0  0
 14 15  2  0  0  0  0
 14 28  1  0  0  0  0
 15 16  1  0  0  0  0
 15 17  1  0  0  0  0
 17 18  1  0  0  0  0
 17 19  1  0  0  0  0
 19 20  1  0  0  0  0
 19 28  2  0  0  0  0
 20 21  1  0  0  0  0
 20 22  2  0  0  0  0
 22 23  1  0  0  0  0
 22 24  1  0  0  0  0
 24 25  1  0  0  0  0
 24 26  2  0  0  0  0
 26 27  1  0  0  0  0
 26 28  1  0  0  0  0
 29 30  2  0  0  0  0
 29 31  1  0  0  0  0
 31 32  1  0  0  0  0
 31 33  1  0  0  0  0
 33 34  1  0  0  0  0
 33 35  1  0  0  0  0
 33 36  1  0  0  0  0
M  END
$$$$

  -OEChem-03222214083D

 36 37  0     1  0  0  0  0  0999 V2000
   -3.5823   -4.4925    0.5914 H   0  0  0  0  0  0  0  0  0  0  0  0
   -3.4045   -3.6829   -0.1223 C   0  0  0  0  0  0  0  0  0  0  0  0
   -4.2792   -3.0285   -0.1368 H   0  0  0  0  0  0  0  0  0  0  0  0
   -3.2636   -4.1166   -1.1153 H   0  0  0  0  0  0  0  0  0  0  0  0
   -2.1725   -2.8949    0.2810 C   0  0  0  0  0  0  0  0  0  0  0  0
   -1.5776   -3.1856    1.3015 O   0  0  0  0  0  0  0  0  0  0  0  0
   -1.7299   -1.8624   -0.5227 N   0  0  0  0  0  0  0  0  0  0  0  0
   -2.2134   -1.7399   -1.4067 H   0  0  0  0  0  0  0  0  0  0  0  0
   -0.4916   -1.0882   -0.2902 C   0  0  1  0  0  0  0  0  0  0  0  0
    0.3784   -1.7536   -0.3046 H   0  0  0  0  0  0  0  0  0  0  0  0
   -0.4094   -0.1057   -1.4800 C   0  0  0  0  0  0  0  0  0  0  0  0
   -0.3938   -0.7067   -2.3948 H   0  0  0  0  0  0  0  0  0  0  0  0
   -1.3213    0.4999   -1.4993 H   0  0  0  0  0  0  0  0  0  0  0  0
    0.7637    0.8506   -1.5594 C   0  0  0  0  0  0  0  0  0  0  0  0
    1.7017    1.2319   -0.6226 C   0  0  0  0  0  0  0  0  0  0  0  0
    1.7937    0.8709    0.3970 H   0  0  0  0  0  0  0  0  0  0  0  0
    2.5435    2.1708   -1.2126 N   0  0  0  0  0  0  0  0  0  0  0  0
    3.3316    2.6195   -0.7503 H   0  0  0  0  0  0  0  0  0  0  0  0
    2.1616    2.4119   -2.5188 C   0  0  0  0  0  0  0  0  0  0  0  0
    2.6817    3.2588   -3.4974 C   0  0  0  0  0  0  0  0  0  0  0  0
    3.5451    3.8782   -3.2808 H   0  0  0  0  0  0  0  0  0  0  0  0
    2.0740    3.2976   -4.7597 C   0  0  0  0  0  0  0  0  0  0  0  0
    2.4685    3.9519   -5.5313 H   0  0  0  0  0  0  0  0  0  0  0  0
    0.9567    2.4920   -5.0261 C   0  0  0  0  0  0  0  0  0  0  0  0
    0.4879    2.5243   -6.0048 H   0  0  0  0  0  0  0  0  0  0  0  0
    0.4435    1.6454   -4.0328 C   0  0  0  0  0  0  0  0  0  0  0  0
   -0.4205    1.0231   -4.2389 H   0  0  0  0  0  0  0  0  0  0  0  0
    1.0563    1.6102   -2.7744 C   0  0  0  0  0  0  0  0  0  0  0  0
   -0.5196   -0.3668    1.0811 C   0  0  0  0  0  0  0  0  0  0  0  0
    0.4574   -0.3823    1.8197 O   0  0  0  0  0  0  0  0  0  0  0  0
   -1.6543    0.3137    1.4882 N   0  0  0  0  0  0  0  0  0  0  0  0
   -2.4835    0.1947    0.9168 H   0  0  0  0  0  0  0  0  0  0  0  0
   -1.7925    0.9000    2.8151 C   0  0  0  0  0  0  0  0  0  0  0  0
   -1.0056    1.6410    2.9906 H   0  0  0  0  0  0  0  0  0  0  0  0
   -2.7617    1.3988    2.9096 H   0  0  0  0  0  0  0  0  0  0  0  0
   -1.7237    0.1235    3.5844 H   0  0  0  0  0  0  0  0  0  0  0  0
  1  2  1  0  0  0  0
  2  3  1  0  0  0  0
  2  4  1  0  0  0  0
  2  5  1  0  0  0  0
  5  6  2  0  0  0  0
  5  7  1  0  0  0  0
  7  8  1  0  0  0  0
  7  9  1  0  0  0  0
  9 10  1  0  0  0  0
  9 11  1  0  0  0  0
  9 29  1  0  0  0  0
 11 12  1  0  0  0  0
 11 13  1  0  0  0  0
 11 14  1  0  0  0  0
 14 15  2  0  0  0  0
 14 28  1  0  0  0  0
 15 16  1  0  0  0  0
 15 17  1  0  0  0  0
 17 18  1  0  0  0  0
 17 19  1  0  0  0  0
 19 20  1  0  0  0  0
 19 28  2  0  0  0  0
 20 21  1  0  0  0  0
 20 22  2  0  0  0  0
 22 23  1  0  0  0  0
 22 24  1  0  0  0  0
 24 25  1  0  0  0  0
 24 26  2  0  0  0  0
 26 27  1  0  0  0  0
 26 28  1  0  0  0  0
 29 30  2  0  0  0  0
 29 31  1  0  0  0  0
 31 32  1  0  0  0  0
 31 33  1  0  0  0  0
 33 34  1  0  0  0  0
 33 35  1  0  0  0  0
 33 36  1  0  0  0  0
M  END
$$$$

  -OEChem-03222214083D

 36 37  0     1  0  0  0  0  0999 V2000
   -3.5927   -4.4784    0.6793 H   0  0  0  0  0  0  0  0  0  0  0  0
   -3.4361   -3.6715   -0.0425 C   0  0  0  0  0  0  0  0  0  0  0  0
   -4.2958   -2.9981   -0.0085 H   0  0  0  0  0  0  0  0  0  0  0  0
   -3.3588   -4.1057   -1.0422 H   0  0  0  0  0  0  0  0  0  0  0  0
   -2.1672   -2.9106    0.2934 C   0  0  0  0  0  0  0  0  0  0  0  0
   -1.5260   -3.2103    1.2830 O   0  0  0  0  0  0  0  0  0  0  0  0
   -1.7470   -1.8859   -0.5320 N   0  0  0  0  0  0  0  0  0  0  0  0
   -2.2782   -1.7434   -1.3851 H   0  0  0  0  0  0  0  0  0  0  0  0
   -0.5063   -1.1060   -0.3379 C   0  0  1  0  0  0  0  0  0  0  0  0
    0.3630   -1.7721   -0.3679 H   0  0  0  0  0  0  0  0  0  0  0  0
   -0.4473   -0.1257   -1.5290 C   0  0  0  0  0  0  0  0  0  0  0  0
   -0.4575   -0.7123   -2.4533 H   0  0  0  0  0  0  0  0  0  0  0  0
   -1.3539    0.4877   -1.5169 H   0  0  0  0  0  0  0  0  0  0  0  0
    0.7337    0.8175   -1.6091 C   0  0  0  0  0  0  0  0  0  0  0  0
    1.8217    0.9711   -0.7765 C   0  0  0  0  0  0  0  0  0  0  0  0
    2.0438    0.3909    0.1156 H   0  0  0  0  0  0  0  0  0  0  0  0
    2.6072    2.0029   -1.2832 N   0  0  0  0  0  0  0  0  0  0  0  0
    3.4692    2.3409   -0.8604 H   0  0  0  0  0  0  0  0  0  0  0  0
    2.0424    2.5222   -2.4338 C   0  0  0  0  0  0  0  0  0  0  0  0
    2.4451    3.5510   -3.2851 C   0  0  0  0  0  0  0  0  0  0  0  0
    3.3579    4.1003   -3.0832 H   0  0  0  0  0  0  0  0  0  0  0  0
    1.6554    3.8626   -4.4006 C   0  0  0  0  0  0  0  0  0  0  0  0
    1.9571    4.6613   -5.0717 H   0  0  0  0  0  0  0  0  0  0  0  0
    0.4766    3.1437   -4.6503 C   0  0  0  0  0  0  0  0  0  0  0  0
   -0.1318    3.3868   -5.5161 H   0  0  0  0  0  0  0  0  0  0  0  0
    0.0816    2.1129   -3.7854 C   0  0  0  0  0  0  0  0  0  0  0  0
   -0.8294    1.5564   -3.9763 H   0  0  0  0  0  0  0  0  0  0  0  0
    0.8745    1.8084   -2.6729 C   0  0  0  0  0  0  0  0  0  0  0  0
   -0.4982   -0.3669    1.0248 C   0  0  0  0  0  0  0  0  0  0  0  0
    0.5037   -0.3582    1.7295 O   0  0  0  0  0  0  0  0  0  0  0  0
   -1.6233    0.3168    1.4524 N   0  0  0  0  0  0  0  0  0  0  0  0
   -2.4661    0.1984    0.9013 H   0  0  0  0  0  0  0  0  0  0  0  0
   -1.7181    0.9512    2.7606 C   0  0  0  0  0  0  0  0  0  0  0  0
   -0.9451    1.7191    2.8709 H   0  0  0  0  0  0  0  0  0  0  0  0
   -2.6957    1.4273    2.8796 H   0  0  0  0  0  0  0  0  0  0  0  0
   -1.5942    0.2077    3.5551 H   0  0  0  0  0  0  0  0  0  0  0  0
  1  2  1  0  0  0  0
  2  3  1  0  0  0  0
  2  4  1  0  0  0  0
  2  5  1  0  0  0  0
  5  6  2  0  0  0  0
  5  7  1  0  0  0  0
  7  8  1  0  0  0  0
  7  9  1  0  0  0  0
  9 10  1  0  0  0  0
  9 11  1  0  0  0  0
  9 29  1  0  0  0  0
 11 12  1  0  0  0  0
 11 13  1  0  0  0  0
 11 14  1  0  0  0  0
 14 15  2  0  0  0  0
 14 28  1  0  0  0  0
 15 16  1  0  0  0  0
 15 17  1  0  0  0  0
 17 18  1  0  0  0  0
 17 19  1  0  0  0  0
 19 20  1  0  0  0  0
 19 28  2  0  0  0  0
 20 21  1  0  0  0  0
 20 22  2  0  0  0  0
 22 23  1  0  0  0  0
 22 24  1  0  0  0  0
 24 25  1  0  0  0  0
 24 26  2  0  0  0  0
 26 27  1  0  0  0  0
 26 28  1  0  0  0  0
 29 30  2  0  0  0  0
 29 31  1  0  0  0  0
 31 32  1  0  0  0  0
 31 33  1  0  0  0  0
 33 34  1  0  0  0  0
 33 35  1  0  0  0  0
 33 36  1  0  0  0  0
M  END
$$$$

  -OEChem-03222214083D

 36 37  0     1  0  0  0  0  0999 V2000
   -3.5326   -4.5211    0.7478 H   0  0  0  0  0  0  0  0  0  0  0  0
   -3.4156   -3.7192    0.0130 C   0  0  0  0  0  0  0  0  0  0  0  0
   -4.2868   -3.0623    0.0690 H   0  0  0  0  0  0  0  0  0  0  0  0
   -3.3629   -4.1625   -0.9843 H   0  0  0  0  0  0  0  0  0  0  0  0
   -2.1514   -2.9308    0.3003 C   0  0  0  0  0  0  0  0  0  0  0  0
   -1.4656   -3.2172    1.2636 O   0  0  0  0  0  0  0  0  0  0  0  0
   -1.7837   -1.8960   -0.5371 N   0  0  0  0  0  0  0  0  0  0  0  0
   -2.3501   -1.7579   -1.3679 H   0  0  0  0  0  0  0  0  0  0  0  0
   -0.5542   -1.0917   -0.3809 C   0  0  1  0  0  0  0  0  0  0  0  0
    0.3187   -1.7513   -0.4353 H   0  0  0  0  0  0  0  0  0  0  0  0
   -0.5274   -0.1165   -1.5757 C   0  0  0  0  0  0  0  0  0  0  0  0
   -0.5500   -0.6934   -2.5056 H   0  0  0  0  0  0  0  0  0  0  0  0
   -1.4371    0.4917   -1.5407 H   0  0  0  0  0  0  0  0  0  0  0  0
    0.6520    0.8268   -1.6461 C   0  0  0  0  0  0  0  0  0  0  0  0
    1.8504    0.7772   -0.9688 C   0  0  0  0  0  0  0  0  0  0  0  0
    2.1445    0.0235   -0.2402 H   0  0  0  0  0  0  0  0  0  0  0  0
    2.6153    1.8679   -1.3733 N   0  0  0  0  0  0  0  0  0  0  0  0
    3.5377    2.0992   -1.0106 H   0  0  0  0  0  0  0  0  0  0  0  0
    1.9283    2.6204   -2.3096 C   0  0  0  0  0  0  0  0  0  0  0  0
    2.2681    3.7851   -2.9979 C   0  0  0  0  0  0  0  0  0  0  0  0
    3.2293    4.2579   -2.8296 H   0  0  0  0  0  0  0  0  0  0  0  0
    1.3526    4.3327   -3.9076 C   0  0  0  0  0  0  0  0  0  0  0  0
    1.6044    5.2389   -4.4506 H   0  0  0  0  0  0  0  0  0  0  0  0
    0.1120    3.7109   -4.1171 C   0  0  0  0  0  0  0  0  0  0  0  0
   -0.5945    4.1372   -4.8229 H   0  0  0  0  0  0  0  0  0  0  0  0
   -0.2185    2.5411   -3.4176 C   0  0  0  0  0  0  0  0  0  0  0  0
   -1.1764    2.0585   -3.5776 H   0  0  0  0  0  0  0  0  0  0  0  0
    0.6998    2.0018   -2.5102 C   0  0  0  0  0  0  0  0  0  0  0  0
   -0.4918   -0.3460    0.9762 C   0  0  0  0  0  0  0  0  0  0  0  0
    0.5527   -0.3010    1.6151 O   0  0  0  0  0  0  0  0  0  0  0  0
   -1.6037    0.3250    1.4546 N   0  0  0  0  0  0  0  0  0  0  0  0
   -2.4735    0.1848    0.9532 H   0  0  0  0  0  0  0  0  0  0  0  0
   -1.6319    0.9977    2.7466 C   0  0  0  0  0  0  0  0  0  0  0  0
   -0.8604    1.7736    2.7915 H   0  0  0  0  0  0  0  0  0  0  0  0
   -2.6054    1.4709    2.9053 H   0  0  0  0  0  0  0  0  0  0  0  0
   -1.4579    0.2801    3.5554 H   0  0  0  0  0  0  0  0  0  0  0  0
  1  2  1  0  0  0  0
  2  3  1  0  0  0  0
  2  4  1  0  0  0  0
  2  5  1  0  0  0  0
  5  6  2  0  0  0  0
  5  7  1  0  0  0  0
  7  8  1  0  0  0  0
  7  9  1  0  0  0  0
  9 10  1  0  0  0  0
  9 11  1  0  0  0  0
  9 29  1  0  0  0  0
 11 12  1  0  0  0  0
 11 13  1  0  0  0  0
 11 14  1  0  0  0  0
 14 15  2  0  0  0  0
 14 28  1  0  0  0  0
 15 16  1  0  0  0  0
 15 17  1  0  0  0  0
 17 18  1  0  0  0  0
 17 19  1  0  0  0  0
 19 20  1  0  0  0  0
 19 28  2  0  0  0  0
 20 21  1  0  0  0  0
 20 22  2  0  0  0  0
 22 23  1  0  0  0  0
 22 24  1  0  0  0  0
 24 25  1  0  0  0  0
 24 26  2  0  0  0  0
 26 27  1  0  0  0  0
 26 28  1  0  0  0  0
 29 30  2  0  0  0  0
 29 31  1  0  0  0  0
 31 32  1  0  0  0  0
 31 33  1  0  0  0  0
 33 34  1  0  0  0  0
 33 35  1  0  0  0  0
 33 36  1  0  0  0  0
M  END
$$$$

  -OEChem-03222214083D

 36 37  0     1  0  0  0  0  0999 V2000
   -3.4685   -4.5675    0.7880 H   0  0  0  0  0  0  0  0  0  0  0  0
   -3.3824   -3.7685    0.0460 C   0  0  0  0  0  0  0  0  0  0  0  0
   -4.2681   -3.1322    0.1106 H   0  0  0  0  0  0  0  0  0  0  0  0
   -3.3344   -4.2174   -0.9489 H   0  0  0  0  0  0  0  0  0  0  0  0
   -2.1334   -2.9480    0.3068 C   0  0  0  0  0  0  0  0  0  0  0  0
   -1.4179   -3.2174    1.2534 O   0  0  0  0  0  0  0  0  0  0  0  0
   -1.8120   -1.9038   -0.5373 N   0  0  0  0  0  0  0  0  0  0  0  0
   -2.4003   -1.7789   -1.3551 H   0  0  0  0  0  0  0  0  0  0  0  0
   -0.5971   -1.0745   -0.4096 C   0  0  1  0  0  0  0  0  0  0  0  0
    0.2790   -1.7278   -0.4827 H   0  0  0  0  0  0  0  0  0  0  0  0
   -0.5965   -0.1065   -1.6085 C   0  0  0  0  0  0  0  0  0  0  0  0
   -0.6198   -0.6783   -2.5414 H   0  0  0  0  0  0  0  0  0  0  0  0
   -1.5114    0.4922   -1.5622 H   0  0  0  0  0  0  0  0  0  0  0  0
    0.5795    0.8391   -1.6628 C   0  0  0  0  0  0  0  0  0  0  0  0
    1.8565    0.6298   -1.1930 C   0  0  0  0  0  0  0  0  0  0  0  0
    2.2024   -0.2555   -0.6620 H   0  0  0  0  0  0  0  0  0  0  0  0
    2.6093    1.7627   -1.4888 N   0  0  0  0  0  0  0  0  0  0  0  0
    3.5778    1.9080   -1.2122 H   0  0  0  0  0  0  0  0  0  0  0  0
    1.8352    2.6978   -2.1540 C   0  0  0  0  0  0  0  0  0  0  0  0
    2.1346    3.9665   -2.6499 C   0  0  0  0  0  0  0  0  0  0  0  0
    3.1327    4.3748   -2.5365 H   0  0  0  0  0  0  0  0  0  0  0  0
    1.1310    4.7018   -3.2959 C   0  0  0  0  0  0  0  0  0  0  0  0
    1.3510    5.6906   -3.6872 H   0  0  0  0  0  0  0  0  0  0  0  0
   -0.1561    4.1610   -3.4376 C   0  0  0  0  0  0  0  0  0  0  0  0
   -0.9310    4.7334   -3.9385 H   0  0  0  0  0  0  0  0  0  0  0  0
   -0.4455    2.8849   -2.9328 C   0  0  0  0  0  0  0  0  0  0  0  0
   -1.4400    2.4663   -3.0400 H   0  0  0  0  0  0  0  0  0  0  0  0
    0.5610    2.1578   -2.2874 C   0  0  0  0  0  0  0  0  0  0  0  0
   -0.4894   -0.3206    0.9384 C   0  0  0  0  0  0  0  0  0  0  0  0
    0.5861   -0.2494    1.5210 O   0  0  0  0  0  0  0  0  0  0  0  0
   -1.5884    0.3391    1.4601 N   0  0  0  0  0  0  0  0  0  0  0  0
   -2.4786    0.1807    1.0019 H   0  0  0  0  0  0  0  0  0  0  0  0
   -1.5643    1.0329    2.7409 C   0  0  0  0  0  0  0  0  0  0  0  0
   -0.7974    1.8147    2.7388 H   0  0  0  0  0  0  0  0  0  0  0  0
   -2.5332    1.5023    2.9347 H   0  0  0  0  0  0  0  0  0  0  0  0
   -1.3494    0.3298    3.5525 H   0  0  0  0  0  0  0  0  0  0  0  0
  1  2  1  0  0  0  0
  2  3  1  0  0  0  0
  2  4  1  0  0  0  0
  2  5  1  0  0  0  0
  5  6  2  0  0  0  0
  5  7  1  0  0  0  0
  7  8  1  0  0  0  0
  7  9  1  0  0  0  0
  9 10  1  0  0  0  0
  9 11  1  0  0  0  0
  9 29  1  0  0  0  0
 11 12  1  0  0  0  0
 11 13  1  0  0  0  0
 11 14  1  0  0  0  0
 14 15  2  0  0  0  0
 14 28  1  0  0  0  0
 15 16  1  0  0  0  0
 15 17  1  0  0  0  0
 17 18  1  0  0  0  0
 17 19  1  0  0  0  0
 19 20  1  0  0  0  0
 19 28  2  0  0  0  0
 20 21  1  0  0  0  0
 20 22  2  0  0  0  0
 22 23  1  0  0  0  0
 22 24  1  0  0  0  0
 24 25  1  0  0  0  0
 24 26  2  0  0  0  0
 26 27  1  0  0  0  0
 26 28  1  0  0  0  0
 29 30  2  0  0  0  0
 29 31  1  0  0  0  0
 31 32  1  0  0  0  0
 31 33  1  0  0  0  0
 33 34  1  0  0  0  0
 33 35  1  0  0  0  0
 33 36  1  0  0  0  0
M  END
$$$$

  -OEChem-03222214083D

 36 37  0     1  0  0  0  0  0999 V2000
   -3.4176   -4.5882    0.8355 H   0  0  0  0  0  0  0  0  0  0  0  0
   -3.3553   -3.7932    0.0869 C   0  0  0  0  0  0  0  0  0  0  0  0
   -4.2480   -3.1679    0.1634 H   0  0  0  0  0  0  0  0  0  0  0  0
   -3.3201   -4.2487   -0.9057 H   0  0  0  0  0  0  0  0  0  0  0  0
   -2.1129   -2.9547    0.3198 C   0  0  0  0  0  0  0  0  0  0  0  0
   -1.3796   -3.2063    1.2577 O   0  0  0  0  0  0  0  0  0  0  0  0
   -1.8199   -1.9123   -0.5367 N   0  0  0  0  0  0  0  0  0  0  0  0
   -2.4278   -1.7963   -1.3413 H   0  0  0  0  0  0  0  0  0  0  0  0
   -0.6157   -1.0642   -0.4338 C   0  0  1  0  0  0  0  0  0  0  0  0
    0.2656   -1.7096   -0.5099 H   0  0  0  0  0  0  0  0  0  0  0  0
   -0.6347   -0.1115   -1.6431 C   0  0  0  0  0  0  0  0  0  0  0  0
   -0.6492   -0.6927   -2.5702 H   0  0  0  0  0  0  0  0  0  0  0  0
   -1.5567    0.4759   -1.6060 H   0  0  0  0  0  0  0  0  0  0  0  0
    0.5390    0.8349   -1.6909 C   0  0  0  0  0  0  0  0  0  0  0  0
    1.8611    0.5227   -1.4738 C   0  0  0  0  0  0  0  0  0  0  0  0
    2.2445   -0.4559   -1.1920 H   0  0  0  0  0  0  0  0  0  0  0  0
    2.6053    1.6867   -1.6454 N   0  0  0  0  0  0  0  0  0  0  0  0
    3.6074    1.7681   -1.4883 H   0  0  0  0  0  0  0  0  0  0  0  0
    1.7770    2.7450   -1.9785 C   0  0  0  0  0  0  0  0  0  0  0  0
    2.0496    4.0873   -2.2422 C   0  0  0  0  0  0  0  0  0  0  0  0
    3.0685    4.4557   -2.1996 H   0  0  0  0  0  0  0  0  0  0  0  0
    0.9916    4.9494   -2.5626 C   0  0  0  0  0  0  0  0  0  0  0  0
    1.1896    5.9967   -2.7703 H   0  0  0  0  0  0  0  0  0  0  0  0
   -0.3224    4.4603   -2.6141 C   0  0  0  0  0  0  0  0  0  0  0  0
   -1.1400    5.1303   -2.8620 H   0  0  0  0  0  0  0  0  0  0  0  0
   -0.5845    3.1096   -2.3435 C   0  0  0  0  0  0  0  0  0  0  0  0
   -1.6006    2.7330   -2.3800 H   0  0  0  0  0  0  0  0  0  0  0  0
    0.4765    2.2547   -2.0232 C   0  0  0  0  0  0  0  0  0  0  0  0
   -0.4861   -0.2930    0.9012 C   0  0  0  0  0  0  0  0  0  0  0  0
    0.6026   -0.2021    1.4554 O   0  0  0  0  0  0  0  0  0  0  0  0
   -1.5801    0.3610    1.4403 N   0  0  0  0  0  0  0  0  0  0  0  0
   -2.4795    0.1827    1.0084 H   0  0  0  0  0  0  0  0  0  0  0  0
   -1.5328    1.0650    2.7148 C   0  0  0  0  0  0  0  0  0  0  0  0
   -0.7681    1.8487    2.6913 H   0  0  0  0  0  0  0  0  0  0  0  0
   -2.4989    1.5336    2.9247 H   0  0  0  0  0  0  0  0  0  0  0  0
   -1.2994    0.3687    3.5271 H   0  0  0  0  0  0  0  0  0  0  0  0
  1  2  1  0  0  0  0
  2  3  1  0  0  0  0
  2  4  1  0  0  0  0
  2  5  1  0  0  0  0
  5  6  2  0  0  0  0
  5  7  1  0  0  0  0
  7  8  1  0  0  0  0
  7  9  1  0  0  0  0
  9 10  1  0  0  0  0
  9 11  1  0  0  0  0
  9 29  1  0  0  0  0
 11 12  1  0  0  0  0
 11 13  1  0  0  0  0
 11 14  1  0  0  0  0
 14 15  2  0  0  0  0
 14 28  1  0  0  0  0
 15 16  1  0  0  0  0
 15 17  1  0  0  0  0
 17 18  1  0  0  0  0
 17 19  1  0  0  0  0
 19 20  1  0  0  0  0
 19 28  2  0  0  0  0
 20 21  1  0  0  0  0
 20 22  2  0  0  0  0
 22 23  1  0  0  0  0
 22 24  1  0  0  0  0
 24 25  1  0  0  0  0
 24 26  2  0  0  0  0
 26 27  1  0  0  0  0
 26 28  1  0  0  0  0
 29 30  2  0  0  0  0
 29 31  1  0  0  0  0
 31 32  1  0  0  0  0
 31 33  1  0  0  0  0
 33 34  1  0  0  0  0
 33 35  1  0  0  0  0
 33 36  1  0  0  0  0
M  END
$$$$

  -OEChem-03222214083D

 36 37  0     1  0  0  0  0  0999 V2000
   -3.3797   -4.5898    0.8780 H   0  0  0  0  0  0  0  0  0  0  0  0
   -3.3295   -3.8032    0.1198 C   0  0  0  0  0  0  0  0  0  0  0  0
   -4.2271   -3.1849    0.1950 H   0  0  0  0  0  0  0  0  0  0  0  0
   -3.2964   -4.2700   -0.8675 H   0  0  0  0  0  0  0  0  0  0  0  0
   -2.0922   -2.9522    0.3353 C   0  0  0  0  0  0  0  0  0  0  0  0
   -1.3473   -3.1921    1.2669 O   0  0  0  0  0  0  0  0  0  0  0  0
   -1.8133   -1.9168   -0.5344 N   0  0  0  0  0  0  0  0  0  0  0  0
   -2.4309   -1.8104   -1.3328 H   0  0  0  0  0  0  0  0  0  0  0  0
   -0.6159   -1.0567   -0.4497 C   0  0  1  0  0  0  0  0  0  0  0  0
    0.2735   -1.6912   -0.5259 H   0  0  0  0  0  0  0  0  0  0  0  0
   -0.6566   -0.1158   -1.6662 C   0  0  0  0  0  0  0  0  0  0  0  0
   -0.6611   -0.7111   -2.5844 H   0  0  0  0  0  0  0  0  0  0  0  0
   -1.5851    0.4617   -1.6428 H   0  0  0  0  0  0  0  0  0  0  0  0
    0.5130    0.8323   -1.7182 C   0  0  0  0  0  0  0  0  0  0  0  0
    1.8397    0.4798   -1.7896 C   0  0  0  0  0  0  0  0  0  0  0  0
    2.2267   -0.5365   -1.7883 H   0  0  0  0  0  0  0  0  0  0  0  0
    2.5865    1.6534   -1.8403 N   0  0  0  0  0  0  0  0  0  0  0  0
    3.6028    1.7018   -1.8385 H   0  0  0  0  0  0  0  0  0  0  0  0
    1.7523    2.7580   -1.8017 C   0  0  0  0  0  0  0  0  0  0  0  0
    2.0280    4.1248   -1.8221 C   0  0  0  0  0  0  0  0  0  0  0  0
    3.0532    4.4734   -1.8773 H   0  0  0  0  0  0  0  0  0  0  0  0
    0.9651    5.0370   -1.7706 C   0  0  0  0  0  0  0  0  0  0  0  0
    1.1657    6.1040   -1.7865 H   0  0  0  0  0  0  0  0  0  0  0  0
   -0.3567    4.5723   -1.6957 C   0  0  0  0  0  0  0  0  0  0  0  0
   -1.1778    5.2813   -1.6536 H   0  0  0  0  0  0  0  0  0  0  0  0
   -0.6212    3.1952   -1.6717 C   0  0  0  0  0  0  0  0  0  0  0  0
   -1.6427    2.8372   -1.6080 H   0  0  0  0  0  0  0  0  0  0  0  0
    0.4450    2.2899   -1.7271 C   0  0  0  0  0  0  0  0  0  0  0  0
   -0.4834   -0.2685    0.8752 C   0  0  0  0  0  0  0  0  0  0  0  0
    0.6071   -0.1587    1.4218 O   0  0  0  0  0  0  0  0  0  0  0  0
   -1.5809    0.3815    1.4128 N   0  0  0  0  0  0  0  0  0  0  0  0
   -2.4821    0.1802    0.9953 H   0  0  0  0  0  0  0  0  0  0  0  0
   -1.5312    1.1025    2.6777 C   0  0  0  0  0  0  0  0  0  0  0  0
   -0.7681    1.8872    2.6406 H   0  0  0  0  0  0  0  0  0  0  0  0
   -2.4974    1.5719    2.8853 H   0  0  0  0  0  0  0  0  0  0  0  0
   -1.2933    0.4176    3.4983 H   0  0  0  0  0  0  0  0  0  0  0  0
  1  2  1  0  0  0  0
  2  3  1  0  0  0  0
  2  4  1  0  0  0  0
  2  5  1  0  0  0  0
  5  6  2  0  0  0  0
  5  7  1  0  0  0  0
  7  8  1  0  0  0  0
  7  9  1  0  0  0  0
  9 10  1  0  0  0  0
  9 11  1  0  0  0  0
  9 29  1  0  0  0  0
 11 12  1  0  0  0  0
 11 13  1  0  0  0  0
 11 14  1  0  0  0  0
 14 15  2  0  0  0  0
 14 28  1  0  0  0  0
 15 16  1  0  0  0  0
 15 17  1  0  0  0  0
 17 18  1  0  0  0  0
 17 19  1  0  0  0  0
 19 20  1  0  0  0  0
 19 28  2  0  0  0  0
 20 21  1  0  0  0  0
 20 22  2  0  0  0  0
 22 23  1  0  0  0  0
 22 24  1  0  0  0  0
 24 25  1  0  0  0  0
 24 26  2  0  0  0  0
 26 27  1  0  0  0  0
 26 28  1  0  0  0  0
 29 30  2  0  0  0  0
 29 31  1  0  0  0  0
 31 32  1  0  0  0  0
 31 33  1  0  0  0  0
 33 34  1  0  0  0  0
 33 35  1  0  0  0  0
 33 36  1  0  0  0  0
M  END
$$$$

  -OEChem-03222214083D

 36 37  0     1  0  0  0  0  0999 V2000
   -3.3697   -4.5755    0.9144 H   0  0  0  0  0  0  0  0  0  0  0  0
   -3.3101   -3.8079    0.1374 C   0  0  0  0  0  0  0  0  0  0  0  0
   -4.2154   -3.1975    0.1771 H   0  0  0  0  0  0  0  0  0  0  0  0
   -3.2510   -4.2993   -0.8366 H   0  0  0  0  0  0  0  0  0  0  0  0
   -2.0860   -2.9384    0.3569 C   0  0  0  0  0  0  0  0  0  0  0  0
   -1.3533   -3.1530    1.3040 O   0  0  0  0  0  0  0  0  0  0  0  0
   -1.8078   -1.9153   -0.5276 N   0  0  0  0  0  0  0  0  0  0  0  0
   -2.4117   -1.8385   -1.3397 H   0  0  0  0  0  0  0  0  0  0  0  0
   -0.6106   -1.0532   -0.4571 C   0  0  1  0  0  0  0  0  0  0  0  0
    0.2833   -1.6814   -0.5332 H   0  0  0  0  0  0  0  0  0  0  0  0
   -0.6697   -0.1205   -1.6793 C   0  0  0  0  0  0  0  0  0  0  0  0
   -0.6740   -0.7287   -2.5891 H   0  0  0  0  0  0  0  0  0  0  0  0
   -1.6005    0.4544   -1.6646 H   0  0  0  0  0  0  0  0  0  0  0  0
    0.4972    0.8285   -1.7468 C   0  0  0  0  0  0  0  0  0  0  0  0
    1.7822    0.5102   -2.1156 C   0  0  0  0  0  0  0  0  0  0  0  0
    2.1347   -0.4795   -2.3963 H   0  0  0  0  0  0  0  0  0  0  0  0
    2.5404    1.6767   -2.0516 N   0  0  0  0  0  0  0  0  0  0  0  0
    3.5416    1.7372   -2.2220 H   0  0  0  0  0  0  0  0  0  0  0  0
    1.7569    2.7394   -1.6320 C   0  0  0  0  0  0  0  0  0  0  0  0
    2.0607    4.0818   -1.4042 C   0  0  0  0  0  0  0  0  0  0  0  0
    3.0687    4.4478   -1.5639 H   0  0  0  0  0  0  0  0  0  0  0  0
    1.0491    4.9460   -0.9622 C   0  0  0  0  0  0  0  0  0  0  0  0
    1.2730    5.9925   -0.7786 H   0  0  0  0  0  0  0  0  0  0  0  0
   -0.2494    4.4583   -0.7500 C   0  0  0  0  0  0  0  0  0  0  0  0
   -1.0284    5.1287   -0.4007 H   0  0  0  0  0  0  0  0  0  0  0  0
   -0.5424    3.1066   -0.9808 C   0  0  0  0  0  0  0  0  0  0  0  0
   -1.5422    2.7253   -0.8061 H   0  0  0  0  0  0  0  0  0  0  0  0
    0.4709    2.2516   -1.4285 C   0  0  0  0  0  0  0  0  0  0  0  0
   -0.4786   -0.2466    0.8572 C   0  0  0  0  0  0  0  0  0  0  0  0
    0.6108   -0.1258    1.4027 O   0  0  0  0  0  0  0  0  0  0  0  0
   -1.5776    0.4094    1.3850 N   0  0  0  0  0  0  0  0  0  0  0  0
   -2.4794    0.1947    0.9755 H   0  0  0  0  0  0  0  0  0  0  0  0
   -1.5227    1.1697    2.6265 C   0  0  0  0  0  0  0  0  0  0  0  0
   -0.7791    1.9704    2.5519 H   0  0  0  0  0  0  0  0  0  0  0  0
   -2.4960    1.6224    2.8372 H   0  0  0  0  0  0  0  0  0  0  0  0
   -1.2539    0.5157    3.4627 H   0  0  0  0  0  0  0  0  0  0  0  0
  1  2  1  0  0  0  0
  2  3  1  0  0  0  0
  2  4  1  0  0  0  0
  2  5  1  0  0  0  0
  5  6  2  0  0  0  0
  5  7  1  0  0  0  0
  7  8  1  0  0  0  0
  7  9  1  0  0  0  0
  9 10  1  0  0  0  0
  9 11  1  0  0  0  0
  9 29  1  0  0  0  0
 11 12  1  0  0  0  0
 11 13  1  0  0  0  0
 11 14  1  0  0  0  0
 14 15  2  0  0  0  0
 14 28  1  0  0  0  0
 15 16  1  0  0  0  0
 15 17  1  0  0  0  0
 17 18  1  0  0  0  0
 17 19  1  0  0  0  0
 19 20  1  0  0  0  0
 19 28  2  0  0  0  0
 20 21  1  0  0  0  0
 20 22  2  0  0  0  0
 22 23  1  0  0  0  0
 22 24  1  0  0  0  0
 24 25  1  0  0  0  0
 24 26  2  0  0  0  0
 26 27  1  0  0  0  0
 26 28  1  0  0  0  0
 29 30  2  0  0  0  0
 29 31  1  0  0  0  0
 31 32  1  0  0  0  0
 31 33  1  0  0  0  0
 33 34  1  0  0  0  0
 33 35  1  0  0  0  0
 33 36  1  0  0  0  0
M  END
$$$$

  -OEChem-03222214083D

 36 37  0     1  0  0  0  0  0999 V2000
   -3.3700   -4.5952    0.8666 H   0  0  0  0  0  0  0  0  0  0  0  0
   -3.3201   -3.8030    0.1140 C   0  0  0  0  0  0  0  0  0  0  0  0
   -4.2213   -3.1900    0.1895 H   0  0  0  0  0  0  0  0  0  0  0  0
   -3.2801   -4.2628   -0.8763 H   0  0  0  0  0  0  0  0  0  0  0  0
   -2.0882   -2.9468    0.3406 C   0  0  0  0  0  0  0  0  0  0  0  0
   -1.3449   -3.1923    1.2717 O   0  0  0  0  0  0  0  0  0  0  0  0
   -1.8162   -1.8989   -0.5168 N   0  0  0  0  0  0  0  0  0  0  0  0
   -2.4336   -1.7906   -1.3151 H   0  0  0  0  0  0  0  0  0  0  0  0
   -0.6163   -1.0408   -0.4332 C   0  0  1  0  0  0  0  0  0  0  0  0
    0.2749   -1.6713   -0.5219 H   0  0  0  0  0  0  0  0  0  0  0  0
   -0.6625   -0.0927   -1.6460 C   0  0  0  0  0  0  0  0  0  0  0  0
   -0.6685   -0.6937   -2.5606 H   0  0  0  0  0  0  0  0  0  0  0  0
   -1.5883    0.4908   -1.6292 H   0  0  0  0  0  0  0  0  0  0  0  0
    0.5080    0.8536   -1.7011 C   0  0  0  0  0  0  0  0  0  0  0  0
    1.7037    0.6108   -2.3337 C   0  0  0  0  0  0  0  0  0  0  0  0
    1.9753   -0.3114   -2.8420 H   0  0  0  0  0  0  0  0  0  0  0  0
    2.4959    1.7472   -2.1931 N   0  0  0  0  0  0  0  0  0  0  0  0
    3.4554    1.8406   -2.5185 H   0  0  0  0  0  0  0  0  0  0  0  0
    1.8138    2.7253   -1.4883 C   0  0  0  0  0  0  0  0  0  0  0  0
    2.1818    4.0148   -1.1050 C   0  0  0  0  0  0  0  0  0  0  0  0
    3.1632    4.4000   -1.3573 H   0  0  0  0  0  0  0  0  0  0  0  0
    1.2687    4.8018   -0.3895 C   0  0  0  0  0  0  0  0  0  0  0  0
    1.5430    5.8066   -0.0828 H   0  0  0  0  0  0  0  0  0  0  0  0
    0.0026    4.2910   -0.0667 C   0  0  0  0  0  0  0  0  0  0  0  0
   -0.7017    4.9007    0.4904 H   0  0  0  0  0  0  0  0  0  0  0  0
   -0.3545    2.9920   -0.4554 C   0  0  0  0  0  0  0  0  0  0  0  0
   -1.3297    2.5935   -0.1996 H   0  0  0  0  0  0  0  0  0  0  0  0
    0.5627    2.2109   -1.1673 C   0  0  0  0  0  0  0  0  0  0  0  0
   -0.4818   -0.2781    0.9067 C   0  0  0  0  0  0  0  0  0  0  0  0
    0.6075   -0.1719    1.4550 O   0  0  0  0  0  0  0  0  0  0  0  0
   -1.5821    0.3568    1.4580 N   0  0  0  0  0  0  0  0  0  0  0  0
   -2.4846    0.1261    1.0588 H   0  0  0  0  0  0  0  0  0  0  0  0
   -1.5312    1.0467    2.7403 C   0  0  0  0  0  0  0  0  0  0  0  0
   -0.7711    1.8351    2.7202 H   0  0  0  0  0  0  0  0  0  0  0  0
   -2.4985    1.5076    2.9617 H   0  0  0  0  0  0  0  0  0  0  0  0
   -1.2880    0.3430    3.5434 H   0  0  0  0  0  0  0  0  0  0  0  0
  1  2  1  0  0  0  0
  2  3  1  0  0  0  0
  2  4  1  0  0  0  0
  2  5  1  0  0  0  0
  5  6  2  0  0  0  0
  5  7  1  0  0  0  0
  7  8  1  0  0  0  0
  7  9  1  0  0  0  0
  9 10  1  0  0  0  0
  9 11  1  0  0  0  0
  9 29  1  0  0  0  0
 11 12  1  0  0  0  0
 11 13  1  0  0  0  0
 11 14  1  0  0  0  0
 14 15  2  0  0  0  0
 14 28  1  0  0  0  0
 15 16  1  0  0  0  0
 15 17  1  0  0  0  0
 17 18  1  0  0  0  0
 17 19  1  0  0  0  0
 19 20  1  0  0  0  0
 19 28  2  0  0  0  0
 20 21  1  0  0  0  0
 20 22  2  0  0  0  0
 22 23  1  0  0  0  0
 22 24  1  0  0  0  0
 24 25  1  0  0  0  0
 24 26  2  0  0  0  0
 26 27  1  0  0  0  0
 26 28  1  0  0  0  0
 29 30  2  0  0  0  0
 29 31  1  0  0  0  0
 31 32  1  0  0  0  0
 31 33  1  0  0  0  0
 33 34  1  0  0  0  0
 33 35  1  0  0  0  0
 33 36  1  0  0  0  0
M  END
$$$$

  -OEChem-03222214083D

 36 37  0     1  0  0  0  0  0999 V2000
   -3.4391   -4.6136    0.7503 H   0  0  0  0  0  0  0  0  0  0  0  0
   -3.3667   -3.7930    0.0306 C   0  0  0  0  0  0  0  0  0  0  0  0
   -4.2597   -3.1699    0.1183 H   0  0  0  0  0  0  0  0  0  0  0  0
   -3.3193   -4.2136   -0.9767 H   0  0  0  0  0  0  0  0  0  0  0  0
   -2.1257   -2.9650    0.3071 C   0  0  0  0  0  0  0  0  0  0  0  0
   -1.3972   -3.2610    1.2352 O   0  0  0  0  0  0  0  0  0  0  0  0
   -1.8308   -1.8844   -0.5008 N   0  0  0  0  0  0  0  0  0  0  0  0
   -2.4382   -1.7347   -1.3002 H   0  0  0  0  0  0  0  0  0  0  0  0
   -0.6162   -1.0516   -0.3770 C   0  0  1  0  0  0  0  0  0  0  0  0
    0.2634   -1.6974   -0.4739 H   0  0  0  0  0  0  0  0  0  0  0  0
   -0.6225   -0.0781   -1.5736 C   0  0  0  0  0  0  0  0  0  0  0  0
   -0.6404   -0.6634   -2.4983 H   0  0  0  0  0  0  0  0  0  0  0  0
   -1.5363    0.5237   -1.5475 H   0  0  0  0  0  0  0  0  0  0  0  0
    0.5575    0.8614   -1.6178 C   0  0  0  0  0  0  0  0  0  0  0  0
    1.6161    0.7252   -2.4848 C   0  0  0  0  0  0  0  0  0  0  0  0
    1.7645   -0.1027   -3.1741 H   0  0  0  0  0  0  0  0  0  0  0  0
    2.4569    1.8201   -2.3135 N   0  0  0  0  0  0  0  0  0  0  0  0
    3.3416    1.9668   -2.7941 H   0  0  0  0  0  0  0  0  0  0  0  0
    1.9221    2.6920   -1.3815 C   0  0  0  0  0  0  0  0  0  0  0  0
    2.3803    3.9215   -0.9080 C   0  0  0  0  0  0  0  0  0  0  0  0
    3.3215    4.3270   -1.2615 H   0  0  0  0  0  0  0  0  0  0  0  0
    1.6073    4.6245    0.0252 C   0  0  0  0  0  0  0  0  0  0  0  0
    1.9518    5.5818    0.4048 H   0  0  0  0  0  0  0  0  0  0  0  0
    0.3862    4.0935    0.4645 C   0  0  0  0  0  0  0  0  0  0  0  0
   -0.2149    4.6408    1.1837 H   0  0  0  0  0  0  0  0  0  0  0  0
   -0.0606    2.8556   -0.0186 C   0  0  0  0  0  0  0  0  0  0  0  0
   -1.0079    2.4548    0.3189 H   0  0  0  0  0  0  0  0  0  0  0  0
    0.7231    2.1450   -0.9348 C   0  0  0  0  0  0  0  0  0  0  0  0
   -0.4909   -0.3613    1.0018 C   0  0  0  0  0  0  0  0  0  0  0  0
    0.5898   -0.2979    1.5726 O   0  0  0  0  0  0  0  0  0  0  0  0
   -1.5930    0.2562    1.5698 N   0  0  0  0  0  0  0  0  0  0  0  0
   -2.4900    0.0455    1.1472 H   0  0  0  0  0  0  0  0  0  0  0  0
   -1.5658    0.8292    2.9096 C   0  0  0  0  0  0  0  0  0  0  0  0
   -0.7916    1.6005    2.9817 H   0  0  0  0  0  0  0  0  0  0  0  0
   -2.5308    1.2879    3.1450 H   0  0  0  0  0  0  0  0  0  0  0  0
   -1.3585    0.0520    3.6528 H   0  0  0  0  0  0  0  0  0  0  0  0
  1  2  1  0  0  0  0
  2  3  1  0  0  0  0
  2  4  1  0  0  0  0
  2  5  1  0  0  0  0
  5  6  2  0  0  0  0
  5  7  1  0  0  0  0
  7  8  1  0  0  0  0
  7  9  1  0  0  0  0
  9 10  1  0  0  0  0
  9 11  1  0  0  0  0
  9 29  1  0  0  0  0
 11 12  1  0  0  0  0
 11 13  1  0  0  0  0
 11 14  1  0  0  0  0
 14 15  2  0  0  0  0
 14 28  1  0  0  0  0
 15 16  1  0  0  0  0
 15 17  1  0  0  0  0
 17 18  1  0  0  0  0
 17 19  1  0  0  0  0
 19 20  1  0  0  0  0
 19 28  2  0  0  0  0
 20 21  1  0  0  0  0
 20 22  2  0  0  0  0
 22 23  1  0  0  0  0
 22 24  1  0  0  0  0
 24 25  1  0  0  0  0
 24 26  2  0  0  0  0
 26 27  1  0  0  0  0
 26 28  1  0  0  0  0
 29 30  2  0  0  0  0
 29 31  1  0  0  0  0
 31 32  1  0  0  0  0
 31 33  1  0  0  0  0
 33 34  1  0  0  0  0
 33 35  1  0  0  0  0
 33 36  1  0  0  0  0
M  END
$$$$

  -OEChem-03222214083D

 36 37  0     1  0  0  0  0  0999 V2000
   -3.5449   -4.6177    0.6256 H   0  0  0  0  0  0  0  0  0  0  0  0
   -3.4344   -3.7764   -0.0647 C   0  0  0  0  0  0  0  0  0  0  0  0
   -4.3116   -3.1313    0.0253 H   0  0  0  0  0  0  0  0  0  0  0  0
   -3.3777   -4.1652   -1.0842 H   0  0  0  0  0  0  0  0  0  0  0  0
   -2.1763   -2.9945    0.2645 C   0  0  0  0  0  0  0  0  0  0  0  0
   -1.4718   -3.3478    1.1909 O   0  0  0  0  0  0  0  0  0  0  0  0
   -1.8386   -1.8917   -0.4955 N   0  0  0  0  0  0  0  0  0  0  0  0
   -2.4299   -1.6948   -1.2965 H   0  0  0  0  0  0  0  0  0  0  0  0
   -0.6094   -1.0886   -0.3158 C   0  0  1  0  0  0  0  0  0  0  0  0
    0.2595   -1.7499   -0.4040 H   0  0  0  0  0  0  0  0  0  0  0  0
   -0.5585   -0.0933   -1.4969 C   0  0  0  0  0  0  0  0  0  0  0  0
   -0.5842   -0.6668   -2.4290 H   0  0  0  0  0  0  0  0  0  0  0  0
   -1.4620    0.5237   -1.4688 H   0  0  0  0  0  0  0  0  0  0  0  0
    0.6263    0.8497   -1.5407 C   0  0  0  0  0  0  0  0  0  0  0  0
    1.5015    0.8502   -2.6041 C   0  0  0  0  0  0  0  0  0  0  0  0
    1.4920    0.1395   -3.4272 H   0  0  0  0  0  0  0  0  0  0  0  0
    2.3980    1.8977   -2.4374 N   0  0  0  0  0  0  0  0  0  0  0  0
    3.1781    2.1152   -3.0535 H   0  0  0  0  0  0  0  0  0  0  0  0
    2.0636    2.6308   -1.3158 C   0  0  0  0  0  0  0  0  0  0  0  0
    2.6443    3.7857   -0.7926 C   0  0  0  0  0  0  0  0  0  0  0  0
    3.5186    4.2209   -1.2630 H   0  0  0  0  0  0  0  0  0  0  0  0
    2.0777    4.3785    0.3413 C   0  0  0  0  0  0  0  0  0  0  0  0
    2.5191    5.2760    0.7640 H   0  0  0  0  0  0  0  0  0  0  0  0
    0.9332    3.8171    0.9222 C   0  0  0  0  0  0  0  0  0  0  0  0
    0.4864    4.2808    1.7961 H   0  0  0  0  0  0  0  0  0  0  0  0
    0.3621    2.6564    0.3811 C   0  0  0  0  0  0  0  0  0  0  0  0
   -0.5315    2.2514    0.8325 H   0  0  0  0  0  0  0  0  0  0  0  0
    0.9445    2.0380   -0.7333 C   0  0  0  0  0  0  0  0  0  0  0  0
   -0.5258   -0.4626    1.0949 C   0  0  0  0  0  0  0  0  0  0  0  0
    0.5313   -0.4429    1.7106 O   0  0  0  0  0  0  0  0  0  0  0  0
   -1.6416    0.1448    1.6488 N   0  0  0  0  0  0  0  0  0  0  0  0
   -2.5218   -0.0255    1.1755 H   0  0  0  0  0  0  0  0  0  0  0  0
   -1.6705    0.6150    3.0284 C   0  0  0  0  0  0  0  0  0  0  0  0
   -0.8716    1.3432    3.2042 H   0  0  0  0  0  0  0  0  0  0  0  0
   -2.6283    1.0978    3.2440 H   0  0  0  0  0  0  0  0  0  0  0  0
   -1.5392   -0.2241    3.7196 H   0  0  0  0  0  0  0  0  0  0  0  0
  1  2  1  0  0  0  0
  2  3  1  0  0  0  0
  2  4  1  0  0  0  0
  2  5  1  0  0  0  0
  5  6  2  0  0  0  0
  5  7  1  0  0  0  0
  7  8  1  0  0  0  0
  7  9  1  0  0  0  0
  9 10  1  0  0  0  0
  9 11  1  0  0  0  0
  9 29  1  0  0  0  0
 11 12  1  0  0  0  0
 11 13  1  0  0  0  0
 11 14  1  0  0  0  0
 14 15  2  0  0  0  0
 14 28  1  0  0  0  0
 15 16  1  0  0  0  0
 15 17  1  0  0  0  0
 17 18  1  0  0  0  0
 17 19  1  0  0  0  0
 19 20  1  0  0  0  0
 19 28  2  0  0  0  0
 20 21  1  0  0  0  0
 20 22  2  0  0  0  0
 22 23  1  0  0  0  0
 22 24  1  0  0  0  0
 24 25  1  0  0  0  0
 24 26  2  0  0  0  0
 26 27  1  0  0  0  0
 26 28  1  0  0  0  0
 29 30  2  0  0  0  0
 29 31  1  0  0  0  0
 31 32  1  0  0  0  0
 31 33  1  0  0  0  0
 33 34  1  0  0  0  0
 33 35  1  0  0  0  0
 33 36  1  0  0  0  0
M  END
$$$$

  -OEChem-03222214083D

 36 37  0     1  0  0  0  0  0999 V2000
   -3.6872   -4.5906    0.4871 H   0  0  0  0  0  0  0  0  0  0  0  0
   -3.5193   -3.7364   -0.1752 C   0  0  0  0  0  0  0  0  0  0  0  0
   -4.3744   -3.0605   -0.0999 H   0  0  0  0  0  0  0  0  0  0  0  0
   -3.4375   -4.0997   -1.2025 H   0  0  0  0  0  0  0  0  0  0  0  0
   -2.2471   -3.0118    0.2222 C   0  0  0  0  0  0  0  0  0  0  0  0
   -1.5955   -3.4123    1.1678 O   0  0  0  0  0  0  0  0  0  0  0  0
   -1.8376   -1.9082   -0.5004 N   0  0  0  0  0  0  0  0  0  0  0  0
   -2.3882   -1.6741   -1.3200 H   0  0  0  0  0  0  0  0  0  0  0  0
   -0.5917   -1.1498   -0.2503 C   0  0  1  0  0  0  0  0  0  0  0  0
    0.2645   -1.8303   -0.3175 H   0  0  0  0  0  0  0  0  0  0  0  0
   -0.4875   -0.1393   -1.4171 C   0  0  0  0  0  0  0  0  0  0  0  0
   -0.5220   -0.7071   -2.3525 H   0  0  0  0  0  0  0  0  0  0  0  0
   -1.3831    0.4895   -1.3871 H   0  0  0  0  0  0  0  0  0  0  0  0
    0.6962    0.8130   -1.4789 C   0  0  0  0  0  0  0  0  0  0  0  0
    1.3429    0.9846   -2.6842 C   0  0  0  0  0  0  0  0  0  0  0  0
    1.1439    0.4160   -3.5897 H   0  0  0  0  0  0  0  0  0  0  0  0
    2.2946    1.9829   -2.5464 N   0  0  0  0  0  0  0  0  0  0  0  0
    2.9382    2.2949   -3.2703 H   0  0  0  0  0  0  0  0  0  0  0  0
    2.2131    2.5341   -1.2852 C   0  0  0  0  0  0  0  0  0  0  0  0
    2.9360    3.5961   -0.7428 C   0  0  0  0  0  0  0  0  0  0  0  0
    3.7144    4.0823   -1.3198 H   0  0  0  0  0  0  0  0  0  0  0  0
    2.6347    4.0321    0.5507 C   0  0  0  0  0  0  0  0  0  0  0  0
    3.1874    4.8557    0.9928 H   0  0  0  0  0  0  0  0  0  0  0  0
    1.6067    3.4105    1.2682 C   0  0  0  0  0  0  0  0  0  0  0  0
    1.3601    3.7532    2.2683 H   0  0  0  0  0  0  0  0  0  0  0  0
    0.8912    2.3448    0.7036 C   0  0  0  0  0  0  0  0  0  0  0  0
    0.0919    1.9096    1.2824 H   0  0  0  0  0  0  0  0  0  0  0  0
    1.2075    1.8703   -0.5792 C   0  0  0  0  0  0  0  0  0  0  0  0
   -0.5646   -0.5573    1.1742 C   0  0  0  0  0  0  0  0  0  0  0  0
    0.4439   -0.6275    1.8638 O   0  0  0  0  0  0  0  0  0  0  0  0
   -1.6889    0.0744    1.6821 N   0  0  0  0  0  0  0  0  0  0  0  0
   -2.5382   -0.0228    1.1370 H   0  0  0  0  0  0  0  0  0  0  0  0
   -1.8007    0.4714    3.0804 C   0  0  0  0  0  0  0  0  0  0  0  0
   -0.9927    1.1582    3.3535 H   0  0  0  0  0  0  0  0  0  0  0  0
   -2.7545    0.9783    3.2545 H   0  0  0  0  0  0  0  0  0  0  0  0
   -1.7491   -0.4080    3.7310 H   0  0  0  0  0  0  0  0  0  0  0  0
  1  2  1  0  0  0  0
  2  3  1  0  0  0  0
  2  4  1  0  0  0  0
  2  5  1  0  0  0  0
  5  6  2  0  0  0  0
  5  7  1  0  0  0  0
  7  8  1  0  0  0  0
  7  9  1  0  0  0  0
  9 10  1  0  0  0  0
  9 11  1  0  0  0  0
  9 29  1  0  0  0  0
 11 12  1  0  0  0  0
 11 13  1  0  0  0  0
 11 14  1  0  0  0  0
 14 15  2  0  0  0  0
 14 28  1  0  0  0  0
 15 16  1  0  0  0  0
 15 17  1  0  0  0  0
 17 18  1  0  0  0  0
 17 19  1  0  0  0  0
 19 20  1  0  0  0  0
 19 28  2  0  0  0  0
 20 21  1  0  0  0  0
 20 22  2  0  0  0  0
 22 23  1  0  0  0  0
 22 24  1  0  0  0  0
 24 25  1  0  0  0  0
 24 26  2  0  0  0  0
 26 27  1  0  0  0  0
 26 28  1  0  0  0  0
 29 30  2  0  0  0  0
 29 31  1  0  0  0  0
 31 32  1  0  0  0  0
 31 33  1  0  0  0  0
 33 34  1  0  0  0  0
 33 35  1  0  0  0  0
 33 36  1  0  0  0  0
M  END
$$$$

  -OEChem-03222214083D

 36 37  0     1  0  0  0  0  0999 V2000
   -3.7480   -4.6089    0.3724 H   0  0  0  0  0  0  0  0  0  0  0  0
   -3.5486   -3.7358   -0.2556 C   0  0  0  0  0  0  0  0  0  0  0  0
   -4.3840   -3.0381   -0.1617 H   0  0  0  0  0  0  0  0  0  0  0  0
   -3.4680   -4.0628   -1.2949 H   0  0  0  0  0  0  0  0  0  0  0  0
   -2.2596   -3.0646    0.1803 C   0  0  0  0  0  0  0  0  0  0  0  0
   -1.6381   -3.5111    1.1252 O   0  0  0  0  0  0  0  0  0  0  0  0
   -1.8011   -1.9586   -0.5090 N   0  0  0  0  0  0  0  0  0  0  0  0
   -2.3368   -1.6780   -1.3236 H   0  0  0  0  0  0  0  0  0  0  0  0
   -0.5530   -1.2255   -0.1989 C   0  0  1  0  0  0  0  0  0  0  0  0
    0.3003   -1.9105   -0.2557 H   0  0  0  0  0  0  0  0  0  0  0  0
   -0.4302   -0.2006   -1.3530 C   0  0  0  0  0  0  0  0  0  0  0  0
   -0.4568   -0.7690   -2.2889 H   0  0  0  0  0  0  0  0  0  0  0  0
   -1.3343    0.4165   -1.3234 H   0  0  0  0  0  0  0  0  0  0  0  0
    0.7293    0.7842   -1.4472 C   0  0  0  0  0  0  0  0  0  0  0  0
    1.1123    1.1654   -2.7165 C   0  0  0  0  0  0  0  0  0  0  0  0
    0.7160    0.7529   -3.6414 H   0  0  0  0  0  0  0  0  0  0  0  0
    2.0973    2.1334   -2.6236 N   0  0  0  0  0  0  0  0  0  0  0  0
    2.5807    2.5691   -3.4061 H   0  0  0  0  0  0  0  0  0  0  0  0
    2.2973    2.4642   -1.3021 C   0  0  0  0  0  0  0  0  0  0  0  0
    3.1541    3.4307   -0.7769 C   0  0  0  0  0  0  0  0  0  0  0  0
    3.8046    4.0019   -1.4298 H   0  0  0  0  0  0  0  0  0  0  0  0
    3.1527    3.6606    0.6005 C   0  0  0  0  0  0  0  0  0  0  0  0
    3.8123    4.4072    1.0324 H   0  0  0  0  0  0  0  0  0  0  0  0
    2.2815    2.9344    1.4184 C   0  0  0  0  0  0  0  0  0  0  0  0
    2.2609    3.1192    2.4882 H   0  0  0  0  0  0  0  0  0  0  0  0
    1.4274    1.9681    0.8675 C   0  0  0  0  0  0  0  0  0  0  0  0
    0.7554    1.4690    1.5455 H   0  0  0  0  0  0  0  0  0  0  0  0
    1.4437    1.6886   -0.5105 C   0  0  0  0  0  0  0  0  0  0  0  0
   -0.5692   -0.6515    1.2310 C   0  0  0  0  0  0  0  0  0  0  0  0
    0.3690   -0.8575    1.9903 O   0  0  0  0  0  0  0  0  0  0  0  0
   -1.6939   -0.0014    1.7109 N   0  0  0  0  0  0  0  0  0  0  0  0
   -2.5092   -0.0046    1.1086 H   0  0  0  0  0  0  0  0  0  0  0  0
   -1.8608    0.3532    3.1146 C   0  0  0  0  0  0  0  0  0  0  0  0
   -1.0456    1.0046    3.4468 H   0  0  0  0  0  0  0  0  0  0  0  0
   -2.8059    0.8844    3.2609 H   0  0  0  0  0  0  0  0  0  0  0  0
   -1.8678   -0.5478    3.7372 H   0  0  0  0  0  0  0  0  0  0  0  0
  1  2  1  0  0  0  0
  2  3  1  0  0  0  0
  2  4  1  0  0  0  0
  2  5  1  0  0  0  0
  5  6  2  0  0  0  0
  5  7  1  0  0  0  0
  7  8  1  0  0  0  0
  7  9  1  0  0  0  0
  9 10  1  0  0  0  0
  9 11  1  0  0  0  0
  9 29  1  0  0  0  0
 11 12  1  0  0  0  0
 11 13  1  0  0  0  0
 11 14  1  0  0  0  0
 14 15  2  0  0  0  0
 14 28  1  0  0  0  0
 15 16  1  0  0  0  0
 15 17  1  0  0  0  0
 17 18  1  0  0  0  0
 17 19  1  0  0  0  0
 19 20  1  0  0  0  0
 19 28  2  0  0  0  0
 20 21  1  0  0  0  0
 20 22  2  0  0  0  0
 22 23  1  0  0  0  0
 22 24  1  0  0  0  0
 24 25  1  0  0  0  0
 24 26  2  0  0  0  0
 26 27  1  0  0  0  0
 26 28  1  0  0  0  0
 29 30  2  0  0  0  0
 29 31  1  0  0  0  0
 31 32  1  0  0  0  0
 31 33  1  0  0  0  0
 33 34  1  0  0  0  0
 33 35  1  0  0  0  0
 33 36  1  0  0  0  0
M  END
$$$$

  -OEChem-03222214083D

 36 37  0     1  0  0  0  0  0999 V2000
   -3.6046   -4.6163    0.5231 H   0  0  0  0  0  0  0  0  0  0  0  0
   -3.4170   -3.7713   -0.1458 C   0  0  0  0  0  0  0  0  0  0  0  0
   -4.2818   -3.1042   -0.1189 H   0  0  0  0  0  0  0  0  0  0  0  0
   -3.2870   -4.1509   -1.1619 H   0  0  0  0  0  0  0  0  0  0  0  0
   -2.1711   -3.0258    0.2946 C   0  0  0  0  0  0  0  0  0  0  0  0
   -1.5586   -3.4072    1.2732 O   0  0  0  0  0  0  0  0  0  0  0  0
   -1.7277   -1.9457   -0.4451 N   0  0  0  0  0  0  0  0  0  0  0  0
   -2.2391   -1.7427   -1.2972 H   0  0  0  0  0  0  0  0  0  0  0  0
   -0.5397   -1.1212   -0.1208 C   0  0  1  0  0  0  0  0  0  0  0  0
    0.3828   -1.7116   -0.1297 H   0  0  0  0  0  0  0  0  0  0  0  0
   -0.5343   -0.0626   -1.2479 C   0  0  0  0  0  0  0  0  0  0  0  0
   -0.5076   -0.6109   -2.1960 H   0  0  0  0  0  0  0  0  0  0  0  0
   -1.4941    0.4628   -1.2057 H   0  0  0  0  0  0  0  0  0  0  0  0
    0.5277    1.0215   -1.3483 C   0  0  0  0  0  0  0  0  0  0  0  0
    0.6121    1.7043   -2.5429 C   0  0  0  0  0  0  0  0  0  0  0  0
   -0.0643    1.5785   -3.3854 H   0  0  0  0  0  0  0  0  0  0  0  0
    1.6658    2.6014   -2.4770 N   0  0  0  0  0  0  0  0  0  0  0  0
    1.9442    3.2484   -3.2118 H   0  0  0  0  0  0  0  0  0  0  0  0
    2.3413    2.4373   -1.2873 C   0  0  0  0  0  0  0  0  0  0  0  0
    3.4916    3.0869   -0.8405 C   0  0  0  0  0  0  0  0  0  0  0  0
    3.9440    3.8740   -1.4330 H   0  0  0  0  0  0  0  0  0  0  0  0
    4.0622    2.6957    0.3737 C   0  0  0  0  0  0  0  0  0  0  0  0
    4.9574    3.1867    0.7428 H   0  0  0  0  0  0  0  0  0  0  0  0
    3.4894    1.6448    1.0978 C   0  0  0  0  0  0  0  0  0  0  0  0
    3.9445    1.3104    2.0256 H   0  0  0  0  0  0  0  0  0  0  0  0
    2.3340    1.0055    0.6271 C   0  0  0  0  0  0  0  0  0  0  0  0
    1.9664    0.1645    1.1898 H   0  0  0  0  0  0  0  0  0  0  0  0
    1.7113    1.4256   -0.5576 C   0  0  0  0  0  0  0  0  0  0  0  0
   -0.7352   -0.4729    1.2784 C   0  0  0  0  0  0  0  0  0  0  0  0
    0.0627   -0.6523    2.1875 O   0  0  0  0  0  0  0  0  0  0  0  0
   -1.9499    0.1132    1.5994 N   0  0  0  0  0  0  0  0  0  0  0  0
   -2.6705    0.0894    0.8878 H   0  0  0  0  0  0  0  0  0  0  0  0
   -2.3119    0.5059    2.9556 C   0  0  0  0  0  0  0  0  0  0  0  0
   -1.5844    1.2208    3.3541 H   0  0  0  0  0  0  0  0  0  0  0  0
   -3.2983    0.9789    2.9629 H   0  0  0  0  0  0  0  0  0  0  0  0
   -2.3410   -0.3707    3.6115 H   0  0  0  0  0  0  0  0  0  0  0  0
  1  2  1  0  0  0  0
  2  3  1  0  0  0  0
  2  4  1  0  0  0  0
  2  5  1  0  0  0  0
  5  6  2  0  0  0  0
  5  7  1  0  0  0  0
  7  8  1  0  0  0  0
  7  9  1  0  0  0  0
  9 10  1  0  0  0  0
  9 11  1  0  0  0  0
  9 29  1  0  0  0  0
 11 12  1  0  0  0  0
 11 13  1  0  0  0  0
 11 14  1  0  0  0  0
 14 15  2  0  0  0  0
 14 28  1  0  0  0  0
 15 16  1  0  0  0  0
 15 17  1  0  0  0  0
 17 18  1  0  0  0  0
 17 19  1  0  0  0  0
 19 20  1  0  0  0  0
 19 28  2  0  0  0  0
 20 21  1  0  0  0  0
 20 22  2  0  0  0  0
 22 23  1  0  0  0  0
 22 24  1  0  0  0  0
 24 25  1  0  0  0  0
 24 26  2  0  0  0  0
 26 27  1  0  0  0  0
 26 28  1  0  0  0  0
 29 30  2  0  0  0  0
 29 31  1  0  0  0  0
 31 32  1  0  0  0  0
 31 33  1  0  0  0  0
 33 34  1  0  0  0  0
 33 35  1  0  0  0  0
 33 36  1  0  0  0  0
M  END
$$$$

  -OEChem-03222214083D

 36 37  0     1  0  0  0  0  0999 V2000
   -3.5201   -4.6117    0.7481 H   0  0  0  0  0  0  0  0  0  0  0  0
   -3.3708   -3.8273    0.0002 C   0  0  0  0  0  0  0  0  0  0  0  0
   -4.2816   -3.2275   -0.0668 H   0  0  0  0  0  0  0  0  0  0  0  0
   -3.1776   -4.2981   -0.9667 H   0  0  0  0  0  0  0  0  0  0  0  0
   -2.1983   -2.9489    0.3945 C   0  0  0  0  0  0  0  0  0  0  0  0
   -1.6170   -3.1550    1.4430 O   0  0  0  0  0  0  0  0  0  0  0  0
   -1.7969   -1.9283   -0.4456 N   0  0  0  0  0  0  0  0  0  0  0  0
   -2.2523   -1.8857   -1.3516 H   0  0  0  0  0  0  0  0  0  0  0  0
   -0.6081   -1.0772   -0.2197 C   0  0  1  0  0  0  0  0  0  0  0  0
    0.2826   -1.7110   -0.2080 H   0  0  0  0  0  0  0  0  0  0  0  0
   -0.5472   -0.0999   -1.4091 C   0  0  0  0  0  0  0  0  0  0  0  0
   -0.7359   -0.6740   -2.3220 H   0  0  0  0  0  0  0  0  0  0  0  0
   -1.3611    0.6256   -1.3084 H   0  0  0  0  0  0  0  0  0  0  0  0
    0.7398    0.6651   -1.6503 C   0  0  0  0  0  0  0  0  0  0  0  0
    0.8094    1.5460   -2.7061 C   0  0  0  0  0  0  0  0  0  0  0  0
   -0.0170    1.8035   -3.3644 H   0  0  0  0  0  0  0  0  0  0  0  0
    2.1024    2.0426   -2.7837 N   0  0  0  0  0  0  0  0  0  0  0  0
    2.4388    2.7207   -3.4637 H   0  0  0  0  0  0  0  0  0  0  0  0
    2.8919    1.4507   -1.8182 C   0  0  0  0  0  0  0  0  0  0  0  0
    4.2511    1.6254   -1.5598 C   0  0  0  0  0  0  0  0  0  0  0  0
    4.8353    2.3264   -2.1449 H   0  0  0  0  0  0  0  0  0  0  0  0
    4.8506    0.8802   -0.5397 C   0  0  0  0  0  0  0  0  0  0  0  0
    5.9071    1.0032   -0.3211 H   0  0  0  0  0  0  0  0  0  0  0  0
    4.0835   -0.0305    0.1962 C   0  0  0  0  0  0  0  0  0  0  0  0
    4.5432   -0.6141    0.9881 H   0  0  0  0  0  0  0  0  0  0  0  0
    2.7186   -0.1945   -0.0781 C   0  0  0  0  0  0  0  0  0  0  0  0
    2.1661   -0.9138    0.5113 H   0  0  0  0  0  0  0  0  0  0  0  0
    2.1007    0.5628   -1.0870 C   0  0  0  0  0  0  0  0  0  0  0  0
   -0.6930   -0.2937    1.1175 C   0  0  0  0  0  0  0  0  0  0  0  0
    0.2626   -0.2043    1.8754 O   0  0  0  0  0  0  0  0  0  0  0  0
   -1.8736    0.3418    1.4651 N   0  0  0  0  0  0  0  0  0  0  0  0
   -2.6865    0.1167    0.9029 H   0  0  0  0  0  0  0  0  0  0  0  0
   -2.0714    0.9841    2.7583 C   0  0  0  0  0  0  0  0  0  0  0  0
   -1.3256    1.7709    2.9137 H   0  0  0  0  0  0  0  0  0  0  0  0
   -3.0654    1.4383    2.8077 H   0  0  0  0  0  0  0  0  0  0  0  0
   -1.9829    0.2501    3.5664 H   0  0  0  0  0  0  0  0  0  0  0  0
  1  2  1  0  0  0  0
  2  3  1  0  0  0  0
  2  4  1  0  0  0  0
  2  5  1  0  0  0  0
  5  6  2  0  0  0  0
  5  7  1  0  0  0  0
  7  8  1  0  0  0  0
  7  9  1  0  0  0  0
  9 10  1  0  0  0  0
  9 11  1  0  0  0  0
  9 29  1  0  0  0  0
 11 12  1  0  0  0  0
 11 13  1  0  0  0  0
 11 14  1  0  0  0  0
 14 15  2  0  0  0  0
 14 28  1  0  0  0  0
 15 16  1  0  0  0  0
 15 17  1  0  0  0  0
 17 18  1  0  0  0  0
 17 19  1  0  0  0  0
 19 20  1  0  0  0  0
 19 28  2  0  0  0  0
 20 21  1  0  0  0  0
 20 22  2  0  0  0  0
 22 23  1  0  0  0  0
 22 24  1  0  0  0  0
 24 25  1  0  0  0  0
 24 26  2  0  0  0  0
 26 27  1  0  0  0  0
 26 28  1  0  0  0  0
 29 30  2  0  0  0  0
 29 31  1  0  0  0  0
 31 32  1  0  0  0  0
 31 33  1  0  0  0  0
 33 34  1  0  0  0  0
 33 35  1  0  0  0  0
 33 36  1  0  0  0  0
M  END
$$$$

  -OEChem-03222214083D

 36 37  0     1  0  0  0  0  0999 V2000
   -3.5550   -4.6242    0.7290 H   0  0  0  0  0  0  0  0  0  0  0  0
   -3.4303   -3.8260   -0.0086 C   0  0  0  0  0  0  0  0  0  0  0  0
   -4.3418   -3.2240   -0.0322 H   0  0  0  0  0  0  0  0  0  0  0  0
   -3.2727   -4.2782   -0.9908 H   0  0  0  0  0  0  0  0  0  0  0  0
   -2.2434   -2.9563    0.3613 C   0  0  0  0  0  0  0  0  0  0  0  0
   -1.6357   -3.1712    1.3930 O   0  0  0  0  0  0  0  0  0  0  0  0
   -1.8625   -1.9277   -0.4778 N   0  0  0  0  0  0  0  0  0  0  0  0
   -2.3410   -1.8764   -1.3713 H   0  0  0  0  0  0  0  0  0  0  0  0
   -0.6499   -1.1040   -0.2877 C   0  0  1  0  0  0  0  0  0  0  0  0
    0.2062   -1.7795   -0.3116 H   0  0  0  0  0  0  0  0  0  0  0  0
   -0.5755   -0.1410   -1.4854 C   0  0  0  0  0  0  0  0  0  0  0  0
   -0.7804   -0.7196   -2.3915 H   0  0  0  0  0  0  0  0  0  0  0  0
   -1.3713    0.6046   -1.3884 H   0  0  0  0  0  0  0  0  0  0  0  0
    0.7356    0.5784   -1.7333 C   0  0  0  0  0  0  0  0  0  0  0  0
    0.7690    1.6635   -2.5790 C   0  0  0  0  0  0  0  0  0  0  0  0
   -0.0934    2.0963   -3.0805 H   0  0  0  0  0  0  0  0  0  0  0  0
    2.0841    2.0913   -2.6929 N   0  0  0  0  0  0  0  0  0  0  0  0
    2.4054    2.8821   -3.2467 H   0  0  0  0  0  0  0  0  0  0  0  0
    2.9093    1.2881   -1.9300 C   0  0  0  0  0  0  0  0  0  0  0  0
    4.2911    1.3533   -1.7539 C   0  0  0  0  0  0  0  0  0  0  0  0
    4.8721    2.1184   -2.2562 H   0  0  0  0  0  0  0  0  0  0  0  0
    4.9151    0.4226   -0.9169 C   0  0  0  0  0  0  0  0  0  0  0  0
    5.9893    0.4603   -0.7629 H   0  0  0  0  0  0  0  0  0  0  0  0
    4.1477   -0.5527   -0.2688 C   0  0  0  0  0  0  0  0  0  0  0  0
    4.6252   -1.2684    0.3936 H   0  0  0  0  0  0  0  0  0  0  0  0
    2.7592   -0.6048   -0.4568 C   0  0  0  0  0  0  0  0  0  0  0  0
    2.2022   -1.3599    0.0822 H   0  0  0  0  0  0  0  0  0  0  0  0
    2.1229    0.3215   -1.3010 C   0  0  0  0  0  0  0  0  0  0  0  0
   -0.6147   -0.3276    1.0511 C   0  0  0  0  0  0  0  0  0  0  0  0
    0.4151   -0.2464    1.7067 O   0  0  0  0  0  0  0  0  0  0  0  0
   -1.7429    0.3464    1.4865 N   0  0  0  0  0  0  0  0  0  0  0  0
   -2.6084    0.1259    1.0069 H   0  0  0  0  0  0  0  0  0  0  0  0
   -1.8099    1.0077    2.7833 C   0  0  0  0  0  0  0  0  0  0  0  0
   -1.0351    1.7777    2.8615 H   0  0  0  0  0  0  0  0  0  0  0  0
   -2.7851    1.4862    2.9132 H   0  0  0  0  0  0  0  0  0  0  0  0
   -1.6674    0.2815    3.5907 H   0  0  0  0  0  0  0  0  0  0  0  0
  1  2  1  0  0  0  0
  2  3  1  0  0  0  0
  2  4  1  0  0  0  0
  2  5  1  0  0  0  0
  5  6  2  0  0  0  0
  5  7  1  0  0  0  0
  7  8  1  0  0  0  0
  7  9  1  0  0  0  0
  9 10  1  0  0  0  0
  9 11  1  0  0  0  0
  9 29  1  0  0  0  0
 11 12  1  0  0  0  0
 11 13  1  0  0  0  0
 11 14  1  0  0  0  0
 14 15  2  0  0  0  0
 14 28  1  0  0  0  0
 15 16  1  0  0  0  0
 15 17  1  0  0  0  0
 17 18  1  0  0  0  0
 17 19  1  0  0  0  0
 19 20  1  0  0  0  0
 19 28  2  0  0  0  0
 20 21  1  0  0  0  0
 20 22  2  0  0  0  0
 22 23  1  0  0  0  0
 22 24  1  0  0  0  0
 24 25  1  0  0  0  0
 24 26  2  0  0  0  0
 26 27  1  0  0  0  0
 26 28  1  0  0  0  0
 29 30  2  0  0  0  0
 29 31  1  0  0  0  0
 31 32  1  0  0  0  0
 31 33  1  0  0  0  0
 33 34  1  0  0  0  0
 33 35  1  0  0  0  0
 33 36  1  0  0  0  0
M  END
$$$$

  -OEChem-03222214083D

 36 37  0     1  0  0  0  0  0999 V2000
   -3.5151   -4.6385    0.7743 H   0  0  0  0  0  0  0  0  0  0  0  0
   -3.3994   -3.8547    0.0201 C   0  0  0  0  0  0  0  0  0  0  0  0
   -4.3197   -3.2673   -0.0204 H   0  0  0  0  0  0  0  0  0  0  0  0
   -3.2307   -4.3257   -0.9512 H   0  0  0  0  0  0  0  0  0  0  0  0
   -2.2273   -2.9593    0.3749 C   0  0  0  0  0  0  0  0  0  0  0  0
   -1.6105   -3.1500    1.4060 O   0  0  0  0  0  0  0  0  0  0  0  0
   -1.8690   -1.9333   -0.4767 N   0  0  0  0  0  0  0  0  0  0  0  0
   -2.3566   -1.8957   -1.3661 H   0  0  0  0  0  0  0  0  0  0  0  0
   -0.6616   -1.0987   -0.3077 C   0  0  1  0  0  0  0  0  0  0  0  0
    0.1939   -1.7716   -0.3231 H   0  0  0  0  0  0  0  0  0  0  0  0
   -0.5961   -0.1443   -1.5125 C   0  0  0  0  0  0  0  0  0  0  0  0
   -0.7932   -0.7301   -2.4157 H   0  0  0  0  0  0  0  0  0  0  0  0
   -1.3953    0.5989   -1.4239 H   0  0  0  0  0  0  0  0  0  0  0  0
    0.7224    0.5644   -1.7456 C   0  0  0  0  0  0  0  0  0  0  0  0
    0.7528    1.8118   -2.3259 C   0  0  0  0  0  0  0  0  0  0  0  0
   -0.1195    2.3954   -2.6109 H   0  0  0  0  0  0  0  0  0  0  0  0
    2.0789    2.1895   -2.4826 N   0  0  0  0  0  0  0  0  0  0  0  0
    2.4022    3.0775   -2.8594 H   0  0  0  0  0  0  0  0  0  0  0  0
    2.9128    1.1859   -2.0293 C   0  0  0  0  0  0  0  0  0  0  0  0
    4.3059    1.1335   -2.0067 C   0  0  0  0  0  0  0  0  0  0  0  0
    4.8912    1.9683   -2.3749 H   0  0  0  0  0  0  0  0  0  0  0  0
    4.9357   -0.0085   -1.5013 C   0  0  0  0  0  0  0  0  0  0  0  0
    6.0195   -0.0659   -1.4707 H   0  0  0  0  0  0  0  0  0  0  0  0
    4.1633   -1.0776   -1.0312 C   0  0  0  0  0  0  0  0  0  0  0  0
    4.6501   -1.9627   -0.6332 H   0  0  0  0  0  0  0  0  0  0  0  0
    2.7628   -1.0103   -1.0617 C   0  0  0  0  0  0  0  0  0  0  0  0
    2.2056   -1.8566   -0.6841 H   0  0  0  0  0  0  0  0  0  0  0  0
    2.1213    0.1357   -1.5618 C   0  0  0  0  0  0  0  0  0  0  0  0
   -0.5941   -0.3063    1.0178 C   0  0  0  0  0  0  0  0  0  0  0  0
    0.4654   -0.1845    1.6176 O   0  0  0  0  0  0  0  0  0  0  0  0
   -1.7105    0.3722    1.4758 N   0  0  0  0  0  0  0  0  0  0  0  0
   -2.5922    0.1282    1.0391 H   0  0  0  0  0  0  0  0  0  0  0  0
   -1.7313    1.0710    2.7544 C   0  0  0  0  0  0  0  0  0  0  0  0
   -0.9596    1.8478    2.7790 H   0  0  0  0  0  0  0  0  0  0  0  0
   -2.7036    1.5477    2.9105 H   0  0  0  0  0  0  0  0  0  0  0  0
   -1.5509    0.3692    3.5757 H   0  0  0  0  0  0  0  0  0  0  0  0
  1  2  1  0  0  0  0
  2  3  1  0  0  0  0
  2  4  1  0  0  0  0
  2  5  1  0  0  0  0
  5  6  2  0  0  0  0
  5  7  1  0  0  0  0
  7  8  1  0  0  0  0
  7  9  1  0  0  0  0
  9 10  1  0  0  0  0
  9 11  1  0  0  0  0
  9 29  1  0  0  0  0
 11 12  1  0  0  0  0
 11 13  1  0  0  0  0
 11 14  1  0  0  0  0
 14 15  2  0  0  0  0
 14 28  1  0  0  0  0
 15 16  1  0  0  0  0
 15 17  1  0  0  0  0
 17 18  1  0  0  0  0
 17 19  1  0  0  0  0
 19 20  1  0  0  0  0
 19 28  2  0  0  0  0
 20 21  1  0  0  0  0
 20 22  2  0  0  0  0
 22 23  1  0  0  0  0
 22 24  1  0  0  0  0
 24 25  1  0  0  0  0
 24 26  2  0  0  0  0
 26 27  1  0  0  0  0
 26 28  1  0  0  0  0
 29 30  2  0  0  0  0
 29 31  1  0  0  0  0
 31 32  1  0  0  0  0
 31 33  1  0  0  0  0
 33 34  1  0  0  0  0
 33 35  1  0  0  0  0
 33 36  1  0  0  0  0
M  END
$$$$

  -OEChem-03222214083D

 36 37  0     1  0  0  0  0  0999 V2000
   -3.3539   -4.6716    0.8419 H   0  0  0  0  0  0  0  0  0  0  0  0
   -3.2697   -3.8965    0.0746 C   0  0  0  0  0  0  0  0  0  0  0  0
   -4.2058   -3.3343    0.0386 H   0  0  0  0  0  0  0  0  0  0  0  0
   -3.1022   -4.3775   -0.8921 H   0  0  0  0  0  0  0  0  0  0  0  0
   -2.1170   -2.9655    0.3999 C   0  0  0  0  0  0  0  0  0  0  0  0
   -1.4845   -3.1236    1.4270 O   0  0  0  0  0  0  0  0  0  0  0  0
   -1.7971   -1.9426   -0.4707 N   0  0  0  0  0  0  0  0  0  0  0  0
   -2.2944   -1.9320   -1.3556 H   0  0  0  0  0  0  0  0  0  0  0  0
   -0.6172   -1.0654   -0.3239 C   0  0  1  0  0  0  0  0  0  0  0  0
    0.2746   -1.6946   -0.3291 H   0  0  0  0  0  0  0  0  0  0  0  0
   -0.6005   -0.1101   -1.5319 C   0  0  0  0  0  0  0  0  0  0  0  0
   -0.7886   -0.6925   -2.4391 H   0  0  0  0  0  0  0  0  0  0  0  0
   -1.4113    0.6193   -1.4353 H   0  0  0  0  0  0  0  0  0  0  0  0
    0.7124    0.6085   -1.7339 C   0  0  0  0  0  0  0  0  0  0  0  0
    0.8055    1.9536   -2.0047 C   0  0  0  0  0  0  0  0  0  0  0  0
   -0.0286    2.6508   -2.0327 H   0  0  0  0  0  0  0  0  0  0  0  0
    2.1449    2.2584   -2.2203 N   0  0  0  0  0  0  0  0  0  0  0  0
    2.5187    3.1874   -2.4009 H   0  0  0  0  0  0  0  0  0  0  0  0
    2.9142    1.1118   -2.1375 C   0  0  0  0  0  0  0  0  0  0  0  0
    4.2864    0.9263   -2.3046 C   0  0  0  0  0  0  0  0  0  0  0  0
    4.9310    1.7717   -2.5169 H   0  0  0  0  0  0  0  0  0  0  0  0
    4.8178   -0.3648   -2.1980 C   0  0  0  0  0  0  0  0  0  0  0  0
    5.8846   -0.5258   -2.3208 H   0  0  0  0  0  0  0  0  0  0  0  0
    3.9703   -1.4503   -1.9373 C   0  0  0  0  0  0  0  0  0  0  0  0
    4.3825   -2.4519   -1.8610 H   0  0  0  0  0  0  0  0  0  0  0  0
    2.5925   -1.2490   -1.7708 C   0  0  0  0  0  0  0  0  0  0  0  0
    1.9533   -2.1023   -1.5798 H   0  0  0  0  0  0  0  0  0  0  0  0
    2.0623    0.0466   -1.8555 C   0  0  0  0  0  0  0  0  0  0  0  0
   -0.5818   -0.2542    0.9928 C   0  0  0  0  0  0  0  0  0  0  0  0
    0.4736   -0.0621    1.5816 O   0  0  0  0  0  0  0  0  0  0  0  0
   -1.7260    0.3859    1.4388 N   0  0  0  0  0  0  0  0  0  0  0  0
   -2.5970    0.0893    1.0129 H   0  0  0  0  0  0  0  0  0  0  0  0
   -1.7757    1.1111    2.7018 C   0  0  0  0  0  0  0  0  0  0  0  0
   -1.0393    1.9217    2.7072 H   0  0  0  0  0  0  0  0  0  0  0  0
   -2.7681    1.5473    2.8494 H   0  0  0  0  0  0  0  0  0  0  0  0
   -1.5636    0.4362    3.5379 H   0  0  0  0  0  0  0  0  0  0  0  0
  1  2  1  0  0  0  0
  2  3  1  0  0  0  0
  2  4  1  0  0  0  0
  2  5  1  0  0  0  0
  5  6  2  0  0  0  0
  5  7  1  0  0  0  0
  7  8  1  0  0  0  0
  7  9  1  0  0  0  0
  9 10  1  0  0  0  0
  9 11  1  0  0  0  0
  9 29  1  0  0  0  0
 11 12  1  0  0  0  0
 11 13  1  0  0  0  0
 11 14  1  0  0  0  0
 14 15  2  0  0  0  0
 14 28  1  0  0  0  0
 15 16  1  0  0  0  0
 15 17  1  0  0  0  0
 17 18  1  0  0  0  0
 17 19  1  0  0  0  0
 19 20  1  0  0  0  0
 19 28  2  0  0  0  0
 20 21  1  0  0  0  0
 20 22  2  0  0  0  0
 22 23  1  0  0  0  0
 22 24  1  0  0  0  0
 24 25  1  0  0  0  0
 24 26  2  0  0  0  0
 26 27  1  0  0  0  0
 26 28  1  0  0  0  0
 29 30  2  0  0  0  0
 29 31  1  0  0  0  0
 31 32  1  0  0  0  0
 31 33  1  0  0  0  0
 33 34  1  0  0  0  0
 33 35  1  0  0  0  0
 33 36  1  0  0  0  0
M  END
$$$$

  -OEChem-03222214083D

 36 37  0     1  0  0  0  0  0999 V2000
   -3.2272   -4.7176    0.8125 H   0  0  0  0  0  0  0  0  0  0  0  0
   -3.1957   -3.9169    0.0680 C   0  0  0  0  0  0  0  0  0  0  0  0
   -4.1455   -3.3772    0.0915 H   0  0  0  0  0  0  0  0  0  0  0  0
   -3.0602   -4.3627   -0.9204 H   0  0  0  0  0  0  0  0  0  0  0  0
   -2.0521   -2.9677    0.3723 C   0  0  0  0  0  0  0  0  0  0  0  0
   -1.3932   -3.1189    1.3838 O   0  0  0  0  0  0  0  0  0  0  0  0
   -1.7715   -1.9356   -0.5007 N   0  0  0  0  0  0  0  0  0  0  0  0
   -2.2921   -1.9295   -1.3719 H   0  0  0  0  0  0  0  0  0  0  0  0
   -0.6005   -1.0425   -0.3837 C   0  0  1  0  0  0  0  0  0  0  0  0
    0.3064   -1.6536   -0.4258 H   0  0  0  0  0  0  0  0  0  0  0  0
   -0.6336   -0.0814   -1.5859 C   0  0  0  0  0  0  0  0  0  0  0  0
   -0.8459   -0.6476   -2.4980 H   0  0  0  0  0  0  0  0  0  0  0  0
   -1.4393    0.6482   -1.4547 H   0  0  0  0  0  0  0  0  0  0  0  0
    0.6768    0.6333   -1.7868 C   0  0  0  0  0  0  0  0  0  0  0  0
    0.8564    1.9952   -1.7527 C   0  0  0  0  0  0  0  0  0  0  0  0
    0.0870    2.7292   -1.5252 H   0  0  0  0  0  0  0  0  0  0  0  0
    2.1925    2.2541   -2.0465 N   0  0  0  0  0  0  0  0  0  0  0  0
    2.6289    3.1732   -2.0439 H   0  0  0  0  0  0  0  0  0  0  0  0
    2.8691    1.0711   -2.2921 C   0  0  0  0  0  0  0  0  0  0  0  0
    4.1993    0.8226   -2.6300 C   0  0  0  0  0  0  0  0  0  0  0  0
    4.8999    1.6439   -2.7304 H   0  0  0  0  0  0  0  0  0  0  0  0
    4.6157   -0.4997   -2.8366 C   0  0  0  0  0  0  0  0  0  0  0  0
    5.6491   -0.7084   -3.0969 H   0  0  0  0  0  0  0  0  0  0  0  0
    3.6990   -1.5536   -2.7058 C   0  0  0  0  0  0  0  0  0  0  0  0
    4.0244   -2.5771   -2.8651 H   0  0  0  0  0  0  0  0  0  0  0  0
    2.3646   -1.2909   -2.3637 C   0  0  0  0  0  0  0  0  0  0  0  0
    1.6584   -2.1075   -2.2617 H   0  0  0  0  0  0  0  0  0  0  0  0
    1.9565    0.0314   -2.1506 C   0  0  0  0  0  0  0  0  0  0  0  0
   -0.5413   -0.2394    0.9376 C   0  0  0  0  0  0  0  0  0  0  0  0
    0.5275   -0.0169    1.4904 O   0  0  0  0  0  0  0  0  0  0  0  0
   -1.6838    0.3789    1.4174 N   0  0  0  0  0  0  0  0  0  0  0  0
   -2.5608    0.0577    1.0223 H   0  0  0  0  0  0  0  0  0  0  0  0
   -1.7106    1.0979    2.6848 C   0  0  0  0  0  0  0  0  0  0  0  0
   -0.9902    1.9226    2.6737 H   0  0  0  0  0  0  0  0  0  0  0  0
   -2.7064    1.5143    2.8633 H   0  0  0  0  0  0  0  0  0  0  0  0
   -1.4610    0.4235    3.5106 H   0  0  0  0  0  0  0  0  0  0  0  0
  1  2  1  0  0  0  0
  2  3  1  0  0  0  0
  2  4  1  0  0  0  0
  2  5  1  0  0  0  0
  5  6  2  0  0  0  0
  5  7  1  0  0  0  0
  7  8  1  0  0  0  0
  7  9  1  0  0  0  0
  9 10  1  0  0  0  0
  9 11  1  0  0  0  0
  9 29  1  0  0  0  0
 11 12  1  0  0  0  0
 11 13  1  0  0  0  0
 11 14  1  0  0  0  0
 14 15  2  0  0  0  0
 14 28  1  0  0  0  0
 15 16  1  0  0  0  0
 15 17  1  0  0  0  0
 17 18  1  0  0  0  0
 17 19  1  0  0  0  0
 19 20  1  0  0  0  0
 19 28  2  0  0  0  0
 20 21  1  0  0  0  0
 20 22  2  0  0  0  0
 22 23  1  0  0  0  0
 22 24  1  0  0  0  0
 24 25  1  0  0  0  0
 24 26  2  0  0  0  0
 26 27  1  0  0  0  0
 26 28  1  0  0  0  0
 29 30  2  0  0  0  0
 29 31  1  0  0  0  0
 31 32  1  0  0  0  0
 31 33  1  0  0  0  0
 33 34  1  0  0  0  0
 33 35  1  0  0  0  0
 33 36  1  0  0  0  0
M  END
$$$$

  -OEChem-03222214083D

 36 37  0     1  0  0  0  0  0999 V2000
   -3.2013   -4.7106    0.8091 H   0  0  0  0  0  0  0  0  0  0  0  0
   -3.1809   -3.9123    0.0616 C   0  0  0  0  0  0  0  0  0  0  0  0
   -4.1283   -3.3695    0.1002 H   0  0  0  0  0  0  0  0  0  0  0  0
   -3.0651   -4.3619   -0.9273 H   0  0  0  0  0  0  0  0  0  0  0  0
   -2.0285   -2.9665    0.3423 C   0  0  0  0  0  0  0  0  0  0  0  0
   -1.3487   -3.1209    1.3394 O   0  0  0  0  0  0  0  0  0  0  0  0
   -1.7707   -1.9266   -0.5290 N   0  0  0  0  0  0  0  0  0  0  0  0
   -2.3106   -1.9152   -1.3884 H   0  0  0  0  0  0  0  0  0  0  0  0
   -0.6000   -1.0306   -0.4316 C   0  0  1  0  0  0  0  0  0  0  0  0
    0.3104   -1.6357   -0.5056 H   0  0  0  0  0  0  0  0  0  0  0  0
   -0.6597   -0.0592   -1.6229 C   0  0  0  0  0  0  0  0  0  0  0  0
   -0.8991   -0.6061   -2.5400 H   0  0  0  0  0  0  0  0  0  0  0  0
   -1.4543    0.6757   -1.4593 H   0  0  0  0  0  0  0  0  0  0  0  0
    0.6523    0.6478   -1.8272 C   0  0  0  0  0  0  0  0  0  0  0  0
    0.9324    1.9541   -1.5065 C   0  0  0  0  0  0  0  0  0  0  0  0
    0.2477    2.6488   -1.0254 H   0  0  0  0  0  0  0  0  0  0  0  0
    2.2477    2.2085   -1.8883 N   0  0  0  0  0  0  0  0  0  0  0  0
    2.7496    3.0778   -1.7219 H   0  0  0  0  0  0  0  0  0  0  0  0
    2.8141    1.0769   -2.4525 C   0  0  0  0  0  0  0  0  0  0  0  0
    4.0860    0.8355   -2.9718 C   0  0  0  0  0  0  0  0  0  0  0  0
    4.8319    1.6224   -2.9755 H   0  0  0  0  0  0  0  0  0  0  0  0
    4.3855   -0.4348   -3.4839 C   0  0  0  0  0  0  0  0  0  0  0  0
    5.3728   -0.6367   -3.8886 H   0  0  0  0  0  0  0  0  0  0  0  0
    3.4129   -1.4465   -3.4698 C   0  0  0  0  0  0  0  0  0  0  0  0
    3.6498   -2.4305   -3.8629 H   0  0  0  0  0  0  0  0  0  0  0  0
    2.1380   -1.1927   -2.9436 C   0  0  0  0  0  0  0  0  0  0  0  0
    1.3862   -1.9743   -2.9242 H   0  0  0  0  0  0  0  0  0  0  0  0
    1.8477    0.0780   -2.4354 C   0  0  0  0  0  0  0  0  0  0  0  0
   -0.5188   -0.2403    0.8968 C   0  0  0  0  0  0  0  0  0  0  0  0
    0.5598   -0.0020    1.4239 O   0  0  0  0  0  0  0  0  0  0  0  0
   -1.6563    0.3662    1.4029 N   0  0  0  0  0  0  0  0  0  0  0  0
   -2.5377    0.0318    1.0286 H   0  0  0  0  0  0  0  0  0  0  0  0
   -1.6654    1.0695    2.6792 C   0  0  0  0  0  0  0  0  0  0  0  0
   -0.9469    1.8959    2.6684 H   0  0  0  0  0  0  0  0  0  0  0  0
   -2.6594    1.4815    2.8771 H   0  0  0  0  0  0  0  0  0  0  0  0
   -1.4030    0.3851    3.4930 H   0  0  0  0  0  0  0  0  0  0  0  0
  1  2  1  0  0  0  0
  2  3  1  0  0  0  0
  2  4  1  0  0  0  0
  2  5  1  0  0  0  0
  5  6  2  0  0  0  0
  5  7  1  0  0  0  0
  7  8  1  0  0  0  0
  7  9  1  0  0  0  0
  9 10  1  0  0  0  0
  9 11  1  0  0  0  0
  9 29  1  0  0  0  0
 11 12  1  0  0  0  0
 11 13  1  0  0  0  0
 11 14  1  0  0  0  0
 14 15  2  0  0  0  0
 14 28  1  0  0  0  0
 15 16  1  0  0  0  0
 15 17  1  0  0  0  0
 17 18  1  0  0  0  0
 17 19  1  0  0  0  0
 19 20  1  0  0  0  0
 19 28  2  0  0  0  0
 20 21  1  0  0  0  0
 20 22  2  0  0  0  0
 22 23  1  0  0  0  0
 22 24  1  0  0  0  0
 24 25  1  0  0  0  0
 24 26  2  0  0  0  0
 26 27  1  0  0  0  0
 26 28  1  0  0  0  0
 29 30  2  0  0  0  0
 29 31  1  0  0  0  0
 31 32  1  0  0  0  0
 31 33  1  0  0  0  0
 33 34  1  0  0  0  0
 33 35  1  0  0  0  0
 33 36  1  0  0  0  0
M  END
$$$$

  -OEChem-03222214083D

 36 37  0     1  0  0  0  0  0999 V2000
   -3.2085   -4.7152    0.7889 H   0  0  0  0  0  0  0  0  0  0  0  0
   -3.1951   -3.9099    0.0487 C   0  0  0  0  0  0  0  0  0  0  0  0
   -4.1481   -3.3773    0.0910 H   0  0  0  0  0  0  0  0  0  0  0  0
   -3.0729   -4.3496   -0.9442 H   0  0  0  0  0  0  0  0  0  0  0  0
   -2.0523   -2.9553    0.3399 C   0  0  0  0  0  0  0  0  0  0  0  0
   -1.3799   -3.1068    1.3425 O   0  0  0  0  0  0  0  0  0  0  0  0
   -1.7893   -1.9160   -0.5308 N   0  0  0  0  0  0  0  0  0  0  0  0
   -2.3213   -1.9096   -1.3954 H   0  0  0  0  0  0  0  0  0  0  0  0
   -0.6086   -1.0321   -0.4360 C   0  0  1  0  0  0  0  0  0  0  0  0
    0.2963   -1.6447   -0.5176 H   0  0  0  0  0  0  0  0  0  0  0  0
   -0.6636   -0.0576   -1.6257 C   0  0  0  0  0  0  0  0  0  0  0  0
   -0.9228   -0.5962   -2.5420 H   0  0  0  0  0  0  0  0  0  0  0  0
   -1.4455    0.6888   -1.4521 H   0  0  0  0  0  0  0  0  0  0  0  0
    0.6547    0.6374   -1.8367 C   0  0  0  0  0  0  0  0  0  0  0  0
    1.0513    1.8258   -1.2719 C   0  0  0  0  0  0  0  0  0  0  0  0
    0.4714    2.4139   -0.5636 H   0  0  0  0  0  0  0  0  0  0  0  0
    2.3295    2.1119   -1.7455 N   0  0  0  0  0  0  0  0  0  0  0  0
    2.8996    2.9016   -1.4512 H   0  0  0  0  0  0  0  0  0  0  0  0
    2.7590    1.1162   -2.6075 C   0  0  0  0  0  0  0  0  0  0  0  0
    3.9494    0.9523   -3.3158 C   0  0  0  0  0  0  0  0  0  0  0  0
    4.7373    1.6928   -3.2369 H   0  0  0  0  0  0  0  0  0  0  0  0
    4.1119   -0.1796   -4.1269 C   0  0  0  0  0  0  0  0  0  0  0  0
    5.0338   -0.3194   -4.6835 H   0  0  0  0  0  0  0  0  0  0  0  0
    3.0864   -1.1333   -4.2176 C   0  0  0  0  0  0  0  0  0  0  0  0
    3.2170   -2.0103   -4.8444 H   0  0  0  0  0  0  0  0  0  0  0  0
    1.8952   -0.9598   -3.4977 C   0  0  0  0  0  0  0  0  0  0  0  0
    1.1037   -1.6985   -3.5604 H   0  0  0  0  0  0  0  0  0  0  0  0
    1.7397    0.1744   -2.6932 C   0  0  0  0  0  0  0  0  0  0  0  0
   -0.5186   -0.2483    0.8967 C   0  0  0  0  0  0  0  0  0  0  0  0
    0.5631   -0.0109    1.4181 O   0  0  0  0  0  0  0  0  0  0  0  0
   -1.6502    0.3656    1.4066 N   0  0  0  0  0  0  0  0  0  0  0  0
   -2.5343    0.0387    1.0318 H   0  0  0  0  0  0  0  0  0  0  0  0
   -1.6543    1.0693    2.6832 C   0  0  0  0  0  0  0  0  0  0  0  0
   -0.9392    1.8985    2.6686 H   0  0  0  0  0  0  0  0  0  0  0  0
   -2.6490    1.4773    2.8860 H   0  0  0  0  0  0  0  0  0  0  0  0
   -1.3854    0.3866    3.4962 H   0  0  0  0  0  0  0  0  0  0  0  0
  1  2  1  0  0  0  0
  2  3  1  0  0  0  0
  2  4  1  0  0  0  0
  2  5  1  0  0  0  0
  5  6  2  0  0  0  0
  5  7  1  0  0  0  0
  7  8  1  0  0  0  0
  7  9  1  0  0  0  0
  9 10  1  0  0  0  0
  9 11  1  0  0  0  0
  9 29  1  0  0  0  0
 11 12  1  0  0  0  0
 11 13  1  0  0  0  0
 11 14  1  0  0  0  0
 14 15  2  0  0  0  0
 14 28  1  0  0  0  0
 15 16  1  0  0  0  0
 15 17  1  0  0  0  0
 17 18  1  0  0  0  0
 17 19  1  0  0  0  0
 19 20  1  0  0  0  0
 19 28  2  0  0  0  0
 20 21  1  0  0  0  0
 20 22  2  0  0  0  0
 22 23  1  0  0  0  0
 22 24  1  0  0  0  0
 24 25  1  0  0  0  0
 24 26  2  0  0  0  0
 26 27  1  0  0  0  0
 26 28  1  0  0  0  0
 29 30  2  0  0  0  0
 29 31  1  0  0  0  0
 31 32  1  0  0  0  0
 31 33  1  0  0  0  0
 33 34  1  0  0  0  0
 33 35  1  0  0  0  0
 33 36  1  0  0  0  0
M  END
$$$$

  -OEChem-03222214083D

 36 37  0     1  0  0  0  0  0999 V2000
   -3.2770   -4.6808    0.7846 H   0  0  0  0  0  0  0  0  0  0  0  0
   -3.2324   -3.8829    0.0377 C   0  0  0  0  0  0  0  0  0  0  0  0
   -4.1745   -3.3297    0.0569 H   0  0  0  0  0  0  0  0  0  0  0  0
   -3.1012   -4.3339   -0.9488 H   0  0  0  0  0  0  0  0  0  0  0  0
   -2.0752   -2.9500    0.3415 C   0  0  0  0  0  0  0  0  0  0  0  0
   -1.4122   -3.1167    1.3481 O   0  0  0  0  0  0  0  0  0  0  0  0
   -1.7919   -1.9106   -0.5226 N   0  0  0  0  0  0  0  0  0  0  0  0
   -2.3188   -1.8933   -1.3901 H   0  0  0  0  0  0  0  0  0  0  0  0
   -0.6013   -1.0413   -0.4180 C   0  0  1  0  0  0  0  0  0  0  0  0
    0.2990   -1.6614   -0.4963 H   0  0  0  0  0  0  0  0  0  0  0  0
   -0.6441   -0.0681   -1.6115 C   0  0  0  0  0  0  0  0  0  0  0  0
   -0.9149   -0.6108   -2.5217 H   0  0  0  0  0  0  0  0  0  0  0  0
   -1.4205    0.6842   -1.4391 H   0  0  0  0  0  0  0  0  0  0  0  0
    0.6720    0.6301   -1.8432 C   0  0  0  0  0  0  0  0  0  0  0  0
    1.2028    1.6571   -1.0984 C   0  0  0  0  0  0  0  0  0  0  0  0
    0.7508    2.0959   -0.2105 H   0  0  0  0  0  0  0  0  0  0  0  0
    2.4253    2.0052   -1.6660 N   0  0  0  0  0  0  0  0  0  0  0  0
    3.0671    2.6995   -1.2900 H   0  0  0  0  0  0  0  0  0  0  0  0
    2.6908    1.2079   -2.7664 C   0  0  0  0  0  0  0  0  0  0  0  0
    3.7763    1.1701   -3.6414 C   0  0  0  0  0  0  0  0  0  0  0  0
    4.6048    1.8575   -3.5122 H   0  0  0  0  0  0  0  0  0  0  0  0
    3.7816    0.2333   -4.6840 C   0  0  0  0  0  0  0  0  0  0  0  0
    4.6215    0.1921   -5.3711 H   0  0  0  0  0  0  0  0  0  0  0  0
    2.7049   -0.6531   -4.8376 C   0  0  0  0  0  0  0  0  0  0  0  0
    2.7140   -1.3801   -5.6441 H   0  0  0  0  0  0  0  0  0  0  0  0
    1.6195   -0.6062   -3.9506 C   0  0  0  0  0  0  0  0  0  0  0  0
    0.7904   -1.2952   -4.0663 H   0  0  0  0  0  0  0  0  0  0  0  0
    1.6197    0.3333   -2.9129 C   0  0  0  0  0  0  0  0  0  0  0  0
   -0.5207   -0.2686    0.9215 C   0  0  0  0  0  0  0  0  0  0  0  0
    0.5562   -0.0485    1.4609 O   0  0  0  0  0  0  0  0  0  0  0  0
   -1.6528    0.3512    1.4221 N   0  0  0  0  0  0  0  0  0  0  0  0
   -2.5353    0.0373    1.0326 H   0  0  0  0  0  0  0  0  0  0  0  0
   -1.6672    1.0473    2.7024 C   0  0  0  0  0  0  0  0  0  0  0  0
   -0.9473    1.8724    2.7002 H   0  0  0  0  0  0  0  0  0  0  0  0
   -2.6617    1.4599    2.8965 H   0  0  0  0  0  0  0  0  0  0  0  0
   -1.4112    0.3584    3.5145 H   0  0  0  0  0  0  0  0  0  0  0  0
  1  2  1  0  0  0  0
  2  3  1  0  0  0  0
  2  4  1  0  0  0  0
  2  5  1  0  0  0  0
  5  6  2  0  0  0  0
  5  7  1  0  0  0  0
  7  8  1  0  0  0  0
  7  9  1  0  0  0  0
  9 10  1  0  0  0  0
  9 11  1  0  0  0  0
  9 29  1  0  0  0  0
 11 12  1  0  0  0  0
 11 13  1  0  0  0  0
 11 14  1  0  0  0  0
 14 15  2  0  0  0  0
 14 28  1  0  0  0  0
 15 16  1  0  0  0  0
 15 17  1  0  0  0  0
 17 18  1  0  0  0  0
 17 19  1  0  0  0  0
 19 20  1  0  0  0  0
 19 28  2  0  0  0  0
 20 21  1  0  0  0  0
 20 22  2  0  0  0  0
 22 23  1  0  0  0  0
 22 24  1  0  0  0  0
 24 25  1  0  0  0  0
 24 26  2  0  0  0  0
 26 27  1  0  0  0  0
 26 28  1  0  0  0  0
 29 30  2  0  0  0  0
 29 31  1  0  0  0  0
 31 32  1  0  0  0  0
 31 33  1  0  0  0  0
 33 34  1  0  0  0  0
 33 35  1  0  0  0  0
 33 36  1  0  0  0  0
M  END
$$$$

  -OEChem-03222214083D

 36 37  0     1  0  0  0  0  0999 V2000
   -3.3316   -4.6501    0.7662 H   0  0  0  0  0  0  0  0  0  0  0  0
   -3.2632   -3.8525    0.0208 C   0  0  0  0  0  0  0  0  0  0  0  0
   -4.1955   -3.2830    0.0298 H   0  0  0  0  0  0  0  0  0  0  0  0
   -3.1278   -4.3045   -0.9647 H   0  0  0  0  0  0  0  0  0  0  0  0
   -2.0943   -2.9399    0.3400 C   0  0  0  0  0  0  0  0  0  0  0  0
   -1.4417   -3.1258    1.3497 O   0  0  0  0  0  0  0  0  0  0  0  0
   -1.7859   -1.9001   -0.5150 N   0  0  0  0  0  0  0  0  0  0  0  0
   -2.3036   -1.8689   -1.3877 H   0  0  0  0  0  0  0  0  0  0  0  0
   -0.5871   -1.0442   -0.3882 C   0  0  1  0  0  0  0  0  0  0  0  0
    0.3088   -1.6722   -0.4518 H   0  0  0  0  0  0  0  0  0  0  0  0
   -0.6063   -0.0772   -1.5909 C   0  0  0  0  0  0  0  0  0  0  0  0
   -0.8682   -0.6399   -2.4909 H   0  0  0  0  0  0  0  0  0  0  0  0
   -1.3878    0.6745   -1.4417 H   0  0  0  0  0  0  0  0  0  0  0  0
    0.7049    0.6325   -1.8421 C   0  0  0  0  0  0  0  0  0  0  0  0
    1.3866    1.4718   -0.9898 C   0  0  0  0  0  0  0  0  0  0  0  0
    1.0786    1.7521    0.0156 H   0  0  0  0  0  0  0  0  0  0  0  0
    2.5445    1.8919   -1.6371 N   0  0  0  0  0  0  0  0  0  0  0  0
    3.2590    2.4890   -1.2265 H   0  0  0  0  0  0  0  0  0  0  0  0
    2.6215    1.3326   -2.8997 C   0  0  0  0  0  0  0  0  0  0  0  0
    3.5829    1.4505   -3.9031 C   0  0  0  0  0  0  0  0  0  0  0  0
    4.4574    2.0732   -3.7501 H   0  0  0  0  0  0  0  0  0  0  0  0
    3.4031    0.7549   -5.1062 C   0  0  0  0  0  0  0  0  0  0  0  0
    4.1443    0.8370   -5.8957 H   0  0  0  0  0  0  0  0  0  0  0  0
    2.2672   -0.0476   -5.2896 C   0  0  0  0  0  0  0  0  0  0  0  0
    2.1317   -0.5863   -6.2226 H   0  0  0  0  0  0  0  0  0  0  0  0
    1.3078   -0.1580   -4.2723 C   0  0  0  0  0  0  0  0  0  0  0  0
    0.4322   -0.7805   -4.4177 H   0  0  0  0  0  0  0  0  0  0  0  0
    1.4922    0.5390   -3.0714 C   0  0  0  0  0  0  0  0  0  0  0  0
   -0.5305   -0.2834    0.9591 C   0  0  0  0  0  0  0  0  0  0  0  0
    0.5320   -0.1147    1.5441 O   0  0  0  0  0  0  0  0  0  0  0  0
   -1.6653    0.3435    1.4446 N   0  0  0  0  0  0  0  0  0  0  0  0
   -2.5420    0.0681    1.0149 H   0  0  0  0  0  0  0  0  0  0  0  0
   -1.7044    1.0067    2.7419 C   0  0  0  0  0  0  0  0  0  0  0  0
   -0.9680    1.8161    2.7821 H   0  0  0  0  0  0  0  0  0  0  0  0
   -2.6958    1.4352    2.9171 H   0  0  0  0  0  0  0  0  0  0  0  0
   -1.4872    0.2923    3.5432 H   0  0  0  0  0  0  0  0  0  0  0  0
  1  2  1  0  0  0  0
  2  3  1  0  0  0  0
  2  4  1  0  0  0  0
  2  5  1  0  0  0  0
  5  6  2  0  0  0  0
  5  7  1  0  0  0  0
  7  8  1  0  0  0  0
  7  9  1  0  0  0  0
  9 10  1  0  0  0  0
  9 11  1  0  0  0  0
  9 29  1  0  0  0  0
 11 12  1  0  0  0  0
 11 13  1  0  0  0  0
 11 14  1  0  0  0  0
 14 15  2  0  0  0  0
 14 28  1  0  0  0  0
 15 16  1  0  0  0  0
 15 17  1  0  0  0  0
 17 18  1  0  0  0  0
 17 19  1  0  0  0  0
 19 20  1  0  0  0  0
 19 28  2  0  0  0  0
 20 21  1  0  0  0  0
 20 22  2  0  0  0  0
 22 23  1  0  0  0  0
 22 24  1  0  0  0  0
 24 25  1  0  0  0  0
 24 26  2  0  0  0  0
 26 27  1  0  0  0  0
 26 28  1  0  0  0  0
 29 30  2  0  0  0  0
 29 31  1  0  0  0  0
 31 32  1  0  0  0  0
 31 33  1  0  0  0  0
 33 34  1  0  0  0  0
 33 35  1  0  0  0  0
 33 36  1  0  0  0  0
M  END
$$$$

  -OEChem-03222214083D

 36 37  0     1  0  0  0  0  0999 V2000
   -3.3945   -4.6123    0.7383 H   0  0  0  0  0  0  0  0  0  0  0  0
   -3.3045   -3.8058    0.0045 C   0  0  0  0  0  0  0  0  0  0  0  0
   -4.2207   -3.2108    0.0219 H   0  0  0  0  0  0  0  0  0  0  0  0
   -3.1822   -4.2473   -0.9874 H   0  0  0  0  0  0  0  0  0  0  0  0
   -2.1106   -2.9304    0.3361 C   0  0  0  0  0  0  0  0  0  0  0  0
   -1.4705   -3.1424    1.3487 O   0  0  0  0  0  0  0  0  0  0  0  0
   -1.7642   -1.8957   -0.5112 N   0  0  0  0  0  0  0  0  0  0  0  0
   -2.2759   -1.8399   -1.3861 H   0  0  0  0  0  0  0  0  0  0  0  0
   -0.5569   -1.0562   -0.3546 C   0  0  1  0  0  0  0  0  0  0  0  0
    0.3331   -1.6941   -0.3936 H   0  0  0  0  0  0  0  0  0  0  0  0
   -0.5410   -0.0945   -1.5634 C   0  0  0  0  0  0  0  0  0  0  0  0
   -0.7802   -0.6787   -2.4563 H   0  0  0  0  0  0  0  0  0  0  0  0
   -1.3288    0.6560   -1.4456 H   0  0  0  0  0  0  0  0  0  0  0  0
    0.7684    0.6214   -1.8247 C   0  0  0  0  0  0  0  0  0  0  0  0
    1.6099    1.2503   -0.9322 C   0  0  0  0  0  0  0  0  0  0  0  0
    1.4664    1.3412    0.1410 H   0  0  0  0  0  0  0  0  0  0  0  0
    2.6884    1.7649   -1.6450 N   0  0  0  0  0  0  0  0  0  0  0  0
    3.4756    2.2629   -1.2345 H   0  0  0  0  0  0  0  0  0  0  0  0
    2.5560    1.4828   -2.9916 C   0  0  0  0  0  0  0  0  0  0  0  0
    3.3704    1.7889   -4.0814 C   0  0  0  0  0  0  0  0  0  0  0  0
    4.2908    2.3434   -3.9362 H   0  0  0  0  0  0  0  0  0  0  0  0
    2.9830    1.3709   -5.3614 C   0  0  0  0  0  0  0  0  0  0  0  0
    3.6073    1.6019   -6.2194 H   0  0  0  0  0  0  0  0  0  0  0  0
    1.7890    0.6553   -5.5340 C   0  0  0  0  0  0  0  0  0  0  0  0
    1.4914    0.3329   -6.5271 H   0  0  0  0  0  0  0  0  0  0  0  0
    0.9790    0.3546   -4.4291 C   0  0  0  0  0  0  0  0  0  0  0  0
    0.0571   -0.1985   -4.5685 H   0  0  0  0  0  0  0  0  0  0  0  0
    1.3712    0.7725   -3.1507 C   0  0  0  0  0  0  0  0  0  0  0  0
   -0.5370   -0.2995    0.9964 C   0  0  0  0  0  0  0  0  0  0  0  0
    0.4961   -0.1955    1.6455 O   0  0  0  0  0  0  0  0  0  0  0  0
   -1.6785    0.3392    1.4494 N   0  0  0  0  0  0  0  0  0  0  0  0
   -2.5399    0.1067    0.9671 H   0  0  0  0  0  0  0  0  0  0  0  0
   -1.7622    0.9660    2.7625 C   0  0  0  0  0  0  0  0  0  0  0  0
   -1.0150    1.7609    2.8574 H   0  0  0  0  0  0  0  0  0  0  0  0
   -2.7529    1.4068    2.9087 H   0  0  0  0  0  0  0  0  0  0  0  0
   -1.5915    0.2251    3.5509 H   0  0  0  0  0  0  0  0  0  0  0  0
  1  2  1  0  0  0  0
  2  3  1  0  0  0  0
  2  4  1  0  0  0  0
  2  5  1  0  0  0  0
  5  6  2  0  0  0  0
  5  7  1  0  0  0  0
  7  8  1  0  0  0  0
  7  9  1  0  0  0  0
  9 10  1  0  0  0  0
  9 11  1  0  0  0  0
  9 29  1  0  0  0  0
 11 12  1  0  0  0  0
 11 13  1  0  0  0  0
 11 14  1  0  0  0  0
 14 15  2  0  0  0  0
 14 28  1  0  0  0  0
 15 16  1  0  0  0  0
 15 17  1  0  0  0  0
 17 18  1  0  0  0  0
 17 19  1  0  0  0  0
 19 20  1  0  0  0  0
 19 28  2  0  0  0  0
 20 21  1  0  0  0  0
 20 22  2  0  0  0  0
 22 23  1  0  0  0  0
 22 24  1  0  0  0  0
 24 25  1  0  0  0  0
 24 26  2  0  0  0  0
 26 27  1  0  0  0  0
 26 28  1  0  0  0  0
 29 30  2  0  0  0  0
 29 31  1  0  0  0  0
 31 32  1  0  0  0  0
 31 33  1  0  0  0  0
 33 34  1  0  0  0  0
 33 35  1  0  0  0  0
 33 36  1  0  0  0  0
M  END
$$$$

  -OEChem-03222214083D

 36 37  0     1  0  0  0  0  0999 V2000
   -3.4689   -4.5723    0.7140 H   0  0  0  0  0  0  0  0  0  0  0  0
   -3.3397   -3.7786   -0.0275 C   0  0  0  0  0  0  0  0  0  0  0  0
   -4.2457   -3.1686   -0.0510 H   0  0  0  0  0  0  0  0  0  0  0  0
   -3.1894   -4.2367   -1.0079 H   0  0  0  0  0  0  0  0  0  0  0  0
   -2.1429   -2.9188    0.3334 C   0  0  0  0  0  0  0  0  0  0  0  0
   -1.5271   -3.1414    1.3586 O   0  0  0  0  0  0  0  0  0  0  0  0
   -1.7565   -1.8967   -0.5116 N   0  0  0  0  0  0  0  0  0  0  0  0
   -2.2501   -1.8342   -1.3963 H   0  0  0  0  0  0  0  0  0  0  0  0
   -0.5353   -1.0816   -0.3356 C   0  0  1  0  0  0  0  0  0  0  0  0
    0.3443   -1.7344   -0.3599 H   0  0  0  0  0  0  0  0  0  0  0  0
   -0.4909   -0.1202   -1.5434 C   0  0  0  0  0  0  0  0  0  0  0  0
   -0.7204   -0.7083   -2.4371 H   0  0  0  0  0  0  0  0  0  0  0  0
   -1.2745    0.6373   -1.4405 H   0  0  0  0  0  0  0  0  0  0  0  0
    0.8249    0.5823   -1.8069 C   0  0  0  0  0  0  0  0  0  0  0  0
    1.8201    0.9698   -0.9349 C   0  0  0  0  0  0  0  0  0  0  0  0
    1.8400    0.8221    0.1407 H   0  0  0  0  0  0  0  0  0  0  0  0
    2.8200    1.5962   -1.6728 N   0  0  0  0  0  0  0  0  0  0  0  0
    3.6789    1.9792   -1.2834 H   0  0  0  0  0  0  0  0  0  0  0  0
    2.4836    1.6302   -3.0130 C   0  0  0  0  0  0  0  0  0  0  0  0
    3.1504    2.1503   -4.1222 C   0  0  0  0  0  0  0  0  0  0  0  0
    4.1160    2.6294   -4.0041 H   0  0  0  0  0  0  0  0  0  0  0  0
    2.5548    2.0467   -5.3866 C   0  0  0  0  0  0  0  0  0  0  0  0
    3.0614    2.4487   -6.2591 H   0  0  0  0  0  0  0  0  0  0  0  0
    1.3042    1.4260   -5.5253 C   0  0  0  0  0  0  0  0  0  0  0  0
    0.8449    1.3482   -6.5060 H   0  0  0  0  0  0  0  0  0  0  0  0
    0.6451    0.9066   -4.4016 C   0  0  0  0  0  0  0  0  0  0  0  0
   -0.3222    0.4291   -4.5110 H   0  0  0  0  0  0  0  0  0  0  0  0
    1.2455    1.0115   -3.1407 C   0  0  0  0  0  0  0  0  0  0  0  0
   -0.5290   -0.3173    1.0120 C   0  0  0  0  0  0  0  0  0  0  0  0
    0.4847   -0.2498    1.6956 O   0  0  0  0  0  0  0  0  0  0  0  0
   -1.6668    0.3470    1.4358 N   0  0  0  0  0  0  0  0  0  0  0  0
   -2.5188    0.1494    0.9225 H   0  0  0  0  0  0  0  0  0  0  0  0
   -1.7683    0.9868    2.7411 C   0  0  0  0  0  0  0  0  0  0  0  0
   -0.9960    1.7548    2.8537 H   0  0  0  0  0  0  0  0  0  0  0  0
   -2.7461    1.4642    2.8527 H   0  0  0  0  0  0  0  0  0  0  0  0
   -1.6487    0.2467    3.5394 H   0  0  0  0  0  0  0  0  0  0  0  0
  1  2  1  0  0  0  0
  2  3  1  0  0  0  0
  2  4  1  0  0  0  0
  2  5  1  0  0  0  0
  5  6  2  0  0  0  0
  5  7  1  0  0  0  0
  7  8  1  0  0  0  0
  7  9  1  0  0  0  0
  9 10  1  0  0  0  0
  9 11  1  0  0  0  0
  9 29  1  0  0  0  0
 11 12  1  0  0  0  0
 11 13  1  0  0  0  0
 11 14  1  0  0  0  0
 14 15  2  0  0  0  0
 14 28  1  0  0  0  0
 15 16  1  0  0  0  0
 15 17  1  0  0  0  0
 17 18  1  0  0  0  0
 17 19  1  0  0  0  0
 19 20  1  0  0  0  0
 19 28  2  0  0  0  0
 20 21  1  0  0  0  0
 20 22  2  0  0  0  0
 22 23  1  0  0  0  0
 22 24  1  0  0  0  0
 24 25  1  0  0  0  0
 24 26  2  0  0  0  0
 26 27  1  0  0  0  0
 26 28  1  0  0  0  0
 29 30  2  0  0  0  0
 29 31  1  0  0  0  0
 31 32  1  0  0  0  0
 31 33  1  0  0  0  0
 33 34  1  0  0  0  0
 33 35  1  0  0  0  0
 33 36  1  0  0  0  0
M  END
$$$$

  -OEChem-03222214083D

 36 37  0     1  0  0  0  0  0999 V2000
   -3.5039   -4.5563    0.7298 H   0  0  0  0  0  0  0  0  0  0  0  0
   -3.3801   -3.7584   -0.0081 C   0  0  0  0  0  0  0  0  0  0  0  0
   -4.2737   -3.1298    0.0006 H   0  0  0  0  0  0  0  0  0  0  0  0
   -3.2682   -4.2102   -0.9967 H   0  0  0  0  0  0  0  0  0  0  0  0
   -2.1564   -2.9262    0.3255 C   0  0  0  0  0  0  0  0  0  0  0  0
   -1.5225   -3.1614    1.3371 O   0  0  0  0  0  0  0  0  0  0  0  0
   -1.7695   -1.9088   -0.5247 N   0  0  0  0  0  0  0  0  0  0  0  0
   -2.2814   -1.8302   -1.3977 H   0  0  0  0  0  0  0  0  0  0  0  0
   -0.5435   -1.1001   -0.3580 C   0  0  1  0  0  0  0  0  0  0  0  0
    0.3294   -1.7615   -0.3861 H   0  0  0  0  0  0  0  0  0  0  0  0
   -0.4950   -0.1384   -1.5635 C   0  0  0  0  0  0  0  0  0  0  0  0
   -0.7307   -0.7159   -2.4631 H   0  0  0  0  0  0  0  0  0  0  0  0
   -1.2699    0.6266   -1.4517 H   0  0  0  0  0  0  0  0  0  0  0  0
    0.8255    0.5518   -1.8256 C   0  0  0  0  0  0  0  0  0  0  0  0
    1.9374    0.6879   -1.0223 C   0  0  0  0  0  0  0  0  0  0  0  0
    2.0684    0.2859   -0.0210 H   0  0  0  0  0  0  0  0  0  0  0  0
    2.8831    1.4324   -1.7222 N   0  0  0  0  0  0  0  0  0  0  0  0
    3.7997    1.6940   -1.3652 H   0  0  0  0  0  0  0  0  0  0  0  0
    2.3974    1.7842   -2.9683 C   0  0  0  0  0  0  0  0  0  0  0  0
    2.9608    2.5179   -4.0120 C   0  0  0  0  0  0  0  0  0  0  0  0
    3.9610    2.9252   -3.9146 H   0  0  0  0  0  0  0  0  0  0  0  0
    2.2183    2.7195   -5.1838 C   0  0  0  0  0  0  0  0  0  0  0  0
    2.6454    3.2876   -6.0049 H   0  0  0  0  0  0  0  0  0  0  0  0
    0.9242    2.1885   -5.2957 C   0  0  0  0  0  0  0  0  0  0  0  0
    0.3512    2.3469   -6.2044 H   0  0  0  0  0  0  0  0  0  0  0  0
    0.3683    1.4544   -4.2379 C   0  0  0  0  0  0  0  0  0  0  0  0
   -0.6324    1.0451   -4.3224 H   0  0  0  0  0  0  0  0  0  0  0  0
    1.1168    1.2549   -3.0722 C   0  0  0  0  0  0  0  0  0  0  0  0
   -0.5163   -0.3280    0.9856 C   0  0  0  0  0  0  0  0  0  0  0  0
    0.5102   -0.2553    1.6494 O   0  0  0  0  0  0  0  0  0  0  0  0
   -1.6423    0.3490    1.4212 N   0  0  0  0  0  0  0  0  0  0  0  0
   -2.5043    0.1618    0.9210 H   0  0  0  0  0  0  0  0  0  0  0  0
   -1.7114    1.0194    2.7133 C   0  0  0  0  0  0  0  0  0  0  0  0
   -0.9347    1.7878    2.7881 H   0  0  0  0  0  0  0  0  0  0  0  0
   -2.6854    1.5020    2.8381 H   0  0  0  0  0  0  0  0  0  0  0  0
   -1.5733    0.2981    3.5259 H   0  0  0  0  0  0  0  0  0  0  0  0
  1  2  1  0  0  0  0
  2  3  1  0  0  0  0
  2  4  1  0  0  0  0
  2  5  1  0  0  0  0
  5  6  2  0  0  0  0
  5  7  1  0  0  0  0
  7  8  1  0  0  0  0
  7  9  1  0  0  0  0
  9 10  1  0  0  0  0
  9 11  1  0  0  0  0
  9 29  1  0  0  0  0
 11 12  1  0  0  0  0
 11 13  1  0  0  0  0
 11 14  1  0  0  0  0
 14 15  2  0  0  0  0
 14 28  1  0  0  0  0
 15 16  1  0  0  0  0
 15 17  1  0  0  0  0
 17 18  1  0  0  0  0
 17 19  1  0  0  0  0
 19 20  1  0  0  0  0
 19 28  2  0  0  0  0
 20 21  1  0  0  0  0
 20 22  2  0  0  0  0
 22 23  1  0  0  0  0
 22 24  1  0  0  0  0
 24 25  1  0  0  0  0
 24 26  2  0  0  0  0
 26 27  1  0  0  0  0
 26 28  1  0  0  0  0
 29 30  2  0  0  0  0
 29 31  1  0  0  0  0
 31 32  1  0  0  0  0
 31 33  1  0  0  0  0
 33 34  1  0  0  0  0
 33 35  1  0  0  0  0
 33 36  1  0  0  0  0
M  END
$$$$

  -OEChem-03222214083D

 36 37  0     1  0  0  0  0  0999 V2000
   -3.4841   -4.5710    0.7638 H   0  0  0  0  0  0  0  0  0  0  0  0
   -3.3826   -3.7749    0.0206 C   0  0  0  0  0  0  0  0  0  0  0  0
   -4.2771   -3.1482    0.0529 H   0  0  0  0  0  0  0  0  0  0  0  0
   -3.2973   -4.2285   -0.9698 H   0  0  0  0  0  0  0  0  0  0  0  0
   -2.1519   -2.9392    0.3176 C   0  0  0  0  0  0  0  0  0  0  0  0
   -1.4808   -3.1782    1.3041 O   0  0  0  0  0  0  0  0  0  0  0  0
   -1.8006   -1.9115   -0.5351 N   0  0  0  0  0  0  0  0  0  0  0  0
   -2.3432   -1.8240   -1.3886 H   0  0  0  0  0  0  0  0  0  0  0  0
   -0.5803   -1.0915   -0.3926 C   0  0  1  0  0  0  0  0  0  0  0  0
    0.2893   -1.7559   -0.4426 H   0  0  0  0  0  0  0  0  0  0  0  0
   -0.5496   -0.1264   -1.5944 C   0  0  0  0  0  0  0  0  0  0  0  0
   -0.7995   -0.6873   -2.5004 H   0  0  0  0  0  0  0  0  0  0  0  0
   -1.3186    0.6407   -1.4580 H   0  0  0  0  0  0  0  0  0  0  0  0
    0.7727    0.5598   -1.8495 C   0  0  0  0  0  0  0  0  0  0  0  0
    1.9646    0.4533   -1.1661 C   0  0  0  0  0  0  0  0  0  0  0  0
    2.1515   -0.1629   -0.2884 H   0  0  0  0  0  0  0  0  0  0  0  0
    2.8911    1.2819   -1.7935 N   0  0  0  0  0  0  0  0  0  0  0  0
    3.8515    1.4202   -1.4864 H   0  0  0  0  0  0  0  0  0  0  0  0
    2.3138    1.9223   -2.8759 C   0  0  0  0  0  0  0  0  0  0  0  0
    2.8261    2.8346   -3.7981 C   0  0  0  0  0  0  0  0  0  0  0  0
    3.8584    3.1590   -3.7290 H   0  0  0  0  0  0  0  0  0  0  0  0
    1.9902    3.3237   -4.8116 C   0  0  0  0  0  0  0  0  0  0  0  0
    2.3765    4.0340   -5.5365 H   0  0  0  0  0  0  0  0  0  0  0  0
    0.6556    2.8968   -4.8894 C   0  0  0  0  0  0  0  0  0  0  0  0
    0.0114    3.2782   -5.6758 H   0  0  0  0  0  0  0  0  0  0  0  0
    0.1514    1.9811   -3.9543 C   0  0  0  0  0  0  0  0  0  0  0  0
   -0.8803    1.6515   -4.0106 H   0  0  0  0  0  0  0  0  0  0  0  0
    0.9927    1.4971   -2.9462 C   0  0  0  0  0  0  0  0  0  0  0  0
   -0.5057   -0.3212    0.9490 C   0  0  0  0  0  0  0  0  0  0  0  0
    0.5544   -0.2256    1.5551 O   0  0  0  0  0  0  0  0  0  0  0  0
   -1.6172    0.3503    1.4277 N   0  0  0  0  0  0  0  0  0  0  0  0
   -2.4985    0.1561    0.9653 H   0  0  0  0  0  0  0  0  0  0  0  0
   -1.6324    1.0440    2.7091 C   0  0  0  0  0  0  0  0  0  0  0  0
   -0.8620    1.8220    2.7330 H   0  0  0  0  0  0  0  0  0  0  0  0
   -2.6050    1.5181    2.8707 H   0  0  0  0  0  0  0  0  0  0  0  0
   -1.4481    0.3398    3.5273 H   0  0  0  0  0  0  0  0  0  0  0  0
  1  2  1  0  0  0  0
  2  3  1  0  0  0  0
  2  4  1  0  0  0  0
  2  5  1  0  0  0  0
  5  6  2  0  0  0  0
  5  7  1  0  0  0  0
  7  8  1  0  0  0  0
  7  9  1  0  0  0  0
  9 10  1  0  0  0  0
  9 11  1  0  0  0  0
  9 29  1  0  0  0  0
 11 12  1  0  0  0  0
 11 13  1  0  0  0  0
 11 14  1  0  0  0  0
 14 15  2  0  0  0  0
 14 28  1  0  0  0  0
 15 16  1  0  0  0  0
 15 17  1  0  0  0  0
 17 18  1  0  0  0  0
 17 19  1  0  0  0  0
 19 20  1  0  0  0  0
 19 28  2  0  0  0  0
 20 21  1  0  0  0  0
 20 22  2  0  0  0  0
 22 23  1  0  0  0  0
 22 24  1  0  0  0  0
 24 25  1  0  0  0  0
 24 26  2  0  0  0  0
 26 27  1  0  0  0  0
 26 28  1  0  0  0  0
 29 30  2  0  0  0  0
 29 31  1  0  0  0  0
 31 32  1  0  0  0  0
 31 33  1  0  0  0  0
 33 34  1  0  0  0  0
 33 35  1  0  0  0  0
 33 36  1  0  0  0  0
M  END
$$$$

  -OEChem-03222214083D

 36 37  0     1  0  0  0  0  0999 V2000
   -3.4566   -4.6023    0.7620 H   0  0  0  0  0  0  0  0  0  0  0  0
   -3.3763   -3.8011    0.0216 C   0  0  0  0  0  0  0  0  0  0  0  0
   -4.2779   -3.1860    0.0704 H   0  0  0  0  0  0  0  0  0  0  0  0
   -3.3004   -4.2486   -0.9724 H   0  0  0  0  0  0  0  0  0  0  0  0
   -2.1518   -2.9512    0.3040 C   0  0  0  0  0  0  0  0  0  0  0  0
   -1.4568   -3.1905    1.2739 O   0  0  0  0  0  0  0  0  0  0  0  0
   -1.8322   -1.9088   -0.5428 N   0  0  0  0  0  0  0  0  0  0  0  0
   -2.3973   -1.8123   -1.3805 H   0  0  0  0  0  0  0  0  0  0  0  0
   -0.6210   -1.0752   -0.4134 C   0  0  1  0  0  0  0  0  0  0  0  0
    0.2438   -1.7436   -0.4796 H   0  0  0  0  0  0  0  0  0  0  0  0
   -0.6007   -0.1124   -1.6155 C   0  0  0  0  0  0  0  0  0  0  0  0
   -0.8536   -0.6636   -2.5265 H   0  0  0  0  0  0  0  0  0  0  0  0
   -1.3699    0.6518   -1.4657 H   0  0  0  0  0  0  0  0  0  0  0  0
    0.7224    0.5752   -1.8563 C   0  0  0  0  0  0  0  0  0  0  0  0
    1.9639    0.2683   -1.3446 C   0  0  0  0  0  0  0  0  0  0  0  0
    2.1840   -0.5218   -0.6284 H   0  0  0  0  0  0  0  0  0  0  0  0
    2.8799    1.1688   -1.8818 N   0  0  0  0  0  0  0  0  0  0  0  0
    3.8689    1.2064   -1.6448 H   0  0  0  0  0  0  0  0  0  0  0  0
    2.2464    2.0481   -2.7426 C   0  0  0  0  0  0  0  0  0  0  0  0
    2.7287    3.1094   -3.5086 C   0  0  0  0  0  0  0  0  0  0  0  0
    3.7823    3.3649   -3.4846 H   0  0  0  0  0  0  0  0  0  0  0  0
    1.8351    3.8372   -4.3070 C   0  0  0  0  0  0  0  0  0  0  0  0
    2.1974    4.6656   -4.9085 H   0  0  0  0  0  0  0  0  0  0  0  0
    0.4738    3.4963   -4.3291 C   0  0  0  0  0  0  0  0  0  0  0  0
   -0.2154    4.0618   -4.9488 H   0  0  0  0  0  0  0  0  0  0  0  0
    0.0005    2.4288   -3.5523 C   0  0  0  0  0  0  0  0  0  0  0  0
   -1.0511    2.1641   -3.5654 H   0  0  0  0  0  0  0  0  0  0  0  0
    0.8988    1.7084   -2.7575 C   0  0  0  0  0  0  0  0  0  0  0  0
   -0.4987   -0.3079    0.9238 C   0  0  0  0  0  0  0  0  0  0  0  0
    0.5904   -0.2021    1.4746 O   0  0  0  0  0  0  0  0  0  0  0  0
   -1.5912    0.3599    1.4483 N   0  0  0  0  0  0  0  0  0  0  0  0
   -2.4917    0.1597    1.0273 H   0  0  0  0  0  0  0  0  0  0  0  0
   -1.5492    1.0639    2.7233 C   0  0  0  0  0  0  0  0  0  0  0  0
   -0.7813    1.8445    2.7055 H   0  0  0  0  0  0  0  0  0  0  0  0
   -2.5146    1.5365    2.9264 H   0  0  0  0  0  0  0  0  0  0  0  0
   -1.3242    0.3667    3.5373 H   0  0  0  0  0  0  0  0  0  0  0  0
  1  2  1  0  0  0  0
  2  3  1  0  0  0  0
  2  4  1  0  0  0  0
  2  5  1  0  0  0  0
  5  6  2  0  0  0  0
  5  7  1  0  0  0  0
  7  8  1  0  0  0  0
  7  9  1  0  0  0  0
  9 10  1  0  0  0  0
  9 11  1  0  0  0  0
  9 29  1  0  0  0  0
 11 12  1  0  0  0  0
 11 13  1  0  0  0  0
 11 14  1  0  0  0  0
 14 15  2  0  0  0  0
 14 28  1  0  0  0  0
 15 16  1  0  0  0  0
 15 17  1  0  0  0  0
 17 18  1  0  0  0  0
 17 19  1  0  0  0  0
 19 20  1  0  0  0  0
 19 28  2  0  0  0  0
 20 21  1  0  0  0  0
 20 22  2  0  0  0  0
 22 23  1  0  0  0  0
 22 24  1  0  0  0  0
 24 25  1  0  0  0  0
 24 26  2  0  0  0  0
 26 27  1  0  0  0  0
 26 28  1  0  0  0  0
 29 30  2  0  0  0  0
 29 31  1  0  0  0  0
 31 32  1  0  0  0  0
 31 33  1  0  0  0  0
 33 34  1  0  0  0  0
 33 35  1  0  0  0  0
 33 36  1  0  0  0  0
M  END
$$$$

  -OEChem-03222214083D

 36 37  0     1  0  0  0  0  0999 V2000
   -3.4328   -4.6104    0.7987 H   0  0  0  0  0  0  0  0  0  0  0  0
   -3.3686   -3.8139    0.0518 C   0  0  0  0  0  0  0  0  0  0  0  0
   -4.2703   -3.2002    0.1147 H   0  0  0  0  0  0  0  0  0  0  0  0
   -3.3111   -4.2676   -0.9406 H   0  0  0  0  0  0  0  0  0  0  0  0
   -2.1401   -2.9609    0.3058 C   0  0  0  0  0  0  0  0  0  0  0  0
   -1.4212   -3.2017    1.2577 O   0  0  0  0  0  0  0  0  0  0  0  0
   -1.8432   -1.9147   -0.5445 N   0  0  0  0  0  0  0  0  0  0  0  0
   -2.4324   -1.8099   -1.3646 H   0  0  0  0  0  0  0  0  0  0  0  0
   -0.6379   -1.0700   -0.4315 C   0  0  1  0  0  0  0  0  0  0  0  0
    0.2272   -1.7363   -0.5045 H   0  0  0  0  0  0  0  0  0  0  0  0
   -0.6312   -0.1110   -1.6359 C   0  0  0  0  0  0  0  0  0  0  0  0
   -0.8875   -0.6603   -2.5470 H   0  0  0  0  0  0  0  0  0  0  0  0
   -1.4027    0.6491   -1.4788 H   0  0  0  0  0  0  0  0  0  0  0  0
    0.6923    0.5762   -1.8729 C   0  0  0  0  0  0  0  0  0  0  0  0
    1.9568    0.1109   -1.5892 C   0  0  0  0  0  0  0  0  0  0  0  0
    2.1961   -0.8285   -1.0952 H   0  0  0  0  0  0  0  0  0  0  0  0
    2.8698    1.0695   -2.0204 N   0  0  0  0  0  0  0  0  0  0  0  0
    3.8779    1.0157   -1.8920 H   0  0  0  0  0  0  0  0  0  0  0  0
    2.2094    2.1448   -2.5894 C   0  0  0  0  0  0  0  0  0  0  0  0
    2.6804    3.3288   -3.1571 C   0  0  0  0  0  0  0  0  0  0  0  0
    3.7456    3.5271   -3.2010 H   0  0  0  0  0  0  0  0  0  0  0  0
    1.7603    4.2545   -3.6688 C   0  0  0  0  0  0  0  0  0  0  0  0
    2.1131    5.1802   -4.1134 H   0  0  0  0  0  0  0  0  0  0  0  0
    0.3844    3.9859   -3.6064 C   0  0  0  0  0  0  0  0  0  0  0  0
   -0.3259    4.7049   -4.0033 H   0  0  0  0  0  0  0  0  0  0  0  0
   -0.0769    2.7931   -3.0309 C   0  0  0  0  0  0  0  0  0  0  0  0
   -1.1400    2.5853   -2.9797 H   0  0  0  0  0  0  0  0  0  0  0  0
    0.8475    1.8745   -2.5211 C   0  0  0  0  0  0  0  0  0  0  0  0
   -0.4926   -0.2988    0.9000 C   0  0  0  0  0  0  0  0  0  0  0  0
    0.6078   -0.1844    1.4252 O   0  0  0  0  0  0  0  0  0  0  0  0
   -1.5782    0.3638    1.4454 N   0  0  0  0  0  0  0  0  0  0  0  0
   -2.4865    0.1555    1.0462 H   0  0  0  0  0  0  0  0  0  0  0  0
   -1.5116    1.0768    2.7141 C   0  0  0  0  0  0  0  0  0  0  0  0
   -0.7429    1.8561    2.6756 H   0  0  0  0  0  0  0  0  0  0  0  0
   -2.4724    1.5523    2.9318 H   0  0  0  0  0  0  0  0  0  0  0  0
   -1.2726    0.3853    3.5290 H   0  0  0  0  0  0  0  0  0  0  0  0
  1  2  1  0  0  0  0
  2  3  1  0  0  0  0
  2  4  1  0  0  0  0
  2  5  1  0  0  0  0
  5  6  2  0  0  0  0
  5  7  1  0  0  0  0
  7  8  1  0  0  0  0
  7  9  1  0  0  0  0
  9 10  1  0  0  0  0
  9 11  1  0  0  0  0
  9 29  1  0  0  0  0
 11 12  1  0  0  0  0
 11 13  1  0  0  0  0
 11 14  1  0  0  0  0
 14 15  2  0  0  0  0
 14 28  1  0  0  0  0
 15 16  1  0  0  0  0
 15 17  1  0  0  0  0
 17 18  1  0  0  0  0
 17 19  1  0  0  0  0
 19 20  1  0  0  0  0
 19 28  2  0  0  0  0
 20 21  1  0  0  0  0
 20 22  2  0  0  0  0
 22 23  1  0  0  0  0
 22 24  1  0  0  0  0
 24 25  1  0  0  0  0
 24 26  2  0  0  0  0
 26 27  1  0  0  0  0
 26 28  1  0  0  0  0
 29 30  2  0  0  0  0
 29 31  1  0  0  0  0
 31 32  1  0  0  0  0
 31 33  1  0  0  0  0
 33 34  1  0  0  0  0
 33 35  1  0  0  0  0
 33 36  1  0  0  0  0
M  END
$$$$

  -OEChem-03222214083D

 36 37  0     1  0  0  0  0  0999 V2000
   -3.3958   -4.6106    0.8512 H   0  0  0  0  0  0  0  0  0  0  0  0
   -3.3456   -3.8208    0.0961 C   0  0  0  0  0  0  0  0  0  0  0  0
   -4.2469   -3.2077    0.1693 H   0  0  0  0  0  0  0  0  0  0  0  0
   -3.3046   -4.2838   -0.8928 H   0  0  0  0  0  0  0  0  0  0  0  0
   -2.1144   -2.9632    0.3207 C   0  0  0  0  0  0  0  0  0  0  0  0
   -1.3764   -3.1963    1.2597 O   0  0  0  0  0  0  0  0  0  0  0  0
   -1.8368   -1.9220   -0.5424 N   0  0  0  0  0  0  0  0  0  0  0  0
   -2.4470   -1.8190   -1.3471 H   0  0  0  0  0  0  0  0  0  0  0  0
   -0.6383   -1.0646   -0.4522 C   0  0  1  0  0  0  0  0  0  0  0  0
    0.2359   -1.7188   -0.5295 H   0  0  0  0  0  0  0  0  0  0  0  0
   -0.6592   -0.1128   -1.6617 C   0  0  0  0  0  0  0  0  0  0  0  0
   -0.9174   -0.6702   -2.5674 H   0  0  0  0  0  0  0  0  0  0  0  0
   -1.4379    0.6395   -1.5050 H   0  0  0  0  0  0  0  0  0  0  0  0
    0.6621    0.5743   -1.9048 C   0  0  0  0  0  0  0  0  0  0  0  0
    1.9138    0.0024   -1.8898 C   0  0  0  0  0  0  0  0  0  0  0  0
    2.1362   -1.0372   -1.6607 H   0  0  0  0  0  0  0  0  0  0  0  0
    2.8388    0.9951   -2.2010 N   0  0  0  0  0  0  0  0  0  0  0  0
    3.8490    0.8728   -2.2124 H   0  0  0  0  0  0  0  0  0  0  0  0
    2.1959    2.2008   -2.4232 C   0  0  0  0  0  0  0  0  0  0  0  0
    2.6867    3.4627   -2.7585 C   0  0  0  0  0  0  0  0  0  0  0  0
    3.7523    3.6173   -2.8865 H   0  0  0  0  0  0  0  0  0  0  0  0
    1.7857    4.5232   -2.9275 C   0  0  0  0  0  0  0  0  0  0  0  0
    2.1541    5.5106   -3.1889 H   0  0  0  0  0  0  0  0  0  0  0  0
    0.4092    4.3097   -2.7579 C   0  0  0  0  0  0  0  0  0  0  0  0
   -0.2864    5.1332   -2.8879 H   0  0  0  0  0  0  0  0  0  0  0  0
   -0.0715    3.0369   -2.4177 C   0  0  0  0  0  0  0  0  0  0  0  0
   -1.1349    2.8740   -2.2825 H   0  0  0  0  0  0  0  0  0  0  0  0
    0.8335    1.9820   -2.2513 C   0  0  0  0  0  0  0  0  0  0  0  0
   -0.4872   -0.2803    0.8715 C   0  0  0  0  0  0  0  0  0  0  0  0
    0.6145   -0.1551    1.3907 O   0  0  0  0  0  0  0  0  0  0  0  0
   -1.5747    0.3755    1.4221 N   0  0  0  0  0  0  0  0  0  0  0  0
   -2.4844    0.1506    1.0352 H   0  0  0  0  0  0  0  0  0  0  0  0
   -1.5054    1.0890    2.6906 C   0  0  0  0  0  0  0  0  0  0  0  0
   -0.7391    1.8706    2.6498 H   0  0  0  0  0  0  0  0  0  0  0  0
   -2.4669    1.5615    2.9121 H   0  0  0  0  0  0  0  0  0  0  0  0
   -1.2616    0.3983    3.5046 H   0  0  0  0  0  0  0  0  0  0  0  0
  1  2  1  0  0  0  0
  2  3  1  0  0  0  0
  2  4  1  0  0  0  0
  2  5  1  0  0  0  0
  5  6  2  0  0  0  0
  5  7  1  0  0  0  0
  7  8  1  0  0  0  0
  7  9  1  0  0  0  0
  9 10  1  0  0  0  0
  9 11  1  0  0  0  0
  9 29  1  0  0  0  0
 11 12  1  0  0  0  0
 11 13  1  0  0  0  0
 11 14  1  0  0  0  0
 14 15  2  0  0  0  0
 14 28  1  0  0  0  0
 15 16  1  0  0  0  0
 15 17  1  0  0  0  0
 17 18  1  0  0  0  0
 17 19  1  0  0  0  0
 19 20  1  0  0  0  0
 19 28  2  0  0  0  0
 20 21  1  0  0  0  0
 20 22  2  0  0  0  0
 22 23  1  0  0  0  0
 22 24  1  0  0  0  0
 24 25  1  0  0  0  0
 24 26  2  0  0  0  0
 26 27  1  0  0  0  0
 26 28  1  0  0  0  0
 29 30  2  0  0  0  0
 29 31  1  0  0  0  0
 31 32  1  0  0  0  0
 31 33  1  0  0  0  0
 33 34  1  0  0  0  0
 33 35  1  0  0  0  0
 33 36  1  0  0  0  0
M  END
$$$$

  -OEChem-03222214083D

 36 37  0     1  0  0  0  0  0999 V2000
   -3.3522   -4.6118    0.8972 H   0  0  0  0  0  0  0  0  0  0  0  0
   -3.3085   -3.8359    0.1274 C   0  0  0  0  0  0  0  0  0  0  0  0
   -4.2199   -3.2358    0.1821 H   0  0  0  0  0  0  0  0  0  0  0  0
   -3.2537   -4.3166   -0.8524 H   0  0  0  0  0  0  0  0  0  0  0  0
   -2.0917   -2.9554    0.3429 C   0  0  0  0  0  0  0  0  0  0  0  0
   -1.3491   -3.1677    1.2828 O   0  0  0  0  0  0  0  0  0  0  0  0
   -1.8280   -1.9243   -0.5365 N   0  0  0  0  0  0  0  0  0  0  0  0
   -2.4392   -1.8443   -1.3428 H   0  0  0  0  0  0  0  0  0  0  0  0
   -0.6346   -1.0569   -0.4700 C   0  0  1  0  0  0  0  0  0  0  0  0
    0.2504   -1.6965   -0.5533 H   0  0  0  0  0  0  0  0  0  0  0  0
   -0.6883   -0.1146   -1.6849 C   0  0  0  0  0  0  0  0  0  0  0  0
   -0.9437   -0.6894   -2.5807 H   0  0  0  0  0  0  0  0  0  0  0  0
   -1.4758    0.6302   -1.5377 H   0  0  0  0  0  0  0  0  0  0  0  0
    0.6269    0.5733   -1.9434 C   0  0  0  0  0  0  0  0  0  0  0  0
    1.8273   -0.0373   -2.2207 C   0  0  0  0  0  0  0  0  0  0  0  0
    1.9961   -1.1104   -2.2719 H   0  0  0  0  0  0  0  0  0  0  0  0
    2.7771    0.9627   -2.4106 N   0  0  0  0  0  0  0  0  0  0  0  0
    3.7681    0.8072   -2.5812 H   0  0  0  0  0  0  0  0  0  0  0  0
    2.1998    2.2117   -2.2530 C   0  0  0  0  0  0  0  0  0  0  0  0
    2.7380    3.4960   -2.3370 C   0  0  0  0  0  0  0  0  0  0  0  0
    3.7894    3.6333   -2.5637 H   0  0  0  0  0  0  0  0  0  0  0  0
    1.9036    4.6016   -2.1217 C   0  0  0  0  0  0  0  0  0  0  0  0
    2.3096    5.6069   -2.1819 H   0  0  0  0  0  0  0  0  0  0  0  0
    0.5461    4.4098   -1.8229 C   0  0  0  0  0  0  0  0  0  0  0  0
   -0.0968    5.2676   -1.6513 H   0  0  0  0  0  0  0  0  0  0  0  0
    0.0175    3.1136   -1.7387 C   0  0  0  0  0  0  0  0  0  0  0  0
   -1.0297    2.9661   -1.4995 H   0  0  0  0  0  0  0  0  0  0  0  0
    0.8551    2.0142   -1.9594 C   0  0  0  0  0  0  0  0  0  0  0  0
   -0.4803   -0.2542    0.8426 C   0  0  0  0  0  0  0  0  0  0  0  0
    0.6214   -0.1149    1.3573 O   0  0  0  0  0  0  0  0  0  0  0  0
   -1.5708    0.3989    1.3906 N   0  0  0  0  0  0  0  0  0  0  0  0
   -2.4801    0.1653    1.0081 H   0  0  0  0  0  0  0  0  0  0  0  0
   -1.4996    1.1372    2.6448 C   0  0  0  0  0  0  0  0  0  0  0  0
   -0.7478    1.9309    2.5796 H   0  0  0  0  0  0  0  0  0  0  0  0
   -2.4664    1.5976    2.8686 H   0  0  0  0  0  0  0  0  0  0  0  0
   -1.2333    0.4662    3.4685 H   0  0  0  0  0  0  0  0  0  0  0  0
  1  2  1  0  0  0  0
  2  3  1  0  0  0  0
  2  4  1  0  0  0  0
  2  5  1  0  0  0  0
  5  6  2  0  0  0  0
  5  7  1  0  0  0  0
  7  8  1  0  0  0  0
  7  9  1  0  0  0  0
  9 10  1  0  0  0  0
  9 11  1  0  0  0  0
  9 29  1  0  0  0  0
 11 12  1  0  0  0  0
 11 13  1  0  0  0  0
 11 14  1  0  0  0  0
 14 15  2  0  0  0  0
 14 28  1  0  0  0  0
 15 16  1  0  0  0  0
 15 17  1  0  0  0  0
 17 18  1  0  0  0  0
 17 19  1  0  0  0  0
 19 20  1  0  0  0  0
 19 28  2  0  0  0  0
 20 21  1  0  0  0  0
 20 22  2  0  0  0  0
 22 23  1  0  0  0  0
 22 24  1  0  0  0  0
 24 25  1  0  0  0  0
 24 26  2  0  0  0  0
 26 27  1  0  0  0  0
 26 28  1  0  0  0  0
 29 30  2  0  0  0  0
 29 31  1  0  0  0  0
 31 32  1  0  0  0  0
 31 33  1  0  0  0  0
 33 34  1  0  0  0  0
 33 35  1  0  0  0  0
 33 36  1  0  0  0  0
M  END
$$$$

  -OEChem-03222214083D

 36 37  0     1  0  0  0  0  0999 V2000
   -3.3224   -4.6025    0.9315 H   0  0  0  0  0  0  0  0  0  0  0  0
   -3.2844   -3.8370    0.1509 C   0  0  0  0  0  0  0  0  0  0  0  0
   -4.2003   -3.2431    0.1974 H   0  0  0  0  0  0  0  0  0  0  0  0
   -3.2258   -4.3311   -0.8218 H   0  0  0  0  0  0  0  0  0  0  0  0
   -2.0736   -2.9452    0.3547 C   0  0  0  0  0  0  0  0  0  0  0  0
   -1.3294   -3.1419    1.2966 O   0  0  0  0  0  0  0  0  0  0  0  0
   -1.8199   -1.9200   -0.5348 N   0  0  0  0  0  0  0  0  0  0  0  0
   -2.4337   -1.8522   -1.3403 H   0  0  0  0  0  0  0  0  0  0  0  0
   -0.6294   -1.0467   -0.4822 C   0  0  1  0  0  0  0  0  0  0  0  0
    0.2623   -1.6766   -0.5725 H   0  0  0  0  0  0  0  0  0  0  0  0
   -0.7034   -0.1074   -1.6974 C   0  0  0  0  0  0  0  0  0  0  0  0
   -0.9604   -0.6922   -2.5862 H   0  0  0  0  0  0  0  0  0  0  0  0
   -1.4943    0.6355   -1.5550 H   0  0  0  0  0  0  0  0  0  0  0  0
    0.6083    0.5813   -1.9647 C   0  0  0  0  0  0  0  0  0  0  0  0
    1.7273    0.0139   -2.5263 C   0  0  0  0  0  0  0  0  0  0  0  0
    1.8216   -1.0219   -2.8442 H   0  0  0  0  0  0  0  0  0  0  0  0
    2.7061    1.0015   -2.6066 N   0  0  0  0  0  0  0  0  0  0  0  0
    3.6566    0.8626   -2.9420 H   0  0  0  0  0  0  0  0  0  0  0  0
    2.2303    2.1954   -2.0891 C   0  0  0  0  0  0  0  0  0  0  0  0
    2.8306    3.4461   -1.9417 C   0  0  0  0  0  0  0  0  0  0  0  0
    3.8520    3.6040   -2.2694 H   0  0  0  0  0  0  0  0  0  0  0  0
    2.0985    4.4912   -1.3612 C   0  0  0  0  0  0  0  0  0  0  0  0
    2.5541    5.4689   -1.2371 H   0  0  0  0  0  0  0  0  0  0  0  0
    0.7807    4.2722   -0.9317 C   0  0  0  0  0  0  0  0  0  0  0  0
    0.2192    5.0802   -0.4731 H   0  0  0  0  0  0  0  0  0  0  0  0
    0.1885    3.0101   -1.0839 C   0  0  0  0  0  0  0  0  0  0  0  0
   -0.8249    2.8351   -0.7398 H   0  0  0  0  0  0  0  0  0  0  0  0
    0.9226    1.9747   -1.6726 C   0  0  0  0  0  0  0  0  0  0  0  0
   -0.4742   -0.2343    0.8247 C   0  0  0  0  0  0  0  0  0  0  0  0
    0.6272   -0.0835    1.3364 O   0  0  0  0  0  0  0  0  0  0  0  0
   -1.5669    0.4166    1.3718 N   0  0  0  0  0  0  0  0  0  0  0  0
   -2.4768    0.1639    1.0031 H   0  0  0  0  0  0  0  0  0  0  0  0
   -1.4930    1.1702    2.6168 C   0  0  0  0  0  0  0  0  0  0  0  0
   -0.7424    1.9641    2.5400 H   0  0  0  0  0  0  0  0  0  0  0  0
   -2.4596    1.6323    2.8380 H   0  0  0  0  0  0  0  0  0  0  0  0
   -1.2234    0.5097    3.4475 H   0  0  0  0  0  0  0  0  0  0  0  0
  1  2  1  0  0  0  0
  2  3  1  0  0  0  0
  2  4  1  0  0  0  0
  2  5  1  0  0  0  0
  5  6  2  0  0  0  0
  5  7  1  0  0  0  0
  7  8  1  0  0  0  0
  7  9  1  0  0  0  0
  9 10  1  0  0  0  0
  9 11  1  0  0  0  0
  9 29  1  0  0  0  0
 11 12  1  0  0  0  0
 11 13  1  0  0  0  0
 11 14  1  0  0  0  0
 14 15  2  0  0  0  0
 14 28  1  0  0  0  0
 15 16  1  0  0  0  0
 15 17  1  0  0  0  0
 17 18  1  0  0  0  0
 17 19  1  0  0  0  0
 19 20  1  0  0  0  0
 19 28  2  0  0  0  0
 20 21  1  0  0  0  0
 20 22  2  0  0  0  0
 22 23  1  0  0  0  0
 22 24  1  0  0  0  0
 24 25  1  0  0  0  0
 24 26  2  0  0  0  0
 26 27  1  0  0  0  0
 26 28  1  0  0  0  0
 29 30  2  0  0  0  0
 29 31  1  0  0  0  0
 31 32  1  0  0  0  0
 31 33  1  0  0  0  0
 33 34  1  0  0  0  0
 33 35  1  0  0  0  0
 33 36  1  0  0  0  0
M  END
$$$$

  -OEChem-03222214083D

 36 37  0     1  0  0  0  0  0999 V2000
   -3.3335   -4.5987    0.8964 H   0  0  0  0  0  0  0  0  0  0  0  0
   -3.2961   -3.8127    0.1365 C   0  0  0  0  0  0  0  0  0  0  0  0
   -4.2029   -3.2077    0.2118 H   0  0  0  0  0  0  0  0  0  0  0  0
   -3.2572   -4.2810   -0.8500 H   0  0  0  0  0  0  0  0  0  0  0  0
   -2.0720   -2.9418    0.3481 C   0  0  0  0  0  0  0  0  0  0  0  0
   -1.3271   -3.1625    1.2842 O   0  0  0  0  0  0  0  0  0  0  0  0
   -1.8126   -1.9037   -0.5245 N   0  0  0  0  0  0  0  0  0  0  0  0
   -2.4322   -1.8140   -1.3233 H   0  0  0  0  0  0  0  0  0  0  0  0
   -0.6183   -1.0362   -0.4588 C   0  0  1  0  0  0  0  0  0  0  0  0
    0.2728   -1.6667   -0.5537 H   0  0  0  0  0  0  0  0  0  0  0  0
   -0.6845   -0.0891   -1.6702 C   0  0  0  0  0  0  0  0  0  0  0  0
   -0.9447   -0.6695   -2.5609 H   0  0  0  0  0  0  0  0  0  0  0  0
   -1.4700    0.6591   -1.5256 H   0  0  0  0  0  0  0  0  0  0  0  0
    0.6284    0.5987   -1.9327 C   0  0  0  0  0  0  0  0  0  0  0  0
    1.6344    0.1299   -2.7434 C   0  0  0  0  0  0  0  0  0  0  0  0
    1.6284   -0.8172   -3.2776 H   0  0  0  0  0  0  0  0  0  0  0  0
    2.6516    1.0807   -2.7479 N   0  0  0  0  0  0  0  0  0  0  0  0
    3.5417    0.9903   -3.2325 H   0  0  0  0  0  0  0  0  0  0  0  0
    2.3042    2.1614   -1.9537 C   0  0  0  0  0  0  0  0  0  0  0  0
    2.9820    3.3418   -1.6495 C   0  0  0  0  0  0  0  0  0  0  0  0
    3.9662    3.5288   -2.0637 H   0  0  0  0  0  0  0  0  0  0  0  0
    2.3760    4.2775   -0.7998 C   0  0  0  0  0  0  0  0  0  0  0  0
    2.8933    5.1991   -0.5513 H   0  0  0  0  0  0  0  0  0  0  0  0
    1.1045    4.0214   -0.2646 C   0  0  0  0  0  0  0  0  0  0  0  0
    0.6404    4.7435    0.3997 H   0  0  0  0  0  0  0  0  0  0  0  0
    0.4342    2.8300   -0.5759 C   0  0  0  0  0  0  0  0  0  0  0  0
   -0.5426    2.6243   -0.1523 H   0  0  0  0  0  0  0  0  0  0  0  0
    1.0444    1.9016   -1.4265 C   0  0  0  0  0  0  0  0  0  0  0  0
   -0.4727   -0.2513    0.8658 C   0  0  0  0  0  0  0  0  0  0  0  0
    0.6213   -0.1185    1.3971 O   0  0  0  0  0  0  0  0  0  0  0  0
   -1.5712    0.3875    1.4165 N   0  0  0  0  0  0  0  0  0  0  0  0
   -2.4757    0.1328    1.0359 H   0  0  0  0  0  0  0  0  0  0  0  0
   -1.5178    1.0699    2.7031 C   0  0  0  0  0  0  0  0  0  0  0  0
   -0.7509    1.8518    2.6914 H   0  0  0  0  0  0  0  0  0  0  0  0
   -2.4815    1.5378    2.9246 H   0  0  0  0  0  0  0  0  0  0  0  0
   -1.2833    0.3590    3.5023 H   0  0  0  0  0  0  0  0  0  0  0  0
  1  2  1  0  0  0  0
  2  3  1  0  0  0  0
  2  4  1  0  0  0  0
  2  5  1  0  0  0  0
  5  6  2  0  0  0  0
  5  7  1  0  0  0  0
  7  8  1  0  0  0  0
  7  9  1  0  0  0  0
  9 10  1  0  0  0  0
  9 11  1  0  0  0  0
  9 29  1  0  0  0  0
 11 12  1  0  0  0  0
 11 13  1  0  0  0  0
 11 14  1  0  0  0  0
 14 15  2  0  0  0  0
 14 28  1  0  0  0  0
 15 16  1  0  0  0  0
 15 17  1  0  0  0  0
 17 18  1  0  0  0  0
 17 19  1  0  0  0  0
 19 20  1  0  0  0  0
 19 28  2  0  0  0  0
 20 21  1  0  0  0  0
 20 22  2  0  0  0  0
 22 23  1  0  0  0  0
 22 24  1  0  0  0  0
 24 25  1  0  0  0  0
 24 26  2  0  0  0  0
 26 27  1  0  0  0  0
 26 28  1  0  0  0  0
 29 30  2  0  0  0  0
 29 31  1  0  0  0  0
 31 32  1  0  0  0  0
 31 33  1  0  0  0  0
 33 34  1  0  0  0  0
 33 35  1  0  0  0  0
 33 36  1  0  0  0  0
M  END
$$$$

  -OEChem-03222214083D

 36 37  0     1  0  0  0  0  0999 V2000
   -3.4213   -4.6027    0.7984 H   0  0  0  0  0  0  0  0  0  0  0  0
   -3.3513   -3.7972    0.0617 C   0  0  0  0  0  0  0  0  0  0  0  0
   -4.2490   -3.1784    0.1315 H   0  0  0  0  0  0  0  0  0  0  0  0
   -3.2958   -4.2385   -0.9363 H   0  0  0  0  0  0  0  0  0  0  0  0
   -2.1180   -2.9546    0.3277 C   0  0  0  0  0  0  0  0  0  0  0  0
   -1.4022   -3.2141    1.2763 O   0  0  0  0  0  0  0  0  0  0  0  0
   -1.8202   -1.8975   -0.5095 N   0  0  0  0  0  0  0  0  0  0  0  0
   -2.4137   -1.7830   -1.3246 H   0  0  0  0  0  0  0  0  0  0  0  0
   -0.6079   -1.0589   -0.4002 C   0  0  1  0  0  0  0  0  0  0  0  0
    0.2728   -1.7039   -0.4938 H   0  0  0  0  0  0  0  0  0  0  0  0
   -0.6356   -0.0901   -1.5994 C   0  0  0  0  0  0  0  0  0  0  0  0
   -0.9056   -0.6509   -2.4997 H   0  0  0  0  0  0  0  0  0  0  0  0
   -1.4074    0.6705   -1.4437 H   0  0  0  0  0  0  0  0  0  0  0  0
    0.6845    0.5935   -1.8551 C   0  0  0  0  0  0  0  0  0  0  0  0
    1.5410    0.2680   -2.8809 C   0  0  0  0  0  0  0  0  0  0  0  0
    1.4057   -0.5533   -3.5806 H   0  0  0  0  0  0  0  0  0  0  0  0
    2.6002    1.1699   -2.8588 N   0  0  0  0  0  0  0  0  0  0  0  0
    3.4038    1.1545   -3.4827 H   0  0  0  0  0  0  0  0  0  0  0  0
    2.4134    2.1021   -1.8532 C   0  0  0  0  0  0  0  0  0  0  0  0
    3.1833    3.1990   -1.4668 C   0  0  0  0  0  0  0  0  0  0  0  0
    4.1113    3.4238   -1.9801 H   0  0  0  0  0  0  0  0  0  0  0  0
    2.7406    4.0044   -0.4093 C   0  0  0  0  0  0  0  0  0  0  0  0
    3.3313    4.8588   -0.0929 H   0  0  0  0  0  0  0  0  0  0  0  0
    1.5343    3.7066    0.2408 C   0  0  0  0  0  0  0  0  0  0  0  0
    1.1924    4.3291    1.0617 H   0  0  0  0  0  0  0  0  0  0  0  0
    0.7698    2.6015   -0.1592 C   0  0  0  0  0  0  0  0  0  0  0  0
   -0.1601    2.3757    0.3488 H   0  0  0  0  0  0  0  0  0  0  0  0
    1.2215    1.7897   -1.2065 C   0  0  0  0  0  0  0  0  0  0  0  0
   -0.4841   -0.3244    0.9542 C   0  0  0  0  0  0  0  0  0  0  0  0
    0.5930   -0.2416    1.5283 O   0  0  0  0  0  0  0  0  0  0  0  0
   -1.5872    0.3130    1.4972 N   0  0  0  0  0  0  0  0  0  0  0  0
   -2.4829    0.0889    1.0783 H   0  0  0  0  0  0  0  0  0  0  0  0
   -1.5666    0.9193    2.8222 C   0  0  0  0  0  0  0  0  0  0  0  0
   -0.7926    1.6919    2.8787 H   0  0  0  0  0  0  0  0  0  0  0  0
   -2.5326    1.3836    3.0416 H   0  0  0  0  0  0  0  0  0  0  0  0
   -1.3630    0.1607    3.5855 H   0  0  0  0  0  0  0  0  0  0  0  0
  1  2  1  0  0  0  0
  2  3  1  0  0  0  0
  2  4  1  0  0  0  0
  2  5  1  0  0  0  0
  5  6  2  0  0  0  0
  5  7  1  0  0  0  0
  7  8  1  0  0  0  0
  7  9  1  0  0  0  0
  9 10  1  0  0  0  0
  9 11  1  0  0  0  0
  9 29  1  0  0  0  0
 11 12  1  0  0  0  0
 11 13  1  0  0  0  0
 11 14  1  0  0  0  0
 14 15  2  0  0  0  0
 14 28  1  0  0  0  0
 15 16  1  0  0  0  0
 15 17  1  0  0  0  0
 17 18  1  0  0  0  0
 17 19  1  0  0  0  0
 19 20  1  0  0  0  0
 19 28  2  0  0  0  0
 20 21  1  0  0  0  0
 20 22  2  0  0  0  0
 22 23  1  0  0  0  0
 22 24  1  0  0  0  0
 24 25  1  0  0  0  0
 24 26  2  0  0  0  0
 26 27  1  0  0  0  0
 26 28  1  0  0  0  0
 29 30  2  0  0  0  0
 29 31  1  0  0  0  0
 31 32  1  0  0  0  0
 31 33  1  0  0  0  0
 33 34  1  0  0  0  0
 33 35  1  0  0  0  0
 33 36  1  0  0  0  0
M  END
$$$$

  -OEChem-03222214083D

 36 37  0     1  0  0  0  0  0999 V2000
   -3.5675   -4.5866    0.6756 H   0  0  0  0  0  0  0  0  0  0  0  0
   -3.4455   -3.7644   -0.0356 C   0  0  0  0  0  0  0  0  0  0  0  0
   -4.3233   -3.1165    0.0230 H   0  0  0  0  0  0  0  0  0  0  0  0
   -3.3728   -4.1809   -1.0431 H   0  0  0  0  0  0  0  0  0  0  0  0
   -2.1927   -2.9737    0.2926 C   0  0  0  0  0  0  0  0  0  0  0  0
   -1.5162   -3.2873    1.2534 O   0  0  0  0  0  0  0  0  0  0  0  0
   -1.8324   -1.9041   -0.5036 N   0  0  0  0  0  0  0  0  0  0  0  0
   -2.3979   -1.7453   -1.3310 H   0  0  0  0  0  0  0  0  0  0  0  0
   -0.5955   -1.1107   -0.3354 C   0  0  1  0  0  0  0  0  0  0  0  0
    0.2681   -1.7802   -0.4183 H   0  0  0  0  0  0  0  0  0  0  0  0
   -0.5645   -0.1253   -1.5255 C   0  0  0  0  0  0  0  0  0  0  0  0
   -0.8458   -0.6663   -2.4348 H   0  0  0  0  0  0  0  0  0  0  0  0
   -1.3180    0.6517   -1.3626 H   0  0  0  0  0  0  0  0  0  0  0  0
    0.7645    0.5513   -1.7789 C   0  0  0  0  0  0  0  0  0  0  0  0
    1.4458    0.4085   -2.9666 C   0  0  0  0  0  0  0  0  0  0  0  0
    1.1642   -0.2583   -3.7782 H   0  0  0  0  0  0  0  0  0  0  0  0
    2.5488    1.2528   -2.9435 N   0  0  0  0  0  0  0  0  0  0  0  0
    3.2458    1.3389   -3.6799 H   0  0  0  0  0  0  0  0  0  0  0  0
    2.5458    2.0034   -1.7835 C   0  0  0  0  0  0  0  0  0  0  0  0
    3.4177    3.0048   -1.3566 C   0  0  0  0  0  0  0  0  0  0  0  0
    4.2780    3.2752   -1.9583 H   0  0  0  0  0  0  0  0  0  0  0  0
    3.1620    3.6590   -0.1458 C   0  0  0  0  0  0  0  0  0  0  0  0
    3.8325    4.4374    0.2058 H   0  0  0  0  0  0  0  0  0  0  0  0
    2.0326    3.3135    0.6081 C   0  0  0  0  0  0  0  0  0  0  0  0
    1.8273    3.8230    1.5443 H   0  0  0  0  0  0  0  0  0  0  0  0
    1.1652    2.3062    0.1629 C   0  0  0  0  0  0  0  0  0  0  0  0
    0.2924    2.0656    0.7556 H   0  0  0  0  0  0  0  0  0  0  0  0
    1.4353    1.6245   -1.0318 C   0  0  0  0  0  0  0  0  0  0  0  0
   -0.5022   -0.4261    1.0462 C   0  0  0  0  0  0  0  0  0  0  0  0
    0.5455   -0.4256    1.6781 O   0  0  0  0  0  0  0  0  0  0  0  0
   -1.6049    0.2275    1.5708 N   0  0  0  0  0  0  0  0  0  0  0  0
   -2.4862    0.0693    1.0953 H   0  0  0  0  0  0  0  0  0  0  0  0
   -1.6283    0.7647    2.9254 C   0  0  0  0  0  0  0  0  0  0  0  0
   -0.8317    1.5039    3.0599 H   0  0  0  0  0  0  0  0  0  0  0  0
   -2.5870    1.2534    3.1224 H   0  0  0  0  0  0  0  0  0  0  0  0
   -1.4901   -0.0386    3.6566 H   0  0  0  0  0  0  0  0  0  0  0  0
  1  2  1  0  0  0  0
  2  3  1  0  0  0  0
  2  4  1  0  0  0  0
  2  5  1  0  0  0  0
  5  6  2  0  0  0  0
  5  7  1  0  0  0  0
  7  8  1  0  0  0  0
  7  9  1  0  0  0  0
  9 10  1  0  0  0  0
  9 11  1  0  0  0  0
  9 29  1  0  0  0  0
 11 12  1  0  0  0  0
 11 13  1  0  0  0  0
 11 14  1  0  0  0  0
 14 15  2  0  0  0  0
 14 28  1  0  0  0  0
 15 16  1  0  0  0  0
 15 17  1  0  0  0  0
 17 18  1  0  0  0  0
 17 19  1  0  0  0  0
 19 20  1  0  0  0  0
 19 28  2  0  0  0  0
 20 21  1  0  0  0  0
 20 22  2  0  0  0  0
 22 23  1  0  0  0  0
 22 24  1  0  0  0  0
 24 25  1  0  0  0  0
 24 26  2  0  0  0  0
 26 27  1  0  0  0  0
 26 28  1  0  0  0  0
 29 30  2  0  0  0  0
 29 31  1  0  0  0  0
 31 32  1  0  0  0  0
 31 33  1  0  0  0  0
 33 34  1  0  0  0  0
 33 35  1  0  0  0  0
 33 36  1  0  0  0  0
M  END
$$$$

  -OEChem-03222214083D

 36 37  0     1  0  0  0  0  0999 V2000
   -3.7020   -4.5553    0.5790 H   0  0  0  0  0  0  0  0  0  0  0  0
   -3.5353   -3.7222   -0.1101 C   0  0  0  0  0  0  0  0  0  0  0  0
   -4.3905   -3.0447   -0.0550 H   0  0  0  0  0  0  0  0  0  0  0  0
   -3.4551   -4.1183   -1.1251 H   0  0  0  0  0  0  0  0  0  0  0  0
   -2.2628   -2.9851    0.2634 C   0  0  0  0  0  0  0  0  0  0  0  0
   -1.6214   -3.3461    1.2315 O   0  0  0  0  0  0  0  0  0  0  0  0
   -1.8422   -1.9158   -0.5038 N   0  0  0  0  0  0  0  0  0  0  0  0
   -2.3825   -1.7179   -1.3394 H   0  0  0  0  0  0  0  0  0  0  0  0
   -0.5888   -1.1616   -0.2800 C   0  0  1  0  0  0  0  0  0  0  0  0
    0.2598   -1.8525   -0.3397 H   0  0  0  0  0  0  0  0  0  0  0  0
   -0.5002   -0.1774   -1.4723 C   0  0  0  0  0  0  0  0  0  0  0  0
   -0.7834   -0.7153   -2.3830 H   0  0  0  0  0  0  0  0  0  0  0  0
   -1.2442    0.6106   -1.3168 H   0  0  0  0  0  0  0  0  0  0  0  0
    0.8313    0.5021   -1.7365 C   0  0  0  0  0  0  0  0  0  0  0  0
    1.3232    0.5720   -3.0222 C   0  0  0  0  0  0  0  0  0  0  0  0
    0.8855    0.0847   -3.8903 H   0  0  0  0  0  0  0  0  0  0  0  0
    2.4791    1.3385   -3.0172 N   0  0  0  0  0  0  0  0  0  0  0  0
    3.0685    1.5310   -3.8240 H   0  0  0  0  0  0  0  0  0  0  0  0
    2.6875    1.8625   -1.7583 C   0  0  0  0  0  0  0  0  0  0  0  0
    3.6836    2.7332   -1.3170 C   0  0  0  0  0  0  0  0  0  0  0  0
    4.4721    3.0516   -1.9896 H   0  0  0  0  0  0  0  0  0  0  0  0
    3.6430    3.1997    0.0006 C   0  0  0  0  0  0  0  0  0  0  0  0
    4.4101    3.8758    0.3657 H   0  0  0  0  0  0  0  0  0  0  0  0
    2.5960    2.8070    0.8423 C   0  0  0  0  0  0  0  0  0  0  0  0
    2.5472    3.1812    1.8603 H   0  0  0  0  0  0  0  0  0  0  0  0
    1.6034    1.9321    0.3791 C   0  0  0  0  0  0  0  0  0  0  0  0
    0.7934    1.6846    1.0494 H   0  0  0  0  0  0  0  0  0  0  0  0
    1.6621    1.4139   -0.9244 C   0  0  0  0  0  0  0  0  0  0  0  0
   -0.5400   -0.5049    1.1160 C   0  0  0  0  0  0  0  0  0  0  0  0
    0.4491   -0.6209    1.8277 O   0  0  0  0  0  0  0  0  0  0  0  0
   -1.6450    0.1703    1.6068 N   0  0  0  0  0  0  0  0  0  0  0  0
   -2.4978    0.0924    1.0641 H   0  0  0  0  0  0  0  0  0  0  0  0
   -1.7299    0.6476    2.9811 C   0  0  0  0  0  0  0  0  0  0  0  0
   -0.9127    1.3441    3.1967 H   0  0  0  0  0  0  0  0  0  0  0  0
   -2.6778    1.1694    3.1419 H   0  0  0  0  0  0  0  0  0  0  0  0
   -1.6713   -0.1926    3.6812 H   0  0  0  0  0  0  0  0  0  0  0  0
  1  2  1  0  0  0  0
  2  3  1  0  0  0  0
  2  4  1  0  0  0  0
  2  5  1  0  0  0  0
  5  6  2  0  0  0  0
  5  7  1  0  0  0  0
  7  8  1  0  0  0  0
  7  9  1  0  0  0  0
  9 10  1  0  0  0  0
  9 11  1  0  0  0  0
  9 29  1  0  0  0  0
 11 12  1  0  0  0  0
 11 13  1  0  0  0  0
 11 14  1  0  0  0  0
 14 15  2  0  0  0  0
 14 28  1  0  0  0  0
 15 16  1  0  0  0  0
 15 17  1  0  0  0  0
 17 18  1  0  0  0  0
 17 19  1  0  0  0  0
 19 20  1  0  0  0  0
 19 28  2  0  0  0  0
 20 21  1  0  0  0  0
 20 22  2  0  0  0  0
 22 23  1  0  0  0  0
 22 24  1  0  0  0  0
 24 25  1  0  0  0  0
 24 26  2  0  0  0  0
 26 27  1  0  0  0  0
 26 28  1  0  0  0  0
 29 30  2  0  0  0  0
 29 31  1  0  0  0  0
 31 32  1  0  0  0  0
 31 33  1  0  0  0  0
 33 34  1  0  0  0  0
 33 35  1  0  0  0  0
 33 36  1  0  0  0  0
M  END
$$$$

  -OEChem-03222214083D

 36 37  0     1  0  0  0  0  0999 V2000
   -3.8646   -4.4249    0.6597 H   0  0  0  0  0  0  0  0  0  0  0  0
   -3.6137   -3.6333   -0.0521 C   0  0  0  0  0  0  0  0  0  0  0  0
   -4.4377   -2.9167   -0.0854 H   0  0  0  0  0  0  0  0  0  0  0  0
   -3.4852   -4.0796   -1.0411 H   0  0  0  0  0  0  0  0  0  0  0  0
   -2.3361   -2.9350    0.3748 C   0  0  0  0  0  0  0  0  0  0  0  0
   -1.7819   -3.2723    1.4030 O   0  0  0  0  0  0  0  0  0  0  0  0
   -1.8117   -1.9344   -0.4207 N   0  0  0  0  0  0  0  0  0  0  0  0
   -2.2860   -1.7646   -1.3011 H   0  0  0  0  0  0  0  0  0  0  0  0
   -0.5669   -1.1835   -0.1350 C   0  0  1  0  0  0  0  0  0  0  0  0
    0.2854   -1.8697   -0.0791 H   0  0  0  0  0  0  0  0  0  0  0  0
   -0.4138   -0.2679   -1.3765 C   0  0  0  0  0  0  0  0  0  0  0  0
   -0.6563   -0.8697   -2.2592 H   0  0  0  0  0  0  0  0  0  0  0  0
   -1.1782    0.5121   -1.3003 H   0  0  0  0  0  0  0  0  0  0  0  0
    0.8983    0.4402   -1.6867 C   0  0  0  0  0  0  0  0  0  0  0  0
    1.1862    0.6795   -3.0144 C   0  0  0  0  0  0  0  0  0  0  0  0
    0.5762    0.3614   -3.8567 H   0  0  0  0  0  0  0  0  0  0  0  0
    2.3816    1.3734   -3.1001 N   0  0  0  0  0  0  0  0  0  0  0  0
    2.8408    1.6653   -3.9602 H   0  0  0  0  0  0  0  0  0  0  0  0
    2.8544    1.6428   -1.8343 C   0  0  0  0  0  0  0  0  0  0  0  0
    4.0017    2.3446   -1.4662 C   0  0  0  0  0  0  0  0  0  0  0  0
    4.6710    2.7387   -2.2225 H   0  0  0  0  0  0  0  0  0  0  0  0
    4.2720    2.5386   -0.1091 C   0  0  0  0  0  0  0  0  0  0  0  0
    5.1601    3.0812    0.2011 H   0  0  0  0  0  0  0  0  0  0  0  0
    3.3839    2.0386    0.8489 C   0  0  0  0  0  0  0  0  0  0  0  0
    3.5795    2.1942    1.9057 H   0  0  0  0  0  0  0  0  0  0  0  0
    2.2357    1.3368    0.4553 C   0  0  0  0  0  0  0  0  0  0  0  0
    1.5748    0.9947    1.2317 H   0  0  0  0  0  0  0  0  0  0  0  0
    1.9607    1.1083   -0.9015 C   0  0  0  0  0  0  0  0  0  0  0  0
   -0.6733   -0.4318    1.2131 C   0  0  0  0  0  0  0  0  0  0  0  0
    0.1520   -0.6146    2.0977 O   0  0  0  0  0  0  0  0  0  0  0  0
   -1.8205    0.2809    1.5215 N   0  0  0  0  0  0  0  0  0  0  0  0
   -2.5762    0.2340    0.8480 H   0  0  0  0  0  0  0  0  0  0  0  0
   -2.1068    0.7780    2.8617 C   0  0  0  0  0  0  0  0  0  0  0  0
   -1.3094    1.4477    3.2010 H   0  0  0  0  0  0  0  0  0  0  0  0
   -3.0482    1.3355    2.8662 H   0  0  0  0  0  0  0  0  0  0  0  0
   -2.1919   -0.0548    3.5678 H   0  0  0  0  0  0  0  0  0  0  0  0
  1  2  1  0  0  0  0
  2  3  1  0  0  0  0
  2  4  1  0  0  0  0
  2  5  1  0  0  0  0
  5  6  2  0  0  0  0
  5  7  1  0  0  0  0
  7  8  1  0  0  0  0
  7  9  1  0  0  0  0
  9 10  1  0  0  0  0
  9 11  1  0  0  0  0
  9 29  1  0  0  0  0
 11 12  1  0  0  0  0
 11 13  1  0  0  0  0
 11 14  1  0  0  0  0
 14 15  2  0  0  0  0
 14 28  1  0  0  0  0
 15 16  1  0  0  0  0
 15 17  1  0  0  0  0
 17 18  1  0  0  0  0
 17 19  1  0  0  0  0
 19 20  1  0  0  0  0
 19 28  2  0  0  0  0
 20 21  1  0  0  0  0
 20 22  2  0  0  0  0
 22 23  1  0  0  0  0
 22 24  1  0  0  0  0
 24 25  1  0  0  0  0
 24 26  2  0  0  0  0
 26 27  1  0  0  0  0
 26 28  1  0  0  0  0
 29 30  2  0  0  0  0
 29 31  1  0  0  0  0
 31 32  1  0  0  0  0
 31 33  1  0  0  0  0
 33 34  1  0  0  0  0
 33 35  1  0  0  0  0
 33 36  1  0  0  0  0
M  END
$$$$

  -OEChem-03222214083D

 36 37  0     1  0  0  0  0  0999 V2000
   -3.5237   -4.5847    0.7352 H   0  0  0  0  0  0  0  0  0  0  0  0
   -3.3460   -3.8031   -0.0090 C   0  0  0  0  0  0  0  0  0  0  0  0
   -4.2446   -3.1872   -0.0921 H   0  0  0  0  0  0  0  0  0  0  0  0
   -3.1439   -4.2767   -0.9728 H   0  0  0  0  0  0  0  0  0  0  0  0
   -2.1654   -2.9462    0.4077 C   0  0  0  0  0  0  0  0  0  0  0  0
   -1.5973   -3.1745    1.4585 O   0  0  0  0  0  0  0  0  0  0  0  0
   -1.7390   -1.9263   -0.4214 N   0  0  0  0  0  0  0  0  0  0  0  0
   -2.1894   -1.8669   -1.3287 H   0  0  0  0  0  0  0  0  0  0  0  0
   -0.5661   -1.0605   -0.1625 C   0  0  1  0  0  0  0  0  0  0  0  0
    0.3515   -1.6562   -0.1214 H   0  0  0  0  0  0  0  0  0  0  0  0
   -0.5256   -0.0700   -1.3461 C   0  0  0  0  0  0  0  0  0  0  0  0
   -0.7161   -0.6410   -2.2609 H   0  0  0  0  0  0  0  0  0  0  0  0
   -1.3539    0.6368   -1.2318 H   0  0  0  0  0  0  0  0  0  0  0  0
    0.7309    0.7409   -1.6077 C   0  0  0  0  0  0  0  0  0  0  0  0
    0.8563    1.3765   -2.8236 C   0  0  0  0  0  0  0  0  0  0  0  0
    0.0881    1.4168   -3.5923 H   0  0  0  0  0  0  0  0  0  0  0  0
    2.1039    1.9780   -2.8876 N   0  0  0  0  0  0  0  0  0  0  0  0
    2.4569    2.5353   -3.6625 H   0  0  0  0  0  0  0  0  0  0  0  0
    2.8350    1.6569   -1.7630 C   0  0  0  0  0  0  0  0  0  0  0  0
    4.1498    1.9948   -1.4431 C   0  0  0  0  0  0  0  0  0  0  0  0
    4.7286    2.6335   -2.1007 H   0  0  0  0  0  0  0  0  0  0  0  0
    4.7151    1.4861   -0.2700 C   0  0  0  0  0  0  0  0  0  0  0  0
    5.7362    1.7378   -0.0001 H   0  0  0  0  0  0  0  0  0  0  0  0
    3.9647    0.6308    0.5446 C   0  0  0  0  0  0  0  0  0  0  0  0
    4.4044    0.2116    1.4446 H   0  0  0  0  0  0  0  0  0  0  0  0
    2.6451    0.3018    0.2038 C   0  0  0  0  0  0  0  0  0  0  0  0
    2.1195   -0.3963    0.8377 H   0  0  0  0  0  0  0  0  0  0  0  0
    2.0467    0.8464   -0.9431 C   0  0  0  0  0  0  0  0  0  0  0  0
   -0.7553   -0.2893    1.1760 C   0  0  0  0  0  0  0  0  0  0  0  0
    0.1141   -0.2393    2.0339 O   0  0  0  0  0  0  0  0  0  0  0  0
   -1.9740    0.3109    1.4518 N   0  0  0  0  0  0  0  0  0  0  0  0
   -2.7299    0.1094    0.8077 H   0  0  0  0  0  0  0  0  0  0  0  0
   -2.2958    0.8968    2.7472 C   0  0  0  0  0  0  0  0  0  0  0  0
   -1.5714    1.6762    3.0066 H   0  0  0  0  0  0  0  0  0  0  0  0
   -3.2919    1.3487    2.7208 H   0  0  0  0  0  0  0  0  0  0  0  0
   -2.2821    0.1288    3.5278 H   0  0  0  0  0  0  0  0  0  0  0  0
  1  2  1  0  0  0  0
  2  3  1  0  0  0  0
  2  4  1  0  0  0  0
  2  5  1  0  0  0  0
  5  6  2  0  0  0  0
  5  7  1  0  0  0  0
  7  8  1  0  0  0  0
  7  9  1  0  0  0  0
  9 10  1  0  0  0  0
  9 11  1  0  0  0  0
  9 29  1  0  0  0  0
 11 12  1  0  0  0  0
 11 13  1  0  0  0  0
 11 14  1  0  0  0  0
 14 15  2  0  0  0  0
 14 28  1  0  0  0  0
 15 16  1  0  0  0  0
 15 17  1  0  0  0  0
 17 18  1  0  0  0  0
 17 19  1  0  0  0  0
 19 20  1  0  0  0  0
 19 28  2  0  0  0  0
 20 21  1  0  0  0  0
 20 22  2  0  0  0  0
 22 23  1  0  0  0  0
 22 24  1  0  0  0  0
 24 25  1  0  0  0  0
 24 26  2  0  0  0  0
 26 27  1  0  0  0  0
 26 28  1  0  0  0  0
 29 30  2  0  0  0  0
 29 31  1  0  0  0  0
 31 32  1  0  0  0  0
 31 33  1  0  0  0  0
 33 34  1  0  0  0  0
 33 35  1  0  0  0  0
 33 36  1  0  0  0  0
M  END
$$$$

  -OEChem-03222214083D

 36 37  0     1  0  0  0  0  0999 V2000
   -3.5301   -4.6362    0.7629 H   0  0  0  0  0  0  0  0  0  0  0  0
   -3.4140   -3.8479    0.0133 C   0  0  0  0  0  0  0  0  0  0  0  0
   -4.3357   -3.2624   -0.0269 H   0  0  0  0  0  0  0  0  0  0  0  0
   -3.2417   -4.3138   -0.9600 H   0  0  0  0  0  0  0  0  0  0  0  0
   -2.2444   -2.9521    0.3763 C   0  0  0  0  0  0  0  0  0  0  0  0
   -1.6379   -3.1411    1.4139 O   0  0  0  0  0  0  0  0  0  0  0  0
   -1.8773   -1.9288   -0.4754 N   0  0  0  0  0  0  0  0  0  0  0  0
   -2.3504   -1.9037   -1.3729 H   0  0  0  0  0  0  0  0  0  0  0  0
   -0.6623   -1.1026   -0.3071 C   0  0  1  0  0  0  0  0  0  0  0  0
    0.1886   -1.7853   -0.3370 H   0  0  0  0  0  0  0  0  0  0  0  0
   -0.5865   -0.1364   -1.5061 C   0  0  0  0  0  0  0  0  0  0  0  0
   -1.0545   -0.6224   -2.3680 H   0  0  0  0  0  0  0  0  0  0  0  0
   -1.1798    0.7562   -1.2804 H   0  0  0  0  0  0  0  0  0  0  0  0
    0.7876    0.3053   -1.9739 C   0  0  0  0  0  0  0  0  0  0  0  0
    0.8873    1.1675   -3.0422 C   0  0  0  0  0  0  0  0  0  0  0  0
    0.0476    1.5876   -3.5909 H   0  0  0  0  0  0  0  0  0  0  0  0
    2.2310    1.3934   -3.3026 N   0  0  0  0  0  0  0  0  0  0  0  0
    2.6012    1.9966   -4.0337 H   0  0  0  0  0  0  0  0  0  0  0  0
    3.0095    0.6908   -2.4044 C   0  0  0  0  0  0  0  0  0  0  0  0
    4.3988    0.6332   -2.2991 C   0  0  0  0  0  0  0  0  0  0  0  0
    5.0249    1.1883   -2.9885 H   0  0  0  0  0  0  0  0  0  0  0  0
    4.9724   -0.1451   -1.2888 C   0  0  0  0  0  0  0  0  0  0  0  0
    6.0521   -0.1996   -1.1873 H   0  0  0  0  0  0  0  0  0  0  0  0
    4.1480   -0.8460   -0.4007 C   0  0  0  0  0  0  0  0  0  0  0  0
    4.5869   -1.4406    0.3947 H   0  0  0  0  0  0  0  0  0  0  0  0
    2.7529   -0.7775   -0.5212 C   0  0  0  0  0  0  0  0  0  0  0  0
    2.1576   -1.3201    0.2014 H   0  0  0  0  0  0  0  0  0  0  0  0
    2.1644   -0.0065   -1.5386 C   0  0  0  0  0  0  0  0  0  0  0  0
   -0.6138   -0.3196    1.0284 C   0  0  0  0  0  0  0  0  0  0  0  0
    0.4306   -0.1942    1.6527 O   0  0  0  0  0  0  0  0  0  0  0  0
   -1.7403    0.3527    1.4713 N   0  0  0  0  0  0  0  0  0  0  0  0
   -2.6133    0.1059    1.0185 H   0  0  0  0  0  0  0  0  0  0  0  0
   -1.7885    1.0446    2.7530 C   0  0  0  0  0  0  0  0  0  0  0  0
   -1.0207    1.8244    2.7972 H   0  0  0  0  0  0  0  0  0  0  0  0
   -2.7656    1.5165    2.8921 H   0  0  0  0  0  0  0  0  0  0  0  0
   -1.6220    0.3394    3.5742 H   0  0  0  0  0  0  0  0  0  0  0  0
  1  2  1  0  0  0  0
  2  3  1  0  0  0  0
  2  4  1  0  0  0  0
  2  5  1  0  0  0  0
  5  6  2  0  0  0  0
  5  7  1  0  0  0  0
  7  8  1  0  0  0  0
  7  9  1  0  0  0  0
  9 10  1  0  0  0  0
  9 11  1  0  0  0  0
  9 29  1  0  0  0  0
 11 12  1  0  0  0  0
 11 13  1  0  0  0  0
 11 14  1  0  0  0  0
 14 15  2  0  0  0  0
 14 28  1  0  0  0  0
 15 16  1  0  0  0  0
 15 17  1  0  0  0  0
 17 18  1  0  0  0  0
 17 19  1  0  0  0  0
 19 20  1  0  0  0  0
 19 28  2  0  0  0  0
 20 21  1  0  0  0  0
 20 22  2  0  0  0  0
 22 23  1  0  0  0  0
 22 24  1  0  0  0  0
 24 25  1  0  0  0  0
 24 26  2  0  0  0  0
 26 27  1  0  0  0  0
 26 28  1  0  0  0  0
 29 30  2  0  0  0  0
 29 31  1  0  0  0  0
 31 32  1  0  0  0  0
 31 33  1  0  0  0  0
 33 34  1  0  0  0  0
 33 35  1  0  0  0  0
 33 36  1  0  0  0  0
M  END
$$$$

  -OEChem-03222214083D

 36 37  0     1  0  0  0  0  0999 V2000
   -3.5815   -4.6356    0.7585 H   0  0  0  0  0  0  0  0  0  0  0  0
   -3.4766   -3.8424    0.0126 C   0  0  0  0  0  0  0  0  0  0  0  0
   -4.3917   -3.2455    0.0035 H   0  0  0  0  0  0  0  0  0  0  0  0
   -3.3376   -4.3017   -0.9690 H   0  0  0  0  0  0  0  0  0  0  0  0
   -2.2862   -2.9638    0.3493 C   0  0  0  0  0  0  0  0  0  0  0  0
   -1.6470   -3.1728    1.3634 O   0  0  0  0  0  0  0  0  0  0  0  0
   -1.9364   -1.9306   -0.4972 N   0  0  0  0  0  0  0  0  0  0  0  0
   -2.4384   -1.8815   -1.3780 H   0  0  0  0  0  0  0  0  0  0  0  0
   -0.7106   -1.1188   -0.3476 C   0  0  1  0  0  0  0  0  0  0  0  0
    0.1115   -1.8286   -0.3917 H   0  0  0  0  0  0  0  0  0  0  0  0
   -0.6168   -0.1652   -1.5524 C   0  0  0  0  0  0  0  0  0  0  0  0
   -1.0795   -0.6610   -2.4115 H   0  0  0  0  0  0  0  0  0  0  0  0
   -1.2081    0.7327   -1.3435 H   0  0  0  0  0  0  0  0  0  0  0  0
    0.7678    0.2488   -2.0172 C   0  0  0  0  0  0  0  0  0  0  0  0
    0.8914    1.3215   -2.8705 C   0  0  0  0  0  0  0  0  0  0  0  0
    0.0672    1.9215   -3.2493 H   0  0  0  0  0  0  0  0  0  0  0  0
    2.2336    1.4881   -3.1773 N   0  0  0  0  0  0  0  0  0  0  0  0
    2.6192    2.2114   -3.7801 H   0  0  0  0  0  0  0  0  0  0  0  0
    2.9904    0.5486   -2.5058 C   0  0  0  0  0  0  0  0  0  0  0  0
    4.3732    0.3686   -2.5146 C   0  0  0  0  0  0  0  0  0  0  0  0
    5.0062    1.0071   -3.1204 H   0  0  0  0  0  0  0  0  0  0  0  0
    4.9324   -0.6398   -1.7244 C   0  0  0  0  0  0  0  0  0  0  0  0
    6.0073   -0.7934   -1.7137 H   0  0  0  0  0  0  0  0  0  0  0  0
    4.1014   -1.4410   -0.9333 C   0  0  0  0  0  0  0  0  0  0  0  0
    4.5330   -2.2116   -0.3018 H   0  0  0  0  0  0  0  0  0  0  0  0
    2.7125   -1.2476   -0.9370 C   0  0  0  0  0  0  0  0  0  0  0  0
    2.1227   -1.8754   -0.2832 H   0  0  0  0  0  0  0  0  0  0  0  0
    2.1338   -0.2507   -1.7448 C   0  0  0  0  0  0  0  0  0  0  0  0
   -0.5796   -0.3437    0.9825 C   0  0  0  0  0  0  0  0  0  0  0  0
    0.5085   -0.2281    1.5302 O   0  0  0  0  0  0  0  0  0  0  0  0
   -1.6661    0.3516    1.4846 N   0  0  0  0  0  0  0  0  0  0  0  0
   -2.5688    0.1166    1.0866 H   0  0  0  0  0  0  0  0  0  0  0  0
   -1.6251    1.0590    2.7579 C   0  0  0  0  0  0  0  0  0  0  0  0
   -0.8394    1.8218    2.7482 H   0  0  0  0  0  0  0  0  0  0  0  0
   -2.5822    1.5544    2.9460 H   0  0  0  0  0  0  0  0  0  0  0  0
   -1.4274    0.3600    3.5774 H   0  0  0  0  0  0  0  0  0  0  0  0
  1  2  1  0  0  0  0
  2  3  1  0  0  0  0
  2  4  1  0  0  0  0
  2  5  1  0  0  0  0
  5  6  2  0  0  0  0
  5  7  1  0  0  0  0
  7  8  1  0  0  0  0
  7  9  1  0  0  0  0
  9 10  1  0  0  0  0
  9 11  1  0  0  0  0
  9 29  1  0  0  0  0
 11 12  1  0  0  0  0
 11 13  1  0  0  0  0
 11 14  1  0  0  0  0
 14 15  2  0  0  0  0
 14 28  1  0  0  0  0
 15 16  1  0  0  0  0
 15 17  1  0  0  0  0
 17 18  1  0  0  0  0
 17 19  1  0  0  0  0
 19 20  1  0  0  0  0
 19 28  2  0  0  0  0
 20 21  1  0  0  0  0
 20 22  2  0  0  0  0
 22 23  1  0  0  0  0
 22 24  1  0  0  0  0
 24 25  1  0  0  0  0
 24 26  2  0  0  0  0
 26 27  1  0  0  0  0
 26 28  1  0  0  0  0
 29 30  2  0  0  0  0
 29 31  1  0  0  0  0
 31 32  1  0  0  0  0
 31 33  1  0  0  0  0
 33 34  1  0  0  0  0
 33 35  1  0  0  0  0
 33 36  1  0  0  0  0
M  END
$$$$

  -OEChem-03222214083D

 36 37  0     1  0  0  0  0  0999 V2000
   -3.4181   -4.6642    0.8574 H   0  0  0  0  0  0  0  0  0  0  0  0
   -3.3145   -3.9006    0.0810 C   0  0  0  0  0  0  0  0  0  0  0  0
   -4.2524   -3.3452    0.0075 H   0  0  0  0  0  0  0  0  0  0  0  0
   -3.1146   -4.3953   -0.8724 H   0  0  0  0  0  0  0  0  0  0  0  0
   -2.1768   -2.9581    0.4264 C   0  0  0  0  0  0  0  0  0  0  0  0
   -1.5700   -3.1002    1.4713 O   0  0  0  0  0  0  0  0  0  0  0  0
   -1.8390   -1.9435   -0.4470 N   0  0  0  0  0  0  0  0  0  0  0  0
   -2.3094   -1.9502   -1.3465 H   0  0  0  0  0  0  0  0  0  0  0  0
   -0.6528   -1.0760   -0.2902 C   0  0  1  0  0  0  0  0  0  0  0  0
    0.2207   -1.7231   -0.2654 H   0  0  0  0  0  0  0  0  0  0  0  0
   -0.5836   -0.1256   -1.5025 C   0  0  0  0  0  0  0  0  0  0  0  0
   -1.0034   -0.6457   -2.3690 H   0  0  0  0  0  0  0  0  0  0  0  0
   -1.2120    0.7522   -1.3192 H   0  0  0  0  0  0  0  0  0  0  0  0
    0.8045    0.3149   -1.9174 C   0  0  0  0  0  0  0  0  0  0  0  0
    1.0080    1.5442   -2.5005 C   0  0  0  0  0  0  0  0  0  0  0  0
    0.2473    2.3092   -2.6373 H   0  0  0  0  0  0  0  0  0  0  0  0
    2.3439    1.6403   -2.8648 N   0  0  0  0  0  0  0  0  0  0  0  0
    2.7874    2.4557   -3.2816 H   0  0  0  0  0  0  0  0  0  0  0  0
    2.9979    0.4580   -2.5788 C   0  0  0  0  0  0  0  0  0  0  0  0
    4.3265    0.1014   -2.8055 C   0  0  0  0  0  0  0  0  0  0  0  0
    5.0173    0.8128   -3.2439 H   0  0  0  0  0  0  0  0  0  0  0  0
    4.7529   -1.1863   -2.4645 C   0  0  0  0  0  0  0  0  0  0  0  0
    5.7849   -1.4804   -2.6304 H   0  0  0  0  0  0  0  0  0  0  0  0
    3.8425   -2.0979   -1.9156 C   0  0  0  0  0  0  0  0  0  0  0  0
    4.1703   -3.1006   -1.6584 H   0  0  0  0  0  0  0  0  0  0  0  0
    2.5092   -1.7239   -1.6938 C   0  0  0  0  0  0  0  0  0  0  0  0
    1.8342   -2.4638   -1.2844 H   0  0  0  0  0  0  0  0  0  0  0  0
    2.0789   -0.4228   -2.0074 C   0  0  0  0  0  0  0  0  0  0  0  0
   -0.6169   -0.2543    1.0188 C   0  0  0  0  0  0  0  0  0  0  0  0
    0.4439   -0.0389    1.5894 O   0  0  0  0  0  0  0  0  0  0  0  0
   -1.7564    0.4029    1.4509 N   0  0  0  0  0  0  0  0  0  0  0  0
   -2.6302    0.0941    1.0392 H   0  0  0  0  0  0  0  0  0  0  0  0
   -1.7994    1.1626    2.6938 C   0  0  0  0  0  0  0  0  0  0  0  0
   -1.0634    1.9734    2.6738 H   0  0  0  0  0  0  0  0  0  0  0  0
   -2.7912    1.6022    2.8345 H   0  0  0  0  0  0  0  0  0  0  0  0
   -1.5825    0.5111    3.5469 H   0  0  0  0  0  0  0  0  0  0  0  0
  1  2  1  0  0  0  0
  2  3  1  0  0  0  0
  2  4  1  0  0  0  0
  2  5  1  0  0  0  0
  5  6  2  0  0  0  0
  5  7  1  0  0  0  0
  7  8  1  0  0  0  0
  7  9  1  0  0  0  0
  9 10  1  0  0  0  0
  9 11  1  0  0  0  0
  9 29  1  0  0  0  0
 11 12  1  0  0  0  0
 11 13  1  0  0  0  0
 11 14  1  0  0  0  0
 14 15  2  0  0  0  0
 14 28  1  0  0  0  0
 15 16  1  0  0  0  0
 15 17  1  0  0  0  0
 17 18  1  0  0  0  0
 17 19  1  0  0  0  0
 19 20  1  0  0  0  0
 19 28  2  0  0  0  0
 20 21  1  0  0  0  0
 20 22  2  0  0  0  0
 22 23  1  0  0  0  0
 22 24  1  0  0  0  0
 24 25  1  0  0  0  0
 24 26  2  0  0  0  0
 26 27  1  0  0  0  0
 26 28  1  0  0  0  0
 29 30  2  0  0  0  0
 29 31  1  0  0  0  0
 31 32  1  0  0  0  0
 31 33  1  0  0  0  0
 33 34  1  0  0  0  0
 33 35  1  0  0  0  0
 33 36  1  0  0  0  0
M  END
$$$$

  -OEChem-03222214083D

 36 37  0     1  0  0  0  0  0999 V2000
   -3.2700   -4.7051    0.8690 H   0  0  0  0  0  0  0  0  0  0  0  0
   -3.2041   -3.9378    0.0923 C   0  0  0  0  0  0  0  0  0  0  0  0
   -4.1545   -3.4008    0.0472 H   0  0  0  0  0  0  0  0  0  0  0  0
   -3.0214   -4.4263   -0.8678 H   0  0  0  0  0  0  0  0  0  0  0  0
   -2.0766   -2.9732    0.4085 C   0  0  0  0  0  0  0  0  0  0  0  0
   -1.4378   -3.1052    1.4356 O   0  0  0  0  0  0  0  0  0  0  0  0
   -1.7859   -1.9491   -0.4708 N   0  0  0  0  0  0  0  0  0  0  0  0
   -2.2847   -1.9591   -1.3549 H   0  0  0  0  0  0  0  0  0  0  0  0
   -0.6193   -1.0514   -0.3410 C   0  0  1  0  0  0  0  0  0  0  0  0
    0.2806   -1.6701   -0.3421 H   0  0  0  0  0  0  0  0  0  0  0  0
   -0.6061   -0.0932   -1.5496 C   0  0  0  0  0  0  0  0  0  0  0  0
   -1.0336   -0.6075   -2.4158 H   0  0  0  0  0  0  0  0  0  0  0  0
   -1.2365    0.7785   -1.3460 H   0  0  0  0  0  0  0  0  0  0  0  0
    0.7802    0.3486   -1.9512 C   0  0  0  0  0  0  0  0  0  0  0  0
    1.1155    1.6490   -2.2468 C   0  0  0  0  0  0  0  0  0  0  0  0
    0.4569    2.5089   -2.1483 H   0  0  0  0  0  0  0  0  0  0  0  0
    2.4388    1.6651   -2.6753 N   0  0  0  0  0  0  0  0  0  0  0  0
    2.9698    2.4977   -2.9204 H   0  0  0  0  0  0  0  0  0  0  0  0
    2.9456    0.3784   -2.7114 C   0  0  0  0  0  0  0  0  0  0  0  0
    4.1985   -0.0972   -3.0978 C   0  0  0  0  0  0  0  0  0  0  0  0
    4.9707    0.5936   -3.4172 H   0  0  0  0  0  0  0  0  0  0  0  0
    4.4422   -1.4761   -3.0720 C   0  0  0  0  0  0  0  0  0  0  0  0
    5.4132   -1.8619   -3.3677 H   0  0  0  0  0  0  0  0  0  0  0  0
    3.4298   -2.3586   -2.6700 C   0  0  0  0  0  0  0  0  0  0  0  0
    3.6185   -3.4277   -2.6559 H   0  0  0  0  0  0  0  0  0  0  0  0
    2.1750   -1.8667   -2.2827 C   0  0  0  0  0  0  0  0  0  0  0  0
    1.3986   -2.5615   -1.9840 H   0  0  0  0  0  0  0  0  0  0  0  0
    1.9387   -0.4847   -2.2878 C   0  0  0  0  0  0  0  0  0  0  0  0
   -0.5793   -0.2332    0.9709 C   0  0  0  0  0  0  0  0  0  0  0  0
    0.4871    0.0246    1.5127 O   0  0  0  0  0  0  0  0  0  0  0  0
   -1.7283    0.3901    1.4285 N   0  0  0  0  0  0  0  0  0  0  0  0
   -2.6015    0.0534    1.0375 H   0  0  0  0  0  0  0  0  0  0  0  0
   -1.7665    1.1474    2.6732 C   0  0  0  0  0  0  0  0  0  0  0  0
   -1.0586    1.9822    2.6361 H   0  0  0  0  0  0  0  0  0  0  0  0
   -2.7688    1.5537    2.8386 H   0  0  0  0  0  0  0  0  0  0  0  0
   -1.5076    0.5030    3.5201 H   0  0  0  0  0  0  0  0  0  0  0  0
  1  2  1  0  0  0  0
  2  3  1  0  0  0  0
  2  4  1  0  0  0  0
  2  5  1  0  0  0  0
  5  6  2  0  0  0  0
  5  7  1  0  0  0  0
  7  8  1  0  0  0  0
  7  9  1  0  0  0  0
  9 10  1  0  0  0  0
  9 11  1  0  0  0  0
  9 29  1  0  0  0  0
 11 12  1  0  0  0  0
 11 13  1  0  0  0  0
 11 14  1  0  0  0  0
 14 15  2  0  0  0  0
 14 28  1  0  0  0  0
 15 16  1  0  0  0  0
 15 17  1  0  0  0  0
 17 18  1  0  0  0  0
 17 19  1  0  0  0  0
 19 20  1  0  0  0  0
 19 28  2  0  0  0  0
 20 21  1  0  0  0  0
 20 22  2  0  0  0  0
 22 23  1  0  0  0  0
 22 24  1  0  0  0  0
 24 25  1  0  0  0  0
 24 26  2  0  0  0  0
 26 27  1  0  0  0  0
 26 28  1  0  0  0  0
 29 30  2  0  0  0  0
 29 31  1  0  0  0  0
 31 32  1  0  0  0  0
 31 33  1  0  0  0  0
 33 34  1  0  0  0  0
 33 35  1  0  0  0  0
 33 36  1  0  0  0  0
M  END
$$$$

  -OEChem-03222214083D

 36 37  0     1  0  0  0  0  0999 V2000
   -3.1760   -4.7517    0.8102 H   0  0  0  0  0  0  0  0  0  0  0  0
   -3.1643   -3.9525    0.0634 C   0  0  0  0  0  0  0  0  0  0  0  0
   -4.1227   -3.4287    0.0929 H   0  0  0  0  0  0  0  0  0  0  0  0
   -3.0290   -4.3986   -0.9249 H   0  0  0  0  0  0  0  0  0  0  0  0
   -2.0351   -2.9829    0.3561 C   0  0  0  0  0  0  0  0  0  0  0  0
   -1.3633   -3.1214    1.3610 O   0  0  0  0  0  0  0  0  0  0  0  0
   -1.7848   -1.9426   -0.5162 N   0  0  0  0  0  0  0  0  0  0  0  0
   -2.3134   -1.9453   -1.3828 H   0  0  0  0  0  0  0  0  0  0  0  0
   -0.6210   -1.0381   -0.4149 C   0  0  1  0  0  0  0  0  0  0  0  0
    0.2838   -1.6522   -0.4685 H   0  0  0  0  0  0  0  0  0  0  0  0
   -0.6551   -0.0641   -1.6086 C   0  0  0  0  0  0  0  0  0  0  0  0
   -1.1129   -0.5545   -2.4731 H   0  0  0  0  0  0  0  0  0  0  0  0
   -1.2683    0.8101   -1.3665 H   0  0  0  0  0  0  0  0  0  0  0  0
    0.7288    0.3667   -2.0167 C   0  0  0  0  0  0  0  0  0  0  0  0
    1.1935    1.6595   -2.0247 C   0  0  0  0  0  0  0  0  0  0  0  0
    0.6394    2.5324   -1.6870 H   0  0  0  0  0  0  0  0  0  0  0  0
    2.4937    1.6389   -2.5236 N   0  0  0  0  0  0  0  0  0  0  0  0
    3.1087    2.4465   -2.5964 H   0  0  0  0  0  0  0  0  0  0  0  0
    2.8611    0.3462   -2.8585 C   0  0  0  0  0  0  0  0  0  0  0  0
    4.0409   -0.1702   -3.3939 C   0  0  0  0  0  0  0  0  0  0  0  0
    4.8749    0.4876   -3.6115 H   0  0  0  0  0  0  0  0  0  0  0  0
    4.1324   -1.5464   -3.6447 C   0  0  0  0  0  0  0  0  0  0  0  0
    5.0461   -1.9625   -4.0585 H   0  0  0  0  0  0  0  0  0  0  0  0
    3.0454   -2.3866   -3.3595 C   0  0  0  0  0  0  0  0  0  0  0  0
    3.1197   -3.4524   -3.5527 H   0  0  0  0  0  0  0  0  0  0  0  0
    1.8651   -1.8558   -2.8196 C   0  0  0  0  0  0  0  0  0  0  0  0
    1.0266   -2.5062   -2.5955 H   0  0  0  0  0  0  0  0  0  0  0  0
    1.7829   -0.4815   -2.5659 C   0  0  0  0  0  0  0  0  0  0  0  0
   -0.5357   -0.2398    0.9068 C   0  0  0  0  0  0  0  0  0  0  0  0
    0.5492    0.0371    1.4009 O   0  0  0  0  0  0  0  0  0  0  0  0
   -1.6725    0.3661    1.4141 N   0  0  0  0  0  0  0  0  0  0  0  0
   -2.5556    0.0146    1.0601 H   0  0  0  0  0  0  0  0  0  0  0  0
   -1.6705    1.1140    2.6648 C   0  0  0  0  0  0  0  0  0  0  0  0
   -0.9686    1.9527    2.6095 H   0  0  0  0  0  0  0  0  0  0  0  0
   -2.6684    1.5140    2.8680 H   0  0  0  0  0  0  0  0  0  0  0  0
   -1.3788    0.4644    3.4969 H   0  0  0  0  0  0  0  0  0  0  0  0
  1  2  1  0  0  0  0
  2  3  1  0  0  0  0
  2  4  1  0  0  0  0
  2  5  1  0  0  0  0
  5  6  2  0  0  0  0
  5  7  1  0  0  0  0
  7  8  1  0  0  0  0
  7  9  1  0  0  0  0
  9 10  1  0  0  0  0
  9 11  1  0  0  0  0
  9 29  1  0  0  0  0
 11 12  1  0  0  0  0
 11 13  1  0  0  0  0
 11 14  1  0  0  0  0
 14 15  2  0  0  0  0
 14 28  1  0  0  0  0
 15 16  1  0  0  0  0
 15 17  1  0  0  0  0
 17 18  1  0  0  0  0
 17 19  1  0  0  0  0
 19 20  1  0  0  0  0
 19 28  2  0  0  0  0
 20 21  1  0  0  0  0
 20 22  2  0  0  0  0
 22 23  1  0  0  0  0
 22 24  1  0  0  0  0
 24 25  1  0  0  0  0
 24 26  2  0  0  0  0
 26 27  1  0  0  0  0
 26 28  1  0  0  0  0
 29 30  2  0  0  0  0
 29 31  1  0  0  0  0
 31 32  1  0  0  0  0
 31 33  1  0  0  0  0
 33 34  1  0  0  0  0
 33 35  1  0  0  0  0
 33 36  1  0  0  0  0
M  END
$$$$

  -OEChem-03222214083D

 36 37  0     1  0  0  0  0  0999 V2000
   -3.1741   -4.7473    0.7906 H   0  0  0  0  0  0  0  0  0  0  0  0
   -3.1629   -3.9553    0.0362 C   0  0  0  0  0  0  0  0  0  0  0  0
   -4.1219   -3.4325    0.0615 H   0  0  0  0  0  0  0  0  0  0  0  0
   -3.0277   -4.4111   -0.9477 H   0  0  0  0  0  0  0  0  0  0  0  0
   -2.0332   -2.9829    0.3195 C   0  0  0  0  0  0  0  0  0  0  0  0
   -1.3476   -3.1262    1.3144 O   0  0  0  0  0  0  0  0  0  0  0  0
   -1.8009   -1.9322   -0.5456 N   0  0  0  0  0  0  0  0  0  0  0  0
   -2.3454   -1.9261   -1.4021 H   0  0  0  0  0  0  0  0  0  0  0  0
   -0.6340   -1.0299   -0.4582 C   0  0  1  0  0  0  0  0  0  0  0  0
    0.2689   -1.6454   -0.5452 H   0  0  0  0  0  0  0  0  0  0  0  0
   -0.6860   -0.0433   -1.6392 C   0  0  0  0  0  0  0  0  0  0  0  0
   -1.1662   -0.5110   -2.5040 H   0  0  0  0  0  0  0  0  0  0  0  0
   -1.2814    0.8354   -1.3701 H   0  0  0  0  0  0  0  0  0  0  0  0
    0.6988    0.3759   -2.0511 C   0  0  0  0  0  0  0  0  0  0  0  0
    1.2907    1.5878   -1.7913 C   0  0  0  0  0  0  0  0  0  0  0  0
    0.8462    2.3982   -1.2173 H   0  0  0  0  0  0  0  0  0  0  0  0
    2.5564    1.5715   -2.3734 N   0  0  0  0  0  0  0  0  0  0  0  0
    3.2441    2.3181   -2.3013 H   0  0  0  0  0  0  0  0  0  0  0  0
    2.7826    0.3591   -3.0052 C   0  0  0  0  0  0  0  0  0  0  0  0
    3.8810   -0.1322   -3.7112 C   0  0  0  0  0  0  0  0  0  0  0  0
    4.7661    0.4806   -3.8393 H   0  0  0  0  0  0  0  0  0  0  0  0
    3.8254   -1.4264   -4.2480 C   0  0  0  0  0  0  0  0  0  0  0  0
    4.6740   -1.8220   -4.7981 H   0  0  0  0  0  0  0  0  0  0  0  0
    2.6766   -2.2131   -4.0713 C   0  0  0  0  0  0  0  0  0  0  0  0
    2.6386   -3.2167   -4.4838 H   0  0  0  0  0  0  0  0  0  0  0  0
    1.5794   -1.7096   -3.3581 C   0  0  0  0  0  0  0  0  0  0  0  0
    0.6927   -2.3165   -3.2127 H   0  0  0  0  0  0  0  0  0  0  0  0
    1.6427   -0.4168   -2.8281 C   0  0  0  0  0  0  0  0  0  0  0  0
   -0.5187   -0.2474    0.8713 C   0  0  0  0  0  0  0  0  0  0  0  0
    0.5776    0.0407    1.3335 O   0  0  0  0  0  0  0  0  0  0  0  0
   -1.6439    0.3531    1.4102 N   0  0  0  0  0  0  0  0  0  0  0  0
   -2.5345   -0.0017    1.0788 H   0  0  0  0  0  0  0  0  0  0  0  0
   -1.6134    1.0954    2.6639 C   0  0  0  0  0  0  0  0  0  0  0  0
   -0.9177    1.9384    2.5944 H   0  0  0  0  0  0  0  0  0  0  0  0
   -2.6078    1.4890    2.8948 H   0  0  0  0  0  0  0  0  0  0  0  0
   -1.2973    0.4442    3.4857 H   0  0  0  0  0  0  0  0  0  0  0  0
  1  2  1  0  0  0  0
  2  3  1  0  0  0  0
  2  4  1  0  0  0  0
  2  5  1  0  0  0  0
  5  6  2  0  0  0  0
  5  7  1  0  0  0  0
  7  8  1  0  0  0  0
  7  9  1  0  0  0  0
  9 10  1  0  0  0  0
  9 11  1  0  0  0  0
  9 29  1  0  0  0  0
 11 12  1  0  0  0  0
 11 13  1  0  0  0  0
 11 14  1  0  0  0  0
 14 15  2  0  0  0  0
 14 28  1  0  0  0  0
 15 16  1  0  0  0  0
 15 17  1  0  0  0  0
 17 18  1  0  0  0  0
 17 19  1  0  0  0  0
 19 20  1  0  0  0  0
 19 28  2  0  0  0  0
 20 21  1  0  0  0  0
 20 22  2  0  0  0  0
 22 23  1  0  0  0  0
 22 24  1  0  0  0  0
 24 25  1  0  0  0  0
 24 26  2  0  0  0  0
 26 27  1  0  0  0  0
 26 28  1  0  0  0  0
 29 30  2  0  0  0  0
 29 31  1  0  0  0  0
 31 32  1  0  0  0  0
 31 33  1  0  0  0  0
 33 34  1  0  0  0  0
 33 35  1  0  0  0  0
 33 36  1  0  0  0  0
M  END
$$$$

  -OEChem-03222214083D

 36 37  0     1  0  0  0  0  0999 V2000
   -3.2106   -4.7308    0.7946 H   0  0  0  0  0  0  0  0  0  0  0  0
   -3.1942   -3.9397    0.0394 C   0  0  0  0  0  0  0  0  0  0  0  0
   -4.1478   -3.4071    0.0677 H   0  0  0  0  0  0  0  0  0  0  0  0
   -3.0677   -4.3978   -0.9444 H   0  0  0  0  0  0  0  0  0  0  0  0
   -2.0536   -2.9784    0.3170 C   0  0  0  0  0  0  0  0  0  0  0  0
   -1.3657   -3.1261    1.3099 O   0  0  0  0  0  0  0  0  0  0  0  0
   -1.8179   -1.9280   -0.5477 N   0  0  0  0  0  0  0  0  0  0  0  0
   -2.3628   -1.9210   -1.4040 H   0  0  0  0  0  0  0  0  0  0  0  0
   -0.6425   -1.0365   -0.4675 C   0  0  1  0  0  0  0  0  0  0  0  0
    0.2556   -1.6575   -0.5664 H   0  0  0  0  0  0  0  0  0  0  0  0
   -0.6969   -0.0465   -1.6450 C   0  0  0  0  0  0  0  0  0  0  0  0
   -1.1972   -0.5010   -2.5053 H   0  0  0  0  0  0  0  0  0  0  0  0
   -1.2760    0.8391   -1.3637 H   0  0  0  0  0  0  0  0  0  0  0  0
    0.6891    0.3598   -2.0658 C   0  0  0  0  0  0  0  0  0  0  0  0
    1.4025    1.4266   -1.5766 C   0  0  0  0  0  0  0  0  0  0  0  0
    1.0688    2.1029   -0.7918 H   0  0  0  0  0  0  0  0  0  0  0  0
    2.6266    1.4537   -2.2408 N   0  0  0  0  0  0  0  0  0  0  0  0
    3.3821    2.1076   -2.0478 H   0  0  0  0  0  0  0  0  0  0  0  0
    2.7075    0.4103   -3.1486 C   0  0  0  0  0  0  0  0  0  0  0  0
    3.7187    0.0186   -4.0259 C   0  0  0  0  0  0  0  0  0  0  0  0
    4.6458    0.5788   -4.0749 H   0  0  0  0  0  0  0  0  0  0  0  0
    3.5206   -1.1068   -4.8382 C   0  0  0  0  0  0  0  0  0  0  0  0
    4.3002   -1.4230   -5.5248 H   0  0  0  0  0  0  0  0  0  0  0  0
    2.3184   -1.8269   -4.7619 C   0  0  0  0  0  0  0  0  0  0  0  0
    2.1704   -2.7001   -5.3898 H   0  0  0  0  0  0  0  0  0  0  0  0
    1.3097   -1.4248   -3.8747 C   0  0  0  0  0  0  0  0  0  0  0  0
    0.3820   -1.9822   -3.8086 H   0  0  0  0  0  0  0  0  0  0  0  0
    1.5143   -0.2989   -3.0703 C   0  0  0  0  0  0  0  0  0  0  0  0
   -0.5140   -0.2594    0.8645 C   0  0  0  0  0  0  0  0  0  0  0  0
    0.5868    0.0319    1.3148 O   0  0  0  0  0  0  0  0  0  0  0  0
   -1.6328    0.3470    1.4096 N   0  0  0  0  0  0  0  0  0  0  0  0
   -2.5270   -0.0047    1.0841 H   0  0  0  0  0  0  0  0  0  0  0  0
   -1.5926    1.0955    2.6596 C   0  0  0  0  0  0  0  0  0  0  0  0
   -0.8939    1.9353    2.5827 H   0  0  0  0  0  0  0  0  0  0  0  0
   -2.5842    1.4945    2.8932 H   0  0  0  0  0  0  0  0  0  0  0  0
   -1.2754    0.4470    3.4831 H   0  0  0  0  0  0  0  0  0  0  0  0
  1  2  1  0  0  0  0
  2  3  1  0  0  0  0
  2  4  1  0  0  0  0
  2  5  1  0  0  0  0
  5  6  2  0  0  0  0
  5  7  1  0  0  0  0
  7  8  1  0  0  0  0
  7  9  1  0  0  0  0
  9 10  1  0  0  0  0
  9 11  1  0  0  0  0
  9 29  1  0  0  0  0
 11 12  1  0  0  0  0
 11 13  1  0  0  0  0
 11 14  1  0  0  0  0
 14 15  2  0  0  0  0
 14 28  1  0  0  0  0
 15 16  1  0  0  0  0
 15 17  1  0  0  0  0
 17 18  1  0  0  0  0
 17 19  1  0  0  0  0
 19 20  1  0  0  0  0
 19 28  2  0  0  0  0
 20 21  1  0  0  0  0
 20 22  2  0  0  0  0
 22 23  1  0  0  0  0
 22 24  1  0  0  0  0
 24 25  1  0  0  0  0
 24 26  2  0  0  0  0
 26 27  1  0  0  0  0
 26 28  1  0  0  0  0
 29 30  2  0  0  0  0
 29 31  1  0  0  0  0
 31 32  1  0  0  0  0
 31 33  1  0  0  0  0
 33 34  1  0  0  0  0
 33 35  1  0  0  0  0
 33 36  1  0  0  0  0
M  END
$$$$

  -OEChem-03222214083D

 36 37  0     1  0  0  0  0  0999 V2000
   -3.2461   -4.7140    0.8014 H   0  0  0  0  0  0  0  0  0  0  0  0
   -3.2253   -3.9191    0.0501 C   0  0  0  0  0  0  0  0  0  0  0  0
   -4.1749   -3.3797    0.0816 H   0  0  0  0  0  0  0  0  0  0  0  0
   -3.1027   -4.3724   -0.9365 H   0  0  0  0  0  0  0  0  0  0  0  0
   -2.0786   -2.9668    0.3315 C   0  0  0  0  0  0  0  0  0  0  0  0
   -1.3972   -3.1178    1.3283 O   0  0  0  0  0  0  0  0  0  0  0  0
   -1.8299   -1.9221   -0.5363 N   0  0  0  0  0  0  0  0  0  0  0  0
   -2.3650   -1.9208   -1.3988 H   0  0  0  0  0  0  0  0  0  0  0  0
   -0.6445   -1.0436   -0.4563 C   0  0  1  0  0  0  0  0  0  0  0  0
    0.2484   -1.6723   -0.5523 H   0  0  0  0  0  0  0  0  0  0  0  0
   -0.6915   -0.0587   -1.6411 C   0  0  0  0  0  0  0  0  0  0  0  0
   -1.2024   -0.5167   -2.4927 H   0  0  0  0  0  0  0  0  0  0  0  0
   -1.2627    0.8334   -1.3644 H   0  0  0  0  0  0  0  0  0  0  0  0
    0.6921    0.3445   -2.0799 C   0  0  0  0  0  0  0  0  0  0  0  0
    1.5277    1.2184   -1.4257 C   0  0  0  0  0  0  0  0  0  0  0  0
    1.3073    1.7225   -0.4858 H   0  0  0  0  0  0  0  0  0  0  0  0
    2.7041    1.3115   -2.1643 N   0  0  0  0  0  0  0  0  0  0  0  0
    3.5217    1.8539   -1.8939 H   0  0  0  0  0  0  0  0  0  0  0  0
    2.6350    0.5033   -3.2869 C   0  0  0  0  0  0  0  0  0  0  0  0
    3.5518    0.2591   -4.3092 C   0  0  0  0  0  0  0  0  0  0  0  0
    4.5177    0.7514   -4.3044 H   0  0  0  0  0  0  0  0  0  0  0  0
    3.2077   -0.6287   -5.3380 C   0  0  0  0  0  0  0  0  0  0  0  0
    3.9125   -0.8283   -6.1397 H   0  0  0  0  0  0  0  0  0  0  0  0
    1.9552   -1.2612   -5.3309 C   0  0  0  0  0  0  0  0  0  0  0  0
    1.6932   -1.9503   -6.1281 H   0  0  0  0  0  0  0  0  0  0  0  0
    1.0423   -1.0096   -4.2964 C   0  0  0  0  0  0  0  0  0  0  0  0
    0.0765   -1.5024   -4.2888 H   0  0  0  0  0  0  0  0  0  0  0  0
    1.3916   -0.1202   -3.2736 C   0  0  0  0  0  0  0  0  0  0  0  0
   -0.5189   -0.2682    0.8773 C   0  0  0  0  0  0  0  0  0  0  0  0
    0.5811   -0.0062    1.3478 O   0  0  0  0  0  0  0  0  0  0  0  0
   -1.6343    0.3490    1.4169 N   0  0  0  0  0  0  0  0  0  0  0  0
   -2.5307    0.0169    1.0769 H   0  0  0  0  0  0  0  0  0  0  0  0
   -1.5957    1.0875    2.6727 C   0  0  0  0  0  0  0  0  0  0  0  0
   -0.8854    1.9184    2.6083 H   0  0  0  0  0  0  0  0  0  0  0  0
   -2.5839    1.4982    2.9004 H   0  0  0  0  0  0  0  0  0  0  0  0
   -1.2941    0.4282    3.4936 H   0  0  0  0  0  0  0  0  0  0  0  0
  1  2  1  0  0  0  0
  2  3  1  0  0  0  0
  2  4  1  0  0  0  0
  2  5  1  0  0  0  0
  5  6  2  0  0  0  0
  5  7  1  0  0  0  0
  7  8  1  0  0  0  0
  7  9  1  0  0  0  0
  9 10  1  0  0  0  0
  9 11  1  0  0  0  0
  9 29  1  0  0  0  0
 11 12  1  0  0  0  0
 11 13  1  0  0  0  0
 11 14  1  0  0  0  0
 14 15  2  0  0  0  0
 14 28  1  0  0  0  0
 15 16  1  0  0  0  0
 15 17  1  0  0  0  0
 17 18  1  0  0  0  0
 17 19  1  0  0  0  0
 19 20  1  0  0  0  0
 19 28  2  0  0  0  0
 20 21  1  0  0  0  0
 20 22  2  0  0  0  0
 22 23  1  0  0  0  0
 22 24  1  0  0  0  0
 24 25  1  0  0  0  0
 24 26  2  0  0  0  0
 26 27  1  0  0  0  0
 26 28  1  0  0  0  0
 29 30  2  0  0  0  0
 29 31  1  0  0  0  0
 31 32  1  0  0  0  0
 31 33  1  0  0  0  0
 33 34  1  0  0  0  0
 33 35  1  0  0  0  0
 33 36  1  0  0  0  0
M  END
$$$$

  -OEChem-03222214083D

 36 37  0     1  0  0  0  0  0999 V2000
   -3.2868   -4.6894    0.7952 H   0  0  0  0  0  0  0  0  0  0  0  0
   -3.2520   -3.8919    0.0472 C   0  0  0  0  0  0  0  0  0  0  0  0
   -4.1976   -3.3450    0.0719 H   0  0  0  0  0  0  0  0  0  0  0  0
   -3.1240   -4.3435   -0.9395 H   0  0  0  0  0  0  0  0  0  0  0  0
   -2.0992   -2.9510    0.3432 C   0  0  0  0  0  0  0  0  0  0  0  0
   -1.4302   -3.1121    1.3467 O   0  0  0  0  0  0  0  0  0  0  0  0
   -1.8245   -1.9118   -0.5239 N   0  0  0  0  0  0  0  0  0  0  0  0
   -2.3482   -1.9057   -1.3933 H   0  0  0  0  0  0  0  0  0  0  0  0
   -0.6301   -1.0457   -0.4291 C   0  0  1  0  0  0  0  0  0  0  0  0
    0.2591   -1.6819   -0.5092 H   0  0  0  0  0  0  0  0  0  0  0  0
   -0.6580   -0.0715   -1.6263 C   0  0  0  0  0  0  0  0  0  0  0  0
   -1.1643   -0.5493   -2.4690 H   0  0  0  0  0  0  0  0  0  0  0  0
   -1.2359    0.8225   -1.3705 H   0  0  0  0  0  0  0  0  0  0  0  0
    0.7214    0.3407   -2.0830 C   0  0  0  0  0  0  0  0  0  0  0  0
    1.6810    0.9918   -1.3418 C   0  0  0  0  0  0  0  0  0  0  0  0
    1.5829    1.3079   -0.3049 H   0  0  0  0  0  0  0  0  0  0  0  0
    2.7994    1.1665   -2.1519 N   0  0  0  0  0  0  0  0  0  0  0  0
    3.6737    1.5951   -1.8554 H   0  0  0  0  0  0  0  0  0  0  0  0
    2.5722    0.6372   -3.4102 C   0  0  0  0  0  0  0  0  0  0  0  0
    3.3816    0.5718   -4.5440 C   0  0  0  0  0  0  0  0  0  0  0  0
    4.3832    0.9869   -4.5239 H   0  0  0  0  0  0  0  0  0  0  0  0
    2.8835   -0.0362   -5.7044 C   0  0  0  0  0  0  0  0  0  0  0  0
    3.5030   -0.0944   -6.5945 H   0  0  0  0  0  0  0  0  0  0  0  0
    1.5864   -0.5707   -5.7158 C   0  0  0  0  0  0  0  0  0  0  0  0
    1.2036   -1.0417   -6.6161 H   0  0  0  0  0  0  0  0  0  0  0  0
    0.7827   -0.4996   -4.5686 C   0  0  0  0  0  0  0  0  0  0  0  0
   -0.2186   -0.9152   -4.5811 H   0  0  0  0  0  0  0  0  0  0  0  0
    1.2849    0.1102   -3.4122 C   0  0  0  0  0  0  0  0  0  0  0  0
   -0.5269   -0.2718    0.9073 C   0  0  0  0  0  0  0  0  0  0  0  0
    0.5607   -0.0666    1.4315 O   0  0  0  0  0  0  0  0  0  0  0  0
   -1.6460    0.3560    1.4260 N   0  0  0  0  0  0  0  0  0  0  0  0
   -2.5376    0.0612    1.0418 H   0  0  0  0  0  0  0  0  0  0  0  0
   -1.6339    1.0576    2.7036 C   0  0  0  0  0  0  0  0  0  0  0  0
   -0.9077    1.8770    2.6851 H   0  0  0  0  0  0  0  0  0  0  0  0
   -2.6218    1.4787    2.9133 H   0  0  0  0  0  0  0  0  0  0  0  0
   -1.3691    0.3703    3.5140 H   0  0  0  0  0  0  0  0  0  0  0  0
  1  2  1  0  0  0  0
  2  3  1  0  0  0  0
  2  4  1  0  0  0  0
  2  5  1  0  0  0  0
  5  6  2  0  0  0  0
  5  7  1  0  0  0  0
  7  8  1  0  0  0  0
  7  9  1  0  0  0  0
  9 10  1  0  0  0  0
  9 11  1  0  0  0  0
  9 29  1  0  0  0  0
 11 12  1  0  0  0  0
 11 13  1  0  0  0  0
 11 14  1  0  0  0  0
 14 15  2  0  0  0  0
 14 28  1  0  0  0  0
 15 16  1  0  0  0  0
 15 17  1  0  0  0  0
 17 18  1  0  0  0  0
 17 19  1  0  0  0  0
 19 20  1  0  0  0  0
 19 28  2  0  0  0  0
 20 21  1  0  0  0  0
 20 22  2  0  0  0  0
 22 23  1  0  0  0  0
 22 24  1  0  0  0  0
 24 25  1  0  0  0  0
 24 26  2  0  0  0  0
 26 27  1  0  0  0  0
 26 28  1  0  0  0  0
 29 30  2  0  0  0  0
 29 31  1  0  0  0  0
 31 32  1  0  0  0  0
 31 33  1  0  0  0  0
 33 34  1  0  0  0  0
 33 35  1  0  0  0  0
 33 36  1  0  0  0  0
M  END
$$$$

  -OEChem-03222214083D

 36 37  0     1  0  0  0  0  0999 V2000
   -3.3413   -4.6601    0.7979 H   0  0  0  0  0  0  0  0  0  0  0  0
   -3.2803   -3.8680    0.0458 C   0  0  0  0  0  0  0  0  0  0  0  0
   -4.2168   -3.3051    0.0511 H   0  0  0  0  0  0  0  0  0  0  0  0
   -3.1433   -4.3280   -0.9359 H   0  0  0  0  0  0  0  0  0  0  0  0
   -2.1167   -2.9448    0.3544 C   0  0  0  0  0  0  0  0  0  0  0  0
   -1.4621   -3.1153    1.3658 O   0  0  0  0  0  0  0  0  0  0  0  0
   -1.8111   -1.9161   -0.5151 N   0  0  0  0  0  0  0  0  0  0  0  0
   -2.3235   -1.9044   -1.3914 H   0  0  0  0  0  0  0  0  0  0  0  0
   -0.6082   -1.0638   -0.4037 C   0  0  1  0  0  0  0  0  0  0  0  0
    0.2763   -1.7080   -0.4637 H   0  0  0  0  0  0  0  0  0  0  0  0
   -0.6112   -0.0973   -1.6087 C   0  0  0  0  0  0  0  0  0  0  0  0
   -1.1034   -0.5943   -2.4491 H   0  0  0  0  0  0  0  0  0  0  0  0
   -1.1972    0.7975   -1.3764 H   0  0  0  0  0  0  0  0  0  0  0  0
    0.7671    0.3173   -2.0735 C   0  0  0  0  0  0  0  0  0  0  0  0
    1.8413    0.7167   -1.3092 C   0  0  0  0  0  0  0  0  0  0  0  0
    1.8666    0.8007   -0.2255 H   0  0  0  0  0  0  0  0  0  0  0  0
    2.8982    0.9976   -2.1701 N   0  0  0  0  0  0  0  0  0  0  0  0
    3.8233    1.3051   -1.8775 H   0  0  0  0  0  0  0  0  0  0  0  0
    2.5197    0.7919   -3.4844 C   0  0  0  0  0  0  0  0  0  0  0  0
    3.2200    0.9392   -4.6816 C   0  0  0  0  0  0  0  0  0  0  0  0
    4.2532    1.2681   -4.6728 H   0  0  0  0  0  0  0  0  0  0  0  0
    2.5710    0.6581   -5.8914 C   0  0  0  0  0  0  0  0  0  0  0  0
    3.1041    0.7685   -6.8311 H   0  0  0  0  0  0  0  0  0  0  0  0
    1.2333    0.2359   -5.8888 C   0  0  0  0  0  0  0  0  0  0  0  0
    0.7325    0.0211   -6.8279 H   0  0  0  0  0  0  0  0  0  0  0  0
    0.5406    0.0911   -4.6781 C   0  0  0  0  0  0  0  0  0  0  0  0
   -0.4938   -0.2335   -4.6806 H   0  0  0  0  0  0  0  0  0  0  0  0
    1.1948    0.3700   -3.4714 C   0  0  0  0  0  0  0  0  0  0  0  0
   -0.5325   -0.2841    0.9321 C   0  0  0  0  0  0  0  0  0  0  0  0
    0.5376   -0.1227    1.5051 O   0  0  0  0  0  0  0  0  0  0  0  0
   -1.6567    0.3580    1.4216 N   0  0  0  0  0  0  0  0  0  0  0  0
   -2.5407    0.0946    0.9994 H   0  0  0  0  0  0  0  0  0  0  0  0
   -1.6734    1.0534    2.7022 C   0  0  0  0  0  0  0  0  0  0  0  0
   -0.9306    1.8581    2.7125 H   0  0  0  0  0  0  0  0  0  0  0  0
   -2.6588    1.4939    2.8806 H   0  0  0  0  0  0  0  0  0  0  0  0
   -1.4504    0.3571    3.5176 H   0  0  0  0  0  0  0  0  0  0  0  0
  1  2  1  0  0  0  0
  2  3  1  0  0  0  0
  2  4  1  0  0  0  0
  2  5  1  0  0  0  0
  5  6  2  0  0  0  0
  5  7  1  0  0  0  0
  7  8  1  0  0  0  0
  7  9  1  0  0  0  0
  9 10  1  0  0  0  0
  9 11  1  0  0  0  0
  9 29  1  0  0  0  0
 11 12  1  0  0  0  0
 11 13  1  0  0  0  0
 11 14  1  0  0  0  0
 14 15  2  0  0  0  0
 14 28  1  0  0  0  0
 15 16  1  0  0  0  0
 15 17  1  0  0  0  0
 17 18  1  0  0  0  0
 17 19  1  0  0  0  0
 19 20  1  0  0  0  0
 19 28  2  0  0  0  0
 20 21  1  0  0  0  0
 20 22  2  0  0  0  0
 22 23  1  0  0  0  0
 22 24  1  0  0  0  0
 24 25  1  0  0  0  0
 24 26  2  0  0  0  0
 26 27  1  0  0  0  0
 26 28  1  0  0  0  0
 29 30  2  0  0  0  0
 29 31  1  0  0  0  0
 31 32  1  0  0  0  0
 31 33  1  0  0  0  0
 33 34  1  0  0  0  0
 33 35  1  0  0  0  0
 33 36  1  0  0  0  0
M  END
$$$$

  -OEChem-03222214083D

 36 37  0     1  0  0  0  0  0999 V2000
   -3.3816   -4.6439    0.8115 H   0  0  0  0  0  0  0  0  0  0  0  0
   -3.3142   -3.8544    0.0573 C   0  0  0  0  0  0  0  0  0  0  0  0
   -4.2408   -3.2754    0.0704 H   0  0  0  0  0  0  0  0  0  0  0  0
   -3.1943   -4.3182   -0.9247 H   0  0  0  0  0  0  0  0  0  0  0  0
   -2.1323   -2.9507    0.3540 C   0  0  0  0  0  0  0  0  0  0  0  0
   -1.4706   -3.1321    1.3590 O   0  0  0  0  0  0  0  0  0  0  0  0
   -1.8154   -1.9280   -0.5186 N   0  0  0  0  0  0  0  0  0  0  0  0
   -2.3371   -1.9017   -1.3890 H   0  0  0  0  0  0  0  0  0  0  0  0
   -0.6080   -1.0829   -0.4042 C   0  0  1  0  0  0  0  0  0  0  0  0
    0.2693   -1.7371   -0.4551 H   0  0  0  0  0  0  0  0  0  0  0  0
   -0.5921   -0.1210   -1.6126 C   0  0  0  0  0  0  0  0  0  0  0  0
   -1.0731   -0.6246   -2.4563 H   0  0  0  0  0  0  0  0  0  0  0  0
   -1.1797    0.7760   -1.3924 H   0  0  0  0  0  0  0  0  0  0  0  0
    0.7879    0.2890   -2.0771 C   0  0  0  0  0  0  0  0  0  0  0  0
    1.9463    0.4215   -1.3426 C   0  0  0  0  0  0  0  0  0  0  0  0
    2.0592    0.2435   -0.2758 H   0  0  0  0  0  0  0  0  0  0  0  0
    2.9587    0.8236   -2.2092 N   0  0  0  0  0  0  0  0  0  0  0  0
    3.9238    0.9997   -1.9375 H   0  0  0  0  0  0  0  0  0  0  0  0
    2.4684    0.9620   -3.4950 C   0  0  0  0  0  0  0  0  0  0  0  0
    3.0876    1.3404   -4.6861 C   0  0  0  0  0  0  0  0  0  0  0  0
    4.1437    1.5858   -4.6980 H   0  0  0  0  0  0  0  0  0  0  0  0
    2.3271    1.3987   -5.8622 C   0  0  0  0  0  0  0  0  0  0  0  0
    2.7962    1.6911   -6.7970 H   0  0  0  0  0  0  0  0  0  0  0  0
    0.9605    1.0815   -5.8316 C   0  0  0  0  0  0  0  0  0  0  0  0
    0.3732    1.1300   -6.7434 H   0  0  0  0  0  0  0  0  0  0  0  0
    0.3500    0.7031   -4.6270 C   0  0  0  0  0  0  0  0  0  0  0  0
   -0.7068    0.4609   -4.6035 H   0  0  0  0  0  0  0  0  0  0  0  0
    1.1161    0.6420   -3.4568 C   0  0  0  0  0  0  0  0  0  0  0  0
   -0.5309   -0.2953    0.9272 C   0  0  0  0  0  0  0  0  0  0  0  0
    0.5386   -0.1412    1.5032 O   0  0  0  0  0  0  0  0  0  0  0  0
   -1.6509    0.3589    1.4102 N   0  0  0  0  0  0  0  0  0  0  0  0
   -2.5361    0.1084    0.9829 H   0  0  0  0  0  0  0  0  0  0  0  0
   -1.6629    1.0705    2.6817 C   0  0  0  0  0  0  0  0  0  0  0  0
   -0.9089    1.8647    2.6835 H   0  0  0  0  0  0  0  0  0  0  0  0
   -2.6426    1.5269    2.8510 H   0  0  0  0  0  0  0  0  0  0  0  0
   -1.4523    0.3817    3.5066 H   0  0  0  0  0  0  0  0  0  0  0  0
  1  2  1  0  0  0  0
  2  3  1  0  0  0  0
  2  4  1  0  0  0  0
  2  5  1  0  0  0  0
  5  6  2  0  0  0  0
  5  7  1  0  0  0  0
  7  8  1  0  0  0  0
  7  9  1  0  0  0  0
  9 10  1  0  0  0  0
  9 11  1  0  0  0  0
  9 29  1  0  0  0  0
 11 12  1  0  0  0  0
 11 13  1  0  0  0  0
 11 14  1  0  0  0  0
 14 15  2  0  0  0  0
 14 28  1  0  0  0  0
 15 16  1  0  0  0  0
 15 17  1  0  0  0  0
 17 18  1  0  0  0  0
 17 19  1  0  0  0  0
 19 20  1  0  0  0  0
 19 28  2  0  0  0  0
 20 21  1  0  0  0  0
 20 22  2  0  0  0  0
 22 23  1  0  0  0  0
 22 24  1  0  0  0  0
 24 25  1  0  0  0  0
 24 26  2  0  0  0  0
 26 27  1  0  0  0  0
 26 28  1  0  0  0  0
 29 30  2  0  0  0  0
 29 31  1  0  0  0  0
 31 32  1  0  0  0  0
 31 33  1  0  0  0  0
 33 34  1  0  0  0  0
 33 35  1  0  0  0  0
 33 36  1  0  0  0  0
M  END
$$$$

  -OEChem-03222214083D

 36 37  0     1  0  0  0  0  0999 V2000
   -3.3952   -4.6479    0.8045 H   0  0  0  0  0  0  0  0  0  0  0  0
   -3.3317   -3.8584    0.0500 C   0  0  0  0  0  0  0  0  0  0  0  0
   -4.2557   -3.2760    0.0724 H   0  0  0  0  0  0  0  0  0  0  0  0
   -3.2228   -4.3219   -0.9336 H   0  0  0  0  0  0  0  0  0  0  0  0
   -2.1436   -2.9594    0.3361 C   0  0  0  0  0  0  0  0  0  0  0  0
   -1.4653   -3.1491    1.3286 O   0  0  0  0  0  0  0  0  0  0  0  0
   -1.8392   -1.9285   -0.5306 N   0  0  0  0  0  0  0  0  0  0  0  0
   -2.3749   -1.8896   -1.3923 H   0  0  0  0  0  0  0  0  0  0  0  0
   -0.6334   -1.0819   -0.4196 C   0  0  1  0  0  0  0  0  0  0  0  0
    0.2348   -1.7472   -0.4780 H   0  0  0  0  0  0  0  0  0  0  0  0
   -0.6120   -0.1189   -1.6256 C   0  0  0  0  0  0  0  0  0  0  0  0
   -1.0903   -0.6151   -2.4757 H   0  0  0  0  0  0  0  0  0  0  0  0
   -1.1970    0.7785   -1.3995 H   0  0  0  0  0  0  0  0  0  0  0  0
    0.7696    0.2904   -2.0834 C   0  0  0  0  0  0  0  0  0  0  0  0
    1.9762    0.1612   -1.4298 C   0  0  0  0  0  0  0  0  0  0  0  0
    2.1281   -0.2588   -0.4369 H   0  0  0  0  0  0  0  0  0  0  0  0
    2.9694    0.6704   -2.2623 N   0  0  0  0  0  0  0  0  0  0  0  0
    3.9588    0.7186   -2.0285 H   0  0  0  0  0  0  0  0  0  0  0  0
    2.4197    1.1315   -3.4456 C   0  0  0  0  0  0  0  0  0  0  0  0
    2.9971    1.7199   -4.5709 C   0  0  0  0  0  0  0  0  0  0  0  0
    4.0684    1.8829   -4.6132 H   0  0  0  0  0  0  0  0  0  0  0  0
    2.1755    2.0965   -5.6424 C   0  0  0  0  0  0  0  0  0  0  0  0
    2.6122    2.5554   -6.5244 H   0  0  0  0  0  0  0  0  0  0  0  0
    0.7903    1.8831   -5.5748 C   0  0  0  0  0  0  0  0  0  0  0  0
    0.1571    2.1786   -6.4058 H   0  0  0  0  0  0  0  0  0  0  0  0
    0.2213    1.2915   -4.4373 C   0  0  0  0  0  0  0  0  0  0  0  0
   -0.8495    1.1285   -4.3809 H   0  0  0  0  0  0  0  0  0  0  0  0
    1.0485    0.9151   -3.3731 C   0  0  0  0  0  0  0  0  0  0  0  0
   -0.5243   -0.2974    0.9098 C   0  0  0  0  0  0  0  0  0  0  0  0
    0.5651   -0.1349    1.4451 O   0  0  0  0  0  0  0  0  0  0  0  0
   -1.6298    0.3609    1.4196 N   0  0  0  0  0  0  0  0  0  0  0  0
   -2.5272    0.1088    1.0195 H   0  0  0  0  0  0  0  0  0  0  0  0
   -1.6042    1.0914    2.6804 C   0  0  0  0  0  0  0  0  0  0  0  0
   -0.8491    1.8842    2.6501 H   0  0  0  0  0  0  0  0  0  0  0  0
   -2.5783    1.5523    2.8698 H   0  0  0  0  0  0  0  0  0  0  0  0
   -1.3718    0.4147    3.5094 H   0  0  0  0  0  0  0  0  0  0  0  0
  1  2  1  0  0  0  0
  2  3  1  0  0  0  0
  2  4  1  0  0  0  0
  2  5  1  0  0  0  0
  5  6  2  0  0  0  0
  5  7  1  0  0  0  0
  7  8  1  0  0  0  0
  7  9  1  0  0  0  0
  9 10  1  0  0  0  0
  9 11  1  0  0  0  0
  9 29  1  0  0  0  0
 11 12  1  0  0  0  0
 11 13  1  0  0  0  0
 11 14  1  0  0  0  0
 14 15  2  0  0  0  0
 14 28  1  0  0  0  0
 15 16  1  0  0  0  0
 15 17  1  0  0  0  0
 17 18  1  0  0  0  0
 17 19  1  0  0  0  0
 19 20  1  0  0  0  0
 19 28  2  0  0  0  0
 20 21  1  0  0  0  0
 20 22  2  0  0  0  0
 22 23  1  0  0  0  0
 22 24  1  0  0  0  0
 24 25  1  0  0  0  0
 24 26  2  0  0  0  0
 26 27  1  0  0  0  0
 26 28  1  0  0  0  0
 29 30  2  0  0  0  0
 29 31  1  0  0  0  0
 31 32  1  0  0  0  0
 31 33  1  0  0  0  0
 33 34  1  0  0  0  0
 33 35  1  0  0  0  0
 33 36  1  0  0  0  0
M  END
$$$$

  -OEChem-03222214083D

 36 37  0     1  0  0  0  0  0999 V2000
   -3.4036   -4.6622    0.7663 H   0  0  0  0  0  0  0  0  0  0  0  0
   -3.3474   -3.8626    0.0219 C   0  0  0  0  0  0  0  0  0  0  0  0
   -4.2730   -3.2832    0.0584 H   0  0  0  0  0  0  0  0  0  0  0  0
   -3.2440   -4.3127   -0.9684 H   0  0  0  0  0  0  0  0  0  0  0  0
   -2.1594   -2.9640    0.3109 C   0  0  0  0  0  0  0  0  0  0  0  0
   -1.4711   -3.1650    1.2942 O   0  0  0  0  0  0  0  0  0  0  0  0
   -1.8661   -1.9194   -0.5426 N   0  0  0  0  0  0  0  0  0  0  0  0
   -2.4143   -1.8631   -1.3953 H   0  0  0  0  0  0  0  0  0  0  0  0
   -0.6638   -1.0702   -0.4276 C   0  0  1  0  0  0  0  0  0  0  0  0
    0.1928   -1.7486   -0.4910 H   0  0  0  0  0  0  0  0  0  0  0  0
   -0.6331   -0.1110   -1.6354 C   0  0  0  0  0  0  0  0  0  0  0  0
   -1.1083   -0.5986   -2.4922 H   0  0  0  0  0  0  0  0  0  0  0  0
   -1.2165    0.7863   -1.4046 H   0  0  0  0  0  0  0  0  0  0  0  0
    0.7516    0.3005   -2.0801 C   0  0  0  0  0  0  0  0  0  0  0  0
    1.9769   -0.0570   -1.5602 C   0  0  0  0  0  0  0  0  0  0  0  0
    2.1440   -0.6836   -0.6854 H   0  0  0  0  0  0  0  0  0  0  0  0
    2.9618    0.5526   -2.3331 N   0  0  0  0  0  0  0  0  0  0  0  0
    3.9625    0.4932   -2.1569 H   0  0  0  0  0  0  0  0  0  0  0  0
    2.3880    1.2962   -3.3498 C   0  0  0  0  0  0  0  0  0  0  0  0
    2.9474    2.0735   -4.3638 C   0  0  0  0  0  0  0  0  0  0  0  0
    4.0243    2.1701   -4.4461 H   0  0  0  0  0  0  0  0  0  0  0  0
    2.1004    2.7248   -5.2716 C   0  0  0  0  0  0  0  0  0  0  0  0
    2.5232    3.3324   -6.0661 H   0  0  0  0  0  0  0  0  0  0  0  0
    0.7082    2.5927   -5.1538 C   0  0  0  0  0  0  0  0  0  0  0  0
    0.0554    3.0990   -5.8581 H   0  0  0  0  0  0  0  0  0  0  0  0
    0.1576    1.8102   -4.1283 C   0  0  0  0  0  0  0  0  0  0  0  0
   -0.9179    1.7080   -4.0315 H   0  0  0  0  0  0  0  0  0  0  0  0
    1.0100    1.1631   -3.2274 C   0  0  0  0  0  0  0  0  0  0  0  0
   -0.5178   -0.2922    0.8993 C   0  0  0  0  0  0  0  0  0  0  0  0
    0.5908   -0.1360    1.3963 O   0  0  0  0  0  0  0  0  0  0  0  0
   -1.6038    0.3712    1.4423 N   0  0  0  0  0  0  0  0  0  0  0  0
   -2.5150    0.1262    1.0699 H   0  0  0  0  0  0  0  0  0  0  0  0
   -1.5317    1.1028    2.7006 C   0  0  0  0  0  0  0  0  0  0  0  0
   -0.7737    1.8913    2.6433 H   0  0  0  0  0  0  0  0  0  0  0  0
   -2.4962    1.5689    2.9235 H   0  0  0  0  0  0  0  0  0  0  0  0
   -1.2742    0.4257    3.5216 H   0  0  0  0  0  0  0  0  0  0  0  0
  1  2  1  0  0  0  0
  2  3  1  0  0  0  0
  2  4  1  0  0  0  0
  2  5  1  0  0  0  0
  5  6  2  0  0  0  0
  5  7  1  0  0  0  0
  7  8  1  0  0  0  0
  7  9  1  0  0  0  0
  9 10  1  0  0  0  0
  9 11  1  0  0  0  0
  9 29  1  0  0  0  0
 11 12  1  0  0  0  0
 11 13  1  0  0  0  0
 11 14  1  0  0  0  0
 14 15  2  0  0  0  0
 14 28  1  0  0  0  0
 15 16  1  0  0  0  0
 15 17  1  0  0  0  0
 17 18  1  0  0  0  0
 17 19  1  0  0  0  0
 19 20  1  0  0  0  0
 19 28  2  0  0  0  0
 20 21  1  0  0  0  0
 20 22  2  0  0  0  0
 22 23  1  0  0  0  0
 22 24  1  0  0  0  0
 24 25  1  0  0  0  0
 24 26  2  0  0  0  0
 26 27  1  0  0  0  0
 26 28  1  0  0  0  0
 29 30  2  0  0  0  0
 29 31  1  0  0  0  0
 31 32  1  0  0  0  0
 31 33  1  0  0  0  0
 33 34  1  0  0  0  0
 33 35  1  0  0  0  0
 33 36  1  0  0  0  0
M  END
$$$$

  -OEChem-03222214083D

 36 37  0     1  0  0  0  0  0999 V2000
   -3.4328   -4.6453    0.7720 H   0  0  0  0  0  0  0  0  0  0  0  0
   -3.3696   -3.8482    0.0255 C   0  0  0  0  0  0  0  0  0  0  0  0
   -4.2854   -3.2537    0.0674 H   0  0  0  0  0  0  0  0  0  0  0  0
   -3.2812   -4.3019   -0.9647 H   0  0  0  0  0  0  0  0  0  0  0  0
   -2.1661   -2.9673    0.3041 C   0  0  0  0  0  0  0  0  0  0  0  0
   -1.4663   -3.1836    1.2761 O   0  0  0  0  0  0  0  0  0  0  0  0
   -1.8719   -1.9203   -0.5458 N   0  0  0  0  0  0  0  0  0  0  0  0
   -2.4332   -1.8471   -1.3886 H   0  0  0  0  0  0  0  0  0  0  0  0
   -0.6679   -1.0738   -0.4297 C   0  0  1  0  0  0  0  0  0  0  0  0
    0.1821   -1.7586   -0.4896 H   0  0  0  0  0  0  0  0  0  0  0  0
   -0.6323   -0.1170   -1.6391 C   0  0  0  0  0  0  0  0  0  0  0  0
   -1.1134   -0.5947   -2.4983 H   0  0  0  0  0  0  0  0  0  0  0  0
   -1.2101    0.7813   -1.3985 H   0  0  0  0  0  0  0  0  0  0  0  0
    0.7533    0.2930   -2.0835 C   0  0  0  0  0  0  0  0  0  0  0  0
    1.9745   -0.2580   -1.7602 C   0  0  0  0  0  0  0  0  0  0  0  0
    2.1449   -1.0794   -1.0674 H   0  0  0  0  0  0  0  0  0  0  0  0
    2.9570    0.4430   -2.4550 N   0  0  0  0  0  0  0  0  0  0  0  0
    3.9587    0.2822   -2.3737 H   0  0  0  0  0  0  0  0  0  0  0  0
    2.3845    1.4354   -3.2313 C   0  0  0  0  0  0  0  0  0  0  0  0
    2.9432    2.3815   -4.0903 C   0  0  0  0  0  0  0  0  0  0  0  0
    4.0171    2.4198   -4.2351 H   0  0  0  0  0  0  0  0  0  0  0  0
    2.0994    3.2780   -4.7609 C   0  0  0  0  0  0  0  0  0  0  0  0
    2.5213    4.0194   -5.4328 H   0  0  0  0  0  0  0  0  0  0  0  0
    0.7113    3.2189   -4.5637 C   0  0  0  0  0  0  0  0  0  0  0  0
    0.0606    3.9155   -5.0837 H   0  0  0  0  0  0  0  0  0  0  0  0
    0.1616    2.2648   -3.6951 C   0  0  0  0  0  0  0  0  0  0  0  0
   -0.9107    2.2185   -3.5383 H   0  0  0  0  0  0  0  0  0  0  0  0
    1.0108    1.3734   -3.0298 C   0  0  0  0  0  0  0  0  0  0  0  0
   -0.5077   -0.2964    0.8949 C   0  0  0  0  0  0  0  0  0  0  0  0
    0.6053   -0.1500    1.3840 O   0  0  0  0  0  0  0  0  0  0  0  0
   -1.5858    0.3729    1.4464 N   0  0  0  0  0  0  0  0  0  0  0  0
   -2.5010    0.1371    1.0786 H   0  0  0  0  0  0  0  0  0  0  0  0
   -1.4996    1.1069    2.7023 C   0  0  0  0  0  0  0  0  0  0  0  0
   -0.7359    1.8892    2.6378 H   0  0  0  0  0  0  0  0  0  0  0  0
   -2.4586    1.5818    2.9300 H   0  0  0  0  0  0  0  0  0  0  0  0
   -1.2422    0.4296    3.5235 H   0  0  0  0  0  0  0  0  0  0  0  0
  1  2  1  0  0  0  0
  2  3  1  0  0  0  0
  2  4  1  0  0  0  0
  2  5  1  0  0  0  0
  5  6  2  0  0  0  0
  5  7  1  0  0  0  0
  7  8  1  0  0  0  0
  7  9  1  0  0  0  0
  9 10  1  0  0  0  0
  9 11  1  0  0  0  0
  9 29  1  0  0  0  0
 11 12  1  0  0  0  0
 11 13  1  0  0  0  0
 11 14  1  0  0  0  0
 14 15  2  0  0  0  0
 14 28  1  0  0  0  0
 15 16  1  0  0  0  0
 15 17  1  0  0  0  0
 17 18  1  0  0  0  0
 17 19  1  0  0  0  0
 19 20  1  0  0  0  0
 19 28  2  0  0  0  0
 20 21  1  0  0  0  0
 20 22  2  0  0  0  0
 22 23  1  0  0  0  0
 22 24  1  0  0  0  0
 24 25  1  0  0  0  0
 24 26  2  0  0  0  0
 26 27  1  0  0  0  0
 26 28  1  0  0  0  0
 29 30  2  0  0  0  0
 29 31  1  0  0  0  0
 31 32  1  0  0  0  0
 31 33  1  0  0  0  0
 33 34  1  0  0  0  0
 33 35  1  0  0  0  0
 33 36  1  0  0  0  0
M  END
$$$$

  -OEChem-03222214083D

 36 37  0     1  0  0  0  0  0999 V2000
   -3.4306   -4.6286    0.8177 H   0  0  0  0  0  0  0  0  0  0  0  0
   -3.3692   -3.8387    0.0634 C   0  0  0  0  0  0  0  0  0  0  0  0
   -4.2790   -3.2356    0.1119 H   0  0  0  0  0  0  0  0  0  0  0  0
   -3.2967   -4.3014   -0.9237 H   0  0  0  0  0  0  0  0  0  0  0  0
   -2.1541   -2.9672    0.3188 C   0  0  0  0  0  0  0  0  0  0  0  0
   -1.4368   -3.1910    1.2760 O   0  0  0  0  0  0  0  0  0  0  0  0
   -1.8657   -1.9254   -0.5399 N   0  0  0  0  0  0  0  0  0  0  0  0
   -2.4470   -1.8430   -1.3680 H   0  0  0  0  0  0  0  0  0  0  0  0
   -0.6605   -1.0781   -0.4405 C   0  0  1  0  0  0  0  0  0  0  0  0
    0.1937   -1.7575   -0.5018 H   0  0  0  0  0  0  0  0  0  0  0  0
   -0.6438   -0.1228   -1.6524 C   0  0  0  0  0  0  0  0  0  0  0  0
   -1.1386   -0.5968   -2.5055 H   0  0  0  0  0  0  0  0  0  0  0  0
   -1.2180    0.7744   -1.4007 H   0  0  0  0  0  0  0  0  0  0  0  0
    0.7376    0.2832   -2.1125 C   0  0  0  0  0  0  0  0  0  0  0  0
    1.9168   -0.4248   -2.0314 C   0  0  0  0  0  0  0  0  0  0  0  0
    2.0475   -1.4039   -1.5766 H   0  0  0  0  0  0  0  0  0  0  0  0
    2.9175    0.3426   -2.6220 N   0  0  0  0  0  0  0  0  0  0  0  0
    3.9022    0.0893   -2.6655 H   0  0  0  0  0  0  0  0  0  0  0  0
    2.3969    1.5352   -3.0927 C   0  0  0  0  0  0  0  0  0  0  0  0
    2.9940    2.6116   -3.7488 C   0  0  0  0  0  0  0  0  0  0  0  0
    4.0559    2.5964   -3.9675 H   0  0  0  0  0  0  0  0  0  0  0  0
    2.2039    3.7085   -4.1196 C   0  0  0  0  0  0  0  0  0  0  0  0
    2.6555    4.5532   -4.6313 H   0  0  0  0  0  0  0  0  0  0  0  0
    0.8310    3.7160   -3.8293 C   0  0  0  0  0  0  0  0  0  0  0  0
    0.2216    4.5673   -4.1169 H   0  0  0  0  0  0  0  0  0  0  0  0
    0.2434    2.6287   -3.1663 C   0  0  0  0  0  0  0  0  0  0  0  0
   -0.8170    2.6355   -2.9389 H   0  0  0  0  0  0  0  0  0  0  0  0
    1.0383    1.5367   -2.7986 C   0  0  0  0  0  0  0  0  0  0  0  0
   -0.4972   -0.2954    0.8812 C   0  0  0  0  0  0  0  0  0  0  0  0
    0.6137   -0.1514    1.3743 O   0  0  0  0  0  0  0  0  0  0  0  0
   -1.5762    0.3728    1.4333 N   0  0  0  0  0  0  0  0  0  0  0  0
   -2.4908    0.1398    1.0627 H   0  0  0  0  0  0  0  0  0  0  0  0
   -1.4914    1.1078    2.6889 C   0  0  0  0  0  0  0  0  0  0  0  0
   -0.7291    1.8913    2.6234 H   0  0  0  0  0  0  0  0  0  0  0  0
   -2.4516    1.5806    2.9163 H   0  0  0  0  0  0  0  0  0  0  0  0
   -1.2331    0.4321    3.5111 H   0  0  0  0  0  0  0  0  0  0  0  0
  1  2  1  0  0  0  0
  2  3  1  0  0  0  0
  2  4  1  0  0  0  0
  2  5  1  0  0  0  0
  5  6  2  0  0  0  0
  5  7  1  0  0  0  0
  7  8  1  0  0  0  0
  7  9  1  0  0  0  0
  9 10  1  0  0  0  0
  9 11  1  0  0  0  0
  9 29  1  0  0  0  0
 11 12  1  0  0  0  0
 11 13  1  0  0  0  0
 11 14  1  0  0  0  0
 14 15  2  0  0  0  0
 14 28  1  0  0  0  0
 15 16  1  0  0  0  0
 15 17  1  0  0  0  0
 17 18  1  0  0  0  0
 17 19  1  0  0  0  0
 19 20  1  0  0  0  0
 19 28  2  0  0  0  0
 20 21  1  0  0  0  0
 20 22  2  0  0  0  0
 22 23  1  0  0  0  0
 22 24  1  0  0  0  0
 24 25  1  0  0  0  0
 24 26  2  0  0  0  0
 26 27  1  0  0  0  0
 26 28  1  0  0  0  0
 29 30  2  0  0  0  0
 29 31  1  0  0  0  0
 31 32  1  0  0  0  0
 31 33  1  0  0  0  0
 33 34  1  0  0  0  0
 33 35  1  0  0  0  0
 33 36  1  0  0  0  0
M  END
$$$$

  -OEChem-03222214083D

 36 37  0     1  0  0  0  0  0999 V2000
   -3.3790   -4.6334    0.8713 H   0  0  0  0  0  0  0  0  0  0  0  0
   -3.3333   -3.8534    0.1056 C   0  0  0  0  0  0  0  0  0  0  0  0
   -4.2475   -3.2576    0.1571 H   0  0  0  0  0  0  0  0  0  0  0  0
   -3.2698   -4.3292   -0.8759 H   0  0  0  0  0  0  0  0  0  0  0  0
   -2.1217   -2.9689    0.3339 C   0  0  0  0  0  0  0  0  0  0  0  0
   -1.3864   -3.1806    1.2800 O   0  0  0  0  0  0  0  0  0  0  0  0
   -1.8563   -1.9313   -0.5371 N   0  0  0  0  0  0  0  0  0  0  0  0
   -2.4577   -1.8544   -1.3512 H   0  0  0  0  0  0  0  0  0  0  0  0
   -0.6586   -1.0699   -0.4636 C   0  0  1  0  0  0  0  0  0  0  0  0
    0.2104   -1.7306   -0.5366 H   0  0  0  0  0  0  0  0  0  0  0  0
   -0.6811   -0.1145   -1.6743 C   0  0  0  0  0  0  0  0  0  0  0  0
   -1.1820   -0.5963   -2.5195 H   0  0  0  0  0  0  0  0  0  0  0  0
   -1.2634    0.7754   -1.4177 H   0  0  0  0  0  0  0  0  0  0  0  0
    0.6940    0.2925   -2.1474 C   0  0  0  0  0  0  0  0  0  0  0  0
    1.7906   -0.5193   -2.3312 C   0  0  0  0  0  0  0  0  0  0  0  0
    1.8322   -1.5882   -2.1347 H   0  0  0  0  0  0  0  0  0  0  0  0
    2.8321    0.2724   -2.8072 N   0  0  0  0  0  0  0  0  0  0  0  0
    3.7792   -0.0507   -2.9918 H   0  0  0  0  0  0  0  0  0  0  0  0
    2.4181    1.5870   -2.9359 C   0  0  0  0  0  0  0  0  0  0  0  0
    3.0910    2.7304   -3.3667 C   0  0  0  0  0  0  0  0  0  0  0  0
    4.1286    2.6699   -3.6756 H   0  0  0  0  0  0  0  0  0  0  0  0
    2.4097    3.9551   -3.3922 C   0  0  0  0  0  0  0  0  0  0  0  0
    2.9217    4.8535   -3.7236 H   0  0  0  0  0  0  0  0  0  0  0  0
    1.0684    4.0214   -2.9860 C   0  0  0  0  0  0  0  0  0  0  0  0
    0.5448    4.9724   -3.0026 H   0  0  0  0  0  0  0  0  0  0  0  0
    0.4029    2.8646   -2.5544 C   0  0  0  0  0  0  0  0  0  0  0  0
   -0.6324    2.9174   -2.2356 H   0  0  0  0  0  0  0  0  0  0  0  0
    1.0884    1.6442   -2.5337 C   0  0  0  0  0  0  0  0  0  0  0  0
   -0.4911   -0.2772    0.8521 C   0  0  0  0  0  0  0  0  0  0  0  0
    0.6208   -0.1122    1.3357 O   0  0  0  0  0  0  0  0  0  0  0  0
   -1.5751    0.3788    1.4093 N   0  0  0  0  0  0  0  0  0  0  0  0
   -2.4893    0.1252    1.0517 H   0  0  0  0  0  0  0  0  0  0  0  0
   -1.4900    1.1188    2.6617 C   0  0  0  0  0  0  0  0  0  0  0  0
   -0.7432    1.9162    2.5857 H   0  0  0  0  0  0  0  0  0  0  0  0
   -2.4562    1.5745    2.8978 H   0  0  0  0  0  0  0  0  0  0  0  0
   -1.2101    0.4501    3.4826 H   0  0  0  0  0  0  0  0  0  0  0  0
  1  2  1  0  0  0  0
  2  3  1  0  0  0  0
  2  4  1  0  0  0  0
  2  5  1  0  0  0  0
  5  6  2  0  0  0  0
  5  7  1  0  0  0  0
  7  8  1  0  0  0  0
  7  9  1  0  0  0  0
  9 10  1  0  0  0  0
  9 11  1  0  0  0  0
  9 29  1  0  0  0  0
 11 12  1  0  0  0  0
 11 13  1  0  0  0  0
 11 14  1  0  0  0  0
 14 15  2  0  0  0  0
 14 28  1  0  0  0  0
 15 16  1  0  0  0  0
 15 17  1  0  0  0  0
 17 18  1  0  0  0  0
 17 19  1  0  0  0  0
 19 20  1  0  0  0  0
 19 28  2  0  0  0  0
 20 21  1  0  0  0  0
 20 22  2  0  0  0  0
 22 23  1  0  0  0  0
 22 24  1  0  0  0  0
 24 25  1  0  0  0  0
 24 26  2  0  0  0  0
 26 27  1  0  0  0  0
 26 28  1  0  0  0  0
 29 30  2  0  0  0  0
 29 31  1  0  0  0  0
 31 32  1  0  0  0  0
 31 33  1  0  0  0  0
 33 34  1  0  0  0  0
 33 35  1  0  0  0  0
 33 36  1  0  0  0  0
M  END
$$$$

  -OEChem-03222214083D

 36 37  0     1  0  0  0  0  0999 V2000
   -3.3126   -4.6394    0.9134 H   0  0  0  0  0  0  0  0  0  0  0  0
   -3.2837   -3.8694    0.1371 C   0  0  0  0  0  0  0  0  0  0  0  0
   -4.2060   -3.2859    0.1874 H   0  0  0  0  0  0  0  0  0  0  0  0
   -3.2204   -4.3572   -0.8387 H   0  0  0  0  0  0  0  0  0  0  0  0
   -2.0834   -2.9650    0.3443 C   0  0  0  0  0  0  0  0  0  0  0  0
   -1.3351   -3.1565    1.2843 O   0  0  0  0  0  0  0  0  0  0  0  0
   -1.8453   -1.9312   -0.5391 N   0  0  0  0  0  0  0  0  0  0  0  0
   -2.4608   -1.8686   -1.3439 H   0  0  0  0  0  0  0  0  0  0  0  0
   -0.6588   -1.0525   -0.4921 C   0  0  1  0  0  0  0  0  0  0  0  0
    0.2244   -1.6934   -0.5831 H   0  0  0  0  0  0  0  0  0  0  0  0
   -0.7237   -0.1021   -1.7030 C   0  0  0  0  0  0  0  0  0  0  0  0
   -1.2238   -0.6024   -2.5379 H   0  0  0  0  0  0  0  0  0  0  0  0
   -1.3187    0.7816   -1.4536 H   0  0  0  0  0  0  0  0  0  0  0  0
    0.6438    0.3068   -2.1859 C   0  0  0  0  0  0  0  0  0  0  0  0
    1.6344   -0.5307   -2.6427 C   0  0  0  0  0  0  0  0  0  0  0  0
    1.5690   -1.6146   -2.7060 H   0  0  0  0  0  0  0  0  0  0  0  0
    2.7256    0.2578   -2.9976 N   0  0  0  0  0  0  0  0  0  0  0  0
    3.6212   -0.0918   -3.3313 H   0  0  0  0  0  0  0  0  0  0  0  0
    2.4488    1.5952   -2.7663 C   0  0  0  0  0  0  0  0  0  0  0  0
    3.2176    2.7441   -2.9524 C   0  0  0  0  0  0  0  0  0  0  0  0
    4.2244    2.6691   -3.3478 H   0  0  0  0  0  0  0  0  0  0  0  0
    2.6738    3.9917   -2.6167 C   0  0  0  0  0  0  0  0  0  0  0  0
    3.2619    4.8942   -2.7535 H   0  0  0  0  0  0  0  0  0  0  0  0
    1.3729    4.0744   -2.0974 C   0  0  0  0  0  0  0  0  0  0  0  0
    0.9562    5.0408   -1.8312 H   0  0  0  0  0  0  0  0  0  0  0  0
    0.6103    2.9120   -1.9135 C   0  0  0  0  0  0  0  0  0  0  0  0
   -0.3910    2.9752   -1.5021 H   0  0  0  0  0  0  0  0  0  0  0  0
    1.1576    1.6704   -2.2563 C   0  0  0  0  0  0  0  0  0  0  0  0
   -0.4839   -0.2469    0.8155 C   0  0  0  0  0  0  0  0  0  0  0  0
    0.6308   -0.0605    1.2843 O   0  0  0  0  0  0  0  0  0  0  0  0
   -1.5699    0.3973    1.3829 N   0  0  0  0  0  0  0  0  0  0  0  0
   -2.4853    0.1230    1.0441 H   0  0  0  0  0  0  0  0  0  0  0  0
   -1.4767    1.1506    2.6268 C   0  0  0  0  0  0  0  0  0  0  0  0
   -0.7459    1.9607    2.5303 H   0  0  0  0  0  0  0  0  0  0  0  0
   -2.4466    1.5909    2.8760 H   0  0  0  0  0  0  0  0  0  0  0  0
   -1.1700    0.4949    3.4486 H   0  0  0  0  0  0  0  0  0  0  0  0
  1  2  1  0  0  0  0
  2  3  1  0  0  0  0
  2  4  1  0  0  0  0
  2  5  1  0  0  0  0
  5  6  2  0  0  0  0
  5  7  1  0  0  0  0
  7  8  1  0  0  0  0
  7  9  1  0  0  0  0
  9 10  1  0  0  0  0
  9 11  1  0  0  0  0
  9 29  1  0  0  0  0
 11 12  1  0  0  0  0
 11 13  1  0  0  0  0
 11 14  1  0  0  0  0
 14 15  2  0  0  0  0
 14 28  1  0  0  0  0
 15 16  1  0  0  0  0
 15 17  1  0  0  0  0
 17 18  1  0  0  0  0
 17 19  1  0  0  0  0
 19 20  1  0  0  0  0
 19 28  2  0  0  0  0
 20 21  1  0  0  0  0
 20 22  2  0  0  0  0
 22 23  1  0  0  0  0
 22 24  1  0  0  0  0
 24 25  1  0  0  0  0
 24 26  2  0  0  0  0
 26 27  1  0  0  0  0
 26 28  1  0  0  0  0
 29 30  2  0  0  0  0
 29 31  1  0  0  0  0
 31 32  1  0  0  0  0
 31 33  1  0  0  0  0
 33 34  1  0  0  0  0
 33 35  1  0  0  0  0
 33 36  1  0  0  0  0
M  END
$$$$

  -OEChem-03222214083D

 36 37  0     1  0  0  0  0  0999 V2000
   -3.2714   -4.6308    0.9391 H   0  0  0  0  0  0  0  0  0  0  0  0
   -3.2569   -3.8615    0.1617 C   0  0  0  0  0  0  0  0  0  0  0  0
   -4.1815   -3.2827    0.2239 H   0  0  0  0  0  0  0  0  0  0  0  0
   -3.2044   -4.3507   -0.8139 H   0  0  0  0  0  0  0  0  0  0  0  0
   -2.0582   -2.9507    0.3520 C   0  0  0  0  0  0  0  0  0  0  0  0
   -1.3007   -3.1346    1.2861 O   0  0  0  0  0  0  0  0  0  0  0  0
   -1.8334   -1.9197   -0.5385 N   0  0  0  0  0  0  0  0  0  0  0  0
   -2.4571   -1.8644   -1.3373 H   0  0  0  0  0  0  0  0  0  0  0  0
   -0.6517   -1.0328   -0.5059 C   0  0  1  0  0  0  0  0  0  0  0  0
    0.2390   -1.6627   -0.6069 H   0  0  0  0  0  0  0  0  0  0  0  0
   -0.7354   -0.0849   -1.7164 C   0  0  0  0  0  0  0  0  0  0  0  0
   -1.2364   -0.5965   -2.5440 H   0  0  0  0  0  0  0  0  0  0  0  0
   -1.3345    0.7985   -1.4749 H   0  0  0  0  0  0  0  0  0  0  0  0
    0.6291    0.3235   -2.2043 C   0  0  0  0  0  0  0  0  0  0  0  0
    1.5054   -0.4540   -2.9238 C   0  0  0  0  0  0  0  0  0  0  0  0
    1.3340   -1.4823   -3.2332 H   0  0  0  0  0  0  0  0  0  0  0  0
    2.6403    0.3129   -3.1772 N   0  0  0  0  0  0  0  0  0  0  0  0
    3.4743   -0.0101   -3.6627 H   0  0  0  0  0  0  0  0  0  0  0  0
    2.5066    1.5724   -2.6148 C   0  0  0  0  0  0  0  0  0  0  0  0
    3.3639    2.6727   -2.5887 C   0  0  0  0  0  0  0  0  0  0  0  0
    4.3297    2.6256   -3.0790 H   0  0  0  0  0  0  0  0  0  0  0  0
    2.9626    3.8355   -1.9162 C   0  0  0  0  0  0  0  0  0  0  0  0
    3.6212    4.6981   -1.8837 H   0  0  0  0  0  0  0  0  0  0  0  0
    1.7148    3.8827   -1.2759 C   0  0  0  0  0  0  0  0  0  0  0  0
    1.4113    4.7802   -0.7458 H   0  0  0  0  0  0  0  0  0  0  0  0
    0.8615    2.7703   -1.3093 C   0  0  0  0  0  0  0  0  0  0  0  0
   -0.0968    2.7983   -0.8018 H   0  0  0  0  0  0  0  0  0  0  0  0
    1.2651    1.6173   -1.9910 C   0  0  0  0  0  0  0  0  0  0  0  0
   -0.4774   -0.2223    0.7991 C   0  0  0  0  0  0  0  0  0  0  0  0
    0.6356   -0.0277    1.2684 O   0  0  0  0  0  0  0  0  0  0  0  0
   -1.5670    0.4141    1.3691 N   0  0  0  0  0  0  0  0  0  0  0  0
   -2.4805    0.1300    1.0328 H   0  0  0  0  0  0  0  0  0  0  0  0
   -1.4789    1.1488    2.6248 C   0  0  0  0  0  0  0  0  0  0  0  0
   -0.7436    1.9567    2.5457 H   0  0  0  0  0  0  0  0  0  0  0  0
   -2.4485    1.5895    2.8748 H   0  0  0  0  0  0  0  0  0  0  0  0
   -1.1806    0.4795    3.4387 H   0  0  0  0  0  0  0  0  0  0  0  0
  1  2  1  0  0  0  0
  2  3  1  0  0  0  0
  2  4  1  0  0  0  0
  2  5  1  0  0  0  0
  5  6  2  0  0  0  0
  5  7  1  0  0  0  0
  7  8  1  0  0  0  0
  7  9  1  0  0  0  0
  9 10  1  0  0  0  0
  9 11  1  0  0  0  0
  9 29  1  0  0  0  0
 11 12  1  0  0  0  0
 11 13  1  0  0  0  0
 11 14  1  0  0  0  0
 14 15  2  0  0  0  0
 14 28  1  0  0  0  0
 15 16  1  0  0  0  0
 15 17  1  0  0  0  0
 17 18  1  0  0  0  0
 17 19  1  0  0  0  0
 19 20  1  0  0  0  0
 19 28  2  0  0  0  0
 20 21  1  0  0  0  0
 20 22  2  0  0  0  0
 22 23  1  0  0  0  0
 22 24  1  0  0  0  0
 24 25  1  0  0  0  0
 24 26  2  0  0  0  0
 26 27  1  0  0  0  0
 26 28  1  0  0  0  0
 29 30  2  0  0  0  0
 29 31  1  0  0  0  0
 31 32  1  0  0  0  0
 31 33  1  0  0  0  0
 33 34  1  0  0  0  0
 33 35  1  0  0  0  0
 33 36  1  0  0  0  0
M  END
$$$$

  -OEChem-03222214083D

 36 37  0     1  0  0  0  0  0999 V2000
   -3.2832   -4.6289    0.9155 H   0  0  0  0  0  0  0  0  0  0  0  0
   -3.2611   -3.8542    0.1434 C   0  0  0  0  0  0  0  0  0  0  0  0
   -4.1831   -3.2714    0.2044 H   0  0  0  0  0  0  0  0  0  0  0  0
   -3.2053   -4.3372   -0.8351 H   0  0  0  0  0  0  0  0  0  0  0  0
   -2.0597   -2.9501    0.3477 C   0  0  0  0  0  0  0  0  0  0  0  0
   -1.3112   -3.1439    1.2868 O   0  0  0  0  0  0  0  0  0  0  0  0
   -1.8254   -1.9111   -0.5311 N   0  0  0  0  0  0  0  0  0  0  0  0
   -2.4453   -1.8440   -1.3318 H   0  0  0  0  0  0  0  0  0  0  0  0
   -0.6380   -1.0316   -0.4845 C   0  0  1  0  0  0  0  0  0  0  0  0
    0.2523   -1.6616   -0.5917 H   0  0  0  0  0  0  0  0  0  0  0  0
   -0.7176   -0.0711   -1.6870 C   0  0  0  0  0  0  0  0  0  0  0  0
   -1.2238   -0.5738   -2.5169 H   0  0  0  0  0  0  0  0  0  0  0  0
   -1.3097    0.8151   -1.4370 H   0  0  0  0  0  0  0  0  0  0  0  0
    0.6465    0.3390   -2.1745 C   0  0  0  0  0  0  0  0  0  0  0  0
    1.3903   -0.3101   -3.1312 C   0  0  0  0  0  0  0  0  0  0  0  0
    1.1016   -1.2226   -3.6473 H   0  0  0  0  0  0  0  0  0  0  0  0
    2.5669    0.4123   -3.3146 N   0  0  0  0  0  0  0  0  0  0  0  0
    3.3244    0.1583   -3.9449 H   0  0  0  0  0  0  0  0  0  0  0  0
    2.5856    1.5209   -2.4838 C   0  0  0  0  0  0  0  0  0  0  0  0
    3.5338    2.5285   -2.3060 C   0  0  0  0  0  0  0  0  0  0  0  0
    4.4525    2.5223   -2.8815 H   0  0  0  0  0  0  0  0  0  0  0  0
    3.2850    3.5427   -1.3708 C   0  0  0  0  0  0  0  0  0  0  0  0
    4.0154    4.3313   -1.2182 H   0  0  0  0  0  0  0  0  0  0  0  0
    2.0968    3.5347   -0.6244 C   0  0  0  0  0  0  0  0  0  0  0  0
    1.9106    4.3136    0.1085 H   0  0  0  0  0  0  0  0  0  0  0  0
    1.1517    2.5159   -0.8116 C   0  0  0  0  0  0  0  0  0  0  0  0
    0.2410    2.4984   -0.2223 H   0  0  0  0  0  0  0  0  0  0  0  0
    1.4039    1.5107   -1.7514 C   0  0  0  0  0  0  0  0  0  0  0  0
   -0.4744   -0.2410    0.8346 C   0  0  0  0  0  0  0  0  0  0  0  0
    0.6317   -0.0588    1.3242 O   0  0  0  0  0  0  0  0  0  0  0  0
   -1.5689    0.3898    1.4018 N   0  0  0  0  0  0  0  0  0  0  0  0
   -2.4787    0.1092    1.0527 H   0  0  0  0  0  0  0  0  0  0  0  0
   -1.4943    1.1075    2.6683 C   0  0  0  0  0  0  0  0  0  0  0  0
   -0.7529    1.9116    2.6106 H   0  0  0  0  0  0  0  0  0  0  0  0
   -2.4646    1.5519    2.9094 H   0  0  0  0  0  0  0  0  0  0  0  0
   -1.2122    0.4257    3.4775 H   0  0  0  0  0  0  0  0  0  0  0  0
  1  2  1  0  0  0  0
  2  3  1  0  0  0  0
  2  4  1  0  0  0  0
  2  5  1  0  0  0  0
  5  6  2  0  0  0  0
  5  7  1  0  0  0  0
  7  8  1  0  0  0  0
  7  9  1  0  0  0  0
  9 10  1  0  0  0  0
  9 11  1  0  0  0  0
  9 29  1  0  0  0  0
 11 12  1  0  0  0  0
 11 13  1  0  0  0  0
 11 14  1  0  0  0  0
 14 15  2  0  0  0  0
 14 28  1  0  0  0  0
 15 16  1  0  0  0  0
 15 17  1  0  0  0  0
 17 18  1  0  0  0  0
 17 19  1  0  0  0  0
 19 20  1  0  0  0  0
 19 28  2  0  0  0  0
 20 21  1  0  0  0  0
 20 22  2  0  0  0  0
 22 23  1  0  0  0  0
 22 24  1  0  0  0  0
 24 25  1  0  0  0  0
 24 26  2  0  0  0  0
 26 27  1  0  0  0  0
 26 28  1  0  0  0  0
 29 30  2  0  0  0  0
 29 31  1  0  0  0  0
 31 32  1  0  0  0  0
 31 33  1  0  0  0  0
 33 34  1  0  0  0  0
 33 35  1  0  0  0  0
 33 36  1  0  0  0  0
M  END
$$$$

  -OEChem-03222214083D

 36 37  0     1  0  0  0  0  0999 V2000
   -3.3854   -4.6163    0.8273 H   0  0  0  0  0  0  0  0  0  0  0  0
   -3.3276   -3.8200    0.0795 C   0  0  0  0  0  0  0  0  0  0  0  0
   -4.2359   -3.2159    0.1391 H   0  0  0  0  0  0  0  0  0  0  0  0
   -3.2624   -4.2740   -0.9121 H   0  0  0  0  0  0  0  0  0  0  0  0
   -2.1090   -2.9533    0.3358 C   0  0  0  0  0  0  0  0  0  0  0  0
   -1.3924   -3.1865    1.2906 O   0  0  0  0  0  0  0  0  0  0  0  0
   -1.8263   -1.9035   -0.5157 N   0  0  0  0  0  0  0  0  0  0  0  0
   -2.4157   -1.8161   -1.3370 H   0  0  0  0  0  0  0  0  0  0  0  0
   -0.6182   -1.0557   -0.4252 C   0  0  1  0  0  0  0  0  0  0  0  0
    0.2624   -1.7009   -0.5237 H   0  0  0  0  0  0  0  0  0  0  0  0
   -0.6584   -0.0823   -1.6232 C   0  0  0  0  0  0  0  0  0  0  0  0
   -1.1729   -0.5622   -2.4615 H   0  0  0  0  0  0  0  0  0  0  0  0
   -1.2313    0.8135   -1.3627 H   0  0  0  0  0  0  0  0  0  0  0  0
    0.7140    0.3201   -2.1023 C   0  0  0  0  0  0  0  0  0  0  0  0
    1.3118   -0.1545   -3.2466 C   0  0  0  0  0  0  0  0  0  0  0  0
    0.8997   -0.9134   -3.9072 H   0  0  0  0  0  0  0  0  0  0  0  0
    2.5251    0.5082   -3.4027 N   0  0  0  0  0  0  0  0  0  0  0  0
    3.1964    0.3463   -4.1499 H   0  0  0  0  0  0  0  0  0  0  0  0
    2.6986    1.4339   -2.3883 C   0  0  0  0  0  0  0  0  0  0  0  0
    3.7318    2.3372   -2.1384 C   0  0  0  0  0  0  0  0  0  0  0  0
    4.5927    2.3797   -2.7958 H   0  0  0  0  0  0  0  0  0  0  0  0
    3.6408    3.1870   -1.0283 C   0  0  0  0  0  0  0  0  0  0  0  0
    4.4389    3.8919   -0.8160 H   0  0  0  0  0  0  0  0  0  0  0  0
    2.5187    3.1262   -0.1892 C   0  0  0  0  0  0  0  0  0  0  0  0
    2.4491    3.7811    0.6739 H   0  0  0  0  0  0  0  0  0  0  0  0
    1.4864    2.2148   -0.4533 C   0  0  0  0  0  0  0  0  0  0  0  0
    0.6239    2.1701    0.2022 H   0  0  0  0  0  0  0  0  0  0  0  0
    1.5860    1.3583   -1.5560 C   0  0  0  0  0  0  0  0  0  0  0  0
   -0.4831   -0.3040    0.9191 C   0  0  0  0  0  0  0  0  0  0  0  0
    0.6013   -0.1950    1.4743 O   0  0  0  0  0  0  0  0  0  0  0  0
   -1.5829    0.3345    1.4665 N   0  0  0  0  0  0  0  0  0  0  0  0
   -2.4833    0.0955    1.0659 H   0  0  0  0  0  0  0  0  0  0  0  0
   -1.5476    0.9774    2.7740 C   0  0  0  0  0  0  0  0  0  0  0  0
   -0.7859    1.7640    2.7940 H   0  0  0  0  0  0  0  0  0  0  0  0
   -2.5171    1.4321    2.9989 H   0  0  0  0  0  0  0  0  0  0  0  0
   -1.3174    0.2437    3.5539 H   0  0  0  0  0  0  0  0  0  0  0  0
  1  2  1  0  0  0  0
  2  3  1  0  0  0  0
  2  4  1  0  0  0  0
  2  5  1  0  0  0  0
  5  6  2  0  0  0  0
  5  7  1  0  0  0  0
  7  8  1  0  0  0  0
  7  9  1  0  0  0  0
  9 10  1  0  0  0  0
  9 11  1  0  0  0  0
  9 29  1  0  0  0  0
 11 12  1  0  0  0  0
 11 13  1  0  0  0  0
 11 14  1  0  0  0  0
 14 15  2  0  0  0  0
 14 28  1  0  0  0  0
 15 16  1  0  0  0  0
 15 17  1  0  0  0  0
 17 18  1  0  0  0  0
 17 19  1  0  0  0  0
 19 20  1  0  0  0  0
 19 28  2  0  0  0  0
 20 21  1  0  0  0  0
 20 22  2  0  0  0  0
 22 23  1  0  0  0  0
 22 24  1  0  0  0  0
 24 25  1  0  0  0  0
 24 26  2  0  0  0  0
 26 27  1  0  0  0  0
 26 28  1  0  0  0  0
 29 30  2  0  0  0  0
 29 31  1  0  0  0  0
 31 32  1  0  0  0  0
 31 33  1  0  0  0  0
 33 34  1  0  0  0  0
 33 35  1  0  0  0  0
 33 36  1  0  0  0  0
M  END
$$$$

  -OEChem-03222214083D

 36 37  0     1  0  0  0  0  0999 V2000
   -3.5306   -4.5815    0.7438 H   0  0  0  0  0  0  0  0  0  0  0  0
   -3.4197   -3.7766    0.0112 C   0  0  0  0  0  0  0  0  0  0  0  0
   -4.3081   -3.1420    0.0500 H   0  0  0  0  0  0  0  0  0  0  0  0
   -3.3366   -4.2181   -0.9848 H   0  0  0  0  0  0  0  0  0  0  0  0
   -2.1811   -2.9571    0.3214 C   0  0  0  0  0  0  0  0  0  0  0  0
   -1.5032   -3.2343    1.2924 O   0  0  0  0  0  0  0  0  0  0  0  0
   -1.8354   -1.9045   -0.5035 N   0  0  0  0  0  0  0  0  0  0  0  0
   -2.3966   -1.7845   -1.3402 H   0  0  0  0  0  0  0  0  0  0  0  0
   -0.6026   -1.0984   -0.3635 C   0  0  1  0  0  0  0  0  0  0  0  0
    0.2628   -1.7661   -0.4436 H   0  0  0  0  0  0  0  0  0  0  0  0
   -0.5908   -0.1217   -1.5642 C   0  0  0  0  0  0  0  0  0  0  0  0
   -1.1138   -0.5813   -2.4087 H   0  0  0  0  0  0  0  0  0  0  0  0
   -1.1434    0.7854   -1.2991 H   0  0  0  0  0  0  0  0  0  0  0  0
    0.7883    0.2724   -2.0429 C   0  0  0  0  0  0  0  0  0  0  0  0
    1.2342    0.0157   -3.3200 C   0  0  0  0  0  0  0  0  0  0  0  0
    0.6976   -0.5571   -4.0726 H   0  0  0  0  0  0  0  0  0  0  0  0
    2.4853    0.6013   -3.4712 N   0  0  0  0  0  0  0  0  0  0  0  0
    3.0651    0.5553   -4.3063 H   0  0  0  0  0  0  0  0  0  0  0  0
    2.8217    1.3023   -2.3286 C   0  0  0  0  0  0  0  0  0  0  0  0
    3.9455    2.0772   -2.0422 C   0  0  0  0  0  0  0  0  0  0  0  0
    4.7457    2.1715   -2.7674 H   0  0  0  0  0  0  0  0  0  0  0  0
    4.0216    2.7364   -0.8096 C   0  0  0  0  0  0  0  0  0  0  0  0
    4.8912    3.3395   -0.5668 H   0  0  0  0  0  0  0  0  0  0  0  0
    2.9673    2.6250    0.1069 C   0  0  0  0  0  0  0  0  0  0  0  0
    3.0177    3.1431    1.0597 H   0  0  0  0  0  0  0  0  0  0  0  0
    1.8435    1.8438   -0.1977 C   0  0  0  0  0  0  0  0  0  0  0  0
    1.0317    1.7873    0.5162 H   0  0  0  0  0  0  0  0  0  0  0  0
    1.7804    1.1530   -1.4149 C   0  0  0  0  0  0  0  0  0  0  0  0
   -0.5022   -0.3790    1.0008 C   0  0  0  0  0  0  0  0  0  0  0  0
    0.5414   -0.3815    1.6394 O   0  0  0  0  0  0  0  0  0  0  0  0
   -1.6037    0.2809    1.5186 N   0  0  0  0  0  0  0  0  0  0  0  0
   -2.4872    0.1120    1.0505 H   0  0  0  0  0  0  0  0  0  0  0  0
   -1.6215    0.8448    2.8624 C   0  0  0  0  0  0  0  0  0  0  0  0
   -0.8273    1.5900    2.9764 H   0  0  0  0  0  0  0  0  0  0  0  0
   -2.5813    1.3332    3.0550 H   0  0  0  0  0  0  0  0  0  0  0  0
   -1.4753    0.0568    3.6088 H   0  0  0  0  0  0  0  0  0  0  0  0
  1  2  1  0  0  0  0
  2  3  1  0  0  0  0
  2  4  1  0  0  0  0
  2  5  1  0  0  0  0
  5  6  2  0  0  0  0
  5  7  1  0  0  0  0
  7  8  1  0  0  0  0
  7  9  1  0  0  0  0
  9 10  1  0  0  0  0
  9 11  1  0  0  0  0
  9 29  1  0  0  0  0
 11 12  1  0  0  0  0
 11 13  1  0  0  0  0
 11 14  1  0  0  0  0
 14 15  2  0  0  0  0
 14 28  1  0  0  0  0
 15 16  1  0  0  0  0
 15 17  1  0  0  0  0
 17 18  1  0  0  0  0
 17 19  1  0  0  0  0
 19 20  1  0  0  0  0
 19 28  2  0  0  0  0
 20 21  1  0  0  0  0
 20 22  2  0  0  0  0
 22 23  1  0  0  0  0
 22 24  1  0  0  0  0
 24 25  1  0  0  0  0
 24 26  2  0  0  0  0
 26 27  1  0  0  0  0
 26 28  1  0  0  0  0
 29 30  2  0  0  0  0
 29 31  1  0  0  0  0
 31 32  1  0  0  0  0
 31 33  1  0  0  0  0
 33 34  1  0  0  0  0
 33 35  1  0  0  0  0
 33 36  1  0  0  0  0
M  END
$$$$

  -OEChem-03222214083D

 36 37  0     1  0  0  0  0  0999 V2000
   -3.6548   -4.5275    0.6995 H   0  0  0  0  0  0  0  0  0  0  0  0
   -3.4969   -3.7209   -0.0226 C   0  0  0  0  0  0  0  0  0  0  0  0
   -4.3689   -3.0629   -0.0099 H   0  0  0  0  0  0  0  0  0  0  0  0
   -3.3904   -4.1582   -1.0182 H   0  0  0  0  0  0  0  0  0  0  0  0
   -2.2481   -2.9379    0.3375 C   0  0  0  0  0  0  0  0  0  0  0  0
   -1.6206   -3.2358    1.3356 O   0  0  0  0  0  0  0  0  0  0  0  0
   -1.8336   -1.9034   -0.4794 N   0  0  0  0  0  0  0  0  0  0  0  0
   -2.3554   -1.7744   -1.3396 H   0  0  0  0  0  0  0  0  0  0  0  0
   -0.5872   -1.1260   -0.2907 C   0  0  1  0  0  0  0  0  0  0  0  0
    0.2722   -1.8050   -0.3270 H   0  0  0  0  0  0  0  0  0  0  0  0
   -0.5255   -0.1657   -1.5072 C   0  0  0  0  0  0  0  0  0  0  0  0
   -1.0485   -0.6262   -2.3519 H   0  0  0  0  0  0  0  0  0  0  0  0
   -1.0730    0.7482   -1.2553 H   0  0  0  0  0  0  0  0  0  0  0  0
    0.8521    0.2375   -1.9999 C   0  0  0  0  0  0  0  0  0  0  0  0
    1.1370    0.2243   -3.3483 C   0  0  0  0  0  0  0  0  0  0  0  0
    0.4693   -0.1317   -4.1292 H   0  0  0  0  0  0  0  0  0  0  0  0
    2.4220    0.7127   -3.5365 N   0  0  0  0  0  0  0  0  0  0  0  0
    2.9028    0.7933   -4.4299 H   0  0  0  0  0  0  0  0  0  0  0  0
    2.9461    1.1306   -2.3305 C   0  0  0  0  0  0  0  0  0  0  0  0
    4.1743    1.7324   -2.0572 C   0  0  0  0  0  0  0  0  0  0  0  0
    4.8957    1.8946   -2.8501 H   0  0  0  0  0  0  0  0  0  0  0  0
    4.4566    2.1347   -0.7479 C   0  0  0  0  0  0  0  0  0  0  0  0
    5.4074    2.6033   -0.5127 H   0  0  0  0  0  0  0  0  0  0  0  0
    3.4994    1.9478    0.2564 C   0  0  0  0  0  0  0  0  0  0  0  0
    3.7044    2.2752    1.2712 H   0  0  0  0  0  0  0  0  0  0  0  0
    2.2695    1.3432   -0.0392 C   0  0  0  0  0  0  0  0  0  0  0  0
    1.5413    1.2517    0.7520 H   0  0  0  0  0  0  0  0  0  0  0  0
    1.9936    0.8944   -1.3382 C   0  0  0  0  0  0  0  0  0  0  0  0
   -0.5623   -0.4046    1.0776 C   0  0  0  0  0  0  0  0  0  0  0  0
    0.3960   -0.5132    1.8305 O   0  0  0  0  0  0  0  0  0  0  0  0
   -1.6841    0.2756    1.5217 N   0  0  0  0  0  0  0  0  0  0  0  0
   -2.5228    0.1666    0.9627 H   0  0  0  0  0  0  0  0  0  0  0  0
   -1.8152    0.7673    2.8877 C   0  0  0  0  0  0  0  0  0  0  0  0
   -1.0045    1.4642    3.1245 H   0  0  0  0  0  0  0  0  0  0  0  0
   -2.7667    1.2928    3.0118 H   0  0  0  0  0  0  0  0  0  0  0  0
   -1.7823   -0.0659    3.5978 H   0  0  0  0  0  0  0  0  0  0  0  0
  1  2  1  0  0  0  0
  2  3  1  0  0  0  0
  2  4  1  0  0  0  0
  2  5  1  0  0  0  0
  5  6  2  0  0  0  0
  5  7  1  0  0  0  0
  7  8  1  0  0  0  0
  7  9  1  0  0  0  0
  9 10  1  0  0  0  0
  9 11  1  0  0  0  0
  9 29  1  0  0  0  0
 11 12  1  0  0  0  0
 11 13  1  0  0  0  0
 11 14  1  0  0  0  0
 14 15  2  0  0  0  0
 14 28  1  0  0  0  0
 15 16  1  0  0  0  0
 15 17  1  0  0  0  0
 17 18  1  0  0  0  0
 17 19  1  0  0  0  0
 19 20  1  0  0  0  0
 19 28  2  0  0  0  0
 20 21  1  0  0  0  0
 20 22  2  0  0  0  0
 22 23  1  0  0  0  0
 22 24  1  0  0  0  0
 24 25  1  0  0  0  0
 24 26  2  0  0  0  0
 26 27  1  0  0  0  0
 26 28  1  0  0  0  0
 29 30  2  0  0  0  0
 29 31  1  0  0  0  0
 31 32  1  0  0  0  0
 31 33  1  0  0  0  0
 33 34  1  0  0  0  0
 33 35  1  0  0  0  0
 33 36  1  0  0  0  0
M  END
$$$$

  -OEChem-03222214083D

 36 37  0     1  0  0  0  0  0999 V2000
   -3.5284   -4.5725    0.7630 H   0  0  0  0  0  0  0  0  0  0  0  0
   -3.3624   -3.7933    0.0134 C   0  0  0  0  0  0  0  0  0  0  0  0
   -4.2605   -3.1748   -0.0547 H   0  0  0  0  0  0  0  0  0  0  0  0
   -3.1800   -4.2702   -0.9525 H   0  0  0  0  0  0  0  0  0  0  0  0
   -2.1713   -2.9391    0.4054 C   0  0  0  0  0  0  0  0  0  0  0  0
   -1.5849   -3.1684    1.4457 O   0  0  0  0  0  0  0  0  0  0  0  0
   -1.7577   -1.9223   -0.4343 N   0  0  0  0  0  0  0  0  0  0  0  0
   -2.2242   -1.8691   -1.3336 H   0  0  0  0  0  0  0  0  0  0  0  0
   -0.5586   -1.0787   -0.2181 C   0  0  1  0  0  0  0  0  0  0  0  0
    0.3462   -1.6961   -0.2048 H   0  0  0  0  0  0  0  0  0  0  0  0
   -0.5244   -0.0926   -1.4125 C   0  0  0  0  0  0  0  0  0  0  0  0
   -1.0151   -0.5703   -2.2668 H   0  0  0  0  0  0  0  0  0  0  0  0
   -1.1292    0.7824   -1.1535 H   0  0  0  0  0  0  0  0  0  0  0  0
    0.8149    0.4200   -1.9184 C   0  0  0  0  0  0  0  0  0  0  0  0
    0.9297    0.7439   -3.2534 C   0  0  0  0  0  0  0  0  0  0  0  0
    0.1268    0.6881   -3.9849 H   0  0  0  0  0  0  0  0  0  0  0  0
    2.2256    1.1697   -3.5012 N   0  0  0  0  0  0  0  0  0  0  0  0
    2.5887    1.4794   -4.4002 H   0  0  0  0  0  0  0  0  0  0  0  0
    2.9722    1.0937   -2.3442 C   0  0  0  0  0  0  0  0  0  0  0  0
    4.3174    1.4032   -2.1442 C   0  0  0  0  0  0  0  0  0  0  0  0
    4.9222    1.7802   -2.9612 H   0  0  0  0  0  0  0  0  0  0  0  0
    4.8761    1.2142   -0.8768 C   0  0  0  0  0  0  0  0  0  0  0  0
    5.9213    1.4482   -0.6986 H   0  0  0  0  0  0  0  0  0  0  0  0
    4.0830    0.7104    0.1603 C   0  0  0  0  0  0  0  0  0  0  0  0
    4.5116    0.5485    1.1450 H   0  0  0  0  0  0  0  0  0  0  0  0
    2.7327    0.4054   -0.0626 C   0  0  0  0  0  0  0  0  0  0  0  0
    2.1657   -0.0023    0.7572 H   0  0  0  0  0  0  0  0  0  0  0  0
    2.1518    0.6119   -1.3215 C   0  0  0  0  0  0  0  0  0  0  0  0
   -0.6840   -0.3136    1.1301 C   0  0  0  0  0  0  0  0  0  0  0  0
    0.2134   -0.2989    1.9596 O   0  0  0  0  0  0  0  0  0  0  0  0
   -1.8807    0.3056    1.4554 N   0  0  0  0  0  0  0  0  0  0  0  0
   -2.6629    0.1176    0.8387 H   0  0  0  0  0  0  0  0  0  0  0  0
   -2.1515    0.8575    2.7772 C   0  0  0  0  0  0  0  0  0  0  0  0
   -1.4086    1.6198    3.0350 H   0  0  0  0  0  0  0  0  0  0  0  0
   -3.1418    1.3221    2.7976 H   0  0  0  0  0  0  0  0  0  0  0  0
   -2.1223    0.0670    3.5346 H   0  0  0  0  0  0  0  0  0  0  0  0
  1  2  1  0  0  0  0
  2  3  1  0  0  0  0
  2  4  1  0  0  0  0
  2  5  1  0  0  0  0
  5  6  2  0  0  0  0
  5  7  1  0  0  0  0
  7  8  1  0  0  0  0
  7  9  1  0  0  0  0
  9 10  1  0  0  0  0
  9 11  1  0  0  0  0
  9 29  1  0  0  0  0
 11 12  1  0  0  0  0
 11 13  1  0  0  0  0
 11 14  1  0  0  0  0
 14 15  2  0  0  0  0
 14 28  1  0  0  0  0
 15 16  1  0  0  0  0
 15 17  1  0  0  0  0
 17 18  1  0  0  0  0
 17 19  1  0  0  0  0
 19 20  1  0  0  0  0
 19 28  2  0  0  0  0
 20 21  1  0  0  0  0
 20 22  2  0  0  0  0
 22 23  1  0  0  0  0
 22 24  1  0  0  0  0
 24 25  1  0  0  0  0
 24 26  2  0  0  0  0
 26 27  1  0  0  0  0
 26 28  1  0  0  0  0
 29 30  2  0  0  0  0
 29 31  1  0  0  0  0
 31 32  1  0  0  0  0
 31 33  1  0  0  0  0
 33 34  1  0  0  0  0
 33 35  1  0  0  0  0
 33 36  1  0  0  0  0
M  END
$$$$

  -OEChem-03222214083D

 36 37  0     1  0  0  0  0  0999 V2000
   -3.4490   -4.6214    0.8145 H   0  0  0  0  0  0  0  0  0  0  0  0
   -3.3162   -3.8535    0.0467 C   0  0  0  0  0  0  0  0  0  0  0  0
   -4.2413   -3.2785   -0.0385 H   0  0  0  0  0  0  0  0  0  0  0  0
   -3.1090   -4.3447   -0.9071 H   0  0  0  0  0  0  0  0  0  0  0  0
   -2.1661   -2.9370    0.4201 C   0  0  0  0  0  0  0  0  0  0  0  0
   -1.5753   -3.1096    1.4694 O   0  0  0  0  0  0  0  0  0  0  0  0
   -1.7939   -1.9229   -0.4413 N   0  0  0  0  0  0  0  0  0  0  0  0
   -2.2479   -1.9189   -1.3488 H   0  0  0  0  0  0  0  0  0  0  0  0
   -0.6062   -1.0605   -0.2528 C   0  0  1  0  0  0  0  0  0  0  0  0
    0.2872   -1.6913   -0.2497 H   0  0  0  0  0  0  0  0  0  0  0  0
   -0.5609   -0.0816   -1.4464 C   0  0  0  0  0  0  0  0  0  0  0  0
   -1.0248   -0.5694   -2.3096 H   0  0  0  0  0  0  0  0  0  0  0  0
   -1.1754    0.7930   -1.2094 H   0  0  0  0  0  0  0  0  0  0  0  0
    0.7952    0.4127   -1.9165 C   0  0  0  0  0  0  0  0  0  0  0  0
    0.8932    1.0262   -3.1456 C   0  0  0  0  0  0  0  0  0  0  0  0
    0.0589    1.2380   -3.8101 H   0  0  0  0  0  0  0  0  0  0  0  0
    2.2247    1.3340   -3.3826 N   0  0  0  0  0  0  0  0  0  0  0  0
    2.5883    1.8054   -4.2080 H   0  0  0  0  0  0  0  0  0  0  0  0
    3.0040    0.8864   -2.3351 C   0  0  0  0  0  0  0  0  0  0  0  0
    4.3868    0.9601   -2.1709 C   0  0  0  0  0  0  0  0  0  0  0  0
    5.0039    1.4395   -2.9223 H   0  0  0  0  0  0  0  0  0  0  0  0
    4.9656    0.4031   -1.0263 C   0  0  0  0  0  0  0  0  0  0  0  0
    6.0400    0.4522   -0.8772 H   0  0  0  0  0  0  0  0  0  0  0  0
    4.1538   -0.2256   -0.0749 C   0  0  0  0  0  0  0  0  0  0  0  0
    4.5971   -0.6659    0.8133 H   0  0  0  0  0  0  0  0  0  0  0  0
    2.7656   -0.2917   -0.2580 C   0  0  0  0  0  0  0  0  0  0  0  0
    2.1799   -0.7999    0.4948 H   0  0  0  0  0  0  0  0  0  0  0  0
    2.1694    0.2832   -1.3919 C   0  0  0  0  0  0  0  0  0  0  0  0
   -0.6764   -0.2678    1.0820 C   0  0  0  0  0  0  0  0  0  0  0  0
    0.2998   -0.1229    1.8038 O   0  0  0  0  0  0  0  0  0  0  0  0
   -1.8594    0.3559    1.4447 N   0  0  0  0  0  0  0  0  0  0  0  0
   -2.6821    0.0977    0.9116 H   0  0  0  0  0  0  0  0  0  0  0  0
   -2.0385    1.0245    2.7275 C   0  0  0  0  0  0  0  0  0  0  0  0
   -1.3049    1.8288    2.8466 H   0  0  0  0  0  0  0  0  0  0  0  0
   -3.0398    1.4606    2.7906 H   0  0  0  0  0  0  0  0  0  0  0  0
   -1.9163    0.3116    3.5498 H   0  0  0  0  0  0  0  0  0  0  0  0
  1  2  1  0  0  0  0
  2  3  1  0  0  0  0
  2  4  1  0  0  0  0
  2  5  1  0  0  0  0
  5  6  2  0  0  0  0
  5  7  1  0  0  0  0
  7  8  1  0  0  0  0
  7  9  1  0  0  0  0
  9 10  1  0  0  0  0
  9 11  1  0  0  0  0
  9 29  1  0  0  0  0
 11 12  1  0  0  0  0
 11 13  1  0  0  0  0
 11 14  1  0  0  0  0
 14 15  2  0  0  0  0
 14 28  1  0  0  0  0
 15 16  1  0  0  0  0
 15 17  1  0  0  0  0
 17 18  1  0  0  0  0
 17 19  1  0  0  0  0
 19 20  1  0  0  0  0
 19 28  2  0  0  0  0
 20 21  1  0  0  0  0
 20 22  2  0  0  0  0
 22 23  1  0  0  0  0
 22 24  1  0  0  0  0
 24 25  1  0  0  0  0
 24 26  2  0  0  0  0
 26 27  1  0  0  0  0
 26 28  1  0  0  0  0
 29 30  2  0  0  0  0
 29 31  1  0  0  0  0
 31 32  1  0  0  0  0
 31 33  1  0  0  0  0
 33 34  1  0  0  0  0
 33 35  1  0  0  0  0
 33 36  1  0  0  0  0
M  END
$$$$

  -OEChem-03222214083D

 36 37  0     1  0  0  0  0  0999 V2000
   -3.5770   -4.6472    0.7701 H   0  0  0  0  0  0  0  0  0  0  0  0
   -3.4870   -3.8527    0.0237 C   0  0  0  0  0  0  0  0  0  0  0  0
   -4.4099   -3.2678    0.0200 H   0  0  0  0  0  0  0  0  0  0  0  0
   -3.3475   -4.3099   -0.9588 H   0  0  0  0  0  0  0  0  0  0  0  0
   -2.3064   -2.9590    0.3540 C   0  0  0  0  0  0  0  0  0  0  0  0
   -1.6703   -3.1489    1.3740 O   0  0  0  0  0  0  0  0  0  0  0  0
   -1.9677   -1.9289   -0.5009 N   0  0  0  0  0  0  0  0  0  0  0  0
   -2.4587   -1.9084   -1.3889 H   0  0  0  0  0  0  0  0  0  0  0  0
   -0.7312   -1.1284   -0.3764 C   0  0  1  0  0  0  0  0  0  0  0  0
    0.0788   -1.8523   -0.4345 H   0  0  0  0  0  0  0  0  0  0  0  0
   -0.6383   -0.1708   -1.5830 C   0  0  0  0  0  0  0  0  0  0  0  0
   -1.3505   -0.4975   -2.3472 H   0  0  0  0  0  0  0  0  0  0  0  0
   -0.9533    0.8298   -1.2682 H   0  0  0  0  0  0  0  0  0  0  0  0
    0.7061   -0.0518   -2.2784 C   0  0  0  0  0  0  0  0  0  0  0  0
    0.8244    0.7896   -3.3611 C   0  0  0  0  0  0  0  0  0  0  0  0
    0.0142    1.3700   -3.7964 H   0  0  0  0  0  0  0  0  0  0  0  0
    2.1366    0.7510   -3.8087 N   0  0  0  0  0  0  0  0  0  0  0  0
    2.5123    1.2795   -4.5929 H   0  0  0  0  0  0  0  0  0  0  0  0
    2.8903   -0.0619   -2.9863 C   0  0  0  0  0  0  0  0  0  0  0  0
    4.2532   -0.3498   -3.0488 C   0  0  0  0  0  0  0  0  0  0  0  0
    4.8660    0.0634   -3.8419 H   0  0  0  0  0  0  0  0  0  0  0  0
    4.8206   -1.1670   -2.0671 C   0  0  0  0  0  0  0  0  0  0  0  0
    5.8807   -1.3998   -2.0955 H   0  0  0  0  0  0  0  0  0  0  0  0
    4.0200   -1.6654   -1.0330 C   0  0  0  0  0  0  0  0  0  0  0  0
    4.4607   -2.2786   -0.2528 H   0  0  0  0  0  0  0  0  0  0  0  0
    2.6513   -1.3649   -0.9840 C   0  0  0  0  0  0  0  0  0  0  0  0
    2.0883   -1.7409   -0.1392 H   0  0  0  0  0  0  0  0  0  0  0  0
    2.0597   -0.5735   -1.9865 C   0  0  0  0  0  0  0  0  0  0  0  0
   -0.5694   -0.3574    0.9535 C   0  0  0  0  0  0  0  0  0  0  0  0
    0.5346   -0.2291    1.4656 O   0  0  0  0  0  0  0  0  0  0  0  0
   -1.6405    0.3450    1.4777 N   0  0  0  0  0  0  0  0  0  0  0  0
   -2.5535    0.1047    1.1070 H   0  0  0  0  0  0  0  0  0  0  0  0
   -1.5664    1.0539    2.7489 C   0  0  0  0  0  0  0  0  0  0  0  0
   -0.7820    1.8175    2.7172 H   0  0  0  0  0  0  0  0  0  0  0  0
   -2.5187    1.5481    2.9629 H   0  0  0  0  0  0  0  0  0  0  0  0
   -1.3456    0.3556    3.5632 H   0  0  0  0  0  0  0  0  0  0  0  0
  1  2  1  0  0  0  0
  2  3  1  0  0  0  0
  2  4  1  0  0  0  0
  2  5  1  0  0  0  0
  5  6  2  0  0  0  0
  5  7  1  0  0  0  0
  7  8  1  0  0  0  0
  7  9  1  0  0  0  0
  9 10  1  0  0  0  0
  9 11  1  0  0  0  0
  9 29  1  0  0  0  0
 11 12  1  0  0  0  0
 11 13  1  0  0  0  0
 11 14  1  0  0  0  0
 14 15  2  0  0  0  0
 14 28  1  0  0  0  0
 15 16  1  0  0  0  0
 15 17  1  0  0  0  0
 17 18  1  0  0  0  0
 17 19  1  0  0  0  0
 19 20  1  0  0  0  0
 19 28  2  0  0  0  0
 20 21  1  0  0  0  0
 20 22  2  0  0  0  0
 22 23  1  0  0  0  0
 22 24  1  0  0  0  0
 24 25  1  0  0  0  0
 24 26  2  0  0  0  0
 26 27  1  0  0  0  0
 26 28  1  0  0  0  0
 29 30  2  0  0  0  0
 29 31  1  0  0  0  0
 31 32  1  0  0  0  0
 31 33  1  0  0  0  0
 33 34  1  0  0  0  0
 33 35  1  0  0  0  0
 33 36  1  0  0  0  0
M  END
$$$$

  -OEChem-03222214083D

 36 37  0     1  0  0  0  0  0999 V2000
   -3.5111   -4.6388    0.8641 H   0  0  0  0  0  0  0  0  0  0  0  0
   -3.3707   -3.8987    0.0710 C   0  0  0  0  0  0  0  0  0  0  0  0
   -4.3029   -3.3447   -0.0617 H   0  0  0  0  0  0  0  0  0  0  0  0
   -3.1286   -4.4216   -0.8573 H   0  0  0  0  0  0  0  0  0  0  0  0
   -2.2480   -2.9471    0.4388 C   0  0  0  0  0  0  0  0  0  0  0  0
   -1.6668   -3.0770    1.4999 O   0  0  0  0  0  0  0  0  0  0  0  0
   -1.8934   -1.9396   -0.4359 N   0  0  0  0  0  0  0  0  0  0  0  0
   -2.3292   -1.9746   -1.3521 H   0  0  0  0  0  0  0  0  0  0  0  0
   -0.6909   -1.0944   -0.2785 C   0  0  1  0  0  0  0  0  0  0  0  0
    0.1618   -1.7627   -0.2446 H   0  0  0  0  0  0  0  0  0  0  0  0
   -0.5813   -0.1490   -1.4941 C   0  0  0  0  0  0  0  0  0  0  0  0
   -1.2440   -0.5220   -2.2806 H   0  0  0  0  0  0  0  0  0  0  0  0
   -0.9557    0.8419   -1.2156 H   0  0  0  0  0  0  0  0  0  0  0  0
    0.7813    0.0084   -2.1459 C   0  0  0  0  0  0  0  0  0  0  0  0
    0.9777    1.0628   -3.0083 C   0  0  0  0  0  0  0  0  0  0  0  0
    0.2477    1.8389   -3.2266 H   0  0  0  0  0  0  0  0  0  0  0  0
    2.2550    0.9686   -3.5383 N   0  0  0  0  0  0  0  0  0  0  0  0
    2.6793    1.6305   -4.1843 H   0  0  0  0  0  0  0  0  0  0  0  0
    2.8831   -0.1607   -3.0536 C   0  0  0  0  0  0  0  0  0  0  0  0
    4.1605   -0.6397   -3.3418 C   0  0  0  0  0  0  0  0  0  0  0  0
    4.8111   -0.0961   -4.0177 H   0  0  0  0  0  0  0  0  0  0  0  0
    4.5894   -1.8304   -2.7495 C   0  0  0  0  0  0  0  0  0  0  0  0
    5.5814   -2.2189   -2.9593 H   0  0  0  0  0  0  0  0  0  0  0  0
    3.7330   -2.5219   -1.8860 C   0  0  0  0  0  0  0  0  0  0  0  0
    4.0629   -3.4486   -1.4263 H   0  0  0  0  0  0  0  0  0  0  0  0
    2.4515   -2.0258   -1.6057 C   0  0  0  0  0  0  0  0  0  0  0  0
    1.8353   -2.6077   -0.9348 H   0  0  0  0  0  0  0  0  0  0  0  0
    2.0092   -0.8201   -2.1847 C   0  0  0  0  0  0  0  0  0  0  0  0
   -0.6352   -0.2722    1.0291 C   0  0  0  0  0  0  0  0  0  0  0  0
    0.4381   -0.0545    1.5748 O   0  0  0  0  0  0  0  0  0  0  0  0
   -1.7589    0.4090    1.4647 N   0  0  0  0  0  0  0  0  0  0  0  0
   -2.6433    0.1075    1.0696 H   0  0  0  0  0  0  0  0  0  0  0  0
   -1.7720    1.1992    2.6894 C   0  0  0  0  0  0  0  0  0  0  0  0
   -1.0243    1.9979    2.6382 H   0  0  0  0  0  0  0  0  0  0  0  0
   -2.7549    1.6576    2.8337 H   0  0  0  0  0  0  0  0  0  0  0  0
   -1.5520    0.5660    3.5554 H   0  0  0  0  0  0  0  0  0  0  0  0
  1  2  1  0  0  0  0
  2  3  1  0  0  0  0
  2  4  1  0  0  0  0
  2  5  1  0  0  0  0
  5  6  2  0  0  0  0
  5  7  1  0  0  0  0
  7  8  1  0  0  0  0
  7  9  1  0  0  0  0
  9 10  1  0  0  0  0
  9 11  1  0  0  0  0
  9 29  1  0  0  0  0
 11 12  1  0  0  0  0
 11 13  1  0  0  0  0
 11 14  1  0  0  0  0
 14 15  2  0  0  0  0
 14 28  1  0  0  0  0
 15 16  1  0  0  0  0
 15 17  1  0  0  0  0
 17 18  1  0  0  0  0
 17 19  1  0  0  0  0
 19 20  1  0  0  0  0
 19 28  2  0  0  0  0
 20 21  1  0  0  0  0
 20 22  2  0  0  0  0
 22 23  1  0  0  0  0
 22 24  1  0  0  0  0
 24 25  1  0  0  0  0
 24 26  2  0  0  0  0
 26 27  1  0  0  0  0
 26 28  1  0  0  0  0
 29 30  2  0  0  0  0
 29 31  1  0  0  0  0
 31 32  1  0  0  0  0
 31 33  1  0  0  0  0
 33 34  1  0  0  0  0
 33 35  1  0  0  0  0
 33 36  1  0  0  0  0
M  END
$$$$

  -OEChem-03222214083D

 36 37  0     1  0  0  0  0  0999 V2000
   -3.2854   -4.7053    0.9039 H   0  0  0  0  0  0  0  0  0  0  0  0
   -3.2130   -3.9402    0.1256 C   0  0  0  0  0  0  0  0  0  0  0  0
   -4.1659   -3.4093    0.0648 H   0  0  0  0  0  0  0  0  0  0  0  0
   -3.0136   -4.4306   -0.8303 H   0  0  0  0  0  0  0  0  0  0  0  0
   -2.0961   -2.9676    0.4539 C   0  0  0  0  0  0  0  0  0  0  0  0
   -1.4800   -3.0830    1.4967 O   0  0  0  0  0  0  0  0  0  0  0  0
   -1.7881   -1.9557   -0.4333 N   0  0  0  0  0  0  0  0  0  0  0  0
   -2.2600   -1.9882   -1.3315 H   0  0  0  0  0  0  0  0  0  0  0  0
   -0.6229   -1.0563   -0.2958 C   0  0  1  0  0  0  0  0  0  0  0  0
    0.2775   -1.6692   -0.2547 H   0  0  0  0  0  0  0  0  0  0  0  0
   -0.5736   -0.1055   -1.5136 C   0  0  0  0  0  0  0  0  0  0  0  0
   -1.2186   -0.5067   -2.3011 H   0  0  0  0  0  0  0  0  0  0  0  0
   -0.9781    0.8756   -1.2426 H   0  0  0  0  0  0  0  0  0  0  0  0
    0.7951    0.0641   -2.1352 C   0  0  0  0  0  0  0  0  0  0  0  0
    1.1691    1.2329   -2.7565 C   0  0  0  0  0  0  0  0  0  0  0  0
    0.5835    2.1492   -2.7777 H   0  0  0  0  0  0  0  0  0  0  0  0
    2.4203    1.0413   -3.3288 N   0  0  0  0  0  0  0  0  0  0  0  0
    2.9610    1.7504   -3.8192 H   0  0  0  0  0  0  0  0  0  0  0  0
    2.8291   -0.2665   -3.1491 C   0  0  0  0  0  0  0  0  0  0  0  0
    3.9843   -0.9136   -3.5863 C   0  0  0  0  0  0  0  0  0  0  0  0
    4.7440   -0.3665   -4.1331 H   0  0  0  0  0  0  0  0  0  0  0  0
    4.1442   -2.2776   -3.3171 C   0  0  0  0  0  0  0  0  0  0  0  0
    5.0387   -2.7969   -3.6483 H   0  0  0  0  0  0  0  0  0  0  0  0
    3.1427   -2.9747   -2.6290 C   0  0  0  0  0  0  0  0  0  0  0  0
    3.2629   -4.0354   -2.4302 H   0  0  0  0  0  0  0  0  0  0  0  0
    1.9867   -2.3103   -2.1948 C   0  0  0  0  0  0  0  0  0  0  0  0
    1.2217   -2.8797   -1.6814 H   0  0  0  0  0  0  0  0  0  0  0  0
    1.8358   -0.9343   -2.4343 C   0  0  0  0  0  0  0  0  0  0  0  0
   -0.6111   -0.2224    1.0068 C   0  0  0  0  0  0  0  0  0  0  0  0
    0.4481    0.0658    1.5478 O   0  0  0  0  0  0  0  0  0  0  0  0
   -1.7698    0.4041    1.4337 N   0  0  0  0  0  0  0  0  0  0  0  0
   -2.6355    0.0510    1.0405 H   0  0  0  0  0  0  0  0  0  0  0  0
   -1.8296    1.1954    2.6562 C   0  0  0  0  0  0  0  0  0  0  0  0
   -1.1280    2.0347    2.6043 H   0  0  0  0  0  0  0  0  0  0  0  0
   -2.8369    1.5981    2.7979 H   0  0  0  0  0  0  0  0  0  0  0  0
   -1.5763    0.5772    3.5240 H   0  0  0  0  0  0  0  0  0  0  0  0
  1  2  1  0  0  0  0
  2  3  1  0  0  0  0
  2  4  1  0  0  0  0
  2  5  1  0  0  0  0
  5  6  2  0  0  0  0
  5  7  1  0  0  0  0
  7  8  1  0  0  0  0
  7  9  1  0  0  0  0
  9 10  1  0  0  0  0
  9 11  1  0  0  0  0
  9 29  1  0  0  0  0
 11 12  1  0  0  0  0
 11 13  1  0  0  0  0
 11 14  1  0  0  0  0
 14 15  2  0  0  0  0
 14 28  1  0  0  0  0
 15 16  1  0  0  0  0
 15 17  1  0  0  0  0
 17 18  1  0  0  0  0
 17 19  1  0  0  0  0
 19 20  1  0  0  0  0
 19 28  2  0  0  0  0
 20 21  1  0  0  0  0
 20 22  2  0  0  0  0
 22 23  1  0  0  0  0
 22 24  1  0  0  0  0
 24 25  1  0  0  0  0
 24 26  2  0  0  0  0
 26 27  1  0  0  0  0
 26 28  1  0  0  0  0
 29 30  2  0  0  0  0
 29 31  1  0  0  0  0
 31 32  1  0  0  0  0
 31 33  1  0  0  0  0
 33 34  1  0  0  0  0
 33 35  1  0  0  0  0
 33 36  1  0  0  0  0
M  END
$$$$

  -OEChem-03222214083D

 36 37  0     1  0  0  0  0  0999 V2000
   -3.1980   -4.7502    0.8543 H   0  0  0  0  0  0  0  0  0  0  0  0
   -3.1633   -3.9686    0.0897 C   0  0  0  0  0  0  0  0  0  0  0  0
   -4.1248   -3.4502    0.0736 H   0  0  0  0  0  0  0  0  0  0  0  0
   -2.9915   -4.4369   -0.8824 H   0  0  0  0  0  0  0  0  0  0  0  0
   -2.0486   -2.9868    0.3982 C   0  0  0  0  0  0  0  0  0  0  0  0
   -1.3981   -3.1106    1.4188 O   0  0  0  0  0  0  0  0  0  0  0  0
   -1.7820   -1.9562   -0.4809 N   0  0  0  0  0  0  0  0  0  0  0  0
   -2.2873   -1.9743   -1.3612 H   0  0  0  0  0  0  0  0  0  0  0  0
   -0.6212   -1.0481   -0.3662 C   0  0  1  0  0  0  0  0  0  0  0  0
    0.2852   -1.6603   -0.3769 H   0  0  0  0  0  0  0  0  0  0  0  0
   -0.6177   -0.0806   -1.5710 C   0  0  0  0  0  0  0  0  0  0  0  0
   -1.2812   -0.4664   -2.3509 H   0  0  0  0  0  0  0  0  0  0  0  0
   -1.0091    0.8985   -1.2743 H   0  0  0  0  0  0  0  0  0  0  0  0
    0.7467    0.0782   -2.1959 C   0  0  0  0  0  0  0  0  0  0  0  0
    1.2975    1.2844   -2.5583 C   0  0  0  0  0  0  0  0  0  0  0  0
    0.8565    2.2608   -2.3708 H   0  0  0  0  0  0  0  0  0  0  0  0
    2.5099    1.0287   -3.1919 N   0  0  0  0  0  0  0  0  0  0  0  0
    3.1573    1.7356   -3.5337 H   0  0  0  0  0  0  0  0  0  0  0  0
    2.7253   -0.3353   -3.2830 C   0  0  0  0  0  0  0  0  0  0  0  0
    3.7724   -1.0619   -3.8496 C   0  0  0  0  0  0  0  0  0  0  0  0
    4.6113   -0.5476   -4.3050 H   0  0  0  0  0  0  0  0  0  0  0  0
    3.7229   -2.4619   -3.8256 C   0  0  0  0  0  0  0  0  0  0  0  0
    4.5324   -3.0408   -4.2605 H   0  0  0  0  0  0  0  0  0  0  0  0
    2.6271   -3.1150   -3.2429 C   0  0  0  0  0  0  0  0  0  0  0  0
    2.5897   -4.2000   -3.2280 H   0  0  0  0  0  0  0  0  0  0  0  0
    1.5815   -2.3727   -2.6758 C   0  0  0  0  0  0  0  0  0  0  0  0
    0.7368   -2.8853   -2.2297 H   0  0  0  0  0  0  0  0  0  0  0  0
    1.6409   -0.9726   -2.6875 C   0  0  0  0  0  0  0  0  0  0  0  0
   -0.5668   -0.2359    0.9484 C   0  0  0  0  0  0  0  0  0  0  0  0
    0.5099    0.0623    1.4478 O   0  0  0  0  0  0  0  0  0  0  0  0
   -1.7140    0.3739    1.4275 N   0  0  0  0  0  0  0  0  0  0  0  0
   -2.5912    0.0172    1.0640 H   0  0  0  0  0  0  0  0  0  0  0  0
   -1.7340    1.1514    2.6602 C   0  0  0  0  0  0  0  0  0  0  0  0
   -1.0460    2.0005    2.5899 H   0  0  0  0  0  0  0  0  0  0  0  0
   -2.7399    1.5392    2.8467 H   0  0  0  0  0  0  0  0  0  0  0  0
   -1.4378    0.5275    3.5102 H   0  0  0  0  0  0  0  0  0  0  0  0
  1  2  1  0  0  0  0
  2  3  1  0  0  0  0
  2  4  1  0  0  0  0
  2  5  1  0  0  0  0
  5  6  2  0  0  0  0
  5  7  1  0  0  0  0
  7  8  1  0  0  0  0
  7  9  1  0  0  0  0
  9 10  1  0  0  0  0
  9 11  1  0  0  0  0
  9 29  1  0  0  0  0
 11 12  1  0  0  0  0
 11 13  1  0  0  0  0
 11 14  1  0  0  0  0
 14 15  2  0  0  0  0
 14 28  1  0  0  0  0
 15 16  1  0  0  0  0
 15 17  1  0  0  0  0
 17 18  1  0  0  0  0
 17 19  1  0  0  0  0
 19 20  1  0  0  0  0
 19 28  2  0  0  0  0
 20 21  1  0  0  0  0
 20 22  2  0  0  0  0
 22 23  1  0  0  0  0
 22 24  1  0  0  0  0
 24 25  1  0  0  0  0
 24 26  2  0  0  0  0
 26 27  1  0  0  0  0
 26 28  1  0  0  0  0
 29 30  2  0  0  0  0
 29 31  1  0  0  0  0
 31 32  1  0  0  0  0
 31 33  1  0  0  0  0
 33 34  1  0  0  0  0
 33 35  1  0  0  0  0
 33 36  1  0  0  0  0
M  END
$$$$

  -OEChem-03222214083D

 36 37  0     1  0  0  0  0  0999 V2000
   -3.1541   -4.7749    0.7949 H   0  0  0  0  0  0  0  0  0  0  0  0
   -3.1551   -3.9743    0.0496 C   0  0  0  0  0  0  0  0  0  0  0  0
   -4.1178   -3.4591    0.0887 H   0  0  0  0  0  0  0  0  0  0  0  0
   -3.0249   -4.4175   -0.9404 H   0  0  0  0  0  0  0  0  0  0  0  0
   -2.0304   -2.9969    0.3341 C   0  0  0  0  0  0  0  0  0  0  0  0
   -1.3474   -3.1348    1.3317 O   0  0  0  0  0  0  0  0  0  0  0  0
   -1.7999   -1.9471   -0.5326 N   0  0  0  0  0  0  0  0  0  0  0  0
   -2.3389   -1.9466   -1.3929 H   0  0  0  0  0  0  0  0  0  0  0  0
   -0.6387   -1.0374   -0.4408 C   0  0  1  0  0  0  0  0  0  0  0  0
    0.2654   -1.6530   -0.5047 H   0  0  0  0  0  0  0  0  0  0  0  0
   -0.6711   -0.0498   -1.6264 C   0  0  0  0  0  0  0  0  0  0  0  0
   -1.3576   -0.4096   -2.3986 H   0  0  0  0  0  0  0  0  0  0  0  0
   -1.0396    0.9281   -1.2992 H   0  0  0  0  0  0  0  0  0  0  0  0
    0.6871    0.0960   -2.2592 C   0  0  0  0  0  0  0  0  0  0  0  0
    1.4014    1.2650   -2.3603 C   0  0  0  0  0  0  0  0  0  0  0  0
    1.0991    2.2281   -1.9552 H   0  0  0  0  0  0  0  0  0  0  0  0
    2.5755    0.9839   -3.0543 N   0  0  0  0  0  0  0  0  0  0  0  0
    3.3204    1.6510   -3.2430 H   0  0  0  0  0  0  0  0  0  0  0  0
    2.6153   -0.3530   -3.4145 C   0  0  0  0  0  0  0  0  0  0  0  0
    3.5674   -1.0969   -4.1113 C   0  0  0  0  0  0  0  0  0  0  0  0
    4.4742   -0.6230   -4.4705 H   0  0  0  0  0  0  0  0  0  0  0  0
    3.3365   -2.4608   -4.3380 C   0  0  0  0  0  0  0  0  0  0  0  0
    4.0712   -3.0524   -4.8759 H   0  0  0  0  0  0  0  0  0  0  0  0
    2.1588   -3.0624   -3.8686 C   0  0  0  0  0  0  0  0  0  0  0  0
    1.9845   -4.1195   -4.0440 H   0  0  0  0  0  0  0  0  0  0  0  0
    1.2092   -2.3043   -3.1687 C   0  0  0  0  0  0  0  0  0  0  0  0
    0.3010   -2.7681   -2.7999 H   0  0  0  0  0  0  0  0  0  0  0  0
    1.4489   -0.9443   -2.9424 C   0  0  0  0  0  0  0  0  0  0  0  0
   -0.5334   -0.2504    0.8855 C   0  0  0  0  0  0  0  0  0  0  0  0
    0.5620    0.0582    1.3366 O   0  0  0  0  0  0  0  0  0  0  0  0
   -1.6637    0.3460    1.4178 N   0  0  0  0  0  0  0  0  0  0  0  0
   -2.5514   -0.0215    1.0921 H   0  0  0  0  0  0  0  0  0  0  0  0
   -1.6388    1.1025    2.6629 C   0  0  0  0  0  0  0  0  0  0  0  0
   -0.9488    1.9493    2.5847 H   0  0  0  0  0  0  0  0  0  0  0  0
   -2.6358    1.4920    2.8886 H   0  0  0  0  0  0  0  0  0  0  0  0
   -1.3189    0.4621    3.4916 H   0  0  0  0  0  0  0  0  0  0  0  0
  1  2  1  0  0  0  0
  2  3  1  0  0  0  0
  2  4  1  0  0  0  0
  2  5  1  0  0  0  0
  5  6  2  0  0  0  0
  5  7  1  0  0  0  0
  7  8  1  0  0  0  0
  7  9  1  0  0  0  0
  9 10  1  0  0  0  0
  9 11  1  0  0  0  0
  9 29  1  0  0  0  0
 11 12  1  0  0  0  0
 11 13  1  0  0  0  0
 11 14  1  0  0  0  0
 14 15  2  0  0  0  0
 14 28  1  0  0  0  0
 15 16  1  0  0  0  0
 15 17  1  0  0  0  0
 17 18  1  0  0  0  0
 17 19  1  0  0  0  0
 19 20  1  0  0  0  0
 19 28  2  0  0  0  0
 20 21  1  0  0  0  0
 20 22  2  0  0  0  0
 22 23  1  0  0  0  0
 22 24  1  0  0  0  0
 24 25  1  0  0  0  0
 24 26  2  0  0  0  0
 26 27  1  0  0  0  0
 26 28  1  0  0  0  0
 29 30  2  0  0  0  0
 29 31  1  0  0  0  0
 31 32  1  0  0  0  0
 31 33  1  0  0  0  0
 33 34  1  0  0  0  0
 33 35  1  0  0  0  0
 33 36  1  0  0  0  0
M  END
$$$$

  -OEChem-03222214083D

 36 37  0     1  0  0  0  0  0999 V2000
   -3.1661   -4.7739    0.7664 H   0  0  0  0  0  0  0  0  0  0  0  0
   -3.1667   -3.9753    0.0188 C   0  0  0  0  0  0  0  0  0  0  0  0
   -4.1298   -3.4608    0.0552 H   0  0  0  0  0  0  0  0  0  0  0  0
   -3.0350   -4.4215   -0.9699 H   0  0  0  0  0  0  0  0  0  0  0  0
   -2.0435   -2.9956    0.3023 C   0  0  0  0  0  0  0  0  0  0  0  0
   -1.3548   -3.1355    1.2958 O   0  0  0  0  0  0  0  0  0  0  0  0
   -1.8250   -1.9367   -0.5563 N   0  0  0  0  0  0  0  0  0  0  0  0
   -2.3700   -1.9330   -1.4127 H   0  0  0  0  0  0  0  0  0  0  0  0
   -0.6585   -1.0331   -0.4740 C   0  0  1  0  0  0  0  0  0  0  0  0
    0.2400   -1.6546   -0.5660 H   0  0  0  0  0  0  0  0  0  0  0  0
   -0.7031   -0.0335   -1.6474 C   0  0  0  0  0  0  0  0  0  0  0  0
   -1.4071   -0.3693   -2.4146 H   0  0  0  0  0  0  0  0  0  0  0  0
   -1.0492    0.9461   -1.3006 H   0  0  0  0  0  0  0  0  0  0  0  0
    0.6535    0.0976   -2.2834 C   0  0  0  0  0  0  0  0  0  0  0  0
    1.5120    1.1593   -2.1374 C   0  0  0  0  0  0  0  0  0  0  0  0
    1.3342    2.0342   -1.5154 H   0  0  0  0  0  0  0  0  0  0  0  0
    2.6431    0.8935   -2.9062 N   0  0  0  0  0  0  0  0  0  0  0  0
    3.4677    1.4875   -2.9603 H   0  0  0  0  0  0  0  0  0  0  0  0
    2.5182   -0.3305   -3.5437 C   0  0  0  0  0  0  0  0  0  0  0  0
    3.3729   -1.0237   -4.4007 C   0  0  0  0  0  0  0  0  0  0  0  0
    4.3328   -0.5999   -4.6741 H   0  0  0  0  0  0  0  0  0  0  0  0
    2.9750   -2.2720   -4.8997 C   0  0  0  0  0  0  0  0  0  0  0  0
    3.6318   -2.8223   -5.5669 H   0  0  0  0  0  0  0  0  0  0  0  0
    1.7316   -2.8117   -4.5358 C   0  0  0  0  0  0  0  0  0  0  0  0
    1.4296   -3.7804   -4.9217 H   0  0  0  0  0  0  0  0  0  0  0  0
    0.8808   -2.1060   -3.6727 C   0  0  0  0  0  0  0  0  0  0  0  0
   -0.0784   -2.5209   -3.3842 H   0  0  0  0  0  0  0  0  0  0  0  0
    1.2853   -0.8607   -3.1811 C   0  0  0  0  0  0  0  0  0  0  0  0
   -0.5215   -0.2603    0.8578 C   0  0  0  0  0  0  0  0  0  0  0  0
    0.5847    0.0542    1.2780 O   0  0  0  0  0  0  0  0  0  0  0  0
   -1.6381    0.3361    1.4180 N   0  0  0  0  0  0  0  0  0  0  0  0
   -2.5334   -0.0306    1.1122 H   0  0  0  0  0  0  0  0  0  0  0  0
   -1.5844    1.0954    2.6607 C   0  0  0  0  0  0  0  0  0  0  0  0
   -0.8982    1.9434    2.5642 H   0  0  0  0  0  0  0  0  0  0  0  0
   -2.5767    1.4834    2.9088 H   0  0  0  0  0  0  0  0  0  0  0  0
   -1.2434    0.4579    3.4833 H   0  0  0  0  0  0  0  0  0  0  0  0
  1  2  1  0  0  0  0
  2  3  1  0  0  0  0
  2  4  1  0  0  0  0
  2  5  1  0  0  0  0
  5  6  2  0  0  0  0
  5  7  1  0  0  0  0
  7  8  1  0  0  0  0
  7  9  1  0  0  0  0
  9 10  1  0  0  0  0
  9 11  1  0  0  0  0
  9 29  1  0  0  0  0
 11 12  1  0  0  0  0
 11 13  1  0  0  0  0
 11 14  1  0  0  0  0
 14 15  2  0  0  0  0
 14 28  1  0  0  0  0
 15 16  1  0  0  0  0
 15 17  1  0  0  0  0
 17 18  1  0  0  0  0
 17 19  1  0  0  0  0
 19 20  1  0  0  0  0
 19 28  2  0  0  0  0
 20 21  1  0  0  0  0
 20 22  2  0  0  0  0
 22 23  1  0  0  0  0
 22 24  1  0  0  0  0
 24 25  1  0  0  0  0
 24 26  2  0  0  0  0
 26 27  1  0  0  0  0
 26 28  1  0  0  0  0
 29 30  2  0  0  0  0
 29 31  1  0  0  0  0
 31 32  1  0  0  0  0
 31 33  1  0  0  0  0
 33 34  1  0  0  0  0
 33 35  1  0  0  0  0
 33 36  1  0  0  0  0
M  END
$$$$

  -OEChem-03222214083D

 36 37  0     1  0  0  0  0  0999 V2000
   -3.1891   -4.7730    0.7655 H   0  0  0  0  0  0  0  0  0  0  0  0
   -3.1882   -3.9787    0.0133 C   0  0  0  0  0  0  0  0  0  0  0  0
   -4.1556   -3.4716    0.0362 H   0  0  0  0  0  0  0  0  0  0  0  0
   -3.0422   -4.4296   -0.9711 H   0  0  0  0  0  0  0  0  0  0  0  0
   -2.0754   -2.9888    0.3026 C   0  0  0  0  0  0  0  0  0  0  0  0
   -1.3911   -3.1218    1.3003 O   0  0  0  0  0  0  0  0  0  0  0  0
   -1.8603   -1.9294   -0.5562 N   0  0  0  0  0  0  0  0  0  0  0  0
   -2.3949   -1.9387   -1.4188 H   0  0  0  0  0  0  0  0  0  0  0  0
   -0.6848   -1.0370   -0.4841 C   0  0  1  0  0  0  0  0  0  0  0  0
    0.2052   -1.6687   -0.5902 H   0  0  0  0  0  0  0  0  0  0  0  0
   -0.7285   -0.0328   -1.6532 C   0  0  0  0  0  0  0  0  0  0  0  0
   -1.4472   -0.3506   -2.4140 H   0  0  0  0  0  0  0  0  0  0  0  0
   -1.0526    0.9512   -1.2983 H   0  0  0  0  0  0  0  0  0  0  0  0
    0.6277    0.0790   -2.2934 C   0  0  0  0  0  0  0  0  0  0  0  0
    1.6100    0.9672   -1.9299 C   0  0  0  0  0  0  0  0  0  0  0  0
    1.5409    1.6854   -1.1144 H   0  0  0  0  0  0  0  0  0  0  0  0
    2.7015    0.7509   -2.7677 N   0  0  0  0  0  0  0  0  0  0  0  0
    3.5923    1.2390   -2.7056 H   0  0  0  0  0  0  0  0  0  0  0  0
    2.4290   -0.2710   -3.6629 C   0  0  0  0  0  0  0  0  0  0  0  0
    3.1962   -0.8463   -4.6756 C   0  0  0  0  0  0  0  0  0  0  0  0
    4.2013   -0.4881   -4.8689 H   0  0  0  0  0  0  0  0  0  0  0  0
    2.6516   -1.8911   -5.4355 C   0  0  0  0  0  0  0  0  0  0  0  0
    3.2388   -2.3477   -6.2267 H   0  0  0  0  0  0  0  0  0  0  0  0
    1.3507   -2.3481   -5.1732 C   0  0  0  0  0  0  0  0  0  0  0  0
    0.9341   -3.1589   -5.7630 H   0  0  0  0  0  0  0  0  0  0  0  0
    0.5888   -1.7626   -4.1515 C   0  0  0  0  0  0  0  0  0  0  0  0
   -0.4153   -2.1147   -3.9439 H   0  0  0  0  0  0  0  0  0  0  0  0
    1.1393   -0.7194   -3.3998 C   0  0  0  0  0  0  0  0  0  0  0  0
   -0.5198   -0.2678    0.8468 C   0  0  0  0  0  0  0  0  0  0  0  0
    0.5965    0.0526    1.2365 O   0  0  0  0  0  0  0  0  0  0  0  0
   -1.6213    0.3394    1.4243 N   0  0  0  0  0  0  0  0  0  0  0  0
   -2.5247   -0.0260    1.1415 H   0  0  0  0  0  0  0  0  0  0  0  0
   -1.5383    1.1181    2.6532 C   0  0  0  0  0  0  0  0  0  0  0  0
   -0.8564    1.9656    2.5264 H   0  0  0  0  0  0  0  0  0  0  0  0
   -2.5248    1.5088    2.9199 H   0  0  0  0  0  0  0  0  0  0  0  0
   -1.1761    0.4940    3.4770 H   0  0  0  0  0  0  0  0  0  0  0  0
  1  2  1  0  0  0  0
  2  3  1  0  0  0  0
  2  4  1  0  0  0  0
  2  5  1  0  0  0  0
  5  6  2  0  0  0  0
  5  7  1  0  0  0  0
  7  8  1  0  0  0  0
  7  9  1  0  0  0  0
  9 10  1  0  0  0  0
  9 11  1  0  0  0  0
  9 29  1  0  0  0  0
 11 12  1  0  0  0  0
 11 13  1  0  0  0  0
 11 14  1  0  0  0  0
 14 15  2  0  0  0  0
 14 28  1  0  0  0  0
 15 16  1  0  0  0  0
 15 17  1  0  0  0  0
 17 18  1  0  0  0  0
 17 19  1  0  0  0  0
 19 20  1  0  0  0  0
 19 28  2  0  0  0  0
 20 21  1  0  0  0  0
 20 22  2  0  0  0  0
 22 23  1  0  0  0  0
 22 24  1  0  0  0  0
 24 25  1  0  0  0  0
 24 26  2  0  0  0  0
 26 27  1  0  0  0  0
 26 28  1  0  0  0  0
 29 30  2  0  0  0  0
 29 31  1  0  0  0  0
 31 32  1  0  0  0  0
 31 33  1  0  0  0  0
 33 34  1  0  0  0  0
 33 35  1  0  0  0  0
 33 36  1  0  0  0  0
M  END
$$$$

  -OEChem-03222214083D

 36 37  0     1  0  0  0  0  0999 V2000
   -3.2284   -4.7472    0.8001 H   0  0  0  0  0  0  0  0  0  0  0  0
   -3.2221   -3.9566    0.0440 C   0  0  0  0  0  0  0  0  0  0  0  0
   -4.1817   -3.4351    0.0735 H   0  0  0  0  0  0  0  0  0  0  0  0
   -3.0920   -4.4140   -0.9399 H   0  0  0  0  0  0  0  0  0  0  0  0
   -2.0930   -2.9812    0.3189 C   0  0  0  0  0  0  0  0  0  0  0  0
   -1.4021   -3.1187    1.3114 O   0  0  0  0  0  0  0  0  0  0  0  0
   -1.8734   -1.9269   -0.5450 N   0  0  0  0  0  0  0  0  0  0  0  0
   -2.4092   -1.9385   -1.4070 H   0  0  0  0  0  0  0  0  0  0  0  0
   -0.6914   -1.0428   -0.4811 C   0  0  1  0  0  0  0  0  0  0  0  0
    0.1940   -1.6806   -0.5881 H   0  0  0  0  0  0  0  0  0  0  0  0
   -0.7338   -0.0447   -1.6567 C   0  0  0  0  0  0  0  0  0  0  0  0
   -1.4622   -0.3634   -2.4074 H   0  0  0  0  0  0  0  0  0  0  0  0
   -1.0486    0.9444   -1.3071 H   0  0  0  0  0  0  0  0  0  0  0  0
    0.6178    0.0612   -2.3101 C   0  0  0  0  0  0  0  0  0  0  0  0
    1.7009    0.7293   -1.7920 C   0  0  0  0  0  0  0  0  0  0  0  0
    1.7227    1.2504   -0.8354 H   0  0  0  0  0  0  0  0  0  0  0  0
    2.7518    0.5901   -2.6950 N   0  0  0  0  0  0  0  0  0  0  0  0
    3.6908    0.9585   -2.5597 H   0  0  0  0  0  0  0  0  0  0  0  0
    2.3545   -0.1642   -3.7871 C   0  0  0  0  0  0  0  0  0  0  0  0
    3.0415   -0.5726   -4.9302 C   0  0  0  0  0  0  0  0  0  0  0  0
    4.0788   -0.2910   -5.0732 H   0  0  0  0  0  0  0  0  0  0  0  0
    2.3740   -1.3497   -5.8871 C   0  0  0  0  0  0  0  0  0  0  0  0
    2.8972   -1.6743   -6.7818 H   0  0  0  0  0  0  0  0  0  0  0  0
    1.0319   -1.7092   -5.6892 C   0  0  0  0  0  0  0  0  0  0  0  0
    0.5191   -2.3124   -6.4322 H   0  0  0  0  0  0  0  0  0  0  0  0
    0.3515   -1.2932   -4.5357 C   0  0  0  0  0  0  0  0  0  0  0  0
   -0.6849   -1.5710   -4.3811 H   0  0  0  0  0  0  0  0  0  0  0  0
    1.0239   -0.5165   -3.5860 C   0  0  0  0  0  0  0  0  0  0  0  0
   -0.5216   -0.2722    0.8485 C   0  0  0  0  0  0  0  0  0  0  0  0
    0.5978    0.0292    1.2449 O   0  0  0  0  0  0  0  0  0  0  0  0
   -1.6183    0.3427    1.4269 N   0  0  0  0  0  0  0  0  0  0  0  0
   -2.5252   -0.0071    1.1356 H   0  0  0  0  0  0  0  0  0  0  0  0
   -1.5312    1.1109    2.6623 C   0  0  0  0  0  0  0  0  0  0  0  0
   -0.8323    1.9460    2.5474 H   0  0  0  0  0  0  0  0  0  0  0  0
   -2.5124    1.5183    2.9235 H   0  0  0  0  0  0  0  0  0  0  0  0
   -1.1878    0.4744    3.4846 H   0  0  0  0  0  0  0  0  0  0  0  0
  1  2  1  0  0  0  0
  2  3  1  0  0  0  0
  2  4  1  0  0  0  0
  2  5  1  0  0  0  0
  5  6  2  0  0  0  0
  5  7  1  0  0  0  0
  7  8  1  0  0  0  0
  7  9  1  0  0  0  0
  9 10  1  0  0  0  0
  9 11  1  0  0  0  0
  9 29  1  0  0  0  0
 11 12  1  0  0  0  0
 11 13  1  0  0  0  0
 11 14  1  0  0  0  0
 14 15  2  0  0  0  0
 14 28  1  0  0  0  0
 15 16  1  0  0  0  0
 15 17  1  0  0  0  0
 17 18  1  0  0  0  0
 17 19  1  0  0  0  0
 19 20  1  0  0  0  0
 19 28  2  0  0  0  0
 20 21  1  0  0  0  0
 20 22  2  0  0  0  0
 22 23  1  0  0  0  0
 22 24  1  0  0  0  0
 24 25  1  0  0  0  0
 24 26  2  0  0  0  0
 26 27  1  0  0  0  0
 26 28  1  0  0  0  0
 29 30  2  0  0  0  0
 29 31  1  0  0  0  0
 31 32  1  0  0  0  0
 31 33  1  0  0  0  0
 33 34  1  0  0  0  0
 33 35  1  0  0  0  0
 33 36  1  0  0  0  0
M  END
$$$$

  -OEChem-03222214083D

 36 37  0     1  0  0  0  0  0999 V2000
   -3.2488   -4.7374    0.8067 H   0  0  0  0  0  0  0  0  0  0  0  0
   -3.2387   -3.9439    0.0538 C   0  0  0  0  0  0  0  0  0  0  0  0
   -4.1981   -3.4220    0.0806 H   0  0  0  0  0  0  0  0  0  0  0  0
   -3.1042   -4.3972   -0.9312 H   0  0  0  0  0  0  0  0  0  0  0  0
   -2.1100   -2.9706    0.3376 C   0  0  0  0  0  0  0  0  0  0  0  0
   -1.4265   -3.1101    1.3348 O   0  0  0  0  0  0  0  0  0  0  0  0
   -1.8748   -1.9236   -0.5313 N   0  0  0  0  0  0  0  0  0  0  0  0
   -2.3968   -1.9443   -1.4014 H   0  0  0  0  0  0  0  0  0  0  0  0
   -0.6863   -1.0483   -0.4633 C   0  0  1  0  0  0  0  0  0  0  0  0
    0.1955   -1.6924   -0.5614 H   0  0  0  0  0  0  0  0  0  0  0  0
   -0.7212   -0.0600   -1.6496 C   0  0  0  0  0  0  0  0  0  0  0  0
   -1.4494   -0.3943   -2.3932 H   0  0  0  0  0  0  0  0  0  0  0  0
   -1.0422    0.9321   -1.3148 H   0  0  0  0  0  0  0  0  0  0  0  0
    0.6257    0.0516   -2.3179 C   0  0  0  0  0  0  0  0  0  0  0  0
    1.7926    0.4664   -1.7192 C   0  0  0  0  0  0  0  0  0  0  0  0
    1.8998    0.7704   -0.6787 H   0  0  0  0  0  0  0  0  0  0  0  0
    2.8009    0.4149   -2.6778 N   0  0  0  0  0  0  0  0  0  0  0  0
    3.7768    0.6527   -2.5124 H   0  0  0  0  0  0  0  0  0  0  0  0
    2.2947   -0.0263   -3.8888 C   0  0  0  0  0  0  0  0  0  0  0  0
    2.9063   -0.2385   -5.1243 C   0  0  0  0  0  0  0  0  0  0  0  0
    3.9670   -0.0498   -5.2476 H   0  0  0  0  0  0  0  0  0  0  0  0
    2.1330   -0.6970   -6.1997 C   0  0  0  0  0  0  0  0  0  0  0  0
    2.5963   -0.8661   -7.1672 H   0  0  0  0  0  0  0  0  0  0  0  0
    0.7614   -0.9374   -6.0268 C   0  0  0  0  0  0  0  0  0  0  0  0
    0.1651   -1.2916   -6.8623 H   0  0  0  0  0  0  0  0  0  0  0  0
    0.1580   -0.7217   -4.7793 C   0  0  0  0  0  0  0  0  0  0  0  0
   -0.9021   -0.9071   -4.6477 H   0  0  0  0  0  0  0  0  0  0  0  0
    0.9359   -0.2641   -3.7092 C   0  0  0  0  0  0  0  0  0  0  0  0
   -0.5273   -0.2729    0.8652 C   0  0  0  0  0  0  0  0  0  0  0  0
    0.5895   -0.0139    1.2969 O   0  0  0  0  0  0  0  0  0  0  0  0
   -1.6234    0.3537    1.4315 N   0  0  0  0  0  0  0  0  0  0  0  0
   -2.5319    0.0351    1.1111 H   0  0  0  0  0  0  0  0  0  0  0  0
   -1.5452    1.1060    2.6772 C   0  0  0  0  0  0  0  0  0  0  0  0
   -0.8338    1.9330    2.5824 H   0  0  0  0  0  0  0  0  0  0  0  0
   -2.5246    1.5234    2.9295 H   0  0  0  0  0  0  0  0  0  0  0  0
   -1.2222    0.4556    3.4969 H   0  0  0  0  0  0  0  0  0  0  0  0
  1  2  1  0  0  0  0
  2  3  1  0  0  0  0
  2  4  1  0  0  0  0
  2  5  1  0  0  0  0
  5  6  2  0  0  0  0
  5  7  1  0  0  0  0
  7  8  1  0  0  0  0
  7  9  1  0  0  0  0
  9 10  1  0  0  0  0
  9 11  1  0  0  0  0
  9 29  1  0  0  0  0
 11 12  1  0  0  0  0
 11 13  1  0  0  0  0
 11 14  1  0  0  0  0
 14 15  2  0  0  0  0
 14 28  1  0  0  0  0
 15 16  1  0  0  0  0
 15 17  1  0  0  0  0
 17 18  1  0  0  0  0
 17 19  1  0  0  0  0
 19 20  1  0  0  0  0
 19 28  2  0  0  0  0
 20 21  1  0  0  0  0
 20 22  2  0  0  0  0
 22 23  1  0  0  0  0
 22 24  1  0  0  0  0
 24 25  1  0  0  0  0
 24 26  2  0  0  0  0
 26 27  1  0  0  0  0
 26 28  1  0  0  0  0
 29 30  2  0  0  0  0
 29 31  1  0  0  0  0
 31 32  1  0  0  0  0
 31 33  1  0  0  0  0
 33 34  1  0  0  0  0
 33 35  1  0  0  0  0
 33 36  1  0  0  0  0
M  END
$$$$

  -OEChem-03222214083D

 36 37  0     1  0  0  0  0  0999 V2000
   -3.2733   -4.7290    0.8211 H   0  0  0  0  0  0  0  0  0  0  0  0
   -3.2583   -3.9375    0.0662 C   0  0  0  0  0  0  0  0  0  0  0  0
   -4.2171   -3.4139    0.0862 H   0  0  0  0  0  0  0  0  0  0  0  0
   -3.1188   -4.3941   -0.9166 H   0  0  0  0  0  0  0  0  0  0  0  0
   -2.1289   -2.9659    0.3535 C   0  0  0  0  0  0  0  0  0  0  0  0
   -1.4529   -3.1034    1.3564 O   0  0  0  0  0  0  0  0  0  0  0  0
   -1.8791   -1.9271   -0.5216 N   0  0  0  0  0  0  0  0  0  0  0  0
   -2.3966   -1.9475   -1.3948 H   0  0  0  0  0  0  0  0  0  0  0  0
   -0.6850   -1.0593   -0.4491 C   0  0  1  0  0  0  0  0  0  0  0  0
    0.1903   -1.7132   -0.5328 H   0  0  0  0  0  0  0  0  0  0  0  0
   -0.7006   -0.0818   -1.6465 C   0  0  0  0  0  0  0  0  0  0  0  0
   -1.4203   -0.4349   -2.3900 H   0  0  0  0  0  0  0  0  0  0  0  0
   -1.0319    0.9127   -1.3302 H   0  0  0  0  0  0  0  0  0  0  0  0
    0.6456    0.0331   -2.3213 C   0  0  0  0  0  0  0  0  0  0  0  0
    1.8694    0.1733   -1.7059 C   0  0  0  0  0  0  0  0  0  0  0  0
    2.0418    0.2274   -0.6319 H   0  0  0  0  0  0  0  0  0  0  0  0
    2.8408    0.2329   -2.7011 N   0  0  0  0  0  0  0  0  0  0  0  0
    3.8401    0.3340   -2.5364 H   0  0  0  0  0  0  0  0  0  0  0  0
    2.2569    0.1398   -3.9527 C   0  0  0  0  0  0  0  0  0  0  0  0
    2.8088    0.1549   -5.2335 C   0  0  0  0  0  0  0  0  0  0  0  0
    3.8809    0.2522   -5.3646 H   0  0  0  0  0  0  0  0  0  0  0  0
    1.9608    0.0437   -6.3439 C   0  0  0  0  0  0  0  0  0  0  0  0
    2.3770    0.0544   -7.3469 H   0  0  0  0  0  0  0  0  0  0  0  0
    0.5753   -0.0792   -6.1603 C   0  0  0  0  0  0  0  0  0  0  0  0
   -0.0791   -0.1630   -7.0225 H   0  0  0  0  0  0  0  0  0  0  0  0
    0.0323   -0.0925   -4.8673 C   0  0  0  0  0  0  0  0  0  0  0  0
   -1.0389   -0.1840   -4.7272 H   0  0  0  0  0  0  0  0  0  0  0  0
    0.8848    0.0159   -3.7621 C   0  0  0  0  0  0  0  0  0  0  0  0
   -0.5339   -0.2753    0.8752 C   0  0  0  0  0  0  0  0  0  0  0  0
    0.5802   -0.0428    1.3285 O   0  0  0  0  0  0  0  0  0  0  0  0
   -1.6296    0.3637    1.4282 N   0  0  0  0  0  0  0  0  0  0  0  0
   -2.5380    0.0596    1.0936 H   0  0  0  0  0  0  0  0  0  0  0  0
   -1.5584    1.1100    2.6778 C   0  0  0  0  0  0  0  0  0  0  0  0
   -0.8359    1.9290    2.5951 H   0  0  0  0  0  0  0  0  0  0  0  0
   -2.5361    1.5376    2.9192 H   0  0  0  0  0  0  0  0  0  0  0  0
   -1.2537    0.4518    3.4984 H   0  0  0  0  0  0  0  0  0  0  0  0
  1  2  1  0  0  0  0
  2  3  1  0  0  0  0
  2  4  1  0  0  0  0
  2  5  1  0  0  0  0
  5  6  2  0  0  0  0
  5  7  1  0  0  0  0
  7  8  1  0  0  0  0
  7  9  1  0  0  0  0
  9 10  1  0  0  0  0
  9 11  1  0  0  0  0
  9 29  1  0  0  0  0
 11 12  1  0  0  0  0
 11 13  1  0  0  0  0
 11 14  1  0  0  0  0
 14 15  2  0  0  0  0
 14 28  1  0  0  0  0
 15 16  1  0  0  0  0
 15 17  1  0  0  0  0
 17 18  1  0  0  0  0
 17 19  1  0  0  0  0
 19 20  1  0  0  0  0
 19 28  2  0  0  0  0
 20 21  1  0  0  0  0
 20 22  2  0  0  0  0
 22 23  1  0  0  0  0
 22 24  1  0  0  0  0
 24 25  1  0  0  0  0
 24 26  2  0  0  0  0
 26 27  1  0  0  0  0
 26 28  1  0  0  0  0
 29 30  2  0  0  0  0
 29 31  1  0  0  0  0
 31 32  1  0  0  0  0
 31 33  1  0  0  0  0
 33 34  1  0  0  0  0
 33 35  1  0  0  0  0
 33 36  1  0  0  0  0
M  END
$$$$

  -OEChem-03222214083D

 36 37  0     1  0  0  0  0  0999 V2000
   -3.3043   -4.7191    0.8259 H   0  0  0  0  0  0  0  0  0  0  0  0
   -3.2840   -3.9284    0.0705 C   0  0  0  0  0  0  0  0  0  0  0  0
   -4.2346   -3.3902    0.0987 H   0  0  0  0  0  0  0  0  0  0  0  0
   -3.1599   -4.3871   -0.9133 H   0  0  0  0  0  0  0  0  0  0  0  0
   -2.1375   -2.9744    0.3468 C   0  0  0  0  0  0  0  0  0  0  0  0
   -1.4495   -3.1256    1.3395 O   0  0  0  0  0  0  0  0  0  0  0  0
   -1.8857   -1.9339   -0.5252 N   0  0  0  0  0  0  0  0  0  0  0  0
   -2.4162   -1.9371   -1.3909 H   0  0  0  0  0  0  0  0  0  0  0  0
   -0.6930   -1.0655   -0.4476 C   0  0  1  0  0  0  0  0  0  0  0  0
    0.1740   -1.7305   -0.5229 H   0  0  0  0  0  0  0  0  0  0  0  0
   -0.6931   -0.0963   -1.6522 C   0  0  0  0  0  0  0  0  0  0  0  0
   -1.3990   -0.4641   -2.4024 H   0  0  0  0  0  0  0  0  0  0  0  0
   -1.0378    0.8973   -1.3476 H   0  0  0  0  0  0  0  0  0  0  0  0
    0.6538    0.0284   -2.3253 C   0  0  0  0  0  0  0  0  0  0  0  0
    1.8979   -0.1004   -1.7481 C   0  0  0  0  0  0  0  0  0  0  0  0
    2.0957   -0.2964   -0.6949 H   0  0  0  0  0  0  0  0  0  0  0  0
    2.8510    0.0765   -2.7473 N   0  0  0  0  0  0  0  0  0  0  0  0
    3.8585    0.0472   -2.6050 H   0  0  0  0  0  0  0  0  0  0  0  0
    2.2368    0.3248   -3.9626 C   0  0  0  0  0  0  0  0  0  0  0  0
    2.7605    0.5654   -5.2326 C   0  0  0  0  0  0  0  0  0  0  0  0
    3.8338    0.5757   -5.3871 H   0  0  0  0  0  0  0  0  0  0  0  0
    1.8826    0.7937   -6.3011 C   0  0  0  0  0  0  0  0  0  0  0  0
    2.2773    0.9827   -7.2950 H   0  0  0  0  0  0  0  0  0  0  0  0
    0.4959    0.7809   -6.0869 C   0  0  0  0  0  0  0  0  0  0  0  0
   -0.1809    0.9613   -6.9166 H   0  0  0  0  0  0  0  0  0  0  0  0
   -0.0186    0.5383   -4.8046 C   0  0  0  0  0  0  0  0  0  0  0  0
   -1.0900    0.5326   -4.6369 H   0  0  0  0  0  0  0  0  0  0  0  0
    0.8638    0.3069   -3.7431 C   0  0  0  0  0  0  0  0  0  0  0  0
   -0.5345   -0.2787    0.8727 C   0  0  0  0  0  0  0  0  0  0  0  0
    0.5839   -0.0569    1.3205 O   0  0  0  0  0  0  0  0  0  0  0  0
   -1.6251    0.3653    1.4296 N   0  0  0  0  0  0  0  0  0  0  0  0
   -2.5365    0.0677    1.0978 H   0  0  0  0  0  0  0  0  0  0  0  0
   -1.5455    1.1128    2.6778 C   0  0  0  0  0  0  0  0  0  0  0  0
   -0.8115    1.9214    2.5953 H   0  0  0  0  0  0  0  0  0  0  0  0
   -2.5175    1.5548    2.9164 H   0  0  0  0  0  0  0  0  0  0  0  0
   -1.2522    0.4520    3.5004 H   0  0  0  0  0  0  0  0  0  0  0  0
  1  2  1  0  0  0  0
  2  3  1  0  0  0  0
  2  4  1  0  0  0  0
  2  5  1  0  0  0  0
  5  6  2  0  0  0  0
  5  7  1  0  0  0  0
  7  8  1  0  0  0  0
  7  9  1  0  0  0  0
  9 10  1  0  0  0  0
  9 11  1  0  0  0  0
  9 29  1  0  0  0  0
 11 12  1  0  0  0  0
 11 13  1  0  0  0  0
 11 14  1  0  0  0  0
 14 15  2  0  0  0  0
 14 28  1  0  0  0  0
 15 16  1  0  0  0  0
 15 17  1  0  0  0  0
 17 18  1  0  0  0  0
 17 19  1  0  0  0  0
 19 20  1  0  0  0  0
 19 28  2  0  0  0  0
 20 21  1  0  0  0  0
 20 22  2  0  0  0  0
 22 23  1  0  0  0  0
 22 24  1  0  0  0  0
 24 25  1  0  0  0  0
 24 26  2  0  0  0  0
 26 27  1  0  0  0  0
 26 28  1  0  0  0  0
 29 30  2  0  0  0  0
 29 31  1  0  0  0  0
 31 32  1  0  0  0  0
 31 33  1  0  0  0  0
 33 34  1  0  0  0  0
 33 35  1  0  0  0  0
 33 36  1  0  0  0  0
M  END
$$$$

  -OEChem-03222214083D

 36 37  0     1  0  0  0  0  0999 V2000
   -3.3371   -4.7160    0.7975 H   0  0  0  0  0  0  0  0  0  0  0  0
   -3.3100   -3.9220    0.0454 C   0  0  0  0  0  0  0  0  0  0  0  0
   -4.2560   -3.3763    0.0763 H   0  0  0  0  0  0  0  0  0  0  0  0
   -3.1902   -4.3776   -0.9405 H   0  0  0  0  0  0  0  0  0  0  0  0
   -2.1555   -2.9786    0.3264 C   0  0  0  0  0  0  0  0  0  0  0  0
   -1.4626   -3.1448    1.3134 O   0  0  0  0  0  0  0  0  0  0  0  0
   -1.8987   -1.9316   -0.5359 N   0  0  0  0  0  0  0  0  0  0  0  0
   -2.4361   -1.9154   -1.3973 H   0  0  0  0  0  0  0  0  0  0  0  0
   -0.7065   -1.0648   -0.4441 C   0  0  1  0  0  0  0  0  0  0  0  0
    0.1486   -1.7441   -0.5076 H   0  0  0  0  0  0  0  0  0  0  0  0
   -0.6823   -0.1033   -1.6547 C   0  0  0  0  0  0  0  0  0  0  0  0
   -1.3758   -0.4727   -2.4161 H   0  0  0  0  0  0  0  0  0  0  0  0
   -1.0330    0.8899   -1.3555 H   0  0  0  0  0  0  0  0  0  0  0  0
    0.6702    0.0298   -2.3175 C   0  0  0  0  0  0  0  0  0  0  0  0
    1.9055   -0.3485   -1.8374 C   0  0  0  0  0  0  0  0  0  0  0  0
    2.1056   -0.7782   -0.8565 H   0  0  0  0  0  0  0  0  0  0  0  0
    2.8510   -0.0568   -2.8168 N   0  0  0  0  0  0  0  0  0  0  0  0
    3.8534   -0.2077   -2.7249 H   0  0  0  0  0  0  0  0  0  0  0  0
    2.2421    0.5085   -3.9238 C   0  0  0  0  0  0  0  0  0  0  0  0
    2.7588    0.9647   -5.1364 C   0  0  0  0  0  0  0  0  0  0  0  0
    3.8231    0.9016   -5.3345 H   0  0  0  0  0  0  0  0  0  0  0  0
    1.8855    1.5045   -6.0910 C   0  0  0  0  0  0  0  0  0  0  0  0
    2.2743    1.8639   -7.0391 H   0  0  0  0  0  0  0  0  0  0  0  0
    0.5104    1.5828   -5.8212 C   0  0  0  0  0  0  0  0  0  0  0  0
   -0.1629    2.0042   -6.5615 H   0  0  0  0  0  0  0  0  0  0  0  0
    0.0031    1.1213   -4.5978 C   0  0  0  0  0  0  0  0  0  0  0  0
   -1.0584    1.1847   -4.3845 H   0  0  0  0  0  0  0  0  0  0  0  0
    0.8809    0.5816   -3.6516 C   0  0  0  0  0  0  0  0  0  0  0  0
   -0.5364   -0.2801    0.8742 C   0  0  0  0  0  0  0  0  0  0  0  0
    0.5883   -0.0737    1.3131 O   0  0  0  0  0  0  0  0  0  0  0  0
   -1.6168    0.3723    1.4406 N   0  0  0  0  0  0  0  0  0  0  0  0
   -2.5342    0.0861    1.1152 H   0  0  0  0  0  0  0  0  0  0  0  0
   -1.5177    1.1229    2.6858 C   0  0  0  0  0  0  0  0  0  0  0  0
   -0.7721    1.9200    2.5955 H   0  0  0  0  0  0  0  0  0  0  0  0
   -2.4814    1.5803    2.9292 H   0  0  0  0  0  0  0  0  0  0  0  0
   -1.2284    0.4609    3.5087 H   0  0  0  0  0  0  0  0  0  0  0  0
  1  2  1  0  0  0  0
  2  3  1  0  0  0  0
  2  4  1  0  0  0  0
  2  5  1  0  0  0  0
  5  6  2  0  0  0  0
  5  7  1  0  0  0  0
  7  8  1  0  0  0  0
  7  9  1  0  0  0  0
  9 10  1  0  0  0  0
  9 11  1  0  0  0  0
  9 29  1  0  0  0  0
 11 12  1  0  0  0  0
 11 13  1  0  0  0  0
 11 14  1  0  0  0  0
 14 15  2  0  0  0  0
 14 28  1  0  0  0  0
 15 16  1  0  0  0  0
 15 17  1  0  0  0  0
 17 18  1  0  0  0  0
 17 19  1  0  0  0  0
 19 20  1  0  0  0  0
 19 28  2  0  0  0  0
 20 21  1  0  0  0  0
 20 22  2  0  0  0  0
 22 23  1  0  0  0  0
 22 24  1  0  0  0  0
 24 25  1  0  0  0  0
 24 26  2  0  0  0  0
 26 27  1  0  0  0  0
 26 28  1  0  0  0  0
 29 30  2  0  0  0  0
 29 31  1  0  0  0  0
 31 32  1  0  0  0  0
 31 33  1  0  0  0  0
 33 34  1  0  0  0  0
 33 35  1  0  0  0  0
 33 36  1  0  0  0  0
M  END
$$$$

  -OEChem-03222214083D

 36 37  0     1  0  0  0  0  0999 V2000
   -3.4037   -4.6853    0.7787 H   0  0  0  0  0  0  0  0  0  0  0  0
   -3.3496   -3.8928    0.0267 C   0  0  0  0  0  0  0  0  0  0  0  0
   -4.2839   -3.3268    0.0447 H   0  0  0  0  0  0  0  0  0  0  0  0
   -3.2266   -4.3515   -0.9575 H   0  0  0  0  0  0  0  0  0  0  0  0
   -2.1799   -2.9731    0.3223 C   0  0  0  0  0  0  0  0  0  0  0  0
   -1.4995   -3.1545    1.3151 O   0  0  0  0  0  0  0  0  0  0  0  0
   -1.8933   -1.9315   -0.5369 N   0  0  0  0  0  0  0  0  0  0  0  0
   -2.4233   -1.9027   -1.4026 H   0  0  0  0  0  0  0  0  0  0  0  0
   -0.6915   -1.0802   -0.4293 C   0  0  1  0  0  0  0  0  0  0  0  0
    0.1539   -1.7704   -0.4742 H   0  0  0  0  0  0  0  0  0  0  0  0
   -0.6450   -0.1262   -1.6457 C   0  0  0  0  0  0  0  0  0  0  0  0
   -1.3399   -0.4823   -2.4121 H   0  0  0  0  0  0  0  0  0  0  0  0
   -0.9858    0.8693   -1.3429 H   0  0  0  0  0  0  0  0  0  0  0  0
    0.7075    0.0052   -2.3109 C   0  0  0  0  0  0  0  0  0  0  0  0
    1.9085   -0.5947   -1.9962 C   0  0  0  0  0  0  0  0  0  0  0  0
    2.0956   -1.2556   -1.1523 H   0  0  0  0  0  0  0  0  0  0  0  0
    2.8518   -0.1815   -2.9336 N   0  0  0  0  0  0  0  0  0  0  0  0
    3.8365   -0.4393   -2.9261 H   0  0  0  0  0  0  0  0  0  0  0  0
    2.2748    0.6752   -3.8544 C   0  0  0  0  0  0  0  0  0  0  0  0
    2.8004    1.3406   -4.9618 C   0  0  0  0  0  0  0  0  0  0  0  0
    3.8460    1.2229   -5.2239 H   0  0  0  0  0  0  0  0  0  0  0  0
    1.9604    2.1611   -5.7277 C   0  0  0  0  0  0  0  0  0  0  0  0
    2.3564    2.6849   -6.5927 H   0  0  0  0  0  0  0  0  0  0  0  0
    0.6094    2.3078   -5.3767 C   0  0  0  0  0  0  0  0  0  0  0  0
   -0.0379    2.9459   -5.9708 H   0  0  0  0  0  0  0  0  0  0  0  0
    0.0934    1.6352   -4.2593 C   0  0  0  0  0  0  0  0  0  0  0  0
   -0.9490    1.7499   -3.9821 H   0  0  0  0  0  0  0  0  0  0  0  0
    0.9382    0.8168   -3.5014 C   0  0  0  0  0  0  0  0  0  0  0  0
   -0.5279   -0.2922    0.8882 C   0  0  0  0  0  0  0  0  0  0  0  0
    0.5921   -0.1095    1.3478 O   0  0  0  0  0  0  0  0  0  0  0  0
   -1.6055    0.3785    1.4388 N   0  0  0  0  0  0  0  0  0  0  0  0
   -2.5230    0.1147    1.0953 H   0  0  0  0  0  0  0  0  0  0  0  0
   -1.5112    1.1394    2.6782 C   0  0  0  0  0  0  0  0  0  0  0  0
   -0.7563    1.9277    2.5881 H   0  0  0  0  0  0  0  0  0  0  0  0
   -2.4721    1.6092    2.9078 H   0  0  0  0  0  0  0  0  0  0  0  0
   -1.2371    0.4822    3.5102 H   0  0  0  0  0  0  0  0  0  0  0  0
  1  2  1  0  0  0  0
  2  3  1  0  0  0  0
  2  4  1  0  0  0  0
  2  5  1  0  0  0  0
  5  6  2  0  0  0  0
  5  7  1  0  0  0  0
  7  8  1  0  0  0  0
  7  9  1  0  0  0  0
  9 10  1  0  0  0  0
  9 11  1  0  0  0  0
  9 29  1  0  0  0  0
 11 12  1  0  0  0  0
 11 13  1  0  0  0  0
 11 14  1  0  0  0  0
 14 15  2  0  0  0  0
 14 28  1  0  0  0  0
 15 16  1  0  0  0  0
 15 17  1  0  0  0  0
 17 18  1  0  0  0  0
 17 19  1  0  0  0  0
 19 20  1  0  0  0  0
 19 28  2  0  0  0  0
 20 21  1  0  0  0  0
 20 22  2  0  0  0  0
 22 23  1  0  0  0  0
 22 24  1  0  0  0  0
 24 25  1  0  0  0  0
 24 26  2  0  0  0  0
 26 27  1  0  0  0  0
 26 28  1  0  0  0  0
 29 30  2  0  0  0  0
 29 31  1  0  0  0  0
 31 32  1  0  0  0  0
 31 33  1  0  0  0  0
 33 34  1  0  0  0  0
 33 35  1  0  0  0  0
 33 36  1  0  0  0  0
M  END
$$$$

  -OEChem-03222214083D

 36 37  0     1  0  0  0  0  0999 V2000
   -3.4442   -4.6394    0.8174 H   0  0  0  0  0  0  0  0  0  0  0  0
   -3.3810   -3.8497    0.0634 C   0  0  0  0  0  0  0  0  0  0  0  0
   -4.2960   -3.2540    0.1007 H   0  0  0  0  0  0  0  0  0  0  0  0
   -3.2943   -4.3128   -0.9226 H   0  0  0  0  0  0  0  0  0  0  0  0
   -2.1760   -2.9681    0.3320 C   0  0  0  0  0  0  0  0  0  0  0  0
   -1.4789   -3.1719    1.3086 O   0  0  0  0  0  0  0  0  0  0  0  0
   -1.8765   -1.9358   -0.5337 N   0  0  0  0  0  0  0  0  0  0  0  0
   -2.4316   -1.8800   -1.3822 H   0  0  0  0  0  0  0  0  0  0  0  0
   -0.6683   -1.0926   -0.4315 C   0  0  1  0  0  0  0  0  0  0  0  0
    0.1793   -1.7802   -0.4657 H   0  0  0  0  0  0  0  0  0  0  0  0
   -0.6252   -0.1419   -1.6515 C   0  0  0  0  0  0  0  0  0  0  0  0
   -1.3328   -0.4835   -2.4129 H   0  0  0  0  0  0  0  0  0  0  0  0
   -0.9520    0.8549   -1.3373 H   0  0  0  0  0  0  0  0  0  0  0  0
    0.7213   -0.0161   -2.3309 C   0  0  0  0  0  0  0  0  0  0  0  0
    1.8480   -0.8033   -2.2193 C   0  0  0  0  0  0  0  0  0  0  0  0
    1.9715   -1.6656   -1.5686 H   0  0  0  0  0  0  0  0  0  0  0  0
    2.8157   -0.2907   -3.0796 N   0  0  0  0  0  0  0  0  0  0  0  0
    3.7631   -0.6499   -3.1767 H   0  0  0  0  0  0  0  0  0  0  0  0
    2.3261    0.8131   -3.7554 C   0  0  0  0  0  0  0  0  0  0  0  0
    2.9040    1.6519   -4.7085 C   0  0  0  0  0  0  0  0  0  0  0  0
    3.9231    1.4839   -5.0386 H   0  0  0  0  0  0  0  0  0  0  0  0
    2.1505    2.7114   -5.2330 C   0  0  0  0  0  0  0  0  0  0  0  0
    2.5876    3.3718   -5.9760 H   0  0  0  0  0  0  0  0  0  0  0  0
    0.8330    2.9197   -4.7978 C   0  0  0  0  0  0  0  0  0  0  0  0
    0.2527    3.7423   -5.2047 H   0  0  0  0  0  0  0  0  0  0  0  0
    0.2645    2.0714   -3.8365 C   0  0  0  0  0  0  0  0  0  0  0  0
   -0.7524    2.2326   -3.4956 H   0  0  0  0  0  0  0  0  0  0  0  0
    1.0227    1.0156   -3.3186 C   0  0  0  0  0  0  0  0  0  0  0  0
   -0.5149   -0.2999    0.8850 C   0  0  0  0  0  0  0  0  0  0  0  0
    0.5972   -0.1275    1.3660 O   0  0  0  0  0  0  0  0  0  0  0  0
   -1.5971    0.3761    1.4209 N   0  0  0  0  0  0  0  0  0  0  0  0
   -2.5105    0.1179    1.0632 H   0  0  0  0  0  0  0  0  0  0  0  0
   -1.5181    1.1251    2.6686 C   0  0  0  0  0  0  0  0  0  0  0  0
   -0.7533    1.9062    2.6011 H   0  0  0  0  0  0  0  0  0  0  0  0
   -2.4786    1.6028    2.8840 H   0  0  0  0  0  0  0  0  0  0  0  0
   -1.2667    0.4571    3.4990 H   0  0  0  0  0  0  0  0  0  0  0  0
  1  2  1  0  0  0  0
  2  3  1  0  0  0  0
  2  4  1  0  0  0  0
  2  5  1  0  0  0  0
  5  6  2  0  0  0  0
  5  7  1  0  0  0  0
  7  8  1  0  0  0  0
  7  9  1  0  0  0  0
  9 10  1  0  0  0  0
  9 11  1  0  0  0  0
  9 29  1  0  0  0  0
 11 12  1  0  0  0  0
 11 13  1  0  0  0  0
 11 14  1  0  0  0  0
 14 15  2  0  0  0  0
 14 28  1  0  0  0  0
 15 16  1  0  0  0  0
 15 17  1  0  0  0  0
 17 18  1  0  0  0  0
 17 19  1  0  0  0  0
 19 20  1  0  0  0  0
 19 28  2  0  0  0  0
 20 21  1  0  0  0  0
 20 22  2  0  0  0  0
 22 23  1  0  0  0  0
 22 24  1  0  0  0  0
 24 25  1  0  0  0  0
 24 26  2  0  0  0  0
 26 27  1  0  0  0  0
 26 28  1  0  0  0  0
 29 30  2  0  0  0  0
 29 31  1  0  0  0  0
 31 32  1  0  0  0  0
 31 33  1  0  0  0  0
 33 34  1  0  0  0  0
 33 35  1  0  0  0  0
 33 36  1  0  0  0  0
M  END
$$$$

  -OEChem-03222214083D

 36 37  0     1  0  0  0  0  0999 V2000
   -3.4195   -4.6346    0.8639 H   0  0  0  0  0  0  0  0  0  0  0  0
   -3.3620   -3.8559    0.0977 C   0  0  0  0  0  0  0  0  0  0  0  0
   -4.2782   -3.2614    0.1320 H   0  0  0  0  0  0  0  0  0  0  0  0
   -3.2811   -4.3337   -0.8816 H   0  0  0  0  0  0  0  0  0  0  0  0
   -2.1560   -2.9690    0.3453 C   0  0  0  0  0  0  0  0  0  0  0  0
   -1.4418   -3.1712    1.3096 O   0  0  0  0  0  0  0  0  0  0  0  0
   -1.8716   -1.9384   -0.5283 N   0  0  0  0  0  0  0  0  0  0  0  0
   -2.4474   -1.8783   -1.3624 H   0  0  0  0  0  0  0  0  0  0  0  0
   -0.6647   -1.0901   -0.4481 C   0  0  1  0  0  0  0  0  0  0  0  0
    0.1938   -1.7642   -0.4942 H   0  0  0  0  0  0  0  0  0  0  0  0
   -0.6539   -0.1337   -1.6644 C   0  0  0  0  0  0  0  0  0  0  0  0
   -1.3775   -0.4678   -2.4140 H   0  0  0  0  0  0  0  0  0  0  0  0
   -0.9738    0.8601   -1.3348 H   0  0  0  0  0  0  0  0  0  0  0  0
    0.6822   -0.0106   -2.3629 C   0  0  0  0  0  0  0  0  0  0  0  0
    1.6890   -0.9449   -2.4777 C   0  0  0  0  0  0  0  0  0  0  0  0
    1.6882   -1.9443   -2.0488 H   0  0  0  0  0  0  0  0  0  0  0  0
    2.7101   -0.3830   -3.2397 N   0  0  0  0  0  0  0  0  0  0  0  0
    3.5978   -0.8320   -3.4553 H   0  0  0  0  0  0  0  0  0  0  0  0
    2.3722    0.9023   -3.6259 C   0  0  0  0  0  0  0  0  0  0  0  0
    3.0553    1.8518   -4.3860 C   0  0  0  0  0  0  0  0  0  0  0  0
    4.0377    1.6275   -4.7860 H   0  0  0  0  0  0  0  0  0  0  0  0
    2.4559    3.0964   -4.6235 C   0  0  0  0  0  0  0  0  0  0  0  0
    2.9768    3.8455   -5.2121 H   0  0  0  0  0  0  0  0  0  0  0  0
    1.1849    3.3762   -4.0989 C   0  0  0  0  0  0  0  0  0  0  0  0
    0.7248    4.3425   -4.2820 H   0  0  0  0  0  0  0  0  0  0  0  0
    0.5090    2.4136   -3.3349 C   0  0  0  0  0  0  0  0  0  0  0  0
   -0.4717    2.6309   -2.9256 H   0  0  0  0  0  0  0  0  0  0  0  0
    1.1136    1.1728   -3.1018 C   0  0  0  0  0  0  0  0  0  0  0  0
   -0.5046   -0.2956    0.8674 C   0  0  0  0  0  0  0  0  0  0  0  0
    0.6082   -0.1152    1.3435 O   0  0  0  0  0  0  0  0  0  0  0  0
   -1.5878    0.3725    1.4116 N   0  0  0  0  0  0  0  0  0  0  0  0
   -2.5017    0.1153    1.0553 H   0  0  0  0  0  0  0  0  0  0  0  0
   -1.5052    1.1232    2.6580 C   0  0  0  0  0  0  0  0  0  0  0  0
   -0.7557    1.9177    2.5784 H   0  0  0  0  0  0  0  0  0  0  0  0
   -2.4708    1.5835    2.8869 H   0  0  0  0  0  0  0  0  0  0  0  0
   -1.2304    0.4603    3.4853 H   0  0  0  0  0  0  0  0  0  0  0  0
  1  2  1  0  0  0  0
  2  3  1  0  0  0  0
  2  4  1  0  0  0  0
  2  5  1  0  0  0  0
  5  6  2  0  0  0  0
  5  7  1  0  0  0  0
  7  8  1  0  0  0  0
  7  9  1  0  0  0  0
  9 10  1  0  0  0  0
  9 11  1  0  0  0  0
  9 29  1  0  0  0  0
 11 12  1  0  0  0  0
 11 13  1  0  0  0  0
 11 14  1  0  0  0  0
 14 15  2  0  0  0  0
 14 28  1  0  0  0  0
 15 16  1  0  0  0  0
 15 17  1  0  0  0  0
 17 18  1  0  0  0  0
 17 19  1  0  0  0  0
 19 20  1  0  0  0  0
 19 28  2  0  0  0  0
 20 21  1  0  0  0  0
 20 22  2  0  0  0  0
 22 23  1  0  0  0  0
 22 24  1  0  0  0  0
 24 25  1  0  0  0  0
 24 26  2  0  0  0  0
 26 27  1  0  0  0  0
 26 28  1  0  0  0  0
 29 30  2  0  0  0  0
 29 31  1  0  0  0  0
 31 32  1  0  0  0  0
 31 33  1  0  0  0  0
 33 34  1  0  0  0  0
 33 35  1  0  0  0  0
 33 36  1  0  0  0  0
M  END
$$$$

  -OEChem-03222214083D

 36 37  0     1  0  0  0  0  0999 V2000
   -3.3506   -4.6472    0.8944 H   0  0  0  0  0  0  0  0  0  0  0  0
   -3.3153   -3.8690    0.1265 C   0  0  0  0  0  0  0  0  0  0  0  0
   -4.2331   -3.2790    0.1823 H   0  0  0  0  0  0  0  0  0  0  0  0
   -3.2547   -4.3468   -0.8542 H   0  0  0  0  0  0  0  0  0  0  0  0
   -2.1089   -2.9753    0.3443 C   0  0  0  0  0  0  0  0  0  0  0  0
   -1.3630   -3.1808    1.2834 O   0  0  0  0  0  0  0  0  0  0  0  0
   -1.8583   -1.9381   -0.5316 N   0  0  0  0  0  0  0  0  0  0  0  0
   -2.4675   -1.8676   -1.3406 H   0  0  0  0  0  0  0  0  0  0  0  0
   -0.6645   -1.0696   -0.4735 C   0  0  1  0  0  0  0  0  0  0  0  0
    0.2116   -1.7212   -0.5445 H   0  0  0  0  0  0  0  0  0  0  0  0
   -0.7007   -0.1050   -1.6814 C   0  0  0  0  0  0  0  0  0  0  0  0
   -1.4290   -0.4492   -2.4217 H   0  0  0  0  0  0  0  0  0  0  0  0
   -1.0324    0.8825   -1.3460 H   0  0  0  0  0  0  0  0  0  0  0  0
    0.6277    0.0231   -2.3883 C   0  0  0  0  0  0  0  0  0  0  0  0
    1.4863   -0.9938   -2.7409 C   0  0  0  0  0  0  0  0  0  0  0  0
    1.3356   -2.0519   -2.5395 H   0  0  0  0  0  0  0  0  0  0  0  0
    2.5737   -0.4254   -3.3983 N   0  0  0  0  0  0  0  0  0  0  0  0
    3.3853   -0.9337   -3.7431 H   0  0  0  0  0  0  0  0  0  0  0  0
    2.4246    0.9488   -3.4756 C   0  0  0  0  0  0  0  0  0  0  0  0
    3.2370    1.9370   -4.0314 C   0  0  0  0  0  0  0  0  0  0  0  0
    4.1724    1.6703   -4.5103 H   0  0  0  0  0  0  0  0  0  0  0  0
    2.8297    3.2761   -3.9598 C   0  0  0  0  0  0  0  0  0  0  0  0
    3.4533    4.0562   -4.3863 H   0  0  0  0  0  0  0  0  0  0  0  0
    1.6196    3.6101   -3.3332 C   0  0  0  0  0  0  0  0  0  0  0  0
    1.3094    4.6489   -3.2749 H   0  0  0  0  0  0  0  0  0  0  0  0
    0.8114    2.6073   -2.7775 C   0  0  0  0  0  0  0  0  0  0  0  0
   -0.1210    2.8660   -2.2875 H   0  0  0  0  0  0  0  0  0  0  0  0
    1.2227    1.2715   -2.8554 C   0  0  0  0  0  0  0  0  0  0  0  0
   -0.4990   -0.2783    0.8439 C   0  0  0  0  0  0  0  0  0  0  0  0
    0.6148   -0.0783    1.3089 O   0  0  0  0  0  0  0  0  0  0  0  0
   -1.5886    0.3653    1.4052 N   0  0  0  0  0  0  0  0  0  0  0  0
   -2.5013    0.0915    1.0583 H   0  0  0  0  0  0  0  0  0  0  0  0
   -1.5071    1.1101    2.6550 C   0  0  0  0  0  0  0  0  0  0  0  0
   -0.7749    1.9203    2.5721 H   0  0  0  0  0  0  0  0  0  0  0  0
   -2.4796    1.5491    2.8971 H   0  0  0  0  0  0  0  0  0  0  0  0
   -1.2096    0.4482    3.4753 H   0  0  0  0  0  0  0  0  0  0  0  0
  1  2  1  0  0  0  0
  2  3  1  0  0  0  0
  2  4  1  0  0  0  0
  2  5  1  0  0  0  0
  5  6  2  0  0  0  0
  5  7  1  0  0  0  0
  7  8  1  0  0  0  0
  7  9  1  0  0  0  0
  9 10  1  0  0  0  0
  9 11  1  0  0  0  0
  9 29  1  0  0  0  0
 11 12  1  0  0  0  0
 11 13  1  0  0  0  0
 11 14  1  0  0  0  0
 14 15  2  0  0  0  0
 14 28  1  0  0  0  0
 15 16  1  0  0  0  0
 15 17  1  0  0  0  0
 17 18  1  0  0  0  0
 17 19  1  0  0  0  0
 19 20  1  0  0  0  0
 19 28  2  0  0  0  0
 20 21  1  0  0  0  0
 20 22  2  0  0  0  0
 22 23  1  0  0  0  0
 22 24  1  0  0  0  0
 24 25  1  0  0  0  0
 24 26  2  0  0  0  0
 26 27  1  0  0  0  0
 26 28  1  0  0  0  0
 29 30  2  0  0  0  0
 29 31  1  0  0  0  0
 31 32  1  0  0  0  0
 31 33  1  0  0  0  0
 33 34  1  0  0  0  0
 33 35  1  0  0  0  0
 33 36  1  0  0  0  0
M  END
$$$$

  -OEChem-03222214083D

 36 37  0     1  0  0  0  0  0999 V2000
   -3.2613   -4.6750    0.9174 H   0  0  0  0  0  0  0  0  0  0  0  0
   -3.2537   -3.9038    0.1417 C   0  0  0  0  0  0  0  0  0  0  0  0
   -4.1875   -3.3396    0.1985 H   0  0  0  0  0  0  0  0  0  0  0  0
   -3.1864   -4.3898   -0.8347 H   0  0  0  0  0  0  0  0  0  0  0  0
   -2.0711   -2.9748    0.3426 C   0  0  0  0  0  0  0  0  0  0  0  0
   -1.3087   -3.1568    1.2732 O   0  0  0  0  0  0  0  0  0  0  0  0
   -1.8598   -1.9339   -0.5394 N   0  0  0  0  0  0  0  0  0  0  0  0
   -2.4825   -1.8822   -1.3394 H   0  0  0  0  0  0  0  0  0  0  0  0
   -0.6804   -1.0438   -0.5088 C   0  0  1  0  0  0  0  0  0  0  0  0
    0.2076   -1.6775   -0.6073 H   0  0  0  0  0  0  0  0  0  0  0  0
   -0.7575   -0.0782   -1.7114 C   0  0  0  0  0  0  0  0  0  0  0  0
   -1.4854   -0.4446   -2.4414 H   0  0  0  0  0  0  0  0  0  0  0  0
   -1.1060    0.9061   -1.3843 H   0  0  0  0  0  0  0  0  0  0  0  0
    0.5646    0.0521   -2.4240 C   0  0  0  0  0  0  0  0  0  0  0  0
    1.2718   -0.9638   -3.0240 C   0  0  0  0  0  0  0  0  0  0  0  0
    0.9726   -2.0086   -3.0595 H   0  0  0  0  0  0  0  0  0  0  0  0
    2.4295   -0.4123   -3.5664 N   0  0  0  0  0  0  0  0  0  0  0  0
    3.1628   -0.9318   -4.0439 H   0  0  0  0  0  0  0  0  0  0  0  0
    2.4796    0.9483   -3.3116 C   0  0  0  0  0  0  0  0  0  0  0  0
    3.4297    1.9162   -3.6373 C   0  0  0  0  0  0  0  0  0  0  0  0
    4.3188    1.6437   -4.1945 H   0  0  0  0  0  0  0  0  0  0  0  0
    3.2221    3.2413   -3.2299 C   0  0  0  0  0  0  0  0  0  0  0  0
    3.9551    4.0048   -3.4729 H   0  0  0  0  0  0  0  0  0  0  0  0
    2.0722    3.5806   -2.5007 C   0  0  0  0  0  0  0  0  0  0  0  0
    1.9181    4.6059   -2.1781 H   0  0  0  0  0  0  0  0  0  0  0  0
    1.1240    2.5986   -2.1793 C   0  0  0  0  0  0  0  0  0  0  0  0
    0.2409    2.8579   -1.6053 H   0  0  0  0  0  0  0  0  0  0  0  0
    1.3343    1.2792   -2.5956 C   0  0  0  0  0  0  0  0  0  0  0  0
   -0.4955   -0.2469    0.8030 C   0  0  0  0  0  0  0  0  0  0  0  0
    0.6263   -0.0121    1.2310 O   0  0  0  0  0  0  0  0  0  0  0  0
   -1.5811    0.3795    1.3912 N   0  0  0  0  0  0  0  0  0  0  0  0
   -2.4982    0.0793    1.0794 H   0  0  0  0  0  0  0  0  0  0  0  0
   -1.4745    1.1463    2.6261 C   0  0  0  0  0  0  0  0  0  0  0  0
   -0.7690    1.9749    2.5028 H   0  0  0  0  0  0  0  0  0  0  0  0
   -2.4490    1.5621    2.8989 H   0  0  0  0  0  0  0  0  0  0  0  0
   -1.1274    0.5067    3.4444 H   0  0  0  0  0  0  0  0  0  0  0  0
  1  2  1  0  0  0  0
  2  3  1  0  0  0  0
  2  4  1  0  0  0  0
  2  5  1  0  0  0  0
  5  6  2  0  0  0  0
  5  7  1  0  0  0  0
  7  8  1  0  0  0  0
  7  9  1  0  0  0  0
  9 10  1  0  0  0  0
  9 11  1  0  0  0  0
  9 29  1  0  0  0  0
 11 12  1  0  0  0  0
 11 13  1  0  0  0  0
 11 14  1  0  0  0  0
 14 15  2  0  0  0  0
 14 28  1  0  0  0  0
 15 16  1  0  0  0  0
 15 17  1  0  0  0  0
 17 18  1  0  0  0  0
 17 19  1  0  0  0  0
 19 20  1  0  0  0  0
 19 28  2  0  0  0  0
 20 21  1  0  0  0  0
 20 22  2  0  0  0  0
 22 23  1  0  0  0  0
 22 24  1  0  0  0  0
 24 25  1  0  0  0  0
 24 26  2  0  0  0  0
 26 27  1  0  0  0  0
 26 28  1  0  0  0  0
 29 30  2  0  0  0  0
 29 31  1  0  0  0  0
 31 32  1  0  0  0  0
 31 33  1  0  0  0  0
 33 34  1  0  0  0  0
 33 35  1  0  0  0  0
 33 36  1  0  0  0  0
M  END
$$$$

  -OEChem-03222214083D

 36 37  0     1  0  0  0  0  0999 V2000
   -3.2015   -4.6736    0.9413 H   0  0  0  0  0  0  0  0  0  0  0  0
   -3.2098   -3.9066    0.1615 C   0  0  0  0  0  0  0  0  0  0  0  0
   -4.1488   -3.3517    0.2255 H   0  0  0  0  0  0  0  0  0  0  0  0
   -3.1483   -4.3975   -0.8127 H   0  0  0  0  0  0  0  0  0  0  0  0
   -2.0345   -2.9643    0.3442 C   0  0  0  0  0  0  0  0  0  0  0  0
   -1.2634   -3.1309    1.2704 O   0  0  0  0  0  0  0  0  0  0  0  0
   -1.8468   -1.9233   -0.5433 N   0  0  0  0  0  0  0  0  0  0  0  0
   -2.4778   -1.8843   -1.3373 H   0  0  0  0  0  0  0  0  0  0  0  0
   -0.6765   -1.0200   -0.5313 C   0  0  1  0  0  0  0  0  0  0  0  0
    0.2188   -1.6415   -0.6475 H   0  0  0  0  0  0  0  0  0  0  0  0
   -0.7791   -0.0520   -1.7284 C   0  0  0  0  0  0  0  0  0  0  0  0
   -1.5103   -0.4294   -2.4496 H   0  0  0  0  0  0  0  0  0  0  0  0
   -1.1323    0.9324   -1.4055 H   0  0  0  0  0  0  0  0  0  0  0  0
    0.5379    0.0797   -2.4462 C   0  0  0  0  0  0  0  0  0  0  0  0
    1.1033   -0.8484   -3.2884 C   0  0  0  0  0  0  0  0  0  0  0  0
    0.6709   -1.8103   -3.5535 H   0  0  0  0  0  0  0  0  0  0  0  0
    2.3183   -0.3315   -3.7322 N   0  0  0  0  0  0  0  0  0  0  0  0
    2.9721   -0.8074   -4.3499 H   0  0  0  0  0  0  0  0  0  0  0  0
    2.5484    0.9119   -3.1657 C   0  0  0  0  0  0  0  0  0  0  0  0
    3.6141    1.8039   -3.2867 C   0  0  0  0  0  0  0  0  0  0  0  0
    4.4557    1.5673   -3.9279 H   0  0  0  0  0  0  0  0  0  0  0  0
    3.5859    3.0042   -2.5625 C   0  0  0  0  0  0  0  0  0  0  0  0
    4.4106    3.7061   -2.6423 H   0  0  0  0  0  0  0  0  0  0  0  0
    2.4981    3.2948   -1.7249 C   0  0  0  0  0  0  0  0  0  0  0  0
    2.4840    4.2183   -1.1542 H   0  0  0  0  0  0  0  0  0  0  0  0
    1.4320    2.3908   -1.6122 C   0  0  0  0  0  0  0  0  0  0  0  0
    0.5985    2.6039   -0.9511 H   0  0  0  0  0  0  0  0  0  0  0  0
    1.4625    1.2011   -2.3474 C   0  0  0  0  0  0  0  0  0  0  0  0
   -0.4853   -0.2196    0.7777 C   0  0  0  0  0  0  0  0  0  0  0  0
    0.6373    0.0424    1.1874 O   0  0  0  0  0  0  0  0  0  0  0  0
   -1.5731    0.3932    1.3762 N   0  0  0  0  0  0  0  0  0  0  0  0
   -2.4881    0.0700    1.0817 H   0  0  0  0  0  0  0  0  0  0  0  0
   -1.4640    1.1585    2.6119 C   0  0  0  0  0  0  0  0  0  0  0  0
   -0.7636    1.9912    2.4869 H   0  0  0  0  0  0  0  0  0  0  0  0
   -2.4392    1.5688    2.8904 H   0  0  0  0  0  0  0  0  0  0  0  0
   -1.1093    0.5192    3.4272 H   0  0  0  0  0  0  0  0  0  0  0  0
  1  2  1  0  0  0  0
  2  3  1  0  0  0  0
  2  4  1  0  0  0  0
  2  5  1  0  0  0  0
  5  6  2  0  0  0  0
  5  7  1  0  0  0  0
  7  8  1  0  0  0  0
  7  9  1  0  0  0  0
  9 10  1  0  0  0  0
  9 11  1  0  0  0  0
  9 29  1  0  0  0  0
 11 12  1  0  0  0  0
 11 13  1  0  0  0  0
 11 14  1  0  0  0  0
 14 15  2  0  0  0  0
 14 28  1  0  0  0  0
 15 16  1  0  0  0  0
 15 17  1  0  0  0  0
 17 18  1  0  0  0  0
 17 19  1  0  0  0  0
 19 20  1  0  0  0  0
 19 28  2  0  0  0  0
 20 21  1  0  0  0  0
 20 22  2  0  0  0  0
 22 23  1  0  0  0  0
 22 24  1  0  0  0  0
 24 25  1  0  0  0  0
 24 26  2  0  0  0  0
 26 27  1  0  0  0  0
 26 28  1  0  0  0  0
 29 30  2  0  0  0  0
 29 31  1  0  0  0  0
 31 32  1  0  0  0  0
 31 33  1  0  0  0  0
 33 34  1  0  0  0  0
 33 35  1  0  0  0  0
 33 36  1  0  0  0  0
M  END
$$$$

  -OEChem-03222214083D

 36 37  0     1  0  0  0  0  0999 V2000
   -3.2054   -4.6667    0.9185 H   0  0  0  0  0  0  0  0  0  0  0  0
   -3.2057   -3.8948    0.1434 C   0  0  0  0  0  0  0  0  0  0  0  0
   -4.1445   -3.3390    0.2018 H   0  0  0  0  0  0  0  0  0  0  0  0
   -3.1353   -4.3792   -0.8336 H   0  0  0  0  0  0  0  0  0  0  0  0
   -2.0315   -2.9551    0.3442 C   0  0  0  0  0  0  0  0  0  0  0  0
   -1.2742   -3.1256    1.2809 O   0  0  0  0  0  0  0  0  0  0  0  0
   -1.8330   -1.9099   -0.5361 N   0  0  0  0  0  0  0  0  0  0  0  0
   -2.4473   -1.8758   -1.3431 H   0  0  0  0  0  0  0  0  0  0  0  0
   -0.6576   -1.0129   -0.5120 C   0  0  1  0  0  0  0  0  0  0  0  0
    0.2379   -1.6339   -0.6317 H   0  0  0  0  0  0  0  0  0  0  0  0
   -0.7584   -0.0363   -1.7031 C   0  0  0  0  0  0  0  0  0  0  0  0
   -1.4948   -0.4057   -2.4233 H   0  0  0  0  0  0  0  0  0  0  0  0
   -1.1033    0.9492   -1.3734 H   0  0  0  0  0  0  0  0  0  0  0  0
    0.5582    0.0973   -2.4217 C   0  0  0  0  0  0  0  0  0  0  0  0
    0.9860   -0.6736   -3.4766 C   0  0  0  0  0  0  0  0  0  0  0  0
    0.4312   -1.4917   -3.9295 H   0  0  0  0  0  0  0  0  0  0  0  0
    2.2454   -0.2137   -3.8534 N   0  0  0  0  0  0  0  0  0  0  0  0
    2.8193   -0.6046   -4.5972 H   0  0  0  0  0  0  0  0  0  0  0  0
    2.6347    0.8413   -3.0438 C   0  0  0  0  0  0  0  0  0  0  0  0
    3.7950    1.6155   -3.0247 C   0  0  0  0  0  0  0  0  0  0  0  0
    4.5877    1.4320   -3.7412 H   0  0  0  0  0  0  0  0  0  0  0  0
    3.9247    2.6277   -2.0633 C   0  0  0  0  0  0  0  0  0  0  0  0
    4.8243    3.2351   -2.0316 H   0  0  0  0  0  0  0  0  0  0  0  0
    2.8973    2.8500   -1.1338 C   0  0  0  0  0  0  0  0  0  0  0  0
    3.0034    3.6248   -0.3807 H   0  0  0  0  0  0  0  0  0  0  0  0
    1.7352    2.0661   -1.1642 C   0  0  0  0  0  0  0  0  0  0  0  0
    0.9475    2.2247   -0.4346 H   0  0  0  0  0  0  0  0  0  0  0  0
    1.6099    1.0632   -2.1311 C   0  0  0  0  0  0  0  0  0  0  0  0
   -0.4795   -0.2262    0.8078 C   0  0  0  0  0  0  0  0  0  0  0  0
    0.6367    0.0160    1.2461 O   0  0  0  0  0  0  0  0  0  0  0  0
   -1.5729    0.3833    1.3991 N   0  0  0  0  0  0  0  0  0  0  0  0
   -2.4843    0.0693    1.0844 H   0  0  0  0  0  0  0  0  0  0  0  0
   -1.4808    1.1224    2.6519 C   0  0  0  0  0  0  0  0  0  0  0  0
   -0.7756    1.9548    2.5557 H   0  0  0  0  0  0  0  0  0  0  0  0
   -2.4591    1.5306    2.9231 H   0  0  0  0  0  0  0  0  0  0  0  0
   -1.1417    0.4648    3.4594 H   0  0  0  0  0  0  0  0  0  0  0  0
  1  2  1  0  0  0  0
  2  3  1  0  0  0  0
  2  4  1  0  0  0  0
  2  5  1  0  0  0  0
  5  6  2  0  0  0  0
  5  7  1  0  0  0  0
  7  8  1  0  0  0  0
  7  9  1  0  0  0  0
  9 10  1  0  0  0  0
  9 11  1  0  0  0  0
  9 29  1  0  0  0  0
 11 12  1  0  0  0  0
 11 13  1  0  0  0  0
 11 14  1  0  0  0  0
 14 15  2  0  0  0  0
 14 28  1  0  0  0  0
 15 16  1  0  0  0  0
 15 17  1  0  0  0  0
 17 18  1  0  0  0  0
 17 19  1  0  0  0  0
 19 20  1  0  0  0  0
 19 28  2  0  0  0  0
 20 21  1  0  0  0  0
 20 22  2  0  0  0  0
 22 23  1  0  0  0  0
 22 24  1  0  0  0  0
 24 25  1  0  0  0  0
 24 26  2  0  0  0  0
 26 27  1  0  0  0  0
 26 28  1  0  0  0  0
 29 30  2  0  0  0  0
 29 31  1  0  0  0  0
 31 32  1  0  0  0  0
 31 33  1  0  0  0  0
 33 34  1  0  0  0  0
 33 35  1  0  0  0  0
 33 36  1  0  0  0  0
M  END
$$$$

  -OEChem-03222214083D

 36 37  0     1  0  0  0  0  0999 V2000
   -3.3044   -4.6433    0.8479 H   0  0  0  0  0  0  0  0  0  0  0  0
   -3.2720   -3.8511    0.0943 C   0  0  0  0  0  0  0  0  0  0  0  0
   -4.1970   -3.2725    0.1528 H   0  0  0  0  0  0  0  0  0  0  0  0
   -3.1978   -4.3110   -0.8941 H   0  0  0  0  0  0  0  0  0  0  0  0
   -2.0775   -2.9481    0.3396 C   0  0  0  0  0  0  0  0  0  0  0  0
   -1.3524   -3.1527    1.2946 O   0  0  0  0  0  0  0  0  0  0  0  0
   -1.8273   -1.8976   -0.5212 N   0  0  0  0  0  0  0  0  0  0  0  0
   -2.4159   -1.8405   -1.3457 H   0  0  0  0  0  0  0  0  0  0  0  0
   -0.6302   -1.0313   -0.4554 C   0  0  1  0  0  0  0  0  0  0  0  0
    0.2571   -1.6669   -0.5600 H   0  0  0  0  0  0  0  0  0  0  0  0
   -0.6937   -0.0498   -1.6491 C   0  0  0  0  0  0  0  0  0  0  0  0
   -1.4330   -0.3964   -2.3776 H   0  0  0  0  0  0  0  0  0  0  0  0
   -1.0176    0.9409   -1.3130 H   0  0  0  0  0  0  0  0  0  0  0  0
    0.6315    0.0739   -2.3575 C   0  0  0  0  0  0  0  0  0  0  0  0
    0.9272   -0.4947   -3.5745 C   0  0  0  0  0  0  0  0  0  0  0  0
    0.2633   -1.1322   -4.1534 H   0  0  0  0  0  0  0  0  0  0  0  0
    2.2192   -0.1120   -3.9222 N   0  0  0  0  0  0  0  0  0  0  0  0
    2.7147   -0.3964   -4.7644 H   0  0  0  0  0  0  0  0  0  0  0  0
    2.7472    0.7247   -2.9539 C   0  0  0  0  0  0  0  0  0  0  0  0
    3.9821    1.3675   -2.8705 C   0  0  0  0  0  0  0  0  0  0  0  0
    4.7218    1.2346   -3.6516 H   0  0  0  0  0  0  0  0  0  0  0  0
    4.2517    2.1854   -1.7651 C   0  0  0  0  0  0  0  0  0  0  0  0
    5.2096    2.6896   -1.6820 H   0  0  0  0  0  0  0  0  0  0  0  0
    3.2837    2.3528   -0.7641 C   0  0  0  0  0  0  0  0  0  0  0  0
    3.4913    2.9835    0.0949 H   0  0  0  0  0  0  0  0  0  0  0  0
    2.0458    1.7018   -0.8611 C   0  0  0  0  0  0  0  0  0  0  0  0
    1.3020    1.8354   -0.0832 H   0  0  0  0  0  0  0  0  0  0  0  0
    1.7849    0.8764   -1.9605 C   0  0  0  0  0  0  0  0  0  0  0  0
   -0.4865   -0.2743    0.8862 C   0  0  0  0  0  0  0  0  0  0  0  0
    0.6085   -0.1180    1.4087 O   0  0  0  0  0  0  0  0  0  0  0  0
   -1.5895    0.3461    1.4477 N   0  0  0  0  0  0  0  0  0  0  0  0
   -2.4918    0.0755    1.0719 H   0  0  0  0  0  0  0  0  0  0  0  0
   -1.5436    1.0052    2.7469 C   0  0  0  0  0  0  0  0  0  0  0  0
   -0.7989    1.8081    2.7439 H   0  0  0  0  0  0  0  0  0  0  0  0
   -2.5183    1.4417    2.9841 H   0  0  0  0  0  0  0  0  0  0  0  0
   -1.2834    0.2862    3.5311 H   0  0  0  0  0  0  0  0  0  0  0  0
  1  2  1  0  0  0  0
  2  3  1  0  0  0  0
  2  4  1  0  0  0  0
  2  5  1  0  0  0  0
  5  6  2  0  0  0  0
  5  7  1  0  0  0  0
  7  8  1  0  0  0  0
  7  9  1  0  0  0  0
  9 10  1  0  0  0  0
  9 11  1  0  0  0  0
  9 29  1  0  0  0  0
 11 12  1  0  0  0  0
 11 13  1  0  0  0  0
 11 14  1  0  0  0  0
 14 15  2  0  0  0  0
 14 28  1  0  0  0  0
 15 16  1  0  0  0  0
 15 17  1  0  0  0  0
 17 18  1  0  0  0  0
 17 19  1  0  0  0  0
 19 20  1  0  0  0  0
 19 28  2  0  0  0  0
 20 21  1  0  0  0  0
 20 22  2  0  0  0  0
 22 23  1  0  0  0  0
 22 24  1  0  0  0  0
 24 25  1  0  0  0  0
 24 26  2  0  0  0  0
 26 27  1  0  0  0  0
 26 28  1  0  0  0  0
 29 30  2  0  0  0  0
 29 31  1  0  0  0  0
 31 32  1  0  0  0  0
 31 33  1  0  0  0  0
 33 34  1  0  0  0  0
 33 35  1  0  0  0  0
 33 36  1  0  0  0  0
M  END
$$$$

  -OEChem-03222214083D

 36 37  0     1  0  0  0  0  0999 V2000
   -3.4165   -4.6101    0.8003 H   0  0  0  0  0  0  0  0  0  0  0  0
   -3.3400   -3.8124    0.0560 C   0  0  0  0  0  0  0  0  0  0  0  0
   -4.2555   -3.2167    0.0846 H   0  0  0  0  0  0  0  0  0  0  0  0
   -3.2363   -4.2653   -0.9328 H   0  0  0  0  0  0  0  0  0  0  0  0
   -2.1389   -2.9352    0.3552 C   0  0  0  0  0  0  0  0  0  0  0  0
   -1.4664   -3.1542    1.3447 O   0  0  0  0  0  0  0  0  0  0  0  0
   -1.8252   -1.8946   -0.4976 N   0  0  0  0  0  0  0  0  0  0  0  0
   -2.3653   -1.8420   -1.3548 H   0  0  0  0  0  0  0  0  0  0  0  0
   -0.6056   -1.0625   -0.3908 C   0  0  1  0  0  0  0  0  0  0  0  0
    0.2739   -1.7120   -0.4697 H   0  0  0  0  0  0  0  0  0  0  0  0
   -0.6284   -0.0814   -1.5911 C   0  0  0  0  0  0  0  0  0  0  0  0
   -1.3764   -0.4026   -2.3228 H   0  0  0  0  0  0  0  0  0  0  0  0
   -0.9313    0.9131   -1.2477 H   0  0  0  0  0  0  0  0  0  0  0  0
    0.6992    0.0409   -2.3044 C   0  0  0  0  0  0  0  0  0  0  0  0
    0.8675   -0.2742   -3.6337 C   0  0  0  0  0  0  0  0  0  0  0  0
    0.1026   -0.6884   -4.2861 H   0  0  0  0  0  0  0  0  0  0  0  0
    2.1800    0.0173   -3.9868 N   0  0  0  0  0  0  0  0  0  0  0  0
    2.5934   -0.1269   -4.9056 H   0  0  0  0  0  0  0  0  0  0  0  0
    2.8479    0.5754   -2.9125 C   0  0  0  0  0  0  0  0  0  0  0  0
    4.1534    1.0544   -2.8053 C   0  0  0  0  0  0  0  0  0  0  0  0
    4.8312    0.9926   -3.6491 H   0  0  0  0  0  0  0  0  0  0  0  0
    4.5733    1.6221   -1.5961 C   0  0  0  0  0  0  0  0  0  0  0  0
    5.5865    1.9987   -1.4928 H   0  0  0  0  0  0  0  0  0  0  0  0
    3.6791    1.7143   -0.5205 C   0  0  0  0  0  0  0  0  0  0  0  0
    3.9971    2.1632    0.4157 H   0  0  0  0  0  0  0  0  0  0  0  0
    2.3696    1.2295   -0.6450 C   0  0  0  0  0  0  0  0  0  0  0  0
    1.6861    1.3309    0.1879 H   0  0  0  0  0  0  0  0  0  0  0  0
    1.9572    0.6342   -1.8430 C   0  0  0  0  0  0  0  0  0  0  0  0
   -0.5150   -0.3173    0.9633 C   0  0  0  0  0  0  0  0  0  0  0  0
    0.5337   -0.2654    1.5912 O   0  0  0  0  0  0  0  0  0  0  0  0
   -1.6314    0.3242    1.4725 N   0  0  0  0  0  0  0  0  0  0  0  0
   -2.5121    0.1112    1.0173 H   0  0  0  0  0  0  0  0  0  0  0  0
   -1.6607    0.9068    2.8080 C   0  0  0  0  0  0  0  0  0  0  0  0
   -0.8937    1.6824    2.9055 H   0  0  0  0  0  0  0  0  0  0  0  0
   -2.6366    1.3620    3.0008 H   0  0  0  0  0  0  0  0  0  0  0  0
   -1.4805    0.1356    3.5643 H   0  0  0  0  0  0  0  0  0  0  0  0
  1  2  1  0  0  0  0
  2  3  1  0  0  0  0
  2  4  1  0  0  0  0
  2  5  1  0  0  0  0
  5  6  2  0  0  0  0
  5  7  1  0  0  0  0
  7  8  1  0  0  0  0
  7  9  1  0  0  0  0
  9 10  1  0  0  0  0
  9 11  1  0  0  0  0
  9 29  1  0  0  0  0
 11 12  1  0  0  0  0
 11 13  1  0  0  0  0
 11 14  1  0  0  0  0
 14 15  2  0  0  0  0
 14 28  1  0  0  0  0
 15 16  1  0  0  0  0
 15 17  1  0  0  0  0
 17 18  1  0  0  0  0
 17 19  1  0  0  0  0
 19 20  1  0  0  0  0
 19 28  2  0  0  0  0
 20 21  1  0  0  0  0
 20 22  2  0  0  0  0
 22 23  1  0  0  0  0
 22 24  1  0  0  0  0
 24 25  1  0  0  0  0
 24 26  2  0  0  0  0
 26 27  1  0  0  0  0
 26 28  1  0  0  0  0
 29 30  2  0  0  0  0
 29 31  1  0  0  0  0
 31 32  1  0  0  0  0
 31 33  1  0  0  0  0
 33 34  1  0  0  0  0
 33 35  1  0  0  0  0
 33 36  1  0  0  0  0
M  END
$$$$

  -OEChem-03222214083D

 36 37  0     1  0  0  0  0  0999 V2000
   -3.4600   -4.5923    0.8018 H   0  0  0  0  0  0  0  0  0  0  0  0
   -3.3420   -3.8089    0.0474 C   0  0  0  0  0  0  0  0  0  0  0  0
   -4.2586   -3.2153    0.0111 H   0  0  0  0  0  0  0  0  0  0  0  0
   -3.1804   -4.2809   -0.9248 H   0  0  0  0  0  0  0  0  0  0  0  0
   -2.1613   -2.9225    0.3976 C   0  0  0  0  0  0  0  0  0  0  0  0
   -1.5431   -3.1240    1.4254 O   0  0  0  0  0  0  0  0  0  0  0  0
   -1.7998   -1.9023   -0.4614 N   0  0  0  0  0  0  0  0  0  0  0  0
   -2.2844   -1.8829   -1.3525 H   0  0  0  0  0  0  0  0  0  0  0  0
   -0.5814   -1.0722   -0.3177 C   0  0  1  0  0  0  0  0  0  0  0  0
    0.3078   -1.7115   -0.3544 H   0  0  0  0  0  0  0  0  0  0  0  0
   -0.5805   -0.0951   -1.5238 C   0  0  0  0  0  0  0  0  0  0  0  0
   -1.3288   -0.4114   -2.2575 H   0  0  0  0  0  0  0  0  0  0  0  0
   -0.8876    0.8964   -1.1753 H   0  0  0  0  0  0  0  0  0  0  0  0
    0.7412    0.0656   -2.2507 C   0  0  0  0  0  0  0  0  0  0  0  0
    0.7907    0.0489   -3.6274 C   0  0  0  0  0  0  0  0  0  0  0  0
   -0.0604   -0.1041   -4.2867 H   0  0  0  0  0  0  0  0  0  0  0  0
    2.1055    0.2489   -4.0248 N   0  0  0  0  0  0  0  0  0  0  0  0
    2.4379    0.2797   -4.9863 H   0  0  0  0  0  0  0  0  0  0  0  0
    2.9087    0.4371   -2.9177 C   0  0  0  0  0  0  0  0  0  0  0  0
    4.2776    0.6926   -2.8407 C   0  0  0  0  0  0  0  0  0  0  0  0
    4.8771    0.7489   -3.7422 H   0  0  0  0  0  0  0  0  0  0  0  0
    4.8643    0.8810   -1.5845 C   0  0  0  0  0  0  0  0  0  0  0  0
    5.9287    1.0803   -1.5026 H   0  0  0  0  0  0  0  0  0  0  0  0
    4.0714    0.8215   -0.4316 C   0  0  0  0  0  0  0  0  0  0  0  0
    4.5178    0.9771    0.5461 H   0  0  0  0  0  0  0  0  0  0  0  0
    2.6968    0.5642   -0.5294 C   0  0  0  0  0  0  0  0  0  0  0  0
    2.1091    0.5443    0.3747 H   0  0  0  0  0  0  0  0  0  0  0  0
    2.1050    0.3522   -1.7807 C   0  0  0  0  0  0  0  0  0  0  0  0
   -0.5826   -0.3093    1.0336 C   0  0  0  0  0  0  0  0  0  0  0  0
    0.4030   -0.2788    1.7565 O   0  0  0  0  0  0  0  0  0  0  0  0
   -1.7348    0.3311    1.4590 N   0  0  0  0  0  0  0  0  0  0  0  0
   -2.5768    0.1241    0.9335 H   0  0  0  0  0  0  0  0  0  0  0  0
   -1.8700    0.8998    2.7943 C   0  0  0  0  0  0  0  0  0  0  0  0
   -1.0996    1.6584    2.9689 H   0  0  0  0  0  0  0  0  0  0  0  0
   -2.8498    1.3732    2.9064 H   0  0  0  0  0  0  0  0  0  0  0  0
   -1.7722    0.1170    3.5540 H   0  0  0  0  0  0  0  0  0  0  0  0
  1  2  1  0  0  0  0
  2  3  1  0  0  0  0
  2  4  1  0  0  0  0
  2  5  1  0  0  0  0
  5  6  2  0  0  0  0
  5  7  1  0  0  0  0
  7  8  1  0  0  0  0
  7  9  1  0  0  0  0
  9 10  1  0  0  0  0
  9 11  1  0  0  0  0
  9 29  1  0  0  0  0
 11 12  1  0  0  0  0
 11 13  1  0  0  0  0
 11 14  1  0  0  0  0
 14 15  2  0  0  0  0
 14 28  1  0  0  0  0
 15 16  1  0  0  0  0
 15 17  1  0  0  0  0
 17 18  1  0  0  0  0
 17 19  1  0  0  0  0
 19 20  1  0  0  0  0
 19 28  2  0  0  0  0
 20 21  1  0  0  0  0
 20 22  2  0  0  0  0
 22 23  1  0  0  0  0
 22 24  1  0  0  0  0
 24 25  1  0  0  0  0
 24 26  2  0  0  0  0
 26 27  1  0  0  0  0
 26 28  1  0  0  0  0
 29 30  2  0  0  0  0
 29 31  1  0  0  0  0
 31 32  1  0  0  0  0
 31 33  1  0  0  0  0
 33 34  1  0  0  0  0
 33 35  1  0  0  0  0
 33 36  1  0  0  0  0
M  END
$$$$

  -OEChem-03222214083D

 36 37  0     1  0  0  0  0  0999 V2000
   -3.3843   -4.6381    0.8378 H   0  0  0  0  0  0  0  0  0  0  0  0
   -3.2793   -3.8648    0.0713 C   0  0  0  0  0  0  0  0  0  0  0  0
   -4.2141   -3.3031    0.0085 H   0  0  0  0  0  0  0  0  0  0  0  0
   -3.0854   -4.3481   -0.8894 H   0  0  0  0  0  0  0  0  0  0  0  0
   -2.1360   -2.9319    0.4245 C   0  0  0  0  0  0  0  0  0  0  0  0
   -1.5328   -3.0860    1.4696 O   0  0  0  0  0  0  0  0  0  0  0  0
   -1.7908   -1.9185   -0.4487 N   0  0  0  0  0  0  0  0  0  0  0  0
   -2.2481   -1.9419   -1.3542 H   0  0  0  0  0  0  0  0  0  0  0  0
   -0.5959   -1.0570   -0.3022 C   0  0  1  0  0  0  0  0  0  0  0  0
    0.3011   -1.6845   -0.3203 H   0  0  0  0  0  0  0  0  0  0  0  0
   -0.5853   -0.0738   -1.4988 C   0  0  0  0  0  0  0  0  0  0  0  0
   -1.3149   -0.4019   -2.2460 H   0  0  0  0  0  0  0  0  0  0  0  0
   -0.9187    0.9099   -1.1517 H   0  0  0  0  0  0  0  0  0  0  0  0
    0.7395    0.1244   -2.2120 C   0  0  0  0  0  0  0  0  0  0  0  0
    0.7569    0.4330   -3.5542 C   0  0  0  0  0  0  0  0  0  0  0  0
   -0.1221    0.5687   -4.1799 H   0  0  0  0  0  0  0  0  0  0  0  0
    2.0777    0.5494   -3.9640 N   0  0  0  0  0  0  0  0  0  0  0  0
    2.3900    0.7846   -4.9037 H   0  0  0  0  0  0  0  0  0  0  0  0
    2.9241    0.3083   -2.9001 C   0  0  0  0  0  0  0  0  0  0  0  0
    4.3181    0.3128   -2.8554 C   0  0  0  0  0  0  0  0  0  0  0  0
    4.8951    0.5363   -3.7456 H   0  0  0  0  0  0  0  0  0  0  0  0
    4.9605    0.0238   -1.6470 C   0  0  0  0  0  0  0  0  0  0  0  0
    6.0448    0.0237   -1.5908 H   0  0  0  0  0  0  0  0  0  0  0  0
    4.1994   -0.2676   -0.5086 C   0  0  0  0  0  0  0  0  0  0  0  0
    4.6915   -0.4955    0.4321 H   0  0  0  0  0  0  0  0  0  0  0  0
    2.7991   -0.2675   -0.5723 C   0  0  0  0  0  0  0  0  0  0  0  0
    2.2468   -0.5050    0.3244 H   0  0  0  0  0  0  0  0  0  0  0  0
    2.1444    0.0296   -1.7765 C   0  0  0  0  0  0  0  0  0  0  0  0
   -0.6268   -0.2671    1.0358 C   0  0  0  0  0  0  0  0  0  0  0  0
    0.3782   -0.0946    1.7102 O   0  0  0  0  0  0  0  0  0  0  0  0
   -1.7989    0.3535    1.4360 N   0  0  0  0  0  0  0  0  0  0  0  0
   -2.6403    0.0709    0.9459 H   0  0  0  0  0  0  0  0  0  0  0  0
   -1.9334    1.0250    2.7230 C   0  0  0  0  0  0  0  0  0  0  0  0
   -1.2021    1.8354    2.8119 H   0  0  0  0  0  0  0  0  0  0  0  0
   -2.9348    1.4539    2.8236 H   0  0  0  0  0  0  0  0  0  0  0  0
   -1.7744    0.3153    3.5419 H   0  0  0  0  0  0  0  0  0  0  0  0
  1  2  1  0  0  0  0
  2  3  1  0  0  0  0
  2  4  1  0  0  0  0
  2  5  1  0  0  0  0
  5  6  2  0  0  0  0
  5  7  1  0  0  0  0
  7  8  1  0  0  0  0
  7  9  1  0  0  0  0
  9 10  1  0  0  0  0
  9 11  1  0  0  0  0
  9 29  1  0  0  0  0
 11 12  1  0  0  0  0
 11 13  1  0  0  0  0
 11 14  1  0  0  0  0
 14 15  2  0  0  0  0
 14 28  1  0  0  0  0
 15 16  1  0  0  0  0
 15 17  1  0  0  0  0
 17 18  1  0  0  0  0
 17 19  1  0  0  0  0
 19 20  1  0  0  0  0
 19 28  2  0  0  0  0
 20 21  1  0  0  0  0
 20 22  2  0  0  0  0
 22 23  1  0  0  0  0
 22 24  1  0  0  0  0
 24 25  1  0  0  0  0
 24 26  2  0  0  0  0
 26 27  1  0  0  0  0
 26 28  1  0  0  0  0
 29 30  2  0  0  0  0
 29 31  1  0  0  0  0
 31 32  1  0  0  0  0
 31 33  1  0  0  0  0
 33 34  1  0  0  0  0
 33 35  1  0  0  0  0
 33 36  1  0  0  0  0
M  END
$$$$

  -OEChem-03222214083D

 36 37  0     1  0  0  0  0  0999 V2000
   -3.4719   -4.6485    0.8119 H   0  0  0  0  0  0  0  0  0  0  0  0
   -3.3725   -3.8704    0.0496 C   0  0  0  0  0  0  0  0  0  0  0  0
   -4.3037   -3.3008    0.0048 H   0  0  0  0  0  0  0  0  0  0  0  0
   -3.1962   -4.3477   -0.9173 H   0  0  0  0  0  0  0  0  0  0  0  0
   -2.2160   -2.9503    0.3925 C   0  0  0  0  0  0  0  0  0  0  0  0
   -1.5979   -3.1172    1.4273 O   0  0  0  0  0  0  0  0  0  0  0  0
   -1.8754   -1.9302   -0.4740 N   0  0  0  0  0  0  0  0  0  0  0  0
   -2.3483   -1.9349   -1.3719 H   0  0  0  0  0  0  0  0  0  0  0  0
   -0.6595   -1.0991   -0.3380 C   0  0  1  0  0  0  0  0  0  0  0  0
    0.1951   -1.7782   -0.3782 H   0  0  0  0  0  0  0  0  0  0  0  0
   -0.6055   -0.1220   -1.5348 C   0  0  0  0  0  0  0  0  0  0  0  0
   -1.3270   -0.4420   -2.2930 H   0  0  0  0  0  0  0  0  0  0  0  0
   -0.9247    0.8700   -1.1978 H   0  0  0  0  0  0  0  0  0  0  0  0
    0.7313    0.0356   -2.2348 C   0  0  0  0  0  0  0  0  0  0  0  0
    0.7868    0.6315   -3.4745 C   0  0  0  0  0  0  0  0  0  0  0  0
   -0.0689    1.0086   -4.0300 H   0  0  0  0  0  0  0  0  0  0  0  0
    2.1112    0.6652   -3.8878 N   0  0  0  0  0  0  0  0  0  0  0  0
    2.4506    1.0623   -4.7612 H   0  0  0  0  0  0  0  0  0  0  0  0
    2.9232    0.1155   -2.9154 C   0  0  0  0  0  0  0  0  0  0  0  0
    4.3091   -0.0395   -2.9038 C   0  0  0  0  0  0  0  0  0  0  0  0
    4.9049    0.2855   -3.7492 H   0  0  0  0  0  0  0  0  0  0  0  0
    4.9196   -0.6144   -1.7846 C   0  0  0  0  0  0  0  0  0  0  0  0
    5.9975   -0.7410   -1.7544 H   0  0  0  0  0  0  0  0  0  0  0  0
    4.1360   -1.0189   -0.6972 C   0  0  0  0  0  0  0  0  0  0  0  0
    4.6053   -1.4567    0.1788 H   0  0  0  0  0  0  0  0  0  0  0  0
    2.7440   -0.8559   -0.7252 C   0  0  0  0  0  0  0  0  0  0  0  0
    2.1791   -1.1692    0.1429 H   0  0  0  0  0  0  0  0  0  0  0  0
    2.1186   -0.2893   -1.8488 C   0  0  0  0  0  0  0  0  0  0  0  0
   -0.5952   -0.3151    0.9976 C   0  0  0  0  0  0  0  0  0  0  0  0
    0.4648   -0.1464    1.5845 O   0  0  0  0  0  0  0  0  0  0  0  0
   -1.7212    0.3476    1.4564 N   0  0  0  0  0  0  0  0  0  0  0  0
   -2.6004    0.0804    1.0272 H   0  0  0  0  0  0  0  0  0  0  0  0
   -1.7513    1.0616    2.7265 C   0  0  0  0  0  0  0  0  0  0  0  0
   -0.9985    1.8569    2.7378 H   0  0  0  0  0  0  0  0  0  0  0  0
   -2.7340    1.5165    2.8817 H   0  0  0  0  0  0  0  0  0  0  0  0
   -1.5506    0.3747    3.5555 H   0  0  0  0  0  0  0  0  0  0  0  0
  1  2  1  0  0  0  0
  2  3  1  0  0  0  0
  2  4  1  0  0  0  0
  2  5  1  0  0  0  0
  5  6  2  0  0  0  0
  5  7  1  0  0  0  0
  7  8  1  0  0  0  0
  7  9  1  0  0  0  0
  9 10  1  0  0  0  0
  9 11  1  0  0  0  0
  9 29  1  0  0  0  0
 11 12  1  0  0  0  0
 11 13  1  0  0  0  0
 11 14  1  0  0  0  0
 14 15  2  0  0  0  0
 14 28  1  0  0  0  0
 15 16  1  0  0  0  0
 15 17  1  0  0  0  0
 17 18  1  0  0  0  0
 17 19  1  0  0  0  0
 19 20  1  0  0  0  0
 19 28  2  0  0  0  0
 20 21  1  0  0  0  0
 20 22  2  0  0  0  0
 22 23  1  0  0  0  0
 22 24  1  0  0  0  0
 24 25  1  0  0  0  0
 24 26  2  0  0  0  0
 26 27  1  0  0  0  0
 26 28  1  0  0  0  0
 29 30  2  0  0  0  0
 29 31  1  0  0  0  0
 31 32  1  0  0  0  0
 31 33  1  0  0  0  0
 33 34  1  0  0  0  0
 33 35  1  0  0  0  0
 33 36  1  0  0  0  0
M  END
$$$$

  -OEChem-03222214083D

 36 37  0     1  0  0  0  0  0999 V2000
   -3.5742   -4.6402    0.8426 H   0  0  0  0  0  0  0  0  0  0  0  0
   -3.4736   -3.8643    0.0781 C   0  0  0  0  0  0  0  0  0  0  0  0
   -4.4044   -3.2940    0.0312 H   0  0  0  0  0  0  0  0  0  0  0  0
   -3.2977   -4.3447   -0.8873 H   0  0  0  0  0  0  0  0  0  0  0  0
   -2.3165   -2.9444    0.4201 C   0  0  0  0  0  0  0  0  0  0  0  0
   -1.7127   -3.0952    1.4660 O   0  0  0  0  0  0  0  0  0  0  0  0
   -1.9602   -1.9378   -0.4555 N   0  0  0  0  0  0  0  0  0  0  0  0
   -2.4098   -1.9639   -1.3654 H   0  0  0  0  0  0  0  0  0  0  0  0
   -0.7288   -1.1304   -0.3233 C   0  0  1  0  0  0  0  0  0  0  0  0
    0.0948   -1.8335   -0.3201 H   0  0  0  0  0  0  0  0  0  0  0  0
   -0.6152   -0.1859   -1.5410 C   0  0  0  0  0  0  0  0  0  0  0  0
   -1.4963   -0.3158   -2.1770 H   0  0  0  0  0  0  0  0  0  0  0  0
   -0.6446    0.8497   -1.1842 H   0  0  0  0  0  0  0  0  0  0  0  0
    0.6068   -0.3146   -2.4366 C   0  0  0  0  0  0  0  0  0  0  0  0
    0.7004    0.5279   -3.5213 C   0  0  0  0  0  0  0  0  0  0  0  0
   -0.0379    1.2768   -3.7994 H   0  0  0  0  0  0  0  0  0  0  0  0
    1.8772    0.2501   -4.1983 N   0  0  0  0  0  0  0  0  0  0  0  0
    2.2091    0.7288   -5.0329 H   0  0  0  0  0  0  0  0  0  0  0  0
    2.5750   -0.7401   -3.5381 C   0  0  0  0  0  0  0  0  0  0  0  0
    3.8115   -1.2947   -3.8655 C   0  0  0  0  0  0  0  0  0  0  0  0
    4.3427   -0.9670   -4.7521 H   0  0  0  0  0  0  0  0  0  0  0  0
    4.3612   -2.2702   -3.0299 C   0  0  0  0  0  0  0  0  0  0  0  0
    5.3244   -2.7128   -3.2656 H   0  0  0  0  0  0  0  0  0  0  0  0
    3.6717   -2.6615   -1.8774 C   0  0  0  0  0  0  0  0  0  0  0  0
    4.1047   -3.4039   -1.2137 H   0  0  0  0  0  0  0  0  0  0  0  0
    2.4290   -2.0933   -1.5626 C   0  0  0  0  0  0  0  0  0  0  0  0
    1.9647   -2.4190   -0.6421 H   0  0  0  0  0  0  0  0  0  0  0  0
    1.8474   -1.1274   -2.4087 C   0  0  0  0  0  0  0  0  0  0  0  0
   -0.6133   -0.3268    0.9916 C   0  0  0  0  0  0  0  0  0  0  0  0
    0.4831   -0.1400    1.5021 O   0  0  0  0  0  0  0  0  0  0  0  0
   -1.7052    0.3802    1.4642 N   0  0  0  0  0  0  0  0  0  0  0  0
   -2.6073    0.1010    1.0938 H   0  0  0  0  0  0  0  0  0  0  0  0
   -1.6657    1.1518    2.6998 C   0  0  0  0  0  0  0  0  0  0  0  0
   -0.8907    1.9236    2.6457 H   0  0  0  0  0  0  0  0  0  0  0  0
   -2.6280    1.6435    2.8702 H   0  0  0  0  0  0  0  0  0  0  0  0
   -1.4527    0.4979    3.5518 H   0  0  0  0  0  0  0  0  0  0  0  0
  1  2  1  0  0  0  0
  2  3  1  0  0  0  0
  2  4  1  0  0  0  0
  2  5  1  0  0  0  0
  5  6  2  0  0  0  0
  5  7  1  0  0  0  0
  7  8  1  0  0  0  0
  7  9  1  0  0  0  0
  9 10  1  0  0  0  0
  9 11  1  0  0  0  0
  9 29  1  0  0  0  0
 11 12  1  0  0  0  0
 11 13  1  0  0  0  0
 11 14  1  0  0  0  0
 14 15  2  0  0  0  0
 14 28  1  0  0  0  0
 15 16  1  0  0  0  0
 15 17  1  0  0  0  0
 17 18  1  0  0  0  0
 17 19  1  0  0  0  0
 19 20  1  0  0  0  0
 19 28  2  0  0  0  0
 20 21  1  0  0  0  0
 20 22  2  0  0  0  0
 22 23  1  0  0  0  0
 22 24  1  0  0  0  0
 24 25  1  0  0  0  0
 24 26  2  0  0  0  0
 26 27  1  0  0  0  0
 26 28  1  0  0  0  0
 29 30  2  0  0  0  0
 29 31  1  0  0  0  0
 31 32  1  0  0  0  0
 31 33  1  0  0  0  0
 33 34  1  0  0  0  0
 33 35  1  0  0  0  0
 33 36  1  0  0  0  0
M  END
$$$$

  -OEChem-03222214083D

 36 37  0     1  0  0  0  0  0999 V2000
   -3.2920   -4.6822    0.9542 H   0  0  0  0  0  0  0  0  0  0  0  0
   -3.1988   -3.9395    0.1565 C   0  0  0  0  0  0  0  0  0  0  0  0
   -4.1531   -3.4184    0.0484 H   0  0  0  0  0  0  0  0  0  0  0  0
   -2.9644   -4.4560   -0.7774 H   0  0  0  0  0  0  0  0  0  0  0  0
   -2.1001   -2.9490    0.4936 C   0  0  0  0  0  0  0  0  0  0  0  0
   -1.5088   -3.0387    1.5534 O   0  0  0  0  0  0  0  0  0  0  0  0
   -1.7777   -1.9525   -0.4060 N   0  0  0  0  0  0  0  0  0  0  0  0
   -2.2078   -2.0258   -1.3230 H   0  0  0  0  0  0  0  0  0  0  0  0
   -0.6105   -1.0557   -0.2665 C   0  0  1  0  0  0  0  0  0  0  0  0
    0.2974   -1.6510   -0.1941 H   0  0  0  0  0  0  0  0  0  0  0  0
   -0.5467   -0.1094   -1.4878 C   0  0  0  0  0  0  0  0  0  0  0  0
   -1.3957   -0.3157   -2.1467 H   0  0  0  0  0  0  0  0  0  0  0  0
   -0.6587    0.9286   -1.1547 H   0  0  0  0  0  0  0  0  0  0  0  0
    0.7080   -0.1964   -2.3342 C   0  0  0  0  0  0  0  0  0  0  0  0
    0.9979    0.8023   -3.2349 C   0  0  0  0  0  0  0  0  0  0  0  0
    0.4395    1.7296   -3.3441 H   0  0  0  0  0  0  0  0  0  0  0  0
    2.1248    0.4320   -3.9550 N   0  0  0  0  0  0  0  0  0  0  0  0
    2.5863    0.9974   -4.6644 H   0  0  0  0  0  0  0  0  0  0  0  0
    2.5256   -0.8365   -3.5847 C   0  0  0  0  0  0  0  0  0  0  0  0
    3.5752   -1.6109   -4.0776 C   0  0  0  0  0  0  0  0  0  0  0  0
    4.2369   -1.2157   -4.8404 H   0  0  0  0  0  0  0  0  0  0  0  0
    3.7564   -2.9054   -3.5812 C   0  0  0  0  0  0  0  0  0  0  0  0
    4.5698   -3.5221   -3.9514 H   0  0  0  0  0  0  0  0  0  0  0  0
    2.8778   -3.4082   -2.6140 C   0  0  0  0  0  0  0  0  0  0  0  0
    3.0090   -4.4183   -2.2376 H   0  0  0  0  0  0  0  0  0  0  0  0
    1.8275   -2.6164   -2.1279 C   0  0  0  0  0  0  0  0  0  0  0  0
    1.1601   -3.0553   -1.3974 H   0  0  0  0  0  0  0  0  0  0  0  0
    1.6567   -1.3000   -2.5952 C   0  0  0  0  0  0  0  0  0  0  0  0
   -0.6297   -0.2102    1.0289 C   0  0  0  0  0  0  0  0  0  0  0  0
    0.4196    0.0957    1.5797 O   0  0  0  0  0  0  0  0  0  0  0  0
   -1.7986    0.4177    1.4239 N   0  0  0  0  0  0  0  0  0  0  0  0
   -2.6549    0.0539    1.0197 H   0  0  0  0  0  0  0  0  0  0  0  0
   -1.8861    1.2245    2.6343 C   0  0  0  0  0  0  0  0  0  0  0  0
   -1.1898    2.0683    2.5845 H   0  0  0  0  0  0  0  0  0  0  0  0
   -2.8989    1.6211    2.7514 H   0  0  0  0  0  0  0  0  0  0  0  0
   -1.6449    0.6196    3.5148 H   0  0  0  0  0  0  0  0  0  0  0  0
  1  2  1  0  0  0  0
  2  3  1  0  0  0  0
  2  4  1  0  0  0  0
  2  5  1  0  0  0  0
  5  6  2  0  0  0  0
  5  7  1  0  0  0  0
  7  8  1  0  0  0  0
  7  9  1  0  0  0  0
  9 10  1  0  0  0  0
  9 11  1  0  0  0  0
  9 29  1  0  0  0  0
 11 12  1  0  0  0  0
 11 13  1  0  0  0  0
 11 14  1  0  0  0  0
 14 15  2  0  0  0  0
 14 28  1  0  0  0  0
 15 16  1  0  0  0  0
 15 17  1  0  0  0  0
 17 18  1  0  0  0  0
 17 19  1  0  0  0  0
 19 20  1  0  0  0  0
 19 28  2  0  0  0  0
 20 21  1  0  0  0  0
 20 22  2  0  0  0  0
 22 23  1  0  0  0  0
 22 24  1  0  0  0  0
 24 25  1  0  0  0  0
 24 26  2  0  0  0  0
 26 27  1  0  0  0  0
 26 28  1  0  0  0  0
 29 30  2  0  0  0  0
 29 31  1  0  0  0  0
 31 32  1  0  0  0  0
 31 33  1  0  0  0  0
 33 34  1  0  0  0  0
 33 35  1  0  0  0  0
 33 36  1  0  0  0  0
M  END
$$$$

  -OEChem-03222214083D

 36 37  0     1  0  0  0  0  0999 V2000
   -3.2056   -4.7275    0.9052 H   0  0  0  0  0  0  0  0  0  0  0  0
   -3.1453   -3.9640    0.1241 C   0  0  0  0  0  0  0  0  0  0  0  0
   -4.1054   -3.4459    0.0639 H   0  0  0  0  0  0  0  0  0  0  0  0
   -2.9415   -4.4546   -0.8308 H   0  0  0  0  0  0  0  0  0  0  0  0
   -2.0411   -2.9749    0.4458 C   0  0  0  0  0  0  0  0  0  0  0  0
   -1.4138   -3.0829    1.4828 O   0  0  0  0  0  0  0  0  0  0  0  0
   -1.7558   -1.9585   -0.4436 N   0  0  0  0  0  0  0  0  0  0  0  0
   -2.2292   -2.0034   -1.3408 H   0  0  0  0  0  0  0  0  0  0  0  0
   -0.5975   -1.0479   -0.3231 C   0  0  1  0  0  0  0  0  0  0  0  0
    0.3205   -1.6404   -0.2961 H   0  0  0  0  0  0  0  0  0  0  0  0
   -0.5801   -0.0889   -1.5363 C   0  0  0  0  0  0  0  0  0  0  0  0
   -1.4324   -0.3066   -2.1870 H   0  0  0  0  0  0  0  0  0  0  0  0
   -0.6984    0.9471   -1.2001 H   0  0  0  0  0  0  0  0  0  0  0  0
    0.6706   -0.1880   -2.3798 C   0  0  0  0  0  0  0  0  0  0  0  0
    1.1828    0.8815   -3.0755 C   0  0  0  0  0  0  0  0  0  0  0  0
    0.8100    1.9022   -3.0237 H   0  0  0  0  0  0  0  0  0  0  0  0
    2.2526    0.4288   -3.8392 N   0  0  0  0  0  0  0  0  0  0  0  0
    2.8437    1.0100   -4.4297 H   0  0  0  0  0  0  0  0  0  0  0  0
    2.3998   -0.9382   -3.6919 C   0  0  0  0  0  0  0  0  0  0  0  0
    3.3034   -1.8206   -4.2831 C   0  0  0  0  0  0  0  0  0  0  0  0
    4.0613   -1.4520   -4.9655 H   0  0  0  0  0  0  0  0  0  0  0  0
    3.2156   -3.1864   -3.9876 C   0  0  0  0  0  0  0  0  0  0  0  0
    3.9141   -3.8861   -4.4372 H   0  0  0  0  0  0  0  0  0  0  0  0
    2.2218   -3.6502   -3.1148 C   0  0  0  0  0  0  0  0  0  0  0  0
    2.1519   -4.7100   -2.8892 H   0  0  0  0  0  0  0  0  0  0  0  0
    1.3194   -2.7516   -2.5281 C   0  0  0  0  0  0  0  0  0  0  0  0
    0.5533   -3.1318   -1.8626 H   0  0  0  0  0  0  0  0  0  0  0  0
    1.4199   -1.3792   -2.8053 C   0  0  0  0  0  0  0  0  0  0  0  0
   -0.5850   -0.2218    0.9841 C   0  0  0  0  0  0  0  0  0  0  0  0
    0.4772    0.0969    1.5015 O   0  0  0  0  0  0  0  0  0  0  0  0
   -1.7489    0.3850    1.4241 N   0  0  0  0  0  0  0  0  0  0  0  0
   -2.6125    0.0144    1.0424 H   0  0  0  0  0  0  0  0  0  0  0  0
   -1.8087    1.1747    2.6475 C   0  0  0  0  0  0  0  0  0  0  0  0
   -1.1265    2.0292    2.5867 H   0  0  0  0  0  0  0  0  0  0  0  0
   -2.8229    1.5549    2.8029 H   0  0  0  0  0  0  0  0  0  0  0  0
   -1.5303    0.5619    3.5115 H   0  0  0  0  0  0  0  0  0  0  0  0
  1  2  1  0  0  0  0
  2  3  1  0  0  0  0
  2  4  1  0  0  0  0
  2  5  1  0  0  0  0
  5  6  2  0  0  0  0
  5  7  1  0  0  0  0
  7  8  1  0  0  0  0
  7  9  1  0  0  0  0
  9 10  1  0  0  0  0
  9 11  1  0  0  0  0
  9 29  1  0  0  0  0
 11 12  1  0  0  0  0
 11 13  1  0  0  0  0
 11 14  1  0  0  0  0
 14 15  2  0  0  0  0
 14 28  1  0  0  0  0
 15 16  1  0  0  0  0
 15 17  1  0  0  0  0
 17 18  1  0  0  0  0
 17 19  1  0  0  0  0
 19 20  1  0  0  0  0
 19 28  2  0  0  0  0
 20 21  1  0  0  0  0
 20 22  2  0  0  0  0
 22 23  1  0  0  0  0
 22 24  1  0  0  0  0
 24 25  1  0  0  0  0
 24 26  2  0  0  0  0
 26 27  1  0  0  0  0
 26 28  1  0  0  0  0
 29 30  2  0  0  0  0
 29 31  1  0  0  0  0
 31 32  1  0  0  0  0
 31 33  1  0  0  0  0
 33 34  1  0  0  0  0
 33 35  1  0  0  0  0
 33 36  1  0  0  0  0
M  END
$$$$

  -OEChem-03222214083D

 36 37  0     1  0  0  0  0  0999 V2000
   -3.1686   -4.7764    0.8199 H   0  0  0  0  0  0  0  0  0  0  0  0
   -3.1552   -3.9787    0.0717 C   0  0  0  0  0  0  0  0  0  0  0  0
   -4.1204   -3.4668    0.0857 H   0  0  0  0  0  0  0  0  0  0  0  0
   -2.9999   -4.4252   -0.9134 H   0  0  0  0  0  0  0  0  0  0  0  0
   -2.0411   -2.9959    0.3783 C   0  0  0  0  0  0  0  0  0  0  0  0
   -1.3829   -3.1236    1.3936 O   0  0  0  0  0  0  0  0  0  0  0  0
   -1.7861   -1.9585   -0.4958 N   0  0  0  0  0  0  0  0  0  0  0  0
   -2.2978   -1.9737   -1.3727 H   0  0  0  0  0  0  0  0  0  0  0  0
   -0.6217   -1.0536   -0.3933 C   0  0  1  0  0  0  0  0  0  0  0  0
    0.2895   -1.6609   -0.4240 H   0  0  0  0  0  0  0  0  0  0  0  0
   -0.6359   -0.0714   -1.5871 C   0  0  0  0  0  0  0  0  0  0  0  0
   -1.5044   -0.2677   -2.2229 H   0  0  0  0  0  0  0  0  0  0  0  0
   -0.7325    0.9596   -1.2299 H   0  0  0  0  0  0  0  0  0  0  0  0
    0.6014   -0.1841   -2.4430 C   0  0  0  0  0  0  0  0  0  0  0  0
    1.3223    0.8883   -2.9107 C   0  0  0  0  0  0  0  0  0  0  0  0
    1.1249    1.9317   -2.6750 H   0  0  0  0  0  0  0  0  0  0  0  0
    2.3411    0.3968   -3.7218 N   0  0  0  0  0  0  0  0  0  0  0  0
    3.0546    0.9611   -4.1783 H   0  0  0  0  0  0  0  0  0  0  0  0
    2.2655   -0.9829   -3.8055 C   0  0  0  0  0  0  0  0  0  0  0  0
    3.0493   -1.9049   -4.4989 C   0  0  0  0  0  0  0  0  0  0  0  0
    3.8903   -1.5680   -5.0947 H   0  0  0  0  0  0  0  0  0  0  0  0
    2.7358   -3.2680   -4.4140 C   0  0  0  0  0  0  0  0  0  0  0  0
    3.3401   -3.9974   -4.9451 H   0  0  0  0  0  0  0  0  0  0  0  0
    1.6434   -3.6900   -3.6424 C   0  0  0  0  0  0  0  0  0  0  0  0
    1.4039   -4.7470   -3.5767 H   0  0  0  0  0  0  0  0  0  0  0  0
    0.8637   -2.7528   -2.9498 C   0  0  0  0  0  0  0  0  0  0  0  0
    0.0241   -3.0856   -2.3510 H   0  0  0  0  0  0  0  0  0  0  0  0
    1.1850   -1.3915   -3.0298 C   0  0  0  0  0  0  0  0  0  0  0  0
   -0.5497   -0.2555    0.9287 C   0  0  0  0  0  0  0  0  0  0  0  0
    0.5357    0.0598    1.3987 O   0  0  0  0  0  0  0  0  0  0  0  0
   -1.6915    0.3477    1.4272 N   0  0  0  0  0  0  0  0  0  0  0  0
   -2.5721   -0.0196    1.0824 H   0  0  0  0  0  0  0  0  0  0  0  0
   -1.6943    1.1293    2.6571 C   0  0  0  0  0  0  0  0  0  0  0  0
   -1.0092    1.9795    2.5735 H   0  0  0  0  0  0  0  0  0  0  0  0
   -2.6980    1.5155    2.8573 H   0  0  0  0  0  0  0  0  0  0  0  0
   -1.3842    0.5086    3.5043 H   0  0  0  0  0  0  0  0  0  0  0  0
  1  2  1  0  0  0  0
  2  3  1  0  0  0  0
  2  4  1  0  0  0  0
  2  5  1  0  0  0  0
  5  6  2  0  0  0  0
  5  7  1  0  0  0  0
  7  8  1  0  0  0  0
  7  9  1  0  0  0  0
  9 10  1  0  0  0  0
  9 11  1  0  0  0  0
  9 29  1  0  0  0  0
 11 12  1  0  0  0  0
 11 13  1  0  0  0  0
 11 14  1  0  0  0  0
 14 15  2  0  0  0  0
 14 28  1  0  0  0  0
 15 16  1  0  0  0  0
 15 17  1  0  0  0  0
 17 18  1  0  0  0  0
 17 19  1  0  0  0  0
 19 20  1  0  0  0  0
 19 28  2  0  0  0  0
 20 21  1  0  0  0  0
 20 22  2  0  0  0  0
 22 23  1  0  0  0  0
 22 24  1  0  0  0  0
 24 25  1  0  0  0  0
 24 26  2  0  0  0  0
 26 27  1  0  0  0  0
 26 28  1  0  0  0  0
 29 30  2  0  0  0  0
 29 31  1  0  0  0  0
 31 32  1  0  0  0  0
 31 33  1  0  0  0  0
 33 34  1  0  0  0  0
 33 35  1  0  0  0  0
 33 36  1  0  0  0  0
M  END
$$$$

  -OEChem-03222214083D

 36 37  0     1  0  0  0  0  0999 V2000
   -3.1783   -4.7748    0.7753 H   0  0  0  0  0  0  0  0  0  0  0  0
   -3.1695   -3.9760    0.0281 C   0  0  0  0  0  0  0  0  0  0  0  0
   -4.1309   -3.4579    0.0565 H   0  0  0  0  0  0  0  0  0  0  0  0
   -3.0313   -4.4221   -0.9597 H   0  0  0  0  0  0  0  0  0  0  0  0
   -2.0450   -3.0009    0.3220 C   0  0  0  0  0  0  0  0  0  0  0  0
   -1.3649   -3.1442    1.3209 O   0  0  0  0  0  0  0  0  0  0  0  0
   -1.8113   -1.9466   -0.5381 N   0  0  0  0  0  0  0  0  0  0  0  0
   -2.3537   -1.9359   -1.3961 H   0  0  0  0  0  0  0  0  0  0  0  0
   -0.6443   -1.0440   -0.4466 C   0  0  1  0  0  0  0  0  0  0  0  0
    0.2610   -1.6582   -0.5148 H   0  0  0  0  0  0  0  0  0  0  0  0
   -0.6764   -0.0473   -1.6263 C   0  0  0  0  0  0  0  0  0  0  0  0
   -1.5543   -0.2251   -2.2545 H   0  0  0  0  0  0  0  0  0  0  0  0
   -0.7553    0.9796   -1.2537 H   0  0  0  0  0  0  0  0  0  0  0  0
    0.5542   -0.1700   -2.4863 C   0  0  0  0  0  0  0  0  0  0  0  0
    1.4611    0.8337   -2.7257 C   0  0  0  0  0  0  0  0  0  0  0  0
    1.4243    1.8335   -2.2980 H   0  0  0  0  0  0  0  0  0  0  0  0
    2.4255    0.3333   -3.5970 N   0  0  0  0  0  0  0  0  0  0  0  0
    3.2407    0.8453   -3.9277 H   0  0  0  0  0  0  0  0  0  0  0  0
    2.1440   -0.9827   -3.9242 C   0  0  0  0  0  0  0  0  0  0  0  0
    2.8075   -1.8943   -4.7453 C   0  0  0  0  0  0  0  0  0  0  0  0
    3.7171   -1.6049   -5.2599 H   0  0  0  0  0  0  0  0  0  0  0  0
    2.2851   -3.1866   -4.8929 C   0  0  0  0  0  0  0  0  0  0  0  0
    2.7929   -3.9069   -5.5276 H   0  0  0  0  0  0  0  0  0  0  0  0
    1.1094   -3.5507   -4.2192 C   0  0  0  0  0  0  0  0  0  0  0  0
    0.7112   -4.5544   -4.3322 H   0  0  0  0  0  0  0  0  0  0  0  0
    0.4515   -2.6253   -3.3962 C   0  0  0  0  0  0  0  0  0  0  0  0
   -0.4524   -2.9077   -2.8693 H   0  0  0  0  0  0  0  0  0  0  0  0
    0.9787   -1.3371   -3.2532 C   0  0  0  0  0  0  0  0  0  0  0  0
   -0.5340   -0.2692    0.8860 C   0  0  0  0  0  0  0  0  0  0  0  0
    0.5652    0.0441    1.3246 O   0  0  0  0  0  0  0  0  0  0  0  0
   -1.6605    0.3269    1.4261 N   0  0  0  0  0  0  0  0  0  0  0  0
   -2.5507   -0.0372    1.1032 H   0  0  0  0  0  0  0  0  0  0  0  0
   -1.6272    1.0843    2.6707 C   0  0  0  0  0  0  0  0  0  0  0  0
   -0.9420    1.9341    2.5850 H   0  0  0  0  0  0  0  0  0  0  0  0
   -2.6239    1.4692    2.9057 H   0  0  0  0  0  0  0  0  0  0  0  0
   -1.2958    0.4465    3.4970 H   0  0  0  0  0  0  0  0  0  0  0  0
  1  2  1  0  0  0  0
  2  3  1  0  0  0  0
  2  4  1  0  0  0  0
  2  5  1  0  0  0  0
  5  6  2  0  0  0  0
  5  7  1  0  0  0  0
  7  8  1  0  0  0  0
  7  9  1  0  0  0  0
  9 10  1  0  0  0  0
  9 11  1  0  0  0  0
  9 29  1  0  0  0  0
 11 12  1  0  0  0  0
 11 13  1  0  0  0  0
 11 14  1  0  0  0  0
 14 15  2  0  0  0  0
 14 28  1  0  0  0  0
 15 16  1  0  0  0  0
 15 17  1  0  0  0  0
 17 18  1  0  0  0  0
 17 19  1  0  0  0  0
 19 20  1  0  0  0  0
 19 28  2  0  0  0  0
 20 21  1  0  0  0  0
 20 22  2  0  0  0  0
 22 23  1  0  0  0  0
 22 24  1  0  0  0  0
 24 25  1  0  0  0  0
 24 26  2  0  0  0  0
 26 27  1  0  0  0  0
 26 28  1  0  0  0  0
 29 30  2  0  0  0  0
 29 31  1  0  0  0  0
 31 32  1  0  0  0  0
 31 33  1  0  0  0  0
 33 34  1  0  0  0  0
 33 35  1  0  0  0  0
 33 36  1  0  0  0  0
M  END
$$$$

  -OEChem-03222214083D

 36 37  0     1  0  0  0  0  0999 V2000
   -3.1808   -4.7803    0.7457 H   0  0  0  0  0  0  0  0  0  0  0  0
   -3.1764   -3.9806   -0.0006 C   0  0  0  0  0  0  0  0  0  0  0  0
   -4.1421   -3.4706    0.0245 H   0  0  0  0  0  0  0  0  0  0  0  0
   -3.0303   -4.4244   -0.9883 H   0  0  0  0  0  0  0  0  0  0  0  0
   -2.0615   -2.9959    0.2979 C   0  0  0  0  0  0  0  0  0  0  0  0
   -1.3831   -3.1345    1.2987 O   0  0  0  0  0  0  0  0  0  0  0  0
   -1.8384   -1.9351   -0.5569 N   0  0  0  0  0  0  0  0  0  0  0  0
   -2.3748   -1.9334   -1.4183 H   0  0  0  0  0  0  0  0  0  0  0  0
   -0.6670   -1.0381   -0.4725 C   0  0  1  0  0  0  0  0  0  0  0  0
    0.2321   -1.6598   -0.5603 H   0  0  0  0  0  0  0  0  0  0  0  0
   -0.7046   -0.0303   -1.6413 C   0  0  0  0  0  0  0  0  0  0  0  0
   -1.5915   -0.1836   -2.2633 H   0  0  0  0  0  0  0  0  0  0  0  0
   -0.7596    0.9940   -1.2569 H   0  0  0  0  0  0  0  0  0  0  0  0
    0.5232   -0.1682   -2.5000 C   0  0  0  0  0  0  0  0  0  0  0  0
    1.5889    0.6981   -2.5163 C   0  0  0  0  0  0  0  0  0  0  0  0
    1.6911    1.5851   -1.8939 H   0  0  0  0  0  0  0  0  0  0  0  0
    2.5040    0.2207   -3.4518 N   0  0  0  0  0  0  0  0  0  0  0  0
    3.4062    0.6441   -3.6583 H   0  0  0  0  0  0  0  0  0  0  0  0
    2.0363   -0.9465   -4.0338 C   0  0  0  0  0  0  0  0  0  0  0  0
    2.5876   -1.7857   -5.0018 C   0  0  0  0  0  0  0  0  0  0  0  0
    3.5555   -1.5579   -5.4342 H   0  0  0  0  0  0  0  0  0  0  0  0
    1.8759   -2.9245   -5.4039 C   0  0  0  0  0  0  0  0  0  0  0  0
    2.2945   -3.5866   -6.1560 H   0  0  0  0  0  0  0  0  0  0  0  0
    0.6258   -3.2106   -4.8338 C   0  0  0  0  0  0  0  0  0  0  0  0
    0.0805   -4.0959   -5.1460 H   0  0  0  0  0  0  0  0  0  0  0  0
    0.0819   -2.3596   -3.8606 C   0  0  0  0  0  0  0  0  0  0  0  0
   -0.8811   -2.5798   -3.4151 H   0  0  0  0  0  0  0  0  0  0  0  0
    0.7977   -1.2246   -3.4663 C   0  0  0  0  0  0  0  0  0  0  0  0
   -0.5297   -0.2737    0.8635 C   0  0  0  0  0  0  0  0  0  0  0  0
    0.5793    0.0444    1.2741 O   0  0  0  0  0  0  0  0  0  0  0  0
   -1.6435    0.3244    1.4267 N   0  0  0  0  0  0  0  0  0  0  0  0
   -2.5404   -0.0408    1.1237 H   0  0  0  0  0  0  0  0  0  0  0  0
   -1.5848    1.0842    2.6690 C   0  0  0  0  0  0  0  0  0  0  0  0
   -0.9013    1.9337    2.5681 H   0  0  0  0  0  0  0  0  0  0  0  0
   -2.5766    1.4700    2.9230 H   0  0  0  0  0  0  0  0  0  0  0  0
   -1.2376    0.4478    3.4898 H   0  0  0  0  0  0  0  0  0  0  0  0
  1  2  1  0  0  0  0
  2  3  1  0  0  0  0
  2  4  1  0  0  0  0
  2  5  1  0  0  0  0
  5  6  2  0  0  0  0
  5  7  1  0  0  0  0
  7  8  1  0  0  0  0
  7  9  1  0  0  0  0
  9 10  1  0  0  0  0
  9 11  1  0  0  0  0
  9 29  1  0  0  0  0
 11 12  1  0  0  0  0
 11 13  1  0  0  0  0
 11 14  1  0  0  0  0
 14 15  2  0  0  0  0
 14 28  1  0  0  0  0
 15 16  1  0  0  0  0
 15 17  1  0  0  0  0
 17 18  1  0  0  0  0
 17 19  1  0  0  0  0
 19 20  1  0  0  0  0
 19 28  2  0  0  0  0
 20 21  1  0  0  0  0
 20 22  2  0  0  0  0
 22 23  1  0  0  0  0
 22 24  1  0  0  0  0
 24 25  1  0  0  0  0
 24 26  2  0  0  0  0
 26 27  1  0  0  0  0
 26 28  1  0  0  0  0
 29 30  2  0  0  0  0
 29 31  1  0  0  0  0
 31 32  1  0  0  0  0
 31 33  1  0  0  0  0
 33 34  1  0  0  0  0
 33 35  1  0  0  0  0
 33 36  1  0  0  0  0
M  END
$$$$

  -OEChem-03222214083D

 36 37  0     1  0  0  0  0  0999 V2000
   -3.1898   -4.7823    0.7550 H   0  0  0  0  0  0  0  0  0  0  0  0
   -3.1928   -3.9842    0.0070 C   0  0  0  0  0  0  0  0  0  0  0  0
   -4.1651   -3.4864    0.0281 H   0  0  0  0  0  0  0  0  0  0  0  0
   -3.0378   -4.4281   -0.9793 H   0  0  0  0  0  0  0  0  0  0  0  0
   -2.0908   -2.9857    0.3061 C   0  0  0  0  0  0  0  0  0  0  0  0
   -1.4171   -3.1112    1.3121 O   0  0  0  0  0  0  0  0  0  0  0  0
   -1.8748   -1.9271   -0.5537 N   0  0  0  0  0  0  0  0  0  0  0  0
   -2.3887   -1.9539   -1.4283 H   0  0  0  0  0  0  0  0  0  0  0  0
   -0.6965   -1.0395   -0.4810 C   0  0  1  0  0  0  0  0  0  0  0  0
    0.1935   -1.6723   -0.5796 H   0  0  0  0  0  0  0  0  0  0  0  0
   -0.7322   -0.0298   -1.6481 C   0  0  0  0  0  0  0  0  0  0  0  0
   -1.6268   -0.1659   -2.2630 H   0  0  0  0  0  0  0  0  0  0  0  0
   -0.7664    0.9950   -1.2626 H   0  0  0  0  0  0  0  0  0  0  0  0
    0.4912   -0.1864   -2.5077 C   0  0  0  0  0  0  0  0  0  0  0  0
    1.6755    0.4841   -2.3235 C   0  0  0  0  0  0  0  0  0  0  0  0
    1.8797    1.1962   -1.5251 H   0  0  0  0  0  0  0  0  0  0  0  0
    2.5540    0.0625   -3.3184 N   0  0  0  0  0  0  0  0  0  0  0  0
    3.5192    0.3703   -3.4160 H   0  0  0  0  0  0  0  0  0  0  0  0
    1.9430   -0.8726   -4.1382 C   0  0  0  0  0  0  0  0  0  0  0  0
    2.4095   -1.5755   -5.2486 C   0  0  0  0  0  0  0  0  0  0  0  0
    3.4223   -1.4229   -5.6047 H   0  0  0  0  0  0  0  0  0  0  0  0
    1.5536   -2.4784   -5.8944 C   0  0  0  0  0  0  0  0  0  0  0  0
    1.9052   -3.0325   -6.7599 H   0  0  0  0  0  0  0  0  0  0  0  0
    0.2448   -2.6667   -5.4240 C   0  0  0  0  0  0  0  0  0  0  0  0
   -0.4140   -3.3670   -5.9283 H   0  0  0  0  0  0  0  0  0  0  0  0
   -0.2131   -1.9543   -4.3061 C   0  0  0  0  0  0  0  0  0  0  0  0
   -1.2236   -2.0971   -3.9413 H   0  0  0  0  0  0  0  0  0  0  0  0
    0.6478   -1.0563   -3.6664 C   0  0  0  0  0  0  0  0  0  0  0  0
   -0.5311   -0.2738    0.8506 C   0  0  0  0  0  0  0  0  0  0  0  0
    0.5892    0.0376    1.2363 O   0  0  0  0  0  0  0  0  0  0  0  0
   -1.6290    0.3368    1.4306 N   0  0  0  0  0  0  0  0  0  0  0  0
   -2.5341   -0.0249    1.1482 H   0  0  0  0  0  0  0  0  0  0  0  0
   -1.5405    1.1045    2.6661 C   0  0  0  0  0  0  0  0  0  0  0  0
   -0.8461    1.9432    2.5491 H   0  0  0  0  0  0  0  0  0  0  0  0
   -2.5228    1.5067    2.9316 H   0  0  0  0  0  0  0  0  0  0  0  0
   -1.1908    0.4687    3.4862 H   0  0  0  0  0  0  0  0  0  0  0  0
  1  2  1  0  0  0  0
  2  3  1  0  0  0  0
  2  4  1  0  0  0  0
  2  5  1  0  0  0  0
  5  6  2  0  0  0  0
  5  7  1  0  0  0  0
  7  8  1  0  0  0  0
  7  9  1  0  0  0  0
  9 10  1  0  0  0  0
  9 11  1  0  0  0  0
  9 29  1  0  0  0  0
 11 12  1  0  0  0  0
 11 13  1  0  0  0  0
 11 14  1  0  0  0  0
 14 15  2  0  0  0  0
 14 28  1  0  0  0  0
 15 16  1  0  0  0  0
 15 17  1  0  0  0  0
 17 18  1  0  0  0  0
 17 19  1  0  0  0  0
 19 20  1  0  0  0  0
 19 28  2  0  0  0  0
 20 21  1  0  0  0  0
 20 22  2  0  0  0  0
 22 23  1  0  0  0  0
 22 24  1  0  0  0  0
 24 25  1  0  0  0  0
 24 26  2  0  0  0  0
 26 27  1  0  0  0  0
 26 28  1  0  0  0  0
 29 30  2  0  0  0  0
 29 31  1  0  0  0  0
 31 32  1  0  0  0  0
 31 33  1  0  0  0  0
 33 34  1  0  0  0  0
 33 35  1  0  0  0  0
 33 36  1  0  0  0  0
M  END
$$$$

  -OEChem-03222214083D

 36 37  0     1  0  0  0  0  0999 V2000
   -3.2185   -4.7740    0.7742 H   0  0  0  0  0  0  0  0  0  0  0  0
   -3.2169   -3.9816    0.0202 C   0  0  0  0  0  0  0  0  0  0  0  0
   -4.1878   -3.4810    0.0344 H   0  0  0  0  0  0  0  0  0  0  0  0
   -3.0603   -4.4339   -0.9620 H   0  0  0  0  0  0  0  0  0  0  0  0
   -2.1126   -2.9836    0.3152 C   0  0  0  0  0  0  0  0  0  0  0  0
   -1.4333   -3.1105    1.3175 O   0  0  0  0  0  0  0  0  0  0  0  0
   -1.8990   -1.9248   -0.5448 N   0  0  0  0  0  0  0  0  0  0  0  0
   -2.4116   -1.9573   -1.4202 H   0  0  0  0  0  0  0  0  0  0  0  0
   -0.7160   -1.0428   -0.4811 C   0  0  1  0  0  0  0  0  0  0  0  0
    0.1677   -1.6835   -0.5864 H   0  0  0  0  0  0  0  0  0  0  0  0
   -0.7537   -0.0356   -1.6509 C   0  0  0  0  0  0  0  0  0  0  0  0
   -1.6544   -0.1697   -2.2564 H   0  0  0  0  0  0  0  0  0  0  0  0
   -0.7795    0.9913   -1.2703 H   0  0  0  0  0  0  0  0  0  0  0  0
    0.4636   -0.1985   -2.5185 C   0  0  0  0  0  0  0  0  0  0  0  0
    1.7256    0.2309   -2.1859 C   0  0  0  0  0  0  0  0  0  0  0  0
    1.9970    0.7292   -1.2553 H   0  0  0  0  0  0  0  0  0  0  0  0
    2.5737   -0.1093   -3.2367 N   0  0  0  0  0  0  0  0  0  0  0  0
    3.5760    0.0669   -3.2598 H   0  0  0  0  0  0  0  0  0  0  0  0
    1.8669   -0.7533   -4.2397 C   0  0  0  0  0  0  0  0  0  0  0  0
    2.2713   -1.2778   -5.4673 C   0  0  0  0  0  0  0  0  0  0  0  0
    3.3094   -1.2116   -5.7740 H   0  0  0  0  0  0  0  0  0  0  0  0
    1.3202   -1.8894   -6.2958 C   0  0  0  0  0  0  0  0  0  0  0  0
    1.6221   -2.3022   -7.2537 H   0  0  0  0  0  0  0  0  0  0  0  0
   -0.0205   -1.9679   -5.8890 C   0  0  0  0  0  0  0  0  0  0  0  0
   -0.7540   -2.4410   -6.5348 H   0  0  0  0  0  0  0  0  0  0  0  0
   -0.4158   -1.4362   -4.6527 C   0  0  0  0  0  0  0  0  0  0  0  0
   -1.4517   -1.4929   -4.3384 H   0  0  0  0  0  0  0  0  0  0  0  0
    0.5396   -0.8293   -3.8303 C   0  0  0  0  0  0  0  0  0  0  0  0
   -0.5289   -0.2764    0.8471 C   0  0  0  0  0  0  0  0  0  0  0  0
    0.6001    0.0292    1.2127 O   0  0  0  0  0  0  0  0  0  0  0  0
   -1.6141    0.3429    1.4417 N   0  0  0  0  0  0  0  0  0  0  0  0
   -2.5264   -0.0095    1.1706 H   0  0  0  0  0  0  0  0  0  0  0  0
   -1.5037    1.1166    2.6717 C   0  0  0  0  0  0  0  0  0  0  0  0
   -0.8038    1.9488    2.5416 H   0  0  0  0  0  0  0  0  0  0  0  0
   -2.4790    1.5291    2.9469 H   0  0  0  0  0  0  0  0  0  0  0  0
   -1.1499    0.4828    3.4913 H   0  0  0  0  0  0  0  0  0  0  0  0
  1  2  1  0  0  0  0
  2  3  1  0  0  0  0
  2  4  1  0  0  0  0
  2  5  1  0  0  0  0
  5  6  2  0  0  0  0
  5  7  1  0  0  0  0
  7  8  1  0  0  0  0
  7  9  1  0  0  0  0
  9 10  1  0  0  0  0
  9 11  1  0  0  0  0
  9 29  1  0  0  0  0
 11 12  1  0  0  0  0
 11 13  1  0  0  0  0
 11 14  1  0  0  0  0
 14 15  2  0  0  0  0
 14 28  1  0  0  0  0
 15 16  1  0  0  0  0
 15 17  1  0  0  0  0
 17 18  1  0  0  0  0
 17 19  1  0  0  0  0
 19 20  1  0  0  0  0
 19 28  2  0  0  0  0
 20 21  1  0  0  0  0
 20 22  2  0  0  0  0
 22 23  1  0  0  0  0
 22 24  1  0  0  0  0
 24 25  1  0  0  0  0
 24 26  2  0  0  0  0
 26 27  1  0  0  0  0
 26 28  1  0  0  0  0
 29 30  2  0  0  0  0
 29 31  1  0  0  0  0
 31 32  1  0  0  0  0
 31 33  1  0  0  0  0
 33 34  1  0  0  0  0
 33 35  1  0  0  0  0
 33 36  1  0  0  0  0
M  END
$$$$

  -OEChem-03222214083D

 36 37  0     1  0  0  0  0  0999 V2000
   -3.2328   -4.7724    0.7882 H   0  0  0  0  0  0  0  0  0  0  0  0
   -3.2303   -3.9826    0.0312 C   0  0  0  0  0  0  0  0  0  0  0  0
   -4.2022   -3.4833    0.0410 H   0  0  0  0  0  0  0  0  0  0  0  0
   -3.0704   -4.4384   -0.9489 H   0  0  0  0  0  0  0  0  0  0  0  0
   -2.1283   -2.9823    0.3254 C   0  0  0  0  0  0  0  0  0  0  0  0
   -1.4471   -3.1080    1.3266 O   0  0  0  0  0  0  0  0  0  0  0  0
   -1.9147   -1.9249   -0.5361 N   0  0  0  0  0  0  0  0  0  0  0  0
   -2.4237   -1.9616   -1.4138 H   0  0  0  0  0  0  0  0  0  0  0  0
   -0.7287   -1.0468   -0.4745 C   0  0  1  0  0  0  0  0  0  0  0  0
    0.1484   -1.6957   -0.5794 H   0  0  0  0  0  0  0  0  0  0  0  0
   -0.7645   -0.0448   -1.6504 C   0  0  0  0  0  0  0  0  0  0  0  0
   -1.6670   -0.1905   -2.2501 H   0  0  0  0  0  0  0  0  0  0  0  0
   -0.7965    0.9851   -1.2790 H   0  0  0  0  0  0  0  0  0  0  0  0
    0.4486   -0.2025   -2.5279 C   0  0  0  0  0  0  0  0  0  0  0  0
    1.7490   -0.0438   -2.1106 C   0  0  0  0  0  0  0  0  0  0  0  0
    2.0596    0.2187   -1.0989 H   0  0  0  0  0  0  0  0  0  0  0  0
    2.5738   -0.2898   -3.2048 N   0  0  0  0  0  0  0  0  0  0  0  0
    3.5910   -0.2532   -3.1903 H   0  0  0  0  0  0  0  0  0  0  0  0
    1.8153   -0.6027   -4.3212 C   0  0  0  0  0  0  0  0  0  0  0  0
    2.1819   -0.9207   -5.6288 C   0  0  0  0  0  0  0  0  0  0  0  0
    3.2288   -0.9512   -5.9102 H   0  0  0  0  0  0  0  0  0  0  0  0
    1.1814   -1.1979   -6.5706 C   0  0  0  0  0  0  0  0  0  0  0  0
    1.4532   -1.4458   -7.5923 H   0  0  0  0  0  0  0  0  0  0  0  0
   -0.1700   -1.1530   -6.1950 C   0  0  0  0  0  0  0  0  0  0  0  0
   -0.9418   -1.3658   -6.9285 H   0  0  0  0  0  0  0  0  0  0  0  0
   -0.5267   -0.8317   -4.8773 C   0  0  0  0  0  0  0  0  0  0  0  0
   -1.5707   -0.7928   -4.5878 H   0  0  0  0  0  0  0  0  0  0  0  0
    0.4775   -0.5582   -3.9418 C   0  0  0  0  0  0  0  0  0  0  0  0
   -0.5313   -0.2784    0.8502 C   0  0  0  0  0  0  0  0  0  0  0  0
    0.6033    0.0062    1.2156 O   0  0  0  0  0  0  0  0  0  0  0  0
   -1.6075    0.3492    1.4515 N   0  0  0  0  0  0  0  0  0  0  0  0
   -2.5252    0.0104    1.1816 H   0  0  0  0  0  0  0  0  0  0  0  0
   -1.4823    1.1245    2.6787 C   0  0  0  0  0  0  0  0  0  0  0  0
   -0.7758    1.9500    2.5414 H   0  0  0  0  0  0  0  0  0  0  0  0
   -2.4520    1.5462    2.9596 H   0  0  0  0  0  0  0  0  0  0  0  0
   -1.1283    0.4890    3.4971 H   0  0  0  0  0  0  0  0  0  0  0  0
  1  2  1  0  0  0  0
  2  3  1  0  0  0  0
  2  4  1  0  0  0  0
  2  5  1  0  0  0  0
  5  6  2  0  0  0  0
  5  7  1  0  0  0  0
  7  8  1  0  0  0  0
  7  9  1  0  0  0  0
  9 10  1  0  0  0  0
  9 11  1  0  0  0  0
  9 29  1  0  0  0  0
 11 12  1  0  0  0  0
 11 13  1  0  0  0  0
 11 14  1  0  0  0  0
 14 15  2  0  0  0  0
 14 28  1  0  0  0  0
 15 16  1  0  0  0  0
 15 17  1  0  0  0  0
 17 18  1  0  0  0  0
 17 19  1  0  0  0  0
 19 20  1  0  0  0  0
 19 28  2  0  0  0  0
 20 21  1  0  0  0  0
 20 22  2  0  0  0  0
 22 23  1  0  0  0  0
 22 24  1  0  0  0  0
 24 25  1  0  0  0  0
 24 26  2  0  0  0  0
 26 27  1  0  0  0  0
 26 28  1  0  0  0  0
 29 30  2  0  0  0  0
 29 31  1  0  0  0  0
 31 32  1  0  0  0  0
 31 33  1  0  0  0  0
 33 34  1  0  0  0  0
 33 35  1  0  0  0  0
 33 36  1  0  0  0  0
M  END
$$$$

  -OEChem-03222214083D

 36 37  0     1  0  0  0  0  0999 V2000
   -3.2551   -4.7647    0.8064 H   0  0  0  0  0  0  0  0  0  0  0  0
   -3.2474   -3.9771    0.0471 C   0  0  0  0  0  0  0  0  0  0  0  0
   -4.2157   -3.4711    0.0557 H   0  0  0  0  0  0  0  0  0  0  0  0
   -3.0913   -4.4360   -0.9322 H   0  0  0  0  0  0  0  0  0  0  0  0
   -2.1395   -2.9826    0.3383 C   0  0  0  0  0  0  0  0  0  0  0  0
   -1.4584   -3.1093    1.3394 O   0  0  0  0  0  0  0  0  0  0  0  0
   -1.9180   -1.9302   -0.5272 N   0  0  0  0  0  0  0  0  0  0  0  0
   -2.4250   -1.9667   -1.4063 H   0  0  0  0  0  0  0  0  0  0  0  0
   -0.7309   -1.0541   -0.4613 C   0  0  1  0  0  0  0  0  0  0  0  0
    0.1396   -1.7128   -0.5499 H   0  0  0  0  0  0  0  0  0  0  0  0
   -0.7527   -0.0655   -1.6515 C   0  0  0  0  0  0  0  0  0  0  0  0
   -1.6487   -0.2345   -2.2552 H   0  0  0  0  0  0  0  0  0  0  0  0
   -0.8031    0.9690   -1.2950 H   0  0  0  0  0  0  0  0  0  0  0  0
    0.4617   -0.2112   -2.5345 C   0  0  0  0  0  0  0  0  0  0  0  0
    1.7640   -0.3292   -2.1050 C   0  0  0  0  0  0  0  0  0  0  0  0
    2.0904   -0.3139   -1.0648 H   0  0  0  0  0  0  0  0  0  0  0  0
    2.5702   -0.4639   -3.2319 N   0  0  0  0  0  0  0  0  0  0  0  0
    3.5831   -0.5649   -3.2186 H   0  0  0  0  0  0  0  0  0  0  0  0
    1.8007   -0.4282   -4.3827 C   0  0  0  0  0  0  0  0  0  0  0  0
    2.1494   -0.5191   -5.7300 C   0  0  0  0  0  0  0  0  0  0  0  0
    3.1873   -0.6443   -6.0179 H   0  0  0  0  0  0  0  0  0  0  0  0
    1.1428   -0.4445   -6.7026 C   0  0  0  0  0  0  0  0  0  0  0  0
    1.4010   -0.5122   -7.7553 H   0  0  0  0  0  0  0  0  0  0  0  0
   -0.1962   -0.2793   -6.3169 C   0  0  0  0  0  0  0  0  0  0  0  0
   -0.9725   -0.2184   -7.0737 H   0  0  0  0  0  0  0  0  0  0  0  0
   -0.5348   -0.1896   -4.9586 C   0  0  0  0  0  0  0  0  0  0  0  0
   -1.5690   -0.0560   -4.6612 H   0  0  0  0  0  0  0  0  0  0  0  0
    0.4750   -0.2680   -3.9926 C   0  0  0  0  0  0  0  0  0  0  0  0
   -0.5393   -0.2781    0.8595 C   0  0  0  0  0  0  0  0  0  0  0  0
    0.5954   -0.0177    1.2415 O   0  0  0  0  0  0  0  0  0  0  0  0
   -1.6148    0.3576    1.4537 N   0  0  0  0  0  0  0  0  0  0  0  0
   -2.5338    0.0297    1.1749 H   0  0  0  0  0  0  0  0  0  0  0  0
   -1.4913    1.1261    2.6858 C   0  0  0  0  0  0  0  0  0  0  0  0
   -0.7719    1.9420    2.5592 H   0  0  0  0  0  0  0  0  0  0  0  0
   -2.4578    1.5606    2.9585 H   0  0  0  0  0  0  0  0  0  0  0  0
   -1.1539    0.4829    3.5053 H   0  0  0  0  0  0  0  0  0  0  0  0
  1  2  1  0  0  0  0
  2  3  1  0  0  0  0
  2  4  1  0  0  0  0
  2  5  1  0  0  0  0
  5  6  2  0  0  0  0
  5  7  1  0  0  0  0
  7  8  1  0  0  0  0
  7  9  1  0  0  0  0
  9 10  1  0  0  0  0
  9 11  1  0  0  0  0
  9 29  1  0  0  0  0
 11 12  1  0  0  0  0
 11 13  1  0  0  0  0
 11 14  1  0  0  0  0
 14 15  2  0  0  0  0
 14 28  1  0  0  0  0
 15 16  1  0  0  0  0
 15 17  1  0  0  0  0
 17 18  1  0  0  0  0
 17 19  1  0  0  0  0
 19 20  1  0  0  0  0
 19 28  2  0  0  0  0
 20 21  1  0  0  0  0
 20 22  2  0  0  0  0
 22 23  1  0  0  0  0
 22 24  1  0  0  0  0
 24 25  1  0  0  0  0
 24 26  2  0  0  0  0
 26 27  1  0  0  0  0
 26 28  1  0  0  0  0
 29 30  2  0  0  0  0
 29 31  1  0  0  0  0
 31 32  1  0  0  0  0
 31 33  1  0  0  0  0
 33 34  1  0  0  0  0
 33 35  1  0  0  0  0
 33 36  1  0  0  0  0
M  END
$$$$

  -OEChem-03222214083D

 36 37  0     1  0  0  0  0  0999 V2000
   -3.2908   -4.7487    0.8123 H   0  0  0  0  0  0  0  0  0  0  0  0
   -3.2772   -3.9575    0.0571 C   0  0  0  0  0  0  0  0  0  0  0  0
   -4.2380   -3.4378    0.0749 H   0  0  0  0  0  0  0  0  0  0  0  0
   -3.1338   -4.4138   -0.9252 H   0  0  0  0  0  0  0  0  0  0  0  0
   -2.1527   -2.9811    0.3463 C   0  0  0  0  0  0  0  0  0  0  0  0
   -1.4754   -3.1161    1.3489 O   0  0  0  0  0  0  0  0  0  0  0  0
   -1.9090   -1.9374   -0.5241 N   0  0  0  0  0  0  0  0  0  0  0  0
   -2.4162   -1.9641   -1.4034 H   0  0  0  0  0  0  0  0  0  0  0  0
   -0.7188   -1.0663   -0.4457 C   0  0  1  0  0  0  0  0  0  0  0  0
    0.1438   -1.7359   -0.5066 H   0  0  0  0  0  0  0  0  0  0  0  0
   -0.7147   -0.0942   -1.6515 C   0  0  0  0  0  0  0  0  0  0  0  0
   -1.6009   -0.2781   -2.2655 H   0  0  0  0  0  0  0  0  0  0  0  0
   -0.7797    0.9436   -1.3077 H   0  0  0  0  0  0  0  0  0  0  0  0
    0.5042   -0.2282   -2.5346 C   0  0  0  0  0  0  0  0  0  0  0  0
    1.7737   -0.6125   -2.1624 C   0  0  0  0  0  0  0  0  0  0  0  0
    2.0943   -0.8492   -1.1482 H   0  0  0  0  0  0  0  0  0  0  0  0
    2.5681   -0.6221   -3.3056 N   0  0  0  0  0  0  0  0  0  0  0  0
    3.5600   -0.8503   -3.3271 H   0  0  0  0  0  0  0  0  0  0  0  0
    1.8269   -0.2419   -4.4114 C   0  0  0  0  0  0  0  0  0  0  0  0
    2.1745   -0.0979   -5.7544 C   0  0  0  0  0  0  0  0  0  0  0  0
    3.1879   -0.3035   -6.0811 H   0  0  0  0  0  0  0  0  0  0  0  0
    1.1988    0.3164   -6.6716 C   0  0  0  0  0  0  0  0  0  0  0  0
    1.4562    0.4340   -7.7201 H   0  0  0  0  0  0  0  0  0  0  0  0
   -0.1083    0.5821   -6.2358 C   0  0  0  0  0  0  0  0  0  0  0  0
   -0.8605    0.9061   -6.9486 H   0  0  0  0  0  0  0  0  0  0  0  0
   -0.4456    0.4337   -4.8826 C   0  0  0  0  0  0  0  0  0  0  0  0
   -1.4540    0.6445   -4.5439 H   0  0  0  0  0  0  0  0  0  0  0  0
    0.5327    0.0165   -3.9731 C   0  0  0  0  0  0  0  0  0  0  0  0
   -0.5455   -0.2785    0.8699 C   0  0  0  0  0  0  0  0  0  0  0  0
    0.5835   -0.0399    1.2808 O   0  0  0  0  0  0  0  0  0  0  0  0
   -1.6265    0.3692    1.4404 N   0  0  0  0  0  0  0  0  0  0  0  0
   -2.5430    0.0559    1.1376 H   0  0  0  0  0  0  0  0  0  0  0  0
   -1.5217    1.1276    2.6800 C   0  0  0  0  0  0  0  0  0  0  0  0
   -0.7838    1.9302    2.5781 H   0  0  0  0  0  0  0  0  0  0  0  0
   -2.4864    1.5784    2.9305 H   0  0  0  0  0  0  0  0  0  0  0  0
   -1.2190    0.4722    3.5034 H   0  0  0  0  0  0  0  0  0  0  0  0
  1  2  1  0  0  0  0
  2  3  1  0  0  0  0
  2  4  1  0  0  0  0
  2  5  1  0  0  0  0
  5  6  2  0  0  0  0
  5  7  1  0  0  0  0
  7  8  1  0  0  0  0
  7  9  1  0  0  0  0
  9 10  1  0  0  0  0
  9 11  1  0  0  0  0
  9 29  1  0  0  0  0
 11 12  1  0  0  0  0
 11 13  1  0  0  0  0
 11 14  1  0  0  0  0
 14 15  2  0  0  0  0
 14 28  1  0  0  0  0
 15 16  1  0  0  0  0
 15 17  1  0  0  0  0
 17 18  1  0  0  0  0
 17 19  1  0  0  0  0
 19 20  1  0  0  0  0
 19 28  2  0  0  0  0
 20 21  1  0  0  0  0
 20 22  2  0  0  0  0
 22 23  1  0  0  0  0
 22 24  1  0  0  0  0
 24 25  1  0  0  0  0
 24 26  2  0  0  0  0
 26 27  1  0  0  0  0
 26 28  1  0  0  0  0
 29 30  2  0  0  0  0
 29 31  1  0  0  0  0
 31 32  1  0  0  0  0
 31 33  1  0  0  0  0
 33 34  1  0  0  0  0
 33 35  1  0  0  0  0
 33 36  1  0  0  0  0
M  END
$$$$

  -OEChem-03222214083D

 36 37  0     1  0  0  0  0  0999 V2000
   -3.3544   -4.7195    0.8053 H   0  0  0  0  0  0  0  0  0  0  0  0
   -3.3144   -3.9299    0.0494 C   0  0  0  0  0  0  0  0  0  0  0  0
   -4.2657   -3.3924    0.0518 H   0  0  0  0  0  0  0  0  0  0  0  0
   -3.1649   -4.3901   -0.9303 H   0  0  0  0  0  0  0  0  0  0  0  0
   -2.1761   -2.9744    0.3540 C   0  0  0  0  0  0  0  0  0  0  0  0
   -1.5145   -3.1217    1.3650 O   0  0  0  0  0  0  0  0  0  0  0  0
   -1.8927   -1.9447   -0.5209 N   0  0  0  0  0  0  0  0  0  0  0  0
   -2.3933   -1.9594   -1.4044 H   0  0  0  0  0  0  0  0  0  0  0  0
   -0.6917   -1.0898   -0.4251 C   0  0  1  0  0  0  0  0  0  0  0  0
    0.1632   -1.7684   -0.4553 H   0  0  0  0  0  0  0  0  0  0  0  0
   -0.6582   -0.1310   -1.6417 C   0  0  0  0  0  0  0  0  0  0  0  0
   -1.5407   -0.3063   -2.2640 H   0  0  0  0  0  0  0  0  0  0  0  0
   -0.7164    0.9081   -1.3000 H   0  0  0  0  0  0  0  0  0  0  0  0
    0.5615   -0.2624   -2.5273 C   0  0  0  0  0  0  0  0  0  0  0  0
    1.7623   -0.8925   -2.2775 C   0  0  0  0  0  0  0  0  0  0  0  0
    2.0504   -1.3810   -1.3484 H   0  0  0  0  0  0  0  0  0  0  0  0
    2.5546   -0.7703   -3.4160 N   0  0  0  0  0  0  0  0  0  0  0  0
    3.5060   -1.1205   -3.5085 H   0  0  0  0  0  0  0  0  0  0  0  0
    1.8818   -0.0661   -4.3991 C   0  0  0  0  0  0  0  0  0  0  0  0
    2.2520    0.3099   -5.6901 C   0  0  0  0  0  0  0  0  0  0  0  0
    3.2284    0.0413   -6.0778 H   0  0  0  0  0  0  0  0  0  0  0  0
    1.3474    1.0382   -6.4751 C   0  0  0  0  0  0  0  0  0  0  0  0
    1.6230    1.3384   -7.4817 H   0  0  0  0  0  0  0  0  0  0  0  0
    0.0879    1.3823   -5.9605 C   0  0  0  0  0  0  0  0  0  0  0  0
   -0.6092    1.9493   -6.5700 H   0  0  0  0  0  0  0  0  0  0  0  0
   -0.2722    0.9994   -4.6603 C   0  0  0  0  0  0  0  0  0  0  0  0
   -1.2429    1.2690   -4.2584 H   0  0  0  0  0  0  0  0  0  0  0  0
    0.6355    0.2701   -3.8840 C   0  0  0  0  0  0  0  0  0  0  0  0
   -0.5437   -0.2898    0.8869 C   0  0  0  0  0  0  0  0  0  0  0  0
    0.5743   -0.0719    1.3362 O   0  0  0  0  0  0  0  0  0  0  0  0
   -1.6313    0.3780    1.4208 N   0  0  0  0  0  0  0  0  0  0  0  0
   -2.5434    0.0862    1.0859 H   0  0  0  0  0  0  0  0  0  0  0  0
   -1.5518    1.1539    2.6518 C   0  0  0  0  0  0  0  0  0  0  0  0
   -0.8038    1.9482    2.5576 H   0  0  0  0  0  0  0  0  0  0  0  0
   -2.5183    1.6175    2.8701 H   0  0  0  0  0  0  0  0  0  0  0  0
   -1.2769    0.5087    3.4928 H   0  0  0  0  0  0  0  0  0  0  0  0
  1  2  1  0  0  0  0
  2  3  1  0  0  0  0
  2  4  1  0  0  0  0
  2  5  1  0  0  0  0
  5  6  2  0  0  0  0
  5  7  1  0  0  0  0
  7  8  1  0  0  0  0
  7  9  1  0  0  0  0
  9 10  1  0  0  0  0
  9 11  1  0  0  0  0
  9 29  1  0  0  0  0
 11 12  1  0  0  0  0
 11 13  1  0  0  0  0
 11 14  1  0  0  0  0
 14 15  2  0  0  0  0
 14 28  1  0  0  0  0
 15 16  1  0  0  0  0
 15 17  1  0  0  0  0
 17 18  1  0  0  0  0
 17 19  1  0  0  0  0
 19 20  1  0  0  0  0
 19 28  2  0  0  0  0
 20 21  1  0  0  0  0
 20 22  2  0  0  0  0
 22 23  1  0  0  0  0
 22 24  1  0  0  0  0
 24 25  1  0  0  0  0
 24 26  2  0  0  0  0
 26 27  1  0  0  0  0
 26 28  1  0  0  0  0
 29 30  2  0  0  0  0
 29 31  1  0  0  0  0
 31 32  1  0  0  0  0
 31 33  1  0  0  0  0
 33 34  1  0  0  0  0
 33 35  1  0  0  0  0
 33 36  1  0  0  0  0
M  END
$$$$

  -OEChem-03222214083D

 36 37  0     1  0  0  0  0  0999 V2000
   -3.4190   -4.6603    0.8470 H   0  0  0  0  0  0  0  0  0  0  0  0
   -3.3588   -3.8772    0.0856 C   0  0  0  0  0  0  0  0  0  0  0  0
   -4.2862   -3.2997    0.1011 H   0  0  0  0  0  0  0  0  0  0  0  0
   -3.2464   -4.3491   -0.8935 H   0  0  0  0  0  0  0  0  0  0  0  0
   -2.1766   -2.9685    0.3651 C   0  0  0  0  0  0  0  0  0  0  0  0
   -1.5029   -3.1387    1.3643 O   0  0  0  0  0  0  0  0  0  0  0  0
   -1.8696   -1.9524   -0.5175 N   0  0  0  0  0  0  0  0  0  0  0  0
   -2.3883   -1.9431   -1.3907 H   0  0  0  0  0  0  0  0  0  0  0  0
   -0.6606   -1.1088   -0.4211 C   0  0  1  0  0  0  0  0  0  0  0  0
    0.1957   -1.7850   -0.4308 H   0  0  0  0  0  0  0  0  0  0  0  0
   -0.6185   -0.1588   -1.6449 C   0  0  0  0  0  0  0  0  0  0  0  0
   -1.5062   -0.3164   -2.2649 H   0  0  0  0  0  0  0  0  0  0  0  0
   -0.6587    0.8796   -1.2986 H   0  0  0  0  0  0  0  0  0  0  0  0
    0.5947   -0.2939   -2.5408 C   0  0  0  0  0  0  0  0  0  0  0  0
    1.6861   -1.1328   -2.4481 C   0  0  0  0  0  0  0  0  0  0  0  0
    1.8846   -1.8519   -1.6570 H   0  0  0  0  0  0  0  0  0  0  0  0
    2.5076   -0.8906   -3.5462 N   0  0  0  0  0  0  0  0  0  0  0  0
    3.4002   -1.3467   -3.7233 H   0  0  0  0  0  0  0  0  0  0  0  0
    1.9608    0.0925   -4.3515 C   0  0  0  0  0  0  0  0  0  0  0  0
    2.4004    0.6693   -5.5430 C   0  0  0  0  0  0  0  0  0  0  0  0
    3.3330    0.3488   -5.9940 H   0  0  0  0  0  0  0  0  0  0  0  0
    1.6218    1.6660   -6.1477 C   0  0  0  0  0  0  0  0  0  0  0  0
    1.9524    2.1238   -7.0754 H   0  0  0  0  0  0  0  0  0  0  0  0
    0.4178    2.0744   -5.5537 C   0  0  0  0  0  0  0  0  0  0  0  0
   -0.1806    2.8497   -6.0227 H   0  0  0  0  0  0  0  0  0  0  0  0
   -0.0127    1.4876   -4.3546 C   0  0  0  0  0  0  0  0  0  0  0  0
   -0.9407    1.8046   -3.8908 H   0  0  0  0  0  0  0  0  0  0  0  0
    0.7689    0.4912   -3.7591 C   0  0  0  0  0  0  0  0  0  0  0  0
   -0.5344   -0.2999    0.8893 C   0  0  0  0  0  0  0  0  0  0  0  0
    0.5720   -0.0930    1.3704 O   0  0  0  0  0  0  0  0  0  0  0  0
   -1.6299    0.3769    1.3967 N   0  0  0  0  0  0  0  0  0  0  0  0
   -2.5357    0.0933    1.0385 H   0  0  0  0  0  0  0  0  0  0  0  0
   -1.5760    1.1477    2.6325 C   0  0  0  0  0  0  0  0  0  0  0  0
   -0.8177    1.9350    2.5626 H   0  0  0  0  0  0  0  0  0  0  0  0
   -2.5438    1.6203    2.8254 H   0  0  0  0  0  0  0  0  0  0  0  0
   -1.3313    0.4964    3.4783 H   0  0  0  0  0  0  0  0  0  0  0  0
  1  2  1  0  0  0  0
  2  3  1  0  0  0  0
  2  4  1  0  0  0  0
  2  5  1  0  0  0  0
  5  6  2  0  0  0  0
  5  7  1  0  0  0  0
  7  8  1  0  0  0  0
  7  9  1  0  0  0  0
  9 10  1  0  0  0  0
  9 11  1  0  0  0  0
  9 29  1  0  0  0  0
 11 12  1  0  0  0  0
 11 13  1  0  0  0  0
 11 14  1  0  0  0  0
 14 15  2  0  0  0  0
 14 28  1  0  0  0  0
 15 16  1  0  0  0  0
 15 17  1  0  0  0  0
 17 18  1  0  0  0  0
 17 19  1  0  0  0  0
 19 20  1  0  0  0  0
 19 28  2  0  0  0  0
 20 21  1  0  0  0  0
 20 22  2  0  0  0  0
 22 23  1  0  0  0  0
 22 24  1  0  0  0  0
 24 25  1  0  0  0  0
 24 26  2  0  0  0  0
 26 27  1  0  0  0  0
 26 28  1  0  0  0  0
 29 30  2  0  0  0  0
 29 31  1  0  0  0  0
 31 32  1  0  0  0  0
 31 33  1  0  0  0  0
 33 34  1  0  0  0  0
 33 35  1  0  0  0  0
 33 36  1  0  0  0  0
M  END
$$$$

  -OEChem-03222214083D

 36 37  0     1  0  0  0  0  0999 V2000
   -3.4365   -4.6373    0.8744 H   0  0  0  0  0  0  0  0  0  0  0  0
   -3.3698   -3.8606    0.1072 C   0  0  0  0  0  0  0  0  0  0  0  0
   -4.2863   -3.2662    0.1277 H   0  0  0  0  0  0  0  0  0  0  0  0
   -3.2753   -4.3402   -0.8700 H   0  0  0  0  0  0  0  0  0  0  0  0
   -2.1695   -2.9708    0.3691 C   0  0  0  0  0  0  0  0  0  0  0  0
   -1.4803   -3.1540    1.3552 O   0  0  0  0  0  0  0  0  0  0  0  0
   -1.8641   -1.9569   -0.5161 N   0  0  0  0  0  0  0  0  0  0  0  0
   -2.4054   -1.9288   -1.3750 H   0  0  0  0  0  0  0  0  0  0  0  0
   -0.6525   -1.1161   -0.4310 C   0  0  1  0  0  0  0  0  0  0  0  0
    0.2114   -1.7836   -0.4474 H   0  0  0  0  0  0  0  0  0  0  0  0
   -0.6302   -0.1633   -1.6528 C   0  0  0  0  0  0  0  0  0  0  0  0
   -1.5291   -0.3045   -2.2607 H   0  0  0  0  0  0  0  0  0  0  0  0
   -0.6547    0.8715   -1.2949 H   0  0  0  0  0  0  0  0  0  0  0  0
    0.5710   -0.3026   -2.5633 C   0  0  0  0  0  0  0  0  0  0  0  0
    1.5097   -1.3096   -2.6447 C   0  0  0  0  0  0  0  0  0  0  0  0
    1.5563   -2.2003   -2.0229 H   0  0  0  0  0  0  0  0  0  0  0  0
    2.3974   -0.9865   -3.6677 N   0  0  0  0  0  0  0  0  0  0  0  0
    3.2122   -1.5355   -3.9339 H   0  0  0  0  0  0  0  0  0  0  0  0
    2.0410    0.2146   -4.2551 C   0  0  0  0  0  0  0  0  0  0  0  0
    2.6078    0.9420   -5.3018 C   0  0  0  0  0  0  0  0  0  0  0  0
    3.4948    0.5744   -5.8055 H   0  0  0  0  0  0  0  0  0  0  0  0
    2.0159    2.1512   -5.6922 C   0  0  0  0  0  0  0  0  0  0  0  0
    2.4469    2.7283   -6.5049 H   0  0  0  0  0  0  0  0  0  0  0  0
    0.8686    2.6176   -5.0325 C   0  0  0  0  0  0  0  0  0  0  0  0
    0.4140    3.5559   -5.3355 H   0  0  0  0  0  0  0  0  0  0  0  0
    0.3098    1.8785   -3.9797 C   0  0  0  0  0  0  0  0  0  0  0  0
   -0.5741    2.2390   -3.4648 H   0  0  0  0  0  0  0  0  0  0  0  0
    0.9061    0.6720   -3.5964 C   0  0  0  0  0  0  0  0  0  0  0  0
   -0.5196   -0.3071    0.8791 C   0  0  0  0  0  0  0  0  0  0  0  0
    0.5873   -0.1025    1.3590 O   0  0  0  0  0  0  0  0  0  0  0  0
   -1.6120    0.3707    1.3916 N   0  0  0  0  0  0  0  0  0  0  0  0
   -2.5203    0.0938    1.0349 H   0  0  0  0  0  0  0  0  0  0  0  0
   -1.5487    1.1502    2.6213 C   0  0  0  0  0  0  0  0  0  0  0  0
   -0.7900    1.9358    2.5400 H   0  0  0  0  0  0  0  0  0  0  0  0
   -2.5143    1.6254    2.8179 H   0  0  0  0  0  0  0  0  0  0  0  0
   -1.2981    0.5049    3.4699 H   0  0  0  0  0  0  0  0  0  0  0  0
  1  2  1  0  0  0  0
  2  3  1  0  0  0  0
  2  4  1  0  0  0  0
  2  5  1  0  0  0  0
  5  6  2  0  0  0  0
  5  7  1  0  0  0  0
  7  8  1  0  0  0  0
  7  9  1  0  0  0  0
  9 10  1  0  0  0  0
  9 11  1  0  0  0  0
  9 29  1  0  0  0  0
 11 12  1  0  0  0  0
 11 13  1  0  0  0  0
 11 14  1  0  0  0  0
 14 15  2  0  0  0  0
 14 28  1  0  0  0  0
 15 16  1  0  0  0  0
 15 17  1  0  0  0  0
 17 18  1  0  0  0  0
 17 19  1  0  0  0  0
 19 20  1  0  0  0  0
 19 28  2  0  0  0  0
 20 21  1  0  0  0  0
 20 22  2  0  0  0  0
 22 23  1  0  0  0  0
 22 24  1  0  0  0  0
 24 25  1  0  0  0  0
 24 26  2  0  0  0  0
 26 27  1  0  0  0  0
 26 28  1  0  0  0  0
 29 30  2  0  0  0  0
 29 31  1  0  0  0  0
 31 32  1  0  0  0  0
 31 33  1  0  0  0  0
 33 34  1  0  0  0  0
 33 35  1  0  0  0  0
 33 36  1  0  0  0  0
M  END
$$$$

  -OEChem-03222214083D

 36 37  0     1  0  0  0  0  0999 V2000
   -3.3927   -4.6393    0.9001 H   0  0  0  0  0  0  0  0  0  0  0  0
   -3.3399   -3.8674    0.1270 C   0  0  0  0  0  0  0  0  0  0  0  0
   -4.2577   -3.2756    0.1586 H   0  0  0  0  0  0  0  0  0  0  0  0
   -3.2594   -4.3533   -0.8484 H   0  0  0  0  0  0  0  0  0  0  0  0
   -2.1365   -2.9742    0.3638 C   0  0  0  0  0  0  0  0  0  0  0  0
   -1.4134   -3.1712    1.3224 O   0  0  0  0  0  0  0  0  0  0  0  0
   -1.8602   -1.9492   -0.5187 N   0  0  0  0  0  0  0  0  0  0  0  0
   -2.4373   -1.9007   -1.3528 H   0  0  0  0  0  0  0  0  0  0  0  0
   -0.6551   -1.0964   -0.4538 C   0  0  1  0  0  0  0  0  0  0  0  0
    0.2222   -1.7475   -0.4981 H   0  0  0  0  0  0  0  0  0  0  0  0
   -0.6715   -0.1291   -1.6638 C   0  0  0  0  0  0  0  0  0  0  0  0
   -1.5814   -0.2631   -2.2564 H   0  0  0  0  0  0  0  0  0  0  0  0
   -0.6899    0.9006   -1.2921 H   0  0  0  0  0  0  0  0  0  0  0  0
    0.5179   -0.2677   -2.5870 C   0  0  0  0  0  0  0  0  0  0  0  0
    1.2678   -1.3917   -2.8572 C   0  0  0  0  0  0  0  0  0  0  0  0
    1.1235   -2.3764   -2.4185 H   0  0  0  0  0  0  0  0  0  0  0  0
    2.2391   -1.0438   -3.7922 N   0  0  0  0  0  0  0  0  0  0  0  0
    2.9560   -1.6678   -4.1566 H   0  0  0  0  0  0  0  0  0  0  0  0
    2.1216    0.2923   -4.1343 C   0  0  0  0  0  0  0  0  0  0  0  0
    2.8506    1.0917   -5.0148 C   0  0  0  0  0  0  0  0  0  0  0  0
    3.6793    0.6730   -5.5746 H   0  0  0  0  0  0  0  0  0  0  0  0
    2.4980    2.4401   -5.1647 C   0  0  0  0  0  0  0  0  0  0  0  0
    3.0576    3.0748   -5.8455 H   0  0  0  0  0  0  0  0  0  0  0  0
    1.4247    2.9717   -4.4338 C   0  0  0  0  0  0  0  0  0  0  0  0
    1.1552    4.0171   -4.5499 H   0  0  0  0  0  0  0  0  0  0  0  0
    0.7006    2.1584   -3.5503 C   0  0  0  0  0  0  0  0  0  0  0  0
   -0.1263    2.5698   -2.9813 H   0  0  0  0  0  0  0  0  0  0  0  0
    1.0581    0.8128   -3.4059 C   0  0  0  0  0  0  0  0  0  0  0  0
   -0.5093   -0.3005    0.8639 C   0  0  0  0  0  0  0  0  0  0  0  0
    0.6006   -0.0874    1.3327 O   0  0  0  0  0  0  0  0  0  0  0  0
   -1.6033    0.3561    1.4009 N   0  0  0  0  0  0  0  0  0  0  0  0
   -2.5125    0.0777    1.0481 H   0  0  0  0  0  0  0  0  0  0  0  0
   -1.5350    1.1217    2.6392 C   0  0  0  0  0  0  0  0  0  0  0  0
   -0.7983    1.9275    2.5524 H   0  0  0  0  0  0  0  0  0  0  0  0
   -2.5086    1.5689    2.8613 H   0  0  0  0  0  0  0  0  0  0  0  0
   -1.2512    0.4729    3.4744 H   0  0  0  0  0  0  0  0  0  0  0  0
  1  2  1  0  0  0  0
  2  3  1  0  0  0  0
  2  4  1  0  0  0  0
  2  5  1  0  0  0  0
  5  6  2  0  0  0  0
  5  7  1  0  0  0  0
  7  8  1  0  0  0  0
  7  9  1  0  0  0  0
  9 10  1  0  0  0  0
  9 11  1  0  0  0  0
  9 29  1  0  0  0  0
 11 12  1  0  0  0  0
 11 13  1  0  0  0  0
 11 14  1  0  0  0  0
 14 15  2  0  0  0  0
 14 28  1  0  0  0  0
 15 16  1  0  0  0  0
 15 17  1  0  0  0  0
 17 18  1  0  0  0  0
 17 19  1  0  0  0  0
 19 20  1  0  0  0  0
 19 28  2  0  0  0  0
 20 21  1  0  0  0  0
 20 22  2  0  0  0  0
 22 23  1  0  0  0  0
 22 24  1  0  0  0  0
 24 25  1  0  0  0  0
 24 26  2  0  0  0  0
 26 27  1  0  0  0  0
 26 28  1  0  0  0  0
 29 30  2  0  0  0  0
 29 31  1  0  0  0  0
 31 32  1  0  0  0  0
 31 33  1  0  0  0  0
 33 34  1  0  0  0  0
 33 35  1  0  0  0  0
 33 36  1  0  0  0  0
M  END
$$$$

  -OEChem-03222214083D

 36 37  0     1  0  0  0  0  0999 V2000
   -3.3228   -4.6615    0.8984 H   0  0  0  0  0  0  0  0  0  0  0  0
   -3.2966   -3.8828    0.1307 C   0  0  0  0  0  0  0  0  0  0  0  0
   -4.2183   -3.2991    0.1907 H   0  0  0  0  0  0  0  0  0  0  0  0
   -3.2372   -4.3601   -0.8504 H   0  0  0  0  0  0  0  0  0  0  0  0
   -2.0950   -2.9814    0.3441 C   0  0  0  0  0  0  0  0  0  0  0  0
   -1.3445   -3.1828    1.2802 O   0  0  0  0  0  0  0  0  0  0  0  0
   -1.8550   -1.9406   -0.5305 N   0  0  0  0  0  0  0  0  0  0  0  0
   -2.4657   -1.8750   -1.3389 H   0  0  0  0  0  0  0  0  0  0  0  0
   -0.6646   -1.0660   -0.4800 C   0  0  1  0  0  0  0  0  0  0  0  0
    0.2253   -1.6992   -0.5566 H   0  0  0  0  0  0  0  0  0  0  0  0
   -0.7190   -0.0859   -1.6765 C   0  0  0  0  0  0  0  0  0  0  0  0
   -1.6296   -0.2368   -2.2636 H   0  0  0  0  0  0  0  0  0  0  0  0
   -0.7553    0.9415   -1.3006 H   0  0  0  0  0  0  0  0  0  0  0  0
    0.4679   -0.2190   -2.6003 C   0  0  0  0  0  0  0  0  0  0  0  0
    1.0220   -1.3875   -3.0721 C   0  0  0  0  0  0  0  0  0  0  0  0
    0.6876   -2.3925   -2.8250 H   0  0  0  0  0  0  0  0  0  0  0  0
    2.0793   -1.0493   -3.9123 N   0  0  0  0  0  0  0  0  0  0  0  0
    2.6953   -1.7106   -4.3805 H   0  0  0  0  0  0  0  0  0  0  0  0
    2.2101    0.3271   -3.9909 C   0  0  0  0  0  0  0  0  0  0  0  0
    3.1057    1.1328   -4.6945 C   0  0  0  0  0  0  0  0  0  0  0  0
    3.8715    0.6843   -5.3174 H   0  0  0  0  0  0  0  0  0  0  0  0
    3.0028    2.5264   -4.5837 C   0  0  0  0  0  0  0  0  0  0  0  0
    3.6935    3.1661   -5.1247 H   0  0  0  0  0  0  0  0  0  0  0  0
    2.0108    3.0954   -3.7710 C   0  0  0  0  0  0  0  0  0  0  0  0
    1.9366    4.1749   -3.6821 H   0  0  0  0  0  0  0  0  0  0  0  0
    1.1172    2.2750   -3.0673 C   0  0  0  0  0  0  0  0  0  0  0  0
    0.3552    2.7149   -2.4330 H   0  0  0  0  0  0  0  0  0  0  0  0
    1.2229    0.8844   -3.1855 C   0  0  0  0  0  0  0  0  0  0  0  0
   -0.5067   -0.2840    0.8446 C   0  0  0  0  0  0  0  0  0  0  0  0
    0.6077   -0.0486    1.2914 O   0  0  0  0  0  0  0  0  0  0  0  0
   -1.6024    0.3444    1.4113 N   0  0  0  0  0  0  0  0  0  0  0  0
   -2.5127    0.0475    1.0773 H   0  0  0  0  0  0  0  0  0  0  0  0
   -1.5240    1.0945    2.6584 C   0  0  0  0  0  0  0  0  0  0  0  0
   -0.8038    1.9146    2.5689 H   0  0  0  0  0  0  0  0  0  0  0  0
   -2.5007    1.5210    2.9053 H   0  0  0  0  0  0  0  0  0  0  0  0
   -1.2123    0.4401    3.4793 H   0  0  0  0  0  0  0  0  0  0  0  0
  1  2  1  0  0  0  0
  2  3  1  0  0  0  0
  2  4  1  0  0  0  0
  2  5  1  0  0  0  0
  5  6  2  0  0  0  0
  5  7  1  0  0  0  0
  7  8  1  0  0  0  0
  7  9  1  0  0  0  0
  9 10  1  0  0  0  0
  9 11  1  0  0  0  0
  9 29  1  0  0  0  0
 11 12  1  0  0  0  0
 11 13  1  0  0  0  0
 11 14  1  0  0  0  0
 14 15  2  0  0  0  0
 14 28  1  0  0  0  0
 15 16  1  0  0  0  0
 15 17  1  0  0  0  0
 17 18  1  0  0  0  0
 17 19  1  0  0  0  0
 19 20  1  0  0  0  0
 19 28  2  0  0  0  0
 20 21  1  0  0  0  0
 20 22  2  0  0  0  0
 22 23  1  0  0  0  0
 22 24  1  0  0  0  0
 24 25  1  0  0  0  0
 24 26  2  0  0  0  0
 26 27  1  0  0  0  0
 26 28  1  0  0  0  0
 29 30  2  0  0  0  0
 29 31  1  0  0  0  0
 31 32  1  0  0  0  0
 31 33  1  0  0  0  0
 33 34  1  0  0  0  0
 33 35  1  0  0  0  0
 33 36  1  0  0  0  0
M  END
$$$$

  -OEChem-03222214083D

 36 37  0     1  0  0  0  0  0999 V2000
   -3.2442   -4.6816    0.9069 H   0  0  0  0  0  0  0  0  0  0  0  0
   -3.2424   -3.9041    0.1373 C   0  0  0  0  0  0  0  0  0  0  0  0
   -4.1739   -3.3375    0.2086 H   0  0  0  0  0  0  0  0  0  0  0  0
   -3.1870   -4.3820   -0.8436 H   0  0  0  0  0  0  0  0  0  0  0  0
   -2.0548   -2.9803    0.3326 C   0  0  0  0  0  0  0  0  0  0  0  0
   -1.2866   -3.1685    1.2570 O   0  0  0  0  0  0  0  0  0  0  0  0
   -1.8509   -1.9318   -0.5421 N   0  0  0  0  0  0  0  0  0  0  0  0
   -2.4792   -1.8731   -1.3371 H   0  0  0  0  0  0  0  0  0  0  0  0
   -0.6746   -1.0371   -0.5110 C   0  0  1  0  0  0  0  0  0  0  0  0
    0.2237   -1.6559   -0.6153 H   0  0  0  0  0  0  0  0  0  0  0  0
   -0.7639   -0.0506   -1.6974 C   0  0  0  0  0  0  0  0  0  0  0  0
   -1.6751   -0.2256   -2.2772 H   0  0  0  0  0  0  0  0  0  0  0  0
   -0.8206    0.9784   -1.3280 H   0  0  0  0  0  0  0  0  0  0  0  0
    0.4184   -0.1807   -2.6236 C   0  0  0  0  0  0  0  0  0  0  0  0
    0.7885   -1.3119   -3.3130 C   0  0  0  0  0  0  0  0  0  0  0  0
    0.2791   -2.2718   -3.2745 H   0  0  0  0  0  0  0  0  0  0  0  0
    1.9250   -1.0030   -4.0559 N   0  0  0  0  0  0  0  0  0  0  0  0
    2.4406   -1.6537   -4.6448 H   0  0  0  0  0  0  0  0  0  0  0  0
    2.2941    0.3154   -3.8449 C   0  0  0  0  0  0  0  0  0  0  0  0
    3.3494    1.0734   -4.3525 C   0  0  0  0  0  0  0  0  0  0  0  0
    4.0550    0.6321   -5.0474 H   0  0  0  0  0  0  0  0  0  0  0  0
    3.4866    2.4090   -3.9498 C   0  0  0  0  0  0  0  0  0  0  0  0
    4.3037    3.0111   -4.3357 H   0  0  0  0  0  0  0  0  0  0  0  0
    2.5730    2.9670   -3.0427 C   0  0  0  0  0  0  0  0  0  0  0  0
    2.6864    3.9990   -2.7247 H   0  0  0  0  0  0  0  0  0  0  0  0
    1.5170    2.1946   -2.5378 C   0  0  0  0  0  0  0  0  0  0  0  0
    0.8178    2.6221   -1.8270 H   0  0  0  0  0  0  0  0  0  0  0  0
    1.3809    0.8647   -2.9514 C   0  0  0  0  0  0  0  0  0  0  0  0
   -0.5016   -0.2575    0.8131 C   0  0  0  0  0  0  0  0  0  0  0  0
    0.6170    0.0050    1.2333 O   0  0  0  0  0  0  0  0  0  0  0  0
   -1.5966    0.3499    1.4037 N   0  0  0  0  0  0  0  0  0  0  0  0
   -2.5078    0.0319    1.0922 H   0  0  0  0  0  0  0  0  0  0  0  0
   -1.5050    1.0982    2.6511 C   0  0  0  0  0  0  0  0  0  0  0  0
   -0.8040    1.9331    2.5475 H   0  0  0  0  0  0  0  0  0  0  0  0
   -2.4843    1.5040    2.9214 H   0  0  0  0  0  0  0  0  0  0  0  0
   -1.1614    0.4479    3.4624 H   0  0  0  0  0  0  0  0  0  0  0  0
  1  2  1  0  0  0  0
  2  3  1  0  0  0  0
  2  4  1  0  0  0  0
  2  5  1  0  0  0  0
  5  6  2  0  0  0  0
  5  7  1  0  0  0  0
  7  8  1  0  0  0  0
  7  9  1  0  0  0  0
  9 10  1  0  0  0  0
  9 11  1  0  0  0  0
  9 29  1  0  0  0  0
 11 12  1  0  0  0  0
 11 13  1  0  0  0  0
 11 14  1  0  0  0  0
 14 15  2  0  0  0  0
 14 28  1  0  0  0  0
 15 16  1  0  0  0  0
 15 17  1  0  0  0  0
 17 18  1  0  0  0  0
 17 19  1  0  0  0  0
 19 20  1  0  0  0  0
 19 28  2  0  0  0  0
 20 21  1  0  0  0  0
 20 22  2  0  0  0  0
 22 23  1  0  0  0  0
 22 24  1  0  0  0  0
 24 25  1  0  0  0  0
 24 26  2  0  0  0  0
 26 27  1  0  0  0  0
 26 28  1  0  0  0  0
 29 30  2  0  0  0  0
 29 31  1  0  0  0  0
 31 32  1  0  0  0  0
 31 33  1  0  0  0  0
 33 34  1  0  0  0  0
 33 35  1  0  0  0  0
 33 36  1  0  0  0  0
M  END
$$$$

  -OEChem-03222214083D

 36 37  0     1  0  0  0  0  0999 V2000
   -3.1656   -4.6941    0.9234 H   0  0  0  0  0  0  0  0  0  0  0  0
   -3.1836   -3.9241    0.1466 C   0  0  0  0  0  0  0  0  0  0  0  0
   -4.1278   -3.3788    0.2150 H   0  0  0  0  0  0  0  0  0  0  0  0
   -3.1193   -4.4097   -0.8301 H   0  0  0  0  0  0  0  0  0  0  0  0
   -2.0180   -2.9707    0.3312 C   0  0  0  0  0  0  0  0  0  0  0  0
   -1.2459   -3.1311    1.2576 O   0  0  0  0  0  0  0  0  0  0  0  0
   -1.8462   -1.9210   -0.5490 N   0  0  0  0  0  0  0  0  0  0  0  0
   -2.4740   -1.8904   -1.3458 H   0  0  0  0  0  0  0  0  0  0  0  0
   -0.6805   -1.0117   -0.5407 C   0  0  1  0  0  0  0  0  0  0  0  0
    0.2224   -1.6207   -0.6663 H   0  0  0  0  0  0  0  0  0  0  0  0
   -0.7958   -0.0208   -1.7196 C   0  0  0  0  0  0  0  0  0  0  0  0
   -1.7110   -0.2124   -2.2874 H   0  0  0  0  0  0  0  0  0  0  0  0
   -0.8626    1.0105   -1.3577 H   0  0  0  0  0  0  0  0  0  0  0  0
    0.3780   -0.1475   -2.6542 C   0  0  0  0  0  0  0  0  0  0  0  0
    0.5921   -1.1569   -3.5623 C   0  0  0  0  0  0  0  0  0  0  0  0
   -0.0670   -2.0037   -3.7355 H   0  0  0  0  0  0  0  0  0  0  0  0
    1.7963   -0.8931   -4.2106 N   0  0  0  0  0  0  0  0  0  0  0  0
    2.2231   -1.4781   -4.9256 H   0  0  0  0  0  0  0  0  0  0  0  0
    2.3693    0.2654   -3.7107 C   0  0  0  0  0  0  0  0  0  0  0  0
    3.5603    0.9217   -4.0224 C   0  0  0  0  0  0  0  0  0  0  0  0
    4.2153    0.5307   -4.7926 H   0  0  0  0  0  0  0  0  0  0  0  0
    3.9016    2.0871   -3.3215 C   0  0  0  0  0  0  0  0  0  0  0  0
    4.8270    2.6069   -3.5505 H   0  0  0  0  0  0  0  0  0  0  0  0
    3.0540    2.5771   -2.3161 C   0  0  0  0  0  0  0  0  0  0  0  0
    3.3264    3.4718   -1.7644 H   0  0  0  0  0  0  0  0  0  0  0  0
    1.8585    1.9099   -2.0125 C   0  0  0  0  0  0  0  0  0  0  0  0
    1.2093    2.2761   -1.2234 H   0  0  0  0  0  0  0  0  0  0  0  0
    1.5188    0.7558   -2.7265 C   0  0  0  0  0  0  0  0  0  0  0  0
   -0.4897   -0.2281    0.7783 C   0  0  0  0  0  0  0  0  0  0  0  0
    0.6335    0.0694    1.1624 O   0  0  0  0  0  0  0  0  0  0  0  0
   -1.5809    0.3662    1.3888 N   0  0  0  0  0  0  0  0  0  0  0  0
   -2.4922    0.0214    1.1075 H   0  0  0  0  0  0  0  0  0  0  0  0
   -1.4725    1.1249    2.6284 C   0  0  0  0  0  0  0  0  0  0  0  0
   -0.7880    1.9704    2.5023 H   0  0  0  0  0  0  0  0  0  0  0  0
   -2.4519    1.5162    2.9190 H   0  0  0  0  0  0  0  0  0  0  0  0
   -1.0989    0.4863    3.4359 H   0  0  0  0  0  0  0  0  0  0  0  0
  1  2  1  0  0  0  0
  2  3  1  0  0  0  0
  2  4  1  0  0  0  0
  2  5  1  0  0  0  0
  5  6  2  0  0  0  0
  5  7  1  0  0  0  0
  7  8  1  0  0  0  0
  7  9  1  0  0  0  0
  9 10  1  0  0  0  0
  9 11  1  0  0  0  0
  9 29  1  0  0  0  0
 11 12  1  0  0  0  0
 11 13  1  0  0  0  0
 11 14  1  0  0  0  0
 14 15  2  0  0  0  0
 14 28  1  0  0  0  0
 15 16  1  0  0  0  0
 15 17  1  0  0  0  0
 17 18  1  0  0  0  0
 17 19  1  0  0  0  0
 19 20  1  0  0  0  0
 19 28  2  0  0  0  0
 20 21  1  0  0  0  0
 20 22  2  0  0  0  0
 22 23  1  0  0  0  0
 22 24  1  0  0  0  0
 24 25  1  0  0  0  0
 24 26  2  0  0  0  0
 26 27  1  0  0  0  0
 26 28  1  0  0  0  0
 29 30  2  0  0  0  0
 29 31  1  0  0  0  0
 31 32  1  0  0  0  0
 31 33  1  0  0  0  0
 33 34  1  0  0  0  0
 33 35  1  0  0  0  0
 33 36  1  0  0  0  0
M  END
$$$$

  -OEChem-03222214083D

 36 37  0     1  0  0  0  0  0999 V2000
   -3.1428   -4.6971    0.9015 H   0  0  0  0  0  0  0  0  0  0  0  0
   -3.1598   -3.9243    0.1276 C   0  0  0  0  0  0  0  0  0  0  0  0
   -4.1104   -3.3891    0.1876 H   0  0  0  0  0  0  0  0  0  0  0  0
   -3.0799   -4.4058   -0.8499 H   0  0  0  0  0  0  0  0  0  0  0  0
   -2.0057   -2.9599    0.3287 C   0  0  0  0  0  0  0  0  0  0  0  0
   -1.2458   -3.1139    1.2664 O   0  0  0  0  0  0  0  0  0  0  0  0
   -1.8324   -1.9068   -0.5474 N   0  0  0  0  0  0  0  0  0  0  0  0
   -2.4385   -1.8934   -1.3609 H   0  0  0  0  0  0  0  0  0  0  0  0
   -0.6649   -0.9996   -0.5344 C   0  0  1  0  0  0  0  0  0  0  0  0
    0.2379   -1.6077   -0.6668 H   0  0  0  0  0  0  0  0  0  0  0  0
   -0.7850   -0.0008   -1.7066 C   0  0  0  0  0  0  0  0  0  0  0  0
   -1.7055   -0.1864   -2.2681 H   0  0  0  0  0  0  0  0  0  0  0  0
   -0.8429    1.0298   -1.3402 H   0  0  0  0  0  0  0  0  0  0  0  0
    0.3861   -0.1248   -2.6446 C   0  0  0  0  0  0  0  0  0  0  0  0
    0.4703   -0.9469   -3.7431 C   0  0  0  0  0  0  0  0  0  0  0  0
   -0.3078   -1.6213   -4.0919 H   0  0  0  0  0  0  0  0  0  0  0  0
    1.7231   -0.7533   -4.3205 N   0  0  0  0  0  0  0  0  0  0  0  0
    2.0756   -1.2357   -5.1443 H   0  0  0  0  0  0  0  0  0  0  0  0
    2.4510    0.1741   -3.5924 C   0  0  0  0  0  0  0  0  0  0  0  0
    3.7381    0.6846   -3.7617 C   0  0  0  0  0  0  0  0  0  0  0  0
    4.3510    0.3589   -4.5945 H   0  0  0  0  0  0  0  0  0  0  0  0
    4.2292    1.6188   -2.8385 C   0  0  0  0  0  0  0  0  0  0  0  0
    5.2303    2.0229   -2.9548 H   0  0  0  0  0  0  0  0  0  0  0  0
    3.4319    2.0254   -1.7575 C   0  0  0  0  0  0  0  0  0  0  0  0
    3.8173    2.7379   -1.0345 H   0  0  0  0  0  0  0  0  0  0  0  0
    2.1390    1.5068   -1.5987 C   0  0  0  0  0  0  0  0  0  0  0  0
    1.5268    1.8075   -0.7538 H   0  0  0  0  0  0  0  0  0  0  0  0
    1.6530    0.5841   -2.5308 C   0  0  0  0  0  0  0  0  0  0  0  0
   -0.4766   -0.2238    0.7905 C   0  0  0  0  0  0  0  0  0  0  0  0
    0.6449    0.0683    1.1839 O   0  0  0  0  0  0  0  0  0  0  0  0
   -1.5692    0.3678    1.4011 N   0  0  0  0  0  0  0  0  0  0  0  0
   -2.4793    0.0255    1.1129 H   0  0  0  0  0  0  0  0  0  0  0  0
   -1.4666    1.1148    2.6485 C   0  0  0  0  0  0  0  0  0  0  0  0
   -0.7806    1.9609    2.5352 H   0  0  0  0  0  0  0  0  0  0  0  0
   -2.4474    1.5043    2.9369 H   0  0  0  0  0  0  0  0  0  0  0  0
   -1.0988    0.4683    3.4522 H   0  0  0  0  0  0  0  0  0  0  0  0
  1  2  1  0  0  0  0
  2  3  1  0  0  0  0
  2  4  1  0  0  0  0
  2  5  1  0  0  0  0
  5  6  2  0  0  0  0
  5  7  1  0  0  0  0
  7  8  1  0  0  0  0
  7  9  1  0  0  0  0
  9 10  1  0  0  0  0
  9 11  1  0  0  0  0
  9 29  1  0  0  0  0
 11 12  1  0  0  0  0
 11 13  1  0  0  0  0
 11 14  1  0  0  0  0
 14 15  2  0  0  0  0
 14 28  1  0  0  0  0
 15 16  1  0  0  0  0
 15 17  1  0  0  0  0
 17 18  1  0  0  0  0
 17 19  1  0  0  0  0
 19 20  1  0  0  0  0
 19 28  2  0  0  0  0
 20 21  1  0  0  0  0
 20 22  2  0  0  0  0
 22 23  1  0  0  0  0
 22 24  1  0  0  0  0
 24 25  1  0  0  0  0
 24 26  2  0  0  0  0
 26 27  1  0  0  0  0
 26 28  1  0  0  0  0
 29 30  2  0  0  0  0
 29 31  1  0  0  0  0
 31 32  1  0  0  0  0
 31 33  1  0  0  0  0
 33 34  1  0  0  0  0
 33 35  1  0  0  0  0
 33 36  1  0  0  0  0
M  END
$$$$

  -OEChem-03222214083D

 36 37  0     1  0  0  0  0  0999 V2000
   -3.2071   -4.6851    0.8466 H   0  0  0  0  0  0  0  0  0  0  0  0
   -3.1912   -3.9036    0.0813 C   0  0  0  0  0  0  0  0  0  0  0  0
   -4.1429   -3.3677    0.1073 H   0  0  0  0  0  0  0  0  0  0  0  0
   -3.0701   -4.3744   -0.8971 H   0  0  0  0  0  0  0  0  0  0  0  0
   -2.0456   -2.9433    0.3408 C   0  0  0  0  0  0  0  0  0  0  0  0
   -1.3373   -3.0996    1.3175 O   0  0  0  0  0  0  0  0  0  0  0  0
   -1.8247   -1.8927   -0.5283 N   0  0  0  0  0  0  0  0  0  0  0  0
   -2.3785   -1.8952   -1.3783 H   0  0  0  0  0  0  0  0  0  0  0  0
   -0.6377   -1.0111   -0.4816 C   0  0  1  0  0  0  0  0  0  0  0  0
    0.2601   -1.6300   -0.5974 H   0  0  0  0  0  0  0  0  0  0  0  0
   -0.7279   -0.0058   -1.6545 C   0  0  0  0  0  0  0  0  0  0  0  0
   -1.6502   -0.1644   -2.2214 H   0  0  0  0  0  0  0  0  0  0  0  0
   -0.7628    1.0222   -1.2779 H   0  0  0  0  0  0  0  0  0  0  0  0
    0.4488   -0.1344   -2.5878 C   0  0  0  0  0  0  0  0  0  0  0  0
    0.4173   -0.7214   -3.8308 C   0  0  0  0  0  0  0  0  0  0  0  0
   -0.4532   -1.1803   -4.2929 H   0  0  0  0  0  0  0  0  0  0  0  0
    1.6920   -0.6211   -4.3811 N   0  0  0  0  0  0  0  0  0  0  0  0
    1.9730   -0.9750   -5.2929 H   0  0  0  0  0  0  0  0  0  0  0  0
    2.5410    0.0390   -3.5087 C   0  0  0  0  0  0  0  0  0  0  0  0
    3.8887    0.3829   -3.6171 C   0  0  0  0  0  0  0  0  0  0  0  0
    4.4509    0.1209   -4.5062 H   0  0  0  0  0  0  0  0  0  0  0  0
    4.5043    1.0708   -2.5626 C   0  0  0  0  0  0  0  0  0  0  0  0
    5.5530    1.3444   -2.6300 H   0  0  0  0  0  0  0  0  0  0  0  0
    3.7657    1.4061   -1.4180 C   0  0  0  0  0  0  0  0  0  0  0  0
    4.2416    1.9362   -0.5985 H   0  0  0  0  0  0  0  0  0  0  0  0
    2.4116    1.0556   -1.3219 C   0  0  0  0  0  0  0  0  0  0  0  0
    1.8450    1.3177   -0.4349 H   0  0  0  0  0  0  0  0  0  0  0  0
    1.8033    0.3650   -2.3754 C   0  0  0  0  0  0  0  0  0  0  0  0
   -0.4878   -0.2511    0.8581 C   0  0  0  0  0  0  0  0  0  0  0  0
    0.6190   -0.0247    1.3286 O   0  0  0  0  0  0  0  0  0  0  0  0
   -1.5928    0.3534    1.4324 N   0  0  0  0  0  0  0  0  0  0  0  0
   -2.4956    0.0382    1.0942 H   0  0  0  0  0  0  0  0  0  0  0  0
   -1.5310    1.0470    2.7126 C   0  0  0  0  0  0  0  0  0  0  0  0
   -0.8232    1.8812    2.6635 H   0  0  0  0  0  0  0  0  0  0  0  0
   -2.5152    1.4464    2.9742 H   0  0  0  0  0  0  0  0  0  0  0  0
   -1.2120    0.3601    3.5036 H   0  0  0  0  0  0  0  0  0  0  0  0
  1  2  1  0  0  0  0
  2  3  1  0  0  0  0
  2  4  1  0  0  0  0
  2  5  1  0  0  0  0
  5  6  2  0  0  0  0
  5  7  1  0  0  0  0
  7  8  1  0  0  0  0
  7  9  1  0  0  0  0
  9 10  1  0  0  0  0
  9 11  1  0  0  0  0
  9 29  1  0  0  0  0
 11 12  1  0  0  0  0
 11 13  1  0  0  0  0
 11 14  1  0  0  0  0
 14 15  2  0  0  0  0
 14 28  1  0  0  0  0
 15 16  1  0  0  0  0
 15 17  1  0  0  0  0
 17 18  1  0  0  0  0
 17 19  1  0  0  0  0
 19 20  1  0  0  0  0
 19 28  2  0  0  0  0
 20 21  1  0  0  0  0
 20 22  2  0  0  0  0
 22 23  1  0  0  0  0
 22 24  1  0  0  0  0
 24 25  1  0  0  0  0
 24 26  2  0  0  0  0
 26 27  1  0  0  0  0
 26 28  1  0  0  0  0
 29 30  2  0  0  0  0
 29 31  1  0  0  0  0
 31 32  1  0  0  0  0
 31 33  1  0  0  0  0
 33 34  1  0  0  0  0
 33 35  1  0  0  0  0
 33 36  1  0  0  0  0
M  END
$$$$

  -OEChem-03222214083D

 36 37  0     1  0  0  0  0  0999 V2000
   -3.2922   -4.6614    0.8224 H   0  0  0  0  0  0  0  0  0  0  0  0
   -3.2541   -3.8635    0.0752 C   0  0  0  0  0  0  0  0  0  0  0  0
   -4.1916   -3.3036    0.1113 H   0  0  0  0  0  0  0  0  0  0  0  0
   -3.1429   -4.3152   -0.9133 H   0  0  0  0  0  0  0  0  0  0  0  0
   -2.0854   -2.9389    0.3600 C   0  0  0  0  0  0  0  0  0  0  0  0
   -1.4111   -3.1106    1.3579 O   0  0  0  0  0  0  0  0  0  0  0  0
   -1.8107   -1.8998   -0.5079 N   0  0  0  0  0  0  0  0  0  0  0  0
   -2.3312   -1.9019   -1.3789 H   0  0  0  0  0  0  0  0  0  0  0  0
   -0.6077   -1.0415   -0.4273 C   0  0  1  0  0  0  0  0  0  0  0  0
    0.2872   -1.6686   -0.5142 H   0  0  0  0  0  0  0  0  0  0  0  0
   -0.6653   -0.0394   -1.6077 C   0  0  0  0  0  0  0  0  0  0  0  0
   -1.5895   -0.1727   -2.1783 H   0  0  0  0  0  0  0  0  0  0  0  0
   -0.6804    0.9861   -1.2232 H   0  0  0  0  0  0  0  0  0  0  0  0
    0.5160   -0.1639   -2.5411 C   0  0  0  0  0  0  0  0  0  0  0  0
    0.4059   -0.4726   -3.8773 C   0  0  0  0  0  0  0  0  0  0  0  0
   -0.5213   -0.6889   -4.4021 H   0  0  0  0  0  0  0  0  0  0  0  0
    1.6827   -0.4619   -4.4289 N   0  0  0  0  0  0  0  0  0  0  0  0
    1.9099   -0.6564   -5.4018 H   0  0  0  0  0  0  0  0  0  0  0  0
    2.6147   -0.1128   -3.4677 C   0  0  0  0  0  0  0  0  0  0  0  0
    3.9973    0.0505   -3.5538 C   0  0  0  0  0  0  0  0  0  0  0  0
    4.5120   -0.1195   -4.4927 H   0  0  0  0  0  0  0  0  0  0  0  0
    4.7096    0.4409   -2.4127 C   0  0  0  0  0  0  0  0  0  0  0  0
    5.7864    0.5721   -2.4607 H   0  0  0  0  0  0  0  0  0  0  0  0
    4.0299    0.6693   -1.2079 C   0  0  0  0  0  0  0  0  0  0  0  0
    4.5781    0.9776   -0.3227 H   0  0  0  0  0  0  0  0  0  0  0  0
    2.6398    0.5020   -1.1368 C   0  0  0  0  0  0  0  0  0  0  0  0
    2.1263    0.6946   -0.2031 H   0  0  0  0  0  0  0  0  0  0  0  0
    1.9308    0.0960   -2.2731 C   0  0  0  0  0  0  0  0  0  0  0  0
   -0.5124   -0.2841    0.9206 C   0  0  0  0  0  0  0  0  0  0  0  0
    0.5638   -0.1156    1.4774 O   0  0  0  0  0  0  0  0  0  0  0  0
   -1.6359    0.3351    1.4413 N   0  0  0  0  0  0  0  0  0  0  0  0
   -2.5231    0.0523    1.0392 H   0  0  0  0  0  0  0  0  0  0  0  0
   -1.6380    0.9858    2.7454 C   0  0  0  0  0  0  0  0  0  0  0  0
   -0.9010    1.7953    2.7717 H   0  0  0  0  0  0  0  0  0  0  0  0
   -2.6240    1.4115    2.9543 H   0  0  0  0  0  0  0  0  0  0  0  0
   -1.3964    0.2635    3.5325 H   0  0  0  0  0  0  0  0  0  0  0  0
  1  2  1  0  0  0  0
  2  3  1  0  0  0  0
  2  4  1  0  0  0  0
  2  5  1  0  0  0  0
  5  6  2  0  0  0  0
  5  7  1  0  0  0  0
  7  8  1  0  0  0  0
  7  9  1  0  0  0  0
  9 10  1  0  0  0  0
  9 11  1  0  0  0  0
  9 29  1  0  0  0  0
 11 12  1  0  0  0  0
 11 13  1  0  0  0  0
 11 14  1  0  0  0  0
 14 15  2  0  0  0  0
 14 28  1  0  0  0  0
 15 16  1  0  0  0  0
 15 17  1  0  0  0  0
 17 18  1  0  0  0  0
 17 19  1  0  0  0  0
 19 20  1  0  0  0  0
 19 28  2  0  0  0  0
 20 21  1  0  0  0  0
 20 22  2  0  0  0  0
 22 23  1  0  0  0  0
 22 24  1  0  0  0  0
 24 25  1  0  0  0  0
 24 26  2  0  0  0  0
 26 27  1  0  0  0  0
 26 28  1  0  0  0  0
 29 30  2  0  0  0  0
 29 31  1  0  0  0  0
 31 32  1  0  0  0  0
 31 33  1  0  0  0  0
 33 34  1  0  0  0  0
 33 35  1  0  0  0  0
 33 36  1  0  0  0  0
M  END
$$$$

  -OEChem-03222214083D

 36 37  0     1  0  0  0  0  0999 V2000
   -3.3145   -4.6727    0.8151 H   0  0  0  0  0  0  0  0  0  0  0  0
   -3.2543   -3.8831    0.0602 C   0  0  0  0  0  0  0  0  0  0  0  0
   -4.2016   -3.3390    0.0440 H   0  0  0  0  0  0  0  0  0  0  0  0
   -3.0881   -4.3447   -0.9161 H   0  0  0  0  0  0  0  0  0  0  0  0
   -2.1164   -2.9347    0.3878 C   0  0  0  0  0  0  0  0  0  0  0  0
   -1.4845   -3.0858    1.4163 O   0  0  0  0  0  0  0  0  0  0  0  0
   -1.8128   -1.9078   -0.4852 N   0  0  0  0  0  0  0  0  0  0  0  0
   -2.2897   -1.9385   -1.3804 H   0  0  0  0  0  0  0  0  0  0  0  0
   -0.6061   -1.0572   -0.3823 C   0  0  1  0  0  0  0  0  0  0  0  0
    0.2860   -1.6901   -0.4446 H   0  0  0  0  0  0  0  0  0  0  0  0
   -0.6354   -0.0568   -1.5657 C   0  0  0  0  0  0  0  0  0  0  0  0
   -1.5586   -0.1734   -2.1418 H   0  0  0  0  0  0  0  0  0  0  0  0
   -0.6422    0.9655   -1.1725 H   0  0  0  0  0  0  0  0  0  0  0  0
    0.5500   -0.1630   -2.5010 C   0  0  0  0  0  0  0  0  0  0  0  0
    0.4095   -0.1582   -3.8702 C   0  0  0  0  0  0  0  0  0  0  0  0
   -0.5340   -0.1017   -4.4078 H   0  0  0  0  0  0  0  0  0  0  0  0
    1.6755   -0.2375   -4.4383 N   0  0  0  0  0  0  0  0  0  0  0  0
    1.8792   -0.2497   -5.4354 H   0  0  0  0  0  0  0  0  0  0  0  0
    2.6396   -0.2622   -3.4482 C   0  0  0  0  0  0  0  0  0  0  0  0
    4.0301   -0.3152   -3.5417 C   0  0  0  0  0  0  0  0  0  0  0  0
    4.5134   -0.3562   -4.5112 H   0  0  0  0  0  0  0  0  0  0  0  0
    4.7922   -0.3093   -2.3672 C   0  0  0  0  0  0  0  0  0  0  0  0
    5.8760   -0.3484   -2.4197 H   0  0  0  0  0  0  0  0  0  0  0  0
    4.1537   -0.2465   -1.1214 C   0  0  0  0  0  0  0  0  0  0  0  0
    4.7406   -0.2364   -0.2077 H   0  0  0  0  0  0  0  0  0  0  0  0
    2.7549   -0.1937   -1.0448 C   0  0  0  0  0  0  0  0  0  0  0  0
    2.2827   -0.1365   -0.0735 H   0  0  0  0  0  0  0  0  0  0  0  0
    1.9890   -0.2088   -2.2172 C   0  0  0  0  0  0  0  0  0  0  0  0
   -0.5484   -0.2876    0.9632 C   0  0  0  0  0  0  0  0  0  0  0  0
    0.5102   -0.1103    1.5499 O   0  0  0  0  0  0  0  0  0  0  0  0
   -1.6847    0.3414    1.4433 N   0  0  0  0  0  0  0  0  0  0  0  0
   -2.5611    0.0569    1.0196 H   0  0  0  0  0  0  0  0  0  0  0  0
   -1.7213    1.0203    2.7326 C   0  0  0  0  0  0  0  0  0  0  0  0
   -0.9866    1.8320    2.7595 H   0  0  0  0  0  0  0  0  0  0  0  0
   -2.7128    1.4486    2.9072 H   0  0  0  0  0  0  0  0  0  0  0  0
   -1.4988    0.3159    3.5411 H   0  0  0  0  0  0  0  0  0  0  0  0
  1  2  1  0  0  0  0
  2  3  1  0  0  0  0
  2  4  1  0  0  0  0
  2  5  1  0  0  0  0
  5  6  2  0  0  0  0
  5  7  1  0  0  0  0
  7  8  1  0  0  0  0
  7  9  1  0  0  0  0
  9 10  1  0  0  0  0
  9 11  1  0  0  0  0
  9 29  1  0  0  0  0
 11 12  1  0  0  0  0
 11 13  1  0  0  0  0
 11 14  1  0  0  0  0
 14 15  2  0  0  0  0
 14 28  1  0  0  0  0
 15 16  1  0  0  0  0
 15 17  1  0  0  0  0
 17 18  1  0  0  0  0
 17 19  1  0  0  0  0
 19 20  1  0  0  0  0
 19 28  2  0  0  0  0
 20 21  1  0  0  0  0
 20 22  2  0  0  0  0
 22 23  1  0  0  0  0
 22 24  1  0  0  0  0
 24 25  1  0  0  0  0
 24 26  2  0  0  0  0
 26 27  1  0  0  0  0
 26 28  1  0  0  0  0
 29 30  2  0  0  0  0
 29 31  1  0  0  0  0
 31 32  1  0  0  0  0
 31 33  1  0  0  0  0
 33 34  1  0  0  0  0
 33 35  1  0  0  0  0
 33 36  1  0  0  0  0
M  END
$$$$

  -OEChem-03222214083D

 36 37  0     1  0  0  0  0  0999 V2000
   -3.4082   -4.6752    0.8032 H   0  0  0  0  0  0  0  0  0  0  0  0
   -3.3341   -3.8875    0.0479 C   0  0  0  0  0  0  0  0  0  0  0  0
   -4.2751   -3.3331    0.0245 H   0  0  0  0  0  0  0  0  0  0  0  0
   -3.1669   -4.3523   -0.9266 H   0  0  0  0  0  0  0  0  0  0  0  0
   -2.1877   -2.9512    0.3817 C   0  0  0  0  0  0  0  0  0  0  0  0
   -1.5642   -3.1049    1.4153 O   0  0  0  0  0  0  0  0  0  0  0  0
   -1.8691   -1.9260   -0.4871 N   0  0  0  0  0  0  0  0  0  0  0  0
   -2.3342   -1.9554   -1.3888 H   0  0  0  0  0  0  0  0  0  0  0  0
   -0.6494   -1.0968   -0.3771 C   0  0  1  0  0  0  0  0  0  0  0  0
    0.2131   -1.7661   -0.4348 H   0  0  0  0  0  0  0  0  0  0  0  0
   -0.6347   -0.1047   -1.5659 C   0  0  0  0  0  0  0  0  0  0  0  0
   -1.5509   -0.2070   -2.1558 H   0  0  0  0  0  0  0  0  0  0  0  0
   -0.6315    0.9182   -1.1738 H   0  0  0  0  0  0  0  0  0  0  0  0
    0.5588   -0.2232   -2.4917 C   0  0  0  0  0  0  0  0  0  0  0  0
    0.4648    0.0859   -3.8295 C   0  0  0  0  0  0  0  0  0  0  0  0
   -0.4422    0.3974   -4.3422 H   0  0  0  0  0  0  0  0  0  0  0  0
    1.7200   -0.0712   -4.4037 N   0  0  0  0  0  0  0  0  0  0  0  0
    1.9496    0.0936   -5.3814 H   0  0  0  0  0  0  0  0  0  0  0  0
    2.6410   -0.4333   -3.4389 C   0  0  0  0  0  0  0  0  0  0  0  0
    4.0120   -0.6652   -3.5483 C   0  0  0  0  0  0  0  0  0  0  0  0
    4.5072   -0.5860   -4.5094 H   0  0  0  0  0  0  0  0  0  0  0  0
    4.7409   -0.9933   -2.3995 C   0  0  0  0  0  0  0  0  0  0  0  0
    5.8094   -1.1753   -2.4638 H   0  0  0  0  0  0  0  0  0  0  0  0
    4.0902   -1.0757   -1.1617 C   0  0  0  0  0  0  0  0  0  0  0  0
    4.6532   -1.3178   -0.2652 H   0  0  0  0  0  0  0  0  0  0  0  0
    2.7117   -0.8399   -1.0683 C   0  0  0  0  0  0  0  0  0  0  0  0
    2.2404   -0.8956   -0.0952 H   0  0  0  0  0  0  0  0  0  0  0  0
    1.9723   -0.5281   -2.2192 C   0  0  0  0  0  0  0  0  0  0  0  0
   -0.5534   -0.3234    0.9622 C   0  0  0  0  0  0  0  0  0  0  0  0
    0.5290   -0.1293    1.4988 O   0  0  0  0  0  0  0  0  0  0  0  0
   -1.6665    0.3356    1.4553 N   0  0  0  0  0  0  0  0  0  0  0  0
   -2.5586    0.0470    1.0683 H   0  0  0  0  0  0  0  0  0  0  0  0
   -1.6555    1.0545    2.7233 C   0  0  0  0  0  0  0  0  0  0  0  0
   -0.9066    1.8535    2.7053 H   0  0  0  0  0  0  0  0  0  0  0  0
   -2.6344    1.5057    2.9108 H   0  0  0  0  0  0  0  0  0  0  0  0
   -1.4225    0.3717    3.5473 H   0  0  0  0  0  0  0  0  0  0  0  0
  1  2  1  0  0  0  0
  2  3  1  0  0  0  0
  2  4  1  0  0  0  0
  2  5  1  0  0  0  0
  5  6  2  0  0  0  0
  5  7  1  0  0  0  0
  7  8  1  0  0  0  0
  7  9  1  0  0  0  0
  9 10  1  0  0  0  0
  9 11  1  0  0  0  0
  9 29  1  0  0  0  0
 11 12  1  0  0  0  0
 11 13  1  0  0  0  0
 11 14  1  0  0  0  0
 14 15  2  0  0  0  0
 14 28  1  0  0  0  0
 15 16  1  0  0  0  0
 15 17  1  0  0  0  0
 17 18  1  0  0  0  0
 17 19  1  0  0  0  0
 19 20  1  0  0  0  0
 19 28  2  0  0  0  0
 20 21  1  0  0  0  0
 20 22  2  0  0  0  0
 22 23  1  0  0  0  0
 22 24  1  0  0  0  0
 24 25  1  0  0  0  0
 24 26  2  0  0  0  0
 26 27  1  0  0  0  0
 26 28  1  0  0  0  0
 29 30  2  0  0  0  0
 29 31  1  0  0  0  0
 31 32  1  0  0  0  0
 31 33  1  0  0  0  0
 33 34  1  0  0  0  0
 33 35  1  0  0  0  0
 33 36  1  0  0  0  0
M  END
$$$$

  -OEChem-03222214083D

 36 37  0     1  0  0  0  0  0999 V2000
   -3.5428   -4.6645    0.7764 H   0  0  0  0  0  0  0  0  0  0  0  0
   -3.4597   -3.8728    0.0263 C   0  0  0  0  0  0  0  0  0  0  0  0
   -4.3929   -3.3047    0.0093 H   0  0  0  0  0  0  0  0  0  0  0  0
   -3.3014   -4.3333   -0.9519 H   0  0  0  0  0  0  0  0  0  0  0  0
   -2.2986   -2.9560    0.3634 C   0  0  0  0  0  0  0  0  0  0  0  0
   -1.6760   -3.1228    1.3958 O   0  0  0  0  0  0  0  0  0  0  0  0
   -1.9666   -1.9294   -0.4985 N   0  0  0  0  0  0  0  0  0  0  0  0
   -2.4351   -1.9443   -1.3988 H   0  0  0  0  0  0  0  0  0  0  0  0
   -0.7242   -1.1360   -0.3907 C   0  0  1  0  0  0  0  0  0  0  0  0
    0.0912   -1.8559   -0.4538 H   0  0  0  0  0  0  0  0  0  0  0  0
   -0.6567   -0.1632   -1.5917 C   0  0  0  0  0  0  0  0  0  0  0  0
   -1.5635   -0.2573   -2.1972 H   0  0  0  0  0  0  0  0  0  0  0  0
   -0.6435    0.8643   -1.2124 H   0  0  0  0  0  0  0  0  0  0  0  0
    0.5415   -0.3140   -2.5090 C   0  0  0  0  0  0  0  0  0  0  0  0
    0.5400    0.2707   -3.7548 C   0  0  0  0  0  0  0  0  0  0  0  0
   -0.2957    0.8097   -4.1952 H   0  0  0  0  0  0  0  0  0  0  0  0
    1.7719    0.0388   -4.3509 N   0  0  0  0  0  0  0  0  0  0  0  0
    2.0531    0.3592   -5.2750 H   0  0  0  0  0  0  0  0  0  0  0  0
    2.6066   -0.6180   -3.4682 C   0  0  0  0  0  0  0  0  0  0  0  0
    3.9389   -0.9987   -3.6246 C   0  0  0  0  0  0  0  0  0  0  0  0
    4.4545   -0.8192   -4.5611 H   0  0  0  0  0  0  0  0  0  0  0  0
    4.6049   -1.5999   -2.5518 C   0  0  0  0  0  0  0  0  0  0  0  0
    5.6434   -1.9006   -2.6526 H   0  0  0  0  0  0  0  0  0  0  0  0
    3.9348   -1.7914   -1.3376 C   0  0  0  0  0  0  0  0  0  0  0  0
    4.4561   -2.2331   -0.4936 H   0  0  0  0  0  0  0  0  0  0  0  0
    2.5953   -1.4023   -1.1959 C   0  0  0  0  0  0  0  0  0  0  0  0
    2.1285   -1.5311   -0.2265 H   0  0  0  0  0  0  0  0  0  0  0  0
    1.9046   -0.8351   -2.2819 C   0  0  0  0  0  0  0  0  0  0  0  0
   -0.5522   -0.3685    0.9404 C   0  0  0  0  0  0  0  0  0  0  0  0
    0.5623   -0.2140    1.4222 O   0  0  0  0  0  0  0  0  0  0  0  0
   -1.6182    0.3349    1.4732 N   0  0  0  0  0  0  0  0  0  0  0  0
   -2.5360    0.0756    1.1273 H   0  0  0  0  0  0  0  0  0  0  0  0
   -1.5277    1.0567    2.7361 C   0  0  0  0  0  0  0  0  0  0  0  0
   -0.7477    1.8239    2.6852 H   0  0  0  0  0  0  0  0  0  0  0  0
   -2.4791    1.5488    2.9595 H   0  0  0  0  0  0  0  0  0  0  0  0
   -1.2916    0.3674    3.5538 H   0  0  0  0  0  0  0  0  0  0  0  0
  1  2  1  0  0  0  0
  2  3  1  0  0  0  0
  2  4  1  0  0  0  0
  2  5  1  0  0  0  0
  5  6  2  0  0  0  0
  5  7  1  0  0  0  0
  7  8  1  0  0  0  0
  7  9  1  0  0  0  0
  9 10  1  0  0  0  0
  9 11  1  0  0  0  0
  9 29  1  0  0  0  0
 11 12  1  0  0  0  0
 11 13  1  0  0  0  0
 11 14  1  0  0  0  0
 14 15  2  0  0  0  0
 14 28  1  0  0  0  0
 15 16  1  0  0  0  0
 15 17  1  0  0  0  0
 17 18  1  0  0  0  0
 17 19  1  0  0  0  0
 19 20  1  0  0  0  0
 19 28  2  0  0  0  0
 20 21  1  0  0  0  0
 20 22  2  0  0  0  0
 22 23  1  0  0  0  0
 22 24  1  0  0  0  0
 24 25  1  0  0  0  0
 24 26  2  0  0  0  0
 26 27  1  0  0  0  0
 26 28  1  0  0  0  0
 29 30  2  0  0  0  0
 29 31  1  0  0  0  0
 31 32  1  0  0  0  0
 31 33  1  0  0  0  0
 33 34  1  0  0  0  0
 33 35  1  0  0  0  0
 33 36  1  0  0  0  0
M  END
$$$$

  -OEChem-03222214083D

 36 37  0     1  0  0  0  0  0999 V2000
   -3.3357   -4.6605    0.9719 H   0  0  0  0  0  0  0  0  0  0  0  0
   -3.2053   -3.9417    0.1577 C   0  0  0  0  0  0  0  0  0  0  0  0
   -4.1538   -3.4264   -0.0114 H   0  0  0  0  0  0  0  0  0  0  0  0
   -2.9259   -4.4847   -0.7484 H   0  0  0  0  0  0  0  0  0  0  0  0
   -2.1249   -2.9383    0.5153 C   0  0  0  0  0  0  0  0  0  0  0  0
   -1.5689   -3.0077    1.5956 O   0  0  0  0  0  0  0  0  0  0  0  0
   -1.7777   -1.9569   -0.3918 N   0  0  0  0  0  0  0  0  0  0  0  0
   -2.1641   -2.0655   -1.3249 H   0  0  0  0  0  0  0  0  0  0  0  0
   -0.5993   -1.0762   -0.2493 C   0  0  1  0  0  0  0  0  0  0  0  0
    0.3102   -1.6647   -0.1685 H   0  0  0  0  0  0  0  0  0  0  0  0
   -0.5373   -0.1323   -1.4686 C   0  0  0  0  0  0  0  0  0  0  0  0
   -1.5210   -0.0875   -1.9466 H   0  0  0  0  0  0  0  0  0  0  0  0
   -0.3194    0.8821   -1.1157 H   0  0  0  0  0  0  0  0  0  0  0  0
    0.5043   -0.4405   -2.5289 C   0  0  0  0  0  0  0  0  0  0  0  0
    0.5872    0.3863   -3.6257 C   0  0  0  0  0  0  0  0  0  0  0  0
    0.0060    1.2942   -3.7719 H   0  0  0  0  0  0  0  0  0  0  0  0
    1.5403   -0.1247   -4.4929 N   0  0  0  0  0  0  0  0  0  0  0  0
    1.8315    0.3000   -5.3709 H   0  0  0  0  0  0  0  0  0  0  0  0
    2.0432   -1.3090   -3.9939 C   0  0  0  0  0  0  0  0  0  0  0  0
    2.9922   -2.1603   -4.5575 C   0  0  0  0  0  0  0  0  0  0  0  0
    3.4596   -1.9109   -5.5035 H   0  0  0  0  0  0  0  0  0  0  0  0
    3.3274   -3.3414   -3.8898 C   0  0  0  0  0  0  0  0  0  0  0  0
    4.0656   -4.0165   -4.3127 H   0  0  0  0  0  0  0  0  0  0  0  0
    2.7015   -3.6535   -2.6777 C   0  0  0  0  0  0  0  0  0  0  0  0
    2.9538   -4.5750   -2.1616 H   0  0  0  0  0  0  0  0  0  0  0  0
    1.7508   -2.7846   -2.1228 C   0  0  0  0  0  0  0  0  0  0  0  0
    1.2914   -3.0854   -1.1913 H   0  0  0  0  0  0  0  0  0  0  0  0
    1.4188   -1.5802   -2.7735 C   0  0  0  0  0  0  0  0  0  0  0  0
   -0.6318   -0.2208    1.0400 C   0  0  0  0  0  0  0  0  0  0  0  0
    0.4138    0.0825    1.5995 O   0  0  0  0  0  0  0  0  0  0  0  0
   -1.7995    0.4232    1.4116 N   0  0  0  0  0  0  0  0  0  0  0  0
   -2.6542    0.0607    1.0024 H   0  0  0  0  0  0  0  0  0  0  0  0
   -1.8942    1.2528    2.6061 C   0  0  0  0  0  0  0  0  0  0  0  0
   -1.1884    2.0883    2.5501 H   0  0  0  0  0  0  0  0  0  0  0  0
   -2.9040    1.6626    2.7028 H   0  0  0  0  0  0  0  0  0  0  0  0
   -1.6704    0.6619    3.5007 H   0  0  0  0  0  0  0  0  0  0  0  0
  1  2  1  0  0  0  0
  2  3  1  0  0  0  0
  2  4  1  0  0  0  0
  2  5  1  0  0  0  0
  5  6  2  0  0  0  0
  5  7  1  0  0  0  0
  7  8  1  0  0  0  0
  7  9  1  0  0  0  0
  9 10  1  0  0  0  0
  9 11  1  0  0  0  0
  9 29  1  0  0  0  0
 11 12  1  0  0  0  0
 11 13  1  0  0  0  0
 11 14  1  0  0  0  0
 14 15  2  0  0  0  0
 14 28  1  0  0  0  0
 15 16  1  0  0  0  0
 15 17  1  0  0  0  0
 17 18  1  0  0  0  0
 17 19  1  0  0  0  0
 19 20  1  0  0  0  0
 19 28  2  0  0  0  0
 20 21  1  0  0  0  0
 20 22  2  0  0  0  0
 22 23  1  0  0  0  0
 22 24  1  0  0  0  0
 24 25  1  0  0  0  0
 24 26  2  0  0  0  0
 26 27  1  0  0  0  0
 26 28  1  0  0  0  0
 29 30  2  0  0  0  0
 29 31  1  0  0  0  0
 31 32  1  0  0  0  0
 31 33  1  0  0  0  0
 33 34  1  0  0  0  0
 33 35  1  0  0  0  0
 33 36  1  0  0  0  0
M  END
$$$$

  -OEChem-03222214083D

 36 37  0     1  0  0  0  0  0999 V2000
   -3.2085   -4.7090    0.9413 H   0  0  0  0  0  0  0  0  0  0  0  0
   -3.1310   -3.9605    0.1474 C   0  0  0  0  0  0  0  0  0  0  0  0
   -4.0927   -3.4510    0.0497 H   0  0  0  0  0  0  0  0  0  0  0  0
   -2.8971   -4.4683   -0.7914 H   0  0  0  0  0  0  0  0  0  0  0  0
   -2.0428   -2.9578    0.4814 C   0  0  0  0  0  0  0  0  0  0  0  0
   -1.4430   -3.0447    1.5365 O   0  0  0  0  0  0  0  0  0  0  0  0
   -1.7350   -1.9585   -0.4197 N   0  0  0  0  0  0  0  0  0  0  0  0
   -2.1640   -2.0401   -1.3368 H   0  0  0  0  0  0  0  0  0  0  0  0
   -0.5726   -1.0540   -0.2935 C   0  0  1  0  0  0  0  0  0  0  0  0
    0.3561   -1.6268   -0.2449 H   0  0  0  0  0  0  0  0  0  0  0  0
   -0.5528   -0.1018   -1.5079 C   0  0  0  0  0  0  0  0  0  0  0  0
   -1.5373   -0.0919   -1.9855 H   0  0  0  0  0  0  0  0  0  0  0  0
   -0.3619    0.9213   -1.1644 H   0  0  0  0  0  0  0  0  0  0  0  0
    0.4911   -0.4246   -2.5563 C   0  0  0  0  0  0  0  0  0  0  0  0
    0.8324    0.4960   -3.5192 C   0  0  0  0  0  0  0  0  0  0  0  0
    0.4687    1.5202   -3.5660 H   0  0  0  0  0  0  0  0  0  0  0  0
    1.7191   -0.1053   -4.4026 N   0  0  0  0  0  0  0  0  0  0  0  0
    2.1610    0.3501   -5.1985 H   0  0  0  0  0  0  0  0  0  0  0  0
    1.9083   -1.4297   -4.0576 C   0  0  0  0  0  0  0  0  0  0  0  0
    2.6782   -2.4123   -4.6790 C   0  0  0  0  0  0  0  0  0  0  0  0
    3.2663   -2.1730   -5.5581 H   0  0  0  0  0  0  0  0  0  0  0  0
    2.6769   -3.7099   -4.1561 C   0  0  0  0  0  0  0  0  0  0  0  0
    3.2727   -4.4866   -4.6262 H   0  0  0  0  0  0  0  0  0  0  0  0
    1.8996   -4.0063   -3.0291 C   0  0  0  0  0  0  0  0  0  0  0  0
    1.8937   -5.0153   -2.6273 H   0  0  0  0  0  0  0  0  0  0  0  0
    1.1309   -3.0073   -2.4146 C   0  0  0  0  0  0  0  0  0  0  0  0
    0.5340   -3.2752   -1.5516 H   0  0  0  0  0  0  0  0  0  0  0  0
    1.1455   -1.6956   -2.9205 C   0  0  0  0  0  0  0  0  0  0  0  0
   -0.5931   -0.2138    1.0052 C   0  0  0  0  0  0  0  0  0  0  0  0
    0.4580    0.1099    1.5424 O   0  0  0  0  0  0  0  0  0  0  0  0
   -1.7658    0.4004    1.4100 N   0  0  0  0  0  0  0  0  0  0  0  0
   -2.6208    0.0251    1.0132 H   0  0  0  0  0  0  0  0  0  0  0  0
   -1.8532    1.1999    2.6254 C   0  0  0  0  0  0  0  0  0  0  0  0
   -1.1686    2.0530    2.5736 H   0  0  0  0  0  0  0  0  0  0  0  0
   -2.8702    1.5823    2.7538 H   0  0  0  0  0  0  0  0  0  0  0  0
   -1.5958    0.5945    3.5009 H   0  0  0  0  0  0  0  0  0  0  0  0
  1  2  1  0  0  0  0
  2  3  1  0  0  0  0
  2  4  1  0  0  0  0
  2  5  1  0  0  0  0
  5  6  2  0  0  0  0
  5  7  1  0  0  0  0
  7  8  1  0  0  0  0
  7  9  1  0  0  0  0
  9 10  1  0  0  0  0
  9 11  1  0  0  0  0
  9 29  1  0  0  0  0
 11 12  1  0  0  0  0
 11 13  1  0  0  0  0
 11 14  1  0  0  0  0
 14 15  2  0  0  0  0
 14 28  1  0  0  0  0
 15 16  1  0  0  0  0
 15 17  1  0  0  0  0
 17 18  1  0  0  0  0
 17 19  1  0  0  0  0
 19 20  1  0  0  0  0
 19 28  2  0  0  0  0
 20 21  1  0  0  0  0
 20 22  2  0  0  0  0
 22 23  1  0  0  0  0
 22 24  1  0  0  0  0
 24 25  1  0  0  0  0
 24 26  2  0  0  0  0
 26 27  1  0  0  0  0
 26 28  1  0  0  0  0
 29 30  2  0  0  0  0
 29 31  1  0  0  0  0
 31 32  1  0  0  0  0
 31 33  1  0  0  0  0
 33 34  1  0  0  0  0
 33 35  1  0  0  0  0
 33 36  1  0  0  0  0
M  END
$$$$

  -OEChem-03222214083D

 36 37  0     1  0  0  0  0  0999 V2000
   -3.2472   -4.7304    0.8848 H   0  0  0  0  0  0  0  0  0  0  0  0
   -3.1931   -3.9564    0.1136 C   0  0  0  0  0  0  0  0  0  0  0  0
   -4.1511   -3.4324    0.0735 H   0  0  0  0  0  0  0  0  0  0  0  0
   -3.0056   -4.4351   -0.8505 H   0  0  0  0  0  0  0  0  0  0  0  0
   -2.0788   -2.9779    0.4340 C   0  0  0  0  0  0  0  0  0  0  0  0
   -1.4480   -3.0949    1.4679 O   0  0  0  0  0  0  0  0  0  0  0  0
   -1.7853   -1.9629   -0.4543 N   0  0  0  0  0  0  0  0  0  0  0  0
   -2.2577   -2.0053   -1.3528 H   0  0  0  0  0  0  0  0  0  0  0  0
   -0.6072   -1.0756   -0.3451 C   0  0  1  0  0  0  0  0  0  0  0  0
    0.3070   -1.6782   -0.3499 H   0  0  0  0  0  0  0  0  0  0  0  0
   -0.6029   -0.1086   -1.5490 C   0  0  0  0  0  0  0  0  0  0  0  0
   -1.5938   -0.0907   -2.0129 H   0  0  0  0  0  0  0  0  0  0  0  0
   -0.4005    0.9110   -1.2019 H   0  0  0  0  0  0  0  0  0  0  0  0
    0.4201   -0.4487   -2.6102 C   0  0  0  0  0  0  0  0  0  0  0  0
    1.0092    0.5126   -3.3976 C   0  0  0  0  0  0  0  0  0  0  0  0
    0.8515    1.5852   -3.3061 H   0  0  0  0  0  0  0  0  0  0  0  0
    1.8292   -0.1267   -4.3201 N   0  0  0  0  0  0  0  0  0  0  0  0
    2.4107    0.3380   -5.0145 H   0  0  0  0  0  0  0  0  0  0  0  0
    1.7560   -1.4976   -4.1544 C   0  0  0  0  0  0  0  0  0  0  0  0
    2.3854   -2.5270   -4.8541 C   0  0  0  0  0  0  0  0  0  0  0  0
    3.0625   -2.3003   -5.6704 H   0  0  0  0  0  0  0  0  0  0  0  0
    2.1312   -3.8541   -4.4881 C   0  0  0  0  0  0  0  0  0  0  0  0
    2.6156   -4.6671   -5.0207 H   0  0  0  0  0  0  0  0  0  0  0  0
    1.2529   -4.1321   -3.4319 C   0  0  0  0  0  0  0  0  0  0  0  0
    1.0601   -5.1617   -3.1458 H   0  0  0  0  0  0  0  0  0  0  0  0
    0.6270   -3.0868   -2.7379 C   0  0  0  0  0  0  0  0  0  0  0  0
   -0.0410   -3.3248   -1.9198 H   0  0  0  0  0  0  0  0  0  0  0  0
    0.8822   -1.7554   -3.0999 C   0  0  0  0  0  0  0  0  0  0  0  0
   -0.5631   -0.2581    0.9668 C   0  0  0  0  0  0  0  0  0  0  0  0
    0.5140    0.0425    1.4647 O   0  0  0  0  0  0  0  0  0  0  0  0
   -1.7082    0.3691    1.4268 N   0  0  0  0  0  0  0  0  0  0  0  0
   -2.5850    0.0152    1.0593 H   0  0  0  0  0  0  0  0  0  0  0  0
   -1.7333    1.1631    2.6487 C   0  0  0  0  0  0  0  0  0  0  0  0
   -1.0368    2.0050    2.5743 H   0  0  0  0  0  0  0  0  0  0  0  0
   -2.7374    1.5623    2.8196 H   0  0  0  0  0  0  0  0  0  0  0  0
   -1.4520    0.5478    3.5099 H   0  0  0  0  0  0  0  0  0  0  0  0
  1  2  1  0  0  0  0
  2  3  1  0  0  0  0
  2  4  1  0  0  0  0
  2  5  1  0  0  0  0
  5  6  2  0  0  0  0
  5  7  1  0  0  0  0
  7  8  1  0  0  0  0
  7  9  1  0  0  0  0
  9 10  1  0  0  0  0
  9 11  1  0  0  0  0
  9 29  1  0  0  0  0
 11 12  1  0  0  0  0
 11 13  1  0  0  0  0
 11 14  1  0  0  0  0
 14 15  2  0  0  0  0
 14 28  1  0  0  0  0
 15 16  1  0  0  0  0
 15 17  1  0  0  0  0
 17 18  1  0  0  0  0
 17 19  1  0  0  0  0
 19 20  1  0  0  0  0
 19 28  2  0  0  0  0
 20 21  1  0  0  0  0
 20 22  2  0  0  0  0
 22 23  1  0  0  0  0
 22 24  1  0  0  0  0
 24 25  1  0  0  0  0
 24 26  2  0  0  0  0
 26 27  1  0  0  0  0
 26 28  1  0  0  0  0
 29 30  2  0  0  0  0
 29 31  1  0  0  0  0
 31 32  1  0  0  0  0
 31 33  1  0  0  0  0
 33 34  1  0  0  0  0
 33 35  1  0  0  0  0
 33 36  1  0  0  0  0
M  END
$$$$

  -OEChem-03222214083D

 36 37  0     1  0  0  0  0  0999 V2000
   -3.2585   -4.7491    0.8409 H   0  0  0  0  0  0  0  0  0  0  0  0
   -3.2314   -3.9541    0.0901 C   0  0  0  0  0  0  0  0  0  0  0  0
   -4.1873   -3.4252    0.1032 H   0  0  0  0  0  0  0  0  0  0  0  0
   -3.0850   -4.4071   -0.8933 H   0  0  0  0  0  0  0  0  0  0  0  0
   -2.1006   -2.9889    0.3926 C   0  0  0  0  0  0  0  0  0  0  0  0
   -1.4421   -3.1258    1.4065 O   0  0  0  0  0  0  0  0  0  0  0  0
   -1.8298   -1.9577   -0.4843 N   0  0  0  0  0  0  0  0  0  0  0  0
   -2.3456   -1.9637   -1.3591 H   0  0  0  0  0  0  0  0  0  0  0  0
   -0.6443   -1.0790   -0.3954 C   0  0  1  0  0  0  0  0  0  0  0  0
    0.2587   -1.6986   -0.4438 H   0  0  0  0  0  0  0  0  0  0  0  0
   -0.6537   -0.0967   -1.5869 C   0  0  0  0  0  0  0  0  0  0  0  0
   -1.6498   -0.0646   -2.0386 H   0  0  0  0  0  0  0  0  0  0  0  0
   -0.4360    0.9173   -1.2331 H   0  0  0  0  0  0  0  0  0  0  0  0
    0.3537   -0.4510   -2.6561 C   0  0  0  0  0  0  0  0  0  0  0  0
    1.1756    0.4789   -3.2473 C   0  0  0  0  0  0  0  0  0  0  0  0
    1.2133    1.5366   -2.9956 H   0  0  0  0  0  0  0  0  0  0  0  0
    1.9412   -0.1725   -4.2079 N   0  0  0  0  0  0  0  0  0  0  0  0
    2.6584    0.2632   -4.7841 H   0  0  0  0  0  0  0  0  0  0  0  0
    1.6151   -1.5163   -4.2489 C   0  0  0  0  0  0  0  0  0  0  0  0
    2.1148   -2.5488   -5.0420 C   0  0  0  0  0  0  0  0  0  0  0  0
    2.8905   -2.3505   -5.7733 H   0  0  0  0  0  0  0  0  0  0  0  0
    1.6047   -3.8425   -4.8779 C   0  0  0  0  0  0  0  0  0  0  0  0
    1.9866   -4.6580   -5.4848 H   0  0  0  0  0  0  0  0  0  0  0  0
    0.6052   -4.0851   -3.9255 C   0  0  0  0  0  0  0  0  0  0  0  0
    0.2163   -5.0904   -3.7960 H   0  0  0  0  0  0  0  0  0  0  0  0
    0.1133   -3.0374   -3.1342 C   0  0  0  0  0  0  0  0  0  0  0  0
   -0.6489   -3.2434   -2.3954 H   0  0  0  0  0  0  0  0  0  0  0  0
    0.6226   -1.7422   -3.2980 C   0  0  0  0  0  0  0  0  0  0  0  0
   -0.5452   -0.2843    0.9264 C   0  0  0  0  0  0  0  0  0  0  0  0
    0.5522    0.0127    1.3806 O   0  0  0  0  0  0  0  0  0  0  0  0
   -1.6689    0.3424    1.4358 N   0  0  0  0  0  0  0  0  0  0  0  0
   -2.5602   -0.0107    1.1038 H   0  0  0  0  0  0  0  0  0  0  0  0
   -1.6421    1.1277    2.6631 C   0  0  0  0  0  0  0  0  0  0  0  0
   -0.9374    1.9608    2.5701 H   0  0  0  0  0  0  0  0  0  0  0  0
   -2.6346    1.5387    2.8703 H   0  0  0  0  0  0  0  0  0  0  0  0
   -1.3394    0.5035    3.5103 H   0  0  0  0  0  0  0  0  0  0  0  0
  1  2  1  0  0  0  0
  2  3  1  0  0  0  0
  2  4  1  0  0  0  0
  2  5  1  0  0  0  0
  5  6  2  0  0  0  0
  5  7  1  0  0  0  0
  7  8  1  0  0  0  0
  7  9  1  0  0  0  0
  9 10  1  0  0  0  0
  9 11  1  0  0  0  0
  9 29  1  0  0  0  0
 11 12  1  0  0  0  0
 11 13  1  0  0  0  0
 11 14  1  0  0  0  0
 14 15  2  0  0  0  0
 14 28  1  0  0  0  0
 15 16  1  0  0  0  0
 15 17  1  0  0  0  0
 17 18  1  0  0  0  0
 17 19  1  0  0  0  0
 19 20  1  0  0  0  0
 19 28  2  0  0  0  0
 20 21  1  0  0  0  0
 20 22  2  0  0  0  0
 22 23  1  0  0  0  0
 22 24  1  0  0  0  0
 24 25  1  0  0  0  0
 24 26  2  0  0  0  0
 26 27  1  0  0  0  0
 26 28  1  0  0  0  0
 29 30  2  0  0  0  0
 29 31  1  0  0  0  0
 31 32  1  0  0  0  0
 31 33  1  0  0  0  0
 33 34  1  0  0  0  0
 33 35  1  0  0  0  0
 33 36  1  0  0  0  0
M  END
$$$$

  -OEChem-03222214083D

 36 37  0     1  0  0  0  0  0999 V2000
   -3.2409   -4.7491    0.8221 H   0  0  0  0  0  0  0  0  0  0  0  0
   -3.2177   -3.9573    0.0678 C   0  0  0  0  0  0  0  0  0  0  0  0
   -4.1699   -3.4219    0.0901 H   0  0  0  0  0  0  0  0  0  0  0  0
   -3.0861   -4.4146   -0.9158 H   0  0  0  0  0  0  0  0  0  0  0  0
   -2.0764   -2.9995    0.3531 C   0  0  0  0  0  0  0  0  0  0  0  0
   -1.3946   -3.1481    1.3500 O   0  0  0  0  0  0  0  0  0  0  0  0
   -1.8307   -1.9544   -0.5144 N   0  0  0  0  0  0  0  0  0  0  0  0
   -2.3796   -1.9362   -1.3678 H   0  0  0  0  0  0  0  0  0  0  0  0
   -0.6539   -1.0649   -0.4338 C   0  0  1  0  0  0  0  0  0  0  0  0
    0.2502   -1.6812   -0.5019 H   0  0  0  0  0  0  0  0  0  0  0  0
   -0.6792   -0.0713   -1.6151 C   0  0  0  0  0  0  0  0  0  0  0  0
   -1.6766   -0.0333   -2.0638 H   0  0  0  0  0  0  0  0  0  0  0  0
   -0.4549    0.9391   -1.2557 H   0  0  0  0  0  0  0  0  0  0  0  0
    0.3305   -0.4345   -2.6758 C   0  0  0  0  0  0  0  0  0  0  0  0
    1.3601    0.3852   -3.0722 C   0  0  0  0  0  0  0  0  0  0  0  0
    1.5809    1.3664   -2.6567 H   0  0  0  0  0  0  0  0  0  0  0  0
    2.0626   -0.2690   -4.0795 N   0  0  0  0  0  0  0  0  0  0  0  0
    2.8917    0.0910   -4.5475 H   0  0  0  0  0  0  0  0  0  0  0  0
    1.4904   -1.5017   -4.3412 C   0  0  0  0  0  0  0  0  0  0  0  0
    1.8391   -2.4989   -5.2517 C   0  0  0  0  0  0  0  0  0  0  0  0
    2.6952   -2.3677   -5.9043 H   0  0  0  0  0  0  0  0  0  0  0  0
    1.0712   -3.6692   -5.3092 C   0  0  0  0  0  0  0  0  0  0  0  0
    1.3320   -4.4548   -6.0121 H   0  0  0  0  0  0  0  0  0  0  0  0
   -0.0323   -3.8264   -4.4581 C   0  0  0  0  0  0  0  0  0  0  0  0
   -0.6235   -4.7359   -4.5032 H   0  0  0  0  0  0  0  0  0  0  0  0
   -0.3717   -2.8158   -3.5473 C   0  0  0  0  0  0  0  0  0  0  0  0
   -1.2228   -2.9459   -2.8926 H   0  0  0  0  0  0  0  0  0  0  0  0
    0.3987   -1.6483   -3.4898 C   0  0  0  0  0  0  0  0  0  0  0  0
   -0.5398   -0.2853    0.8956 C   0  0  0  0  0  0  0  0  0  0  0  0
    0.5627    0.0230    1.3298 O   0  0  0  0  0  0  0  0  0  0  0  0
   -1.6609    0.3236    1.4322 N   0  0  0  0  0  0  0  0  0  0  0  0
   -2.5542   -0.0323    1.1087 H   0  0  0  0  0  0  0  0  0  0  0  0
   -1.6230    1.0900    2.6714 C   0  0  0  0  0  0  0  0  0  0  0  0
   -0.9271    1.9309    2.5826 H   0  0  0  0  0  0  0  0  0  0  0  0
   -2.6160    1.4889    2.8991 H   0  0  0  0  0  0  0  0  0  0  0  0
   -1.3035    0.4548    3.5043 H   0  0  0  0  0  0  0  0  0  0  0  0
  1  2  1  0  0  0  0
  2  3  1  0  0  0  0
  2  4  1  0  0  0  0
  2  5  1  0  0  0  0
  5  6  2  0  0  0  0
  5  7  1  0  0  0  0
  7  8  1  0  0  0  0
  7  9  1  0  0  0  0
  9 10  1  0  0  0  0
  9 11  1  0  0  0  0
  9 29  1  0  0  0  0
 11 12  1  0  0  0  0
 11 13  1  0  0  0  0
 11 14  1  0  0  0  0
 14 15  2  0  0  0  0
 14 28  1  0  0  0  0
 15 16  1  0  0  0  0
 15 17  1  0  0  0  0
 17 18  1  0  0  0  0
 17 19  1  0  0  0  0
 19 20  1  0  0  0  0
 19 28  2  0  0  0  0
 20 21  1  0  0  0  0
 20 22  2  0  0  0  0
 22 23  1  0  0  0  0
 22 24  1  0  0  0  0
 24 25  1  0  0  0  0
 24 26  2  0  0  0  0
 26 27  1  0  0  0  0
 26 28  1  0  0  0  0
 29 30  2  0  0  0  0
 29 31  1  0  0  0  0
 31 32  1  0  0  0  0
 31 33  1  0  0  0  0
 33 34  1  0  0  0  0
 33 35  1  0  0  0  0
 33 36  1  0  0  0  0
M  END
$$$$

  -OEChem-03222214083D

 36 37  0     1  0  0  0  0  0999 V2000
   -3.2016   -4.7772    0.7559 H   0  0  0  0  0  0  0  0  0  0  0  0
   -3.1827   -3.9829    0.0042 C   0  0  0  0  0  0  0  0  0  0  0  0
   -4.1510   -3.4769    0.0022 H   0  0  0  0  0  0  0  0  0  0  0  0
   -3.0111   -4.4336   -0.9763 H   0  0  0  0  0  0  0  0  0  0  0  0
   -2.0788   -2.9915    0.3211 C   0  0  0  0  0  0  0  0  0  0  0  0
   -1.4203   -3.1217    1.3364 O   0  0  0  0  0  0  0  0  0  0  0  0
   -1.8402   -1.9389   -0.5395 N   0  0  0  0  0  0  0  0  0  0  0  0
   -2.3521   -1.9539   -1.4149 H   0  0  0  0  0  0  0  0  0  0  0  0
   -0.6637   -1.0502   -0.4543 C   0  0  1  0  0  0  0  0  0  0  0  0
    0.2396   -1.6667   -0.5331 H   0  0  0  0  0  0  0  0  0  0  0  0
   -0.6978   -0.0444   -1.6245 C   0  0  0  0  0  0  0  0  0  0  0  0
   -1.6962    0.0105   -2.0686 H   0  0  0  0  0  0  0  0  0  0  0  0
   -0.4570    0.9603   -1.2597 H   0  0  0  0  0  0  0  0  0  0  0  0
    0.3113   -0.4187   -2.6774 C   0  0  0  0  0  0  0  0  0  0  0  0
    1.5079    0.2231   -2.8867 C   0  0  0  0  0  0  0  0  0  0  0  0
    1.8814    1.0673   -2.3099 H   0  0  0  0  0  0  0  0  0  0  0  0
    2.1479   -0.4141   -3.9464 N   0  0  0  0  0  0  0  0  0  0  0  0
    3.0662   -0.1688   -4.3110 H   0  0  0  0  0  0  0  0  0  0  0  0
    1.3693   -1.4546   -4.4250 C   0  0  0  0  0  0  0  0  0  0  0  0
    1.5818   -2.3658   -5.4592 C   0  0  0  0  0  0  0  0  0  0  0  0
    2.4955   -2.3266   -6.0419 H   0  0  0  0  0  0  0  0  0  0  0  0
    0.6010   -3.3287   -5.7331 C   0  0  0  0  0  0  0  0  0  0  0  0
    0.7539   -4.0447   -6.5351 H   0  0  0  0  0  0  0  0  0  0  0  0
   -0.5777   -3.3671   -4.9729 C   0  0  0  0  0  0  0  0  0  0  0  0
   -1.3358   -4.1134   -5.1902 H   0  0  0  0  0  0  0  0  0  0  0  0
   -0.7787   -2.4458   -3.9351 C   0  0  0  0  0  0  0  0  0  0  0  0
   -1.6905   -2.4746   -3.3525 H   0  0  0  0  0  0  0  0  0  0  0  0
    0.2062   -1.4901   -3.6628 C   0  0  0  0  0  0  0  0  0  0  0  0
   -0.5391   -0.2805    0.8798 C   0  0  0  0  0  0  0  0  0  0  0  0
    0.5685    0.0272    1.3023 O   0  0  0  0  0  0  0  0  0  0  0  0
   -1.6545    0.3267    1.4297 N   0  0  0  0  0  0  0  0  0  0  0  0
   -2.5509   -0.0311    1.1166 H   0  0  0  0  0  0  0  0  0  0  0  0
   -1.6026    1.0877    2.6713 C   0  0  0  0  0  0  0  0  0  0  0  0
   -0.9151    1.9346    2.5740 H   0  0  0  0  0  0  0  0  0  0  0  0
   -2.5947    1.4775    2.9180 H   0  0  0  0  0  0  0  0  0  0  0  0
   -1.2638    0.4510    3.4953 H   0  0  0  0  0  0  0  0  0  0  0  0
  1  2  1  0  0  0  0
  2  3  1  0  0  0  0
  2  4  1  0  0  0  0
  2  5  1  0  0  0  0
  5  6  2  0  0  0  0
  5  7  1  0  0  0  0
  7  8  1  0  0  0  0
  7  9  1  0  0  0  0
  9 10  1  0  0  0  0
  9 11  1  0  0  0  0
  9 29  1  0  0  0  0
 11 12  1  0  0  0  0
 11 13  1  0  0  0  0
 11 14  1  0  0  0  0
 14 15  2  0  0  0  0
 14 28  1  0  0  0  0
 15 16  1  0  0  0  0
 15 17  1  0  0  0  0
 17 18  1  0  0  0  0
 17 19  1  0  0  0  0
 19 20  1  0  0  0  0
 19 28  2  0  0  0  0
 20 21  1  0  0  0  0
 20 22  2  0  0  0  0
 22 23  1  0  0  0  0
 22 24  1  0  0  0  0
 24 25  1  0  0  0  0
 24 26  2  0  0  0  0
 26 27  1  0  0  0  0
 26 28  1  0  0  0  0
 29 30  2  0  0  0  0
 29 31  1  0  0  0  0
 31 32  1  0  0  0  0
 31 33  1  0  0  0  0
 33 34  1  0  0  0  0
 33 35  1  0  0  0  0
 33 36  1  0  0  0  0
M  END
$$$$

  -OEChem-03222214083D

 36 37  0     1  0  0  0  0  0999 V2000
   -3.1759   -4.8000    0.7099 H   0  0  0  0  0  0  0  0  0  0  0  0
   -3.1672   -4.0010   -0.0371 C   0  0  0  0  0  0  0  0  0  0  0  0
   -4.1524   -3.5291   -0.0594 H   0  0  0  0  0  0  0  0  0  0  0  0
   -2.9569   -4.4399   -1.0154 H   0  0  0  0  0  0  0  0  0  0  0  0
   -2.1063   -2.9737    0.3098 C   0  0  0  0  0  0  0  0  0  0  0  0
   -1.4809   -3.0772    1.3490 O   0  0  0  0  0  0  0  0  0  0  0  0
   -1.8677   -1.9217   -0.5518 N   0  0  0  0  0  0  0  0  0  0  0  0
   -2.3205   -1.9897   -1.4572 H   0  0  0  0  0  0  0  0  0  0  0  0
   -0.6827   -1.0452   -0.4623 C   0  0  1  0  0  0  0  0  0  0  0  0
    0.2130   -1.6717   -0.5481 H   0  0  0  0  0  0  0  0  0  0  0  0
   -0.7152   -0.0301   -1.6239 C   0  0  0  0  0  0  0  0  0  0  0  0
   -1.7155    0.0466   -2.0605 H   0  0  0  0  0  0  0  0  0  0  0  0
   -0.4536    0.9683   -1.2560 H   0  0  0  0  0  0  0  0  0  0  0  0
    0.2874   -0.4161   -2.6755 C   0  0  0  0  0  0  0  0  0  0  0  0
    1.5966   -0.0027   -2.7124 C   0  0  0  0  0  0  0  0  0  0  0  0
    2.0737    0.6487   -1.9817 H   0  0  0  0  0  0  0  0  0  0  0  0
    2.1883   -0.5878   -3.8291 N   0  0  0  0  0  0  0  0  0  0  0  0
    3.1624   -0.4755   -4.1030 H   0  0  0  0  0  0  0  0  0  0  0  0
    1.2683   -1.3677   -4.5114 C   0  0  0  0  0  0  0  0  0  0  0  0
    1.3843   -2.1379   -5.6683 C   0  0  0  0  0  0  0  0  0  0  0  0
    2.3317   -2.1965   -6.1925 H   0  0  0  0  0  0  0  0  0  0  0  0
    0.2623   -2.8314   -6.1428 C   0  0  0  0  0  0  0  0  0  0  0  0
    0.3391   -3.4341   -7.0430 H   0  0  0  0  0  0  0  0  0  0  0  0
   -0.9600   -2.7440   -5.4590 C   0  0  0  0  0  0  0  0  0  0  0  0
   -1.8274   -3.2785   -5.8345 H   0  0  0  0  0  0  0  0  0  0  0  0
   -1.0645   -1.9663   -4.2966 C   0  0  0  0  0  0  0  0  0  0  0  0
   -2.0100   -1.8904   -3.7732 H   0  0  0  0  0  0  0  0  0  0  0  0
    0.0616   -1.2831   -3.8251 C   0  0  0  0  0  0  0  0  0  0  0  0
   -0.5408   -0.2790    0.8718 C   0  0  0  0  0  0  0  0  0  0  0  0
    0.5753    0.0140    1.2829 O   0  0  0  0  0  0  0  0  0  0  0  0
   -1.6437    0.3421    1.4306 N   0  0  0  0  0  0  0  0  0  0  0  0
   -2.5467   -0.0110    1.1309 H   0  0  0  0  0  0  0  0  0  0  0  0
   -1.5708    1.1072    2.6684 C   0  0  0  0  0  0  0  0  0  0  0  0
   -0.8779    1.9483    2.5598 H   0  0  0  0  0  0  0  0  0  0  0  0
   -2.5569    1.5055    2.9248 H   0  0  0  0  0  0  0  0  0  0  0  0
   -1.2275    0.4708    3.4907 H   0  0  0  0  0  0  0  0  0  0  0  0
  1  2  1  0  0  0  0
  2  3  1  0  0  0  0
  2  4  1  0  0  0  0
  2  5  1  0  0  0  0
  5  6  2  0  0  0  0
  5  7  1  0  0  0  0
  7  8  1  0  0  0  0
  7  9  1  0  0  0  0
  9 10  1  0  0  0  0
  9 11  1  0  0  0  0
  9 29  1  0  0  0  0
 11 12  1  0  0  0  0
 11 13  1  0  0  0  0
 11 14  1  0  0  0  0
 14 15  2  0  0  0  0
 14 28  1  0  0  0  0
 15 16  1  0  0  0  0
 15 17  1  0  0  0  0
 17 18  1  0  0  0  0
 17 19  1  0  0  0  0
 19 20  1  0  0  0  0
 19 28  2  0  0  0  0
 20 21  1  0  0  0  0
 20 22  2  0  0  0  0
 22 23  1  0  0  0  0
 22 24  1  0  0  0  0
 24 25  1  0  0  0  0
 24 26  2  0  0  0  0
 26 27  1  0  0  0  0
 26 28  1  0  0  0  0
 29 30  2  0  0  0  0
 29 31  1  0  0  0  0
 31 32  1  0  0  0  0
 31 33  1  0  0  0  0
 33 34  1  0  0  0  0
 33 35  1  0  0  0  0
 33 36  1  0  0  0  0
M  END
$$$$

  -OEChem-03222214083D

 36 37  0     1  0  0  0  0  0999 V2000
   -3.2169   -4.7779    0.7253 H   0  0  0  0  0  0  0  0  0  0  0  0
   -3.1983   -3.9849   -0.0279 C   0  0  0  0  0  0  0  0  0  0  0  0
   -4.1759   -3.4978   -0.0502 H   0  0  0  0  0  0  0  0  0  0  0  0
   -2.9983   -4.4337   -1.0039 H   0  0  0  0  0  0  0  0  0  0  0  0
   -2.1207   -2.9713    0.3090 C   0  0  0  0  0  0  0  0  0  0  0  0
   -1.4834   -3.0855    1.3400 O   0  0  0  0  0  0  0  0  0  0  0  0
   -1.8809   -1.9178   -0.5503 N   0  0  0  0  0  0  0  0  0  0  0  0
   -2.3380   -1.9812   -1.4545 H   0  0  0  0  0  0  0  0  0  0  0  0
   -0.6918   -1.0470   -0.4631 C   0  0  1  0  0  0  0  0  0  0  0  0
    0.1991   -1.6793   -0.5536 H   0  0  0  0  0  0  0  0  0  0  0  0
   -0.7285   -0.0315   -1.6244 C   0  0  0  0  0  0  0  0  0  0  0  0
   -1.7328    0.0495   -2.0508 H   0  0  0  0  0  0  0  0  0  0  0  0
   -0.4595    0.9660   -1.2594 H   0  0  0  0  0  0  0  0  0  0  0  0
    0.2660   -0.4161   -2.6843 C   0  0  0  0  0  0  0  0  0  0  0  0
    1.6271   -0.2547   -2.5891 C   0  0  0  0  0  0  0  0  0  0  0  0
    2.1537    0.1744   -1.7375 H   0  0  0  0  0  0  0  0  0  0  0  0
    2.1899   -0.7534   -3.7614 N   0  0  0  0  0  0  0  0  0  0  0  0
    3.1862   -0.7753   -3.9700 H   0  0  0  0  0  0  0  0  0  0  0  0
    1.2018   -1.2317   -4.6070 C   0  0  0  0  0  0  0  0  0  0  0  0
    1.2683   -1.8167   -5.8712 C   0  0  0  0  0  0  0  0  0  0  0  0
    2.2278   -1.9637   -6.3547 H   0  0  0  0  0  0  0  0  0  0  0  0
    0.0815   -2.2091   -6.5059 C   0  0  0  0  0  0  0  0  0  0  0  0
    0.1196   -2.6641   -7.4913 H   0  0  0  0  0  0  0  0  0  0  0  0
   -1.1545   -2.0109   -5.8715 C   0  0  0  0  0  0  0  0  0  0  0  0
   -2.0712   -2.3116   -6.3698 H   0  0  0  0  0  0  0  0  0  0  0  0
   -1.2091   -1.4218   -4.5999 C   0  0  0  0  0  0  0  0  0  0  0  0
   -2.1641   -1.2598   -4.1129 H   0  0  0  0  0  0  0  0  0  0  0  0
   -0.0197   -1.0367   -3.9714 C   0  0  0  0  0  0  0  0  0  0  0  0
   -0.5369   -0.2836    0.8703 C   0  0  0  0  0  0  0  0  0  0  0  0
    0.5850    0.0009    1.2720 O   0  0  0  0  0  0  0  0  0  0  0  0
   -1.6319    0.3434    1.4376 N   0  0  0  0  0  0  0  0  0  0  0  0
   -2.5395   -0.0020    1.1428 H   0  0  0  0  0  0  0  0  0  0  0  0
   -1.5450    1.1086    2.6746 C   0  0  0  0  0  0  0  0  0  0  0  0
   -0.8386    1.9381    2.5642 H   0  0  0  0  0  0  0  0  0  0  0  0
   -2.5242    1.5233    2.9317 H   0  0  0  0  0  0  0  0  0  0  0  0
   -1.2106    0.4679    3.4974 H   0  0  0  0  0  0  0  0  0  0  0  0
  1  2  1  0  0  0  0
  2  3  1  0  0  0  0
  2  4  1  0  0  0  0
  2  5  1  0  0  0  0
  5  6  2  0  0  0  0
  5  7  1  0  0  0  0
  7  8  1  0  0  0  0
  7  9  1  0  0  0  0
  9 10  1  0  0  0  0
  9 11  1  0  0  0  0
  9 29  1  0  0  0  0
 11 12  1  0  0  0  0
 11 13  1  0  0  0  0
 11 14  1  0  0  0  0
 14 15  2  0  0  0  0
 14 28  1  0  0  0  0
 15 16  1  0  0  0  0
 15 17  1  0  0  0  0
 17 18  1  0  0  0  0
 17 19  1  0  0  0  0
 19 20  1  0  0  0  0
 19 28  2  0  0  0  0
 20 21  1  0  0  0  0
 20 22  2  0  0  0  0
 22 23  1  0  0  0  0
 22 24  1  0  0  0  0
 24 25  1  0  0  0  0
 24 26  2  0  0  0  0
 26 27  1  0  0  0  0
 26 28  1  0  0  0  0
 29 30  2  0  0  0  0
 29 31  1  0  0  0  0
 31 32  1  0  0  0  0
 31 33  1  0  0  0  0
 33 34  1  0  0  0  0
 33 35  1  0  0  0  0
 33 36  1  0  0  0  0
M  END
$$$$

  -OEChem-03222214083D

 36 37  0     1  0  0  0  0  0999 V2000
   -3.2435   -4.7638    0.7569 H   0  0  0  0  0  0  0  0  0  0  0  0
   -3.2244   -3.9729    0.0015 C   0  0  0  0  0  0  0  0  0  0  0  0
   -4.1964   -3.4741   -0.0097 H   0  0  0  0  0  0  0  0  0  0  0  0
   -3.0418   -4.4266   -0.9757 H   0  0  0  0  0  0  0  0  0  0  0  0
   -2.1303   -2.9722    0.3222 C   0  0  0  0  0  0  0  0  0  0  0  0
   -1.4805   -3.0927    1.3447 O   0  0  0  0  0  0  0  0  0  0  0  0
   -1.8896   -1.9214   -0.5403 N   0  0  0  0  0  0  0  0  0  0  0  0
   -2.3553   -1.9800   -1.4411 H   0  0  0  0  0  0  0  0  0  0  0  0
   -0.6980   -1.0531   -0.4571 C   0  0  1  0  0  0  0  0  0  0  0  0
    0.1867   -1.6935   -0.5423 H   0  0  0  0  0  0  0  0  0  0  0  0
   -0.7319   -0.0426   -1.6253 C   0  0  0  0  0  0  0  0  0  0  0  0
   -1.7392    0.0288   -2.0453 H   0  0  0  0  0  0  0  0  0  0  0  0
   -0.4689    0.9591   -1.2675 H   0  0  0  0  0  0  0  0  0  0  0  0
    0.2582   -0.4190   -2.6951 C   0  0  0  0  0  0  0  0  0  0  0  0
    1.6175   -0.5308   -2.5198 C   0  0  0  0  0  0  0  0  0  0  0  0
    2.1506   -0.3458   -1.5876 H   0  0  0  0  0  0  0  0  0  0  0  0
    2.1670   -0.9271   -3.7362 N   0  0  0  0  0  0  0  0  0  0  0  0
    3.1574   -1.0904   -3.9066 H   0  0  0  0  0  0  0  0  0  0  0  0
    1.1734   -1.0680   -4.6916 C   0  0  0  0  0  0  0  0  0  0  0  0
    1.2282   -1.4391   -6.0348 C   0  0  0  0  0  0  0  0  0  0  0  0
    2.1797   -1.6781   -6.4969 H   0  0  0  0  0  0  0  0  0  0  0  0
    0.0400   -1.4969   -6.7763 C   0  0  0  0  0  0  0  0  0  0  0  0
    0.0688   -1.7831   -7.8235 H   0  0  0  0  0  0  0  0  0  0  0  0
   -1.1848   -1.1821   -6.1682 C   0  0  0  0  0  0  0  0  0  0  0  0
   -2.1022   -1.2243   -6.7475 H   0  0  0  0  0  0  0  0  0  0  0  0
   -1.2274   -0.8090   -4.8170 C   0  0  0  0  0  0  0  0  0  0  0  0
   -2.1728   -0.5583   -4.3489 H   0  0  0  0  0  0  0  0  0  0  0  0
   -0.0377   -0.7572   -4.0820 C   0  0  0  0  0  0  0  0  0  0  0  0
   -0.5372   -0.2864    0.8732 C   0  0  0  0  0  0  0  0  0  0  0  0
    0.5878   -0.0157    1.2755 O   0  0  0  0  0  0  0  0  0  0  0  0
   -1.6277    0.3459    1.4427 N   0  0  0  0  0  0  0  0  0  0  0  0
   -2.5376    0.0051    1.1494 H   0  0  0  0  0  0  0  0  0  0  0  0
   -1.5348    1.1092    2.6803 C   0  0  0  0  0  0  0  0  0  0  0  0
   -0.8158    1.9283    2.5740 H   0  0  0  0  0  0  0  0  0  0  0  0
   -2.5087    1.5387    2.9334 H   0  0  0  0  0  0  0  0  0  0  0  0
   -1.2143    0.4631    3.5039 H   0  0  0  0  0  0  0  0  0  0  0  0
  1  2  1  0  0  0  0
  2  3  1  0  0  0  0
  2  4  1  0  0  0  0
  2  5  1  0  0  0  0
  5  6  2  0  0  0  0
  5  7  1  0  0  0  0
  7  8  1  0  0  0  0
  7  9  1  0  0  0  0
  9 10  1  0  0  0  0
  9 11  1  0  0  0  0
  9 29  1  0  0  0  0
 11 12  1  0  0  0  0
 11 13  1  0  0  0  0
 11 14  1  0  0  0  0
 14 15  2  0  0  0  0
 14 28  1  0  0  0  0
 15 16  1  0  0  0  0
 15 17  1  0  0  0  0
 17 18  1  0  0  0  0
 17 19  1  0  0  0  0
 19 20  1  0  0  0  0
 19 28  2  0  0  0  0
 20 21  1  0  0  0  0
 20 22  2  0  0  0  0
 22 23  1  0  0  0  0
 22 24  1  0  0  0  0
 24 25  1  0  0  0  0
 24 26  2  0  0  0  0
 26 27  1  0  0  0  0
 26 28  1  0  0  0  0
 29 30  2  0  0  0  0
 29 31  1  0  0  0  0
 31 32  1  0  0  0  0
 31 33  1  0  0  0  0
 33 34  1  0  0  0  0
 33 35  1  0  0  0  0
 33 36  1  0  0  0  0
M  END
$$$$

  -OEChem-03222214083D

 36 37  0     1  0  0  0  0  0999 V2000
   -3.2766   -4.7471    0.7909 H   0  0  0  0  0  0  0  0  0  0  0  0
   -3.2487   -3.9590    0.0328 C   0  0  0  0  0  0  0  0  0  0  0  0
   -4.2119   -3.4435    0.0256 H   0  0  0  0  0  0  0  0  0  0  0  0
   -3.0800   -4.4187   -0.9440 H   0  0  0  0  0  0  0  0  0  0  0  0
   -2.1364   -2.9755    0.3442 C   0  0  0  0  0  0  0  0  0  0  0  0
   -1.4829   -3.1023    1.3635 O   0  0  0  0  0  0  0  0  0  0  0  0
   -1.8794   -1.9351   -0.5260 N   0  0  0  0  0  0  0  0  0  0  0  0
   -2.3522   -1.9847   -1.4238 H   0  0  0  0  0  0  0  0  0  0  0  0
   -0.6863   -1.0696   -0.4391 C   0  0  1  0  0  0  0  0  0  0  0  0
    0.1940   -1.7164   -0.5006 H   0  0  0  0  0  0  0  0  0  0  0  0
   -0.7082   -0.0751   -1.6236 C   0  0  0  0  0  0  0  0  0  0  0  0
   -1.7153   -0.0214   -2.0466 H   0  0  0  0  0  0  0  0  0  0  0  0
   -0.4600    0.9335   -1.2759 H   0  0  0  0  0  0  0  0  0  0  0  0
    0.2835   -0.4381   -2.7019 C   0  0  0  0  0  0  0  0  0  0  0  0
    1.5926   -0.8221   -2.5180 C   0  0  0  0  0  0  0  0  0  0  0  0
    2.1037   -0.8907   -1.5584 H   0  0  0  0  0  0  0  0  0  0  0  0
    2.1336   -1.0971   -3.7707 N   0  0  0  0  0  0  0  0  0  0  0  0
    3.0922   -1.3930   -3.9435 H   0  0  0  0  0  0  0  0  0  0  0  0
    1.1876   -0.8905   -4.7604 C   0  0  0  0  0  0  0  0  0  0  0  0
    1.2554   -1.0307   -6.1463 C   0  0  0  0  0  0  0  0  0  0  0  0
    2.1750   -1.3596   -6.6180 H   0  0  0  0  0  0  0  0  0  0  0  0
    0.1221   -0.7405   -6.9182 C   0  0  0  0  0  0  0  0  0  0  0  0
    0.1621   -0.8441   -7.9986 H   0  0  0  0  0  0  0  0  0  0  0  0
   -1.0608   -0.3128   -6.2968 C   0  0  0  0  0  0  0  0  0  0  0  0
   -1.9343   -0.0839   -6.8997 H   0  0  0  0  0  0  0  0  0  0  0  0
   -1.1172   -0.1765   -4.9019 C   0  0  0  0  0  0  0  0  0  0  0  0
   -2.0298    0.1607   -4.4228 H   0  0  0  0  0  0  0  0  0  0  0  0
    0.0169   -0.4726   -4.1365 C   0  0  0  0  0  0  0  0  0  0  0  0
   -0.5424   -0.2890    0.8851 C   0  0  0  0  0  0  0  0  0  0  0  0
    0.5773   -0.0325    1.3102 O   0  0  0  0  0  0  0  0  0  0  0  0
   -1.6380    0.3526    1.4347 N   0  0  0  0  0  0  0  0  0  0  0  0
   -2.5461    0.0265    1.1199 H   0  0  0  0  0  0  0  0  0  0  0  0
   -1.5619    1.1160    2.6735 C   0  0  0  0  0  0  0  0  0  0  0  0
   -0.8316    1.9268    2.5814 H   0  0  0  0  0  0  0  0  0  0  0  0
   -2.5360    1.5567    2.9060 H   0  0  0  0  0  0  0  0  0  0  0  0
   -1.2657    0.4672    3.5043 H   0  0  0  0  0  0  0  0  0  0  0  0
  1  2  1  0  0  0  0
  2  3  1  0  0  0  0
  2  4  1  0  0  0  0
  2  5  1  0  0  0  0
  5  6  2  0  0  0  0
  5  7  1  0  0  0  0
  7  8  1  0  0  0  0
  7  9  1  0  0  0  0
  9 10  1  0  0  0  0
  9 11  1  0  0  0  0
  9 29  1  0  0  0  0
 11 12  1  0  0  0  0
 11 13  1  0  0  0  0
 11 14  1  0  0  0  0
 14 15  2  0  0  0  0
 14 28  1  0  0  0  0
 15 16  1  0  0  0  0
 15 17  1  0  0  0  0
 17 18  1  0  0  0  0
 17 19  1  0  0  0  0
 19 20  1  0  0  0  0
 19 28  2  0  0  0  0
 20 21  1  0  0  0  0
 20 22  2  0  0  0  0
 22 23  1  0  0  0  0
 22 24  1  0  0  0  0
 24 25  1  0  0  0  0
 24 26  2  0  0  0  0
 26 27  1  0  0  0  0
 26 28  1  0  0  0  0
 29 30  2  0  0  0  0
 29 31  1  0  0  0  0
 31 32  1  0  0  0  0
 31 33  1  0  0  0  0
 33 34  1  0  0  0  0
 33 35  1  0  0  0  0
 33 36  1  0  0  0  0
M  END
$$$$

  -OEChem-03222214083D

 36 37  0     1  0  0  0  0  0999 V2000
   -3.3092   -4.7325    0.8138 H   0  0  0  0  0  0  0  0  0  0  0  0
   -3.2756   -3.9431    0.0572 C   0  0  0  0  0  0  0  0  0  0  0  0
   -4.2342   -3.4188    0.0523 H   0  0  0  0  0  0  0  0  0  0  0  0
   -3.1127   -4.4024   -0.9208 H   0  0  0  0  0  0  0  0  0  0  0  0
   -2.1536   -2.9708    0.3690 C   0  0  0  0  0  0  0  0  0  0  0  0
   -1.5127   -3.0947    1.3965 O   0  0  0  0  0  0  0  0  0  0  0  0
   -1.8673   -1.9490   -0.5140 N   0  0  0  0  0  0  0  0  0  0  0  0
   -2.3366   -1.9974   -1.4137 H   0  0  0  0  0  0  0  0  0  0  0  0
   -0.6682   -1.0918   -0.4209 C   0  0  1  0  0  0  0  0  0  0  0  0
    0.2075   -1.7446   -0.4478 H   0  0  0  0  0  0  0  0  0  0  0  0
   -0.6669   -0.1188   -1.6249 C   0  0  0  0  0  0  0  0  0  0  0  0
   -1.6704   -0.0750   -2.0583 H   0  0  0  0  0  0  0  0  0  0  0  0
   -0.4266    0.8956   -1.2876 H   0  0  0  0  0  0  0  0  0  0  0  0
    0.3283   -0.4773   -2.7058 C   0  0  0  0  0  0  0  0  0  0  0  0
    1.5405   -1.1196   -2.5754 C   0  0  0  0  0  0  0  0  0  0  0  0
    1.9936   -1.4452   -1.6407 H   0  0  0  0  0  0  0  0  0  0  0  0
    2.0872   -1.2630   -3.8477 N   0  0  0  0  0  0  0  0  0  0  0  0
    2.9898   -1.6863   -4.0540 H   0  0  0  0  0  0  0  0  0  0  0  0
    1.2445   -0.7155   -4.7993 C   0  0  0  0  0  0  0  0  0  0  0  0
    1.3546   -0.6146   -6.1862 C   0  0  0  0  0  0  0  0  0  0  0  0
    2.2242   -1.0145   -6.6958 H   0  0  0  0  0  0  0  0  0  0  0  0
    0.3290    0.0103   -6.9090 C   0  0  0  0  0  0  0  0  0  0  0  0
    0.4022    0.0979   -7.9889 H   0  0  0  0  0  0  0  0  0  0  0  0
   -0.7898    0.5269   -6.2379 C   0  0  0  0  0  0  0  0  0  0  0  0
   -1.5808    1.0145   -6.7999 H   0  0  0  0  0  0  0  0  0  0  0  0
   -0.8890    0.4193   -4.8431 C   0  0  0  0  0  0  0  0  0  0  0  0
   -1.7508    0.8242   -4.3236 H   0  0  0  0  0  0  0  0  0  0  0  0
    0.1367   -0.2100   -4.1282 C   0  0  0  0  0  0  0  0  0  0  0  0
   -0.5480   -0.2886    0.8928 C   0  0  0  0  0  0  0  0  0  0  0  0
    0.5613   -0.0488    1.3525 O   0  0  0  0  0  0  0  0  0  0  0  0
   -1.6504    0.3706    1.4068 N   0  0  0  0  0  0  0  0  0  0  0  0
   -2.5533    0.0563    1.0670 H   0  0  0  0  0  0  0  0  0  0  0  0
   -1.5988    1.1389    2.6439 C   0  0  0  0  0  0  0  0  0  0  0  0
   -0.8586    1.9423    2.5667 H   0  0  0  0  0  0  0  0  0  0  0  0
   -2.5738    1.5899    2.8509 H   0  0  0  0  0  0  0  0  0  0  0  0
   -1.3295    0.4906    3.4844 H   0  0  0  0  0  0  0  0  0  0  0  0
  1  2  1  0  0  0  0
  2  3  1  0  0  0  0
  2  4  1  0  0  0  0
  2  5  1  0  0  0  0
  5  6  2  0  0  0  0
  5  7  1  0  0  0  0
  7  8  1  0  0  0  0
  7  9  1  0  0  0  0
  9 10  1  0  0  0  0
  9 11  1  0  0  0  0
  9 29  1  0  0  0  0
 11 12  1  0  0  0  0
 11 13  1  0  0  0  0
 11 14  1  0  0  0  0
 14 15  2  0  0  0  0
 14 28  1  0  0  0  0
 15 16  1  0  0  0  0
 15 17  1  0  0  0  0
 17 18  1  0  0  0  0
 17 19  1  0  0  0  0
 19 20  1  0  0  0  0
 19 28  2  0  0  0  0
 20 21  1  0  0  0  0
 20 22  2  0  0  0  0
 22 23  1  0  0  0  0
 22 24  1  0  0  0  0
 24 25  1  0  0  0  0
 24 26  2  0  0  0  0
 26 27  1  0  0  0  0
 26 28  1  0  0  0  0
 29 30  2  0  0  0  0
 29 31  1  0  0  0  0
 31 32  1  0  0  0  0
 31 33  1  0  0  0  0
 33 34  1  0  0  0  0
 33 35  1  0  0  0  0
 33 36  1  0  0  0  0
M  END
$$$$

  -OEChem-03222214083D

 36 37  0     1  0  0  0  0  0999 V2000
   -3.3670   -4.6943    0.8536 H   0  0  0  0  0  0  0  0  0  0  0  0
   -3.3128   -3.9132    0.0899 C   0  0  0  0  0  0  0  0  0  0  0  0
   -4.2569   -3.3631    0.0814 H   0  0  0  0  0  0  0  0  0  0  0  0
   -3.1638   -4.3856   -0.8840 H   0  0  0  0  0  0  0  0  0  0  0  0
   -2.1643   -2.9687    0.3910 C   0  0  0  0  0  0  0  0  0  0  0  0
   -1.5224   -3.1016    1.4166 O   0  0  0  0  0  0  0  0  0  0  0  0
   -1.8513   -1.9660   -0.5044 N   0  0  0  0  0  0  0  0  0  0  0  0
   -2.3280   -2.0045   -1.4007 H   0  0  0  0  0  0  0  0  0  0  0  0
   -0.6447   -1.1193   -0.4108 C   0  0  1  0  0  0  0  0  0  0  0  0
    0.2299   -1.7724   -0.4113 H   0  0  0  0  0  0  0  0  0  0  0  0
   -0.6283   -0.1636   -1.6289 C   0  0  0  0  0  0  0  0  0  0  0  0
   -1.6303   -0.1119   -2.0658 H   0  0  0  0  0  0  0  0  0  0  0  0
   -0.3785    0.8502   -1.2970 H   0  0  0  0  0  0  0  0  0  0  0  0
    0.3627   -0.5238   -2.7148 C   0  0  0  0  0  0  0  0  0  0  0  0
    1.4347   -1.3908   -2.6827 C   0  0  0  0  0  0  0  0  0  0  0  0
    1.7791   -1.9600   -1.8222 H   0  0  0  0  0  0  0  0  0  0  0  0
    2.0140   -1.4024   -3.9489 N   0  0  0  0  0  0  0  0  0  0  0  0
    2.8395   -1.9369   -4.2122 H   0  0  0  0  0  0  0  0  0  0  0  0
    1.3324   -0.5506   -4.7999 C   0  0  0  0  0  0  0  0  0  0  0  0
    1.5286   -0.2254   -6.1420 C   0  0  0  0  0  0  0  0  0  0  0  0
    2.3402   -0.6780   -6.7007 H   0  0  0  0  0  0  0  0  0  0  0  0
    0.6653    0.6930   -6.7553 C   0  0  0  0  0  0  0  0  0  0  0  0
    0.8070    0.9562   -7.7993 H   0  0  0  0  0  0  0  0  0  0  0  0
   -0.3791    1.2752   -6.0205 C   0  0  0  0  0  0  0  0  0  0  0  0
   -1.0431    1.9901   -6.4967 H   0  0  0  0  0  0  0  0  0  0  0  0
   -0.5659    0.9401   -4.6716 C   0  0  0  0  0  0  0  0  0  0  0  0
   -1.3688    1.3933   -4.0999 H   0  0  0  0  0  0  0  0  0  0  0  0
    0.2977    0.0193   -4.0679 C   0  0  0  0  0  0  0  0  0  0  0  0
   -0.5449   -0.2967    0.8933 C   0  0  0  0  0  0  0  0  0  0  0  0
    0.5545   -0.0647    1.3793 O   0  0  0  0  0  0  0  0  0  0  0  0
   -1.6530    0.3778    1.3748 N   0  0  0  0  0  0  0  0  0  0  0  0
   -2.5511    0.0745    1.0134 H   0  0  0  0  0  0  0  0  0  0  0  0
   -1.6222    1.1661    2.5999 C   0  0  0  0  0  0  0  0  0  0  0  0
   -0.8742    1.9625    2.5253 H   0  0  0  0  0  0  0  0  0  0  0  0
   -2.5982    1.6273    2.7780 H   0  0  0  0  0  0  0  0  0  0  0  0
   -1.3760    0.5299    3.4566 H   0  0  0  0  0  0  0  0  0  0  0  0
  1  2  1  0  0  0  0
  2  3  1  0  0  0  0
  2  4  1  0  0  0  0
  2  5  1  0  0  0  0
  5  6  2  0  0  0  0
  5  7  1  0  0  0  0
  7  8  1  0  0  0  0
  7  9  1  0  0  0  0
  9 10  1  0  0  0  0
  9 11  1  0  0  0  0
  9 29  1  0  0  0  0
 11 12  1  0  0  0  0
 11 13  1  0  0  0  0
 11 14  1  0  0  0  0
 14 15  2  0  0  0  0
 14 28  1  0  0  0  0
 15 16  1  0  0  0  0
 15 17  1  0  0  0  0
 17 18  1  0  0  0  0
 17 19  1  0  0  0  0
 19 20  1  0  0  0  0
 19 28  2  0  0  0  0
 20 21  1  0  0  0  0
 20 22  2  0  0  0  0
 22 23  1  0  0  0  0
 22 24  1  0  0  0  0
 24 25  1  0  0  0  0
 24 26  2  0  0  0  0
 26 27  1  0  0  0  0
 26 28  1  0  0  0  0
 29 30  2  0  0  0  0
 29 31  1  0  0  0  0
 31 32  1  0  0  0  0
 31 33  1  0  0  0  0
 33 34  1  0  0  0  0
 33 35  1  0  0  0  0
 33 36  1  0  0  0  0
M  END
$$$$

  -OEChem-03222214083D

 36 37  0     1  0  0  0  0  0999 V2000
   -3.4062   -4.6570    0.8962 H   0  0  0  0  0  0  0  0  0  0  0  0
   -3.3411   -3.8843    0.1248 C   0  0  0  0  0  0  0  0  0  0  0  0
   -4.2692   -3.3075    0.1254 H   0  0  0  0  0  0  0  0  0  0  0  0
   -3.2206   -4.3692   -0.8469 H   0  0  0  0  0  0  0  0  0  0  0  0
   -2.1622   -2.9704    0.4009 C   0  0  0  0  0  0  0  0  0  0  0  0
   -1.5011   -3.1199    1.4117 O   0  0  0  0  0  0  0  0  0  0  0  0
   -1.8428   -1.9756   -0.5012 N   0  0  0  0  0  0  0  0  0  0  0  0
   -2.3469   -1.9905   -1.3831 H   0  0  0  0  0  0  0  0  0  0  0  0
   -0.6318   -1.1344   -0.4176 C   0  0  1  0  0  0  0  0  0  0  0  0
    0.2478   -1.7814   -0.4157 H   0  0  0  0  0  0  0  0  0  0  0  0
   -0.6230   -0.1836   -1.6387 C   0  0  0  0  0  0  0  0  0  0  0  0
   -1.6272   -0.1157   -2.0685 H   0  0  0  0  0  0  0  0  0  0  0  0
   -0.3558    0.8251   -1.3046 H   0  0  0  0  0  0  0  0  0  0  0  0
    0.3551   -0.5483   -2.7343 C   0  0  0  0  0  0  0  0  0  0  0  0
    1.2458   -1.5976   -2.8205 C   0  0  0  0  0  0  0  0  0  0  0  0
    1.4168   -2.3634   -2.0679 H   0  0  0  0  0  0  0  0  0  0  0  0
    1.8970   -1.5062   -4.0480 N   0  0  0  0  0  0  0  0  0  0  0  0
    2.6287   -2.1347   -4.3734 H   0  0  0  0  0  0  0  0  0  0  0  0
    1.4382   -0.4109   -4.7582 C   0  0  0  0  0  0  0  0  0  0  0  0
    1.7770    0.0916   -6.0144 C   0  0  0  0  0  0  0  0  0  0  0  0
    2.5297   -0.4050   -6.6164 H   0  0  0  0  0  0  0  0  0  0  0  0
    1.1334    1.2447   -6.4851 C   0  0  0  0  0  0  0  0  0  0  0  0
    1.3888    1.6478   -7.4607 H   0  0  0  0  0  0  0  0  0  0  0  0
    0.1628    1.8804   -5.6955 C   0  0  0  0  0  0  0  0  0  0  0  0
   -0.3310    2.7757   -6.0610 H   0  0  0  0  0  0  0  0  0  0  0  0
   -0.1686    1.3657   -4.4336 C   0  0  0  0  0  0  0  0  0  0  0  0
   -0.9146    1.8578   -3.8185 H   0  0  0  0  0  0  0  0  0  0  0  0
    0.4771    0.2130   -3.9727 C   0  0  0  0  0  0  0  0  0  0  0  0
   -0.5324   -0.3048    0.8831 C   0  0  0  0  0  0  0  0  0  0  0  0
    0.5646   -0.0761    1.3755 O   0  0  0  0  0  0  0  0  0  0  0  0
   -1.6396    0.3755    1.3595 N   0  0  0  0  0  0  0  0  0  0  0  0
   -2.5381    0.0824    0.9905 H   0  0  0  0  0  0  0  0  0  0  0  0
   -1.6093    1.1735    2.5787 C   0  0  0  0  0  0  0  0  0  0  0  0
   -0.8569    1.9656    2.5014 H   0  0  0  0  0  0  0  0  0  0  0  0
   -2.5837    1.6411    2.7491 H   0  0  0  0  0  0  0  0  0  0  0  0
   -1.3696    0.5430    3.4415 H   0  0  0  0  0  0  0  0  0  0  0  0
  1  2  1  0  0  0  0
  2  3  1  0  0  0  0
  2  4  1  0  0  0  0
  2  5  1  0  0  0  0
  5  6  2  0  0  0  0
  5  7  1  0  0  0  0
  7  8  1  0  0  0  0
  7  9  1  0  0  0  0
  9 10  1  0  0  0  0
  9 11  1  0  0  0  0
  9 29  1  0  0  0  0
 11 12  1  0  0  0  0
 11 13  1  0  0  0  0
 11 14  1  0  0  0  0
 14 15  2  0  0  0  0
 14 28  1  0  0  0  0
 15 16  1  0  0  0  0
 15 17  1  0  0  0  0
 17 18  1  0  0  0  0
 17 19  1  0  0  0  0
 19 20  1  0  0  0  0
 19 28  2  0  0  0  0
 20 21  1  0  0  0  0
 20 22  2  0  0  0  0
 22 23  1  0  0  0  0
 22 24  1  0  0  0  0
 24 25  1  0  0  0  0
 24 26  2  0  0  0  0
 26 27  1  0  0  0  0
 26 28  1  0  0  0  0
 29 30  2  0  0  0  0
 29 31  1  0  0  0  0
 31 32  1  0  0  0  0
 31 33  1  0  0  0  0
 33 34  1  0  0  0  0
 33 35  1  0  0  0  0
 33 36  1  0  0  0  0
M  END
$$$$

  -OEChem-03222214083D

 36 37  0     1  0  0  0  0  0999 V2000
   -3.4054   -4.6410    0.9090 H   0  0  0  0  0  0  0  0  0  0  0  0
   -3.3458   -3.8666    0.1388 C   0  0  0  0  0  0  0  0  0  0  0  0
   -4.2630   -3.2735    0.1652 H   0  0  0  0  0  0  0  0  0  0  0  0
   -3.2584   -4.3496   -0.8375 H   0  0  0  0  0  0  0  0  0  0  0  0
   -2.1440   -2.9746    0.3878 C   0  0  0  0  0  0  0  0  0  0  0  0
   -1.4492   -3.1521    1.3709 O   0  0  0  0  0  0  0  0  0  0  0  0
   -1.8412   -1.9685   -0.5076 N   0  0  0  0  0  0  0  0  0  0  0  0
   -2.3854   -1.9470   -1.3651 H   0  0  0  0  0  0  0  0  0  0  0  0
   -0.6322   -1.1228   -0.4360 C   0  0  1  0  0  0  0  0  0  0  0  0
    0.2558   -1.7602   -0.4577 H   0  0  0  0  0  0  0  0  0  0  0  0
   -0.6477   -0.1610   -1.6475 C   0  0  0  0  0  0  0  0  0  0  0  0
   -1.6563   -0.0796   -2.0641 H   0  0  0  0  0  0  0  0  0  0  0  0
   -0.3671    0.8407   -1.3035 H   0  0  0  0  0  0  0  0  0  0  0  0
    0.3187   -0.5264   -2.7517 C   0  0  0  0  0  0  0  0  0  0  0  0
    0.9952   -1.7083   -2.9670 C   0  0  0  0  0  0  0  0  0  0  0  0
    0.9531   -2.5958   -2.3397 H   0  0  0  0  0  0  0  0  0  0  0  0
    1.7436   -1.5659   -4.1325 N   0  0  0  0  0  0  0  0  0  0  0  0
    2.3667   -2.2706   -4.5219 H   0  0  0  0  0  0  0  0  0  0  0  0
    1.5536   -0.3078   -4.6772 C   0  0  0  0  0  0  0  0  0  0  0  0
    2.0748    0.2974   -5.8204 C   0  0  0  0  0  0  0  0  0  0  0  0
    2.7653   -0.2429   -6.4583 H   0  0  0  0  0  0  0  0  0  0  0  0
    1.6956    1.6110   -6.1307 C   0  0  0  0  0  0  0  0  0  0  0  0
    2.0953    2.0956   -7.0165 H   0  0  0  0  0  0  0  0  0  0  0  0
    0.8029    2.3012   -5.2962 C   0  0  0  0  0  0  0  0  0  0  0  0
    0.5131    3.3193   -5.5377 H   0  0  0  0  0  0  0  0  0  0  0  0
    0.2868    1.6821   -4.1486 C   0  0  0  0  0  0  0  0  0  0  0  0
   -0.3998    2.2145   -3.4986 H   0  0  0  0  0  0  0  0  0  0  0  0
    0.6704    0.3708   -3.8466 C   0  0  0  0  0  0  0  0  0  0  0  0
   -0.5181   -0.3076    0.8728 C   0  0  0  0  0  0  0  0  0  0  0  0
    0.5833   -0.0795    1.3548 O   0  0  0  0  0  0  0  0  0  0  0  0
   -1.6223    0.3606    1.3726 N   0  0  0  0  0  0  0  0  0  0  0  0
   -2.5243    0.0685    1.0119 H   0  0  0  0  0  0  0  0  0  0  0  0
   -1.5789    1.1457    2.5997 C   0  0  0  0  0  0  0  0  0  0  0  0
   -0.8303    1.9413    2.5209 H   0  0  0  0  0  0  0  0  0  0  0  0
   -2.5525    1.6080    2.7875 H   0  0  0  0  0  0  0  0  0  0  0  0
   -1.3259    0.5069    3.4523 H   0  0  0  0  0  0  0  0  0  0  0  0
  1  2  1  0  0  0  0
  2  3  1  0  0  0  0
  2  4  1  0  0  0  0
  2  5  1  0  0  0  0
  5  6  2  0  0  0  0
  5  7  1  0  0  0  0
  7  8  1  0  0  0  0
  7  9  1  0  0  0  0
  9 10  1  0  0  0  0
  9 11  1  0  0  0  0
  9 29  1  0  0  0  0
 11 12  1  0  0  0  0
 11 13  1  0  0  0  0
 11 14  1  0  0  0  0
 14 15  2  0  0  0  0
 14 28  1  0  0  0  0
 15 16  1  0  0  0  0
 15 17  1  0  0  0  0
 17 18  1  0  0  0  0
 17 19  1  0  0  0  0
 19 20  1  0  0  0  0
 19 28  2  0  0  0  0
 20 21  1  0  0  0  0
 20 22  2  0  0  0  0
 22 23  1  0  0  0  0
 22 24  1  0  0  0  0
 24 25  1  0  0  0  0
 24 26  2  0  0  0  0
 26 27  1  0  0  0  0
 26 28  1  0  0  0  0
 29 30  2  0  0  0  0
 29 31  1  0  0  0  0
 31 32  1  0  0  0  0
 31 33  1  0  0  0  0
 33 34  1  0  0  0  0
 33 35  1  0  0  0  0
 33 36  1  0  0  0  0
M  END
$$$$

  -OEChem-03222214083D

 36 37  0     1  0  0  0  0  0999 V2000
   -3.3739   -4.6452    0.8898 H   0  0  0  0  0  0  0  0  0  0  0  0
   -3.3280   -3.8618    0.1278 C   0  0  0  0  0  0  0  0  0  0  0  0
   -4.2407   -3.2636    0.1834 H   0  0  0  0  0  0  0  0  0  0  0  0
   -3.2674   -4.3328   -0.8562 H   0  0  0  0  0  0  0  0  0  0  0  0
   -2.1144   -2.9812    0.3580 C   0  0  0  0  0  0  0  0  0  0  0  0
   -1.3882   -3.1847    1.3127 O   0  0  0  0  0  0  0  0  0  0  0  0
   -1.8387   -1.9537   -0.5213 N   0  0  0  0  0  0  0  0  0  0  0  0
   -2.4246   -1.8929   -1.3486 H   0  0  0  0  0  0  0  0  0  0  0  0
   -0.6381   -1.0951   -0.4556 C   0  0  1  0  0  0  0  0  0  0  0  0
    0.2576   -1.7223   -0.5114 H   0  0  0  0  0  0  0  0  0  0  0  0
   -0.6834   -0.1158   -1.6513 C   0  0  0  0  0  0  0  0  0  0  0  0
   -1.6959   -0.0335   -2.0584 H   0  0  0  0  0  0  0  0  0  0  0  0
   -0.4051    0.8819   -1.2951 H   0  0  0  0  0  0  0  0  0  0  0  0
    0.2792   -0.4774   -2.7586 C   0  0  0  0  0  0  0  0  0  0  0  0
    0.7247   -1.7301   -3.1184 C   0  0  0  0  0  0  0  0  0  0  0  0
    0.4591   -2.6646   -2.6289 H   0  0  0  0  0  0  0  0  0  0  0  0
    1.5762   -1.5832   -4.2104 N   0  0  0  0  0  0  0  0  0  0  0  0
    2.0808   -2.3382   -4.6708 H   0  0  0  0  0  0  0  0  0  0  0  0
    1.6763   -0.2487   -4.5663 C   0  0  0  0  0  0  0  0  0  0  0  0
    2.3932    0.3895   -5.5784 C   0  0  0  0  0  0  0  0  0  0  0  0
    3.0149   -0.1863   -6.2548 H   0  0  0  0  0  0  0  0  0  0  0  0
    2.2987    1.7822   -5.7082 C   0  0  0  0  0  0  0  0  0  0  0  0
    2.8523    2.2928   -6.4908 H   0  0  0  0  0  0  0  0  0  0  0  0
    1.4917    2.5177   -4.8268 C   0  0  0  0  0  0  0  0  0  0  0  0
    1.4215    3.5965   -4.9286 H   0  0  0  0  0  0  0  0  0  0  0  0
    0.7784    1.8649   -3.8110 C   0  0  0  0  0  0  0  0  0  0  0  0
    0.1582    2.4327   -3.1256 H   0  0  0  0  0  0  0  0  0  0  0  0
    0.8782    0.4745   -3.6873 C   0  0  0  0  0  0  0  0  0  0  0  0
   -0.5082   -0.3048    0.8670 C   0  0  0  0  0  0  0  0  0  0  0  0
    0.5987   -0.0704    1.3331 O   0  0  0  0  0  0  0  0  0  0  0  0
   -1.6110    0.3396    1.4000 N   0  0  0  0  0  0  0  0  0  0  0  0
   -2.5157    0.0421    1.0511 H   0  0  0  0  0  0  0  0  0  0  0  0
   -1.5546    1.1010    2.6416 C   0  0  0  0  0  0  0  0  0  0  0  0
   -0.8166    1.9066    2.5650 H   0  0  0  0  0  0  0  0  0  0  0  0
   -2.5297    1.5486    2.8558 H   0  0  0  0  0  0  0  0  0  0  0  0
   -1.2793    0.4487    3.4770 H   0  0  0  0  0  0  0  0  0  0  0  0
  1  2  1  0  0  0  0
  2  3  1  0  0  0  0
  2  4  1  0  0  0  0
  2  5  1  0  0  0  0
  5  6  2  0  0  0  0
  5  7  1  0  0  0  0
  7  8  1  0  0  0  0
  7  9  1  0  0  0  0
  9 10  1  0  0  0  0
  9 11  1  0  0  0  0
  9 29  1  0  0  0  0
 11 12  1  0  0  0  0
 11 13  1  0  0  0  0
 11 14  1  0  0  0  0
 14 15  2  0  0  0  0
 14 28  1  0  0  0  0
 15 16  1  0  0  0  0
 15 17  1  0  0  0  0
 17 18  1  0  0  0  0
 17 19  1  0  0  0  0
 19 20  1  0  0  0  0
 19 28  2  0  0  0  0
 20 21  1  0  0  0  0
 20 22  2  0  0  0  0
 22 23  1  0  0  0  0
 22 24  1  0  0  0  0
 24 25  1  0  0  0  0
 24 26  2  0  0  0  0
 26 27  1  0  0  0  0
 26 28  1  0  0  0  0
 29 30  2  0  0  0  0
 29 31  1  0  0  0  0
 31 32  1  0  0  0  0
 31 33  1  0  0  0  0
 33 34  1  0  0  0  0
 33 35  1  0  0  0  0
 33 36  1  0  0  0  0
M  END
$$$$

  -OEChem-03222214083D

 36 37  0     1  0  0  0  0  0999 V2000
   -3.3230   -4.6616    0.8771 H   0  0  0  0  0  0  0  0  0  0  0  0
   -3.2933   -3.8755    0.1169 C   0  0  0  0  0  0  0  0  0  0  0  0
   -4.2078   -3.2819    0.1900 H   0  0  0  0  0  0  0  0  0  0  0  0
   -3.2463   -4.3432   -0.8696 H   0  0  0  0  0  0  0  0  0  0  0  0
   -2.0806   -2.9893    0.3303 C   0  0  0  0  0  0  0  0  0  0  0  0
   -1.3287   -3.2029    1.2626 O   0  0  0  0  0  0  0  0  0  0  0  0
   -1.8373   -1.9431   -0.5367 N   0  0  0  0  0  0  0  0  0  0  0  0
   -2.4567   -1.8587   -1.3367 H   0  0  0  0  0  0  0  0  0  0  0  0
   -0.6492   -1.0661   -0.4783 C   0  0  1  0  0  0  0  0  0  0  0  0
    0.2542   -1.6803   -0.5653 H   0  0  0  0  0  0  0  0  0  0  0  0
   -0.7223   -0.0714   -1.6583 C   0  0  0  0  0  0  0  0  0  0  0  0
   -1.7376   -0.0058   -2.0607 H   0  0  0  0  0  0  0  0  0  0  0  0
   -0.4614    0.9287   -1.2969 H   0  0  0  0  0  0  0  0  0  0  0  0
    0.2408   -0.4281   -2.7646 C   0  0  0  0  0  0  0  0  0  0  0  0
    0.4590   -1.6806   -3.2921 C   0  0  0  0  0  0  0  0  0  0  0  0
   -0.0195   -2.5997   -2.9615 H   0  0  0  0  0  0  0  0  0  0  0  0
    1.4040   -1.5562   -4.3069 N   0  0  0  0  0  0  0  0  0  0  0  0
    1.7832   -2.3232   -4.8583 H   0  0  0  0  0  0  0  0  0  0  0  0
    1.7929   -0.2340   -4.4427 C   0  0  0  0  0  0  0  0  0  0  0  0
    2.7008    0.3786   -5.3066 C   0  0  0  0  0  0  0  0  0  0  0  0
    3.2458   -0.2109   -6.0352 H   0  0  0  0  0  0  0  0  0  0  0  0
    2.9001    1.7631   -5.2179 C   0  0  0  0  0  0  0  0  0  0  0  0
    3.6062    2.2530   -5.8817 H   0  0  0  0  0  0  0  0  0  0  0  0
    2.1910    2.5159   -4.2696 C   0  0  0  0  0  0  0  0  0  0  0  0
    2.3495    3.5879   -4.2015 H   0  0  0  0  0  0  0  0  0  0  0  0
    1.2818    1.8884   -3.4054 C   0  0  0  0  0  0  0  0  0  0  0  0
    0.7382    2.4692   -2.6680 H   0  0  0  0  0  0  0  0  0  0  0  0
    1.0881    0.5055   -3.4992 C   0  0  0  0  0  0  0  0  0  0  0  0
   -0.5063   -0.2948    0.8541 C   0  0  0  0  0  0  0  0  0  0  0  0
    0.6047   -0.0414    1.2997 O   0  0  0  0  0  0  0  0  0  0  0  0
   -1.6094    0.3234    1.4175 N   0  0  0  0  0  0  0  0  0  0  0  0
   -2.5158    0.0119    1.0860 H   0  0  0  0  0  0  0  0  0  0  0  0
   -1.5404    1.0723    2.6660 C   0  0  0  0  0  0  0  0  0  0  0  0
   -0.8211    1.8939    2.5825 H   0  0  0  0  0  0  0  0  0  0  0  0
   -2.5196    1.4969    2.9071 H   0  0  0  0  0  0  0  0  0  0  0  0
   -1.2328    0.4170    3.4879 H   0  0  0  0  0  0  0  0  0  0  0  0
  1  2  1  0  0  0  0
  2  3  1  0  0  0  0
  2  4  1  0  0  0  0
  2  5  1  0  0  0  0
  5  6  2  0  0  0  0
  5  7  1  0  0  0  0
  7  8  1  0  0  0  0
  7  9  1  0  0  0  0
  9 10  1  0  0  0  0
  9 11  1  0  0  0  0
  9 29  1  0  0  0  0
 11 12  1  0  0  0  0
 11 13  1  0  0  0  0
 11 14  1  0  0  0  0
 14 15  2  0  0  0  0
 14 28  1  0  0  0  0
 15 16  1  0  0  0  0
 15 17  1  0  0  0  0
 17 18  1  0  0  0  0
 17 19  1  0  0  0  0
 19 20  1  0  0  0  0
 19 28  2  0  0  0  0
 20 21  1  0  0  0  0
 20 22  2  0  0  0  0
 22 23  1  0  0  0  0
 22 24  1  0  0  0  0
 24 25  1  0  0  0  0
 24 26  2  0  0  0  0
 26 27  1  0  0  0  0
 26 28  1  0  0  0  0
 29 30  2  0  0  0  0
 29 31  1  0  0  0  0
 31 32  1  0  0  0  0
 31 33  1  0  0  0  0
 33 34  1  0  0  0  0
 33 35  1  0  0  0  0
 33 36  1  0  0  0  0
M  END
$$$$

  -OEChem-03222214083D

 36 37  0     1  0  0  0  0  0999 V2000
   -3.2473   -4.6835    0.8809 H   0  0  0  0  0  0  0  0  0  0  0  0
   -3.2410   -3.9016    0.1160 C   0  0  0  0  0  0  0  0  0  0  0  0
   -4.1691   -3.3298    0.1913 H   0  0  0  0  0  0  0  0  0  0  0  0
   -3.1888   -4.3746   -0.8677 H   0  0  0  0  0  0  0  0  0  0  0  0
   -2.0477   -2.9869    0.3171 C   0  0  0  0  0  0  0  0  0  0  0  0
   -1.2803   -3.1862    1.2397 O   0  0  0  0  0  0  0  0  0  0  0  0
   -1.8402   -1.9318   -0.5486 N   0  0  0  0  0  0  0  0  0  0  0  0
   -2.4755   -1.8549   -1.3363 H   0  0  0  0  0  0  0  0  0  0  0  0
   -0.6632   -1.0383   -0.5087 C   0  0  1  0  0  0  0  0  0  0  0  0
    0.2441   -1.6433   -0.6218 H   0  0  0  0  0  0  0  0  0  0  0  0
   -0.7619   -0.0335   -1.6759 C   0  0  0  0  0  0  0  0  0  0  0  0
   -1.7815    0.0102   -2.0705 H   0  0  0  0  0  0  0  0  0  0  0  0
   -0.5207    0.9729   -1.3188 H   0  0  0  0  0  0  0  0  0  0  0  0
    0.1947   -0.3875   -2.7862 C   0  0  0  0  0  0  0  0  0  0  0  0
    0.2075   -1.5608   -3.5037 C   0  0  0  0  0  0  0  0  0  0  0  0
   -0.4689   -2.3994   -3.3587 H   0  0  0  0  0  0  0  0  0  0  0  0
    1.2406   -1.4782   -4.4337 N   0  0  0  0  0  0  0  0  0  0  0  0
    1.5037   -2.2089   -5.0916 H   0  0  0  0  0  0  0  0  0  0  0  0
    1.8971   -0.2639   -4.3167 C   0  0  0  0  0  0  0  0  0  0  0  0
    2.9818    0.2718   -5.0111 C   0  0  0  0  0  0  0  0  0  0  0  0
    3.4579   -0.2947   -5.8036 H   0  0  0  0  0  0  0  0  0  0  0  0
    3.4485    1.5487   -4.6685 C   0  0  0  0  0  0  0  0  0  0  0  0
    4.2925    1.9791   -5.1992 H   0  0  0  0  0  0  0  0  0  0  0  0
    2.8297    2.2696   -3.6357 C   0  0  0  0  0  0  0  0  0  0  0  0
    3.1959    3.2557   -3.3666 H   0  0  0  0  0  0  0  0  0  0  0  0
    1.7417    1.7193   -2.9433 C   0  0  0  0  0  0  0  0  0  0  0  0
    1.2703    2.2730   -2.1381 H   0  0  0  0  0  0  0  0  0  0  0  0
    1.2765    0.4474   -3.2957 C   0  0  0  0  0  0  0  0  0  0  0  0
   -0.5014   -0.2739    0.8254 C   0  0  0  0  0  0  0  0  0  0  0  0
    0.6149    0.0065    1.2409 O   0  0  0  0  0  0  0  0  0  0  0  0
   -1.6020    0.3241    1.4146 N   0  0  0  0  0  0  0  0  0  0  0  0
   -2.5098   -0.0020    1.1015 H   0  0  0  0  0  0  0  0  0  0  0  0
   -1.5186    1.0715    2.6631 C   0  0  0  0  0  0  0  0  0  0  0  0
   -0.8210    1.9099    2.5630 H   0  0  0  0  0  0  0  0  0  0  0  0
   -2.5009    1.4719    2.9308 H   0  0  0  0  0  0  0  0  0  0  0  0
   -1.1745    0.4219    3.4749 H   0  0  0  0  0  0  0  0  0  0  0  0
  1  2  1  0  0  0  0
  2  3  1  0  0  0  0
  2  4  1  0  0  0  0
  2  5  1  0  0  0  0
  5  6  2  0  0  0  0
  5  7  1  0  0  0  0
  7  8  1  0  0  0  0
  7  9  1  0  0  0  0
  9 10  1  0  0  0  0
  9 11  1  0  0  0  0
  9 29  1  0  0  0  0
 11 12  1  0  0  0  0
 11 13  1  0  0  0  0
 11 14  1  0  0  0  0
 14 15  2  0  0  0  0
 14 28  1  0  0  0  0
 15 16  1  0  0  0  0
 15 17  1  0  0  0  0
 17 18  1  0  0  0  0
 17 19  1  0  0  0  0
 19 20  1  0  0  0  0
 19 28  2  0  0  0  0
 20 21  1  0  0  0  0
 20 22  2  0  0  0  0
 22 23  1  0  0  0  0
 22 24  1  0  0  0  0
 24 25  1  0  0  0  0
 24 26  2  0  0  0  0
 26 27  1  0  0  0  0
 26 28  1  0  0  0  0
 29 30  2  0  0  0  0
 29 31  1  0  0  0  0
 31 32  1  0  0  0  0
 31 33  1  0  0  0  0
 33 34  1  0  0  0  0
 33 35  1  0  0  0  0
 33 36  1  0  0  0  0
M  END
$$$$

  -OEChem-03222214083D

 36 37  0     1  0  0  0  0  0999 V2000
   -3.1603   -4.7075    0.8828 H   0  0  0  0  0  0  0  0  0  0  0  0
   -3.1720   -3.9340    0.1094 C   0  0  0  0  0  0  0  0  0  0  0  0
   -4.1184   -3.3916    0.1702 H   0  0  0  0  0  0  0  0  0  0  0  0
   -3.0957   -4.4153   -0.8685 H   0  0  0  0  0  0  0  0  0  0  0  0
   -2.0100   -2.9793    0.3107 C   0  0  0  0  0  0  0  0  0  0  0  0
   -1.2436   -3.1468    1.2407 O   0  0  0  0  0  0  0  0  0  0  0  0
   -1.8358   -1.9198   -0.5573 N   0  0  0  0  0  0  0  0  0  0  0  0
   -2.4570   -1.8830   -1.3586 H   0  0  0  0  0  0  0  0  0  0  0  0
   -0.6690   -1.0122   -0.5376 C   0  0  1  0  0  0  0  0  0  0  0  0
    0.2415   -1.6079   -0.6738 H   0  0  0  0  0  0  0  0  0  0  0  0
   -0.7948    0.0038   -1.6919 C   0  0  0  0  0  0  0  0  0  0  0  0
   -1.8212    0.0286   -2.0700 H   0  0  0  0  0  0  0  0  0  0  0  0
   -0.5658    1.0157   -1.3410 H   0  0  0  0  0  0  0  0  0  0  0  0
    0.1480   -0.3401   -2.8146 C   0  0  0  0  0  0  0  0  0  0  0  0
   -0.0051   -1.3571   -3.7267 C   0  0  0  0  0  0  0  0  0  0  0  0
   -0.8423   -2.0484   -3.7714 H   0  0  0  0  0  0  0  0  0  0  0  0
    1.1011   -1.3360   -4.5728 N   0  0  0  0  0  0  0  0  0  0  0  0
    1.2713   -1.9825   -5.3403 H   0  0  0  0  0  0  0  0  0  0  0  0
    1.9750   -0.3280   -4.1984 C   0  0  0  0  0  0  0  0  0  0  0  0
    3.2056    0.0736   -4.7182 C   0  0  0  0  0  0  0  0  0  0  0  0
    3.6281   -0.4333   -5.5784 H   0  0  0  0  0  0  0  0  0  0  0  0
    3.8896    1.1360   -4.1105 C   0  0  0  0  0  0  0  0  0  0  0  0
    4.8493    1.4588   -4.5030 H   0  0  0  0  0  0  0  0  0  0  0  0
    3.3399    1.7771   -2.9897 C   0  0  0  0  0  0  0  0  0  0  0  0
    3.8767    2.5916   -2.5128 H   0  0  0  0  0  0  0  0  0  0  0  0
    2.1020    1.3647   -2.4759 C   0  0  0  0  0  0  0  0  0  0  0  0
    1.6821    1.8491   -1.5999 H   0  0  0  0  0  0  0  0  0  0  0  0
    1.4200    0.3125   -3.0965 C   0  0  0  0  0  0  0  0  0  0  0  0
   -0.4874   -0.2490    0.7946 C   0  0  0  0  0  0  0  0  0  0  0  0
    0.6336    0.0578    1.1785 O   0  0  0  0  0  0  0  0  0  0  0  0
   -1.5838    0.3340    1.4060 N   0  0  0  0  0  0  0  0  0  0  0  0
   -2.4916   -0.0177    1.1217 H   0  0  0  0  0  0  0  0  0  0  0  0
   -1.4854    1.0946    2.6452 C   0  0  0  0  0  0  0  0  0  0  0  0
   -0.8109    1.9483    2.5194 H   0  0  0  0  0  0  0  0  0  0  0  0
   -2.4699    1.4745    2.9340 H   0  0  0  0  0  0  0  0  0  0  0  0
   -1.1056    0.4609    3.4535 H   0  0  0  0  0  0  0  0  0  0  0  0
  1  2  1  0  0  0  0
  2  3  1  0  0  0  0
  2  4  1  0  0  0  0
  2  5  1  0  0  0  0
  5  6  2  0  0  0  0
  5  7  1  0  0  0  0
  7  8  1  0  0  0  0
  7  9  1  0  0  0  0
  9 10  1  0  0  0  0
  9 11  1  0  0  0  0
  9 29  1  0  0  0  0
 11 12  1  0  0  0  0
 11 13  1  0  0  0  0
 11 14  1  0  0  0  0
 14 15  2  0  0  0  0
 14 28  1  0  0  0  0
 15 16  1  0  0  0  0
 15 17  1  0  0  0  0
 17 18  1  0  0  0  0
 17 19  1  0  0  0  0
 19 20  1  0  0  0  0
 19 28  2  0  0  0  0
 20 21  1  0  0  0  0
 20 22  2  0  0  0  0
 22 23  1  0  0  0  0
 22 24  1  0  0  0  0
 24 25  1  0  0  0  0
 24 26  2  0  0  0  0
 26 27  1  0  0  0  0
 26 28  1  0  0  0  0
 29 30  2  0  0  0  0
 29 31  1  0  0  0  0
 31 32  1  0  0  0  0
 31 33  1  0  0  0  0
 33 34  1  0  0  0  0
 33 35  1  0  0  0  0
 33 36  1  0  0  0  0
M  END
$$$$

  -OEChem-03222214083D

 36 37  0     1  0  0  0  0  0999 V2000
   -3.0942   -4.7318    0.8494 H   0  0  0  0  0  0  0  0  0  0  0  0
   -3.1141   -3.9586    0.0758 C   0  0  0  0  0  0  0  0  0  0  0  0
   -4.0795   -3.4488    0.1145 H   0  0  0  0  0  0  0  0  0  0  0  0
   -2.9995   -4.4363   -0.9002 H   0  0  0  0  0  0  0  0  0  0  0  0
   -1.9908   -2.9643    0.3038 C   0  0  0  0  0  0  0  0  0  0  0  0
   -1.2467   -3.1017    1.2567 O   0  0  0  0  0  0  0  0  0  0  0  0
   -1.8317   -1.9013   -0.5629 N   0  0  0  0  0  0  0  0  0  0  0  0
   -2.4138   -1.9121   -1.3936 H   0  0  0  0  0  0  0  0  0  0  0  0
   -0.6672   -0.9909   -0.5492 C   0  0  1  0  0  0  0  0  0  0  0  0
    0.2421   -1.5855   -0.6980 H   0  0  0  0  0  0  0  0  0  0  0  0
   -0.8029    0.0345   -1.6945 C   0  0  0  0  0  0  0  0  0  0  0  0
   -1.8333    0.0602   -2.0613 H   0  0  0  0  0  0  0  0  0  0  0  0
   -0.5674    1.0451   -1.3435 H   0  0  0  0  0  0  0  0  0  0  0  0
    0.1326   -0.3048   -2.8236 C   0  0  0  0  0  0  0  0  0  0  0  0
   -0.1326   -1.1071   -3.9077 C   0  0  0  0  0  0  0  0  0  0  0  0
   -1.0802   -1.5949   -4.1207 H   0  0  0  0  0  0  0  0  0  0  0  0
    1.0270   -1.1717   -4.6775 N   0  0  0  0  0  0  0  0  0  0  0  0
    1.1344   -1.6973   -5.5424 H   0  0  0  0  0  0  0  0  0  0  0  0
    2.0418   -0.4371   -4.0845 C   0  0  0  0  0  0  0  0  0  0  0  0
    3.3680   -0.2117   -4.4545 C   0  0  0  0  0  0  0  0  0  0  0  0
    3.7632   -0.6439   -5.3669 H   0  0  0  0  0  0  0  0  0  0  0  0
    4.1831    0.5757   -3.6286 C   0  0  0  0  0  0  0  0  0  0  0  0
    5.2179    0.7588   -3.9020 H   0  0  0  0  0  0  0  0  0  0  0  0
    3.6664    1.1207   -2.4428 C   0  0  0  0  0  0  0  0  0  0  0  0
    4.3011    1.7206   -1.7976 H   0  0  0  0  0  0  0  0  0  0  0  0
    2.3322    0.8879   -2.0806 C   0  0  0  0  0  0  0  0  0  0  0  0
    1.9332    1.2950   -1.1558 H   0  0  0  0  0  0  0  0  0  0  0  0
    1.5238    0.1126   -2.9182 C   0  0  0  0  0  0  0  0  0  0  0  0
   -0.4697   -0.2308    0.7825 C   0  0  0  0  0  0  0  0  0  0  0  0
    0.6563    0.0869    1.1438 O   0  0  0  0  0  0  0  0  0  0  0  0
   -1.5585    0.3495    1.4098 N   0  0  0  0  0  0  0  0  0  0  0  0
   -2.4679   -0.0144    1.1460 H   0  0  0  0  0  0  0  0  0  0  0  0
   -1.4419    1.1066    2.6497 C   0  0  0  0  0  0  0  0  0  0  0  0
   -0.7781    1.9669    2.5136 H   0  0  0  0  0  0  0  0  0  0  0  0
   -2.4237    1.4763    2.9605 H   0  0  0  0  0  0  0  0  0  0  0  0
   -1.0396    0.4734    3.4476 H   0  0  0  0  0  0  0  0  0  0  0  0
  1  2  1  0  0  0  0
  2  3  1  0  0  0  0
  2  4  1  0  0  0  0
  2  5  1  0  0  0  0
  5  6  2  0  0  0  0
  5  7  1  0  0  0  0
  7  8  1  0  0  0  0
  7  9  1  0  0  0  0
  9 10  1  0  0  0  0
  9 11  1  0  0  0  0
  9 29  1  0  0  0  0
 11 12  1  0  0  0  0
 11 13  1  0  0  0  0
 11 14  1  0  0  0  0
 14 15  2  0  0  0  0
 14 28  1  0  0  0  0
 15 16  1  0  0  0  0
 15 17  1  0  0  0  0
 17 18  1  0  0  0  0
 17 19  1  0  0  0  0
 19 20  1  0  0  0  0
 19 28  2  0  0  0  0
 20 21  1  0  0  0  0
 20 22  2  0  0  0  0
 22 23  1  0  0  0  0
 22 24  1  0  0  0  0
 24 25  1  0  0  0  0
 24 26  2  0  0  0  0
 26 27  1  0  0  0  0
 26 28  1  0  0  0  0
 29 30  2  0  0  0  0
 29 31  1  0  0  0  0
 31 32  1  0  0  0  0
 31 33  1  0  0  0  0
 33 34  1  0  0  0  0
 33 35  1  0  0  0  0
 33 36  1  0  0  0  0
M  END
$$$$

  -OEChem-03222214083D

 36 37  0     1  0  0  0  0  0999 V2000
   -3.1265   -4.7299    0.8028 H   0  0  0  0  0  0  0  0  0  0  0  0
   -3.1232   -3.9511    0.0346 C   0  0  0  0  0  0  0  0  0  0  0  0
   -4.0925   -3.4471    0.0412 H   0  0  0  0  0  0  0  0  0  0  0  0
   -2.9691   -4.4210   -0.9397 H   0  0  0  0  0  0  0  0  0  0  0  0
   -2.0154   -2.9516    0.3101 C   0  0  0  0  0  0  0  0  0  0  0  0
   -1.3133   -3.0841    1.2951 O   0  0  0  0  0  0  0  0  0  0  0  0
   -1.8242   -1.8909   -0.5531 N   0  0  0  0  0  0  0  0  0  0  0  0
   -2.3571   -1.9239   -1.4158 H   0  0  0  0  0  0  0  0  0  0  0  0
   -0.6463   -0.9991   -0.5149 C   0  0  1  0  0  0  0  0  0  0  0  0
    0.2574   -1.6048   -0.6503 H   0  0  0  0  0  0  0  0  0  0  0  0
   -0.7602    0.0286   -1.6620 C   0  0  0  0  0  0  0  0  0  0  0  0
   -1.7882    0.0747   -2.0339 H   0  0  0  0  0  0  0  0  0  0  0  0
   -0.5068    1.0330   -1.3049 H   0  0  0  0  0  0  0  0  0  0  0  0
    0.1814   -0.3138   -2.7860 C   0  0  0  0  0  0  0  0  0  0  0  0
   -0.1575   -0.8633   -3.9994 C   0  0  0  0  0  0  0  0  0  0  0  0
   -1.1634   -1.1206   -4.3214 H   0  0  0  0  0  0  0  0  0  0  0  0
    1.0159   -1.0202   -4.7339 N   0  0  0  0  0  0  0  0  0  0  0  0
    1.0777   -1.3997   -5.6763 H   0  0  0  0  0  0  0  0  0  0  0  0
    2.1068   -0.5810   -4.0007 C   0  0  0  0  0  0  0  0  0  0  0  0
    3.4697   -0.5377   -4.2961 C   0  0  0  0  0  0  0  0  0  0  0  0
    3.8341   -0.8895   -5.2548 H   0  0  0  0  0  0  0  0  0  0  0  0
    4.3608   -0.0363   -3.3364 C   0  0  0  0  0  0  0  0  0  0  0  0
    5.4249    0.0021   -3.5495 H   0  0  0  0  0  0  0  0  0  0  0  0
    3.8801    0.4131   -2.0970 C   0  0  0  0  0  0  0  0  0  0  0  0
    4.5694    0.7971   -1.3510 H   0  0  0  0  0  0  0  0  0  0  0  0
    2.5085    0.3660   -1.8116 C   0  0  0  0  0  0  0  0  0  0  0  0
    2.1371    0.7084   -0.8501 H   0  0  0  0  0  0  0  0  0  0  0  0
    1.6267   -0.1330   -2.7758 C   0  0  0  0  0  0  0  0  0  0  0  0
   -0.4691   -0.2459    0.8239 C   0  0  0  0  0  0  0  0  0  0  0  0
    0.6529    0.0346    1.2261 O   0  0  0  0  0  0  0  0  0  0  0  0
   -1.5624    0.3487    1.4293 N   0  0  0  0  0  0  0  0  0  0  0  0
   -2.4710    0.0040    1.1380 H   0  0  0  0  0  0  0  0  0  0  0  0
   -1.4630    1.0759    2.6882 C   0  0  0  0  0  0  0  0  0  0  0  0
   -0.7788    1.9251    2.5879 H   0  0  0  0  0  0  0  0  0  0  0  0
   -2.4448    1.4584    2.9826 H   0  0  0  0  0  0  0  0  0  0  0  0
   -1.0936    0.4172    3.4813 H   0  0  0  0  0  0  0  0  0  0  0  0
  1  2  1  0  0  0  0
  2  3  1  0  0  0  0
  2  4  1  0  0  0  0
  2  5  1  0  0  0  0
  5  6  2  0  0  0  0
  5  7  1  0  0  0  0
  7  8  1  0  0  0  0
  7  9  1  0  0  0  0
  9 10  1  0  0  0  0
  9 11  1  0  0  0  0
  9 29  1  0  0  0  0
 11 12  1  0  0  0  0
 11 13  1  0  0  0  0
 11 14  1  0  0  0  0
 14 15  2  0  0  0  0
 14 28  1  0  0  0  0
 15 16  1  0  0  0  0
 15 17  1  0  0  0  0
 17 18  1  0  0  0  0
 17 19  1  0  0  0  0
 19 20  1  0  0  0  0
 19 28  2  0  0  0  0
 20 21  1  0  0  0  0
 20 22  2  0  0  0  0
 22 23  1  0  0  0  0
 22 24  1  0  0  0  0
 24 25  1  0  0  0  0
 24 26  2  0  0  0  0
 26 27  1  0  0  0  0
 26 28  1  0  0  0  0
 29 30  2  0  0  0  0
 29 31  1  0  0  0  0
 31 32  1  0  0  0  0
 31 33  1  0  0  0  0
 33 34  1  0  0  0  0
 33 35  1  0  0  0  0
 33 36  1  0  0  0  0
M  END
$$$$

  -OEChem-03222214083D

 36 37  0     1  0  0  0  0  0999 V2000
   -3.2087   -4.7132    0.7900 H   0  0  0  0  0  0  0  0  0  0  0  0
   -3.1711   -3.9379    0.0192 C   0  0  0  0  0  0  0  0  0  0  0  0
   -4.1342   -3.4228   -0.0083 H   0  0  0  0  0  0  0  0  0  0  0  0
   -2.9898   -4.4136   -0.9477 H   0  0  0  0  0  0  0  0  0  0  0  0
   -2.0624   -2.9496    0.3280 C   0  0  0  0  0  0  0  0  0  0  0  0
   -1.4010   -3.0827    1.3407 O   0  0  0  0  0  0  0  0  0  0  0  0
   -1.8264   -1.8982   -0.5359 N   0  0  0  0  0  0  0  0  0  0  0  0
   -2.3186   -1.9422   -1.4222 H   0  0  0  0  0  0  0  0  0  0  0  0
   -0.6314   -1.0306   -0.4697 C   0  0  1  0  0  0  0  0  0  0  0  0
    0.2634   -1.6534   -0.5808 H   0  0  0  0  0  0  0  0  0  0  0  0
   -0.7090   -0.0039   -1.6225 C   0  0  0  0  0  0  0  0  0  0  0  0
   -1.7323    0.0723   -2.0023 H   0  0  0  0  0  0  0  0  0  0  0  0
   -0.4323    0.9905   -1.2551 H   0  0  0  0  0  0  0  0  0  0  0  0
    0.2403   -0.3467   -2.7425 C   0  0  0  0  0  0  0  0  0  0  0  0
   -0.1237   -0.6062   -4.0428 C   0  0  0  0  0  0  0  0  0  0  0  0
   -1.1406   -0.6101   -4.4279 H   0  0  0  0  0  0  0  0  0  0  0  0
    1.0388   -0.8553   -4.7676 N   0  0  0  0  0  0  0  0  0  0  0  0
    1.0815   -1.0716   -5.7613 H   0  0  0  0  0  0  0  0  0  0  0  0
    2.1505   -0.7389   -3.9495 C   0  0  0  0  0  0  0  0  0  0  0  0
    3.5123   -0.8830   -4.2158 C   0  0  0  0  0  0  0  0  0  0  0  0
    3.8519   -1.1369   -5.2136 H   0  0  0  0  0  0  0  0  0  0  0  0
    4.4345   -0.6942   -3.1773 C   0  0  0  0  0  0  0  0  0  0  0  0
    5.4981   -0.8043   -3.3669 H   0  0  0  0  0  0  0  0  0  0  0  0
    3.9848   -0.3608   -1.8909 C   0  0  0  0  0  0  0  0  0  0  0  0
    4.6981   -0.2119   -1.0859 H   0  0  0  0  0  0  0  0  0  0  0  0
    2.6138   -0.2186   -1.6355 C   0  0  0  0  0  0  0  0  0  0  0  0
    2.2720    0.0422   -0.6389 H   0  0  0  0  0  0  0  0  0  0  0  0
    1.6973   -0.4154   -2.6750 C   0  0  0  0  0  0  0  0  0  0  0  0
   -0.4836   -0.2773    0.8738 C   0  0  0  0  0  0  0  0  0  0  0  0
    0.6283   -0.0330    1.3246 O   0  0  0  0  0  0  0  0  0  0  0  0
   -1.5851    0.3391    1.4419 N   0  0  0  0  0  0  0  0  0  0  0  0
   -2.4895    0.0179    1.1132 H   0  0  0  0  0  0  0  0  0  0  0  0
   -1.5182    1.0523    2.7110 C   0  0  0  0  0  0  0  0  0  0  0  0
   -0.8105    1.8856    2.6468 H   0  0  0  0  0  0  0  0  0  0  0  0
   -2.5013    1.4566    2.9701 H   0  0  0  0  0  0  0  0  0  0  0  0
   -1.1973    0.3775    3.5115 H   0  0  0  0  0  0  0  0  0  0  0  0
  1  2  1  0  0  0  0
  2  3  1  0  0  0  0
  2  4  1  0  0  0  0
  2  5  1  0  0  0  0
  5  6  2  0  0  0  0
  5  7  1  0  0  0  0
  7  8  1  0  0  0  0
  7  9  1  0  0  0  0
  9 10  1  0  0  0  0
  9 11  1  0  0  0  0
  9 29  1  0  0  0  0
 11 12  1  0  0  0  0
 11 13  1  0  0  0  0
 11 14  1  0  0  0  0
 14 15  2  0  0  0  0
 14 28  1  0  0  0  0
 15 16  1  0  0  0  0
 15 17  1  0  0  0  0
 17 18  1  0  0  0  0
 17 19  1  0  0  0  0
 19 20  1  0  0  0  0
 19 28  2  0  0  0  0
 20 21  1  0  0  0  0
 20 22  2  0  0  0  0
 22 23  1  0  0  0  0
 22 24  1  0  0  0  0
 24 25  1  0  0  0  0
 24 26  2  0  0  0  0
 26 27  1  0  0  0  0
 26 28  1  0  0  0  0
 29 30  2  0  0  0  0
 29 31  1  0  0  0  0
 31 32  1  0  0  0  0
 31 33  1  0  0  0  0
 33 34  1  0  0  0  0
 33 35  1  0  0  0  0
 33 36  1  0  0  0  0
M  END
$$$$

  -OEChem-03222214083D

 36 37  0     1  0  0  0  0  0999 V2000
   -3.3353   -4.6987    0.7775 H   0  0  0  0  0  0  0  0  0  0  0  0
   -3.2670   -3.9227    0.0097 C   0  0  0  0  0  0  0  0  0  0  0  0
   -4.2181   -3.3867   -0.0339 H   0  0  0  0  0  0  0  0  0  0  0  0
   -3.0790   -4.4005   -0.9548 H   0  0  0  0  0  0  0  0  0  0  0  0
   -2.1426   -2.9594    0.3408 C   0  0  0  0  0  0  0  0  0  0  0  0
   -1.5059   -3.1041    1.3679 O   0  0  0  0  0  0  0  0  0  0  0  0
   -1.8630   -1.9171   -0.5207 N   0  0  0  0  0  0  0  0  0  0  0  0
   -2.3299   -1.9594   -1.4210 H   0  0  0  0  0  0  0  0  0  0  0  0
   -0.6480   -1.0808   -0.4327 C   0  0  1  0  0  0  0  0  0  0  0  0
    0.2235   -1.7363   -0.5230 H   0  0  0  0  0  0  0  0  0  0  0  0
   -0.6788   -0.0623   -1.5961 C   0  0  0  0  0  0  0  0  0  0  0  0
   -1.6947    0.0468   -1.9880 H   0  0  0  0  0  0  0  0  0  0  0  0
   -0.3789    0.9229   -1.2222 H   0  0  0  0  0  0  0  0  0  0  0  0
    0.2779   -0.4148   -2.7096 C   0  0  0  0  0  0  0  0  0  0  0  0
   -0.0452   -0.3725   -4.0455 C   0  0  0  0  0  0  0  0  0  0  0  0
   -1.0221   -0.1216   -4.4521 H   0  0  0  0  0  0  0  0  0  0  0  0
    1.0929   -0.7067   -4.7727 N   0  0  0  0  0  0  0  0  0  0  0  0
    1.1550   -0.7503   -5.7877 H   0  0  0  0  0  0  0  0  0  0  0  0
    2.1630   -0.9135   -3.9195 C   0  0  0  0  0  0  0  0  0  0  0  0
    3.4957   -1.2300   -4.1830 C   0  0  0  0  0  0  0  0  0  0  0  0
    3.8326   -1.3764   -5.2030 H   0  0  0  0  0  0  0  0  0  0  0  0
    4.3931   -1.3471   -3.1135 C   0  0  0  0  0  0  0  0  0  0  0  0
    5.4347   -1.5906   -3.3011 H   0  0  0  0  0  0  0  0  0  0  0  0
    3.9486   -1.1382   -1.8000 C   0  0  0  0  0  0  0  0  0  0  0  0
    4.6447   -1.2168   -0.9703 H   0  0  0  0  0  0  0  0  0  0  0  0
    2.6063   -0.8213   -1.5488 C   0  0  0  0  0  0  0  0  0  0  0  0
    2.2784   -0.6463   -0.5291 H   0  0  0  0  0  0  0  0  0  0  0  0
    1.7064   -0.7240   -2.6186 C   0  0  0  0  0  0  0  0  0  0  0  0
   -0.5001   -0.3249    0.9087 C   0  0  0  0  0  0  0  0  0  0  0  0
    0.6126   -0.1056    1.3705 O   0  0  0  0  0  0  0  0  0  0  0  0
   -1.5926    0.3247    1.4561 N   0  0  0  0  0  0  0  0  0  0  0  0
   -2.5005    0.0194    1.1213 H   0  0  0  0  0  0  0  0  0  0  0  0
   -1.5233    1.0542    2.7156 C   0  0  0  0  0  0  0  0  0  0  0  0
   -0.7874    1.8626    2.6511 H   0  0  0  0  0  0  0  0  0  0  0  0
   -2.4968    1.4940    2.9515 H   0  0  0  0  0  0  0  0  0  0  0  0
   -1.2378    0.3816    3.5314 H   0  0  0  0  0  0  0  0  0  0  0  0
  1  2  1  0  0  0  0
  2  3  1  0  0  0  0
  2  4  1  0  0  0  0
  2  5  1  0  0  0  0
  5  6  2  0  0  0  0
  5  7  1  0  0  0  0
  7  8  1  0  0  0  0
  7  9  1  0  0  0  0
  9 10  1  0  0  0  0
  9 11  1  0  0  0  0
  9 29  1  0  0  0  0
 11 12  1  0  0  0  0
 11 13  1  0  0  0  0
 11 14  1  0  0  0  0
 14 15  2  0  0  0  0
 14 28  1  0  0  0  0
 15 16  1  0  0  0  0
 15 17  1  0  0  0  0
 17 18  1  0  0  0  0
 17 19  1  0  0  0  0
 19 20  1  0  0  0  0
 19 28  2  0  0  0  0
 20 21  1  0  0  0  0
 20 22  2  0  0  0  0
 22 23  1  0  0  0  0
 22 24  1  0  0  0  0
 24 25  1  0  0  0  0
 24 26  2  0  0  0  0
 26 27  1  0  0  0  0
 26 28  1  0  0  0  0
 29 30  2  0  0  0  0
 29 31  1  0  0  0  0
 31 32  1  0  0  0  0
 31 33  1  0  0  0  0
 33 34  1  0  0  0  0
 33 35  1  0  0  0  0
 33 36  1  0  0  0  0
M  END
$$$$

  -OEChem-03222214083D

 36 37  0     1  0  0  0  0  0999 V2000
   -3.4807   -4.6863    0.7671 H   0  0  0  0  0  0  0  0  0  0  0  0
   -3.4055   -3.8951    0.0155 C   0  0  0  0  0  0  0  0  0  0  0  0
   -4.3478   -3.3425   -0.0095 H   0  0  0  0  0  0  0  0  0  0  0  0
   -3.2331   -4.3549   -0.9608 H   0  0  0  0  0  0  0  0  0  0  0  0
   -2.2627   -2.9578    0.3578 C   0  0  0  0  0  0  0  0  0  0  0  0
   -1.6459   -3.1094    1.3962 O   0  0  0  0  0  0  0  0  0  0  0  0
   -1.9427   -1.9295   -0.5062 N   0  0  0  0  0  0  0  0  0  0  0  0
   -2.3967   -1.9666   -1.4134 H   0  0  0  0  0  0  0  0  0  0  0  0
   -0.7016   -1.1344   -0.4086 C   0  0  1  0  0  0  0  0  0  0  0  0
    0.1301   -1.8367   -0.4793 H   0  0  0  0  0  0  0  0  0  0  0  0
   -0.6729   -0.1394   -1.5924 C   0  0  0  0  0  0  0  0  0  0  0  0
   -1.6785   -0.0004   -2.0013 H   0  0  0  0  0  0  0  0  0  0  0  0
   -0.3480    0.8391   -1.2218 H   0  0  0  0  0  0  0  0  0  0  0  0
    0.2873   -0.5145   -2.6992 C   0  0  0  0  0  0  0  0  0  0  0  0
    0.0636   -0.1816   -4.0150 C   0  0  0  0  0  0  0  0  0  0  0  0
   -0.8303    0.3048   -4.3985 H   0  0  0  0  0  0  0  0  0  0  0  0
    1.1666   -0.5841   -4.7588 N   0  0  0  0  0  0  0  0  0  0  0  0
    1.2804   -0.4618   -5.7629 H   0  0  0  0  0  0  0  0  0  0  0  0
    2.1435   -1.0917   -3.9224 C   0  0  0  0  0  0  0  0  0  0  0  0
    3.4260   -1.5567   -4.2115 C   0  0  0  0  0  0  0  0  0  0  0  0
    3.7778   -1.5933   -5.2363 H   0  0  0  0  0  0  0  0  0  0  0  0
    4.2571   -1.9608   -3.1600 C   0  0  0  0  0  0  0  0  0  0  0  0
    5.2597   -2.3233   -3.3663 H   0  0  0  0  0  0  0  0  0  0  0  0
    3.8011   -1.8757   -1.8376 C   0  0  0  0  0  0  0  0  0  0  0  0
    4.4517   -2.1659   -1.0180 H   0  0  0  0  0  0  0  0  0  0  0  0
    2.5097   -1.4054   -1.5620 C   0  0  0  0  0  0  0  0  0  0  0  0
    2.1947   -1.3152   -0.5275 H   0  0  0  0  0  0  0  0  0  0  0  0
    1.6589   -1.0385   -2.6172 C   0  0  0  0  0  0  0  0  0  0  0  0
   -0.5234   -0.3717    0.9233 C   0  0  0  0  0  0  0  0  0  0  0  0
    0.5999   -0.1946    1.3773 O   0  0  0  0  0  0  0  0  0  0  0  0
   -1.5880    0.3260    1.4658 N   0  0  0  0  0  0  0  0  0  0  0  0
   -2.5078    0.0508    1.1374 H   0  0  0  0  0  0  0  0  0  0  0  0
   -1.4865    1.0576    2.7218 C   0  0  0  0  0  0  0  0  0  0  0  0
   -0.7121    1.8291    2.6552 H   0  0  0  0  0  0  0  0  0  0  0  0
   -2.4380    1.5456    2.9532 H   0  0  0  0  0  0  0  0  0  0  0  0
   -1.2358    0.3757    3.5411 H   0  0  0  0  0  0  0  0  0  0  0  0
  1  2  1  0  0  0  0
  2  3  1  0  0  0  0
  2  4  1  0  0  0  0
  2  5  1  0  0  0  0
  5  6  2  0  0  0  0
  5  7  1  0  0  0  0
  7  8  1  0  0  0  0
  7  9  1  0  0  0  0
  9 10  1  0  0  0  0
  9 11  1  0  0  0  0
  9 29  1  0  0  0  0
 11 12  1  0  0  0  0
 11 13  1  0  0  0  0
 11 14  1  0  0  0  0
 14 15  2  0  0  0  0
 14 28  1  0  0  0  0
 15 16  1  0  0  0  0
 15 17  1  0  0  0  0
 17 18  1  0  0  0  0
 17 19  1  0  0  0  0
 19 20  1  0  0  0  0
 19 28  2  0  0  0  0
 20 21  1  0  0  0  0
 20 22  2  0  0  0  0
 22 23  1  0  0  0  0
 22 24  1  0  0  0  0
 24 25  1  0  0  0  0
 24 26  2  0  0  0  0
 26 27  1  0  0  0  0
 26 28  1  0  0  0  0
 29 30  2  0  0  0  0
 29 31  1  0  0  0  0
 31 32  1  0  0  0  0
 31 33  1  0  0  0  0
 33 34  1  0  0  0  0
 33 35  1  0  0  0  0
 33 36  1  0  0  0  0
M  END
$$$$

  -OEChem-03222214083D

 36 37  0     1  0  0  0  0  0999 V2000
   -3.5706   -4.6501    0.8301 H   0  0  0  0  0  0  0  0  0  0  0  0
   -3.4667   -3.8785    0.0617 C   0  0  0  0  0  0  0  0  0  0  0  0
   -4.4024   -3.3183   -0.0027 H   0  0  0  0  0  0  0  0  0  0  0  0
   -3.2718   -4.3639   -0.8975 H   0  0  0  0  0  0  0  0  0  0  0  0
   -2.3237   -2.9446    0.4132 C   0  0  0  0  0  0  0  0  0  0  0  0
   -1.7336   -3.0828    1.4688 O   0  0  0  0  0  0  0  0  0  0  0  0
   -1.9650   -1.9411   -0.4649 N   0  0  0  0  0  0  0  0  0  0  0  0
   -2.3914   -1.9932   -1.3851 H   0  0  0  0  0  0  0  0  0  0  0  0
   -0.7212   -1.1528   -0.3433 C   0  0  1  0  0  0  0  0  0  0  0  0
    0.1018   -1.8595   -0.3590 H   0  0  0  0  0  0  0  0  0  0  0  0
   -0.6408   -0.1896   -1.5488 C   0  0  0  0  0  0  0  0  0  0  0  0
   -1.6359   -0.0539   -1.9843 H   0  0  0  0  0  0  0  0  0  0  0  0
   -0.3282    0.7944   -1.1813 H   0  0  0  0  0  0  0  0  0  0  0  0
    0.3424   -0.5510   -2.6468 C   0  0  0  0  0  0  0  0  0  0  0  0
    0.2424    0.0692   -3.8713 C   0  0  0  0  0  0  0  0  0  0  0  0
   -0.5291    0.7821   -4.1533 H   0  0  0  0  0  0  0  0  0  0  0  0
    1.2726   -0.3853   -4.6811 N   0  0  0  0  0  0  0  0  0  0  0  0
    1.4472   -0.0906   -5.6397 H   0  0  0  0  0  0  0  0  0  0  0  0
    2.0951   -1.2320   -3.9651 C   0  0  0  0  0  0  0  0  0  0  0  0
    3.2674   -1.8686   -4.3709 C   0  0  0  0  0  0  0  0  0  0  0  0
    3.6254   -1.7616   -5.3887 H   0  0  0  0  0  0  0  0  0  0  0  0
    3.9826   -2.6321   -3.4436 C   0  0  0  0  0  0  0  0  0  0  0  0
    4.9000   -3.1326   -3.7390 H   0  0  0  0  0  0  0  0  0  0  0  0
    3.5253   -2.7272   -2.1243 C   0  0  0  0  0  0  0  0  0  0  0  0
    4.0938   -3.2953   -1.3941 H   0  0  0  0  0  0  0  0  0  0  0  0
    2.3446   -2.0803   -1.7319 C   0  0  0  0  0  0  0  0  0  0  0  0
    2.0619   -2.1493   -0.6890 H   0  0  0  0  0  0  0  0  0  0  0  0
    1.5905   -1.3462   -2.6678 C   0  0  0  0  0  0  0  0  0  0  0  0
   -0.5854   -0.3575    0.9746 C   0  0  0  0  0  0  0  0  0  0  0  0
    0.5218   -0.1761    1.4643 O   0  0  0  0  0  0  0  0  0  0  0  0
   -1.6636    0.3615    1.4597 N   0  0  0  0  0  0  0  0  0  0  0  0
   -2.5734    0.0860    1.1048 H   0  0  0  0  0  0  0  0  0  0  0  0
   -1.6008    1.1358    2.6927 C   0  0  0  0  0  0  0  0  0  0  0  0
   -0.8175    1.8985    2.6281 H   0  0  0  0  0  0  0  0  0  0  0  0
   -2.5557    1.6387    2.8721 H   0  0  0  0  0  0  0  0  0  0  0  0
   -1.3862    0.4813    3.5439 H   0  0  0  0  0  0  0  0  0  0  0  0
  1  2  1  0  0  0  0
  2  3  1  0  0  0  0
  2  4  1  0  0  0  0
  2  5  1  0  0  0  0
  5  6  2  0  0  0  0
  5  7  1  0  0  0  0
  7  8  1  0  0  0  0
  7  9  1  0  0  0  0
  9 10  1  0  0  0  0
  9 11  1  0  0  0  0
  9 29  1  0  0  0  0
 11 12  1  0  0  0  0
 11 13  1  0  0  0  0
 11 14  1  0  0  0  0
 14 15  2  0  0  0  0
 14 28  1  0  0  0  0
 15 16  1  0  0  0  0
 15 17  1  0  0  0  0
 17 18  1  0  0  0  0
 17 19  1  0  0  0  0
 19 20  1  0  0  0  0
 19 28  2  0  0  0  0
 20 21  1  0  0  0  0
 20 22  2  0  0  0  0
 22 23  1  0  0  0  0
 22 24  1  0  0  0  0
 24 25  1  0  0  0  0
 24 26  2  0  0  0  0
 26 27  1  0  0  0  0
 26 28  1  0  0  0  0
 29 30  2  0  0  0  0
 29 31  1  0  0  0  0
 31 32  1  0  0  0  0
 31 33  1  0  0  0  0
 33 34  1  0  0  0  0
 33 35  1  0  0  0  0
 33 36  1  0  0  0  0
M  END
$$$$

  -OEChem-03222214083D

 36 37  0     1  0  0  0  0  0999 V2000
   -3.2102   -4.7056    0.9413 H   0  0  0  0  0  0  0  0  0  0  0  0
   -3.1001   -3.9797    0.1306 C   0  0  0  0  0  0  0  0  0  0  0  0
   -4.0614   -3.4867   -0.0324 H   0  0  0  0  0  0  0  0  0  0  0  0
   -2.8109   -4.5116   -0.7790 H   0  0  0  0  0  0  0  0  0  0  0  0
   -2.0431   -2.9525    0.4899 C   0  0  0  0  0  0  0  0  0  0  0  0
   -1.4764   -3.0175    1.5650 O   0  0  0  0  0  0  0  0  0  0  0  0
   -1.7207   -1.9610   -0.4147 N   0  0  0  0  0  0  0  0  0  0  0  0
   -2.1053   -2.0753   -1.3486 H   0  0  0  0  0  0  0  0  0  0  0  0
   -0.5565   -1.0616   -0.2802 C   0  0  1  0  0  0  0  0  0  0  0  0
    0.3776   -1.6230   -0.2298 H   0  0  0  0  0  0  0  0  0  0  0  0
   -0.5442   -0.1111   -1.4887 C   0  0  0  0  0  0  0  0  0  0  0  0
   -1.5715    0.1311   -1.7790 H   0  0  0  0  0  0  0  0  0  0  0  0
   -0.0708    0.8297   -1.1858 H   0  0  0  0  0  0  0  0  0  0  0  0
    0.2216   -0.6030   -2.7009 C   0  0  0  0  0  0  0  0  0  0  0  0
    0.2915    0.1822   -3.8281 C   0  0  0  0  0  0  0  0  0  0  0  0
   -0.1055    1.1915   -3.9160 H   0  0  0  0  0  0  0  0  0  0  0  0
    0.9560   -0.5295   -4.8168 N   0  0  0  0  0  0  0  0  0  0  0  0
    1.1752   -0.1842   -5.7491 H   0  0  0  0  0  0  0  0  0  0  0  0
    1.2748   -1.7923   -4.3577 C   0  0  0  0  0  0  0  0  0  0  0  0
    1.9129   -2.8383   -5.0227 C   0  0  0  0  0  0  0  0  0  0  0  0
    2.2562   -2.7108   -6.0433 H   0  0  0  0  0  0  0  0  0  0  0  0
    2.0997   -4.0539   -4.3576 C   0  0  0  0  0  0  0  0  0  0  0  0
    2.5973   -4.8789   -4.8589 H   0  0  0  0  0  0  0  0  0  0  0  0
    1.6386   -4.2054   -3.0444 C   0  0  0  0  0  0  0  0  0  0  0  0
    1.7785   -5.1505   -2.5278 H   0  0  0  0  0  0  0  0  0  0  0  0
    0.9996   -3.1436   -2.3884 C   0  0  0  0  0  0  0  0  0  0  0  0
    0.6524   -3.3123   -1.3773 H   0  0  0  0  0  0  0  0  0  0  0  0
    0.8236   -1.9095   -3.0416 C   0  0  0  0  0  0  0  0  0  0  0  0
   -0.5900   -0.2132    1.0128 C   0  0  0  0  0  0  0  0  0  0  0  0
    0.4572    0.1105    1.5582 O   0  0  0  0  0  0  0  0  0  0  0  0
   -1.7652    0.4085    1.3983 N   0  0  0  0  0  0  0  0  0  0  0  0
   -2.6167    0.0296    0.9972 H   0  0  0  0  0  0  0  0  0  0  0  0
   -1.8638    1.2256    2.6009 C   0  0  0  0  0  0  0  0  0  0  0  0
   -1.1779    2.0772    2.5438 H   0  0  0  0  0  0  0  0  0  0  0  0
   -2.8815    1.6109    2.7130 H   0  0  0  0  0  0  0  0  0  0  0  0
   -1.6166    0.6325    3.4877 H   0  0  0  0  0  0  0  0  0  0  0  0
  1  2  1  0  0  0  0
  2  3  1  0  0  0  0
  2  4  1  0  0  0  0
  2  5  1  0  0  0  0
  5  6  2  0  0  0  0
  5  7  1  0  0  0  0
  7  8  1  0  0  0  0
  7  9  1  0  0  0  0
  9 10  1  0  0  0  0
  9 11  1  0  0  0  0
  9 29  1  0  0  0  0
 11 12  1  0  0  0  0
 11 13  1  0  0  0  0
 11 14  1  0  0  0  0
 14 15  2  0  0  0  0
 14 28  1  0  0  0  0
 15 16  1  0  0  0  0
 15 17  1  0  0  0  0
 17 18  1  0  0  0  0
 17 19  1  0  0  0  0
 19 20  1  0  0  0  0
 19 28  2  0  0  0  0
 20 21  1  0  0  0  0
 20 22  2  0  0  0  0
 22 23  1  0  0  0  0
 22 24  1  0  0  0  0
 24 25  1  0  0  0  0
 24 26  2  0  0  0  0
 26 27  1  0  0  0  0
 26 28  1  0  0  0  0
 29 30  2  0  0  0  0
 29 31  1  0  0  0  0
 31 32  1  0  0  0  0
 31 33  1  0  0  0  0
 33 34  1  0  0  0  0
 33 35  1  0  0  0  0
 33 36  1  0  0  0  0
M  END
$$$$

  -OEChem-03222214083D

 36 37  0     1  0  0  0  0  0999 V2000
   -3.2858   -4.7225    0.9015 H   0  0  0  0  0  0  0  0  0  0  0  0
   -3.2248   -3.9447    0.1349 C   0  0  0  0  0  0  0  0  0  0  0  0
   -4.1809   -3.4177    0.0914 H   0  0  0  0  0  0  0  0  0  0  0  0
   -3.0320   -4.4189   -0.8305 H   0  0  0  0  0  0  0  0  0  0  0  0
   -2.1110   -2.9703    0.4678 C   0  0  0  0  0  0  0  0  0  0  0  0
   -1.5041   -3.0781    1.5170 O   0  0  0  0  0  0  0  0  0  0  0  0
   -1.7875   -1.9724   -0.4289 N   0  0  0  0  0  0  0  0  0  0  0  0
   -2.2236   -2.0384   -1.3448 H   0  0  0  0  0  0  0  0  0  0  0  0
   -0.5991   -1.1018   -0.3133 C   0  0  1  0  0  0  0  0  0  0  0  0
    0.3170   -1.7005   -0.3101 H   0  0  0  0  0  0  0  0  0  0  0  0
   -0.5937   -0.1446   -1.5173 C   0  0  0  0  0  0  0  0  0  0  0  0
   -1.6236    0.1046   -1.7918 H   0  0  0  0  0  0  0  0  0  0  0  0
   -0.1084    0.7925   -1.2212 H   0  0  0  0  0  0  0  0  0  0  0  0
    0.1388   -0.6546   -2.7411 C   0  0  0  0  0  0  0  0  0  0  0  0
    0.4840    0.2024   -3.7598 C   0  0  0  0  0  0  0  0  0  0  0  0
    0.3107    1.2765   -3.7641 H   0  0  0  0  0  0  0  0  0  0  0  0
    1.0813   -0.5409   -4.7691 N   0  0  0  0  0  0  0  0  0  0  0  0
    1.4558   -0.1641   -5.6375 H   0  0  0  0  0  0  0  0  0  0  0  0
    1.1155   -1.8773   -4.4194 C   0  0  0  0  0  0  0  0  0  0  0  0
    1.6137   -2.9713   -5.1259 C   0  0  0  0  0  0  0  0  0  0  0  0
    2.0603   -2.8342   -6.1043 H   0  0  0  0  0  0  0  0  0  0  0  0
    1.5323   -4.2455   -4.5542 C   0  0  0  0  0  0  0  0  0  0  0  0
    1.9194   -5.1079   -5.0891 H   0  0  0  0  0  0  0  0  0  0  0  0
    0.9564   -4.4049   -3.2874 C   0  0  0  0  0  0  0  0  0  0  0  0
    0.9006   -5.3926   -2.8392 H   0  0  0  0  0  0  0  0  0  0  0  0
    0.4600   -3.2952   -2.5892 C   0  0  0  0  0  0  0  0  0  0  0  0
    0.0330   -3.4559   -1.6081 H   0  0  0  0  0  0  0  0  0  0  0  0
    0.5367   -2.0121   -3.1573 C   0  0  0  0  0  0  0  0  0  0  0  0
   -0.5656   -0.2676    0.9875 C   0  0  0  0  0  0  0  0  0  0  0  0
    0.5086    0.0282    1.4943 O   0  0  0  0  0  0  0  0  0  0  0  0
   -1.7091    0.3817    1.4193 N   0  0  0  0  0  0  0  0  0  0  0  0
   -2.5856    0.0261    1.0524 H   0  0  0  0  0  0  0  0  0  0  0  0
   -1.7374    1.2122    2.6166 C   0  0  0  0  0  0  0  0  0  0  0  0
   -1.0154    2.0314    2.5324 H   0  0  0  0  0  0  0  0  0  0  0  0
   -2.7330    1.6448    2.7533 H   0  0  0  0  0  0  0  0  0  0  0  0
   -1.4915    0.6156    3.5013 H   0  0  0  0  0  0  0  0  0  0  0  0
  1  2  1  0  0  0  0
  2  3  1  0  0  0  0
  2  4  1  0  0  0  0
  2  5  1  0  0  0  0
  5  6  2  0  0  0  0
  5  7  1  0  0  0  0
  7  8  1  0  0  0  0
  7  9  1  0  0  0  0
  9 10  1  0  0  0  0
  9 11  1  0  0  0  0
  9 29  1  0  0  0  0
 11 12  1  0  0  0  0
 11 13  1  0  0  0  0
 11 14  1  0  0  0  0
 14 15  2  0  0  0  0
 14 28  1  0  0  0  0
 15 16  1  0  0  0  0
 15 17  1  0  0  0  0
 17 18  1  0  0  0  0
 17 19  1  0  0  0  0
 19 20  1  0  0  0  0
 19 28  2  0  0  0  0
 20 21  1  0  0  0  0
 20 22  2  0  0  0  0
 22 23  1  0  0  0  0
 22 24  1  0  0  0  0
 24 25  1  0  0  0  0
 24 26  2  0  0  0  0
 26 27  1  0  0  0  0
 26 28  1  0  0  0  0
 29 30  2  0  0  0  0
 29 31  1  0  0  0  0
 31 32  1  0  0  0  0
 31 33  1  0  0  0  0
 33 34  1  0  0  0  0
 33 35  1  0  0  0  0
 33 36  1  0  0  0  0
M  END
$$$$

  -OEChem-03222214083D

 36 37  0     1  0  0  0  0  0999 V2000
   -3.4059   -4.6645    0.9406 H   0  0  0  0  0  0  0  0  0  0  0  0
   -3.3216   -3.9071    0.1560 C   0  0  0  0  0  0  0  0  0  0  0  0
   -4.2610   -3.3520    0.1008 H   0  0  0  0  0  0  0  0  0  0  0  0
   -3.1452   -4.4097   -0.7981 H   0  0  0  0  0  0  0  0  0  0  0  0
   -2.1766   -2.9611    0.4650 C   0  0  0  0  0  0  0  0  0  0  0  0
   -1.5429   -3.0921    1.4954 O   0  0  0  0  0  0  0  0  0  0  0  0
   -1.8565   -1.9614   -0.4312 N   0  0  0  0  0  0  0  0  0  0  0  0
   -2.3383   -1.9901   -1.3257 H   0  0  0  0  0  0  0  0  0  0  0  0
   -0.6467   -1.1171   -0.3425 C   0  0  1  0  0  0  0  0  0  0  0  0
    0.2472   -1.7498   -0.3756 H   0  0  0  0  0  0  0  0  0  0  0  0
   -0.6369   -0.1593   -1.5476 C   0  0  0  0  0  0  0  0  0  0  0  0
   -1.6665    0.1043   -1.8098 H   0  0  0  0  0  0  0  0  0  0  0  0
   -0.1369    0.7712   -1.2557 H   0  0  0  0  0  0  0  0  0  0  0  0
    0.0664   -0.6836   -2.7839 C   0  0  0  0  0  0  0  0  0  0  0  0
    0.6843    0.1779   -3.6608 C   0  0  0  0  0  0  0  0  0  0  0  0
    0.7359    1.2590   -3.5496 H   0  0  0  0  0  0  0  0  0  0  0  0
    1.2108   -0.5681   -4.7070 N   0  0  0  0  0  0  0  0  0  0  0  0
    1.7364   -0.1929   -5.4941 H   0  0  0  0  0  0  0  0  0  0  0  0
    0.9561   -1.9112   -4.5077 C   0  0  0  0  0  0  0  0  0  0  0  0
    1.3055   -3.0111   -5.2902 C   0  0  0  0  0  0  0  0  0  0  0  0
    1.8498   -2.8733   -6.2178 H   0  0  0  0  0  0  0  0  0  0  0  0
    0.9509   -4.2936   -4.8584 C   0  0  0  0  0  0  0  0  0  0  0  0
    1.2184   -5.1616   -5.4537 H   0  0  0  0  0  0  0  0  0  0  0  0
    0.2622   -4.4560   -3.6498 C   0  0  0  0  0  0  0  0  0  0  0  0
    0.0027   -5.4531   -3.3065 H   0  0  0  0  0  0  0  0  0  0  0  0
   -0.0824   -3.3394   -2.8750 C   0  0  0  0  0  0  0  0  0  0  0  0
   -0.5888   -3.5027   -1.9350 H   0  0  0  0  0  0  0  0  0  0  0  0
    0.2531   -2.0475   -3.3102 C   0  0  0  0  0  0  0  0  0  0  0  0
   -0.5521   -0.2940    0.9624 C   0  0  0  0  0  0  0  0  0  0  0  0
    0.5444   -0.0263    1.4364 O   0  0  0  0  0  0  0  0  0  0  0  0
   -1.6661    0.3777    1.4352 N   0  0  0  0  0  0  0  0  0  0  0  0
   -2.5610    0.0475    1.0894 H   0  0  0  0  0  0  0  0  0  0  0  0
   -1.6422    1.1829    2.6498 C   0  0  0  0  0  0  0  0  0  0  0  0
   -0.9180    1.9988    2.5559 H   0  0  0  0  0  0  0  0  0  0  0  0
   -2.6284    1.6190    2.8342 H   0  0  0  0  0  0  0  0  0  0  0  0
   -1.3681    0.5658    3.5117 H   0  0  0  0  0  0  0  0  0  0  0  0
  1  2  1  0  0  0  0
  2  3  1  0  0  0  0
  2  4  1  0  0  0  0
  2  5  1  0  0  0  0
  5  6  2  0  0  0  0
  5  7  1  0  0  0  0
  7  8  1  0  0  0  0
  7  9  1  0  0  0  0
  9 10  1  0  0  0  0
  9 11  1  0  0  0  0
  9 29  1  0  0  0  0
 11 12  1  0  0  0  0
 11 13  1  0  0  0  0
 11 14  1  0  0  0  0
 14 15  2  0  0  0  0
 14 28  1  0  0  0  0
 15 16  1  0  0  0  0
 15 17  1  0  0  0  0
 17 18  1  0  0  0  0
 17 19  1  0  0  0  0
 19 20  1  0  0  0  0
 19 28  2  0  0  0  0
 20 21  1  0  0  0  0
 20 22  2  0  0  0  0
 22 23  1  0  0  0  0
 22 24  1  0  0  0  0
 24 25  1  0  0  0  0
 24 26  2  0  0  0  0
 26 27  1  0  0  0  0
 26 28  1  0  0  0  0
 29 30  2  0  0  0  0
 29 31  1  0  0  0  0
 31 32  1  0  0  0  0
 31 33  1  0  0  0  0
 33 34  1  0  0  0  0
 33 35  1  0  0  0  0
 33 36  1  0  0  0  0
M  END
$$$$

  -OEChem-03222214083D

 36 37  0     1  0  0  0  0  0999 V2000
   -3.3859   -4.6652    1.0017 H   0  0  0  0  0  0  0  0  0  0  0  0
   -3.3200   -3.9107    0.2124 C   0  0  0  0  0  0  0  0  0  0  0  0
   -4.2539   -3.3439    0.1882 H   0  0  0  0  0  0  0  0  0  0  0  0
   -3.1835   -4.4180   -0.7456 H   0  0  0  0  0  0  0  0  0  0  0  0
   -2.1525   -2.9793    0.4796 C   0  0  0  0  0  0  0  0  0  0  0  0
   -1.4822   -3.1194    1.4854 O   0  0  0  0  0  0  0  0  0  0  0  0
   -1.8626   -1.9739   -0.4204 N   0  0  0  0  0  0  0  0  0  0  0  0
   -2.4001   -1.9659   -1.2821 H   0  0  0  0  0  0  0  0  0  0  0  0
   -0.6627   -1.1170   -0.3587 C   0  0  1  0  0  0  0  0  0  0  0  0
    0.2305   -1.7506   -0.4059 H   0  0  0  0  0  0  0  0  0  0  0  0
   -0.6588   -0.1601   -1.5663 C   0  0  0  0  0  0  0  0  0  0  0  0
   -1.6889    0.0980   -1.8312 H   0  0  0  0  0  0  0  0  0  0  0  0
   -0.1637    0.7741   -1.2777 H   0  0  0  0  0  0  0  0  0  0  0  0
    0.0463   -0.6978   -2.7960 C   0  0  0  0  0  0  0  0  0  0  0  0
    0.9175    0.0922   -3.5105 C   0  0  0  0  0  0  0  0  0  0  0  0
    1.1856    1.1173   -3.2622 H   0  0  0  0  0  0  0  0  0  0  0  0
    1.3868   -0.6425   -4.5911 N   0  0  0  0  0  0  0  0  0  0  0  0
    2.0615   -0.3149   -5.2796 H   0  0  0  0  0  0  0  0  0  0  0  0
    0.8272   -1.9052   -4.5851 C   0  0  0  0  0  0  0  0  0  0  0  0
    1.0145   -2.9663   -5.4702 C   0  0  0  0  0  0  0  0  0  0  0  0
    1.6843   -2.8620   -6.3169 H   0  0  0  0  0  0  0  0  0  0  0  0
    0.3310   -4.1665   -5.2477 C   0  0  0  0  0  0  0  0  0  0  0  0
    0.4676   -5.0042   -5.9253 H   0  0  0  0  0  0  0  0  0  0  0  0
   -0.5237   -4.2870   -4.1448 C   0  0  0  0  0  0  0  0  0  0  0  0
   -1.0468   -5.2221   -3.9678 H   0  0  0  0  0  0  0  0  0  0  0  0
   -0.6996   -3.2097   -3.2644 C   0  0  0  0  0  0  0  0  0  0  0  0
   -1.3558   -3.3414   -2.4187 H   0  0  0  0  0  0  0  0  0  0  0  0
   -0.0221   -2.0001   -3.4821 C   0  0  0  0  0  0  0  0  0  0  0  0
   -0.5471   -0.2947    0.9448 C   0  0  0  0  0  0  0  0  0  0  0  0
    0.5569   -0.0050    1.3878 O   0  0  0  0  0  0  0  0  0  0  0  0
   -1.6586    0.3626    1.4427 N   0  0  0  0  0  0  0  0  0  0  0  0
   -2.5569    0.0236    1.1149 H   0  0  0  0  0  0  0  0  0  0  0  0
   -1.6179    1.1769    2.6507 C   0  0  0  0  0  0  0  0  0  0  0  0
   -0.9092    2.0033    2.5331 H   0  0  0  0  0  0  0  0  0  0  0  0
   -2.6065    1.5987    2.8554 H   0  0  0  0  0  0  0  0  0  0  0  0
   -1.3134    0.5708    3.5105 H   0  0  0  0  0  0  0  0  0  0  0  0
  1  2  1  0  0  0  0
  2  3  1  0  0  0  0
  2  4  1  0  0  0  0
  2  5  1  0  0  0  0
  5  6  2  0  0  0  0
  5  7  1  0  0  0  0
  7  8  1  0  0  0  0
  7  9  1  0  0  0  0
  9 10  1  0  0  0  0
  9 11  1  0  0  0  0
  9 29  1  0  0  0  0
 11 12  1  0  0  0  0
 11 13  1  0  0  0  0
 11 14  1  0  0  0  0
 14 15  2  0  0  0  0
 14 28  1  0  0  0  0
 15 16  1  0  0  0  0
 15 17  1  0  0  0  0
 17 18  1  0  0  0  0
 17 19  1  0  0  0  0
 19 20  1  0  0  0  0
 19 28  2  0  0  0  0
 20 21  1  0  0  0  0
 20 22  2  0  0  0  0
 22 23  1  0  0  0  0
 22 24  1  0  0  0  0
 24 25  1  0  0  0  0
 24 26  2  0  0  0  0
 26 27  1  0  0  0  0
 26 28  1  0  0  0  0
 29 30  2  0  0  0  0
 29 31  1  0  0  0  0
 31 32  1  0  0  0  0
 31 33  1  0  0  0  0
 33 34  1  0  0  0  0
 33 35  1  0  0  0  0
 33 36  1  0  0  0  0
M  END
$$$$

  -OEChem-03222214083D

 36 37  0     1  0  0  0  0  0999 V2000
   -3.2701   -4.7284    0.9570 H   0  0  0  0  0  0  0  0  0  0  0  0
   -3.2328   -3.9666    0.1728 C   0  0  0  0  0  0  0  0  0  0  0  0
   -4.1860   -3.4327    0.1545 H   0  0  0  0  0  0  0  0  0  0  0  0
   -3.0796   -4.4616   -0.7894 H   0  0  0  0  0  0  0  0  0  0  0  0
   -2.0984   -2.9968    0.4442 C   0  0  0  0  0  0  0  0  0  0  0  0
   -1.4238   -3.1173    1.4499 O   0  0  0  0  0  0  0  0  0  0  0  0
   -1.8487   -1.9745   -0.4484 N   0  0  0  0  0  0  0  0  0  0  0  0
   -2.3976   -1.9711   -1.3008 H   0  0  0  0  0  0  0  0  0  0  0  0
   -0.6710   -1.0894   -0.3941 C   0  0  1  0  0  0  0  0  0  0  0  0
    0.2326   -1.7075   -0.4519 H   0  0  0  0  0  0  0  0  0  0  0  0
   -0.6837   -0.1225   -1.5944 C   0  0  0  0  0  0  0  0  0  0  0  0
   -1.7142    0.1239   -1.8681 H   0  0  0  0  0  0  0  0  0  0  0  0
   -0.1966    0.8165   -1.3081 H   0  0  0  0  0  0  0  0  0  0  0  0
    0.0401   -0.6820   -2.7983 C   0  0  0  0  0  0  0  0  0  0  0  0
    1.1314   -0.0569   -3.3550 C   0  0  0  0  0  0  0  0  0  0  0  0
    1.5963    0.8527   -2.9793 H   0  0  0  0  0  0  0  0  0  0  0  0
    1.5370   -0.7989   -4.4577 N   0  0  0  0  0  0  0  0  0  0  0  0
    2.3357   -0.5839   -5.0513 H   0  0  0  0  0  0  0  0  0  0  0  0
    0.6992   -1.8837   -4.6373 C   0  0  0  0  0  0  0  0  0  0  0  0
    0.7124   -2.8818   -5.6108 C   0  0  0  0  0  0  0  0  0  0  0  0
    1.4784   -2.8870   -6.3782 H   0  0  0  0  0  0  0  0  0  0  0  0
   -0.2761   -3.8724   -5.5845 C   0  0  0  0  0  0  0  0  0  0  0  0
   -0.2785   -4.6569   -6.3354 H   0  0  0  0  0  0  0  0  0  0  0  0
   -1.2650   -3.8464   -4.5921 C   0  0  0  0  0  0  0  0  0  0  0  0
   -2.0344   -4.6126   -4.5789 H   0  0  0  0  0  0  0  0  0  0  0  0
   -1.2649   -2.8358   -3.6197 C   0  0  0  0  0  0  0  0  0  0  0  0
   -2.0445   -2.8296   -2.8727 H   0  0  0  0  0  0  0  0  0  0  0  0
   -0.2669   -1.8510   -3.6329 C   0  0  0  0  0  0  0  0  0  0  0  0
   -0.5518   -0.2774    0.9149 C   0  0  0  0  0  0  0  0  0  0  0  0
    0.5545    0.0372    1.3351 O   0  0  0  0  0  0  0  0  0  0  0  0
   -1.6678    0.3495    1.4411 N   0  0  0  0  0  0  0  0  0  0  0  0
   -2.5642   -0.0143    1.1353 H   0  0  0  0  0  0  0  0  0  0  0  0
   -1.6170    1.1453    2.6609 C   0  0  0  0  0  0  0  0  0  0  0  0
   -0.9281    1.9880    2.5402 H   0  0  0  0  0  0  0  0  0  0  0  0
   -2.6089    1.5432    2.8950 H   0  0  0  0  0  0  0  0  0  0  0  0
   -1.2800    0.5319    3.5033 H   0  0  0  0  0  0  0  0  0  0  0  0
  1  2  1  0  0  0  0
  2  3  1  0  0  0  0
  2  4  1  0  0  0  0
  2  5  1  0  0  0  0
  5  6  2  0  0  0  0
  5  7  1  0  0  0  0
  7  8  1  0  0  0  0
  7  9  1  0  0  0  0
  9 10  1  0  0  0  0
  9 11  1  0  0  0  0
  9 29  1  0  0  0  0
 11 12  1  0  0  0  0
 11 13  1  0  0  0  0
 11 14  1  0  0  0  0
 14 15  2  0  0  0  0
 14 28  1  0  0  0  0
 15 16  1  0  0  0  0
 15 17  1  0  0  0  0
 17 18  1  0  0  0  0
 17 19  1  0  0  0  0
 19 20  1  0  0  0  0
 19 28  2  0  0  0  0
 20 21  1  0  0  0  0
 20 22  2  0  0  0  0
 22 23  1  0  0  0  0
 22 24  1  0  0  0  0
 24 25  1  0  0  0  0
 24 26  2  0  0  0  0
 26 27  1  0  0  0  0
 26 28  1  0  0  0  0
 29 30  2  0  0  0  0
 29 31  1  0  0  0  0
 31 32  1  0  0  0  0
 31 33  1  0  0  0  0
 33 34  1  0  0  0  0
 33 35  1  0  0  0  0
 33 36  1  0  0  0  0
M  END
$$$$

  -OEChem-03222214083D

 36 37  0     1  0  0  0  0  0999 V2000
   -3.1409   -4.8213    0.7880 H   0  0  0  0  0  0  0  0  0  0  0  0
   -3.1269   -4.0371    0.0256 C   0  0  0  0  0  0  0  0  0  0  0  0
   -4.1187   -3.5829   -0.0311 H   0  0  0  0  0  0  0  0  0  0  0  0
   -2.8840   -4.4909   -0.9382 H   0  0  0  0  0  0  0  0  0  0  0  0
   -2.0927   -2.9850    0.3788 C   0  0  0  0  0  0  0  0  0  0  0  0
   -1.4947   -3.0546    1.4368 O   0  0  0  0  0  0  0  0  0  0  0  0
   -1.8453   -1.9531   -0.5037 N   0  0  0  0  0  0  0  0  0  0  0  0
   -2.2598   -2.0645   -1.4218 H   0  0  0  0  0  0  0  0  0  0  0  0
   -0.6674   -1.0692   -0.4217 C   0  0  1  0  0  0  0  0  0  0  0  0
    0.2386   -1.6829   -0.4877 H   0  0  0  0  0  0  0  0  0  0  0  0
   -0.6931   -0.0739   -1.5982 C   0  0  0  0  0  0  0  0  0  0  0  0
   -1.7210    0.1891   -1.8662 H   0  0  0  0  0  0  0  0  0  0  0  0
   -0.1891    0.8540   -1.3052 H   0  0  0  0  0  0  0  0  0  0  0  0
    0.0321   -0.6454   -2.7886 C   0  0  0  0  0  0  0  0  0  0  0  0
    1.2836   -0.2553   -3.1994 C   0  0  0  0  0  0  0  0  0  0  0  0
    1.9081    0.4851   -2.7028 H   0  0  0  0  0  0  0  0  0  0  0  0
    1.6075   -0.9982   -4.3307 N   0  0  0  0  0  0  0  0  0  0  0  0
    2.4875   -0.9398   -4.8394 H   0  0  0  0  0  0  0  0  0  0  0  0
    0.5580   -1.8328   -4.6758 C   0  0  0  0  0  0  0  0  0  0  0  0
    0.4106   -2.7352   -5.7290 C   0  0  0  0  0  0  0  0  0  0  0  0
    1.2180   -2.8853   -6.4372 H   0  0  0  0  0  0  0  0  0  0  0  0
   -0.7947   -3.4368   -5.8637 C   0  0  0  0  0  0  0  0  0  0  0  0
   -0.9233   -4.1413   -6.6803 H   0  0  0  0  0  0  0  0  0  0  0  0
   -1.8392   -3.2183   -4.9536 C   0  0  0  0  0  0  0  0  0  0  0  0
   -2.7779   -3.7509   -5.0739 H   0  0  0  0  0  0  0  0  0  0  0  0
   -1.6782   -2.3088   -3.8984 C   0  0  0  0  0  0  0  0  0  0  0  0
   -2.5005   -2.1257   -3.2193 H   0  0  0  0  0  0  0  0  0  0  0  0
   -0.4621   -1.6294   -3.7508 C   0  0  0  0  0  0  0  0  0  0  0  0
   -0.5543   -0.2724    0.8975 C   0  0  0  0  0  0  0  0  0  0  0  0
    0.5521    0.0308    1.3266 O   0  0  0  0  0  0  0  0  0  0  0  0
   -1.6702    0.3531    1.4250 N   0  0  0  0  0  0  0  0  0  0  0  0
   -2.5657   -0.0082    1.1129 H   0  0  0  0  0  0  0  0  0  0  0  0
   -1.6244    1.1351    2.6540 C   0  0  0  0  0  0  0  0  0  0  0  0
   -0.9383    1.9816    2.5454 H   0  0  0  0  0  0  0  0  0  0  0  0
   -2.6182    1.5268    2.8901 H   0  0  0  0  0  0  0  0  0  0  0  0
   -1.2876    0.5139    3.4905 H   0  0  0  0  0  0  0  0  0  0  0  0
  1  2  1  0  0  0  0
  2  3  1  0  0  0  0
  2  4  1  0  0  0  0
  2  5  1  0  0  0  0
  5  6  2  0  0  0  0
  5  7  1  0  0  0  0
  7  8  1  0  0  0  0
  7  9  1  0  0  0  0
  9 10  1  0  0  0  0
  9 11  1  0  0  0  0
  9 29  1  0  0  0  0
 11 12  1  0  0  0  0
 11 13  1  0  0  0  0
 11 14  1  0  0  0  0
 14 15  2  0  0  0  0
 14 28  1  0  0  0  0
 15 16  1  0  0  0  0
 15 17  1  0  0  0  0
 17 18  1  0  0  0  0
 17 19  1  0  0  0  0
 19 20  1  0  0  0  0
 19 28  2  0  0  0  0
 20 21  1  0  0  0  0
 20 22  2  0  0  0  0
 22 23  1  0  0  0  0
 22 24  1  0  0  0  0
 24 25  1  0  0  0  0
 24 26  2  0  0  0  0
 26 27  1  0  0  0  0
 26 28  1  0  0  0  0
 29 30  2  0  0  0  0
 29 31  1  0  0  0  0
 31 32  1  0  0  0  0
 31 33  1  0  0  0  0
 33 34  1  0  0  0  0
 33 35  1  0  0  0  0
 33 36  1  0  0  0  0
M  END
$$$$

  -OEChem-03222214083D

 36 37  0     1  0  0  0  0  0999 V2000
   -3.1647   -4.8103    0.6755 H   0  0  0  0  0  0  0  0  0  0  0  0
   -3.1425   -4.0128   -0.0727 C   0  0  0  0  0  0  0  0  0  0  0  0
   -4.1335   -3.5561   -0.1313 H   0  0  0  0  0  0  0  0  0  0  0  0
   -2.8912   -4.4498   -1.0423 H   0  0  0  0  0  0  0  0  0  0  0  0
   -2.1118   -2.9678    0.3100 C   0  0  0  0  0  0  0  0  0  0  0  0
   -1.5329   -3.0509    1.3777 O   0  0  0  0  0  0  0  0  0  0  0  0
   -1.8500   -1.9240   -0.5543 N   0  0  0  0  0  0  0  0  0  0  0  0
   -2.2357   -2.0373   -1.4867 H   0  0  0  0  0  0  0  0  0  0  0  0
   -0.6619   -1.0552   -0.4464 C   0  0  1  0  0  0  0  0  0  0  0  0
    0.2399   -1.6736   -0.5227 H   0  0  0  0  0  0  0  0  0  0  0  0
   -0.6933   -0.0383   -1.6023 C   0  0  0  0  0  0  0  0  0  0  0  0
   -1.7188    0.2470   -1.8564 H   0  0  0  0  0  0  0  0  0  0  0  0
   -0.1712    0.8763   -1.2994 H   0  0  0  0  0  0  0  0  0  0  0  0
    0.0220   -0.6023   -2.7990 C   0  0  0  0  0  0  0  0  0  0  0  0
    1.3602   -0.4615   -3.0743 C   0  0  0  0  0  0  0  0  0  0  0  0
    2.0791    0.0753   -2.4578 H   0  0  0  0  0  0  0  0  0  0  0  0
    1.6182   -1.1489   -4.2579 N   0  0  0  0  0  0  0  0  0  0  0  0
    2.5305   -1.2287   -4.7031 H   0  0  0  0  0  0  0  0  0  0  0  0
    0.4539   -1.7148   -4.7524 C   0  0  0  0  0  0  0  0  0  0  0  0
    0.2069   -2.4784   -5.8930 C   0  0  0  0  0  0  0  0  0  0  0  0
    1.0178   -2.7301   -6.5678 H   0  0  0  0  0  0  0  0  0  0  0  0
   -1.1006   -2.9096   -6.1568 C   0  0  0  0  0  0  0  0  0  0  0  0
   -1.3064   -3.5026   -7.0432 H   0  0  0  0  0  0  0  0  0  0  0  0
   -2.1440   -2.5682   -5.2827 C   0  0  0  0  0  0  0  0  0  0  0  0
   -3.1570   -2.8944   -5.4984 H   0  0  0  0  0  0  0  0  0  0  0  0
   -1.8840   -1.8008   -4.1381 C   0  0  0  0  0  0  0  0  0  0  0  0
   -2.6938   -1.5212   -3.4738 H   0  0  0  0  0  0  0  0  0  0  0  0
   -0.5735   -1.3859   -3.8745 C   0  0  0  0  0  0  0  0  0  0  0  0
   -0.5479   -0.2833    0.8873 C   0  0  0  0  0  0  0  0  0  0  0  0
    0.5601   -0.0003    1.3263 O   0  0  0  0  0  0  0  0  0  0  0  0
   -1.6602    0.3461    1.4174 N   0  0  0  0  0  0  0  0  0  0  0  0
   -2.5571   -0.0027    1.0948 H   0  0  0  0  0  0  0  0  0  0  0  0
   -1.6146    1.1076    2.6591 C   0  0  0  0  0  0  0  0  0  0  0  0
   -0.9091    1.9407    2.5729 H   0  0  0  0  0  0  0  0  0  0  0  0
   -2.6030    1.5174    2.8877 H   0  0  0  0  0  0  0  0  0  0  0  0
   -1.3028    0.4656    3.4899 H   0  0  0  0  0  0  0  0  0  0  0  0
  1  2  1  0  0  0  0
  2  3  1  0  0  0  0
  2  4  1  0  0  0  0
  2  5  1  0  0  0  0
  5  6  2  0  0  0  0
  5  7  1  0  0  0  0
  7  8  1  0  0  0  0
  7  9  1  0  0  0  0
  9 10  1  0  0  0  0
  9 11  1  0  0  0  0
  9 29  1  0  0  0  0
 11 12  1  0  0  0  0
 11 13  1  0  0  0  0
 11 14  1  0  0  0  0
 14 15  2  0  0  0  0
 14 28  1  0  0  0  0
 15 16  1  0  0  0  0
 15 17  1  0  0  0  0
 17 18  1  0  0  0  0
 17 19  1  0  0  0  0
 19 20  1  0  0  0  0
 19 28  2  0  0  0  0
 20 21  1  0  0  0  0
 20 22  2  0  0  0  0
 22 23  1  0  0  0  0
 22 24  1  0  0  0  0
 24 25  1  0  0  0  0
 24 26  2  0  0  0  0
 26 27  1  0  0  0  0
 26 28  1  0  0  0  0
 29 30  2  0  0  0  0
 29 31  1  0  0  0  0
 31 32  1  0  0  0  0
 31 33  1  0  0  0  0
 33 34  1  0  0  0  0
 33 35  1  0  0  0  0
 33 36  1  0  0  0  0
M  END
$$$$

  -OEChem-03222214083D

 36 37  0     1  0  0  0  0  0999 V2000
   -3.2271   -4.7781    0.6561 H   0  0  0  0  0  0  0  0  0  0  0  0
   -3.1863   -3.9816   -0.0925 C   0  0  0  0  0  0  0  0  0  0  0  0
   -4.1662   -3.5016   -0.1503 H   0  0  0  0  0  0  0  0  0  0  0  0
   -2.9462   -4.4252   -1.0620 H   0  0  0  0  0  0  0  0  0  0  0  0
   -2.1299   -2.9617    0.2879 C   0  0  0  0  0  0  0  0  0  0  0  0
   -1.5349   -3.0710    1.3445 O   0  0  0  0  0  0  0  0  0  0  0  0
   -1.8585   -1.9119   -0.5660 N   0  0  0  0  0  0  0  0  0  0  0  0
   -2.2631   -1.9967   -1.4941 H   0  0  0  0  0  0  0  0  0  0  0  0
   -0.6637   -1.0530   -0.4504 C   0  0  1  0  0  0  0  0  0  0  0  0
    0.2320   -1.6786   -0.5321 H   0  0  0  0  0  0  0  0  0  0  0  0
   -0.6982   -0.0292   -1.5995 C   0  0  0  0  0  0  0  0  0  0  0  0
   -1.7247    0.2627   -1.8410 H   0  0  0  0  0  0  0  0  0  0  0  0
   -0.1699    0.8813   -1.2955 H   0  0  0  0  0  0  0  0  0  0  0  0
    0.0079   -0.5830   -2.8063 C   0  0  0  0  0  0  0  0  0  0  0  0
    1.3683   -0.6999   -2.9601 C   0  0  0  0  0  0  0  0  0  0  0  0
    2.1155   -0.3907   -2.2308 H   0  0  0  0  0  0  0  0  0  0  0  0
    1.5999   -1.2971   -4.1968 N   0  0  0  0  0  0  0  0  0  0  0  0
    2.5177   -1.5118   -4.5822 H   0  0  0  0  0  0  0  0  0  0  0  0
    0.4004   -1.5621   -4.8377 C   0  0  0  0  0  0  0  0  0  0  0  0
    0.1195   -2.1435   -6.0737 C   0  0  0  0  0  0  0  0  0  0  0  0
    0.9270   -2.4812   -6.7139 H   0  0  0  0  0  0  0  0  0  0  0  0
   -1.2163   -2.2809   -6.4761 C   0  0  0  0  0  0  0  0  0  0  0  0
   -1.4481   -2.7292   -7.4377 H   0  0  0  0  0  0  0  0  0  0  0  0
   -2.2526   -1.8343   -5.6414 C   0  0  0  0  0  0  0  0  0  0  0  0
   -3.2854   -1.9353   -5.9614 H   0  0  0  0  0  0  0  0  0  0  0  0
   -1.9583   -1.2523   -4.3999 C   0  0  0  0  0  0  0  0  0  0  0  0
   -2.7579   -0.8959   -3.7600 H   0  0  0  0  0  0  0  0  0  0  0  0
   -0.6225   -1.1246   -4.0032 C   0  0  0  0  0  0  0  0  0  0  0  0
   -0.5403   -0.2923    0.8881 C   0  0  0  0  0  0  0  0  0  0  0  0
    0.5718   -0.0254    1.3268 O   0  0  0  0  0  0  0  0  0  0  0  0
   -1.6452    0.3432    1.4257 N   0  0  0  0  0  0  0  0  0  0  0  0
   -2.5468    0.0078    1.1021 H   0  0  0  0  0  0  0  0  0  0  0  0
   -1.5875    1.1042    2.6669 C   0  0  0  0  0  0  0  0  0  0  0  0
   -0.8711    1.9280    2.5793 H   0  0  0  0  0  0  0  0  0  0  0  0
   -2.5699    1.5269    2.8974 H   0  0  0  0  0  0  0  0  0  0  0  0
   -1.2825    0.4584    3.4970 H   0  0  0  0  0  0  0  0  0  0  0  0
  1  2  1  0  0  0  0
  2  3  1  0  0  0  0
  2  4  1  0  0  0  0
  2  5  1  0  0  0  0
  5  6  2  0  0  0  0
  5  7  1  0  0  0  0
  7  8  1  0  0  0  0
  7  9  1  0  0  0  0
  9 10  1  0  0  0  0
  9 11  1  0  0  0  0
  9 29  1  0  0  0  0
 11 12  1  0  0  0  0
 11 13  1  0  0  0  0
 11 14  1  0  0  0  0
 14 15  2  0  0  0  0
 14 28  1  0  0  0  0
 15 16  1  0  0  0  0
 15 17  1  0  0  0  0
 17 18  1  0  0  0  0
 17 19  1  0  0  0  0
 19 20  1  0  0  0  0
 19 28  2  0  0  0  0
 20 21  1  0  0  0  0
 20 22  2  0  0  0  0
 22 23  1  0  0  0  0
 22 24  1  0  0  0  0
 24 25  1  0  0  0  0
 24 26  2  0  0  0  0
 26 27  1  0  0  0  0
 26 28  1  0  0  0  0
 29 30  2  0  0  0  0
 29 31  1  0  0  0  0
 31 32  1  0  0  0  0
 31 33  1  0  0  0  0
 33 34  1  0  0  0  0
 33 35  1  0  0  0  0
 33 36  1  0  0  0  0
M  END
$$$$

  -OEChem-03222214083D

 36 37  0     1  0  0  0  0  0999 V2000
   -3.2818   -4.7452    0.7002 H   0  0  0  0  0  0  0  0  0  0  0  0
   -3.2233   -3.9599   -0.0591 C   0  0  0  0  0  0  0  0  0  0  0  0
   -4.1889   -3.4520   -0.1149 H   0  0  0  0  0  0  0  0  0  0  0  0
   -3.0042   -4.4215   -1.0251 H   0  0  0  0  0  0  0  0  0  0  0  0
   -2.1343   -2.9668    0.3009 C   0  0  0  0  0  0  0  0  0  0  0  0
   -1.5162   -3.0951    1.3420 O   0  0  0  0  0  0  0  0  0  0  0  0
   -1.8566   -1.9198   -0.5542 N   0  0  0  0  0  0  0  0  0  0  0  0
   -2.2856   -1.9830   -1.4735 H   0  0  0  0  0  0  0  0  0  0  0  0
   -0.6598   -1.0633   -0.4407 C   0  0  1  0  0  0  0  0  0  0  0  0
    0.2329   -1.6932   -0.5150 H   0  0  0  0  0  0  0  0  0  0  0  0
   -0.6945   -0.0450   -1.5966 C   0  0  0  0  0  0  0  0  0  0  0  0
   -1.7247    0.2388   -1.8303 H   0  0  0  0  0  0  0  0  0  0  0  0
   -0.1721    0.8708   -1.2983 H   0  0  0  0  0  0  0  0  0  0  0  0
    0.0074   -0.5871   -2.8144 C   0  0  0  0  0  0  0  0  0  0  0  0
    1.3267   -0.9684   -2.8858 C   0  0  0  0  0  0  0  0  0  0  0  0
    2.0485   -0.9029   -2.0730 H   0  0  0  0  0  0  0  0  0  0  0  0
    1.5554   -1.4553   -4.1701 N   0  0  0  0  0  0  0  0  0  0  0  0
    2.4480   -1.8030   -4.5157 H   0  0  0  0  0  0  0  0  0  0  0  0
    0.3953   -1.3913   -4.9245 C   0  0  0  0  0  0  0  0  0  0  0  0
    0.1269   -1.7585   -6.2429 C   0  0  0  0  0  0  0  0  0  0  0  0
    0.9104   -2.1807   -6.8626 H   0  0  0  0  0  0  0  0  0  0  0  0
   -1.1649   -1.5729   -6.7543 C   0  0  0  0  0  0  0  0  0  0  0  0
   -1.3868   -1.8534   -7.7798 H   0  0  0  0  0  0  0  0  0  0  0  0
   -2.1694   -1.0211   -5.9446 C   0  0  0  0  0  0  0  0  0  0  0  0
   -3.1670   -0.8723   -6.3470 H   0  0  0  0  0  0  0  0  0  0  0  0
   -1.8884   -0.6562   -4.6200 C   0  0  0  0  0  0  0  0  0  0  0  0
   -2.6632   -0.2219   -3.9976 H   0  0  0  0  0  0  0  0  0  0  0  0
   -0.5974   -0.8494   -4.1150 C   0  0  0  0  0  0  0  0  0  0  0  0
   -0.5365   -0.2990    0.8955 C   0  0  0  0  0  0  0  0  0  0  0  0
    0.5758   -0.0406    1.3381 O   0  0  0  0  0  0  0  0  0  0  0  0
   -1.6401    0.3409    1.4308 N   0  0  0  0  0  0  0  0  0  0  0  0
   -2.5431    0.0146    1.1020 H   0  0  0  0  0  0  0  0  0  0  0  0
   -1.5821    1.1093    2.6676 C   0  0  0  0  0  0  0  0  0  0  0  0
   -0.8606    1.9282    2.5768 H   0  0  0  0  0  0  0  0  0  0  0  0
   -2.5629    1.5396    2.8917 H   0  0  0  0  0  0  0  0  0  0  0  0
   -1.2840    0.4673    3.5032 H   0  0  0  0  0  0  0  0  0  0  0  0
  1  2  1  0  0  0  0
  2  3  1  0  0  0  0
  2  4  1  0  0  0  0
  2  5  1  0  0  0  0
  5  6  2  0  0  0  0
  5  7  1  0  0  0  0
  7  8  1  0  0  0  0
  7  9  1  0  0  0  0
  9 10  1  0  0  0  0
  9 11  1  0  0  0  0
  9 29  1  0  0  0  0
 11 12  1  0  0  0  0
 11 13  1  0  0  0  0
 11 14  1  0  0  0  0
 14 15  2  0  0  0  0
 14 28  1  0  0  0  0
 15 16  1  0  0  0  0
 15 17  1  0  0  0  0
 17 18  1  0  0  0  0
 17 19  1  0  0  0  0
 19 20  1  0  0  0  0
 19 28  2  0  0  0  0
 20 21  1  0  0  0  0
 20 22  2  0  0  0  0
 22 23  1  0  0  0  0
 22 24  1  0  0  0  0
 24 25  1  0  0  0  0
 24 26  2  0  0  0  0
 26 27  1  0  0  0  0
 26 28  1  0  0  0  0
 29 30  2  0  0  0  0
 29 31  1  0  0  0  0
 31 32  1  0  0  0  0
 31 33  1  0  0  0  0
 33 34  1  0  0  0  0
 33 35  1  0  0  0  0
 33 36  1  0  0  0  0
M  END
$$$$

  -OEChem-03222214083D

 36 37  0     1  0  0  0  0  0999 V2000
   -3.2867   -4.7348    0.7677 H   0  0  0  0  0  0  0  0  0  0  0  0
   -3.2499   -3.9396    0.0174 C   0  0  0  0  0  0  0  0  0  0  0  0
   -4.2089   -3.4160    0.0120 H   0  0  0  0  0  0  0  0  0  0  0  0
   -3.0821   -4.3906   -0.9636 H   0  0  0  0  0  0  0  0  0  0  0  0
   -2.1307   -2.9683    0.3419 C   0  0  0  0  0  0  0  0  0  0  0  0
   -1.4961   -3.0972    1.3729 O   0  0  0  0  0  0  0  0  0  0  0  0
   -1.8449   -1.9378   -0.5307 N   0  0  0  0  0  0  0  0  0  0  0  0
   -2.2976   -1.9901   -1.4393 H   0  0  0  0  0  0  0  0  0  0  0  0
   -0.6489   -1.0790   -0.4281 C   0  0  1  0  0  0  0  0  0  0  0  0
    0.2429   -1.7106   -0.4756 H   0  0  0  0  0  0  0  0  0  0  0  0
   -0.6772   -0.0836   -1.6061 C   0  0  0  0  0  0  0  0  0  0  0  0
   -1.7116    0.1825   -1.8431 H   0  0  0  0  0  0  0  0  0  0  0  0
   -0.1673    0.8434   -1.3213 H   0  0  0  0  0  0  0  0  0  0  0  0
    0.0255   -0.6211   -2.8294 C   0  0  0  0  0  0  0  0  0  0  0  0
    1.2438   -1.2606   -2.8737 C   0  0  0  0  0  0  0  0  0  0  0  0
    1.8965   -1.4436   -2.0216 H   0  0  0  0  0  0  0  0  0  0  0  0
    1.4867   -1.6207   -4.1964 N   0  0  0  0  0  0  0  0  0  0  0  0
    2.3228   -2.0954   -4.5314 H   0  0  0  0  0  0  0  0  0  0  0  0
    0.4384   -1.2183   -5.0065 C   0  0  0  0  0  0  0  0  0  0  0  0
    0.2257   -1.3503   -6.3787 C   0  0  0  0  0  0  0  0  0  0  0  0
    0.9616   -1.8473   -7.0009 H   0  0  0  0  0  0  0  0  0  0  0  0
   -0.9484   -0.8315   -6.9410 C   0  0  0  0  0  0  0  0  0  0  0  0
   -1.1264   -0.9259   -8.0082 H   0  0  0  0  0  0  0  0  0  0  0  0
   -1.8919   -0.1861   -6.1275 C   0  0  0  0  0  0  0  0  0  0  0  0
   -2.7971    0.2202   -6.5688 H   0  0  0  0  0  0  0  0  0  0  0  0
   -1.6677   -0.0600   -4.7487 C   0  0  0  0  0  0  0  0  0  0  0  0
   -2.3944    0.4459   -4.1224 H   0  0  0  0  0  0  0  0  0  0  0  0
   -0.4951   -0.5850   -4.1926 C   0  0  0  0  0  0  0  0  0  0  0  0
   -0.5414   -0.2918    0.8962 C   0  0  0  0  0  0  0  0  0  0  0  0
    0.5644   -0.0407    1.3586 O   0  0  0  0  0  0  0  0  0  0  0  0
   -1.6514    0.3545    1.4103 N   0  0  0  0  0  0  0  0  0  0  0  0
   -2.5497    0.0322    1.0653 H   0  0  0  0  0  0  0  0  0  0  0  0
   -1.6134    1.1099    2.6559 C   0  0  0  0  0  0  0  0  0  0  0  0
   -0.8774    1.9184    2.5929 H   0  0  0  0  0  0  0  0  0  0  0  0
   -2.5932    1.5525    2.8591 H   0  0  0  0  0  0  0  0  0  0  0  0
   -1.3468    0.4549    3.4922 H   0  0  0  0  0  0  0  0  0  0  0  0
  1  2  1  0  0  0  0
  2  3  1  0  0  0  0
  2  4  1  0  0  0  0
  2  5  1  0  0  0  0
  5  6  2  0  0  0  0
  5  7  1  0  0  0  0
  7  8  1  0  0  0  0
  7  9  1  0  0  0  0
  9 10  1  0  0  0  0
  9 11  1  0  0  0  0
  9 29  1  0  0  0  0
 11 12  1  0  0  0  0
 11 13  1  0  0  0  0
 11 14  1  0  0  0  0
 14 15  2  0  0  0  0
 14 28  1  0  0  0  0
 15 16  1  0  0  0  0
 15 17  1  0  0  0  0
 17 18  1  0  0  0  0
 17 19  1  0  0  0  0
 19 20  1  0  0  0  0
 19 28  2  0  0  0  0
 20 21  1  0  0  0  0
 20 22  2  0  0  0  0
 22 23  1  0  0  0  0
 22 24  1  0  0  0  0
 24 25  1  0  0  0  0
 24 26  2  0  0  0  0
 26 27  1  0  0  0  0
 26 28  1  0  0  0  0
 29 30  2  0  0  0  0
 29 31  1  0  0  0  0
 31 32  1  0  0  0  0
 31 33  1  0  0  0  0
 33 34  1  0  0  0  0
 33 35  1  0  0  0  0
 33 36  1  0  0  0  0
M  END
$$$$

  -OEChem-03222214083D

 36 37  0     1  0  0  0  0  0999 V2000
   -3.3123   -4.7253    0.8148 H   0  0  0  0  0  0  0  0  0  0  0  0
   -3.2683   -3.9375    0.0572 C   0  0  0  0  0  0  0  0  0  0  0  0
   -4.2234   -3.4068    0.0451 H   0  0  0  0  0  0  0  0  0  0  0  0
   -3.1021   -4.3992   -0.9191 H   0  0  0  0  0  0  0  0  0  0  0  0
   -2.1422   -2.9717    0.3747 C   0  0  0  0  0  0  0  0  0  0  0  0
   -1.5097   -3.0963    1.4072 O   0  0  0  0  0  0  0  0  0  0  0  0
   -1.8374   -1.9598   -0.5131 N   0  0  0  0  0  0  0  0  0  0  0  0
   -2.2980   -2.0088   -1.4180 H   0  0  0  0  0  0  0  0  0  0  0  0
   -0.6380   -1.1046   -0.4138 C   0  0  1  0  0  0  0  0  0  0  0  0
    0.2533   -1.7362   -0.4327 H   0  0  0  0  0  0  0  0  0  0  0  0
   -0.6529   -0.1306   -1.6108 C   0  0  0  0  0  0  0  0  0  0  0  0
   -1.6875    0.1273   -1.8563 H   0  0  0  0  0  0  0  0  0  0  0  0
   -0.1489    0.8022   -1.3344 H   0  0  0  0  0  0  0  0  0  0  0  0
    0.0516   -0.6662   -2.8373 C   0  0  0  0  0  0  0  0  0  0  0  0
    1.1148   -1.5404   -2.9072 C   0  0  0  0  0  0  0  0  0  0  0  0
    1.6499   -1.9675   -2.0616 H   0  0  0  0  0  0  0  0  0  0  0  0
    1.3882   -1.7738   -4.2523 N   0  0  0  0  0  0  0  0  0  0  0  0
    2.1378   -2.3656   -4.6055 H   0  0  0  0  0  0  0  0  0  0  0  0
    0.5175   -1.0556   -5.0532 C   0  0  0  0  0  0  0  0  0  0  0  0
    0.3983   -0.9603   -6.4396 C   0  0  0  0  0  0  0  0  0  0  0  0
    1.0659   -1.5197   -7.0857 H   0  0  0  0  0  0  0  0  0  0  0  0
   -0.5923   -0.1315   -6.9844 C   0  0  0  0  0  0  0  0  0  0  0  0
   -0.6955   -0.0461   -8.0623 H   0  0  0  0  0  0  0  0  0  0  0  0
   -1.4472    0.5917   -6.1386 C   0  0  0  0  0  0  0  0  0  0  0  0
   -2.2097    1.2375   -6.5637 H   0  0  0  0  0  0  0  0  0  0  0  0
   -1.3177    0.4871   -4.7462 C   0  0  0  0  0  0  0  0  0  0  0  0
   -1.9735    1.0517   -4.0921 H   0  0  0  0  0  0  0  0  0  0  0  0
   -0.3298   -0.3465   -4.2095 C   0  0  0  0  0  0  0  0  0  0  0  0
   -0.5464   -0.2920    0.8969 C   0  0  0  0  0  0  0  0  0  0  0  0
    0.5519   -0.0442    1.3778 O   0  0  0  0  0  0  0  0  0  0  0  0
   -1.6610    0.3685    1.3828 N   0  0  0  0  0  0  0  0  0  0  0  0
   -2.5558    0.0491    1.0267 H   0  0  0  0  0  0  0  0  0  0  0  0
   -1.6377    1.1491    2.6131 C   0  0  0  0  0  0  0  0  0  0  0  0
   -0.8984    1.9541    2.5434 H   0  0  0  0  0  0  0  0  0  0  0  0
   -2.6184    1.5990    2.7946 H   0  0  0  0  0  0  0  0  0  0  0  0
   -1.3844    0.5100    3.4656 H   0  0  0  0  0  0  0  0  0  0  0  0
  1  2  1  0  0  0  0
  2  3  1  0  0  0  0
  2  4  1  0  0  0  0
  2  5  1  0  0  0  0
  5  6  2  0  0  0  0
  5  7  1  0  0  0  0
  7  8  1  0  0  0  0
  7  9  1  0  0  0  0
  9 10  1  0  0  0  0
  9 11  1  0  0  0  0
  9 29  1  0  0  0  0
 11 12  1  0  0  0  0
 11 13  1  0  0  0  0
 11 14  1  0  0  0  0
 14 15  2  0  0  0  0
 14 28  1  0  0  0  0
 15 16  1  0  0  0  0
 15 17  1  0  0  0  0
 17 18  1  0  0  0  0
 17 19  1  0  0  0  0
 19 20  1  0  0  0  0
 19 28  2  0  0  0  0
 20 21  1  0  0  0  0
 20 22  2  0  0  0  0
 22 23  1  0  0  0  0
 22 24  1  0  0  0  0
 24 25  1  0  0  0  0
 24 26  2  0  0  0  0
 26 27  1  0  0  0  0
 26 28  1  0  0  0  0
 29 30  2  0  0  0  0
 29 31  1  0  0  0  0
 31 32  1  0  0  0  0
 31 33  1  0  0  0  0
 33 34  1  0  0  0  0
 33 35  1  0  0  0  0
 33 36  1  0  0  0  0
M  END
$$$$

  -OEChem-03222214083D

 36 37  0     1  0  0  0  0  0999 V2000
   -3.3512   -4.6948    0.8761 H   0  0  0  0  0  0  0  0  0  0  0  0
   -3.2955   -3.9189    0.1072 C   0  0  0  0  0  0  0  0  0  0  0  0
   -4.2384   -3.3669    0.0944 H   0  0  0  0  0  0  0  0  0  0  0  0
   -3.1475   -4.3980   -0.8637 H   0  0  0  0  0  0  0  0  0  0  0  0
   -2.1453   -2.9747    0.4021 C   0  0  0  0  0  0  0  0  0  0  0  0
   -1.5021   -3.1034    1.4274 O   0  0  0  0  0  0  0  0  0  0  0  0
   -1.8294   -1.9792   -0.5002 N   0  0  0  0  0  0  0  0  0  0  0  0
   -2.3076   -2.0190   -1.3964 H   0  0  0  0  0  0  0  0  0  0  0  0
   -0.6256   -1.1288   -0.4124 C   0  0  1  0  0  0  0  0  0  0  0  0
    0.2689   -1.7562   -0.4192 H   0  0  0  0  0  0  0  0  0  0  0  0
   -0.6414   -0.1700   -1.6210 C   0  0  0  0  0  0  0  0  0  0  0  0
   -1.6751    0.0931   -1.8659 H   0  0  0  0  0  0  0  0  0  0  0  0
   -0.1300    0.7610   -1.3521 H   0  0  0  0  0  0  0  0  0  0  0  0
    0.0524   -0.7084   -2.8529 C   0  0  0  0  0  0  0  0  0  0  0  0
    0.9165   -1.7754   -2.9790 C   0  0  0  0  0  0  0  0  0  0  0  0
    1.2730   -2.4147   -2.1746 H   0  0  0  0  0  0  0  0  0  0  0  0
    1.2605   -1.8900   -4.3234 N   0  0  0  0  0  0  0  0  0  0  0  0
    1.9053   -2.5774   -4.7086 H   0  0  0  0  0  0  0  0  0  0  0  0
    0.6321   -0.9075   -5.0684 C   0  0  0  0  0  0  0  0  0  0  0  0
    0.6619   -0.6133   -6.4316 C   0  0  0  0  0  0  0  0  0  0  0  0
    1.2596   -1.2143   -7.1078 H   0  0  0  0  0  0  0  0  0  0  0  0
   -0.0890    0.4679   -6.9136 C   0  0  0  0  0  0  0  0  0  0  0  0
   -0.0742    0.7092   -7.9723 H   0  0  0  0  0  0  0  0  0  0  0  0
   -0.8562    1.2412   -6.0289 C   0  0  0  0  0  0  0  0  0  0  0  0
   -1.4328    2.0810   -6.4051 H   0  0  0  0  0  0  0  0  0  0  0  0
   -0.8776    0.9359   -4.6601 C   0  0  0  0  0  0  0  0  0  0  0  0
   -1.4649    1.5366   -3.9736 H   0  0  0  0  0  0  0  0  0  0  0  0
   -0.1286   -0.1479   -4.1877 C   0  0  0  0  0  0  0  0  0  0  0  0
   -0.5413   -0.2978    0.8880 C   0  0  0  0  0  0  0  0  0  0  0  0
    0.5524   -0.0515    1.3793 O   0  0  0  0  0  0  0  0  0  0  0  0
   -1.6572    0.3730    1.3571 N   0  0  0  0  0  0  0  0  0  0  0  0
   -2.5510    0.0629    0.9901 H   0  0  0  0  0  0  0  0  0  0  0  0
   -1.6404    1.1757    2.5733 C   0  0  0  0  0  0  0  0  0  0  0  0
   -0.8989    1.9778    2.4936 H   0  0  0  0  0  0  0  0  0  0  0  0
   -2.6215    1.6306    2.7397 H   0  0  0  0  0  0  0  0  0  0  0  0
   -1.3939    0.5523    3.4393 H   0  0  0  0  0  0  0  0  0  0  0  0
  1  2  1  0  0  0  0
  2  3  1  0  0  0  0
  2  4  1  0  0  0  0
  2  5  1  0  0  0  0
  5  6  2  0  0  0  0
  5  7  1  0  0  0  0
  7  8  1  0  0  0  0
  7  9  1  0  0  0  0
  9 10  1  0  0  0  0
  9 11  1  0  0  0  0
  9 29  1  0  0  0  0
 11 12  1  0  0  0  0
 11 13  1  0  0  0  0
 11 14  1  0  0  0  0
 14 15  2  0  0  0  0
 14 28  1  0  0  0  0
 15 16  1  0  0  0  0
 15 17  1  0  0  0  0
 17 18  1  0  0  0  0
 17 19  1  0  0  0  0
 19 20  1  0  0  0  0
 19 28  2  0  0  0  0
 20 21  1  0  0  0  0
 20 22  2  0  0  0  0
 22 23  1  0  0  0  0
 22 24  1  0  0  0  0
 24 25  1  0  0  0  0
 24 26  2  0  0  0  0
 26 27  1  0  0  0  0
 26 28  1  0  0  0  0
 29 30  2  0  0  0  0
 29 31  1  0  0  0  0
 31 32  1  0  0  0  0
 31 33  1  0  0  0  0
 33 34  1  0  0  0  0
 33 35  1  0  0  0  0
 33 36  1  0  0  0  0
M  END
$$$$

  -OEChem-03222214083D

 36 37  0     1  0  0  0  0  0999 V2000
   -3.3712   -4.6733    0.8975 H   0  0  0  0  0  0  0  0  0  0  0  0
   -3.3166   -3.8947    0.1312 C   0  0  0  0  0  0  0  0  0  0  0  0
   -4.2467   -3.3218    0.1449 H   0  0  0  0  0  0  0  0  0  0  0  0
   -3.2039   -4.3717   -0.8455 H   0  0  0  0  0  0  0  0  0  0  0  0
   -2.1385   -2.9778    0.4015 C   0  0  0  0  0  0  0  0  0  0  0  0
   -1.4641   -3.1332    1.4025 O   0  0  0  0  0  0  0  0  0  0  0  0
   -1.8288   -1.9798   -0.4999 N   0  0  0  0  0  0  0  0  0  0  0  0
   -2.3471   -1.9838   -1.3741 H   0  0  0  0  0  0  0  0  0  0  0  0
   -0.6236   -1.1302   -0.4245 C   0  0  1  0  0  0  0  0  0  0  0  0
    0.2744   -1.7539   -0.4447 H   0  0  0  0  0  0  0  0  0  0  0  0
   -0.6523   -0.1711   -1.6320 C   0  0  0  0  0  0  0  0  0  0  0  0
   -1.6847    0.1039   -1.8700 H   0  0  0  0  0  0  0  0  0  0  0  0
   -0.1282    0.7530   -1.3634 H   0  0  0  0  0  0  0  0  0  0  0  0
    0.0285   -0.7130   -2.8687 C   0  0  0  0  0  0  0  0  0  0  0  0
    0.6601   -1.9227   -3.0644 C   0  0  0  0  0  0  0  0  0  0  0  0
    0.7899   -2.7068   -2.3219 H   0  0  0  0  0  0  0  0  0  0  0  0
    1.1048   -1.9634   -4.3836 N   0  0  0  0  0  0  0  0  0  0  0  0
    1.6317   -2.7264   -4.8041 H   0  0  0  0  0  0  0  0  0  0  0  0
    0.7672   -0.7941   -5.0431 C   0  0  0  0  0  0  0  0  0  0  0  0
    0.9905   -0.3663   -6.3517 C   0  0  0  0  0  0  0  0  0  0  0  0
    1.5192   -1.0033   -7.0522 H   0  0  0  0  0  0  0  0  0  0  0  0
    0.5248    0.8958   -6.7465 C   0  0  0  0  0  0  0  0  0  0  0  0
    0.6925    1.2423   -7.7621 H   0  0  0  0  0  0  0  0  0  0  0  0
   -0.1555    1.7129   -5.8304 C   0  0  0  0  0  0  0  0  0  0  0  0
   -0.5129    2.6911   -6.1380 H   0  0  0  0  0  0  0  0  0  0  0  0
   -0.3726    1.2723   -4.5167 C   0  0  0  0  0  0  0  0  0  0  0  0
   -0.8934    1.9031   -3.8039 H   0  0  0  0  0  0  0  0  0  0  0  0
    0.0943    0.0110   -4.1321 C   0  0  0  0  0  0  0  0  0  0  0  0
   -0.5264   -0.3024    0.8770 C   0  0  0  0  0  0  0  0  0  0  0  0
    0.5704   -0.0566    1.3615 O   0  0  0  0  0  0  0  0  0  0  0  0
   -1.6392    0.3658    1.3566 N   0  0  0  0  0  0  0  0  0  0  0  0
   -2.5354    0.0594    0.9932 H   0  0  0  0  0  0  0  0  0  0  0  0
   -1.6135    1.1707    2.5710 C   0  0  0  0  0  0  0  0  0  0  0  0
   -0.8695    1.9700    2.4864 H   0  0  0  0  0  0  0  0  0  0  0  0
   -2.5921    1.6296    2.7412 H   0  0  0  0  0  0  0  0  0  0  0  0
   -1.3648    0.5476    3.4366 H   0  0  0  0  0  0  0  0  0  0  0  0
  1  2  1  0  0  0  0
  2  3  1  0  0  0  0
  2  4  1  0  0  0  0
  2  5  1  0  0  0  0
  5  6  2  0  0  0  0
  5  7  1  0  0  0  0
  7  8  1  0  0  0  0
  7  9  1  0  0  0  0
  9 10  1  0  0  0  0
  9 11  1  0  0  0  0
  9 29  1  0  0  0  0
 11 12  1  0  0  0  0
 11 13  1  0  0  0  0
 11 14  1  0  0  0  0
 14 15  2  0  0  0  0
 14 28  1  0  0  0  0
 15 16  1  0  0  0  0
 15 17  1  0  0  0  0
 17 18  1  0  0  0  0
 17 19  1  0  0  0  0
 19 20  1  0  0  0  0
 19 28  2  0  0  0  0
 20 21  1  0  0  0  0
 20 22  2  0  0  0  0
 22 23  1  0  0  0  0
 22 24  1  0  0  0  0
 24 25  1  0  0  0  0
 24 26  2  0  0  0  0
 26 27  1  0  0  0  0
 26 28  1  0  0  0  0
 29 30  2  0  0  0  0
 29 31  1  0  0  0  0
 31 32  1  0  0  0  0
 31 33  1  0  0  0  0
 33 34  1  0  0  0  0
 33 35  1  0  0  0  0
 33 36  1  0  0  0  0
M  END
$$$$

  -OEChem-03222214083D

 36 37  0     1  0  0  0  0  0999 V2000
   -3.3795   -4.6466    0.8973 H   0  0  0  0  0  0  0  0  0  0  0  0
   -3.3302   -3.8630    0.1361 C   0  0  0  0  0  0  0  0  0  0  0  0
   -4.2435   -3.2657    0.1877 H   0  0  0  0  0  0  0  0  0  0  0  0
   -3.2647   -4.3339   -0.8478 H   0  0  0  0  0  0  0  0  0  0  0  0
   -2.1185   -2.9813    0.3736 C   0  0  0  0  0  0  0  0  0  0  0  0
   -1.4056   -3.1750    1.3405 O   0  0  0  0  0  0  0  0  0  0  0  0
   -1.8259   -1.9663   -0.5145 N   0  0  0  0  0  0  0  0  0  0  0  0
   -2.3942   -1.9172   -1.3553 H   0  0  0  0  0  0  0  0  0  0  0  0
   -0.6245   -1.1098   -0.4433 C   0  0  1  0  0  0  0  0  0  0  0  0
    0.2781   -1.7280   -0.4897 H   0  0  0  0  0  0  0  0  0  0  0  0
   -0.6689   -0.1391   -1.6401 C   0  0  0  0  0  0  0  0  0  0  0  0
   -1.7001    0.1451   -1.8714 H   0  0  0  0  0  0  0  0  0  0  0  0
   -0.1368    0.7778   -1.3632 H   0  0  0  0  0  0  0  0  0  0  0  0
    0.0079   -0.6793   -2.8788 C   0  0  0  0  0  0  0  0  0  0  0  0
    0.3886   -1.9740   -3.1574 C   0  0  0  0  0  0  0  0  0  0  0  0
    0.2780   -2.8285   -2.4930 H   0  0  0  0  0  0  0  0  0  0  0  0
    0.9445   -1.9894   -4.4343 N   0  0  0  0  0  0  0  0  0  0  0  0
    1.3435   -2.8057   -4.8936 H   0  0  0  0  0  0  0  0  0  0  0  0
    0.9197   -0.7197   -4.9862 C   0  0  0  0  0  0  0  0  0  0  0  0
    1.3520   -0.2337   -6.2200 C   0  0  0  0  0  0  0  0  0  0  0  0
    1.8052   -0.9030   -6.9428 H   0  0  0  0  0  0  0  0  0  0  0  0
    1.1942    1.1287   -6.5111 C   0  0  0  0  0  0  0  0  0  0  0  0
    1.5278    1.5212   -7.4673 H   0  0  0  0  0  0  0  0  0  0  0  0
    0.6080    1.9864   -5.5677 C   0  0  0  0  0  0  0  0  0  0  0  0
    0.4890    3.0413   -5.7955 H   0  0  0  0  0  0  0  0  0  0  0  0
    0.1784    1.4866   -4.3298 C   0  0  0  0  0  0  0  0  0  0  0  0
   -0.2707    2.1478   -3.5961 H   0  0  0  0  0  0  0  0  0  0  0  0
    0.3403    0.1258   -4.0476 C   0  0  0  0  0  0  0  0  0  0  0  0
   -0.5146   -0.3034    0.8707 C   0  0  0  0  0  0  0  0  0  0  0  0
    0.5858   -0.0606    1.3477 O   0  0  0  0  0  0  0  0  0  0  0  0
   -1.6248    0.3491    1.3777 N   0  0  0  0  0  0  0  0  0  0  0  0
   -2.5237    0.0453    1.0190 H   0  0  0  0  0  0  0  0  0  0  0  0
   -1.5891    1.1196    2.6144 C   0  0  0  0  0  0  0  0  0  0  0  0
   -0.8475    1.9227    2.5469 H   0  0  0  0  0  0  0  0  0  0  0  0
   -2.5671    1.5710    2.8068 H   0  0  0  0  0  0  0  0  0  0  0  0
   -1.3312    0.4730    3.4596 H   0  0  0  0  0  0  0  0  0  0  0  0
  1  2  1  0  0  0  0
  2  3  1  0  0  0  0
  2  4  1  0  0  0  0
  2  5  1  0  0  0  0
  5  6  2  0  0  0  0
  5  7  1  0  0  0  0
  7  8  1  0  0  0  0
  7  9  1  0  0  0  0
  9 10  1  0  0  0  0
  9 11  1  0  0  0  0
  9 29  1  0  0  0  0
 11 12  1  0  0  0  0
 11 13  1  0  0  0  0
 11 14  1  0  0  0  0
 14 15  2  0  0  0  0
 14 28  1  0  0  0  0
 15 16  1  0  0  0  0
 15 17  1  0  0  0  0
 17 18  1  0  0  0  0
 17 19  1  0  0  0  0
 19 20  1  0  0  0  0
 19 28  2  0  0  0  0
 20 21  1  0  0  0  0
 20 22  2  0  0  0  0
 22 23  1  0  0  0  0
 22 24  1  0  0  0  0
 24 25  1  0  0  0  0
 24 26  2  0  0  0  0
 26 27  1  0  0  0  0
 26 28  1  0  0  0  0
 29 30  2  0  0  0  0
 29 31  1  0  0  0  0
 31 32  1  0  0  0  0
 31 33  1  0  0  0  0
 33 34  1  0  0  0  0
 33 35  1  0  0  0  0
 33 36  1  0  0  0  0
M  END
$$$$

  -OEChem-03222214083D

 36 37  0     1  0  0  0  0  0999 V2000
   -3.3765   -4.6436    0.8860 H   0  0  0  0  0  0  0  0  0  0  0  0
   -3.3305   -3.8579    0.1262 C   0  0  0  0  0  0  0  0  0  0  0  0
   -4.2353   -3.2491    0.1954 H   0  0  0  0  0  0  0  0  0  0  0  0
   -3.2876   -4.3257   -0.8603 H   0  0  0  0  0  0  0  0  0  0  0  0
   -2.1034   -2.9929    0.3447 C   0  0  0  0  0  0  0  0  0  0  0  0
   -1.3637   -3.2130    1.2852 O   0  0  0  0  0  0  0  0  0  0  0  0
   -1.8300   -1.9602   -0.5289 N   0  0  0  0  0  0  0  0  0  0  0  0
   -2.4400   -1.8669   -1.3358 H   0  0  0  0  0  0  0  0  0  0  0  0
   -0.6337   -1.0958   -0.4587 C   0  0  1  0  0  0  0  0  0  0  0  0
    0.2698   -1.7110   -0.5325 H   0  0  0  0  0  0  0  0  0  0  0  0
   -0.6903   -0.1103   -1.6418 C   0  0  0  0  0  0  0  0  0  0  0  0
   -1.7219    0.1756   -1.8687 H   0  0  0  0  0  0  0  0  0  0  0  0
   -0.1593    0.8033   -1.3531 H   0  0  0  0  0  0  0  0  0  0  0  0
   -0.0131   -0.6460   -2.8816 C   0  0  0  0  0  0  0  0  0  0  0  0
    0.1125   -1.9599   -3.2758 C   0  0  0  0  0  0  0  0  0  0  0  0
   -0.2369   -2.8267   -2.7196 H   0  0  0  0  0  0  0  0  0  0  0  0
    0.7777   -1.9765   -4.4991 N   0  0  0  0  0  0  0  0  0  0  0  0
    1.0420   -2.8128   -5.0161 H   0  0  0  0  0  0  0  0  0  0  0  0
    1.0733   -0.6856   -4.9035 C   0  0  0  0  0  0  0  0  0  0  0  0
    1.7188   -0.1946   -6.0382 C   0  0  0  0  0  0  0  0  0  0  0  0
    2.0922   -0.8771   -6.7935 H   0  0  0  0  0  0  0  0  0  0  0  0
    1.8789    1.1900   -6.1872 C   0  0  0  0  0  0  0  0  0  0  0  0
    2.3816    1.5865   -7.0644 H   0  0  0  0  0  0  0  0  0  0  0  0
    1.3933    2.0642   -5.2028 C   0  0  0  0  0  0  0  0  0  0  0  0
    1.5202    3.1363   -5.3199 H   0  0  0  0  0  0  0  0  0  0  0  0
    0.7479    1.5584   -4.0651 C   0  0  0  0  0  0  0  0  0  0  0  0
    0.3756    2.2323   -3.3007 H   0  0  0  0  0  0  0  0  0  0  0  0
    0.5932    0.1751   -3.9231 C   0  0  0  0  0  0  0  0  0  0  0  0
   -0.5081   -0.3100    0.8665 C   0  0  0  0  0  0  0  0  0  0  0  0
    0.5982   -0.0622    1.3271 O   0  0  0  0  0  0  0  0  0  0  0  0
   -1.6144    0.3272    1.4016 N   0  0  0  0  0  0  0  0  0  0  0  0
   -2.5184    0.0248    1.0549 H   0  0  0  0  0  0  0  0  0  0  0  0
   -1.5599    1.0934    2.6403 C   0  0  0  0  0  0  0  0  0  0  0  0
   -0.8295    1.9054    2.5586 H   0  0  0  0  0  0  0  0  0  0  0  0
   -2.5379    1.5331    2.8568 H   0  0  0  0  0  0  0  0  0  0  0  0
   -1.2756    0.4467    3.4771 H   0  0  0  0  0  0  0  0  0  0  0  0
  1  2  1  0  0  0  0
  2  3  1  0  0  0  0
  2  4  1  0  0  0  0
  2  5  1  0  0  0  0
  5  6  2  0  0  0  0
  5  7  1  0  0  0  0
  7  8  1  0  0  0  0
  7  9  1  0  0  0  0
  9 10  1  0  0  0  0
  9 11  1  0  0  0  0
  9 29  1  0  0  0  0
 11 12  1  0  0  0  0
 11 13  1  0  0  0  0
 11 14  1  0  0  0  0
 14 15  2  0  0  0  0
 14 28  1  0  0  0  0
 15 16  1  0  0  0  0
 15 17  1  0  0  0  0
 17 18  1  0  0  0  0
 17 19  1  0  0  0  0
 19 20  1  0  0  0  0
 19 28  2  0  0  0  0
 20 21  1  0  0  0  0
 20 22  2  0  0  0  0
 22 23  1  0  0  0  0
 22 24  1  0  0  0  0
 24 25  1  0  0  0  0
 24 26  2  0  0  0  0
 26 27  1  0  0  0  0
 26 28  1  0  0  0  0
 29 30  2  0  0  0  0
 29 31  1  0  0  0  0
 31 32  1  0  0  0  0
 31 33  1  0  0  0  0
 33 34  1  0  0  0  0
 33 35  1  0  0  0  0
 33 36  1  0  0  0  0
M  END
$$$$

  -OEChem-03222214083D

 36 37  0     1  0  0  0  0  0999 V2000
   -3.3454   -4.6466    0.8927 H   0  0  0  0  0  0  0  0  0  0  0  0
   -3.3118   -3.8623    0.1307 C   0  0  0  0  0  0  0  0  0  0  0  0
   -4.2139   -3.2516    0.2153 H   0  0  0  0  0  0  0  0  0  0  0  0
   -3.2883   -4.3324   -0.8552 H   0  0  0  0  0  0  0  0  0  0  0  0
   -2.0791   -2.9995    0.3255 C   0  0  0  0  0  0  0  0  0  0  0  0
   -1.3143   -3.2312    1.2427 O   0  0  0  0  0  0  0  0  0  0  0  0
   -1.8320   -1.9532   -0.5401 N   0  0  0  0  0  0  0  0  0  0  0  0
   -2.4782   -1.8317   -1.3137 H   0  0  0  0  0  0  0  0  0  0  0  0
   -0.6427   -1.0778   -0.4783 C   0  0  1  0  0  0  0  0  0  0  0  0
    0.2630   -1.6878   -0.5742 H   0  0  0  0  0  0  0  0  0  0  0  0
   -0.7118   -0.0780   -1.6482 C   0  0  0  0  0  0  0  0  0  0  0  0
   -1.7465    0.2001   -1.8701 H   0  0  0  0  0  0  0  0  0  0  0  0
   -0.1902    0.8382   -1.3523 H   0  0  0  0  0  0  0  0  0  0  0  0
   -0.0367   -0.6085   -2.8910 C   0  0  0  0  0  0  0  0  0  0  0  0
   -0.1570   -1.8713   -3.4258 C   0  0  0  0  0  0  0  0  0  0  0  0
   -0.7399   -2.6865   -3.0047 H   0  0  0  0  0  0  0  0  0  0  0  0
    0.6076   -1.9172   -4.5883 N   0  0  0  0  0  0  0  0  0  0  0  0
    0.7322   -2.7345   -5.1824 H   0  0  0  0  0  0  0  0  0  0  0  0
    1.2162   -0.6937   -4.8119 C   0  0  0  0  0  0  0  0  0  0  0  0
    2.0637   -0.2547   -5.8292 C   0  0  0  0  0  0  0  0  0  0  0  0
    2.3509   -0.9270   -6.6300 H   0  0  0  0  0  0  0  0  0  0  0  0
    2.5378    1.0640   -5.8009 C   0  0  0  0  0  0  0  0  0  0  0  0
    3.1987    1.4200   -6.5855 H   0  0  0  0  0  0  0  0  0  0  0  0
    2.1617    1.9240   -4.7582 C   0  0  0  0  0  0  0  0  0  0  0  0
    2.5331    2.9440   -4.7359 H   0  0  0  0  0  0  0  0  0  0  0  0
    1.3107    1.4707   -3.7403 C   0  0  0  0  0  0  0  0  0  0  0  0
    1.0248    2.1350   -2.9315 H   0  0  0  0  0  0  0  0  0  0  0  0
    0.8393    0.1532   -3.7754 C   0  0  0  0  0  0  0  0  0  0  0  0
   -0.5059   -0.3094    0.8560 C   0  0  0  0  0  0  0  0  0  0  0  0
    0.6034   -0.0458    1.3003 O   0  0  0  0  0  0  0  0  0  0  0  0
   -1.6125    0.3073    1.4142 N   0  0  0  0  0  0  0  0  0  0  0  0
   -2.5172    0.0007    1.0738 H   0  0  0  0  0  0  0  0  0  0  0  0
   -1.5517    1.0631    2.6591 C   0  0  0  0  0  0  0  0  0  0  0  0
   -0.8372    1.8885    2.5730 H   0  0  0  0  0  0  0  0  0  0  0  0
   -2.5339    1.4832    2.8949 H   0  0  0  0  0  0  0  0  0  0  0  0
   -1.2430    0.4143    3.4857 H   0  0  0  0  0  0  0  0  0  0  0  0
  1  2  1  0  0  0  0
  2  3  1  0  0  0  0
  2  4  1  0  0  0  0
  2  5  1  0  0  0  0
  5  6  2  0  0  0  0
  5  7  1  0  0  0  0
  7  8  1  0  0  0  0
  7  9  1  0  0  0  0
  9 10  1  0  0  0  0
  9 11  1  0  0  0  0
  9 29  1  0  0  0  0
 11 12  1  0  0  0  0
 11 13  1  0  0  0  0
 11 14  1  0  0  0  0
 14 15  2  0  0  0  0
 14 28  1  0  0  0  0
 15 16  1  0  0  0  0
 15 17  1  0  0  0  0
 17 18  1  0  0  0  0
 17 19  1  0  0  0  0
 19 20  1  0  0  0  0
 19 28  2  0  0  0  0
 20 21  1  0  0  0  0
 20 22  2  0  0  0  0
 22 23  1  0  0  0  0
 22 24  1  0  0  0  0
 24 25  1  0  0  0  0
 24 26  2  0  0  0  0
 26 27  1  0  0  0  0
 26 28  1  0  0  0  0
 29 30  2  0  0  0  0
 29 31  1  0  0  0  0
 31 32  1  0  0  0  0
 31 33  1  0  0  0  0
 33 34  1  0  0  0  0
 33 35  1  0  0  0  0
 33 36  1  0  0  0  0
M  END
$$$$

  -OEChem-03222214083D

 36 37  0     1  0  0  0  0  0999 V2000
   -3.2741   -4.6768    0.8837 H   0  0  0  0  0  0  0  0  0  0  0  0
   -3.2625   -3.8955    0.1180 C   0  0  0  0  0  0  0  0  0  0  0  0
   -4.1815   -3.3104    0.1997 H   0  0  0  0  0  0  0  0  0  0  0  0
   -3.2243   -4.3695   -0.8656 H   0  0  0  0  0  0  0  0  0  0  0  0
   -2.0544   -2.9976    0.3094 C   0  0  0  0  0  0  0  0  0  0  0  0
   -1.2813   -3.2100    1.2245 O   0  0  0  0  0  0  0  0  0  0  0  0
   -1.8415   -1.9406   -0.5528 N   0  0  0  0  0  0  0  0  0  0  0  0
   -2.4973   -1.8318   -1.3193 H   0  0  0  0  0  0  0  0  0  0  0  0
   -0.6620   -1.0509   -0.5086 C   0  0  1  0  0  0  0  0  0  0  0  0
    0.2463   -1.6528   -0.6305 H   0  0  0  0  0  0  0  0  0  0  0  0
   -0.7550   -0.0381   -1.6646 C   0  0  0  0  0  0  0  0  0  0  0  0
   -1.7988    0.2161   -1.8729 H   0  0  0  0  0  0  0  0  0  0  0  0
   -0.2540    0.8908   -1.3733 H   0  0  0  0  0  0  0  0  0  0  0  0
   -0.0905   -0.5615   -2.9147 C   0  0  0  0  0  0  0  0  0  0  0  0
   -0.4220   -1.7025   -3.6080 C   0  0  0  0  0  0  0  0  0  0  0  0
   -1.2131   -2.3988   -3.3447 H   0  0  0  0  0  0  0  0  0  0  0  0
    0.4413   -1.8059   -4.6957 N   0  0  0  0  0  0  0  0  0  0  0  0
    0.4473   -2.5627   -5.3766 H   0  0  0  0  0  0  0  0  0  0  0  0
    1.3303   -0.7440   -4.7074 C   0  0  0  0  0  0  0  0  0  0  0  0
    2.3687   -0.4158   -5.5793 C   0  0  0  0  0  0  0  0  0  0  0  0
    2.5892   -1.0494   -6.4310 H   0  0  0  0  0  0  0  0  0  0  0  0
    3.1234    0.7404   -5.3381 C   0  0  0  0  0  0  0  0  0  0  0  0
    3.9349    1.0090   -6.0079 H   0  0  0  0  0  0  0  0  0  0  0  0
    2.8346    1.5490   -4.2286 C   0  0  0  0  0  0  0  0  0  0  0  0
    3.4242    2.4408   -4.0389 H   0  0  0  0  0  0  0  0  0  0  0  0
    1.7891    1.2081   -3.3585 C   0  0  0  0  0  0  0  0  0  0  0  0
    1.5716    1.8300   -2.4963 H   0  0  0  0  0  0  0  0  0  0  0  0
    1.0348    0.0560   -3.6093 C   0  0  0  0  0  0  0  0  0  0  0  0
   -0.5013   -0.2914    0.8277 C   0  0  0  0  0  0  0  0  0  0  0  0
    0.6157   -0.0110    1.2416 O   0  0  0  0  0  0  0  0  0  0  0  0
   -1.6008    0.3084    1.4174 N   0  0  0  0  0  0  0  0  0  0  0  0
   -2.5101   -0.0119    1.1027 H   0  0  0  0  0  0  0  0  0  0  0  0
   -1.5156    1.0598    2.6634 C   0  0  0  0  0  0  0  0  0  0  0  0
   -0.8244    1.9025    2.5573 H   0  0  0  0  0  0  0  0  0  0  0  0
   -2.4992    1.4547    2.9346 H   0  0  0  0  0  0  0  0  0  0  0  0
   -1.1630    0.4149    3.4752 H   0  0  0  0  0  0  0  0  0  0  0  0
  1  2  1  0  0  0  0
  2  3  1  0  0  0  0
  2  4  1  0  0  0  0
  2  5  1  0  0  0  0
  5  6  2  0  0  0  0
  5  7  1  0  0  0  0
  7  8  1  0  0  0  0
  7  9  1  0  0  0  0
  9 10  1  0  0  0  0
  9 11  1  0  0  0  0
  9 29  1  0  0  0  0
 11 12  1  0  0  0  0
 11 13  1  0  0  0  0
 11 14  1  0  0  0  0
 14 15  2  0  0  0  0
 14 28  1  0  0  0  0
 15 16  1  0  0  0  0
 15 17  1  0  0  0  0
 17 18  1  0  0  0  0
 17 19  1  0  0  0  0
 19 20  1  0  0  0  0
 19 28  2  0  0  0  0
 20 21  1  0  0  0  0
 20 22  2  0  0  0  0
 22 23  1  0  0  0  0
 22 24  1  0  0  0  0
 24 25  1  0  0  0  0
 24 26  2  0  0  0  0
 26 27  1  0  0  0  0
 26 28  1  0  0  0  0
 29 30  2  0  0  0  0
 29 31  1  0  0  0  0
 31 32  1  0  0  0  0
 31 33  1  0  0  0  0
 33 34  1  0  0  0  0
 33 35  1  0  0  0  0
 33 36  1  0  0  0  0
M  END
$$$$

  -OEChem-03222214083D

 36 37  0     1  0  0  0  0  0999 V2000
   -3.1779   -4.7190    0.8387 H   0  0  0  0  0  0  0  0  0  0  0  0
   -3.1819   -3.9403    0.0703 C   0  0  0  0  0  0  0  0  0  0  0  0
   -4.1309   -3.4013    0.1219 H   0  0  0  0  0  0  0  0  0  0  0  0
   -3.0910   -4.4150   -0.9095 H   0  0  0  0  0  0  0  0  0  0  0  0
   -2.0262   -2.9828    0.2936 C   0  0  0  0  0  0  0  0  0  0  0  0
   -1.2722   -3.1535    1.2332 O   0  0  0  0  0  0  0  0  0  0  0  0
   -1.8437   -1.9174   -0.5655 N   0  0  0  0  0  0  0  0  0  0  0  0
   -2.4526   -1.8784   -1.3755 H   0  0  0  0  0  0  0  0  0  0  0  0
   -0.6714   -1.0180   -0.5354 C   0  0  1  0  0  0  0  0  0  0  0  0
    0.2379   -1.6128   -0.6814 H   0  0  0  0  0  0  0  0  0  0  0  0
   -0.7893    0.0109   -1.6745 C   0  0  0  0  0  0  0  0  0  0  0  0
   -1.8407    0.2490   -1.8626 H   0  0  0  0  0  0  0  0  0  0  0  0
   -0.2980    0.9472   -1.3895 H   0  0  0  0  0  0  0  0  0  0  0  0
   -0.1415   -0.5023   -2.9349 C   0  0  0  0  0  0  0  0  0  0  0  0
   -0.6364   -1.4573   -3.7919 C   0  0  0  0  0  0  0  0  0  0  0  0
   -1.5896   -1.9690   -3.6927 H   0  0  0  0  0  0  0  0  0  0  0  0
    0.3014   -1.6440   -4.8049 N   0  0  0  0  0  0  0  0  0  0  0  0
    0.2132   -2.2968   -5.5809 H   0  0  0  0  0  0  0  0  0  0  0  0
    1.4043   -0.8319   -4.5965 C   0  0  0  0  0  0  0  0  0  0  0  0
    2.5895   -0.6731   -5.3150 C   0  0  0  0  0  0  0  0  0  0  0  0
    2.7625   -1.2442   -6.2202 H   0  0  0  0  0  0  0  0  0  0  0  0
    3.5548    0.2304   -4.8487 C   0  0  0  0  0  0  0  0  0  0  0  0
    4.4833    0.3643   -5.3960 H   0  0  0  0  0  0  0  0  0  0  0  0
    3.3264    0.9578   -3.6705 C   0  0  0  0  0  0  0  0  0  0  0  0
    4.0784    1.6507   -3.3055 H   0  0  0  0  0  0  0  0  0  0  0  0
    2.1317    0.7892   -2.9564 C   0  0  0  0  0  0  0  0  0  0  0  0
    1.9591    1.3428   -2.0387 H   0  0  0  0  0  0  0  0  0  0  0  0
    1.1693   -0.1071   -3.4341 C   0  0  0  0  0  0  0  0  0  0  0  0
   -0.4854   -0.2658    0.8017 C   0  0  0  0  0  0  0  0  0  0  0  0
    0.6393    0.0307    1.1839 O   0  0  0  0  0  0  0  0  0  0  0  0
   -1.5761    0.3220    1.4188 N   0  0  0  0  0  0  0  0  0  0  0  0
   -2.4873   -0.0206    1.1344 H   0  0  0  0  0  0  0  0  0  0  0  0
   -1.4682    1.0733    2.6629 C   0  0  0  0  0  0  0  0  0  0  0  0
   -0.7912    1.9253    2.5397 H   0  0  0  0  0  0  0  0  0  0  0  0
   -2.4495    1.4550    2.9603 H   0  0  0  0  0  0  0  0  0  0  0  0
   -1.0864    0.4321    3.4643 H   0  0  0  0  0  0  0  0  0  0  0  0
  1  2  1  0  0  0  0
  2  3  1  0  0  0  0
  2  4  1  0  0  0  0
  2  5  1  0  0  0  0
  5  6  2  0  0  0  0
  5  7  1  0  0  0  0
  7  8  1  0  0  0  0
  7  9  1  0  0  0  0
  9 10  1  0  0  0  0
  9 11  1  0  0  0  0
  9 29  1  0  0  0  0
 11 12  1  0  0  0  0
 11 13  1  0  0  0  0
 11 14  1  0  0  0  0
 14 15  2  0  0  0  0
 14 28  1  0  0  0  0
 15 16  1  0  0  0  0
 15 17  1  0  0  0  0
 17 18  1  0  0  0  0
 17 19  1  0  0  0  0
 19 20  1  0  0  0  0
 19 28  2  0  0  0  0
 20 21  1  0  0  0  0
 20 22  2  0  0  0  0
 22 23  1  0  0  0  0
 22 24  1  0  0  0  0
 24 25  1  0  0  0  0
 24 26  2  0  0  0  0
 26 27  1  0  0  0  0
 26 28  1  0  0  0  0
 29 30  2  0  0  0  0
 29 31  1  0  0  0  0
 31 32  1  0  0  0  0
 31 33  1  0  0  0  0
 33 34  1  0  0  0  0
 33 35  1  0  0  0  0
 33 36  1  0  0  0  0
M  END
$$$$

  -OEChem-03222214083D

 36 37  0     1  0  0  0  0  0999 V2000
   -3.1080   -4.7471    0.7767 H   0  0  0  0  0  0  0  0  0  0  0  0
   -3.1099   -3.9710    0.0058 C   0  0  0  0  0  0  0  0  0  0  0  0
   -4.0824   -3.4731    0.0113 H   0  0  0  0  0  0  0  0  0  0  0  0
   -2.9534   -4.4432   -0.9671 H   0  0  0  0  0  0  0  0  0  0  0  0
   -2.0081   -2.9640    0.2774 C   0  0  0  0  0  0  0  0  0  0  0  0
   -1.2950   -3.0975    1.2543 O   0  0  0  0  0  0  0  0  0  0  0  0
   -1.8362   -1.8936   -0.5776 N   0  0  0  0  0  0  0  0  0  0  0  0
   -2.3777   -1.9212   -1.4345 H   0  0  0  0  0  0  0  0  0  0  0  0
   -0.6652   -0.9938   -0.5440 C   0  0  1  0  0  0  0  0  0  0  0  0
    0.2433   -1.5873   -0.7006 H   0  0  0  0  0  0  0  0  0  0  0  0
   -0.7926    0.0479   -1.6703 C   0  0  0  0  0  0  0  0  0  0  0  0
   -1.8464    0.2838   -1.8476 H   0  0  0  0  0  0  0  0  0  0  0  0
   -0.2990    0.9839   -1.3865 H   0  0  0  0  0  0  0  0  0  0  0  0
   -0.1513   -0.4586   -2.9340 C   0  0  0  0  0  0  0  0  0  0  0  0
   -0.7476   -1.1817   -3.9395 C   0  0  0  0  0  0  0  0  0  0  0  0
   -1.7954   -1.4663   -3.9837 H   0  0  0  0  0  0  0  0  0  0  0  0
    0.2311   -1.4683   -4.8888 N   0  0  0  0  0  0  0  0  0  0  0  0
    0.0838   -1.9844   -5.7537 H   0  0  0  0  0  0  0  0  0  0  0  0
    1.4561   -0.9570   -4.4894 C   0  0  0  0  0  0  0  0  0  0  0  0
    2.7201   -0.9968   -5.0786 C   0  0  0  0  0  0  0  0  0  0  0  0
    2.8642   -1.4910   -6.0329 H   0  0  0  0  0  0  0  0  0  0  0  0
    3.8010   -0.3947   -4.4181 C   0  0  0  0  0  0  0  0  0  0  0  0
    4.7915   -0.4190   -4.8627 H   0  0  0  0  0  0  0  0  0  0  0  0
    3.6066    0.2353   -3.1790 C   0  0  0  0  0  0  0  0  0  0  0  0
    4.4452    0.6946   -2.6643 H   0  0  0  0  0  0  0  0  0  0  0  0
    2.3317    0.2708   -2.5970 C   0  0  0  0  0  0  0  0  0  0  0  0
    2.1793    0.7478   -1.6331 H   0  0  0  0  0  0  0  0  0  0  0  0
    1.2588   -0.3250   -3.2681 C   0  0  0  0  0  0  0  0  0  0  0  0
   -0.4695   -0.2490    0.7955 C   0  0  0  0  0  0  0  0  0  0  0  0
    0.6594    0.0530    1.1618 O   0  0  0  0  0  0  0  0  0  0  0  0
   -1.5548    0.3360    1.4238 N   0  0  0  0  0  0  0  0  0  0  0  0
   -2.4660   -0.0211    1.1567 H   0  0  0  0  0  0  0  0  0  0  0  0
   -1.4341    1.0757    2.6736 C   0  0  0  0  0  0  0  0  0  0  0  0
   -0.7607    1.9303    2.5501 H   0  0  0  0  0  0  0  0  0  0  0  0
   -2.4129    1.4514    2.9861 H   0  0  0  0  0  0  0  0  0  0  0  0
   -1.0412    0.4282    3.4645 H   0  0  0  0  0  0  0  0  0  0  0  0
  1  2  1  0  0  0  0
  2  3  1  0  0  0  0
  2  4  1  0  0  0  0
  2  5  1  0  0  0  0
  5  6  2  0  0  0  0
  5  7  1  0  0  0  0
  7  8  1  0  0  0  0
  7  9  1  0  0  0  0
  9 10  1  0  0  0  0
  9 11  1  0  0  0  0
  9 29  1  0  0  0  0
 11 12  1  0  0  0  0
 11 13  1  0  0  0  0
 11 14  1  0  0  0  0
 14 15  2  0  0  0  0
 14 28  1  0  0  0  0
 15 16  1  0  0  0  0
 15 17  1  0  0  0  0
 17 18  1  0  0  0  0
 17 19  1  0  0  0  0
 19 20  1  0  0  0  0
 19 28  2  0  0  0  0
 20 21  1  0  0  0  0
 20 22  2  0  0  0  0
 22 23  1  0  0  0  0
 22 24  1  0  0  0  0
 24 25  1  0  0  0  0
 24 26  2  0  0  0  0
 26 27  1  0  0  0  0
 26 28  1  0  0  0  0
 29 30  2  0  0  0  0
 29 31  1  0  0  0  0
 31 32  1  0  0  0  0
 31 33  1  0  0  0  0
 33 34  1  0  0  0  0
 33 35  1  0  0  0  0
 33 36  1  0  0  0  0
M  END
$$$$

  -OEChem-03222214083D

 36 37  0     1  0  0  0  0  0999 V2000
   -3.1154   -4.7585    0.7234 H   0  0  0  0  0  0  0  0  0  0  0  0
   -3.1014   -3.9799   -0.0448 C   0  0  0  0  0  0  0  0  0  0  0  0
   -4.0813   -3.4978   -0.0746 H   0  0  0  0  0  0  0  0  0  0  0  0
   -2.9005   -4.4456   -1.0126 H   0  0  0  0  0  0  0  0  0  0  0  0
   -2.0271   -2.9564    0.2708 C   0  0  0  0  0  0  0  0  0  0  0  0
   -1.3511   -3.0801    1.2754 O   0  0  0  0  0  0  0  0  0  0  0  0
   -1.8365   -1.8849   -0.5788 N   0  0  0  0  0  0  0  0  0  0  0  0
   -2.3303   -1.9383   -1.4634 H   0  0  0  0  0  0  0  0  0  0  0  0
   -0.6556   -0.9998   -0.5265 C   0  0  1  0  0  0  0  0  0  0  0  0
    0.2456   -1.6055   -0.6752 H   0  0  0  0  0  0  0  0  0  0  0  0
   -0.7663    0.0465   -1.6518 C   0  0  0  0  0  0  0  0  0  0  0  0
   -1.8155    0.3000   -1.8323 H   0  0  0  0  0  0  0  0  0  0  0  0
   -0.2563    0.9722   -1.3628 H   0  0  0  0  0  0  0  0  0  0  0  0
   -0.1196   -0.4626   -2.9118 C   0  0  0  0  0  0  0  0  0  0  0  0
   -0.7512   -0.9228   -4.0426 C   0  0  0  0  0  0  0  0  0  0  0  0
   -1.8263   -0.9638   -4.1989 H   0  0  0  0  0  0  0  0  0  0  0  0
    0.2362   -1.3124   -4.9456 N   0  0  0  0  0  0  0  0  0  0  0  0
    0.0710   -1.6829   -5.8793 H   0  0  0  0  0  0  0  0  0  0  0  0
    1.4958   -1.1125   -4.4017 C   0  0  0  0  0  0  0  0  0  0  0  0
    2.7770   -1.3476   -4.9014 C   0  0  0  0  0  0  0  0  0  0  0  0
    2.9099   -1.7598   -5.8952 H   0  0  0  0  0  0  0  0  0  0  0  0
    3.8889   -1.0464   -4.1010 C   0  0  0  0  0  0  0  0  0  0  0  0
    4.8926   -1.2248   -4.4752 H   0  0  0  0  0  0  0  0  0  0  0  0
    3.7074   -0.5167   -2.8139 C   0  0  0  0  0  0  0  0  0  0  0  0
    4.5682   -0.2876   -2.1927 H   0  0  0  0  0  0  0  0  0  0  0  0
    2.4158   -0.2828   -2.3220 C   0  0  0  0  0  0  0  0  0  0  0  0
    2.2714    0.1228   -1.3242 H   0  0  0  0  0  0  0  0  0  0  0  0
    1.3143   -0.5836   -3.1301 C   0  0  0  0  0  0  0  0  0  0  0  0
   -0.4611   -0.2612    0.8164 C   0  0  0  0  0  0  0  0  0  0  0  0
    0.6702    0.0198    1.1927 O   0  0  0  0  0  0  0  0  0  0  0  0
   -1.5422    0.3376    1.4388 N   0  0  0  0  0  0  0  0  0  0  0  0
   -2.4556   -0.0105    1.1671 H   0  0  0  0  0  0  0  0  0  0  0  0
   -1.4192    1.0666    2.6946 C   0  0  0  0  0  0  0  0  0  0  0  0
   -0.7359    1.9148    2.5804 H   0  0  0  0  0  0  0  0  0  0  0  0
   -2.3951    1.4509    3.0061 H   0  0  0  0  0  0  0  0  0  0  0  0
   -1.0364    0.4094    3.4827 H   0  0  0  0  0  0  0  0  0  0  0  0
  1  2  1  0  0  0  0
  2  3  1  0  0  0  0
  2  4  1  0  0  0  0
  2  5  1  0  0  0  0
  5  6  2  0  0  0  0
  5  7  1  0  0  0  0
  7  8  1  0  0  0  0
  7  9  1  0  0  0  0
  9 10  1  0  0  0  0
  9 11  1  0  0  0  0
  9 29  1  0  0  0  0
 11 12  1  0  0  0  0
 11 13  1  0  0  0  0
 11 14  1  0  0  0  0
 14 15  2  0  0  0  0
 14 28  1  0  0  0  0
 15 16  1  0  0  0  0
 15 17  1  0  0  0  0
 17 18  1  0  0  0  0
 17 19  1  0  0  0  0
 19 20  1  0  0  0  0
 19 28  2  0  0  0  0
 20 21  1  0  0  0  0
 20 22  2  0  0  0  0
 22 23  1  0  0  0  0
 22 24  1  0  0  0  0
 24 25  1  0  0  0  0
 24 26  2  0  0  0  0
 26 27  1  0  0  0  0
 26 28  1  0  0  0  0
 29 30  2  0  0  0  0
 29 31  1  0  0  0  0
 31 32  1  0  0  0  0
 31 33  1  0  0  0  0
 33 34  1  0  0  0  0
 33 35  1  0  0  0  0
 33 36  1  0  0  0  0
M  END
$$$$

  -OEChem-03222214083D

 36 37  0     1  0  0  0  0  0999 V2000
   -3.2267   -4.7407    0.7138 H   0  0  0  0  0  0  0  0  0  0  0  0
   -3.1759   -3.9650   -0.0557 C   0  0  0  0  0  0  0  0  0  0  0  0
   -4.1454   -3.4647   -0.1153 H   0  0  0  0  0  0  0  0  0  0  0  0
   -2.9559   -4.4381   -1.0159 H   0  0  0  0  0  0  0  0  0  0  0  0
   -2.0922   -2.9605    0.2878 C   0  0  0  0  0  0  0  0  0  0  0  0
   -1.4516   -3.0897    1.3147 O   0  0  0  0  0  0  0  0  0  0  0  0
   -1.8544   -1.8986   -0.5615 N   0  0  0  0  0  0  0  0  0  0  0  0
   -2.3158   -1.9553   -1.4638 H   0  0  0  0  0  0  0  0  0  0  0  0
   -0.6532   -1.0436   -0.4842 C   0  0  1  0  0  0  0  0  0  0  0  0
    0.2310   -1.6772   -0.6072 H   0  0  0  0  0  0  0  0  0  0  0  0
   -0.7230   -0.0045   -1.6214 C   0  0  0  0  0  0  0  0  0  0  0  0
   -1.7615    0.2813   -1.8157 H   0  0  0  0  0  0  0  0  0  0  0  0
   -0.1883    0.9048   -1.3247 H   0  0  0  0  0  0  0  0  0  0  0  0
   -0.0672   -0.5227   -2.8748 C   0  0  0  0  0  0  0  0  0  0  0  0
   -0.6723   -0.6977   -4.0965 C   0  0  0  0  0  0  0  0  0  0  0  0
   -1.7162   -0.4938   -4.3230 H   0  0  0  0  0  0  0  0  0  0  0  0
    0.2927   -1.1741   -4.9814 N   0  0  0  0  0  0  0  0  0  0  0  0
    0.1402   -1.3848   -5.9658 H   0  0  0  0  0  0  0  0  0  0  0  0
    1.5198   -1.2810   -4.3460 C   0  0  0  0  0  0  0  0  0  0  0  0
    2.7725   -1.6881   -4.8061 C   0  0  0  0  0  0  0  0  0  0  0  0
    2.9014   -2.0055   -5.8349 H   0  0  0  0  0  0  0  0  0  0  0  0
    3.8611   -1.6781   -3.9221 C   0  0  0  0  0  0  0  0  0  0  0  0
    4.8426   -1.9926   -4.2640 H   0  0  0  0  0  0  0  0  0  0  0  0
    3.6861   -1.2567   -2.5951 C   0  0  0  0  0  0  0  0  0  0  0  0
    4.5299   -1.2438   -1.9116 H   0  0  0  0  0  0  0  0  0  0  0  0
    2.4234   -0.8488   -2.1436 C   0  0  0  0  0  0  0  0  0  0  0  0
    2.2903   -0.5165   -1.1173 H   0  0  0  0  0  0  0  0  0  0  0  0
    1.3397   -0.8731   -3.0295 C   0  0  0  0  0  0  0  0  0  0  0  0
   -0.4693   -0.3023    0.8586 C   0  0  0  0  0  0  0  0  0  0  0  0
    0.6606   -0.0561    1.2623 O   0  0  0  0  0  0  0  0  0  0  0  0
   -1.5476    0.3286    1.4535 N   0  0  0  0  0  0  0  0  0  0  0  0
   -2.4634    0.0045    1.1605 H   0  0  0  0  0  0  0  0  0  0  0  0
   -1.4350    1.0572    2.7108 C   0  0  0  0  0  0  0  0  0  0  0  0
   -0.7243    1.8847    2.6128 H   0  0  0  0  0  0  0  0  0  0  0  0
   -2.4066    1.4713    2.9966 H   0  0  0  0  0  0  0  0  0  0  0  0
   -1.0926    0.3906    3.5095 H   0  0  0  0  0  0  0  0  0  0  0  0
  1  2  1  0  0  0  0
  2  3  1  0  0  0  0
  2  4  1  0  0  0  0
  2  5  1  0  0  0  0
  5  6  2  0  0  0  0
  5  7  1  0  0  0  0
  7  8  1  0  0  0  0
  7  9  1  0  0  0  0
  9 10  1  0  0  0  0
  9 11  1  0  0  0  0
  9 29  1  0  0  0  0
 11 12  1  0  0  0  0
 11 13  1  0  0  0  0
 11 14  1  0  0  0  0
 14 15  2  0  0  0  0
 14 28  1  0  0  0  0
 15 16  1  0  0  0  0
 15 17  1  0  0  0  0
 17 18  1  0  0  0  0
 17 19  1  0  0  0  0
 19 20  1  0  0  0  0
 19 28  2  0  0  0  0
 20 21  1  0  0  0  0
 20 22  2  0  0  0  0
 22 23  1  0  0  0  0
 22 24  1  0  0  0  0
 24 25  1  0  0  0  0
 24 26  2  0  0  0  0
 26 27  1  0  0  0  0
 26 28  1  0  0  0  0
 29 30  2  0  0  0  0
 29 31  1  0  0  0  0
 31 32  1  0  0  0  0
 31 33  1  0  0  0  0
 33 34  1  0  0  0  0
 33 35  1  0  0  0  0
 33 36  1  0  0  0  0
M  END
$$$$

  -OEChem-03222214083D

 36 37  0     1  0  0  0  0  0999 V2000
   -3.3745   -4.7170    0.7396 H   0  0  0  0  0  0  0  0  0  0  0  0
   -3.3137   -3.9262   -0.0136 C   0  0  0  0  0  0  0  0  0  0  0  0
   -4.2686   -3.3961   -0.0454 H   0  0  0  0  0  0  0  0  0  0  0  0
   -3.1248   -4.3838   -0.9878 H   0  0  0  0  0  0  0  0  0  0  0  0
   -2.1955   -2.9616    0.3332 C   0  0  0  0  0  0  0  0  0  0  0  0
   -1.5793   -3.0986    1.3740 O   0  0  0  0  0  0  0  0  0  0  0  0
   -1.8991   -1.9245   -0.5283 N   0  0  0  0  0  0  0  0  0  0  0  0
   -2.3384   -1.9819   -1.4418 H   0  0  0  0  0  0  0  0  0  0  0  0
   -0.6719   -1.1094   -0.4324 C   0  0  1  0  0  0  0  0  0  0  0  0
    0.1862   -1.7800   -0.5170 H   0  0  0  0  0  0  0  0  0  0  0  0
   -0.6836   -0.0909   -1.5908 C   0  0  0  0  0  0  0  0  0  0  0  0
   -1.7058    0.2380   -1.8030 H   0  0  0  0  0  0  0  0  0  0  0  0
   -0.1169    0.7973   -1.2898 H   0  0  0  0  0  0  0  0  0  0  0  0
   -0.0211   -0.6232   -2.8373 C   0  0  0  0  0  0  0  0  0  0  0  0
   -0.5398   -0.5014   -4.1045 C   0  0  0  0  0  0  0  0  0  0  0  0
   -1.5013   -0.0592   -4.3545 H   0  0  0  0  0  0  0  0  0  0  0  0
    0.3801   -1.0431   -4.9969 N   0  0  0  0  0  0  0  0  0  0  0  0
    0.2706   -1.0814   -6.0083 H   0  0  0  0  0  0  0  0  0  0  0  0
    1.5190   -1.4500   -4.3228 C   0  0  0  0  0  0  0  0  0  0  0  0
    2.7119   -2.0016   -4.7898 C   0  0  0  0  0  0  0  0  0  0  0  0
    2.8450   -2.2040   -5.8466 H   0  0  0  0  0  0  0  0  0  0  0  0
    3.7380   -2.2798   -3.8773 C   0  0  0  0  0  0  0  0  0  0  0  0
    4.6733   -2.7085   -4.2245 H   0  0  0  0  0  0  0  0  0  0  0  0
    3.5638   -1.9897   -2.5164 C   0  0  0  0  0  0  0  0  0  0  0  0
    4.3650   -2.1895   -1.8110 H   0  0  0  0  0  0  0  0  0  0  0  0
    2.3605   -1.4342   -2.0594 C   0  0  0  0  0  0  0  0  0  0  0  0
    2.2472   -1.1915   -1.0067 H   0  0  0  0  0  0  0  0  0  0  0  0
    1.3243   -1.1852   -2.9707 C   0  0  0  0  0  0  0  0  0  0  0  0
   -0.5012   -0.3508    0.9017 C   0  0  0  0  0  0  0  0  0  0  0  0
    0.6241   -0.1418    1.3374 O   0  0  0  0  0  0  0  0  0  0  0  0
   -1.5746    0.3260    1.4533 N   0  0  0  0  0  0  0  0  0  0  0  0
   -2.4915    0.0266    1.1381 H   0  0  0  0  0  0  0  0  0  0  0  0
   -1.4750    1.0618    2.7069 C   0  0  0  0  0  0  0  0  0  0  0  0
   -0.7129    1.8448    2.6330 H   0  0  0  0  0  0  0  0  0  0  0  0
   -2.4321    1.5357    2.9442 H   0  0  0  0  0  0  0  0  0  0  0  0
   -1.2076    0.3859    3.5260 H   0  0  0  0  0  0  0  0  0  0  0  0
  1  2  1  0  0  0  0
  2  3  1  0  0  0  0
  2  4  1  0  0  0  0
  2  5  1  0  0  0  0
  5  6  2  0  0  0  0
  5  7  1  0  0  0  0
  7  8  1  0  0  0  0
  7  9  1  0  0  0  0
  9 10  1  0  0  0  0
  9 11  1  0  0  0  0
  9 29  1  0  0  0  0
 11 12  1  0  0  0  0
 11 13  1  0  0  0  0
 11 14  1  0  0  0  0
 14 15  2  0  0  0  0
 14 28  1  0  0  0  0
 15 16  1  0  0  0  0
 15 17  1  0  0  0  0
 17 18  1  0  0  0  0
 17 19  1  0  0  0  0
 19 20  1  0  0  0  0
 19 28  2  0  0  0  0
 20 21  1  0  0  0  0
 20 22  2  0  0  0  0
 22 23  1  0  0  0  0
 22 24  1  0  0  0  0
 24 25  1  0  0  0  0
 24 26  2  0  0  0  0
 26 27  1  0  0  0  0
 26 28  1  0  0  0  0
 29 30  2  0  0  0  0
 29 31  1  0  0  0  0
 31 32  1  0  0  0  0
 31 33  1  0  0  0  0
 33 34  1  0  0  0  0
 33 35  1  0  0  0  0
 33 36  1  0  0  0  0
M  END
$$$$

  -OEChem-03222214083D

 36 37  0     1  0  0  0  0  0999 V2000
   -3.4857   -4.6860    0.7923 H   0  0  0  0  0  0  0  0  0  0  0  0
   -3.3965   -3.9051    0.0317 C   0  0  0  0  0  0  0  0  0  0  0  0
   -4.3444   -3.3656   -0.0320 H   0  0  0  0  0  0  0  0  0  0  0  0
   -3.1864   -4.3768   -0.9313 H   0  0  0  0  0  0  0  0  0  0  0  0
   -2.2770   -2.9487    0.3970 C   0  0  0  0  0  0  0  0  0  0  0  0
   -1.7015   -3.0704    1.4628 O   0  0  0  0  0  0  0  0  0  0  0  0
   -1.9272   -1.9411   -0.4796 N   0  0  0  0  0  0  0  0  0  0  0  0
   -2.3339   -2.0135   -1.4075 H   0  0  0  0  0  0  0  0  0  0  0  0
   -0.6881   -1.1472   -0.3610 C   0  0  1  0  0  0  0  0  0  0  0  0
    0.1547   -1.8339   -0.3934 H   0  0  0  0  0  0  0  0  0  0  0  0
   -0.6518   -0.1609   -1.5462 C   0  0  0  0  0  0  0  0  0  0  0  0
   -1.6636    0.1850   -1.7811 H   0  0  0  0  0  0  0  0  0  0  0  0
   -0.0785    0.7216   -1.2403 H   0  0  0  0  0  0  0  0  0  0  0  0
    0.0292   -0.6892   -2.7910 C   0  0  0  0  0  0  0  0  0  0  0  0
   -0.3510   -0.2751   -4.0467 C   0  0  0  0  0  0  0  0  0  0  0  0
   -1.1782    0.3967   -4.2651 H   0  0  0  0  0  0  0  0  0  0  0  0
    0.4899   -0.8741   -4.9759 N   0  0  0  0  0  0  0  0  0  0  0  0
    0.4476   -0.7414   -5.9844 H   0  0  0  0  0  0  0  0  0  0  0  0
    1.4694   -1.6028   -4.3282 C   0  0  0  0  0  0  0  0  0  0  0  0
    2.5478   -2.3150   -4.8521 C   0  0  0  0  0  0  0  0  0  0  0  0
    2.6880   -2.3883   -5.9249 H   0  0  0  0  0  0  0  0  0  0  0  0
    3.4552   -2.9192   -3.9748 C   0  0  0  0  0  0  0  0  0  0  0  0
    4.3027   -3.4755   -4.3641 H   0  0  0  0  0  0  0  0  0  0  0  0
    3.2822   -2.7840   -2.5915 C   0  0  0  0  0  0  0  0  0  0  0  0
    4.0006   -3.2294   -1.9097 H   0  0  0  0  0  0  0  0  0  0  0  0
    2.1935   -2.0638   -2.0796 C   0  0  0  0  0  0  0  0  0  0  0  0
    2.1156   -1.9436   -1.0051 H   0  0  0  0  0  0  0  0  0  0  0  0
    1.2537   -1.4924   -2.9549 C   0  0  0  0  0  0  0  0  0  0  0  0
   -0.5538   -0.3565    0.9592 C   0  0  0  0  0  0  0  0  0  0  0  0
    0.5561   -0.1619    1.4382 O   0  0  0  0  0  0  0  0  0  0  0  0
   -1.6346    0.3539    1.4510 N   0  0  0  0  0  0  0  0  0  0  0  0
   -2.5440    0.0648    1.1057 H   0  0  0  0  0  0  0  0  0  0  0  0
   -1.5708    1.1228    2.6873 C   0  0  0  0  0  0  0  0  0  0  0  0
   -0.7955    1.8934    2.6207 H   0  0  0  0  0  0  0  0  0  0  0  0
   -2.5292    1.6157    2.8758 H   0  0  0  0  0  0  0  0  0  0  0  0
   -1.3436    0.4668    3.5341 H   0  0  0  0  0  0  0  0  0  0  0  0
  1  2  1  0  0  0  0
  2  3  1  0  0  0  0
  2  4  1  0  0  0  0
  2  5  1  0  0  0  0
  5  6  2  0  0  0  0
  5  7  1  0  0  0  0
  7  8  1  0  0  0  0
  7  9  1  0  0  0  0
  9 10  1  0  0  0  0
  9 11  1  0  0  0  0
  9 29  1  0  0  0  0
 11 12  1  0  0  0  0
 11 13  1  0  0  0  0
 11 14  1  0  0  0  0
 14 15  2  0  0  0  0
 14 28  1  0  0  0  0
 15 16  1  0  0  0  0
 15 17  1  0  0  0  0
 17 18  1  0  0  0  0
 17 19  1  0  0  0  0
 19 20  1  0  0  0  0
 19 28  2  0  0  0  0
 20 21  1  0  0  0  0
 20 22  2  0  0  0  0
 22 23  1  0  0  0  0
 22 24  1  0  0  0  0
 24 25  1  0  0  0  0
 24 26  2  0  0  0  0
 26 27  1  0  0  0  0
 26 28  1  0  0  0  0
 29 30  2  0  0  0  0
 29 31  1  0  0  0  0
 31 32  1  0  0  0  0
 31 33  1  0  0  0  0
 33 34  1  0  0  0  0
 33 35  1  0  0  0  0
 33 36  1  0  0  0  0
M  END
$$$$

  -OEChem-03222214083D

 36 37  0     1  0  0  0  0  0999 V2000
   -3.4183   -4.6411    0.9478 H   0  0  0  0  0  0  0  0  0  0  0  0
   -3.2732   -3.9286    0.1307 C   0  0  0  0  0  0  0  0  0  0  0  0
   -4.2155   -3.4066   -0.0523 H   0  0  0  0  0  0  0  0  0  0  0  0
   -2.9878   -4.4803   -0.7683 H   0  0  0  0  0  0  0  0  0  0  0  0
   -2.1885   -2.9324    0.4944 C   0  0  0  0  0  0  0  0  0  0  0  0
   -1.6445   -3.0009    1.5811 O   0  0  0  0  0  0  0  0  0  0  0  0
   -1.8288   -1.9547   -0.4114 N   0  0  0  0  0  0  0  0  0  0  0  0
   -2.2017   -2.0711   -1.3495 H   0  0  0  0  0  0  0  0  0  0  0  0
   -0.6260   -1.1087   -0.2768 C   0  0  1  0  0  0  0  0  0  0  0  0
    0.2642   -1.7265   -0.2253 H   0  0  0  0  0  0  0  0  0  0  0  0
   -0.5764   -0.1609   -1.4885 C   0  0  0  0  0  0  0  0  0  0  0  0
   -1.5930    0.1417   -1.7606 H   0  0  0  0  0  0  0  0  0  0  0  0
   -0.0497    0.7494   -1.1800 H   0  0  0  0  0  0  0  0  0  0  0  0
    0.1595   -0.6563   -2.7211 C   0  0  0  0  0  0  0  0  0  0  0  0
   -0.0349    0.0058   -3.9117 C   0  0  0  0  0  0  0  0  0  0  0  0
   -0.6710    0.8775   -4.0491 H   0  0  0  0  0  0  0  0  0  0  0  0
    0.7133   -0.6249   -4.8935 N   0  0  0  0  0  0  0  0  0  0  0  0
    0.7776   -0.3355   -5.8674 H   0  0  0  0  0  0  0  0  0  0  0  0
    1.4041   -1.6884   -4.3490 C   0  0  0  0  0  0  0  0  0  0  0  0
    2.2743   -2.5773   -4.9783 C   0  0  0  0  0  0  0  0  0  0  0  0
    2.4815   -2.4850   -6.0387 H   0  0  0  0  0  0  0  0  0  0  0  0
    2.8793   -3.5854   -4.2229 C   0  0  0  0  0  0  0  0  0  0  0  0
    3.5617   -4.2863   -4.6947 H   0  0  0  0  0  0  0  0  0  0  0  0
    2.6075   -3.6829   -2.8537 C   0  0  0  0  0  0  0  0  0  0  0  0
    3.0826   -4.4604   -2.2627 H   0  0  0  0  0  0  0  0  0  0  0  0
    1.7313   -2.7795   -2.2354 C   0  0  0  0  0  0  0  0  0  0  0  0
    1.5729   -2.8984   -1.1727 H   0  0  0  0  0  0  0  0  0  0  0  0
    1.1072   -1.7636   -2.9853 C   0  0  0  0  0  0  0  0  0  0  0  0
   -0.6107   -0.2604    1.0161 C   0  0  0  0  0  0  0  0  0  0  0  0
    0.4547    0.0060    1.5571 O   0  0  0  0  0  0  0  0  0  0  0  0
   -1.7515    0.4166    1.4107 N   0  0  0  0  0  0  0  0  0  0  0  0
   -2.6230    0.0698    1.0237 H   0  0  0  0  0  0  0  0  0  0  0  0
   -1.8015    1.2255    2.6217 C   0  0  0  0  0  0  0  0  0  0  0  0
   -1.0711    2.0396    2.5695 H   0  0  0  0  0  0  0  0  0  0  0  0
   -2.7968    1.6634    2.7428 H   0  0  0  0  0  0  0  0  0  0  0  0
   -1.5819    0.6110    3.5011 H   0  0  0  0  0  0  0  0  0  0  0  0
  1  2  1  0  0  0  0
  2  3  1  0  0  0  0
  2  4  1  0  0  0  0
  2  5  1  0  0  0  0
  5  6  2  0  0  0  0
  5  7  1  0  0  0  0
  7  8  1  0  0  0  0
  7  9  1  0  0  0  0
  9 10  1  0  0  0  0
  9 11  1  0  0  0  0
  9 29  1  0  0  0  0
 11 12  1  0  0  0  0
 11 13  1  0  0  0  0
 11 14  1  0  0  0  0
 14 15  2  0  0  0  0
 14 28  1  0  0  0  0
 15 16  1  0  0  0  0
 15 17  1  0  0  0  0
 17 18  1  0  0  0  0
 17 19  1  0  0  0  0
 19 20  1  0  0  0  0
 19 28  2  0  0  0  0
 20 21  1  0  0  0  0
 20 22  2  0  0  0  0
 22 23  1  0  0  0  0
 22 24  1  0  0  0  0
 24 25  1  0  0  0  0
 24 26  2  0  0  0  0
 26 27  1  0  0  0  0
 26 28  1  0  0  0  0
 29 30  2  0  0  0  0
 29 31  1  0  0  0  0
 31 32  1  0  0  0  0
 31 33  1  0  0  0  0
 33 34  1  0  0  0  0
 33 35  1  0  0  0  0
 33 36  1  0  0  0  0
M  END
$$$$

  -OEChem-03222214083D

 36 37  0     1  0  0  0  0  0999 V2000
   -3.2928   -4.7031    0.9074 H   0  0  0  0  0  0  0  0  0  0  0  0
   -3.1895   -3.9621    0.1097 C   0  0  0  0  0  0  0  0  0  0  0  0
   -4.1450   -3.4482   -0.0199 H   0  0  0  0  0  0  0  0  0  0  0  0
   -2.9313   -4.4785   -0.8183 H   0  0  0  0  0  0  0  0  0  0  0  0
   -2.1068   -2.9614    0.4652 C   0  0  0  0  0  0  0  0  0  0  0  0
   -1.5198   -3.0524    1.5276 O   0  0  0  0  0  0  0  0  0  0  0  0
   -1.7817   -1.9643   -0.4309 N   0  0  0  0  0  0  0  0  0  0  0  0
   -2.1806   -2.0612   -1.3617 H   0  0  0  0  0  0  0  0  0  0  0  0
   -0.5966   -1.0915   -0.3096 C   0  0  1  0  0  0  0  0  0  0  0  0
    0.3224   -1.6841   -0.3073 H   0  0  0  0  0  0  0  0  0  0  0  0
   -0.5961   -0.1420   -1.5138 C   0  0  0  0  0  0  0  0  0  0  0  0
   -1.5877    0.3097   -1.6206 H   0  0  0  0  0  0  0  0  0  0  0  0
    0.1087    0.6718   -1.3092 H   0  0  0  0  0  0  0  0  0  0  0  0
   -0.1853   -0.7659   -2.8333 C   0  0  0  0  0  0  0  0  0  0  0  0
   -0.1507   -0.0012   -3.9756 C   0  0  0  0  0  0  0  0  0  0  0  0
   -0.3680    1.0639   -4.0261 H   0  0  0  0  0  0  0  0  0  0  0  0
    0.1964   -0.8236   -5.0388 N   0  0  0  0  0  0  0  0  0  0  0  0
    0.3164   -0.5222   -6.0040 H   0  0  0  0  0  0  0  0  0  0  0  0
    0.3855   -2.1188   -4.5966 C   0  0  0  0  0  0  0  0  0  0  0  0
    0.7350   -3.2606   -5.3167 C   0  0  0  0  0  0  0  0  0  0  0  0
    0.8990   -3.2044   -6.3871 H   0  0  0  0  0  0  0  0  0  0  0  0
    0.8738   -4.4767   -4.6397 C   0  0  0  0  0  0  0  0  0  0  0  0
    1.1484   -5.3755   -5.1841 H   0  0  0  0  0  0  0  0  0  0  0  0
    0.6663   -4.5304   -3.2560 C   0  0  0  0  0  0  0  0  0  0  0  0
    0.7856   -5.4720   -2.7278 H   0  0  0  0  0  0  0  0  0  0  0  0
    0.3154   -3.3737   -2.5459 C   0  0  0  0  0  0  0  0  0  0  0  0
    0.1761   -3.4576   -1.4759 H   0  0  0  0  0  0  0  0  0  0  0  0
    0.1656   -2.1478   -3.2188 C   0  0  0  0  0  0  0  0  0  0  0  0
   -0.5654   -0.2530    0.9881 C   0  0  0  0  0  0  0  0  0  0  0  0
    0.5085    0.0411    1.4969 O   0  0  0  0  0  0  0  0  0  0  0  0
   -1.7094    0.3979    1.4158 N   0  0  0  0  0  0  0  0  0  0  0  0
   -2.5839    0.0412    1.0446 H   0  0  0  0  0  0  0  0  0  0  0  0
   -1.7449    1.2146    2.6224 C   0  0  0  0  0  0  0  0  0  0  0  0
   -1.0382    2.0473    2.5431 H   0  0  0  0  0  0  0  0  0  0  0  0
   -2.7472    1.6279    2.7702 H   0  0  0  0  0  0  0  0  0  0  0  0
   -1.4837    0.6129    3.4994 H   0  0  0  0  0  0  0  0  0  0  0  0
  1  2  1  0  0  0  0
  2  3  1  0  0  0  0
  2  4  1  0  0  0  0
  2  5  1  0  0  0  0
  5  6  2  0  0  0  0
  5  7  1  0  0  0  0
  7  8  1  0  0  0  0
  7  9  1  0  0  0  0
  9 10  1  0  0  0  0
  9 11  1  0  0  0  0
  9 29  1  0  0  0  0
 11 12  1  0  0  0  0
 11 13  1  0  0  0  0
 11 14  1  0  0  0  0
 14 15  2  0  0  0  0
 14 28  1  0  0  0  0
 15 16  1  0  0  0  0
 15 17  1  0  0  0  0
 17 18  1  0  0  0  0
 17 19  1  0  0  0  0
 19 20  1  0  0  0  0
 19 28  2  0  0  0  0
 20 21  1  0  0  0  0
 20 22  2  0  0  0  0
 22 23  1  0  0  0  0
 22 24  1  0  0  0  0
 24 25  1  0  0  0  0
 24 26  2  0  0  0  0
 26 27  1  0  0  0  0
 26 28  1  0  0  0  0
 29 30  2  0  0  0  0
 29 31  1  0  0  0  0
 31 32  1  0  0  0  0
 31 33  1  0  0  0  0
 33 34  1  0  0  0  0
 33 35  1  0  0  0  0
 33 36  1  0  0  0  0
M  END
$$$$

  -OEChem-03222214083D

 36 37  0     1  0  0  0  0  0999 V2000
   -3.4473   -4.6621    0.9478 H   0  0  0  0  0  0  0  0  0  0  0  0
   -3.3748   -3.8869    0.1798 C   0  0  0  0  0  0  0  0  0  0  0  0
   -4.3157   -3.3324    0.1494 H   0  0  0  0  0  0  0  0  0  0  0  0
   -3.2102   -4.3666   -0.7882 H   0  0  0  0  0  0  0  0  0  0  0  0
   -2.2288   -2.9446    0.4951 C   0  0  0  0  0  0  0  0  0  0  0  0
   -1.6086   -3.0681    1.5348 O   0  0  0  0  0  0  0  0  0  0  0  0
   -1.8882   -1.9597   -0.4092 N   0  0  0  0  0  0  0  0  0  0  0  0
   -2.3359   -2.0185   -1.3209 H   0  0  0  0  0  0  0  0  0  0  0  0
   -0.6657   -1.1348   -0.3224 C   0  0  1  0  0  0  0  0  0  0  0  0
    0.2209   -1.7767   -0.3575 H   0  0  0  0  0  0  0  0  0  0  0  0
   -0.6579   -0.1908   -1.5321 C   0  0  0  0  0  0  0  0  0  0  0  0
   -1.6394    0.2865   -1.6184 H   0  0  0  0  0  0  0  0  0  0  0  0
    0.0706    0.6057   -1.3426 H   0  0  0  0  0  0  0  0  0  0  0  0
   -0.3018   -0.8211   -2.8652 C   0  0  0  0  0  0  0  0  0  0  0  0
    0.0284   -0.0207   -3.9338 C   0  0  0  0  0  0  0  0  0  0  0  0
    0.0461    1.0670   -3.9221 H   0  0  0  0  0  0  0  0  0  0  0  0
    0.3083   -0.8367   -5.0209 N   0  0  0  0  0  0  0  0  0  0  0  0
    0.5899   -0.5139   -5.9446 H   0  0  0  0  0  0  0  0  0  0  0  0
    0.2131   -2.1648   -4.6536 C   0  0  0  0  0  0  0  0  0  0  0  0
    0.4396   -3.3127   -5.4119 C   0  0  0  0  0  0  0  0  0  0  0  0
    0.7102   -3.2333   -6.4590 H   0  0  0  0  0  0  0  0  0  0  0  0
    0.3258   -4.5658   -4.8012 C   0  0  0  0  0  0  0  0  0  0  0  0
    0.5031   -5.4703   -5.3759 H   0  0  0  0  0  0  0  0  0  0  0  0
    0.0042   -4.6492   -3.4414 C   0  0  0  0  0  0  0  0  0  0  0  0
   -0.0577   -5.6206   -2.9600 H   0  0  0  0  0  0  0  0  0  0  0  0
   -0.2207   -3.4854   -2.6932 C   0  0  0  0  0  0  0  0  0  0  0  0
   -0.4278   -3.5940   -1.6375 H   0  0  0  0  0  0  0  0  0  0  0  0
   -0.1412   -2.2220   -3.3048 C   0  0  0  0  0  0  0  0  0  0  0  0
   -0.5545   -0.2968    0.9703 C   0  0  0  0  0  0  0  0  0  0  0  0
    0.5484   -0.0488    1.4401 O   0  0  0  0  0  0  0  0  0  0  0  0
   -1.6538    0.4035    1.4353 N   0  0  0  0  0  0  0  0  0  0  0  0
   -2.5554    0.0863    1.0945 H   0  0  0  0  0  0  0  0  0  0  0  0
   -1.6119    1.2193    2.6422 C   0  0  0  0  0  0  0  0  0  0  0  0
   -0.8486    1.9994    2.5520 H   0  0  0  0  0  0  0  0  0  0  0  0
   -2.5795    1.7031    2.8050 H   0  0  0  0  0  0  0  0  0  0  0  0
   -1.3809    0.5994    3.5148 H   0  0  0  0  0  0  0  0  0  0  0  0
  1  2  1  0  0  0  0
  2  3  1  0  0  0  0
  2  4  1  0  0  0  0
  2  5  1  0  0  0  0
  5  6  2  0  0  0  0
  5  7  1  0  0  0  0
  7  8  1  0  0  0  0
  7  9  1  0  0  0  0
  9 10  1  0  0  0  0
  9 11  1  0  0  0  0
  9 29  1  0  0  0  0
 11 12  1  0  0  0  0
 11 13  1  0  0  0  0
 11 14  1  0  0  0  0
 14 15  2  0  0  0  0
 14 28  1  0  0  0  0
 15 16  1  0  0  0  0
 15 17  1  0  0  0  0
 17 18  1  0  0  0  0
 17 19  1  0  0  0  0
 19 20  1  0  0  0  0
 19 28  2  0  0  0  0
 20 21  1  0  0  0  0
 20 22  2  0  0  0  0
 22 23  1  0  0  0  0
 22 24  1  0  0  0  0
 24 25  1  0  0  0  0
 24 26  2  0  0  0  0
 26 27  1  0  0  0  0
 26 28  1  0  0  0  0
 29 30  2  0  0  0  0
 29 31  1  0  0  0  0
 31 32  1  0  0  0  0
 31 33  1  0  0  0  0
 33 34  1  0  0  0  0
 33 35  1  0  0  0  0
 33 36  1  0  0  0  0
M  END
$$$$

  -OEChem-03222214083D

 36 37  0     1  0  0  0  0  0999 V2000
   -3.5136   -4.5963    1.0972 H   0  0  0  0  0  0  0  0  0  0  0  0
   -3.4566   -3.8258    0.3231 C   0  0  0  0  0  0  0  0  0  0  0  0
   -4.3732   -3.2318    0.3491 H   0  0  0  0  0  0  0  0  0  0  0  0
   -3.3741   -4.3137   -0.6508 H   0  0  0  0  0  0  0  0  0  0  0  0
   -2.2536   -2.9334    0.5642 C   0  0  0  0  0  0  0  0  0  0  0  0
   -1.5914   -3.0681    1.5761 O   0  0  0  0  0  0  0  0  0  0  0  0
   -1.9239   -1.9649   -0.3622 N   0  0  0  0  0  0  0  0  0  0  0  0
   -2.4321   -1.9869   -1.2429 H   0  0  0  0  0  0  0  0  0  0  0  0
   -0.6941   -1.1511   -0.3177 C   0  0  1  0  0  0  0  0  0  0  0  0
    0.1782   -1.8126   -0.3614 H   0  0  0  0  0  0  0  0  0  0  0  0
   -0.6814   -0.2280   -1.5454 C   0  0  0  0  0  0  0  0  0  0  0  0
   -1.6614    0.2524   -1.6284 H   0  0  0  0  0  0  0  0  0  0  0  0
    0.0488    0.5686   -1.3628 H   0  0  0  0  0  0  0  0  0  0  0  0
   -0.3458   -0.8584   -2.8874 C   0  0  0  0  0  0  0  0  0  0  0  0
    0.2724   -0.0851   -3.8438 C   0  0  0  0  0  0  0  0  0  0  0  0
    0.5296    0.9662   -3.7318 H   0  0  0  0  0  0  0  0  0  0  0  0
    0.4793   -0.8618   -4.9735 N   0  0  0  0  0  0  0  0  0  0  0  0
    0.9227   -0.5471   -5.8343 H   0  0  0  0  0  0  0  0  0  0  0  0
    0.0583   -2.1544   -4.7397 C   0  0  0  0  0  0  0  0  0  0  0  0
    0.1168   -3.2612   -5.5853 C   0  0  0  0  0  0  0  0  0  0  0  0
    0.5068   -3.1625   -6.5923 H   0  0  0  0  0  0  0  0  0  0  0  0
   -0.3191   -4.5018   -5.1119 C   0  0  0  0  0  0  0  0  0  0  0  0
   -0.2774   -5.3763   -5.7546 H   0  0  0  0  0  0  0  0  0  0  0  0
   -0.7853   -4.6163   -3.7976 C   0  0  0  0  0  0  0  0  0  0  0  0
   -1.0951   -5.5859   -3.4194 H   0  0  0  0  0  0  0  0  0  0  0  0
   -0.8359   -3.4917   -2.9615 C   0  0  0  0  0  0  0  0  0  0  0  0
   -1.1563   -3.6416   -1.9428 H   0  0  0  0  0  0  0  0  0  0  0  0
   -0.4398   -2.2293   -3.4368 C   0  0  0  0  0  0  0  0  0  0  0  0
   -0.5482   -0.2961    0.9608 C   0  0  0  0  0  0  0  0  0  0  0  0
    0.5659   -0.0531    1.4061 O   0  0  0  0  0  0  0  0  0  0  0  0
   -1.6319    0.4190    1.4402 N   0  0  0  0  0  0  0  0  0  0  0  0
   -2.5422    0.1077    1.1177 H   0  0  0  0  0  0  0  0  0  0  0  0
   -1.5630    1.2291    2.6498 C   0  0  0  0  0  0  0  0  0  0  0  0
   -0.7863    1.9955    2.5566 H   0  0  0  0  0  0  0  0  0  0  0  0
   -2.5199    1.7302    2.8240 H   0  0  0  0  0  0  0  0  0  0  0  0
   -1.3356    0.6004    3.5172 H   0  0  0  0  0  0  0  0  0  0  0  0
  1  2  1  0  0  0  0
  2  3  1  0  0  0  0
  2  4  1  0  0  0  0
  2  5  1  0  0  0  0
  5  6  2  0  0  0  0
  5  7  1  0  0  0  0
  7  8  1  0  0  0  0
  7  9  1  0  0  0  0
  9 10  1  0  0  0  0
  9 11  1  0  0  0  0
  9 29  1  0  0  0  0
 11 12  1  0  0  0  0
 11 13  1  0  0  0  0
 11 14  1  0  0  0  0
 14 15  2  0  0  0  0
 14 28  1  0  0  0  0
 15 16  1  0  0  0  0
 15 17  1  0  0  0  0
 17 18  1  0  0  0  0
 17 19  1  0  0  0  0
 19 20  1  0  0  0  0
 19 28  2  0  0  0  0
 20 21  1  0  0  0  0
 20 22  2  0  0  0  0
 22 23  1  0  0  0  0
 22 24  1  0  0  0  0
 24 25  1  0  0  0  0
 24 26  2  0  0  0  0
 26 27  1  0  0  0  0
 26 28  1  0  0  0  0
 29 30  2  0  0  0  0
 29 31  1  0  0  0  0
 31 32  1  0  0  0  0
 31 33  1  0  0  0  0
 33 34  1  0  0  0  0
 33 35  1  0  0  0  0
 33 36  1  0  0  0  0
M  END
$$$$

  -OEChem-03222214083D

 36 37  0     1  0  0  0  0  0999 V2000
   -3.4211   -4.5791    1.3034 H   0  0  0  0  0  0  0  0  0  0  0  0
   -3.3186   -3.9198    0.4366 C   0  0  0  0  0  0  0  0  0  0  0  0
   -4.2363   -3.3366    0.3278 H   0  0  0  0  0  0  0  0  0  0  0  0
   -3.1760   -4.5346   -0.4552 H   0  0  0  0  0  0  0  0  0  0  0  0
   -2.1316   -2.9938    0.6251 C   0  0  0  0  0  0  0  0  0  0  0  0
   -1.4296   -3.1013    1.6133 O   0  0  0  0  0  0  0  0  0  0  0  0
   -1.8663   -2.0201   -0.3165 N   0  0  0  0  0  0  0  0  0  0  0  0
   -2.4473   -2.0093   -1.1484 H   0  0  0  0  0  0  0  0  0  0  0  0
   -0.6798   -1.1504   -0.3098 C   0  0  1  0  0  0  0  0  0  0  0  0
    0.2146   -1.7828   -0.3459 H   0  0  0  0  0  0  0  0  0  0  0  0
   -0.6733   -0.2376   -1.5496 C   0  0  0  0  0  0  0  0  0  0  0  0
   -1.6654    0.2112   -1.6588 H   0  0  0  0  0  0  0  0  0  0  0  0
    0.0283    0.5841   -1.3658 H   0  0  0  0  0  0  0  0  0  0  0  0
   -0.2973   -0.8923   -2.8694 C   0  0  0  0  0  0  0  0  0  0  0  0
    0.5886   -0.2450   -3.7020 C   0  0  0  0  0  0  0  0  0  0  0  0
    1.0814    0.7005   -3.4835 H   0  0  0  0  0  0  0  0  0  0  0  0
    0.7463   -1.0009   -4.8532 N   0  0  0  0  0  0  0  0  0  0  0  0
    1.3574   -0.7693   -5.6339 H   0  0  0  0  0  0  0  0  0  0  0  0
   -0.0463   -2.1278   -4.7884 C   0  0  0  0  0  0  0  0  0  0  0  0
   -0.1967   -3.1442   -5.7303 C   0  0  0  0  0  0  0  0  0  0  0  0
    0.3597   -3.1159   -6.6606 H   0  0  0  0  0  0  0  0  0  0  0  0
   -1.0734   -4.1978   -5.4586 C   0  0  0  0  0  0  0  0  0  0  0  0
   -1.2018   -5.0002   -6.1794 H   0  0  0  0  0  0  0  0  0  0  0  0
   -1.7857   -4.2127   -4.2543 C   0  0  0  0  0  0  0  0  0  0  0  0
   -2.4673   -5.0314   -4.0440 H   0  0  0  0  0  0  0  0  0  0  0  0
   -1.6220   -3.1804   -3.3194 C   0  0  0  0  0  0  0  0  0  0  0  0
   -2.1970   -3.2401   -2.4111 H   0  0  0  0  0  0  0  0  0  0  0  0
   -0.7364   -2.1183   -3.5733 C   0  0  0  0  0  0  0  0  0  0  0  0
   -0.5501   -0.2757    0.9575 C   0  0  0  0  0  0  0  0  0  0  0  0
    0.5598    0.0435    1.3643 O   0  0  0  0  0  0  0  0  0  0  0  0
   -1.6584    0.3898    1.4521 N   0  0  0  0  0  0  0  0  0  0  0  0
   -2.5604    0.0301    1.1582 H   0  0  0  0  0  0  0  0  0  0  0  0
   -1.5991    1.2588    2.6206 C   0  0  0  0  0  0  0  0  0  0  0  0
   -0.9081    2.0902    2.4455 H   0  0  0  0  0  0  0  0  0  0  0  0
   -2.5886    1.6737    2.8338 H   0  0  0  0  0  0  0  0  0  0  0  0
   -1.2605    0.6973    3.4977 H   0  0  0  0  0  0  0  0  0  0  0  0
  1  2  1  0  0  0  0
  2  3  1  0  0  0  0
  2  4  1  0  0  0  0
  2  5  1  0  0  0  0
  5  6  2  0  0  0  0
  5  7  1  0  0  0  0
  7  8  1  0  0  0  0
  7  9  1  0  0  0  0
  9 10  1  0  0  0  0
  9 11  1  0  0  0  0
  9 29  1  0  0  0  0
 11 12  1  0  0  0  0
 11 13  1  0  0  0  0
 11 14  1  0  0  0  0
 14 15  2  0  0  0  0
 14 28  1  0  0  0  0
 15 16  1  0  0  0  0
 15 17  1  0  0  0  0
 17 18  1  0  0  0  0
 17 19  1  0  0  0  0
 19 20  1  0  0  0  0
 19 28  2  0  0  0  0
 20 21  1  0  0  0  0
 20 22  2  0  0  0  0
 22 23  1  0  0  0  0
 22 24  1  0  0  0  0
 24 25  1  0  0  0  0
 24 26  2  0  0  0  0
 26 27  1  0  0  0  0
 26 28  1  0  0  0  0
 29 30  2  0  0  0  0
 29 31  1  0  0  0  0
 31 32  1  0  0  0  0
 31 33  1  0  0  0  0
 33 34  1  0  0  0  0
 33 35  1  0  0  0  0
 33 36  1  0  0  0  0
M  END
$$$$

  -OEChem-03222214083D

 36 37  0     1  0  0  0  0  0999 V2000
   -3.0560   -4.8388    1.0856 H   0  0  0  0  0  0  0  0  0  0  0  0
   -3.0226   -4.1251    0.2572 C   0  0  0  0  0  0  0  0  0  0  0  0
   -4.0235   -3.7133    0.1062 H   0  0  0  0  0  0  0  0  0  0  0  0
   -2.7116   -4.6530   -0.6479 H   0  0  0  0  0  0  0  0  0  0  0  0
   -2.0439   -3.0087    0.5698 C   0  0  0  0  0  0  0  0  0  0  0  0
   -1.4867   -2.9767    1.6516 O   0  0  0  0  0  0  0  0  0  0  0  0
   -1.8087   -2.0316   -0.3762 N   0  0  0  0  0  0  0  0  0  0  0  0
   -2.1462   -2.2619   -1.3031 H   0  0  0  0  0  0  0  0  0  0  0  0
   -0.6515   -1.1224   -0.3398 C   0  0  1  0  0  0  0  0  0  0  0  0
    0.2651   -1.7223   -0.3628 H   0  0  0  0  0  0  0  0  0  0  0  0
   -0.6571   -0.1802   -1.5611 C   0  0  0  0  0  0  0  0  0  0  0  0
   -1.6538    0.2535   -1.6915 H   0  0  0  0  0  0  0  0  0  0  0  0
    0.0365    0.6487   -1.3793 H   0  0  0  0  0  0  0  0  0  0  0  0
   -0.2404   -0.8842   -2.8317 C   0  0  0  0  0  0  0  0  0  0  0  0
    0.8562   -0.5069   -3.5704 C   0  0  0  0  0  0  0  0  0  0  0  0
    1.5711    0.2638   -3.2884 H   0  0  0  0  0  0  0  0  0  0  0  0
    0.9104   -1.3123   -4.7017 N   0  0  0  0  0  0  0  0  0  0  0  0
    1.6343   -1.2745   -5.4170 H   0  0  0  0  0  0  0  0  0  0  0  0
   -0.1994   -2.1345   -4.7551 C   0  0  0  0  0  0  0  0  0  0  0  0
   -0.5930   -3.0549   -5.7257 C   0  0  0  0  0  0  0  0  0  0  0  0
    0.0413   -3.2509   -6.5833 H   0  0  0  0  0  0  0  0  0  0  0  0
   -1.8245   -3.7053   -5.5878 C   0  0  0  0  0  0  0  0  0  0  0  0
   -2.1469   -4.4221   -6.3374 H   0  0  0  0  0  0  0  0  0  0  0  0
   -2.6552   -3.4035   -4.5007 C   0  0  0  0  0  0  0  0  0  0  0  0
   -3.6277   -3.8800   -4.4191 H   0  0  0  0  0  0  0  0  0  0  0  0
   -2.2456   -2.4747   -3.5333 C   0  0  0  0  0  0  0  0  0  0  0  0
   -2.9347   -2.2138   -2.7411 H   0  0  0  0  0  0  0  0  0  0  0  0
   -0.9829   -1.8684   -3.6338 C   0  0  0  0  0  0  0  0  0  0  0  0
   -0.5753   -0.2444    0.9295 C   0  0  0  0  0  0  0  0  0  0  0  0
    0.5175    0.1063    1.3574 O   0  0  0  0  0  0  0  0  0  0  0  0
   -1.7141    0.3851    1.3998 N   0  0  0  0  0  0  0  0  0  0  0  0
   -2.5937   -0.0252    1.1022 H   0  0  0  0  0  0  0  0  0  0  0  0
   -1.7080    1.2312    2.5860 C   0  0  0  0  0  0  0  0  0  0  0  0
   -1.0509    2.0946    2.4378 H   0  0  0  0  0  0  0  0  0  0  0  0
   -2.7175    1.5986    2.7928 H   0  0  0  0  0  0  0  0  0  0  0  0
   -1.3581    0.6665    3.4567 H   0  0  0  0  0  0  0  0  0  0  0  0
  1  2  1  0  0  0  0
  2  3  1  0  0  0  0
  2  4  1  0  0  0  0
  2  5  1  0  0  0  0
  5  6  2  0  0  0  0
  5  7  1  0  0  0  0
  7  8  1  0  0  0  0
  7  9  1  0  0  0  0
  9 10  1  0  0  0  0
  9 11  1  0  0  0  0
  9 29  1  0  0  0  0
 11 12  1  0  0  0  0
 11 13  1  0  0  0  0
 11 14  1  0  0  0  0
 14 15  2  0  0  0  0
 14 28  1  0  0  0  0
 15 16  1  0  0  0  0
 15 17  1  0  0  0  0
 17 18  1  0  0  0  0
 17 19  1  0  0  0  0
 19 20  1  0  0  0  0
 19 28  2  0  0  0  0
 20 21  1  0  0  0  0
 20 22  2  0  0  0  0
 22 23  1  0  0  0  0
 22 24  1  0  0  0  0
 24 25  1  0  0  0  0
 24 26  2  0  0  0  0
 26 27  1  0  0  0  0
 26 28  1  0  0  0  0
 29 30  2  0  0  0  0
 29 31  1  0  0  0  0
 31 32  1  0  0  0  0
 31 33  1  0  0  0  0
 33 34  1  0  0  0  0
 33 35  1  0  0  0  0
 33 36  1  0  0  0  0
M  END
$$$$

  -OEChem-03222214083D

 36 37  0     1  0  0  0  0  0999 V2000
   -3.0528   -4.8795    0.7919 H   0  0  0  0  0  0  0  0  0  0  0  0
   -3.0579   -4.0956    0.0292 C   0  0  0  0  0  0  0  0  0  0  0  0
   -4.0694   -3.6913   -0.0550 H   0  0  0  0  0  0  0  0  0  0  0  0
   -2.7674   -4.5366   -0.9279 H   0  0  0  0  0  0  0  0  0  0  0  0
   -2.0883   -2.9928    0.4093 C   0  0  0  0  0  0  0  0  0  0  0  0
   -1.5445   -3.0117    1.4983 O   0  0  0  0  0  0  0  0  0  0  0  0
   -1.8369   -1.9754   -0.4880 N   0  0  0  0  0  0  0  0  0  0  0  0
   -2.1655   -2.1636   -1.4305 H   0  0  0  0  0  0  0  0  0  0  0  0
   -0.6644   -1.0866   -0.4011 C   0  0  1  0  0  0  0  0  0  0  0  0
    0.2451   -1.6950   -0.4578 H   0  0  0  0  0  0  0  0  0  0  0  0
   -0.6858   -0.0992   -1.5817 C   0  0  0  0  0  0  0  0  0  0  0  0
   -1.6764    0.3539   -1.6896 H   0  0  0  0  0  0  0  0  0  0  0  0
    0.0253    0.7115   -1.3885 H   0  0  0  0  0  0  0  0  0  0  0  0
   -0.2858   -0.7947   -2.8566 C   0  0  0  0  0  0  0  0  0  0  0  0
    0.9307   -0.6650   -3.4806 C   0  0  0  0  0  0  0  0  0  0  0  0
    1.7698   -0.0774   -3.1128 H   0  0  0  0  0  0  0  0  0  0  0  0
    0.8979   -1.4465   -4.6322 N   0  0  0  0  0  0  0  0  0  0  0  0
    1.6697   -1.5603   -5.2866 H   0  0  0  0  0  0  0  0  0  0  0  0
   -0.3504   -2.0254   -4.7878 C   0  0  0  0  0  0  0  0  0  0  0  0
   -0.8640   -2.8499   -5.7884 C   0  0  0  0  0  0  0  0  0  0  0  0
   -0.2344   -3.1657   -6.6132 H   0  0  0  0  0  0  0  0  0  0  0  0
   -2.2041   -3.2533   -5.7201 C   0  0  0  0  0  0  0  0  0  0  0  0
   -2.6166   -3.8938   -6.4942 H   0  0  0  0  0  0  0  0  0  0  0  0
   -3.0177   -2.8124   -4.6662 C   0  0  0  0  0  0  0  0  0  0  0  0
   -4.0629   -3.1059   -4.6339 H   0  0  0  0  0  0  0  0  0  0  0  0
   -2.4897   -1.9833   -3.6664 C   0  0  0  0  0  0  0  0  0  0  0  0
   -3.1369   -1.6138   -2.8790 H   0  0  0  0  0  0  0  0  0  0  0  0
   -1.1375   -1.6167   -3.7159 C   0  0  0  0  0  0  0  0  0  0  0  0
   -0.5686   -0.2676    0.9051 C   0  0  0  0  0  0  0  0  0  0  0  0
    0.5329    0.0374    1.3459 O   0  0  0  0  0  0  0  0  0  0  0  0
   -1.6920    0.3643    1.4076 N   0  0  0  0  0  0  0  0  0  0  0  0
   -2.5817   -0.0076    1.0911 H   0  0  0  0  0  0  0  0  0  0  0  0
   -1.6642    1.1571    2.6296 C   0  0  0  0  0  0  0  0  0  0  0  0
   -0.9681    1.9962    2.5270 H   0  0  0  0  0  0  0  0  0  0  0  0
   -2.6590    1.5597    2.8413 H   0  0  0  0  0  0  0  0  0  0  0  0
   -1.3505    0.5401    3.4782 H   0  0  0  0  0  0  0  0  0  0  0  0
  1  2  1  0  0  0  0
  2  3  1  0  0  0  0
  2  4  1  0  0  0  0
  2  5  1  0  0  0  0
  5  6  2  0  0  0  0
  5  7  1  0  0  0  0
  7  8  1  0  0  0  0
  7  9  1  0  0  0  0
  9 10  1  0  0  0  0
  9 11  1  0  0  0  0
  9 29  1  0  0  0  0
 11 12  1  0  0  0  0
 11 13  1  0  0  0  0
 11 14  1  0  0  0  0
 14 15  2  0  0  0  0
 14 28  1  0  0  0  0
 15 16  1  0  0  0  0
 15 17  1  0  0  0  0
 17 18  1  0  0  0  0
 17 19  1  0  0  0  0
 19 20  1  0  0  0  0
 19 28  2  0  0  0  0
 20 21  1  0  0  0  0
 20 22  2  0  0  0  0
 22 23  1  0  0  0  0
 22 24  1  0  0  0  0
 24 25  1  0  0  0  0
 24 26  2  0  0  0  0
 26 27  1  0  0  0  0
 26 28  1  0  0  0  0
 29 30  2  0  0  0  0
 29 31  1  0  0  0  0
 31 32  1  0  0  0  0
 31 33  1  0  0  0  0
 33 34  1  0  0  0  0
 33 35  1  0  0  0  0
 33 36  1  0  0  0  0
M  END
$$$$

  -OEChem-03222214083D

 36 37  0     1  0  0  0  0  0999 V2000
   -3.1727   -4.8220    0.6216 H   0  0  0  0  0  0  0  0  0  0  0  0
   -3.1483   -4.0139   -0.1151 C   0  0  0  0  0  0  0  0  0  0  0  0
   -4.1421   -3.5644   -0.1794 H   0  0  0  0  0  0  0  0  0  0  0  0
   -2.8817   -4.4349   -1.0877 H   0  0  0  0  0  0  0  0  0  0  0  0
   -2.1304   -2.9661    0.2933 C   0  0  0  0  0  0  0  0  0  0  0  0
   -1.5752   -3.0484    1.3737 O   0  0  0  0  0  0  0  0  0  0  0  0
   -1.8515   -1.9220   -0.5642 N   0  0  0  0  0  0  0  0  0  0  0  0
   -2.2029   -2.0474   -1.5104 H   0  0  0  0  0  0  0  0  0  0  0  0
   -0.6618   -1.0592   -0.4393 C   0  0  1  0  0  0  0  0  0  0  0  0
    0.2383   -1.6790   -0.5171 H   0  0  0  0  0  0  0  0  0  0  0  0
   -0.6848   -0.0415   -1.5905 C   0  0  0  0  0  0  0  0  0  0  0  0
   -1.6674    0.4326   -1.6790 H   0  0  0  0  0  0  0  0  0  0  0  0
    0.0434    0.7513   -1.3861 H   0  0  0  0  0  0  0  0  0  0  0  0
   -0.2995   -0.7196   -2.8773 C   0  0  0  0  0  0  0  0  0  0  0  0
    0.9730   -0.8445   -3.3787 C   0  0  0  0  0  0  0  0  0  0  0  0
    1.8787   -0.4652   -2.9087 H   0  0  0  0  0  0  0  0  0  0  0  0
    0.8840   -1.5622   -4.5694 N   0  0  0  0  0  0  0  0  0  0  0  0
    1.6721   -1.8138   -5.1633 H   0  0  0  0  0  0  0  0  0  0  0  0
   -0.4360   -1.8812   -4.8455 C   0  0  0  0  0  0  0  0  0  0  0  0
   -1.0205   -2.5725   -5.9064 C   0  0  0  0  0  0  0  0  0  0  0  0
   -0.4026   -2.9774   -6.7004 H   0  0  0  0  0  0  0  0  0  0  0  0
   -2.4130   -2.7312   -5.9342 C   0  0  0  0  0  0  0  0  0  0  0  0
   -2.8803   -3.2649   -6.7568 H   0  0  0  0  0  0  0  0  0  0  0  0
   -3.2037   -2.1911   -4.9082 C   0  0  0  0  0  0  0  0  0  0  0  0
   -4.2833   -2.3037   -4.9438 H   0  0  0  0  0  0  0  0  0  0  0  0
   -2.6056   -1.4973   -3.8464 C   0  0  0  0  0  0  0  0  0  0  0  0
   -3.2198   -1.0600   -3.0664 H   0  0  0  0  0  0  0  0  0  0  0  0
   -1.2126   -1.3589   -3.8174 C   0  0  0  0  0  0  0  0  0  0  0  0
   -0.5555   -0.2880    0.8945 C   0  0  0  0  0  0  0  0  0  0  0  0
    0.5503   -0.0180    1.3468 O   0  0  0  0  0  0  0  0  0  0  0  0
   -1.6683    0.3488    1.4145 N   0  0  0  0  0  0  0  0  0  0  0  0
   -2.5641    0.0026    1.0859 H   0  0  0  0  0  0  0  0  0  0  0  0
   -1.6295    1.1076    2.6579 C   0  0  0  0  0  0  0  0  0  0  0  0
   -0.9131    1.9322    2.5824 H   0  0  0  0  0  0  0  0  0  0  0  0
   -2.6156    1.5288    2.8746 H   0  0  0  0  0  0  0  0  0  0  0  0
   -1.3365    0.4610    3.4915 H   0  0  0  0  0  0  0  0  0  0  0  0
  1  2  1  0  0  0  0
  2  3  1  0  0  0  0
  2  4  1  0  0  0  0
  2  5  1  0  0  0  0
  5  6  2  0  0  0  0
  5  7  1  0  0  0  0
  7  8  1  0  0  0  0
  7  9  1  0  0  0  0
  9 10  1  0  0  0  0
  9 11  1  0  0  0  0
  9 29  1  0  0  0  0
 11 12  1  0  0  0  0
 11 13  1  0  0  0  0
 11 14  1  0  0  0  0
 14 15  2  0  0  0  0
 14 28  1  0  0  0  0
 15 16  1  0  0  0  0
 15 17  1  0  0  0  0
 17 18  1  0  0  0  0
 17 19  1  0  0  0  0
 19 20  1  0  0  0  0
 19 28  2  0  0  0  0
 20 21  1  0  0  0  0
 20 22  2  0  0  0  0
 22 23  1  0  0  0  0
 22 24  1  0  0  0  0
 24 25  1  0  0  0  0
 24 26  2  0  0  0  0
 26 27  1  0  0  0  0
 26 28  1  0  0  0  0
 29 30  2  0  0  0  0
 29 31  1  0  0  0  0
 31 32  1  0  0  0  0
 31 33  1  0  0  0  0
 33 34  1  0  0  0  0
 33 35  1  0  0  0  0
 33 36  1  0  0  0  0
M  END
$$$$

  -OEChem-03222214083D

 36 37  0     1  0  0  0  0  0999 V2000
   -3.2982   -4.7439    0.5761 H   0  0  0  0  0  0  0  0  0  0  0  0
   -3.2158   -3.9528   -0.1746 C   0  0  0  0  0  0  0  0  0  0  0  0
   -4.1844   -3.4567   -0.2712 H   0  0  0  0  0  0  0  0  0  0  0  0
   -2.9477   -4.4050   -1.1326 H   0  0  0  0  0  0  0  0  0  0  0  0
   -2.1568   -2.9489    0.2399 C   0  0  0  0  0  0  0  0  0  0  0  0
   -1.5861   -3.0758    1.3079 O   0  0  0  0  0  0  0  0  0  0  0  0
   -1.8545   -1.8939   -0.5961 N   0  0  0  0  0  0  0  0  0  0  0  0
   -2.2328   -1.9684   -1.5377 H   0  0  0  0  0  0  0  0  0  0  0  0
   -0.6528   -1.0504   -0.4494 C   0  0  1  0  0  0  0  0  0  0  0  0
    0.2397   -1.6796   -0.5354 H   0  0  0  0  0  0  0  0  0  0  0  0
   -0.6738   -0.0167   -1.5850 C   0  0  0  0  0  0  0  0  0  0  0  0
   -1.6525    0.4675   -1.6574 H   0  0  0  0  0  0  0  0  0  0  0  0
    0.0617    0.7674   -1.3743 H   0  0  0  0  0  0  0  0  0  0  0  0
   -0.2986   -0.6750   -2.8851 C   0  0  0  0  0  0  0  0  0  0  0  0
    0.9648   -1.0563   -3.2668 C   0  0  0  0  0  0  0  0  0  0  0  0
    1.8740   -0.9013   -2.6884 H   0  0  0  0  0  0  0  0  0  0  0  0
    0.8556   -1.6859   -4.5045 N   0  0  0  0  0  0  0  0  0  0  0  0
    1.6328   -2.0726   -5.0369 H   0  0  0  0  0  0  0  0  0  0  0  0
   -0.4669   -1.7184   -4.9165 C   0  0  0  0  0  0  0  0  0  0  0  0
   -1.0709   -2.2418   -6.0593 C   0  0  0  0  0  0  0  0  0  0  0  0
   -0.4706   -2.7292   -6.8197 H   0  0  0  0  0  0  0  0  0  0  0  0
   -2.4600   -2.1278   -6.2109 C   0  0  0  0  0  0  0  0  0  0  0  0
   -2.9424   -2.5296   -7.0973 H   0  0  0  0  0  0  0  0  0  0  0  0
   -3.2263   -1.4894   -5.2234 C   0  0  0  0  0  0  0  0  0  0  0  0
   -4.3008   -1.3960   -5.3502 H   0  0  0  0  0  0  0  0  0  0  0  0
   -2.6082   -0.9650   -4.0791 C   0  0  0  0  0  0  0  0  0  0  0  0
   -3.1973   -0.4593   -3.3214 H   0  0  0  0  0  0  0  0  0  0  0  0
   -1.2222   -1.0904   -3.9325 C   0  0  0  0  0  0  0  0  0  0  0  0
   -0.5409   -0.3024    0.8964 C   0  0  0  0  0  0  0  0  0  0  0  0
    0.5667   -0.0613    1.3601 O   0  0  0  0  0  0  0  0  0  0  0  0
   -1.6462    0.3432    1.4213 N   0  0  0  0  0  0  0  0  0  0  0  0
   -2.5467    0.0248    1.0777 H   0  0  0  0  0  0  0  0  0  0  0  0
   -1.6005    1.0925    2.6701 C   0  0  0  0  0  0  0  0  0  0  0  0
   -0.8821    1.9158    2.5969 H   0  0  0  0  0  0  0  0  0  0  0  0
   -2.5848    1.5144    2.8939 H   0  0  0  0  0  0  0  0  0  0  0  0
   -1.3052    0.4389    3.4976 H   0  0  0  0  0  0  0  0  0  0  0  0
  1  2  1  0  0  0  0
  2  3  1  0  0  0  0
  2  4  1  0  0  0  0
  2  5  1  0  0  0  0
  5  6  2  0  0  0  0
  5  7  1  0  0  0  0
  7  8  1  0  0  0  0
  7  9  1  0  0  0  0
  9 10  1  0  0  0  0
  9 11  1  0  0  0  0
  9 29  1  0  0  0  0
 11 12  1  0  0  0  0
 11 13  1  0  0  0  0
 11 14  1  0  0  0  0
 14 15  2  0  0  0  0
 14 28  1  0  0  0  0
 15 16  1  0  0  0  0
 15 17  1  0  0  0  0
 17 18  1  0  0  0  0
 17 19  1  0  0  0  0
 19 20  1  0  0  0  0
 19 28  2  0  0  0  0
 20 21  1  0  0  0  0
 20 22  2  0  0  0  0
 22 23  1  0  0  0  0
 22 24  1  0  0  0  0
 24 25  1  0  0  0  0
 24 26  2  0  0  0  0
 26 27  1  0  0  0  0
 26 28  1  0  0  0  0
 29 30  2  0  0  0  0
 29 31  1  0  0  0  0
 31 32  1  0  0  0  0
 31 33  1  0  0  0  0
 33 34  1  0  0  0  0
 33 35  1  0  0  0  0
 33 36  1  0  0  0  0
M  END
$$$$

  -OEChem-03222214083D

 36 37  0     1  0  0  0  0  0999 V2000
   -3.3092   -4.7329    0.6457 H   0  0  0  0  0  0  0  0  0  0  0  0
   -3.2426   -3.9373   -0.1017 C   0  0  0  0  0  0  0  0  0  0  0  0
   -4.2037   -3.4203   -0.1517 H   0  0  0  0  0  0  0  0  0  0  0  0
   -3.0260   -4.3868   -1.0741 H   0  0  0  0  0  0  0  0  0  0  0  0
   -2.1458   -2.9590    0.2748 C   0  0  0  0  0  0  0  0  0  0  0  0
   -1.5369   -3.1009    1.3197 O   0  0  0  0  0  0  0  0  0  0  0  0
   -1.8489   -1.9097   -0.5702 N   0  0  0  0  0  0  0  0  0  0  0  0
   -2.2675   -1.9603   -1.4960 H   0  0  0  0  0  0  0  0  0  0  0  0
   -0.6500   -1.0602   -0.4375 C   0  0  1  0  0  0  0  0  0  0  0  0
    0.2437   -1.6880   -0.5146 H   0  0  0  0  0  0  0  0  0  0  0  0
   -0.6789   -0.0394   -1.5857 C   0  0  0  0  0  0  0  0  0  0  0  0
   -1.6644    0.4314   -1.6516 H   0  0  0  0  0  0  0  0  0  0  0  0
    0.0477    0.7559   -1.3865 H   0  0  0  0  0  0  0  0  0  0  0  0
   -0.3070   -0.6952   -2.8908 C   0  0  0  0  0  0  0  0  0  0  0  0
    0.8810   -1.3270   -3.1739 C   0  0  0  0  0  0  0  0  0  0  0  0
    1.7310   -1.4076   -2.4986 H   0  0  0  0  0  0  0  0  0  0  0  0
    0.7868   -1.8440   -4.4633 N   0  0  0  0  0  0  0  0  0  0  0  0
    1.5241   -2.3536   -4.9469 H   0  0  0  0  0  0  0  0  0  0  0  0
   -0.4518   -1.5529   -5.0109 C   0  0  0  0  0  0  0  0  0  0  0  0
   -1.0093   -1.8560   -6.2528 C   0  0  0  0  0  0  0  0  0  0  0  0
   -0.4405   -2.4190   -6.9847 H   0  0  0  0  0  0  0  0  0  0  0  0
   -2.3102   -1.4210   -6.5418 C   0  0  0  0  0  0  0  0  0  0  0  0
   -2.7551   -1.6479   -7.5063 H   0  0  0  0  0  0  0  0  0  0  0  0
   -3.0351   -0.6882   -5.5895 C   0  0  0  0  0  0  0  0  0  0  0  0
   -4.0398   -0.3466   -5.8207 H   0  0  0  0  0  0  0  0  0  0  0  0
   -2.4645   -0.3901   -4.3438 C   0  0  0  0  0  0  0  0  0  0  0  0
   -3.0223    0.1842   -3.6118 H   0  0  0  0  0  0  0  0  0  0  0  0
   -1.1667   -0.8315   -4.0608 C   0  0  0  0  0  0  0  0  0  0  0  0
   -0.5366   -0.3002    0.9014 C   0  0  0  0  0  0  0  0  0  0  0  0
    0.5713   -0.0565    1.3627 O   0  0  0  0  0  0  0  0  0  0  0  0
   -1.6421    0.3451    1.4259 N   0  0  0  0  0  0  0  0  0  0  0  0
   -2.5431    0.0305    1.0805 H   0  0  0  0  0  0  0  0  0  0  0  0
   -1.5956    1.1001    2.6713 C   0  0  0  0  0  0  0  0  0  0  0  0
   -0.8687    1.9160    2.5982 H   0  0  0  0  0  0  0  0  0  0  0  0
   -2.5770    1.5326    2.8881 H   0  0  0  0  0  0  0  0  0  0  0  0
   -1.3111    0.4475    3.5033 H   0  0  0  0  0  0  0  0  0  0  0  0
  1  2  1  0  0  0  0
  2  3  1  0  0  0  0
  2  4  1  0  0  0  0
  2  5  1  0  0  0  0
  5  6  2  0  0  0  0
  5  7  1  0  0  0  0
  7  8  1  0  0  0  0
  7  9  1  0  0  0  0
  9 10  1  0  0  0  0
  9 11  1  0  0  0  0
  9 29  1  0  0  0  0
 11 12  1  0  0  0  0
 11 13  1  0  0  0  0
 11 14  1  0  0  0  0
 14 15  2  0  0  0  0
 14 28  1  0  0  0  0
 15 16  1  0  0  0  0
 15 17  1  0  0  0  0
 17 18  1  0  0  0  0
 17 19  1  0  0  0  0
 19 20  1  0  0  0  0
 19 28  2  0  0  0  0
 20 21  1  0  0  0  0
 20 22  2  0  0  0  0
 22 23  1  0  0  0  0
 22 24  1  0  0  0  0
 24 25  1  0  0  0  0
 24 26  2  0  0  0  0
 26 27  1  0  0  0  0
 26 28  1  0  0  0  0
 29 30  2  0  0  0  0
 29 31  1  0  0  0  0
 31 32  1  0  0  0  0
 31 33  1  0  0  0  0
 33 34  1  0  0  0  0
 33 35  1  0  0  0  0
 33 36  1  0  0  0  0
M  END
$$$$

  -OEChem-03222214083D

 36 37  0     1  0  0  0  0  0999 V2000
   -3.2952   -4.7352    0.7285 H   0  0  0  0  0  0  0  0  0  0  0  0
   -3.2544   -3.9330   -0.0139 C   0  0  0  0  0  0  0  0  0  0  0  0
   -4.2121   -3.4067   -0.0180 H   0  0  0  0  0  0  0  0  0  0  0  0
   -3.0839   -4.3745   -0.9986 H   0  0  0  0  0  0  0  0  0  0  0  0
   -2.1347   -2.9672    0.3234 C   0  0  0  0  0  0  0  0  0  0  0  0
   -1.5016   -3.1086    1.3537 O   0  0  0  0  0  0  0  0  0  0  0  0
   -1.8410   -1.9322   -0.5404 N   0  0  0  0  0  0  0  0  0  0  0  0
   -2.2924   -1.9715   -1.4512 H   0  0  0  0  0  0  0  0  0  0  0  0
   -0.6456   -1.0749   -0.4266 C   0  0  1  0  0  0  0  0  0  0  0  0
    0.2509   -1.6996   -0.4826 H   0  0  0  0  0  0  0  0  0  0  0  0
   -0.6763   -0.0766   -1.5963 C   0  0  0  0  0  0  0  0  0  0  0  0
   -1.6698    0.3767   -1.6645 H   0  0  0  0  0  0  0  0  0  0  0  0
    0.0384    0.7325   -1.4098 H   0  0  0  0  0  0  0  0  0  0  0  0
   -0.3044   -0.7316   -2.9055 C   0  0  0  0  0  0  0  0  0  0  0  0
    0.7404   -1.5983   -3.1332 C   0  0  0  0  0  0  0  0  0  0  0  0
    1.4776   -1.9127   -2.3967 H   0  0  0  0  0  0  0  0  0  0  0  0
    0.6805   -1.9947   -4.4665 N   0  0  0  0  0  0  0  0  0  0  0  0
    1.3414   -2.6203   -4.9239 H   0  0  0  0  0  0  0  0  0  0  0  0
   -0.3906   -1.3895   -5.1021 C   0  0  0  0  0  0  0  0  0  0  0  0
   -0.8537   -1.4697   -6.4154 C   0  0  0  0  0  0  0  0  0  0  0  0
   -0.3442   -2.0984   -7.1374 H   0  0  0  0  0  0  0  0  0  0  0  0
   -1.9814   -0.7255   -6.7885 C   0  0  0  0  0  0  0  0  0  0  0  0
   -2.3511   -0.7761   -7.8085 H   0  0  0  0  0  0  0  0  0  0  0  0
   -2.6296    0.0885   -5.8472 C   0  0  0  0  0  0  0  0  0  0  0  0
   -3.4991    0.6689   -6.1415 H   0  0  0  0  0  0  0  0  0  0  0  0
   -2.1553    0.1605   -4.5294 C   0  0  0  0  0  0  0  0  0  0  0  0
   -2.6520    0.7974   -3.8051 H   0  0  0  0  0  0  0  0  0  0  0  0
   -1.0309   -0.5883   -4.1629 C   0  0  0  0  0  0  0  0  0  0  0  0
   -0.5407   -0.2921    0.9001 C   0  0  0  0  0  0  0  0  0  0  0  0
    0.5631   -0.0434    1.3678 O   0  0  0  0  0  0  0  0  0  0  0  0
   -1.6517    0.3545    1.4120 N   0  0  0  0  0  0  0  0  0  0  0  0
   -2.5489    0.0290    1.0674 H   0  0  0  0  0  0  0  0  0  0  0  0
   -1.6162    1.1114    2.6568 C   0  0  0  0  0  0  0  0  0  0  0  0
   -0.8805    1.9200    2.5936 H   0  0  0  0  0  0  0  0  0  0  0  0
   -2.5962    1.5543    2.8581 H   0  0  0  0  0  0  0  0  0  0  0  0
   -1.3510    0.4568    3.4940 H   0  0  0  0  0  0  0  0  0  0  0  0
  1  2  1  0  0  0  0
  2  3  1  0  0  0  0
  2  4  1  0  0  0  0
  2  5  1  0  0  0  0
  5  6  2  0  0  0  0
  5  7  1  0  0  0  0
  7  8  1  0  0  0  0
  7  9  1  0  0  0  0
  9 10  1  0  0  0  0
  9 11  1  0  0  0  0
  9 29  1  0  0  0  0
 11 12  1  0  0  0  0
 11 13  1  0  0  0  0
 11 14  1  0  0  0  0
 14 15  2  0  0  0  0
 14 28  1  0  0  0  0
 15 16  1  0  0  0  0
 15 17  1  0  0  0  0
 17 18  1  0  0  0  0
 17 19  1  0  0  0  0
 19 20  1  0  0  0  0
 19 28  2  0  0  0  0
 20 21  1  0  0  0  0
 20 22  2  0  0  0  0
 22 23  1  0  0  0  0
 22 24  1  0  0  0  0
 24 25  1  0  0  0  0
 24 26  2  0  0  0  0
 26 27  1  0  0  0  0
 26 28  1  0  0  0  0
 29 30  2  0  0  0  0
 29 31  1  0  0  0  0
 31 32  1  0  0  0  0
 31 33  1  0  0  0  0
 33 34  1  0  0  0  0
 33 35  1  0  0  0  0
 33 36  1  0  0  0  0
M  END
$$$$

  -OEChem-03222214083D

 36 37  0     1  0  0  0  0  0999 V2000
   -3.3028   -4.7303    0.7901 H   0  0  0  0  0  0  0  0  0  0  0  0
   -3.2653   -3.9327    0.0425 C   0  0  0  0  0  0  0  0  0  0  0  0
   -4.2199   -3.4012    0.0457 H   0  0  0  0  0  0  0  0  0  0  0  0
   -3.1086   -4.3821   -0.9412 H   0  0  0  0  0  0  0  0  0  0  0  0
   -2.1362   -2.9716    0.3624 C   0  0  0  0  0  0  0  0  0  0  0  0
   -1.4962   -3.1073    1.3889 O   0  0  0  0  0  0  0  0  0  0  0  0
   -1.8341   -1.9536   -0.5186 N   0  0  0  0  0  0  0  0  0  0  0  0
   -2.3021   -1.9891   -1.4210 H   0  0  0  0  0  0  0  0  0  0  0  0
   -0.6385   -1.0942   -0.4180 C   0  0  1  0  0  0  0  0  0  0  0  0
    0.2612   -1.7149   -0.4558 H   0  0  0  0  0  0  0  0  0  0  0  0
   -0.6695   -0.1181   -1.6067 C   0  0  0  0  0  0  0  0  0  0  0  0
   -1.6668    0.3264   -1.6806 H   0  0  0  0  0  0  0  0  0  0  0  0
    0.0390    0.6987   -1.4304 H   0  0  0  0  0  0  0  0  0  0  0  0
   -0.2993   -0.7743   -2.9183 C   0  0  0  0  0  0  0  0  0  0  0  0
    0.5468   -1.8406   -3.1313 C   0  0  0  0  0  0  0  0  0  0  0  0
    1.1164   -2.3673   -2.3686 H   0  0  0  0  0  0  0  0  0  0  0  0
    0.5455   -2.1199   -4.4955 N   0  0  0  0  0  0  0  0  0  0  0  0
    1.1012   -2.8433   -4.9482 H   0  0  0  0  0  0  0  0  0  0  0  0
   -0.2885   -1.2424   -5.1671 C   0  0  0  0  0  0  0  0  0  0  0  0
   -0.6120   -1.1200   -6.5184 C   0  0  0  0  0  0  0  0  0  0  0  0
   -0.1792   -1.7955   -7.2481 H   0  0  0  0  0  0  0  0  0  0  0  0
   -1.4998   -0.1118   -6.9194 C   0  0  0  0  0  0  0  0  0  0  0  0
   -1.7586   -0.0026   -7.9685 H   0  0  0  0  0  0  0  0  0  0  0  0
   -2.0506    0.7596   -5.9673 C   0  0  0  0  0  0  0  0  0  0  0  0
   -2.7335    1.5435   -6.2812 H   0  0  0  0  0  0  0  0  0  0  0  0
   -1.7179    0.6265   -4.6115 C   0  0  0  0  0  0  0  0  0  0  0  0
   -2.1367    1.3050   -3.8756 H   0  0  0  0  0  0  0  0  0  0  0  0
   -0.8333   -0.3842   -4.2187 C   0  0  0  0  0  0  0  0  0  0  0  0
   -0.5431   -0.2859    0.8948 C   0  0  0  0  0  0  0  0  0  0  0  0
    0.5564   -0.0336    1.3701 O   0  0  0  0  0  0  0  0  0  0  0  0
   -1.6572    0.3698    1.3886 N   0  0  0  0  0  0  0  0  0  0  0  0
   -2.5524    0.0482    1.0350 H   0  0  0  0  0  0  0  0  0  0  0  0
   -1.6317    1.1407    2.6255 C   0  0  0  0  0  0  0  0  0  0  0  0
   -0.8959    1.9494    2.5607 H   0  0  0  0  0  0  0  0  0  0  0  0
   -2.6136    1.5848    2.8146 H   0  0  0  0  0  0  0  0  0  0  0  0
   -1.3721    0.4957    3.4718 H   0  0  0  0  0  0  0  0  0  0  0  0
  1  2  1  0  0  0  0
  2  3  1  0  0  0  0
  2  4  1  0  0  0  0
  2  5  1  0  0  0  0
  5  6  2  0  0  0  0
  5  7  1  0  0  0  0
  7  8  1  0  0  0  0
  7  9  1  0  0  0  0
  9 10  1  0  0  0  0
  9 11  1  0  0  0  0
  9 29  1  0  0  0  0
 11 12  1  0  0  0  0
 11 13  1  0  0  0  0
 11 14  1  0  0  0  0
 14 15  2  0  0  0  0
 14 28  1  0  0  0  0
 15 16  1  0  0  0  0
 15 17  1  0  0  0  0
 17 18  1  0  0  0  0
 17 19  1  0  0  0  0
 19 20  1  0  0  0  0
 19 28  2  0  0  0  0
 20 21  1  0  0  0  0
 20 22  2  0  0  0  0
 22 23  1  0  0  0  0
 22 24  1  0  0  0  0
 24 25  1  0  0  0  0
 24 26  2  0  0  0  0
 26 27  1  0  0  0  0
 26 28  1  0  0  0  0
 29 30  2  0  0  0  0
 29 31  1  0  0  0  0
 31 32  1  0  0  0  0
 31 33  1  0  0  0  0
 33 34  1  0  0  0  0
 33 35  1  0  0  0  0
 33 36  1  0  0  0  0
M  END
$$$$

  -OEChem-03222214083D

 36 37  0     1  0  0  0  0  0999 V2000
   -3.3253   -4.7122    0.8455 H   0  0  0  0  0  0  0  0  0  0  0  0
   -3.2842   -3.9223    0.0902 C   0  0  0  0  0  0  0  0  0  0  0  0
   -4.2279   -3.3717    0.1044 H   0  0  0  0  0  0  0  0  0  0  0  0
   -3.1529   -4.3831   -0.8919 H   0  0  0  0  0  0  0  0  0  0  0  0
   -2.1307   -2.9815    0.3819 C   0  0  0  0  0  0  0  0  0  0  0  0
   -1.4623   -3.1315    1.3879 O   0  0  0  0  0  0  0  0  0  0  0  0
   -1.8318   -1.9704   -0.5078 N   0  0  0  0  0  0  0  0  0  0  0  0
   -2.3353   -1.9813   -1.3914 H   0  0  0  0  0  0  0  0  0  0  0  0
   -0.6368   -1.1085   -0.4214 C   0  0  1  0  0  0  0  0  0  0  0  0
    0.2669   -1.7242   -0.4595 H   0  0  0  0  0  0  0  0  0  0  0  0
   -0.6762   -0.1439   -1.6183 C   0  0  0  0  0  0  0  0  0  0  0  0
   -1.6736    0.3008   -1.6928 H   0  0  0  0  0  0  0  0  0  0  0  0
    0.0335    0.6735   -1.4494 H   0  0  0  0  0  0  0  0  0  0  0  0
   -0.3140   -0.8016   -2.9312 C   0  0  0  0  0  0  0  0  0  0  0  0
    0.2962   -2.0176   -3.1524 C   0  0  0  0  0  0  0  0  0  0  0  0
    0.6455   -2.7078   -2.3874 H   0  0  0  0  0  0  0  0  0  0  0  0
    0.3877   -2.2042   -4.5293 N   0  0  0  0  0  0  0  0  0  0  0  0
    0.8210   -3.0038   -4.9875 H   0  0  0  0  0  0  0  0  0  0  0  0
   -0.1519   -1.1202   -5.2000 C   0  0  0  0  0  0  0  0  0  0  0  0
   -0.2856   -0.8418   -6.5601 C   0  0  0  0  0  0  0  0  0  0  0  0
    0.0694   -1.5500   -7.3005 H   0  0  0  0  0  0  0  0  0  0  0  0
   -0.8814    0.3645   -6.9546 C   0  0  0  0  0  0  0  0  0  0  0  0
   -0.9904    0.5953   -8.0102 H   0  0  0  0  0  0  0  0  0  0  0  0
   -1.3334    1.2755   -5.9873 C   0  0  0  0  0  0  0  0  0  0  0  0
   -1.7898    2.2112   -6.2957 H   0  0  0  0  0  0  0  0  0  0  0  0
   -1.1928    0.9845   -4.6227 C   0  0  0  0  0  0  0  0  0  0  0  0
   -1.5343    1.6897   -3.8721 H   0  0  0  0  0  0  0  0  0  0  0  0
   -0.5995   -0.2226   -4.2380 C   0  0  0  0  0  0  0  0  0  0  0  0
   -0.5381   -0.2894    0.8842 C   0  0  0  0  0  0  0  0  0  0  0  0
    0.5615   -0.0330    1.3567 O   0  0  0  0  0  0  0  0  0  0  0  0
   -1.6521    0.3679    1.3760 N   0  0  0  0  0  0  0  0  0  0  0  0
   -2.5488    0.0509    1.0225 H   0  0  0  0  0  0  0  0  0  0  0  0
   -1.6227    1.1604    2.5987 C   0  0  0  0  0  0  0  0  0  0  0  0
   -0.8868    1.9673    2.5166 H   0  0  0  0  0  0  0  0  0  0  0  0
   -2.6039    1.6082    2.7829 H   0  0  0  0  0  0  0  0  0  0  0  0
   -1.3606    0.5306    3.4555 H   0  0  0  0  0  0  0  0  0  0  0  0
  1  2  1  0  0  0  0
  2  3  1  0  0  0  0
  2  4  1  0  0  0  0
  2  5  1  0  0  0  0
  5  6  2  0  0  0  0
  5  7  1  0  0  0  0
  7  8  1  0  0  0  0
  7  9  1  0  0  0  0
  9 10  1  0  0  0  0
  9 11  1  0  0  0  0
  9 29  1  0  0  0  0
 11 12  1  0  0  0  0
 11 13  1  0  0  0  0
 11 14  1  0  0  0  0
 14 15  2  0  0  0  0
 14 28  1  0  0  0  0
 15 16  1  0  0  0  0
 15 17  1  0  0  0  0
 17 18  1  0  0  0  0
 17 19  1  0  0  0  0
 19 20  1  0  0  0  0
 19 28  2  0  0  0  0
 20 21  1  0  0  0  0
 20 22  2  0  0  0  0
 22 23  1  0  0  0  0
 22 24  1  0  0  0  0
 24 25  1  0  0  0  0
 24 26  2  0  0  0  0
 26 27  1  0  0  0  0
 26 28  1  0  0  0  0
 29 30  2  0  0  0  0
 29 31  1  0  0  0  0
 31 32  1  0  0  0  0
 31 33  1  0  0  0  0
 33 34  1  0  0  0  0
 33 35  1  0  0  0  0
 33 36  1  0  0  0  0
M  END
$$$$

  -OEChem-03222214083D

 36 37  0     1  0  0  0  0  0999 V2000
   -3.3557   -4.6795    0.8813 H   0  0  0  0  0  0  0  0  0  0  0  0
   -3.3128   -3.8916    0.1238 C   0  0  0  0  0  0  0  0  0  0  0  0
   -4.2369   -3.3105    0.1677 H   0  0  0  0  0  0  0  0  0  0  0  0
   -3.2284   -4.3566   -0.8615 H   0  0  0  0  0  0  0  0  0  0  0  0
   -2.1205   -2.9887    0.3775 C   0  0  0  0  0  0  0  0  0  0  0  0
   -1.4173   -3.1683    1.3543 O   0  0  0  0  0  0  0  0  0  0  0  0
   -1.8311   -1.9727   -0.5097 N   0  0  0  0  0  0  0  0  0  0  0  0
   -2.3850   -1.9373   -1.3616 H   0  0  0  0  0  0  0  0  0  0  0  0
   -0.6373   -1.1070   -0.4340 C   0  0  1  0  0  0  0  0  0  0  0  0
    0.2679   -1.7209   -0.4869 H   0  0  0  0  0  0  0  0  0  0  0  0
   -0.6837   -0.1430   -1.6312 C   0  0  0  0  0  0  0  0  0  0  0  0
   -1.6768    0.3114   -1.7045 H   0  0  0  0  0  0  0  0  0  0  0  0
    0.0344    0.6668   -1.4612 H   0  0  0  0  0  0  0  0  0  0  0  0
   -0.3264   -0.7995   -2.9462 C   0  0  0  0  0  0  0  0  0  0  0  0
    0.0244   -2.1093   -3.1941 C   0  0  0  0  0  0  0  0  0  0  0  0
    0.1286   -2.8947   -2.4482 H   0  0  0  0  0  0  0  0  0  0  0  0
    0.2302   -2.2437   -4.5649 N   0  0  0  0  0  0  0  0  0  0  0  0
    0.5332   -3.0949   -5.0346 H   0  0  0  0  0  0  0  0  0  0  0  0
    0.0146   -1.0354   -5.2058 C   0  0  0  0  0  0  0  0  0  0  0  0
    0.0960   -0.6667   -6.5489 C   0  0  0  0  0  0  0  0  0  0  0  0
    0.3721   -1.3970   -7.3015 H   0  0  0  0  0  0  0  0  0  0  0  0
   -0.1815    0.6591   -6.9109 C   0  0  0  0  0  0  0  0  0  0  0  0
   -0.1204    0.9613   -7.9522 H   0  0  0  0  0  0  0  0  0  0  0  0
   -0.5350    1.5974   -5.9288 C   0  0  0  0  0  0  0  0  0  0  0  0
   -0.7460    2.6243   -6.2119 H   0  0  0  0  0  0  0  0  0  0  0  0
   -0.6127    1.2150   -4.5817 C   0  0  0  0  0  0  0  0  0  0  0  0
   -0.8801    1.9385   -3.8185 H   0  0  0  0  0  0  0  0  0  0  0  0
   -0.3353   -0.1099   -4.2299 C   0  0  0  0  0  0  0  0  0  0  0  0
   -0.5281   -0.2931    0.8739 C   0  0  0  0  0  0  0  0  0  0  0  0
    0.5741   -0.0372    1.3403 O   0  0  0  0  0  0  0  0  0  0  0  0
   -1.6396    0.3578    1.3796 N   0  0  0  0  0  0  0  0  0  0  0  0
   -2.5386    0.0432    1.0302 H   0  0  0  0  0  0  0  0  0  0  0  0
   -1.6015    1.1417    2.6078 C   0  0  0  0  0  0  0  0  0  0  0  0
   -0.8642    1.9477    2.5279 H   0  0  0  0  0  0  0  0  0  0  0  0
   -2.5806    1.5906    2.8002 H   0  0  0  0  0  0  0  0  0  0  0  0
   -1.3359    0.5051    3.4585 H   0  0  0  0  0  0  0  0  0  0  0  0
  1  2  1  0  0  0  0
  2  3  1  0  0  0  0
  2  4  1  0  0  0  0
  2  5  1  0  0  0  0
  5  6  2  0  0  0  0
  5  7  1  0  0  0  0
  7  8  1  0  0  0  0
  7  9  1  0  0  0  0
  9 10  1  0  0  0  0
  9 11  1  0  0  0  0
  9 29  1  0  0  0  0
 11 12  1  0  0  0  0
 11 13  1  0  0  0  0
 11 14  1  0  0  0  0
 14 15  2  0  0  0  0
 14 28  1  0  0  0  0
 15 16  1  0  0  0  0
 15 17  1  0  0  0  0
 17 18  1  0  0  0  0
 17 19  1  0  0  0  0
 19 20  1  0  0  0  0
 19 28  2  0  0  0  0
 20 21  1  0  0  0  0
 20 22  2  0  0  0  0
 22 23  1  0  0  0  0
 22 24  1  0  0  0  0
 24 25  1  0  0  0  0
 24 26  2  0  0  0  0
 26 27  1  0  0  0  0
 26 28  1  0  0  0  0
 29 30  2  0  0  0  0
 29 31  1  0  0  0  0
 31 32  1  0  0  0  0
 31 33  1  0  0  0  0
 33 34  1  0  0  0  0
 33 35  1  0  0  0  0
 33 36  1  0  0  0  0
M  END
$$$$

  -OEChem-03222214083D

 36 37  0     1  0  0  0  0  0999 V2000
   -3.3824   -4.6522    0.9225 H   0  0  0  0  0  0  0  0  0  0  0  0
   -3.3385   -3.8717    0.1572 C   0  0  0  0  0  0  0  0  0  0  0  0
   -4.2455   -3.2658    0.2211 H   0  0  0  0  0  0  0  0  0  0  0  0
   -3.2929   -4.3468   -0.8255 H   0  0  0  0  0  0  0  0  0  0  0  0
   -2.1157   -3.0000    0.3718 C   0  0  0  0  0  0  0  0  0  0  0  0
   -1.3787   -3.2074    1.3173 O   0  0  0  0  0  0  0  0  0  0  0  0
   -1.8380   -1.9786   -0.5134 N   0  0  0  0  0  0  0  0  0  0  0  0
   -2.4428   -1.8931   -1.3257 H   0  0  0  0  0  0  0  0  0  0  0  0
   -0.6439   -1.1112   -0.4462 C   0  0  1  0  0  0  0  0  0  0  0  0
    0.2584   -1.7294   -0.5123 H   0  0  0  0  0  0  0  0  0  0  0  0
   -0.6850   -0.1440   -1.6413 C   0  0  0  0  0  0  0  0  0  0  0  0
   -1.6710    0.3252   -1.7168 H   0  0  0  0  0  0  0  0  0  0  0  0
    0.0443    0.6540   -1.4622 H   0  0  0  0  0  0  0  0  0  0  0  0
   -0.3274   -0.7953   -2.9591 C   0  0  0  0  0  0  0  0  0  0  0  0
   -0.2504   -2.1362   -3.2694 C   0  0  0  0  0  0  0  0  0  0  0  0
   -0.4001   -2.9607   -2.5759 H   0  0  0  0  0  0  0  0  0  0  0  0
    0.0703   -2.2449   -4.6203 N   0  0  0  0  0  0  0  0  0  0  0  0
    0.2266   -3.1173   -5.1218 H   0  0  0  0  0  0  0  0  0  0  0  0
    0.1944   -0.9882   -5.1883 C   0  0  0  0  0  0  0  0  0  0  0  0
    0.4979   -0.5814   -6.4877 C   0  0  0  0  0  0  0  0  0  0  0  0
    0.6881   -1.3170   -7.2613 H   0  0  0  0  0  0  0  0  0  0  0  0
    0.5539    0.7890   -6.7790 C   0  0  0  0  0  0  0  0  0  0  0  0
    0.7896    1.1204   -7.7860 H   0  0  0  0  0  0  0  0  0  0  0  0
    0.3074    1.7331   -5.7702 C   0  0  0  0  0  0  0  0  0  0  0  0
    0.3540    2.7937   -5.9985 H   0  0  0  0  0  0  0  0  0  0  0  0
    0.0052    1.3120   -4.4672 C   0  0  0  0  0  0  0  0  0  0  0  0
   -0.1812    2.0391   -3.6835 H   0  0  0  0  0  0  0  0  0  0  0  0
   -0.0486   -0.0573   -4.1853 C   0  0  0  0  0  0  0  0  0  0  0  0
   -0.5227   -0.3049    0.8656 C   0  0  0  0  0  0  0  0  0  0  0  0
    0.5830   -0.0498    1.3236 O   0  0  0  0  0  0  0  0  0  0  0  0
   -1.6300    0.3411    1.3873 N   0  0  0  0  0  0  0  0  0  0  0  0
   -2.5331    0.0402    1.0372 H   0  0  0  0  0  0  0  0  0  0  0  0
   -1.5796    1.1275    2.6136 C   0  0  0  0  0  0  0  0  0  0  0  0
   -0.8488    1.9378    2.5208 H   0  0  0  0  0  0  0  0  0  0  0  0
   -2.5587    1.5701    2.8195 H   0  0  0  0  0  0  0  0  0  0  0  0
   -1.2977    0.4948    3.4619 H   0  0  0  0  0  0  0  0  0  0  0  0
  1  2  1  0  0  0  0
  2  3  1  0  0  0  0
  2  4  1  0  0  0  0
  2  5  1  0  0  0  0
  5  6  2  0  0  0  0
  5  7  1  0  0  0  0
  7  8  1  0  0  0  0
  7  9  1  0  0  0  0
  9 10  1  0  0  0  0
  9 11  1  0  0  0  0
  9 29  1  0  0  0  0
 11 12  1  0  0  0  0
 11 13  1  0  0  0  0
 11 14  1  0  0  0  0
 14 15  2  0  0  0  0
 14 28  1  0  0  0  0
 15 16  1  0  0  0  0
 15 17  1  0  0  0  0
 17 18  1  0  0  0  0
 17 19  1  0  0  0  0
 19 20  1  0  0  0  0
 19 28  2  0  0  0  0
 20 21  1  0  0  0  0
 20 22  2  0  0  0  0
 22 23  1  0  0  0  0
 22 24  1  0  0  0  0
 24 25  1  0  0  0  0
 24 26  2  0  0  0  0
 26 27  1  0  0  0  0
 26 28  1  0  0  0  0
 29 30  2  0  0  0  0
 29 31  1  0  0  0  0
 31 32  1  0  0  0  0
 31 33  1  0  0  0  0
 33 34  1  0  0  0  0
 33 35  1  0  0  0  0
 33 36  1  0  0  0  0
M  END
$$$$

  -OEChem-03222214083D

 36 37  0     1  0  0  0  0  0999 V2000
   -3.3951   -4.6316    0.9717 H   0  0  0  0  0  0  0  0  0  0  0  0
   -3.3571   -3.8579    0.1993 C   0  0  0  0  0  0  0  0  0  0  0  0
   -4.2483   -3.2318    0.2857 H   0  0  0  0  0  0  0  0  0  0  0  0
   -3.3512   -4.3408   -0.7807 H   0  0  0  0  0  0  0  0  0  0  0  0
   -2.1090   -3.0128    0.3703 C   0  0  0  0  0  0  0  0  0  0  0  0
   -1.3412   -3.2408    1.2859 O   0  0  0  0  0  0  0  0  0  0  0  0
   -1.8482   -1.9872   -0.5153 N   0  0  0  0  0  0  0  0  0  0  0  0
   -2.5022   -1.8569   -1.2815 H   0  0  0  0  0  0  0  0  0  0  0  0
   -0.6557   -1.1162   -0.4620 C   0  0  1  0  0  0  0  0  0  0  0  0
    0.2441   -1.7369   -0.5423 H   0  0  0  0  0  0  0  0  0  0  0  0
   -0.6944   -0.1453   -1.6543 C   0  0  0  0  0  0  0  0  0  0  0  0
   -1.6754    0.3341   -1.7279 H   0  0  0  0  0  0  0  0  0  0  0  0
    0.0408    0.6447   -1.4665 H   0  0  0  0  0  0  0  0  0  0  0  0
   -0.3395   -0.7911   -2.9763 C   0  0  0  0  0  0  0  0  0  0  0  0
   -0.5292   -2.0948   -3.3812 C   0  0  0  0  0  0  0  0  0  0  0  0
   -0.9336   -2.9007   -2.7745 H   0  0  0  0  0  0  0  0  0  0  0  0
   -0.0908   -2.2033   -4.6983 N   0  0  0  0  0  0  0  0  0  0  0  0
   -0.0787   -3.0595   -5.2488 H   0  0  0  0  0  0  0  0  0  0  0  0
    0.3718   -0.9810   -5.1533 C   0  0  0  0  0  0  0  0  0  0  0  0
    0.8991   -0.5898   -6.3839 C   0  0  0  0  0  0  0  0  0  0  0  0
    1.0040   -1.3095   -7.1883 H   0  0  0  0  0  0  0  0  0  0  0  0
    1.2902    0.7439   -6.5661 C   0  0  0  0  0  0  0  0  0  0  0  0
    1.7023    1.0635   -7.5188 H   0  0  0  0  0  0  0  0  0  0  0  0
    1.1508    1.6664   -5.5182 C   0  0  0  0  0  0  0  0  0  0  0  0
    1.4569    2.6985   -5.6616 H   0  0  0  0  0  0  0  0  0  0  0  0
    0.6208    1.2603   -4.2848 C   0  0  0  0  0  0  0  0  0  0  0  0
    0.5160    1.9720   -3.4724 H   0  0  0  0  0  0  0  0  0  0  0  0
    0.2321   -0.0727   -4.1106 C   0  0  0  0  0  0  0  0  0  0  0  0
   -0.5189   -0.3152    0.8519 C   0  0  0  0  0  0  0  0  0  0  0  0
    0.5918   -0.0536    1.2937 O   0  0  0  0  0  0  0  0  0  0  0  0
   -1.6214    0.3248    1.3917 N   0  0  0  0  0  0  0  0  0  0  0  0
   -2.5287    0.0246    1.0522 H   0  0  0  0  0  0  0  0  0  0  0  0
   -1.5564    1.1101    2.6181 C   0  0  0  0  0  0  0  0  0  0  0  0
   -0.8316    1.9246    2.5155 H   0  0  0  0  0  0  0  0  0  0  0  0
   -2.5344    1.5477    2.8397 H   0  0  0  0  0  0  0  0  0  0  0  0
   -1.2589    0.4779    3.4613 H   0  0  0  0  0  0  0  0  0  0  0  0
  1  2  1  0  0  0  0
  2  3  1  0  0  0  0
  2  4  1  0  0  0  0
  2  5  1  0  0  0  0
  5  6  2  0  0  0  0
  5  7  1  0  0  0  0
  7  8  1  0  0  0  0
  7  9  1  0  0  0  0
  9 10  1  0  0  0  0
  9 11  1  0  0  0  0
  9 29  1  0  0  0  0
 11 12  1  0  0  0  0
 11 13  1  0  0  0  0
 11 14  1  0  0  0  0
 14 15  2  0  0  0  0
 14 28  1  0  0  0  0
 15 16  1  0  0  0  0
 15 17  1  0  0  0  0
 17 18  1  0  0  0  0
 17 19  1  0  0  0  0
 19 20  1  0  0  0  0
 19 28  2  0  0  0  0
 20 21  1  0  0  0  0
 20 22  2  0  0  0  0
 22 23  1  0  0  0  0
 22 24  1  0  0  0  0
 24 25  1  0  0  0  0
 24 26  2  0  0  0  0
 26 27  1  0  0  0  0
 26 28  1  0  0  0  0
 29 30  2  0  0  0  0
 29 31  1  0  0  0  0
 31 32  1  0  0  0  0
 31 33  1  0  0  0  0
 33 34  1  0  0  0  0
 33 35  1  0  0  0  0
 33 36  1  0  0  0  0
M  END
$$$$

  -OEChem-03222214083D

 36 37  0     1  0  0  0  0  0999 V2000
   -3.3725   -4.6347    0.9924 H   0  0  0  0  0  0  0  0  0  0  0  0
   -3.3476   -3.8647    0.2160 C   0  0  0  0  0  0  0  0  0  0  0  0
   -4.2343   -3.2346    0.3186 H   0  0  0  0  0  0  0  0  0  0  0  0
   -3.3646   -4.3526   -0.7615 H   0  0  0  0  0  0  0  0  0  0  0  0
   -2.0923   -3.0244    0.3566 C   0  0  0  0  0  0  0  0  0  0  0  0
   -1.2985   -3.2631    1.2471 O   0  0  0  0  0  0  0  0  0  0  0  0
   -1.8592   -1.9870   -0.5234 N   0  0  0  0  0  0  0  0  0  0  0  0
   -2.5531   -1.8257   -1.2462 H   0  0  0  0  0  0  0  0  0  0  0  0
   -0.6722   -1.1078   -0.4849 C   0  0  1  0  0  0  0  0  0  0  0  0
    0.2276   -1.7254   -0.5869 H   0  0  0  0  0  0  0  0  0  0  0  0
   -0.7226   -0.1209   -1.6647 C   0  0  0  0  0  0  0  0  0  0  0  0
   -1.7079    0.3510   -1.7259 H   0  0  0  0  0  0  0  0  0  0  0  0
    0.0043    0.6742   -1.4707 H   0  0  0  0  0  0  0  0  0  0  0  0
   -0.3786   -0.7550   -2.9957 C   0  0  0  0  0  0  0  0  0  0  0  0
   -0.8160   -1.9557   -3.5103 C   0  0  0  0  0  0  0  0  0  0  0  0
   -1.4677   -2.6663   -3.0112 H   0  0  0  0  0  0  0  0  0  0  0  0
   -0.2640   -2.1068   -4.7791 N   0  0  0  0  0  0  0  0  0  0  0  0
   -0.3907   -2.9129   -5.3877 H   0  0  0  0  0  0  0  0  0  0  0  0
    0.5229   -1.0130   -5.0940 C   0  0  0  0  0  0  0  0  0  0  0  0
    1.2696   -0.7097   -6.2325 C   0  0  0  0  0  0  0  0  0  0  0  0
    1.2954   -1.3983   -7.0698 H   0  0  0  0  0  0  0  0  0  0  0  0
    1.9851    0.4945   -6.2781 C   0  0  0  0  0  0  0  0  0  0  0  0
    2.5717    0.7444   -7.1572 H   0  0  0  0  0  0  0  0  0  0  0  0
    1.9465    1.3765   -5.1877 C   0  0  0  0  0  0  0  0  0  0  0  0
    2.5047    2.3073   -5.2232 H   0  0  0  0  0  0  0  0  0  0  0  0
    1.1927    1.0592   -4.0484 C   0  0  0  0  0  0  0  0  0  0  0  0
    1.1683    1.7409   -3.2045 H   0  0  0  0  0  0  0  0  0  0  0  0
    0.4787   -0.1447   -4.0092 C   0  0  0  0  0  0  0  0  0  0  0  0
   -0.5152   -0.3215    0.8359 C   0  0  0  0  0  0  0  0  0  0  0  0
    0.6013   -0.0491    1.2557 O   0  0  0  0  0  0  0  0  0  0  0  0
   -1.6120    0.3027    1.4047 N   0  0  0  0  0  0  0  0  0  0  0  0
   -2.5234   -0.0015    1.0808 H   0  0  0  0  0  0  0  0  0  0  0  0
   -1.5286    1.0857    2.6314 C   0  0  0  0  0  0  0  0  0  0  0  0
   -0.8197    1.9120    2.5127 H   0  0  0  0  0  0  0  0  0  0  0  0
   -2.5079    1.5065    2.8790 H   0  0  0  0  0  0  0  0  0  0  0  0
   -1.1997    0.4563    3.4649 H   0  0  0  0  0  0  0  0  0  0  0  0
  1  2  1  0  0  0  0
  2  3  1  0  0  0  0
  2  4  1  0  0  0  0
  2  5  1  0  0  0  0
  5  6  2  0  0  0  0
  5  7  1  0  0  0  0
  7  8  1  0  0  0  0
  7  9  1  0  0  0  0
  9 10  1  0  0  0  0
  9 11  1  0  0  0  0
  9 29  1  0  0  0  0
 11 12  1  0  0  0  0
 11 13  1  0  0  0  0
 11 14  1  0  0  0  0
 14 15  2  0  0  0  0
 14 28  1  0  0  0  0
 15 16  1  0  0  0  0
 15 17  1  0  0  0  0
 17 18  1  0  0  0  0
 17 19  1  0  0  0  0
 19 20  1  0  0  0  0
 19 28  2  0  0  0  0
 20 21  1  0  0  0  0
 20 22  2  0  0  0  0
 22 23  1  0  0  0  0
 22 24  1  0  0  0  0
 24 25  1  0  0  0  0
 24 26  2  0  0  0  0
 26 27  1  0  0  0  0
 26 28  1  0  0  0  0
 29 30  2  0  0  0  0
 29 31  1  0  0  0  0
 31 32  1  0  0  0  0
 31 33  1  0  0  0  0
 33 34  1  0  0  0  0
 33 35  1  0  0  0  0
 33 36  1  0  0  0  0
M  END
$$$$

  -OEChem-03222214083D

 36 37  0     1  0  0  0  0  0999 V2000
   -3.2977   -4.6747    0.9418 H   0  0  0  0  0  0  0  0  0  0  0  0
   -3.2928   -3.8996    0.1697 C   0  0  0  0  0  0  0  0  0  0  0  0
   -4.2031   -3.3029    0.2654 H   0  0  0  0  0  0  0  0  0  0  0  0
   -3.2809   -4.3824   -0.8103 H   0  0  0  0  0  0  0  0  0  0  0  0
   -2.0700   -3.0153    0.3283 C   0  0  0  0  0  0  0  0  0  0  0  0
   -1.2787   -3.2310    1.2270 O   0  0  0  0  0  0  0  0  0  0  0  0
   -1.8676   -1.9618   -0.5407 N   0  0  0  0  0  0  0  0  0  0  0  0
   -2.5518   -1.8306   -1.2772 H   0  0  0  0  0  0  0  0  0  0  0  0
   -0.6885   -1.0719   -0.5133 C   0  0  1  0  0  0  0  0  0  0  0  0
    0.2128   -1.6821   -0.6436 H   0  0  0  0  0  0  0  0  0  0  0  0
   -0.7612   -0.0614   -1.6711 C   0  0  0  0  0  0  0  0  0  0  0  0
   -1.7566    0.3913   -1.7110 H   0  0  0  0  0  0  0  0  0  0  0  0
   -0.0494    0.7474   -1.4790 H   0  0  0  0  0  0  0  0  0  0  0  0
   -0.4334   -0.6832   -3.0102 C   0  0  0  0  0  0  0  0  0  0  0  0
   -1.0818   -1.7201   -3.6427 C   0  0  0  0  0  0  0  0  0  0  0  0
   -1.9451   -2.2592   -3.2652 H   0  0  0  0  0  0  0  0  0  0  0  0
   -0.4335   -1.9578   -4.8515 N   0  0  0  0  0  0  0  0  0  0  0  0
   -0.6825   -2.6786   -5.5258 H   0  0  0  0  0  0  0  0  0  0  0  0
    0.6325   -1.0881   -5.0043 C   0  0  0  0  0  0  0  0  0  0  0  0
    1.5672   -0.9439   -6.0297 C   0  0  0  0  0  0  0  0  0  0  0  0
    1.5241   -1.5840   -6.9037 H   0  0  0  0  0  0  0  0  0  0  0  0
    2.5614    0.0372   -5.9142 C   0  0  0  0  0  0  0  0  0  0  0  0
    3.2964    0.1615   -6.7040 H   0  0  0  0  0  0  0  0  0  0  0  0
    2.6104    0.8563   -4.7765 C   0  0  0  0  0  0  0  0  0  0  0  0
    3.3848    1.6121   -4.6852 H   0  0  0  0  0  0  0  0  0  0  0  0
    1.6656    0.7009   -3.7521 C   0  0  0  0  0  0  0  0  0  0  0  0
    1.7108    1.3315   -2.8701 H   0  0  0  0  0  0  0  0  0  0  0  0
    0.6709   -0.2769   -3.8759 C   0  0  0  0  0  0  0  0  0  0  0  0
   -0.5084   -0.3047    0.8153 C   0  0  0  0  0  0  0  0  0  0  0  0
    0.6154   -0.0202    1.2079 O   0  0  0  0  0  0  0  0  0  0  0  0
   -1.5985    0.2999    1.4171 N   0  0  0  0  0  0  0  0  0  0  0  0
   -2.5125   -0.0232    1.1197 H   0  0  0  0  0  0  0  0  0  0  0  0
   -1.4935    1.0631    2.6543 C   0  0  0  0  0  0  0  0  0  0  0  0
   -0.8080    1.9078    2.5284 H   0  0  0  0  0  0  0  0  0  0  0  0
   -2.4735    1.4565    2.9402 H   0  0  0  0  0  0  0  0  0  0  0  0
   -1.1232    0.4269    3.4651 H   0  0  0  0  0  0  0  0  0  0  0  0
  1  2  1  0  0  0  0
  2  3  1  0  0  0  0
  2  4  1  0  0  0  0
  2  5  1  0  0  0  0
  5  6  2  0  0  0  0
  5  7  1  0  0  0  0
  7  8  1  0  0  0  0
  7  9  1  0  0  0  0
  9 10  1  0  0  0  0
  9 11  1  0  0  0  0
  9 29  1  0  0  0  0
 11 12  1  0  0  0  0
 11 13  1  0  0  0  0
 11 14  1  0  0  0  0
 14 15  2  0  0  0  0
 14 28  1  0  0  0  0
 15 16  1  0  0  0  0
 15 17  1  0  0  0  0
 17 18  1  0  0  0  0
 17 19  1  0  0  0  0
 19 20  1  0  0  0  0
 19 28  2  0  0  0  0
 20 21  1  0  0  0  0
 20 22  2  0  0  0  0
 22 23  1  0  0  0  0
 22 24  1  0  0  0  0
 24 25  1  0  0  0  0
 24 26  2  0  0  0  0
 26 27  1  0  0  0  0
 26 28  1  0  0  0  0
 29 30  2  0  0  0  0
 29 31  1  0  0  0  0
 31 32  1  0  0  0  0
 31 33  1  0  0  0  0
 33 34  1  0  0  0  0
 33 35  1  0  0  0  0
 33 36  1  0  0  0  0
M  END
$$$$

  -OEChem-03222214083D

 36 37  0     1  0  0  0  0  0999 V2000
   -3.1811   -4.7387    0.8102 H   0  0  0  0  0  0  0  0  0  0  0  0
   -3.1790   -3.9617    0.0402 C   0  0  0  0  0  0  0  0  0  0  0  0
   -4.1417   -3.4453    0.0600 H   0  0  0  0  0  0  0  0  0  0  0  0
   -3.0450   -4.4354   -0.9353 H   0  0  0  0  0  0  0  0  0  0  0  0
   -2.0549   -2.9765    0.2986 C   0  0  0  0  0  0  0  0  0  0  0  0
   -1.3359   -3.1209    1.2696 O   0  0  0  0  0  0  0  0  0  0  0  0
   -1.8683   -1.9125   -0.5610 N   0  0  0  0  0  0  0  0  0  0  0  0
   -2.4224   -1.9224   -1.4092 H   0  0  0  0  0  0  0  0  0  0  0  0
   -0.6893   -1.0235   -0.5290 C   0  0  1  0  0  0  0  0  0  0  0  0
    0.2115   -1.6285   -0.6826 H   0  0  0  0  0  0  0  0  0  0  0  0
   -0.7832    0.0151   -1.6600 C   0  0  0  0  0  0  0  0  0  0  0  0
   -1.7856    0.4543   -1.6735 H   0  0  0  0  0  0  0  0  0  0  0  0
   -0.0781    0.8320   -1.4731 H   0  0  0  0  0  0  0  0  0  0  0  0
   -0.4766   -0.5928   -3.0068 C   0  0  0  0  0  0  0  0  0  0  0  0
   -1.2857   -1.4103   -3.7622 C   0  0  0  0  0  0  0  0  0  0  0  0
   -2.2994   -1.7109   -3.5141 H   0  0  0  0  0  0  0  0  0  0  0  0
   -0.5792   -1.7662   -4.9082 N   0  0  0  0  0  0  0  0  0  0  0  0
   -0.9273   -2.3581   -5.6599 H   0  0  0  0  0  0  0  0  0  0  0  0
    0.6851   -1.2010   -4.8895 C   0  0  0  0  0  0  0  0  0  0  0  0
    1.7464   -1.2726   -5.7920 C   0  0  0  0  0  0  0  0  0  0  0  0
    1.6504   -1.8489   -6.7054 H   0  0  0  0  0  0  0  0  0  0  0  0
    2.9377   -0.5934   -5.5004 C   0  0  0  0  0  0  0  0  0  0  0  0
    3.7736   -0.6400   -6.1921 H   0  0  0  0  0  0  0  0  0  0  0  0
    3.0538    0.1441   -4.3124 C   0  0  0  0  0  0  0  0  0  0  0  0
    3.9787    0.6654   -4.0842 H   0  0  0  0  0  0  0  0  0  0  0  0
    1.9798    0.2095   -3.4134 C   0  0  0  0  0  0  0  0  0  0  0  0
    2.0726    0.7748   -2.4913 H   0  0  0  0  0  0  0  0  0  0  0  0
    0.7915   -0.4653   -3.7151 C   0  0  0  0  0  0  0  0  0  0  0  0
   -0.4933   -0.2738    0.8072 C   0  0  0  0  0  0  0  0  0  0  0  0
    0.6361    0.0110    1.1844 O   0  0  0  0  0  0  0  0  0  0  0  0
   -1.5764    0.3238    1.4272 N   0  0  0  0  0  0  0  0  0  0  0  0
   -2.4904   -0.0170    1.1488 H   0  0  0  0  0  0  0  0  0  0  0  0
   -1.4568    1.0619    2.6778 C   0  0  0  0  0  0  0  0  0  0  0  0
   -0.7794    1.9137    2.5570 H   0  0  0  0  0  0  0  0  0  0  0  0
   -2.4348    1.4417    2.9880 H   0  0  0  0  0  0  0  0  0  0  0  0
   -1.0686    0.4121    3.4691 H   0  0  0  0  0  0  0  0  0  0  0  0
  1  2  1  0  0  0  0
  2  3  1  0  0  0  0
  2  4  1  0  0  0  0
  2  5  1  0  0  0  0
  5  6  2  0  0  0  0
  5  7  1  0  0  0  0
  7  8  1  0  0  0  0
  7  9  1  0  0  0  0
  9 10  1  0  0  0  0
  9 11  1  0  0  0  0
  9 29  1  0  0  0  0
 11 12  1  0  0  0  0
 11 13  1  0  0  0  0
 11 14  1  0  0  0  0
 14 15  2  0  0  0  0
 14 28  1  0  0  0  0
 15 16  1  0  0  0  0
 15 17  1  0  0  0  0
 17 18  1  0  0  0  0
 17 19  1  0  0  0  0
 19 20  1  0  0  0  0
 19 28  2  0  0  0  0
 20 21  1  0  0  0  0
 20 22  2  0  0  0  0
 22 23  1  0  0  0  0
 22 24  1  0  0  0  0
 24 25  1  0  0  0  0
 24 26  2  0  0  0  0
 26 27  1  0  0  0  0
 26 28  1  0  0  0  0
 29 30  2  0  0  0  0
 29 31  1  0  0  0  0
 31 32  1  0  0  0  0
 31 33  1  0  0  0  0
 33 34  1  0  0  0  0
 33 35  1  0  0  0  0
 33 36  1  0  0  0  0
M  END
$$$$

  -OEChem-03222214083D

 36 37  0     1  0  0  0  0  0999 V2000
   -3.1149   -4.7723    0.6910 H   0  0  0  0  0  0  0  0  0  0  0  0
   -3.0985   -3.9930   -0.0761 C   0  0  0  0  0  0  0  0  0  0  0  0
   -4.0833   -3.5217   -0.1195 H   0  0  0  0  0  0  0  0  0  0  0  0
   -2.8788   -4.4558   -1.0413 H   0  0  0  0  0  0  0  0  0  0  0  0
   -2.0401   -2.9580    0.2553 C   0  0  0  0  0  0  0  0  0  0  0  0
   -1.3745   -3.0766    1.2674 O   0  0  0  0  0  0  0  0  0  0  0  0
   -1.8526   -1.8823   -0.5896 N   0  0  0  0  0  0  0  0  0  0  0  0
   -2.3269   -1.9481   -1.4835 H   0  0  0  0  0  0  0  0  0  0  0  0
   -0.6731   -0.9959   -0.5329 C   0  0  1  0  0  0  0  0  0  0  0  0
    0.2292   -1.5967   -0.6957 H   0  0  0  0  0  0  0  0  0  0  0  0
   -0.7770    0.0610   -1.6445 C   0  0  0  0  0  0  0  0  0  0  0  0
   -1.7816    0.4956   -1.6471 H   0  0  0  0  0  0  0  0  0  0  0  0
   -0.0707    0.8774   -1.4582 H   0  0  0  0  0  0  0  0  0  0  0  0
   -0.4706   -0.5413   -2.9906 C   0  0  0  0  0  0  0  0  0  0  0  0
   -1.3615   -1.1138   -3.8679 C   0  0  0  0  0  0  0  0  0  0  0  0
   -2.4392   -1.1682   -3.7362 H   0  0  0  0  0  0  0  0  0  0  0  0
   -0.6341   -1.5908   -4.9561 N   0  0  0  0  0  0  0  0  0  0  0  0
   -1.0267   -2.0458   -5.7780 H   0  0  0  0  0  0  0  0  0  0  0  0
    0.7185   -1.3476   -4.7765 C   0  0  0  0  0  0  0  0  0  0  0  0
    1.8311   -1.6418   -5.5651 C   0  0  0  0  0  0  0  0  0  0  0  0
    1.7099   -2.1485   -6.5159 H   0  0  0  0  0  0  0  0  0  0  0  0
    3.1068   -1.2783   -5.1097 C   0  0  0  0  0  0  0  0  0  0  0  0
    3.9829   -1.5022   -5.7113 H   0  0  0  0  0  0  0  0  0  0  0  0
    3.2547   -0.6284   -3.8746 C   0  0  0  0  0  0  0  0  0  0  0  0
    4.2432   -0.3511   -3.5210 H   0  0  0  0  0  0  0  0  0  0  0  0
    2.1294   -0.3360   -3.0912 C   0  0  0  0  0  0  0  0  0  0  0  0
    2.2404    0.1622   -2.1326 H   0  0  0  0  0  0  0  0  0  0  0  0
    0.8611   -0.6976   -3.5569 C   0  0  0  0  0  0  0  0  0  0  0  0
   -0.4776   -0.2632    0.8129 C   0  0  0  0  0  0  0  0  0  0  0  0
    0.6535    0.0170    1.1894 O   0  0  0  0  0  0  0  0  0  0  0  0
   -1.5586    0.3320    1.4392 N   0  0  0  0  0  0  0  0  0  0  0  0
   -2.4720   -0.0170    1.1682 H   0  0  0  0  0  0  0  0  0  0  0  0
   -1.4346    1.0586    2.6963 C   0  0  0  0  0  0  0  0  0  0  0  0
   -0.7521    1.9075    2.5827 H   0  0  0  0  0  0  0  0  0  0  0  0
   -2.4103    1.4417    3.0098 H   0  0  0  0  0  0  0  0  0  0  0  0
   -1.0501    0.4000    3.4822 H   0  0  0  0  0  0  0  0  0  0  0  0
  1  2  1  0  0  0  0
  2  3  1  0  0  0  0
  2  4  1  0  0  0  0
  2  5  1  0  0  0  0
  5  6  2  0  0  0  0
  5  7  1  0  0  0  0
  7  8  1  0  0  0  0
  7  9  1  0  0  0  0
  9 10  1  0  0  0  0
  9 11  1  0  0  0  0
  9 29  1  0  0  0  0
 11 12  1  0  0  0  0
 11 13  1  0  0  0  0
 11 14  1  0  0  0  0
 14 15  2  0  0  0  0
 14 28  1  0  0  0  0
 15 16  1  0  0  0  0
 15 17  1  0  0  0  0
 17 18  1  0  0  0  0
 17 19  1  0  0  0  0
 19 20  1  0  0  0  0
 19 28  2  0  0  0  0
 20 21  1  0  0  0  0
 20 22  2  0  0  0  0
 22 23  1  0  0  0  0
 22 24  1  0  0  0  0
 24 25  1  0  0  0  0
 24 26  2  0  0  0  0
 26 27  1  0  0  0  0
 26 28  1  0  0  0  0
 29 30  2  0  0  0  0
 29 31  1  0  0  0  0
 31 32  1  0  0  0  0
 31 33  1  0  0  0  0
 33 34  1  0  0  0  0
 33 35  1  0  0  0  0
 33 36  1  0  0  0  0
M  END
$$$$

  -OEChem-03222214083D

 36 37  0     1  0  0  0  0  0999 V2000
   -3.1464   -4.7701    0.6497 H   0  0  0  0  0  0  0  0  0  0  0  0
   -3.1134   -3.9865   -0.1128 C   0  0  0  0  0  0  0  0  0  0  0  0
   -4.0960   -3.5128   -0.1729 H   0  0  0  0  0  0  0  0  0  0  0  0
   -2.8756   -4.4445   -1.0760 H   0  0  0  0  0  0  0  0  0  0  0  0
   -2.0599   -2.9554    0.2456 C   0  0  0  0  0  0  0  0  0  0  0  0
   -1.4233   -3.0749    1.2762 O   0  0  0  0  0  0  0  0  0  0  0  0
   -1.8462   -1.8804   -0.5936 N   0  0  0  0  0  0  0  0  0  0  0  0
   -2.2887   -1.9524   -1.5041 H   0  0  0  0  0  0  0  0  0  0  0  0
   -0.6571   -1.0095   -0.5133 C   0  0  1  0  0  0  0  0  0  0  0  0
    0.2390   -1.6222   -0.6616 H   0  0  0  0  0  0  0  0  0  0  0  0
   -0.7427    0.0466   -1.6273 C   0  0  0  0  0  0  0  0  0  0  0  0
   -1.7408    0.4958   -1.6398 H   0  0  0  0  0  0  0  0  0  0  0  0
   -0.0237    0.8514   -1.4380 H   0  0  0  0  0  0  0  0  0  0  0  0
   -0.4250   -0.5660   -2.9655 C   0  0  0  0  0  0  0  0  0  0  0  0
   -1.3201   -0.8757   -3.9617 C   0  0  0  0  0  0  0  0  0  0  0  0
   -2.3916   -0.6914   -3.9339 H   0  0  0  0  0  0  0  0  0  0  0  0
   -0.6020   -1.4514   -5.0077 N   0  0  0  0  0  0  0  0  0  0  0  0
   -0.9944   -1.7615   -5.8946 H   0  0  0  0  0  0  0  0  0  0  0  0
    0.7466   -1.5135   -4.6920 C   0  0  0  0  0  0  0  0  0  0  0  0
    1.8491   -1.9926   -5.4002 C   0  0  0  0  0  0  0  0  0  0  0  0
    1.7231   -2.4118   -6.3922 H   0  0  0  0  0  0  0  0  0  0  0  0
    3.1208   -1.9248   -4.8127 C   0  0  0  0  0  0  0  0  0  0  0  0
    3.9887   -2.2946   -5.3510 H   0  0  0  0  0  0  0  0  0  0  0  0
    3.2752   -1.3788   -3.5288 C   0  0  0  0  0  0  0  0  0  0  0  0
    4.2606   -1.3269   -3.0751 H   0  0  0  0  0  0  0  0  0  0  0  0
    2.1609   -0.8978   -2.8270 C   0  0  0  0  0  0  0  0  0  0  0  0
    2.2767   -0.4740   -1.8334 H   0  0  0  0  0  0  0  0  0  0  0  0
    0.8969   -0.9705   -3.4219 C   0  0  0  0  0  0  0  0  0  0  0  0
   -0.4718   -0.2811    0.8355 C   0  0  0  0  0  0  0  0  0  0  0  0
    0.6582   -0.0190    1.2283 O   0  0  0  0  0  0  0  0  0  0  0  0
   -1.5532    0.3284    1.4468 N   0  0  0  0  0  0  0  0  0  0  0  0
   -2.4667   -0.0125    1.1651 H   0  0  0  0  0  0  0  0  0  0  0  0
   -1.4371    1.0475    2.7090 C   0  0  0  0  0  0  0  0  0  0  0  0
   -0.7346    1.8819    2.6120 H   0  0  0  0  0  0  0  0  0  0  0  0
   -2.4101    1.4505    3.0051 H   0  0  0  0  0  0  0  0  0  0  0  0
   -1.0823    0.3776    3.4993 H   0  0  0  0  0  0  0  0  0  0  0  0
  1  2  1  0  0  0  0
  2  3  1  0  0  0  0
  2  4  1  0  0  0  0
  2  5  1  0  0  0  0
  5  6  2  0  0  0  0
  5  7  1  0  0  0  0
  7  8  1  0  0  0  0
  7  9  1  0  0  0  0
  9 10  1  0  0  0  0
  9 11  1  0  0  0  0
  9 29  1  0  0  0  0
 11 12  1  0  0  0  0
 11 13  1  0  0  0  0
 11 14  1  0  0  0  0
 14 15  2  0  0  0  0
 14 28  1  0  0  0  0
 15 16  1  0  0  0  0
 15 17  1  0  0  0  0
 17 18  1  0  0  0  0
 17 19  1  0  0  0  0
 19 20  1  0  0  0  0
 19 28  2  0  0  0  0
 20 21  1  0  0  0  0
 20 22  2  0  0  0  0
 22 23  1  0  0  0  0
 22 24  1  0  0  0  0
 24 25  1  0  0  0  0
 24 26  2  0  0  0  0
 26 27  1  0  0  0  0
 26 28  1  0  0  0  0
 29 30  2  0  0  0  0
 29 31  1  0  0  0  0
 31 32  1  0  0  0  0
 31 33  1  0  0  0  0
 33 34  1  0  0  0  0
 33 35  1  0  0  0  0
 33 36  1  0  0  0  0
M  END
$$$$

  -OEChem-03222214083D

 36 37  0     1  0  0  0  0  0999 V2000
   -3.2615   -4.7468    0.6697 H   0  0  0  0  0  0  0  0  0  0  0  0
   -3.2028   -3.9609   -0.0887 C   0  0  0  0  0  0  0  0  0  0  0  0
   -4.1700   -3.4562   -0.1476 H   0  0  0  0  0  0  0  0  0  0  0  0
   -2.9781   -4.4210   -1.0540 H   0  0  0  0  0  0  0  0  0  0  0  0
   -2.1187   -2.9642    0.2759 C   0  0  0  0  0  0  0  0  0  0  0  0
   -1.5027   -3.0946    1.3178 O   0  0  0  0  0  0  0  0  0  0  0  0
   -1.8559   -1.9044   -0.5686 N   0  0  0  0  0  0  0  0  0  0  0  0
   -2.2819   -1.9708   -1.4882 H   0  0  0  0  0  0  0  0  0  0  0  0
   -0.6494   -1.0603   -0.4674 C   0  0  1  0  0  0  0  0  0  0  0  0
    0.2330   -1.6967   -0.5827 H   0  0  0  0  0  0  0  0  0  0  0  0
   -0.6989   -0.0169   -1.5971 C   0  0  0  0  0  0  0  0  0  0  0  0
   -1.6829    0.4619   -1.6255 H   0  0  0  0  0  0  0  0  0  0  0  0
    0.0404    0.7675   -1.4012 H   0  0  0  0  0  0  0  0  0  0  0  0
   -0.3710   -0.6380   -2.9308 C   0  0  0  0  0  0  0  0  0  0  0  0
   -1.2001   -0.6686   -4.0268 C   0  0  0  0  0  0  0  0  0  0  0  0
   -2.2040   -0.2524   -4.0749 H   0  0  0  0  0  0  0  0  0  0  0  0
   -0.5211   -1.3220   -5.0521 N   0  0  0  0  0  0  0  0  0  0  0  0
   -0.8776   -1.4759   -5.9934 H   0  0  0  0  0  0  0  0  0  0  0  0
    0.7513   -1.6798   -4.6363 C   0  0  0  0  0  0  0  0  0  0  0  0
    1.7970   -2.3197   -5.3019 C   0  0  0  0  0  0  0  0  0  0  0  0
    1.6754   -2.6429   -6.3297 H   0  0  0  0  0  0  0  0  0  0  0  0
    3.0069   -2.5337   -4.6271 C   0  0  0  0  0  0  0  0  0  0  0  0
    3.8307   -3.0290   -5.1324 H   0  0  0  0  0  0  0  0  0  0  0  0
    3.1582   -2.1010   -3.3010 C   0  0  0  0  0  0  0  0  0  0  0  0
    4.0985   -2.2601   -2.7813 H   0  0  0  0  0  0  0  0  0  0  0  0
    2.1005   -1.4583   -2.6421 C   0  0  0  0  0  0  0  0  0  0  0  0
    2.2237   -1.1134   -1.6195 H   0  0  0  0  0  0  0  0  0  0  0  0
    0.8906   -1.2602   -3.3183 C   0  0  0  0  0  0  0  0  0  0  0  0
   -0.4829   -0.3202    0.8773 C   0  0  0  0  0  0  0  0  0  0  0  0
    0.6416   -0.0823    1.2996 O   0  0  0  0  0  0  0  0  0  0  0  0
   -1.5666    0.3206    1.4510 N   0  0  0  0  0  0  0  0  0  0  0  0
   -2.4789   -0.0041    1.1478 H   0  0  0  0  0  0  0  0  0  0  0  0
   -1.4709    1.0530    2.7070 C   0  0  0  0  0  0  0  0  0  0  0  0
   -0.7395    1.8640    2.6240 H   0  0  0  0  0  0  0  0  0  0  0  0
   -2.4406    1.4903    2.9634 H   0  0  0  0  0  0  0  0  0  0  0  0
   -1.1648    0.3833    3.5177 H   0  0  0  0  0  0  0  0  0  0  0  0
  1  2  1  0  0  0  0
  2  3  1  0  0  0  0
  2  4  1  0  0  0  0
  2  5  1  0  0  0  0
  5  6  2  0  0  0  0
  5  7  1  0  0  0  0
  7  8  1  0  0  0  0
  7  9  1  0  0  0  0
  9 10  1  0  0  0  0
  9 11  1  0  0  0  0
  9 29  1  0  0  0  0
 11 12  1  0  0  0  0
 11 13  1  0  0  0  0
 11 14  1  0  0  0  0
 14 15  2  0  0  0  0
 14 28  1  0  0  0  0
 15 16  1  0  0  0  0
 15 17  1  0  0  0  0
 17 18  1  0  0  0  0
 17 19  1  0  0  0  0
 19 20  1  0  0  0  0
 19 28  2  0  0  0  0
 20 21  1  0  0  0  0
 20 22  2  0  0  0  0
 22 23  1  0  0  0  0
 22 24  1  0  0  0  0
 24 25  1  0  0  0  0
 24 26  2  0  0  0  0
 26 27  1  0  0  0  0
 26 28  1  0  0  0  0
 29 30  2  0  0  0  0
 29 31  1  0  0  0  0
 31 32  1  0  0  0  0
 31 33  1  0  0  0  0
 33 34  1  0  0  0  0
 33 35  1  0  0  0  0
 33 36  1  0  0  0  0
M  END
$$$$

  -OEChem-03222214083D

 36 37  0     1  0  0  0  0  0999 V2000
   -3.3670   -4.7295    0.7255 H   0  0  0  0  0  0  0  0  0  0  0  0
   -3.2975   -3.9409   -0.0291 C   0  0  0  0  0  0  0  0  0  0  0  0
   -4.2583   -3.4241   -0.0882 H   0  0  0  0  0  0  0  0  0  0  0  0
   -3.0766   -4.4000   -0.9958 H   0  0  0  0  0  0  0  0  0  0  0  0
   -2.2026   -2.9591    0.3429 C   0  0  0  0  0  0  0  0  0  0  0  0
   -1.6204   -3.0766    1.4057 O   0  0  0  0  0  0  0  0  0  0  0  0
   -1.8885   -1.9287   -0.5202 N   0  0  0  0  0  0  0  0  0  0  0  0
   -2.2881   -2.0085   -1.4510 H   0  0  0  0  0  0  0  0  0  0  0  0
   -0.6652   -1.1118   -0.4041 C   0  0  1  0  0  0  0  0  0  0  0  0
    0.1996   -1.7736   -0.4708 H   0  0  0  0  0  0  0  0  0  0  0  0
   -0.6677   -0.0977   -1.5616 C   0  0  0  0  0  0  0  0  0  0  0  0
   -1.6357    0.4108   -1.6142 H   0  0  0  0  0  0  0  0  0  0  0  0
    0.0904    0.6669   -1.3595 H   0  0  0  0  0  0  0  0  0  0  0  0
   -0.3254   -0.7254   -2.8924 C   0  0  0  0  0  0  0  0  0  0  0  0
   -1.0193   -0.4744   -4.0527 C   0  0  0  0  0  0  0  0  0  0  0  0
   -1.8967    0.1630   -4.1397 H   0  0  0  0  0  0  0  0  0  0  0  0
   -0.4048   -1.1810   -5.0810 N   0  0  0  0  0  0  0  0  0  0  0  0
   -0.6906   -1.1714   -6.0581 H   0  0  0  0  0  0  0  0  0  0  0  0
    0.7205   -1.8326   -4.6077 C   0  0  0  0  0  0  0  0  0  0  0  0
    1.6663   -2.6146   -5.2708 C   0  0  0  0  0  0  0  0  0  0  0  0
    1.5638   -2.8181   -6.3309 H   0  0  0  0  0  0  0  0  0  0  0  0
    2.7563   -3.1218   -4.5524 C   0  0  0  0  0  0  0  0  0  0  0  0
    3.5034   -3.7301   -5.0533 H   0  0  0  0  0  0  0  0  0  0  0  0
    2.8923   -2.8291   -3.1884 C   0  0  0  0  0  0  0  0  0  0  0  0
    3.7474   -3.2070   -2.6356 H   0  0  0  0  0  0  0  0  0  0  0  0
    1.9353   -2.0403   -2.5342 C   0  0  0  0  0  0  0  0  0  0  0  0
    2.0740   -1.7985   -1.4857 H   0  0  0  0  0  0  0  0  0  0  0  0
    0.8278   -1.5580   -3.2469 C   0  0  0  0  0  0  0  0  0  0  0  0
   -0.5210   -0.3407    0.9256 C   0  0  0  0  0  0  0  0  0  0  0  0
    0.5954   -0.1256    1.3805 O   0  0  0  0  0  0  0  0  0  0  0  0
   -1.6054    0.3410    1.4488 N   0  0  0  0  0  0  0  0  0  0  0  0
   -2.5155    0.0331    1.1219 H   0  0  0  0  0  0  0  0  0  0  0  0
   -1.5308    1.0942    2.6939 C   0  0  0  0  0  0  0  0  0  0  0  0
   -0.7710    1.8797    2.6228 H   0  0  0  0  0  0  0  0  0  0  0  0
   -2.4939    1.5670    2.9079 H   0  0  0  0  0  0  0  0  0  0  0  0
   -1.2752    0.4310    3.5270 H   0  0  0  0  0  0  0  0  0  0  0  0
  1  2  1  0  0  0  0
  2  3  1  0  0  0  0
  2  4  1  0  0  0  0
  2  5  1  0  0  0  0
  5  6  2  0  0  0  0
  5  7  1  0  0  0  0
  7  8  1  0  0  0  0
  7  9  1  0  0  0  0
  9 10  1  0  0  0  0
  9 11  1  0  0  0  0
  9 29  1  0  0  0  0
 11 12  1  0  0  0  0
 11 13  1  0  0  0  0
 11 14  1  0  0  0  0
 14 15  2  0  0  0  0
 14 28  1  0  0  0  0
 15 16  1  0  0  0  0
 15 17  1  0  0  0  0
 17 18  1  0  0  0  0
 17 19  1  0  0  0  0
 19 20  1  0  0  0  0
 19 28  2  0  0  0  0
 20 21  1  0  0  0  0
 20 22  2  0  0  0  0
 22 23  1  0  0  0  0
 22 24  1  0  0  0  0
 24 25  1  0  0  0  0
 24 26  2  0  0  0  0
 26 27  1  0  0  0  0
 26 28  1  0  0  0  0
 29 30  2  0  0  0  0
 29 31  1  0  0  0  0
 31 32  1  0  0  0  0
 31 33  1  0  0  0  0
 33 34  1  0  0  0  0
 33 35  1  0  0  0  0
 33 36  1  0  0  0  0
M  END
$$$$

  -OEChem-03222214083D

 36 37  0     1  0  0  0  0  0999 V2000
   -3.3834   -4.7162    0.8179 H   0  0  0  0  0  0  0  0  0  0  0  0
   -3.3025   -3.9395    0.0520 C   0  0  0  0  0  0  0  0  0  0  0  0
   -4.2623   -3.4240   -0.0298 H   0  0  0  0  0  0  0  0  0  0  0  0
   -3.0678   -4.4139   -0.9040 H   0  0  0  0  0  0  0  0  0  0  0  0
   -2.2125   -2.9523    0.4248 C   0  0  0  0  0  0  0  0  0  0  0  0
   -1.6548   -3.0445    1.5031 O   0  0  0  0  0  0  0  0  0  0  0  0
   -1.8677   -1.9515   -0.4603 N   0  0  0  0  0  0  0  0  0  0  0  0
   -2.2465   -2.0521   -1.3982 H   0  0  0  0  0  0  0  0  0  0  0  0
   -0.6529   -1.1245   -0.3300 C   0  0  1  0  0  0  0  0  0  0  0  0
    0.2222   -1.7693   -0.3344 H   0  0  0  0  0  0  0  0  0  0  0  0
   -0.6302   -0.1483   -1.5172 C   0  0  0  0  0  0  0  0  0  0  0  0
   -1.5978    0.3581   -1.5978 H   0  0  0  0  0  0  0  0  0  0  0  0
    0.1194    0.6225   -1.3060 H   0  0  0  0  0  0  0  0  0  0  0  0
   -0.2518   -0.7667   -2.8485 C   0  0  0  0  0  0  0  0  0  0  0  0
   -0.7538   -0.2582   -4.0241 C   0  0  0  0  0  0  0  0  0  0  0  0
   -1.4496    0.5742   -4.1042 H   0  0  0  0  0  0  0  0  0  0  0  0
   -0.2321   -0.9978   -5.0766 N   0  0  0  0  0  0  0  0  0  0  0  0
   -0.4185   -0.8351   -6.0643 H   0  0  0  0  0  0  0  0  0  0  0  0
    0.6509   -1.9459   -4.5974 C   0  0  0  0  0  0  0  0  0  0  0  0
    1.4239   -2.8723   -5.2966 C   0  0  0  0  0  0  0  0  0  0  0  0
    1.3599   -2.9359   -6.3771 H   0  0  0  0  0  0  0  0  0  0  0  0
    2.2909   -3.7090   -4.5865 C   0  0  0  0  0  0  0  0  0  0  0  0
    2.9034   -4.4342   -5.1140 H   0  0  0  0  0  0  0  0  0  0  0  0
    2.3806   -3.5958   -3.1939 C   0  0  0  0  0  0  0  0  0  0  0  0
    3.0675   -4.2312   -2.6426 H   0  0  0  0  0  0  0  0  0  0  0  0
    1.5980   -2.6580   -2.5050 C   0  0  0  0  0  0  0  0  0  0  0  0
    1.7250   -2.5824   -1.4329 H   0  0  0  0  0  0  0  0  0  0  0  0
    0.7014   -1.8336   -3.2073 C   0  0  0  0  0  0  0  0  0  0  0  0
   -0.5705   -0.3087    0.9794 C   0  0  0  0  0  0  0  0  0  0  0  0
    0.5229   -0.0675    1.4749 O   0  0  0  0  0  0  0  0  0  0  0  0
   -1.6807    0.3806    1.4342 N   0  0  0  0  0  0  0  0  0  0  0  0
   -2.5743    0.0564    1.0788 H   0  0  0  0  0  0  0  0  0  0  0  0
   -1.6632    1.1783    2.6538 C   0  0  0  0  0  0  0  0  0  0  0  0
   -0.9058    1.9665    2.5865 H   0  0  0  0  0  0  0  0  0  0  0  0
   -2.6373    1.6511    2.8106 H   0  0  0  0  0  0  0  0  0  0  0  0
   -1.4384    0.5467    3.5197 H   0  0  0  0  0  0  0  0  0  0  0  0
  1  2  1  0  0  0  0
  2  3  1  0  0  0  0
  2  4  1  0  0  0  0
  2  5  1  0  0  0  0
  5  6  2  0  0  0  0
  5  7  1  0  0  0  0
  7  8  1  0  0  0  0
  7  9  1  0  0  0  0
  9 10  1  0  0  0  0
  9 11  1  0  0  0  0
  9 29  1  0  0  0  0
 11 12  1  0  0  0  0
 11 13  1  0  0  0  0
 11 14  1  0  0  0  0
 14 15  2  0  0  0  0
 14 28  1  0  0  0  0
 15 16  1  0  0  0  0
 15 17  1  0  0  0  0
 17 18  1  0  0  0  0
 17 19  1  0  0  0  0
 19 20  1  0  0  0  0
 19 28  2  0  0  0  0
 20 21  1  0  0  0  0
 20 22  2  0  0  0  0
 22 23  1  0  0  0  0
 22 24  1  0  0  0  0
 24 25  1  0  0  0  0
 24 26  2  0  0  0  0
 26 27  1  0  0  0  0
 26 28  1  0  0  0  0
 29 30  2  0  0  0  0
 29 31  1  0  0  0  0
 31 32  1  0  0  0  0
 31 33  1  0  0  0  0
 33 34  1  0  0  0  0
 33 35  1  0  0  0  0
 33 36  1  0  0  0  0
M  END
$$$$

  -OEChem-03222214083D

 36 37  0     1  0  0  0  0  0999 V2000
   -3.2301   -4.7309    0.8931 H   0  0  0  0  0  0  0  0  0  0  0  0
   -3.1418   -3.9812    0.1015 C   0  0  0  0  0  0  0  0  0  0  0  0
   -4.1088   -3.4897   -0.0278 H   0  0  0  0  0  0  0  0  0  0  0  0
   -2.8681   -4.4845   -0.8291 H   0  0  0  0  0  0  0  0  0  0  0  0
   -2.0848   -2.9571    0.4685 C   0  0  0  0  0  0  0  0  0  0  0  0
   -1.5311   -3.0185    1.5509 O   0  0  0  0  0  0  0  0  0  0  0  0
   -1.7579   -1.9635   -0.4312 N   0  0  0  0  0  0  0  0  0  0  0  0
   -2.1244   -2.0879   -1.3717 H   0  0  0  0  0  0  0  0  0  0  0  0
   -0.5835   -1.0799   -0.2976 C   0  0  1  0  0  0  0  0  0  0  0  0
    0.3404   -1.6567   -0.2676 H   0  0  0  0  0  0  0  0  0  0  0  0
   -0.5786   -0.1271   -1.4992 C   0  0  0  0  0  0  0  0  0  0  0  0
   -1.5675    0.3307   -1.6063 H   0  0  0  0  0  0  0  0  0  0  0  0
    0.1292    0.6812   -1.2839 H   0  0  0  0  0  0  0  0  0  0  0  0
   -0.1525   -0.7344   -2.8228 C   0  0  0  0  0  0  0  0  0  0  0  0
   -0.4095   -0.0556   -3.9912 C   0  0  0  0  0  0  0  0  0  0  0  0
   -0.8722    0.9268   -4.0586 H   0  0  0  0  0  0  0  0  0  0  0  0
    0.0254   -0.8338   -5.0541 N   0  0  0  0  0  0  0  0  0  0  0  0
   -0.0105   -0.5678   -6.0363 H   0  0  0  0  0  0  0  0  0  0  0  0
    0.5468   -2.0240   -4.5873 C   0  0  0  0  0  0  0  0  0  0  0  0
    1.0830   -3.0928   -5.3043 C   0  0  0  0  0  0  0  0  0  0  0  0
    1.1406   -3.0538   -6.3865 H   0  0  0  0  0  0  0  0  0  0  0  0
    1.5450   -4.2143   -4.6089 C   0  0  0  0  0  0  0  0  0  0  0  0
    1.9672   -5.0560   -5.1502 H   0  0  0  0  0  0  0  0  0  0  0  0
    1.4627   -4.2482   -3.2119 C   0  0  0  0  0  0  0  0  0  0  0  0
    1.8233   -5.1180   -2.6706 H   0  0  0  0  0  0  0  0  0  0  0  0
    0.9235   -3.1639   -2.5049 C   0  0  0  0  0  0  0  0  0  0  0  0
    0.8845   -3.2384   -1.4266 H   0  0  0  0  0  0  0  0  0  0  0  0
    0.4591   -2.0281   -3.1935 C   0  0  0  0  0  0  0  0  0  0  0  0
   -0.5832   -0.2344    0.9965 C   0  0  0  0  0  0  0  0  0  0  0  0
    0.4797    0.0714    1.5215 O   0  0  0  0  0  0  0  0  0  0  0  0
   -1.7399    0.4076    1.4031 N   0  0  0  0  0  0  0  0  0  0  0  0
   -2.6049    0.0351    1.0248 H   0  0  0  0  0  0  0  0  0  0  0  0
   -1.8008    1.2214    2.6106 C   0  0  0  0  0  0  0  0  0  0  0  0
   -1.0927    2.0546    2.5484 H   0  0  0  0  0  0  0  0  0  0  0  0
   -2.8060    1.6341    2.7382 H   0  0  0  0  0  0  0  0  0  0  0  0
   -1.5575    0.6173    3.4911 H   0  0  0  0  0  0  0  0  0  0  0  0
  1  2  1  0  0  0  0
  2  3  1  0  0  0  0
  2  4  1  0  0  0  0
  2  5  1  0  0  0  0
  5  6  2  0  0  0  0
  5  7  1  0  0  0  0
  7  8  1  0  0  0  0
  7  9  1  0  0  0  0
  9 10  1  0  0  0  0
  9 11  1  0  0  0  0
  9 29  1  0  0  0  0
 11 12  1  0  0  0  0
 11 13  1  0  0  0  0
 11 14  1  0  0  0  0
 14 15  2  0  0  0  0
 14 28  1  0  0  0  0
 15 16  1  0  0  0  0
 15 17  1  0  0  0  0
 17 18  1  0  0  0  0
 17 19  1  0  0  0  0
 19 20  1  0  0  0  0
 19 28  2  0  0  0  0
 20 21  1  0  0  0  0
 20 22  2  0  0  0  0
 22 23  1  0  0  0  0
 22 24  1  0  0  0  0
 24 25  1  0  0  0  0
 24 26  2  0  0  0  0
 26 27  1  0  0  0  0
 26 28  1  0  0  0  0
 29 30  2  0  0  0  0
 29 31  1  0  0  0  0
 31 32  1  0  0  0  0
 31 33  1  0  0  0  0
 33 34  1  0  0  0  0
 33 35  1  0  0  0  0
 33 36  1  0  0  0  0
M  END
$$$$

  -OEChem-03222214083D

 36 37  0     1  0  0  0  0  0999 V2000
   -3.4125   -4.6889    0.9520 H   0  0  0  0  0  0  0  0  0  0  0  0
   -3.3610   -3.9071    0.1890 C   0  0  0  0  0  0  0  0  0  0  0  0
   -4.3151   -3.3755    0.1634 H   0  0  0  0  0  0  0  0  0  0  0  0
   -3.1866   -4.3766   -0.7823 H   0  0  0  0  0  0  0  0  0  0  0  0
   -2.2376   -2.9395    0.5082 C   0  0  0  0  0  0  0  0  0  0  0  0
   -1.6201   -3.0469    1.5516 O   0  0  0  0  0  0  0  0  0  0  0  0
   -1.9107   -1.9522   -0.3977 N   0  0  0  0  0  0  0  0  0  0  0  0
   -2.3440   -2.0327   -1.3155 H   0  0  0  0  0  0  0  0  0  0  0  0
   -0.6919   -1.1224   -0.3207 C   0  0  1  0  0  0  0  0  0  0  0  0
    0.1915   -1.7676   -0.3600 H   0  0  0  0  0  0  0  0  0  0  0  0
   -0.6811   -0.1885   -1.5373 C   0  0  0  0  0  0  0  0  0  0  0  0
   -1.5536    0.4709   -1.4837 H   0  0  0  0  0  0  0  0  0  0  0  0
    0.2095    0.4460   -1.4717 H   0  0  0  0  0  0  0  0  0  0  0  0
   -0.6717   -0.8631   -2.8975 C   0  0  0  0  0  0  0  0  0  0  0  0
   -0.6663   -0.1007   -4.0419 C   0  0  0  0  0  0  0  0  0  0  0  0
   -0.7007    0.9865   -4.0728 H   0  0  0  0  0  0  0  0  0  0  0  0
   -0.6317   -0.9555   -5.1354 N   0  0  0  0  0  0  0  0  0  0  0  0
   -0.6123   -0.6655   -6.1114 H   0  0  0  0  0  0  0  0  0  0  0  0
   -0.5498   -2.2672   -4.7104 C   0  0  0  0  0  0  0  0  0  0  0  0
   -0.4555   -3.4396   -5.4591 C   0  0  0  0  0  0  0  0  0  0  0  0
   -0.4685   -3.4004   -6.5427 H   0  0  0  0  0  0  0  0  0  0  0  0
   -0.3320   -4.6641   -4.7943 C   0  0  0  0  0  0  0  0  0  0  0  0
   -0.2539   -5.5869   -5.3621 H   0  0  0  0  0  0  0  0  0  0  0  0
   -0.2863   -4.6944   -3.3950 C   0  0  0  0  0  0  0  0  0  0  0  0
   -0.1638   -5.6422   -2.8787 H   0  0  0  0  0  0  0  0  0  0  0  0
   -0.3800   -3.5062   -2.6571 C   0  0  0  0  0  0  0  0  0  0  0  0
   -0.3038   -3.5685   -1.5789 H   0  0  0  0  0  0  0  0  0  0  0  0
   -0.5413   -2.2740   -3.3154 C   0  0  0  0  0  0  0  0  0  0  0  0
   -0.5619   -0.2820    0.9674 C   0  0  0  0  0  0  0  0  0  0  0  0
    0.5485   -0.0330    1.4185 O   0  0  0  0  0  0  0  0  0  0  0  0
   -1.6543    0.4182    1.4479 N   0  0  0  0  0  0  0  0  0  0  0  0
   -2.5601    0.0956    1.1227 H   0  0  0  0  0  0  0  0  0  0  0  0
   -1.5960    1.2231    2.6613 C   0  0  0  0  0  0  0  0  0  0  0  0
   -0.8280    1.9984    2.5717 H   0  0  0  0  0  0  0  0  0  0  0  0
   -2.5586    1.7126    2.8373 H   0  0  0  0  0  0  0  0  0  0  0  0
   -1.3611    0.5933    3.5258 H   0  0  0  0  0  0  0  0  0  0  0  0
  1  2  1  0  0  0  0
  2  3  1  0  0  0  0
  2  4  1  0  0  0  0
  2  5  1  0  0  0  0
  5  6  2  0  0  0  0
  5  7  1  0  0  0  0
  7  8  1  0  0  0  0
  7  9  1  0  0  0  0
  9 10  1  0  0  0  0
  9 11  1  0  0  0  0
  9 29  1  0  0  0  0
 11 12  1  0  0  0  0
 11 13  1  0  0  0  0
 11 14  1  0  0  0  0
 14 15  2  0  0  0  0
 14 28  1  0  0  0  0
 15 16  1  0  0  0  0
 15 17  1  0  0  0  0
 17 18  1  0  0  0  0
 17 19  1  0  0  0  0
 19 20  1  0  0  0  0
 19 28  2  0  0  0  0
 20 21  1  0  0  0  0
 20 22  2  0  0  0  0
 22 23  1  0  0  0  0
 22 24  1  0  0  0  0
 24 25  1  0  0  0  0
 24 26  2  0  0  0  0
 26 27  1  0  0  0  0
 26 28  1  0  0  0  0
 29 30  2  0  0  0  0
 29 31  1  0  0  0  0
 31 32  1  0  0  0  0
 31 33  1  0  0  0  0
 33 34  1  0  0  0  0
 33 35  1  0  0  0  0
 33 36  1  0  0  0  0
M  END
$$$$

  -OEChem-03222214083D

 36 37  0     1  0  0  0  0  0999 V2000
   -3.5543   -4.5984    1.1155 H   0  0  0  0  0  0  0  0  0  0  0  0
   -3.4972   -3.8286    0.3406 C   0  0  0  0  0  0  0  0  0  0  0  0
   -4.4245   -3.2508    0.3484 H   0  0  0  0  0  0  0  0  0  0  0  0
   -3.3877   -4.3163   -0.6311 H   0  0  0  0  0  0  0  0  0  0  0  0
   -2.3151   -2.9142    0.6009 C   0  0  0  0  0  0  0  0  0  0  0  0
   -1.6666   -3.0334    1.6238 O   0  0  0  0  0  0  0  0  0  0  0  0
   -1.9763   -1.9548   -0.3308 N   0  0  0  0  0  0  0  0  0  0  0  0
   -2.4546   -2.0130   -1.2277 H   0  0  0  0  0  0  0  0  0  0  0  0
   -0.7345   -1.1584   -0.2968 C   0  0  1  0  0  0  0  0  0  0  0  0
    0.1244   -1.8359   -0.3497 H   0  0  0  0  0  0  0  0  0  0  0  0
   -0.7235   -0.2466   -1.5314 C   0  0  0  0  0  0  0  0  0  0  0  0
   -1.5851    0.4258   -1.4659 H   0  0  0  0  0  0  0  0  0  0  0  0
    0.1761    0.3768   -1.4805 H   0  0  0  0  0  0  0  0  0  0  0  0
   -0.7561   -0.9056   -2.9015 C   0  0  0  0  0  0  0  0  0  0  0  0
   -0.4431   -0.1462   -4.0055 C   0  0  0  0  0  0  0  0  0  0  0  0
   -0.2257    0.9200   -3.9913 H   0  0  0  0  0  0  0  0  0  0  0  0
   -0.5002   -0.9564   -5.1298 N   0  0  0  0  0  0  0  0  0  0  0  0
   -0.3175   -0.6551   -6.0851 H   0  0  0  0  0  0  0  0  0  0  0  0
   -0.7391   -2.2628   -4.7566 C   0  0  0  0  0  0  0  0  0  0  0  0
   -0.8110   -3.4051   -5.5525 C   0  0  0  0  0  0  0  0  0  0  0  0
   -0.7278   -3.3284   -6.6311 H   0  0  0  0  0  0  0  0  0  0  0  0
   -0.9685   -4.6516   -4.9396 C   0  0  0  0  0  0  0  0  0  0  0  0
   -1.0215   -5.5532   -5.5430 H   0  0  0  0  0  0  0  0  0  0  0  0
   -1.0186   -4.7357   -3.5437 C   0  0  0  0  0  0  0  0  0  0  0  0
   -1.0957   -5.7074   -3.0652 H   0  0  0  0  0  0  0  0  0  0  0  0
   -0.9432   -3.5756   -2.7603 C   0  0  0  0  0  0  0  0  0  0  0  0
   -0.9168   -3.6964   -1.6865 H   0  0  0  0  0  0  0  0  0  0  0  0
   -0.8523   -2.3088   -3.3656 C   0  0  0  0  0  0  0  0  0  0  0  0
   -0.5537   -0.2949    0.9705 C   0  0  0  0  0  0  0  0  0  0  0  0
    0.5724   -0.0702    1.3948 O   0  0  0  0  0  0  0  0  0  0  0  0
   -1.6156    0.4459    1.4592 N   0  0  0  0  0  0  0  0  0  0  0  0
   -2.5369    0.1481    1.1552 H   0  0  0  0  0  0  0  0  0  0  0  0
   -1.5105    1.2746    2.6535 C   0  0  0  0  0  0  0  0  0  0  0  0
   -0.7143    2.0177    2.5381 H   0  0  0  0  0  0  0  0  0  0  0  0
   -2.4510    1.8049    2.8297 H   0  0  0  0  0  0  0  0  0  0  0  0
   -1.2901    0.6553    3.5293 H   0  0  0  0  0  0  0  0  0  0  0  0
  1  2  1  0  0  0  0
  2  3  1  0  0  0  0
  2  4  1  0  0  0  0
  2  5  1  0  0  0  0
  5  6  2  0  0  0  0
  5  7  1  0  0  0  0
  7  8  1  0  0  0  0
  7  9  1  0  0  0  0
  9 10  1  0  0  0  0
  9 11  1  0  0  0  0
  9 29  1  0  0  0  0
 11 12  1  0  0  0  0
 11 13  1  0  0  0  0
 11 14  1  0  0  0  0
 14 15  2  0  0  0  0
 14 28  1  0  0  0  0
 15 16  1  0  0  0  0
 15 17  1  0  0  0  0
 17 18  1  0  0  0  0
 17 19  1  0  0  0  0
 19 20  1  0  0  0  0
 19 28  2  0  0  0  0
 20 21  1  0  0  0  0
 20 22  2  0  0  0  0
 22 23  1  0  0  0  0
 22 24  1  0  0  0  0
 24 25  1  0  0  0  0
 24 26  2  0  0  0  0
 26 27  1  0  0  0  0
 26 28  1  0  0  0  0
 29 30  2  0  0  0  0
 29 31  1  0  0  0  0
 31 32  1  0  0  0  0
 31 33  1  0  0  0  0
 33 34  1  0  0  0  0
 33 35  1  0  0  0  0
 33 36  1  0  0  0  0
M  END
$$$$

  -OEChem-03222214083D

 36 37  0     1  0  0  0  0  0999 V2000
   -3.5344   -4.4542    1.5478 H   0  0  0  0  0  0  0  0  0  0  0  0
   -3.4317   -3.8411    0.6477 C   0  0  0  0  0  0  0  0  0  0  0  0
   -4.3297   -3.2287    0.5363 H   0  0  0  0  0  0  0  0  0  0  0  0
   -3.3398   -4.5026   -0.2167 H   0  0  0  0  0  0  0  0  0  0  0  0
   -2.2060   -2.9530    0.7612 C   0  0  0  0  0  0  0  0  0  0  0  0
   -1.4787   -3.0487    1.7323 O   0  0  0  0  0  0  0  0  0  0  0  0
   -1.9356   -2.0204   -0.2206 N   0  0  0  0  0  0  0  0  0  0  0  0
   -2.5199   -2.0379   -1.0527 H   0  0  0  0  0  0  0  0  0  0  0  0
   -0.7284   -1.1813   -0.2619 C   0  0  1  0  0  0  0  0  0  0  0  0
    0.1452   -1.8413   -0.2982 H   0  0  0  0  0  0  0  0  0  0  0  0
   -0.7224   -0.3120   -1.5304 C   0  0  0  0  0  0  0  0  0  0  0  0
   -1.6017    0.3385   -1.4847 H   0  0  0  0  0  0  0  0  0  0  0  0
    0.1575    0.3393   -1.4743 H   0  0  0  0  0  0  0  0  0  0  0  0
   -0.7323   -0.9698   -2.9067 C   0  0  0  0  0  0  0  0  0  0  0  0
   -0.1147   -0.2754   -3.9240 C   0  0  0  0  0  0  0  0  0  0  0  0
    0.3561    0.7004   -3.8214 H   0  0  0  0  0  0  0  0  0  0  0  0
   -0.2247   -1.0047   -5.0956 N   0  0  0  0  0  0  0  0  0  0  0  0
    0.1449   -0.7272   -6.0029 H   0  0  0  0  0  0  0  0  0  0  0  0
   -0.8596   -2.2008   -4.8434 C   0  0  0  0  0  0  0  0  0  0  0  0
   -1.1388   -3.2318   -5.7389 C   0  0  0  0  0  0  0  0  0  0  0  0
   -0.8782   -3.1340   -6.7871 H   0  0  0  0  0  0  0  0  0  0  0  0
   -1.7452   -4.3967   -5.2644 C   0  0  0  0  0  0  0  0  0  0  0  0
   -1.9695   -5.2127   -5.9453 H   0  0  0  0  0  0  0  0  0  0  0  0
   -2.0383   -4.5152   -3.9024 C   0  0  0  0  0  0  0  0  0  0  0  0
   -2.4803   -5.4330   -3.5260 H   0  0  0  0  0  0  0  0  0  0  0  0
   -1.7474   -3.4661   -3.0189 C   0  0  0  0  0  0  0  0  0  0  0  0
   -1.9516   -3.6425   -1.9777 H   0  0  0  0  0  0  0  0  0  0  0  0
   -1.1768   -2.2658   -3.4823 C   0  0  0  0  0  0  0  0  0  0  0  0
   -0.5481   -0.2641    0.9676 C   0  0  0  0  0  0  0  0  0  0  0  0
    0.5786    0.0300    1.3455 O   0  0  0  0  0  0  0  0  0  0  0  0
   -1.6260    0.4509    1.4591 N   0  0  0  0  0  0  0  0  0  0  0  0
   -2.5437    0.1127    1.1893 H   0  0  0  0  0  0  0  0  0  0  0  0
   -1.5200    1.3431    2.6063 C   0  0  0  0  0  0  0  0  0  0  0  0
   -0.8052    2.1474    2.4030 H   0  0  0  0  0  0  0  0  0  0  0  0
   -2.4926    1.7942    2.8243 H   0  0  0  0  0  0  0  0  0  0  0  0
   -1.1863    0.7903    3.4910 H   0  0  0  0  0  0  0  0  0  0  0  0
  1  2  1  0  0  0  0
  2  3  1  0  0  0  0
  2  4  1  0  0  0  0
  2  5  1  0  0  0  0
  5  6  2  0  0  0  0
  5  7  1  0  0  0  0
  7  8  1  0  0  0  0
  7  9  1  0  0  0  0
  9 10  1  0  0  0  0
  9 11  1  0  0  0  0
  9 29  1  0  0  0  0
 11 12  1  0  0  0  0
 11 13  1  0  0  0  0
 11 14  1  0  0  0  0
 14 15  2  0  0  0  0
 14 28  1  0  0  0  0
 15 16  1  0  0  0  0
 15 17  1  0  0  0  0
 17 18  1  0  0  0  0
 17 19  1  0  0  0  0
 19 20  1  0  0  0  0
 19 28  2  0  0  0  0
 20 21  1  0  0  0  0
 20 22  2  0  0  0  0
 22 23  1  0  0  0  0
 22 24  1  0  0  0  0
 24 25  1  0  0  0  0
 24 26  2  0  0  0  0
 26 27  1  0  0  0  0
 26 28  1  0  0  0  0
 29 30  2  0  0  0  0
 29 31  1  0  0  0  0
 31 32  1  0  0  0  0
 31 33  1  0  0  0  0
 33 34  1  0  0  0  0
 33 35  1  0  0  0  0
 33 36  1  0  0  0  0
M  END
$$$$

  -OEChem-03222214083D

 36 37  0     1  0  0  0  0  0999 V2000
   -2.8823   -4.8778    1.3878 H   0  0  0  0  0  0  0  0  0  0  0  0
   -2.8722   -4.2222    0.5122 C   0  0  0  0  0  0  0  0  0  0  0  0
   -3.8913   -3.8807    0.3164 H   0  0  0  0  0  0  0  0  0  0  0  0
   -2.5133   -4.7917   -0.3488 H   0  0  0  0  0  0  0  0  0  0  0  0
   -1.9646   -3.0326    0.7622 C   0  0  0  0  0  0  0  0  0  0  0  0
   -1.4215   -2.9023    1.8439 O   0  0  0  0  0  0  0  0  0  0  0  0
   -1.7736   -2.1056   -0.2426 N   0  0  0  0  0  0  0  0  0  0  0  0
   -2.0671   -2.4293   -1.1576 H   0  0  0  0  0  0  0  0  0  0  0  0
   -0.6527   -1.1574   -0.2674 C   0  0  1  0  0  0  0  0  0  0  0  0
    0.2761   -1.7377   -0.2557 H   0  0  0  0  0  0  0  0  0  0  0  0
   -0.6501   -0.2804   -1.5385 C   0  0  0  0  0  0  0  0  0  0  0  0
   -1.5728    0.3082   -1.5594 H   0  0  0  0  0  0  0  0  0  0  0  0
    0.1835    0.4280   -1.4738 H   0  0  0  0  0  0  0  0  0  0  0  0
   -0.5481   -1.0414   -2.8471 C   0  0  0  0  0  0  0  0  0  0  0  0
    0.3185   -0.6288   -3.8329 C   0  0  0  0  0  0  0  0  0  0  0  0
    1.0598    0.1608   -3.7252 H   0  0  0  0  0  0  0  0  0  0  0  0
    0.1273   -1.4296   -4.9502 N   0  0  0  0  0  0  0  0  0  0  0  0
    0.6585   -1.3696   -5.8169 H   0  0  0  0  0  0  0  0  0  0  0  0
   -0.9638   -2.2516   -4.7587 C   0  0  0  0  0  0  0  0  0  0  0  0
   -1.5650   -3.1447   -5.6440 C   0  0  0  0  0  0  0  0  0  0  0  0
   -1.1270   -3.3277   -6.6191 H   0  0  0  0  0  0  0  0  0  0  0  0
   -2.7537   -3.7777   -5.2685 C   0  0  0  0  0  0  0  0  0  0  0  0
   -3.2373   -4.4741   -5.9476 H   0  0  0  0  0  0  0  0  0  0  0  0
   -3.3421   -3.4727   -4.0354 C   0  0  0  0  0  0  0  0  0  0  0  0
   -4.2941   -3.9227   -3.7690 H   0  0  0  0  0  0  0  0  0  0  0  0
   -2.7237   -2.5692   -3.1594 C   0  0  0  0  0  0  0  0  0  0  0  0
   -3.2580   -2.2977   -2.2582 H   0  0  0  0  0  0  0  0  0  0  0  0
   -1.4795   -1.9976   -3.4873 C   0  0  0  0  0  0  0  0  0  0  0  0
   -0.5970   -0.2026    0.9465 C   0  0  0  0  0  0  0  0  0  0  0  0
    0.4872    0.2078    1.3418 O   0  0  0  0  0  0  0  0  0  0  0  0
   -1.7517    0.4161    1.3916 N   0  0  0  0  0  0  0  0  0  0  0  0
   -2.6196   -0.0385    1.1263 H   0  0  0  0  0  0  0  0  0  0  0  0
   -1.7643    1.3267    2.5288 C   0  0  0  0  0  0  0  0  0  0  0  0
   -1.1327    2.1986    2.3289 H   0  0  0  0  0  0  0  0  0  0  0  0
   -2.7829    1.6764    2.7212 H   0  0  0  0  0  0  0  0  0  0  0  0
   -1.3945    0.8214    3.4274 H   0  0  0  0  0  0  0  0  0  0  0  0
  1  2  1  0  0  0  0
  2  3  1  0  0  0  0
  2  4  1  0  0  0  0
  2  5  1  0  0  0  0
  5  6  2  0  0  0  0
  5  7  1  0  0  0  0
  7  8  1  0  0  0  0
  7  9  1  0  0  0  0
  9 10  1  0  0  0  0
  9 11  1  0  0  0  0
  9 29  1  0  0  0  0
 11 12  1  0  0  0  0
 11 13  1  0  0  0  0
 11 14  1  0  0  0  0
 14 15  2  0  0  0  0
 14 28  1  0  0  0  0
 15 16  1  0  0  0  0
 15 17  1  0  0  0  0
 17 18  1  0  0  0  0
 17 19  1  0  0  0  0
 19 20  1  0  0  0  0
 19 28  2  0  0  0  0
 20 21  1  0  0  0  0
 20 22  2  0  0  0  0
 22 23  1  0  0  0  0
 22 24  1  0  0  0  0
 24 25  1  0  0  0  0
 24 26  2  0  0  0  0
 26 27  1  0  0  0  0
 26 28  1  0  0  0  0
 29 30  2  0  0  0  0
 29 31  1  0  0  0  0
 31 32  1  0  0  0  0
 31 33  1  0  0  0  0
 33 34  1  0  0  0  0
 33 35  1  0  0  0  0
 33 36  1  0  0  0  0
M  END
$$$$

  -OEChem-03222214083D

 36 37  0     1  0  0  0  0  0999 V2000
   -2.9232   -4.9227    1.1188 H   0  0  0  0  0  0  0  0  0  0  0  0
   -2.9402   -4.1973    0.3005 C   0  0  0  0  0  0  0  0  0  0  0  0
   -3.9589   -3.8199    0.1849 H   0  0  0  0  0  0  0  0  0  0  0  0
   -2.6391   -4.7010   -0.6214 H   0  0  0  0  0  0  0  0  0  0  0  0
   -1.9935   -3.0502    0.5995 C   0  0  0  0  0  0  0  0  0  0  0  0
   -1.4250   -2.9956    1.6747 O   0  0  0  0  0  0  0  0  0  0  0  0
   -1.7975   -2.0718   -0.3532 N   0  0  0  0  0  0  0  0  0  0  0  0
   -2.1282   -2.3248   -1.2805 H   0  0  0  0  0  0  0  0  0  0  0  0
   -0.6665   -1.1301   -0.3350 C   0  0  1  0  0  0  0  0  0  0  0  0
    0.2593   -1.7148   -0.3644 H   0  0  0  0  0  0  0  0  0  0  0  0
   -0.6916   -0.2024   -1.5672 C   0  0  0  0  0  0  0  0  0  0  0  0
   -1.6102    0.3930   -1.5581 H   0  0  0  0  0  0  0  0  0  0  0  0
    0.1511    0.4951   -1.5050 H   0  0  0  0  0  0  0  0  0  0  0  0
   -0.6129   -0.9600   -2.8729 C   0  0  0  0  0  0  0  0  0  0  0  0
    0.3979   -0.7935   -3.7892 C   0  0  0  0  0  0  0  0  0  0  0  0
    1.2874   -0.1837   -3.6418 H   0  0  0  0  0  0  0  0  0  0  0  0
    0.0988   -1.5696   -4.9041 N   0  0  0  0  0  0  0  0  0  0  0  0
    0.6836   -1.6570   -5.7333 H   0  0  0  0  0  0  0  0  0  0  0  0
   -1.1531   -2.1410   -4.7675 C   0  0  0  0  0  0  0  0  0  0  0  0
   -1.8934   -2.9312   -5.6460 C   0  0  0  0  0  0  0  0  0  0  0  0
   -1.4699   -3.2369   -6.5964 H   0  0  0  0  0  0  0  0  0  0  0  0
   -3.1961   -3.3057   -5.2943 C   0  0  0  0  0  0  0  0  0  0  0  0
   -3.7860   -3.9186   -5.9700 H   0  0  0  0  0  0  0  0  0  0  0  0
   -3.7500   -2.8595   -4.0865 C   0  0  0  0  0  0  0  0  0  0  0  0
   -4.7749   -3.1180   -3.8364 H   0  0  0  0  0  0  0  0  0  0  0  0
   -2.9939   -2.0648   -3.2137 C   0  0  0  0  0  0  0  0  0  0  0  0
   -3.4586   -1.6814   -2.3120 H   0  0  0  0  0  0  0  0  0  0  0  0
   -1.6651   -1.7445   -3.5349 C   0  0  0  0  0  0  0  0  0  0  0  0
   -0.5880   -0.2378    0.9233 C   0  0  0  0  0  0  0  0  0  0  0  0
    0.5052    0.1391    1.3270 O   0  0  0  0  0  0  0  0  0  0  0  0
   -1.7306    0.3707    1.4114 N   0  0  0  0  0  0  0  0  0  0  0  0
   -2.6074   -0.0577    1.1320 H   0  0  0  0  0  0  0  0  0  0  0  0
   -1.7194    1.2277    2.5900 C   0  0  0  0  0  0  0  0  0  0  0  0
   -1.0579    2.0866    2.4351 H   0  0  0  0  0  0  0  0  0  0  0  0
   -2.7265    1.6028    2.7944 H   0  0  0  0  0  0  0  0  0  0  0  0
   -1.3717    0.6684    3.4649 H   0  0  0  0  0  0  0  0  0  0  0  0
  1  2  1  0  0  0  0
  2  3  1  0  0  0  0
  2  4  1  0  0  0  0
  2  5  1  0  0  0  0
  5  6  2  0  0  0  0
  5  7  1  0  0  0  0
  7  8  1  0  0  0  0
  7  9  1  0  0  0  0
  9 10  1  0  0  0  0
  9 11  1  0  0  0  0
  9 29  1  0  0  0  0
 11 12  1  0  0  0  0
 11 13  1  0  0  0  0
 11 14  1  0  0  0  0
 14 15  2  0  0  0  0
 14 28  1  0  0  0  0
 15 16  1  0  0  0  0
 15 17  1  0  0  0  0
 17 18  1  0  0  0  0
 17 19  1  0  0  0  0
 19 20  1  0  0  0  0
 19 28  2  0  0  0  0
 20 21  1  0  0  0  0
 20 22  2  0  0  0  0
 22 23  1  0  0  0  0
 22 24  1  0  0  0  0
 24 25  1  0  0  0  0
 24 26  2  0  0  0  0
 26 27  1  0  0  0  0
 26 28  1  0  0  0  0
 29 30  2  0  0  0  0
 29 31  1  0  0  0  0
 31 32  1  0  0  0  0
 31 33  1  0  0  0  0
 33 34  1  0  0  0  0
 33 35  1  0  0  0  0
 33 36  1  0  0  0  0
M  END
$$$$

  -OEChem-03222214083D

 36 37  0     1  0  0  0  0  0999 V2000
   -3.0526   -4.8986    0.8222 H   0  0  0  0  0  0  0  0  0  0  0  0
   -3.0719   -4.1092    0.0655 C   0  0  0  0  0  0  0  0  0  0  0  0
   -4.0830   -3.6997    0.0073 H   0  0  0  0  0  0  0  0  0  0  0  0
   -2.8062   -4.5443   -0.9012 H   0  0  0  0  0  0  0  0  0  0  0  0
   -2.0884   -3.0135    0.4309 C   0  0  0  0  0  0  0  0  0  0  0  0
   -1.5240   -3.0374    1.5095 O   0  0  0  0  0  0  0  0  0  0  0  0
   -1.8504   -1.9923   -0.4649 N   0  0  0  0  0  0  0  0  0  0  0  0
   -2.2073   -2.1626   -1.4028 H   0  0  0  0  0  0  0  0  0  0  0  0
   -0.6856   -1.0921   -0.3911 C   0  0  1  0  0  0  0  0  0  0  0  0
    0.2214   -1.7032   -0.4551 H   0  0  0  0  0  0  0  0  0  0  0  0
   -0.7041   -0.1160   -1.5820 C   0  0  0  0  0  0  0  0  0  0  0  0
   -1.6013    0.5100   -1.5451 H   0  0  0  0  0  0  0  0  0  0  0  0
    0.1635    0.5492   -1.5104 H   0  0  0  0  0  0  0  0  0  0  0  0
   -0.6552   -0.8531   -2.8979 C   0  0  0  0  0  0  0  0  0  0  0  0
    0.4454   -0.9501   -3.7139 C   0  0  0  0  0  0  0  0  0  0  0  0
    1.4309   -0.5418   -3.4976 H   0  0  0  0  0  0  0  0  0  0  0  0
    0.0734   -1.6826   -4.8384 N   0  0  0  0  0  0  0  0  0  0  0  0
    0.6899   -1.9225   -5.6129 H   0  0  0  0  0  0  0  0  0  0  0  0
   -1.2727   -2.0036   -4.7833 C   0  0  0  0  0  0  0  0  0  0  0  0
   -2.0971   -2.6878   -5.6765 C   0  0  0  0  0  0  0  0  0  0  0  0
   -1.6887   -3.0973   -6.5941 H   0  0  0  0  0  0  0  0  0  0  0  0
   -3.4596   -2.8281   -5.3787 C   0  0  0  0  0  0  0  0  0  0  0  0
   -4.1132   -3.3562   -6.0671 H   0  0  0  0  0  0  0  0  0  0  0  0
   -3.9835   -2.2692   -4.2037 C   0  0  0  0  0  0  0  0  0  0  0  0
   -5.0442   -2.3606   -3.9891 H   0  0  0  0  0  0  0  0  0  0  0  0
   -3.1456   -1.5815   -3.3151 C   0  0  0  0  0  0  0  0  0  0  0  0
   -3.5614   -1.1218   -2.4243 H   0  0  0  0  0  0  0  0  0  0  0  0
   -1.7772   -1.4767   -3.5994 C   0  0  0  0  0  0  0  0  0  0  0  0
   -0.5762   -0.2691    0.9103 C   0  0  0  0  0  0  0  0  0  0  0  0
    0.5300    0.0454    1.3312 O   0  0  0  0  0  0  0  0  0  0  0  0
   -1.6962    0.3562    1.4286 N   0  0  0  0  0  0  0  0  0  0  0  0
   -2.5878   -0.0258    1.1295 H   0  0  0  0  0  0  0  0  0  0  0  0
   -1.6547    1.1527    2.6481 C   0  0  0  0  0  0  0  0  0  0  0  0
   -0.9601    1.9919    2.5353 H   0  0  0  0  0  0  0  0  0  0  0  0
   -2.6472    1.5565    2.8703 H   0  0  0  0  0  0  0  0  0  0  0  0
   -1.3310    0.5381    3.4947 H   0  0  0  0  0  0  0  0  0  0  0  0
  1  2  1  0  0  0  0
  2  3  1  0  0  0  0
  2  4  1  0  0  0  0
  2  5  1  0  0  0  0
  5  6  2  0  0  0  0
  5  7  1  0  0  0  0
  7  8  1  0  0  0  0
  7  9  1  0  0  0  0
  9 10  1  0  0  0  0
  9 11  1  0  0  0  0
  9 29  1  0  0  0  0
 11 12  1  0  0  0  0
 11 13  1  0  0  0  0
 11 14  1  0  0  0  0
 14 15  2  0  0  0  0
 14 28  1  0  0  0  0
 15 16  1  0  0  0  0
 15 17  1  0  0  0  0
 17 18  1  0  0  0  0
 17 19  1  0  0  0  0
 19 20  1  0  0  0  0
 19 28  2  0  0  0  0
 20 21  1  0  0  0  0
 20 22  2  0  0  0  0
 22 23  1  0  0  0  0
 22 24  1  0  0  0  0
 24 25  1  0  0  0  0
 24 26  2  0  0  0  0
 26 27  1  0  0  0  0
 26 28  1  0  0  0  0
 29 30  2  0  0  0  0
 29 31  1  0  0  0  0
 31 32  1  0  0  0  0
 31 33  1  0  0  0  0
 33 34  1  0  0  0  0
 33 35  1  0  0  0  0
 33 36  1  0  0  0  0
M  END
$$$$

  -OEChem-03222214083D

 36 37  0     1  0  0  0  0  0999 V2000
   -3.2310   -4.8085    0.6262 H   0  0  0  0  0  0  0  0  0  0  0  0
   -3.1973   -3.9973   -0.1065 C   0  0  0  0  0  0  0  0  0  0  0  0
   -4.1817   -3.5259   -0.1575 H   0  0  0  0  0  0  0  0  0  0  0  0
   -2.9513   -4.4180   -1.0847 H   0  0  0  0  0  0  0  0  0  0  0  0
   -2.1527   -2.9735    0.2950 C   0  0  0  0  0  0  0  0  0  0  0  0
   -1.5765   -3.0773    1.3628 O   0  0  0  0  0  0  0  0  0  0  0  0
   -1.8727   -1.9237   -0.5539 N   0  0  0  0  0  0  0  0  0  0  0  0
   -2.2549   -2.0162   -1.4936 H   0  0  0  0  0  0  0  0  0  0  0  0
   -0.6832   -1.0596   -0.4321 C   0  0  1  0  0  0  0  0  0  0  0  0
    0.2101   -1.6882   -0.5166 H   0  0  0  0  0  0  0  0  0  0  0  0
   -0.6889   -0.0470   -1.5884 C   0  0  0  0  0  0  0  0  0  0  0  0
   -1.5704    0.5993   -1.5322 H   0  0  0  0  0  0  0  0  0  0  0  0
    0.1947    0.5949   -1.5054 H   0  0  0  0  0  0  0  0  0  0  0  0
   -0.6560   -0.7627   -2.9142 C   0  0  0  0  0  0  0  0  0  0  0  0
    0.4708   -1.1238   -3.6112 C   0  0  0  0  0  0  0  0  0  0  0  0
    1.4961   -0.9307   -3.3007 H   0  0  0  0  0  0  0  0  0  0  0  0
    0.0552   -1.7953   -4.7591 N   0  0  0  0  0  0  0  0  0  0  0  0
    0.6745   -2.1824   -5.4691 H   0  0  0  0  0  0  0  0  0  0  0  0
   -1.3283   -1.8545   -4.8127 C   0  0  0  0  0  0  0  0  0  0  0  0
   -2.2000   -2.4114   -5.7482 C   0  0  0  0  0  0  0  0  0  0  0  0
   -1.8100   -2.9157   -6.6258 H   0  0  0  0  0  0  0  0  0  0  0  0
   -3.5827   -2.3064   -5.5414 C   0  0  0  0  0  0  0  0  0  0  0  0
   -4.2719   -2.7335   -6.2643 H   0  0  0  0  0  0  0  0  0  0  0  0
   -4.0770   -1.6415   -4.4087 C   0  0  0  0  0  0  0  0  0  0  0  0
   -5.1491   -1.5514   -4.2606 H   0  0  0  0  0  0  0  0  0  0  0  0
   -3.1920   -1.0844   -3.4751 C   0  0  0  0  0  0  0  0  0  0  0  0
   -3.5728   -0.5549   -2.6075 H   0  0  0  0  0  0  0  0  0  0  0  0
   -1.8132   -1.2069   -3.6825 C   0  0  0  0  0  0  0  0  0  0  0  0
   -0.5625   -0.2914    0.9007 C   0  0  0  0  0  0  0  0  0  0  0  0
    0.5481   -0.0237    1.3420 O   0  0  0  0  0  0  0  0  0  0  0  0
   -1.6698    0.3450    1.4324 N   0  0  0  0  0  0  0  0  0  0  0  0
   -2.5689   -0.0032    1.1148 H   0  0  0  0  0  0  0  0  0  0  0  0
   -1.6166    1.1042    2.6749 C   0  0  0  0  0  0  0  0  0  0  0  0
   -0.8977    1.9261    2.5923 H   0  0  0  0  0  0  0  0  0  0  0  0
   -2.5991    1.5294    2.9003 H   0  0  0  0  0  0  0  0  0  0  0  0
   -1.3179    0.4567    3.5059 H   0  0  0  0  0  0  0  0  0  0  0  0
  1  2  1  0  0  0  0
  2  3  1  0  0  0  0
  2  4  1  0  0  0  0
  2  5  1  0  0  0  0
  5  6  2  0  0  0  0
  5  7  1  0  0  0  0
  7  8  1  0  0  0  0
  7  9  1  0  0  0  0
  9 10  1  0  0  0  0
  9 11  1  0  0  0  0
  9 29  1  0  0  0  0
 11 12  1  0  0  0  0
 11 13  1  0  0  0  0
 11 14  1  0  0  0  0
 14 15  2  0  0  0  0
 14 28  1  0  0  0  0
 15 16  1  0  0  0  0
 15 17  1  0  0  0  0
 17 18  1  0  0  0  0
 17 19  1  0  0  0  0
 19 20  1  0  0  0  0
 19 28  2  0  0  0  0
 20 21  1  0  0  0  0
 20 22  2  0  0  0  0
 22 23  1  0  0  0  0
 22 24  1  0  0  0  0
 24 25  1  0  0  0  0
 24 26  2  0  0  0  0
 26 27  1  0  0  0  0
 26 28  1  0  0  0  0
 29 30  2  0  0  0  0
 29 31  1  0  0  0  0
 31 32  1  0  0  0  0
 31 33  1  0  0  0  0
 33 34  1  0  0  0  0
 33 35  1  0  0  0  0
 33 36  1  0  0  0  0
M  END
$$$$

  -OEChem-03222214083D

 36 37  0     1  0  0  0  0  0999 V2000
   -3.3608   -4.7199    0.5550 H   0  0  0  0  0  0  0  0  0  0  0  0
   -3.2705   -3.9220   -0.1876 C   0  0  0  0  0  0  0  0  0  0  0  0
   -4.2291   -3.4038   -0.2663 H   0  0  0  0  0  0  0  0  0  0  0  0
   -3.0245   -4.3678   -1.1545 H   0  0  0  0  0  0  0  0  0  0  0  0
   -2.1850   -2.9457    0.2248 C   0  0  0  0  0  0  0  0  0  0  0  0
   -1.5976   -3.0992    1.2805 O   0  0  0  0  0  0  0  0  0  0  0  0
   -1.8751   -1.8844   -0.5992 N   0  0  0  0  0  0  0  0  0  0  0  0
   -2.2765   -1.9240   -1.5347 H   0  0  0  0  0  0  0  0  0  0  0  0
   -0.6712   -1.0445   -0.4470 C   0  0  1  0  0  0  0  0  0  0  0  0
    0.2130   -1.6848   -0.5370 H   0  0  0  0  0  0  0  0  0  0  0  0
   -0.6655   -0.0141   -1.5852 C   0  0  0  0  0  0  0  0  0  0  0  0
   -1.5392    0.6411   -1.5160 H   0  0  0  0  0  0  0  0  0  0  0  0
    0.2250    0.6172   -1.4954 H   0  0  0  0  0  0  0  0  0  0  0  0
   -0.6386   -0.7140   -2.9190 C   0  0  0  0  0  0  0  0  0  0  0  0
    0.4482   -1.3320   -3.4881 C   0  0  0  0  0  0  0  0  0  0  0  0
    1.4521   -1.3598   -3.0682 H   0  0  0  0  0  0  0  0  0  0  0  0
    0.0195   -1.9230   -4.6745 N   0  0  0  0  0  0  0  0  0  0  0  0
    0.6116   -2.4460   -5.3174 H   0  0  0  0  0  0  0  0  0  0  0  0
   -1.3347   -1.6998   -4.8657 C   0  0  0  0  0  0  0  0  0  0  0  0
   -2.2084   -2.0944   -5.8787 C   0  0  0  0  0  0  0  0  0  0  0  0
   -1.8459   -2.6837   -6.7140 H   0  0  0  0  0  0  0  0  0  0  0  0
   -3.5571   -1.7190   -5.8021 C   0  0  0  0  0  0  0  0  0  0  0  0
   -4.2474   -2.0182   -6.5856 H   0  0  0  0  0  0  0  0  0  0  0  0
   -4.0149   -0.9537   -4.7184 C   0  0  0  0  0  0  0  0  0  0  0  0
   -5.0591   -0.6596   -4.6673 H   0  0  0  0  0  0  0  0  0  0  0  0
   -3.1274   -0.5605   -3.7067 C   0  0  0  0  0  0  0  0  0  0  0  0
   -3.4773    0.0407   -2.8737 H   0  0  0  0  0  0  0  0  0  0  0  0
   -1.7841   -0.9432   -3.7897 C   0  0  0  0  0  0  0  0  0  0  0  0
   -0.5489   -0.3034    0.9007 C   0  0  0  0  0  0  0  0  0  0  0  0
    0.5620   -0.0696    1.3599 O   0  0  0  0  0  0  0  0  0  0  0  0
   -1.6485    0.3448    1.4342 N   0  0  0  0  0  0  0  0  0  0  0  0
   -2.5524    0.0338    1.0928 H   0  0  0  0  0  0  0  0  0  0  0  0
   -1.5918    1.0881    2.6862 C   0  0  0  0  0  0  0  0  0  0  0  0
   -0.8713    1.9094    2.6121 H   0  0  0  0  0  0  0  0  0  0  0  0
   -2.5732    1.5119    2.9191 H   0  0  0  0  0  0  0  0  0  0  0  0
   -1.2926    0.4295    3.5083 H   0  0  0  0  0  0  0  0  0  0  0  0
  1  2  1  0  0  0  0
  2  3  1  0  0  0  0
  2  4  1  0  0  0  0
  2  5  1  0  0  0  0
  5  6  2  0  0  0  0
  5  7  1  0  0  0  0
  7  8  1  0  0  0  0
  7  9  1  0  0  0  0
  9 10  1  0  0  0  0
  9 11  1  0  0  0  0
  9 29  1  0  0  0  0
 11 12  1  0  0  0  0
 11 13  1  0  0  0  0
 11 14  1  0  0  0  0
 14 15  2  0  0  0  0
 14 28  1  0  0  0  0
 15 16  1  0  0  0  0
 15 17  1  0  0  0  0
 17 18  1  0  0  0  0
 17 19  1  0  0  0  0
 19 20  1  0  0  0  0
 19 28  2  0  0  0  0
 20 21  1  0  0  0  0
 20 22  2  0  0  0  0
 22 23  1  0  0  0  0
 22 24  1  0  0  0  0
 24 25  1  0  0  0  0
 24 26  2  0  0  0  0
 26 27  1  0  0  0  0
 26 28  1  0  0  0  0
 29 30  2  0  0  0  0
 29 31  1  0  0  0  0
 31 32  1  0  0  0  0
 31 33  1  0  0  0  0
 33 34  1  0  0  0  0
 33 35  1  0  0  0  0
 33 36  1  0  0  0  0
M  END
$$$$

  -OEChem-03222214083D

 36 37  0     1  0  0  0  0  0999 V2000
   -3.3505   -4.7223    0.6063 H   0  0  0  0  0  0  0  0  0  0  0  0
   -3.2773   -3.9190   -0.1324 C   0  0  0  0  0  0  0  0  0  0  0  0
   -4.2340   -3.3932   -0.1764 H   0  0  0  0  0  0  0  0  0  0  0  0
   -3.0653   -4.3585   -1.1104 H   0  0  0  0  0  0  0  0  0  0  0  0
   -2.1712   -2.9549    0.2534 C   0  0  0  0  0  0  0  0  0  0  0  0
   -1.5529   -3.1204    1.2893 O   0  0  0  0  0  0  0  0  0  0  0  0
   -1.8688   -1.8961   -0.5766 N   0  0  0  0  0  0  0  0  0  0  0  0
   -2.3028   -1.9155   -1.4976 H   0  0  0  0  0  0  0  0  0  0  0  0
   -0.6676   -1.0507   -0.4361 C   0  0  1  0  0  0  0  0  0  0  0  0
    0.2188   -1.6878   -0.5233 H   0  0  0  0  0  0  0  0  0  0  0  0
   -0.6726   -0.0292   -1.5822 C   0  0  0  0  0  0  0  0  0  0  0  0
   -1.5540    0.6143   -1.5052 H   0  0  0  0  0  0  0  0  0  0  0  0
    0.2107    0.6137   -1.5027 H   0  0  0  0  0  0  0  0  0  0  0  0
   -0.6498   -0.7293   -2.9181 C   0  0  0  0  0  0  0  0  0  0  0  0
    0.3302   -1.5816   -3.3684 C   0  0  0  0  0  0  0  0  0  0  0  0
    1.2465   -1.8306   -2.8361 H   0  0  0  0  0  0  0  0  0  0  0  0
   -0.0739   -2.0695   -4.6084 N   0  0  0  0  0  0  0  0  0  0  0  0
    0.4620   -2.7113   -5.1901 H   0  0  0  0  0  0  0  0  0  0  0  0
   -1.3067   -1.5426   -4.9573 C   0  0  0  0  0  0  0  0  0  0  0  0
   -2.1111   -1.7307   -6.0810 C   0  0  0  0  0  0  0  0  0  0  0  0
   -1.7909   -2.3920   -6.8786 H   0  0  0  0  0  0  0  0  0  0  0  0
   -3.3349   -1.0525   -6.1661 C   0  0  0  0  0  0  0  0  0  0  0  0
   -3.9697   -1.1873   -7.0371 H   0  0  0  0  0  0  0  0  0  0  0  0
   -3.7377   -0.1954   -5.1307 C   0  0  0  0  0  0  0  0  0  0  0  0
   -4.6834    0.3335   -5.2040 H   0  0  0  0  0  0  0  0  0  0  0  0
   -2.9208   -0.0136   -4.0056 C   0  0  0  0  0  0  0  0  0  0  0  0
   -3.2284    0.6566   -3.2097 H   0  0  0  0  0  0  0  0  0  0  0  0
   -1.7020   -0.6967   -3.9267 C   0  0  0  0  0  0  0  0  0  0  0  0
   -0.5418   -0.3026    0.9078 C   0  0  0  0  0  0  0  0  0  0  0  0
    0.5707   -0.0605    1.3586 O   0  0  0  0  0  0  0  0  0  0  0  0
   -1.6411    0.3433    1.4447 N   0  0  0  0  0  0  0  0  0  0  0  0
   -2.5460    0.0285    1.1095 H   0  0  0  0  0  0  0  0  0  0  0  0
   -1.5807    1.0987    2.6894 C   0  0  0  0  0  0  0  0  0  0  0  0
   -0.8567    1.9163    2.6075 H   0  0  0  0  0  0  0  0  0  0  0  0
   -2.5601    1.5292    2.9179 H   0  0  0  0  0  0  0  0  0  0  0  0
   -1.2842    0.4475    3.5182 H   0  0  0  0  0  0  0  0  0  0  0  0
  1  2  1  0  0  0  0
  2  3  1  0  0  0  0
  2  4  1  0  0  0  0
  2  5  1  0  0  0  0
  5  6  2  0  0  0  0
  5  7  1  0  0  0  0
  7  8  1  0  0  0  0
  7  9  1  0  0  0  0
  9 10  1  0  0  0  0
  9 11  1  0  0  0  0
  9 29  1  0  0  0  0
 11 12  1  0  0  0  0
 11 13  1  0  0  0  0
 11 14  1  0  0  0  0
 14 15  2  0  0  0  0
 14 28  1  0  0  0  0
 15 16  1  0  0  0  0
 15 17  1  0  0  0  0
 17 18  1  0  0  0  0
 17 19  1  0  0  0  0
 19 20  1  0  0  0  0
 19 28  2  0  0  0  0
 20 21  1  0  0  0  0
 20 22  2  0  0  0  0
 22 23  1  0  0  0  0
 22 24  1  0  0  0  0
 24 25  1  0  0  0  0
 24 26  2  0  0  0  0
 26 27  1  0  0  0  0
 26 28  1  0  0  0  0
 29 30  2  0  0  0  0
 29 31  1  0  0  0  0
 31 32  1  0  0  0  0
 31 33  1  0  0  0  0
 33 34  1  0  0  0  0
 33 35  1  0  0  0  0
 33 36  1  0  0  0  0
M  END
$$$$

  -OEChem-03222214083D

 36 37  0     1  0  0  0  0  0999 V2000
   -3.3067   -4.7402    0.7006 H   0  0  0  0  0  0  0  0  0  0  0  0
   -3.2718   -3.9256   -0.0287 C   0  0  0  0  0  0  0  0  0  0  0  0
   -4.2283   -3.3979   -0.0139 H   0  0  0  0  0  0  0  0  0  0  0  0
   -3.1132   -4.3513   -1.0225 H   0  0  0  0  0  0  0  0  0  0  0  0
   -2.1453   -2.9681    0.3112 C   0  0  0  0  0  0  0  0  0  0  0  0
   -1.4951   -3.1292    1.3279 O   0  0  0  0  0  0  0  0  0  0  0  0
   -1.8578   -1.9217   -0.5400 N   0  0  0  0  0  0  0  0  0  0  0  0
   -2.3282   -1.9344   -1.4429 H   0  0  0  0  0  0  0  0  0  0  0  0
   -0.6643   -1.0615   -0.4262 C   0  0  1  0  0  0  0  0  0  0  0  0
    0.2299   -1.6887   -0.5013 H   0  0  0  0  0  0  0  0  0  0  0  0
   -0.6885   -0.0632   -1.5936 C   0  0  0  0  0  0  0  0  0  0  0  0
   -1.5845    0.5600   -1.5153 H   0  0  0  0  0  0  0  0  0  0  0  0
    0.1804    0.6006   -1.5312 H   0  0  0  0  0  0  0  0  0  0  0  0
   -0.6695   -0.7681   -2.9302 C   0  0  0  0  0  0  0  0  0  0  0  0
    0.1376   -1.8218   -3.2936 C   0  0  0  0  0  0  0  0  0  0  0  0
    0.9058   -2.2773   -2.6716 H   0  0  0  0  0  0  0  0  0  0  0  0
   -0.2116   -2.1954   -4.5885 N   0  0  0  0  0  0  0  0  0  0  0  0
    0.2355   -2.9345   -5.1282 H   0  0  0  0  0  0  0  0  0  0  0  0
   -1.2325   -1.3900   -5.0648 C   0  0  0  0  0  0  0  0  0  0  0  0
   -1.9051   -1.3728   -6.2867 C   0  0  0  0  0  0  0  0  0  0  0  0
   -1.6469   -2.0839   -7.0637 H   0  0  0  0  0  0  0  0  0  0  0  0
   -2.9143   -0.4232   -6.4971 C   0  0  0  0  0  0  0  0  0  0  0  0
   -3.4447   -0.3963   -7.4444 H   0  0  0  0  0  0  0  0  0  0  0  0
   -3.2358    0.4966   -5.4876 C   0  0  0  0  0  0  0  0  0  0  0  0
   -4.0138    1.2351   -5.6565 H   0  0  0  0  0  0  0  0  0  0  0  0
   -2.5517    0.4707   -4.2636 C   0  0  0  0  0  0  0  0  0  0  0  0
   -2.7941    1.1883   -3.4866 H   0  0  0  0  0  0  0  0  0  0  0  0
   -1.5477   -0.4827   -4.0592 C   0  0  0  0  0  0  0  0  0  0  0  0
   -0.5415   -0.2891    0.9044 C   0  0  0  0  0  0  0  0  0  0  0  0
    0.5685   -0.0402    1.3570 O   0  0  0  0  0  0  0  0  0  0  0  0
   -1.6456    0.3530    1.4364 N   0  0  0  0  0  0  0  0  0  0  0  0
   -2.5480    0.0364    1.0966 H   0  0  0  0  0  0  0  0  0  0  0  0
   -1.5936    1.1028    2.6850 C   0  0  0  0  0  0  0  0  0  0  0  0
   -0.8599    1.9130    2.6166 H   0  0  0  0  0  0  0  0  0  0  0  0
   -2.5715    1.5430    2.9021 H   0  0  0  0  0  0  0  0  0  0  0  0
   -1.3157    0.4446    3.5150 H   0  0  0  0  0  0  0  0  0  0  0  0
  1  2  1  0  0  0  0
  2  3  1  0  0  0  0
  2  4  1  0  0  0  0
  2  5  1  0  0  0  0
  5  6  2  0  0  0  0
  5  7  1  0  0  0  0
  7  8  1  0  0  0  0
  7  9  1  0  0  0  0
  9 10  1  0  0  0  0
  9 11  1  0  0  0  0
  9 29  1  0  0  0  0
 11 12  1  0  0  0  0
 11 13  1  0  0  0  0
 11 14  1  0  0  0  0
 14 15  2  0  0  0  0
 14 28  1  0  0  0  0
 15 16  1  0  0  0  0
 15 17  1  0  0  0  0
 17 18  1  0  0  0  0
 17 19  1  0  0  0  0
 19 20  1  0  0  0  0
 19 28  2  0  0  0  0
 20 21  1  0  0  0  0
 20 22  2  0  0  0  0
 22 23  1  0  0  0  0
 22 24  1  0  0  0  0
 24 25  1  0  0  0  0
 24 26  2  0  0  0  0
 26 27  1  0  0  0  0
 26 28  1  0  0  0  0
 29 30  2  0  0  0  0
 29 31  1  0  0  0  0
 31 32  1  0  0  0  0
 31 33  1  0  0  0  0
 33 34  1  0  0  0  0
 33 35  1  0  0  0  0
 33 36  1  0  0  0  0
M  END
$$$$

  -OEChem-03222214083D

 36 37  0     1  0  0  0  0  0999 V2000
   -3.3099   -4.7315    0.7788 H   0  0  0  0  0  0  0  0  0  0  0  0
   -3.2790   -3.9244    0.0412 C   0  0  0  0  0  0  0  0  0  0  0  0
   -4.2267   -3.3814    0.0731 H   0  0  0  0  0  0  0  0  0  0  0  0
   -3.1505   -4.3618   -0.9519 H   0  0  0  0  0  0  0  0  0  0  0  0
   -2.1302   -2.9819    0.3462 C   0  0  0  0  0  0  0  0  0  0  0  0
   -1.4541   -3.1472    1.3448 O   0  0  0  0  0  0  0  0  0  0  0  0
   -1.8484   -1.9458   -0.5192 N   0  0  0  0  0  0  0  0  0  0  0  0
   -2.3547   -1.9409   -1.4021 H   0  0  0  0  0  0  0  0  0  0  0  0
   -0.6606   -1.0750   -0.4230 C   0  0  1  0  0  0  0  0  0  0  0  0
    0.2400   -1.6934   -0.4900 H   0  0  0  0  0  0  0  0  0  0  0  0
   -0.6960   -0.0955   -1.6064 C   0  0  0  0  0  0  0  0  0  0  0  0
   -1.6012    0.5156   -1.5323 H   0  0  0  0  0  0  0  0  0  0  0  0
    0.1636    0.5809   -1.5524 H   0  0  0  0  0  0  0  0  0  0  0  0
   -0.6764   -0.7998   -2.9451 C   0  0  0  0  0  0  0  0  0  0  0  0
   -0.0923   -2.0087   -3.2529 C   0  0  0  0  0  0  0  0  0  0  0  0
    0.4773   -2.6334   -2.5677 H   0  0  0  0  0  0  0  0  0  0  0  0
   -0.3629   -2.2834   -4.5906 N   0  0  0  0  0  0  0  0  0  0  0  0
   -0.0280   -3.0967   -5.1040 H   0  0  0  0  0  0  0  0  0  0  0  0
   -1.1109   -1.2619   -5.1510 C   0  0  0  0  0  0  0  0  0  0  0  0
   -1.6144   -1.0798   -6.4390 C   0  0  0  0  0  0  0  0  0  0  0  0
   -1.4368   -1.8247   -7.2069 H   0  0  0  0  0  0  0  0  0  0  0  0
   -2.3493    0.0786   -6.7274 C   0  0  0  0  0  0  0  0  0  0  0  0
   -2.7458    0.2351   -7.7263 H   0  0  0  0  0  0  0  0  0  0  0  0
   -2.5685    1.0394   -5.7283 C   0  0  0  0  0  0  0  0  0  0  0  0
   -3.1331    1.9385   -5.9563 H   0  0  0  0  0  0  0  0  0  0  0  0
   -2.0558    0.8461   -4.4374 C   0  0  0  0  0  0  0  0  0  0  0  0
   -2.2172    1.5917   -3.6658 H   0  0  0  0  0  0  0  0  0  0  0  0
   -1.3267   -0.3146   -4.1566 C   0  0  0  0  0  0  0  0  0  0  0  0
   -0.5426   -0.2823    0.8963 C   0  0  0  0  0  0  0  0  0  0  0  0
    0.5647   -0.0268    1.3514 O   0  0  0  0  0  0  0  0  0  0  0  0
   -1.6510    0.3586    1.4210 N   0  0  0  0  0  0  0  0  0  0  0  0
   -2.5516    0.0438    1.0752 H   0  0  0  0  0  0  0  0  0  0  0  0
   -1.6059    1.1184    2.6638 C   0  0  0  0  0  0  0  0  0  0  0  0
   -0.8728    1.9291    2.5932 H   0  0  0  0  0  0  0  0  0  0  0  0
   -2.5854    1.5588    2.8728 H   0  0  0  0  0  0  0  0  0  0  0  0
   -1.3315    0.4666    3.5001 H   0  0  0  0  0  0  0  0  0  0  0  0
  1  2  1  0  0  0  0
  2  3  1  0  0  0  0
  2  4  1  0  0  0  0
  2  5  1  0  0  0  0
  5  6  2  0  0  0  0
  5  7  1  0  0  0  0
  7  8  1  0  0  0  0
  7  9  1  0  0  0  0
  9 10  1  0  0  0  0
  9 11  1  0  0  0  0
  9 29  1  0  0  0  0
 11 12  1  0  0  0  0
 11 13  1  0  0  0  0
 11 14  1  0  0  0  0
 14 15  2  0  0  0  0
 14 28  1  0  0  0  0
 15 16  1  0  0  0  0
 15 17  1  0  0  0  0
 17 18  1  0  0  0  0
 17 19  1  0  0  0  0
 19 20  1  0  0  0  0
 19 28  2  0  0  0  0
 20 21  1  0  0  0  0
 20 22  2  0  0  0  0
 22 23  1  0  0  0  0
 22 24  1  0  0  0  0
 24 25  1  0  0  0  0
 24 26  2  0  0  0  0
 26 27  1  0  0  0  0
 26 28  1  0  0  0  0
 29 30  2  0  0  0  0
 29 31  1  0  0  0  0
 31 32  1  0  0  0  0
 31 33  1  0  0  0  0
 33 34  1  0  0  0  0
 33 35  1  0  0  0  0
 33 36  1  0  0  0  0
M  END
$$$$

  -OEChem-03222214083D

 36 37  0     1  0  0  0  0  0999 V2000
   -3.3221   -4.7252    0.8526 H   0  0  0  0  0  0  0  0  0  0  0  0
   -3.2934   -3.9285    0.1038 C   0  0  0  0  0  0  0  0  0  0  0  0
   -4.2321   -3.3712    0.1462 H   0  0  0  0  0  0  0  0  0  0  0  0
   -3.1901   -4.3809   -0.8855 H   0  0  0  0  0  0  0  0  0  0  0  0
   -2.1255   -2.9992    0.3753 C   0  0  0  0  0  0  0  0  0  0  0  0
   -1.4222   -3.1723    1.3535 O   0  0  0  0  0  0  0  0  0  0  0  0
   -1.8524   -1.9708   -0.5021 N   0  0  0  0  0  0  0  0  0  0  0  0
   -2.3991   -1.9423   -1.3597 H   0  0  0  0  0  0  0  0  0  0  0  0
   -0.6682   -1.0924   -0.4246 C   0  0  1  0  0  0  0  0  0  0  0  0
    0.2351   -1.7083   -0.4926 H   0  0  0  0  0  0  0  0  0  0  0  0
   -0.7080   -0.1275   -1.6201 C   0  0  0  0  0  0  0  0  0  0  0  0
   -1.6129    0.4849   -1.5519 H   0  0  0  0  0  0  0  0  0  0  0  0
    0.1521    0.5489   -1.5689 H   0  0  0  0  0  0  0  0  0  0  0  0
   -0.6881   -0.8281   -2.9618 C   0  0  0  0  0  0  0  0  0  0  0  0
   -0.3615   -2.1375   -3.2427 C   0  0  0  0  0  0  0  0  0  0  0  0
   -0.0277   -2.8796   -2.5199 H   0  0  0  0  0  0  0  0  0  0  0  0
   -0.5269   -2.3344   -4.6110 N   0  0  0  0  0  0  0  0  0  0  0  0
   -0.3218   -3.1973   -5.1114 H   0  0  0  0  0  0  0  0  0  0  0  0
   -0.9541   -1.1655   -5.2179 C   0  0  0  0  0  0  0  0  0  0  0  0
   -1.2472   -0.8622   -6.5474 C   0  0  0  0  0  0  0  0  0  0  0  0
   -1.1507   -1.6209   -7.3162 H   0  0  0  0  0  0  0  0  0  0  0  0
   -1.6639    0.4356   -6.8755 C   0  0  0  0  0  0  0  0  0  0  0  0
   -1.8932    0.6869   -7.9069 H   0  0  0  0  0  0  0  0  0  0  0  0
   -1.7806    1.4116   -5.8737 C   0  0  0  0  0  0  0  0  0  0  0  0
   -2.0994    2.4168   -6.1321 H   0  0  0  0  0  0  0  0  0  0  0  0
   -1.4810    1.0953   -4.5407 C   0  0  0  0  0  0  0  0  0  0  0  0
   -1.5630    1.8491   -3.7645 H   0  0  0  0  0  0  0  0  0  0  0  0
   -1.0674   -0.2024   -4.2221 C   0  0  0  0  0  0  0  0  0  0  0  0
   -0.5442   -0.2836    0.8842 C   0  0  0  0  0  0  0  0  0  0  0  0
    0.5647   -0.0176    1.3287 O   0  0  0  0  0  0  0  0  0  0  0  0
   -1.6514    0.3583    1.4103 N   0  0  0  0  0  0  0  0  0  0  0  0
   -2.5544    0.0412    1.0731 H   0  0  0  0  0  0  0  0  0  0  0  0
   -1.5976    1.1481    2.6340 C   0  0  0  0  0  0  0  0  0  0  0  0
   -0.8696    1.9605    2.5367 H   0  0  0  0  0  0  0  0  0  0  0  0
   -2.5768    1.5889    2.8429 H   0  0  0  0  0  0  0  0  0  0  0  0
   -1.3104    0.5182    3.4824 H   0  0  0  0  0  0  0  0  0  0  0  0
  1  2  1  0  0  0  0
  2  3  1  0  0  0  0
  2  4  1  0  0  0  0
  2  5  1  0  0  0  0
  5  6  2  0  0  0  0
  5  7  1  0  0  0  0
  7  8  1  0  0  0  0
  7  9  1  0  0  0  0
  9 10  1  0  0  0  0
  9 11  1  0  0  0  0
  9 29  1  0  0  0  0
 11 12  1  0  0  0  0
 11 13  1  0  0  0  0
 11 14  1  0  0  0  0
 14 15  2  0  0  0  0
 14 28  1  0  0  0  0
 15 16  1  0  0  0  0
 15 17  1  0  0  0  0
 17 18  1  0  0  0  0
 17 19  1  0  0  0  0
 19 20  1  0  0  0  0
 19 28  2  0  0  0  0
 20 21  1  0  0  0  0
 20 22  2  0  0  0  0
 22 23  1  0  0  0  0
 22 24  1  0  0  0  0
 24 25  1  0  0  0  0
 24 26  2  0  0  0  0
 26 27  1  0  0  0  0
 26 28  1  0  0  0  0
 29 30  2  0  0  0  0
 29 31  1  0  0  0  0
 31 32  1  0  0  0  0
 31 33  1  0  0  0  0
 33 34  1  0  0  0  0
 33 35  1  0  0  0  0
 33 36  1  0  0  0  0
M  END
$$$$

  -OEChem-03222214083D

 36 37  0     1  0  0  0  0  0999 V2000
   -3.3493   -4.6859    0.9732 H   0  0  0  0  0  0  0  0  0  0  0  0
   -3.3222   -3.9103    0.2021 C   0  0  0  0  0  0  0  0  0  0  0  0
   -4.2382   -3.3185    0.2663 H   0  0  0  0  0  0  0  0  0  0  0  0
   -3.2743   -4.3913   -0.7779 H   0  0  0  0  0  0  0  0  0  0  0  0
   -2.1127   -3.0172    0.4040 C   0  0  0  0  0  0  0  0  0  0  0  0
   -1.3671   -3.2061    1.3468 O   0  0  0  0  0  0  0  0  0  0  0  0
   -1.8555   -1.9979   -0.4892 N   0  0  0  0  0  0  0  0  0  0  0  0
   -2.4658   -1.9249   -1.2997 H   0  0  0  0  0  0  0  0  0  0  0  0
   -0.6741   -1.1122   -0.4361 C   0  0  1  0  0  0  0  0  0  0  0  0
    0.2280   -1.7305   -0.5028 H   0  0  0  0  0  0  0  0  0  0  0  0
   -0.7058   -0.1608   -1.6448 C   0  0  0  0  0  0  0  0  0  0  0  0
   -1.6020    0.4654   -1.5869 H   0  0  0  0  0  0  0  0  0  0  0  0
    0.1630    0.5042   -1.5892 H   0  0  0  0  0  0  0  0  0  0  0  0
   -0.6809   -0.8546   -2.9914 C   0  0  0  0  0  0  0  0  0  0  0  0
   -0.6314   -2.2019   -3.2801 C   0  0  0  0  0  0  0  0  0  0  0  0
   -0.5498   -3.0065   -2.5522 H   0  0  0  0  0  0  0  0  0  0  0  0
   -0.6832   -2.3463   -4.6640 N   0  0  0  0  0  0  0  0  0  0  0  0
   -0.6253   -3.2292   -5.1680 H   0  0  0  0  0  0  0  0  0  0  0  0
   -0.7680   -1.1064   -5.2743 C   0  0  0  0  0  0  0  0  0  0  0  0
   -0.8421   -0.7331   -6.6163 C   0  0  0  0  0  0  0  0  0  0  0  0
   -0.8384   -1.4872   -7.3955 H   0  0  0  0  0  0  0  0  0  0  0  0
   -0.9213    0.6279   -6.9434 C   0  0  0  0  0  0  0  0  0  0  0  0
   -0.9801    0.9334   -7.9839 H   0  0  0  0  0  0  0  0  0  0  0  0
   -0.9224    1.5966   -5.9279 C   0  0  0  0  0  0  0  0  0  0  0  0
   -0.9804    2.6502   -6.1849 H   0  0  0  0  0  0  0  0  0  0  0  0
   -0.8454    1.2093   -4.5822 C   0  0  0  0  0  0  0  0  0  0  0  0
   -0.8407    1.9557   -3.7944 H   0  0  0  0  0  0  0  0  0  0  0  0
   -0.7693   -0.1510   -4.2650 C   0  0  0  0  0  0  0  0  0  0  0  0
   -0.5453   -0.2901    0.8643 C   0  0  0  0  0  0  0  0  0  0  0  0
    0.5640   -0.0117    1.2999 O   0  0  0  0  0  0  0  0  0  0  0  0
   -1.6538    0.3485    1.3923 N   0  0  0  0  0  0  0  0  0  0  0  0
   -2.5575    0.0303    1.0586 H   0  0  0  0  0  0  0  0  0  0  0  0
   -1.5985    1.1531    2.6063 C   0  0  0  0  0  0  0  0  0  0  0  0
   -0.8782    1.9703    2.4934 H   0  0  0  0  0  0  0  0  0  0  0  0
   -2.5801    1.5884    2.8166 H   0  0  0  0  0  0  0  0  0  0  0  0
   -1.3009    0.5362    3.4608 H   0  0  0  0  0  0  0  0  0  0  0  0
  1  2  1  0  0  0  0
  2  3  1  0  0  0  0
  2  4  1  0  0  0  0
  2  5  1  0  0  0  0
  5  6  2  0  0  0  0
  5  7  1  0  0  0  0
  7  8  1  0  0  0  0
  7  9  1  0  0  0  0
  9 10  1  0  0  0  0
  9 11  1  0  0  0  0
  9 29  1  0  0  0  0
 11 12  1  0  0  0  0
 11 13  1  0  0  0  0
 11 14  1  0  0  0  0
 14 15  2  0  0  0  0
 14 28  1  0  0  0  0
 15 16  1  0  0  0  0
 15 17  1  0  0  0  0
 17 18  1  0  0  0  0
 17 19  1  0  0  0  0
 19 20  1  0  0  0  0
 19 28  2  0  0  0  0
 20 21  1  0  0  0  0
 20 22  2  0  0  0  0
 22 23  1  0  0  0  0
 22 24  1  0  0  0  0
 24 25  1  0  0  0  0
 24 26  2  0  0  0  0
 26 27  1  0  0  0  0
 26 28  1  0  0  0  0
 29 30  2  0  0  0  0
 29 31  1  0  0  0  0
 31 32  1  0  0  0  0
 31 33  1  0  0  0  0
 33 34  1  0  0  0  0
 33 35  1  0  0  0  0
 33 36  1  0  0  0  0
M  END
$$$$

  -OEChem-03222214083D

 36 37  0     1  0  0  0  0  0999 V2000
   -3.3702   -4.6523    1.0937 H   0  0  0  0  0  0  0  0  0  0  0  0
   -3.3507   -3.8946    0.3048 C   0  0  0  0  0  0  0  0  0  0  0  0
   -4.2463   -3.2748    0.3917 H   0  0  0  0  0  0  0  0  0  0  0  0
   -3.3554   -4.3979   -0.6649 H   0  0  0  0  0  0  0  0  0  0  0  0
   -2.1078   -3.0354    0.4391 C   0  0  0  0  0  0  0  0  0  0  0  0
   -1.3234   -3.2375    1.3466 O   0  0  0  0  0  0  0  0  0  0  0  0
   -1.8683   -2.0274   -0.4721 N   0  0  0  0  0  0  0  0  0  0  0  0
   -2.5398   -1.9096   -1.2258 H   0  0  0  0  0  0  0  0  0  0  0  0
   -0.6888   -1.1386   -0.4503 C   0  0  1  0  0  0  0  0  0  0  0  0
    0.2102   -1.7615   -0.5191 H   0  0  0  0  0  0  0  0  0  0  0  0
   -0.7150   -0.2016   -1.6710 C   0  0  0  0  0  0  0  0  0  0  0  0
   -1.5996    0.4408   -1.6190 H   0  0  0  0  0  0  0  0  0  0  0  0
    0.1644    0.4490   -1.6126 H   0  0  0  0  0  0  0  0  0  0  0  0
   -0.6935   -0.8888   -3.0229 C   0  0  0  0  0  0  0  0  0  0  0  0
   -0.9228   -2.2070   -3.3579 C   0  0  0  0  0  0  0  0  0  0  0  0
   -1.1055   -3.0226   -2.6634 H   0  0  0  0  0  0  0  0  0  0  0  0
   -0.8469   -2.3201   -4.7436 N   0  0  0  0  0  0  0  0  0  0  0  0
   -0.9347   -3.1863   -5.2717 H   0  0  0  0  0  0  0  0  0  0  0  0
   -0.5789   -1.0877   -5.3127 C   0  0  0  0  0  0  0  0  0  0  0  0
   -0.4151   -0.6925   -6.6406 C   0  0  0  0  0  0  0  0  0  0  0  0
   -0.4948   -1.4184   -7.4422 H   0  0  0  0  0  0  0  0  0  0  0  0
   -0.1461    0.6539   -6.9238 C   0  0  0  0  0  0  0  0  0  0  0  0
   -0.0168    0.9765   -7.9527 H   0  0  0  0  0  0  0  0  0  0  0  0
   -0.0409    1.5850   -5.8791 C   0  0  0  0  0  0  0  0  0  0  0  0
    0.1717    2.6265   -6.1008 H   0  0  0  0  0  0  0  0  0  0  0  0
   -0.2054    1.1748   -4.5482 C   0  0  0  0  0  0  0  0  0  0  0  0
   -0.1200    1.8916   -3.7379 H   0  0  0  0  0  0  0  0  0  0  0  0
   -0.4766   -0.1702   -4.2741 C   0  0  0  0  0  0  0  0  0  0  0  0
   -0.5445   -0.3008    0.8390 C   0  0  0  0  0  0  0  0  0  0  0  0
    0.5692   -0.0103    1.2547 O   0  0  0  0  0  0  0  0  0  0  0  0
   -1.6473    0.3403    1.3762 N   0  0  0  0  0  0  0  0  0  0  0  0
   -2.5550    0.0186    1.0579 H   0  0  0  0  0  0  0  0  0  0  0  0
   -1.5764    1.1654    2.5758 C   0  0  0  0  0  0  0  0  0  0  0  0
   -0.8592    1.9817    2.4393 H   0  0  0  0  0  0  0  0  0  0  0  0
   -2.5558    1.6023    2.7927 H   0  0  0  0  0  0  0  0  0  0  0  0
   -1.2654    0.5632    3.4360 H   0  0  0  0  0  0  0  0  0  0  0  0
  1  2  1  0  0  0  0
  2  3  1  0  0  0  0
  2  4  1  0  0  0  0
  2  5  1  0  0  0  0
  5  6  2  0  0  0  0
  5  7  1  0  0  0  0
  7  8  1  0  0  0  0
  7  9  1  0  0  0  0
  9 10  1  0  0  0  0
  9 11  1  0  0  0  0
  9 29  1  0  0  0  0
 11 12  1  0  0  0  0
 11 13  1  0  0  0  0
 11 14  1  0  0  0  0
 14 15  2  0  0  0  0
 14 28  1  0  0  0  0
 15 16  1  0  0  0  0
 15 17  1  0  0  0  0
 17 18  1  0  0  0  0
 17 19  1  0  0  0  0
 19 20  1  0  0  0  0
 19 28  2  0  0  0  0
 20 21  1  0  0  0  0
 20 22  2  0  0  0  0
 22 23  1  0  0  0  0
 22 24  1  0  0  0  0
 24 25  1  0  0  0  0
 24 26  2  0  0  0  0
 26 27  1  0  0  0  0
 26 28  1  0  0  0  0
 29 30  2  0  0  0  0
 29 31  1  0  0  0  0
 31 32  1  0  0  0  0
 31 33  1  0  0  0  0
 33 34  1  0  0  0  0
 33 35  1  0  0  0  0
 33 36  1  0  0  0  0
M  END
$$$$

  -OEChem-03222214083D

 36 37  0     1  0  0  0  0  0999 V2000
   -3.3756   -4.6270    1.1808 H   0  0  0  0  0  0  0  0  0  0  0  0
   -3.3704   -3.8822    0.3795 C   0  0  0  0  0  0  0  0  0  0  0  0
   -4.2481   -3.2411    0.4909 H   0  0  0  0  0  0  0  0  0  0  0  0
   -3.4232   -4.4000   -0.5811 H   0  0  0  0  0  0  0  0  0  0  0  0
   -2.1047   -3.0491    0.4530 C   0  0  0  0  0  0  0  0  0  0  0  0
   -1.2842   -3.2658    1.3247 O   0  0  0  0  0  0  0  0  0  0  0  0
   -1.8907   -2.0422   -0.4663 N   0  0  0  0  0  0  0  0  0  0  0  0
   -2.6163   -1.8788   -1.1575 H   0  0  0  0  0  0  0  0  0  0  0  0
   -0.7118   -1.1528   -0.4715 C   0  0  1  0  0  0  0  0  0  0  0  0
    0.1828   -1.7810   -0.5533 H   0  0  0  0  0  0  0  0  0  0  0  0
   -0.7381   -0.2143   -1.6922 C   0  0  0  0  0  0  0  0  0  0  0  0
   -1.6128    0.4409   -1.6338 H   0  0  0  0  0  0  0  0  0  0  0  0
    0.1500    0.4233   -1.6290 H   0  0  0  0  0  0  0  0  0  0  0  0
   -0.7298   -0.8894   -3.0519 C   0  0  0  0  0  0  0  0  0  0  0  0
   -1.2252   -2.1139   -3.4500 C   0  0  0  0  0  0  0  0  0  0  0  0
   -1.6813   -2.8643   -2.8122 H   0  0  0  0  0  0  0  0  0  0  0  0
   -1.0170   -2.2414   -4.8205 N   0  0  0  0  0  0  0  0  0  0  0  0
   -1.2552   -3.0566   -5.3819 H   0  0  0  0  0  0  0  0  0  0  0  0
   -0.3999   -1.1092   -5.3204 C   0  0  0  0  0  0  0  0  0  0  0  0
    0.0052   -0.7680   -6.6109 C   0  0  0  0  0  0  0  0  0  0  0  0
   -0.1506   -1.4567   -7.4338 H   0  0  0  0  0  0  0  0  0  0  0  0
    0.6156    0.4747   -6.8286 C   0  0  0  0  0  0  0  0  0  0  0  0
    0.9365    0.7543   -7.8276 H   0  0  0  0  0  0  0  0  0  0  0  0
    0.8143    1.3570   -5.7561 C   0  0  0  0  0  0  0  0  0  0  0  0
    1.2900    2.3184   -5.9259 H   0  0  0  0  0  0  0  0  0  0  0  0
    0.4041    1.0010   -4.4631 C   0  0  0  0  0  0  0  0  0  0  0  0
    0.5611    1.6829   -3.6337 H   0  0  0  0  0  0  0  0  0  0  0  0
   -0.2056   -0.2417   -4.2525 C   0  0  0  0  0  0  0  0  0  0  0  0
   -0.5412   -0.3152    0.8148 C   0  0  0  0  0  0  0  0  0  0  0  0
    0.5803   -0.0244    1.2081 O   0  0  0  0  0  0  0  0  0  0  0  0
   -1.6323    0.3251    1.3769 N   0  0  0  0  0  0  0  0  0  0  0  0
   -2.5476    0.0089    1.0764 H   0  0  0  0  0  0  0  0  0  0  0  0
   -1.5330    1.1483    2.5759 C   0  0  0  0  0  0  0  0  0  0  0  0
   -0.8207    1.9659    2.4225 H   0  0  0  0  0  0  0  0  0  0  0  0
   -2.5073    1.5832    2.8184 H   0  0  0  0  0  0  0  0  0  0  0  0
   -1.1992    0.5452    3.4269 H   0  0  0  0  0  0  0  0  0  0  0  0
  1  2  1  0  0  0  0
  2  3  1  0  0  0  0
  2  4  1  0  0  0  0
  2  5  1  0  0  0  0
  5  6  2  0  0  0  0
  5  7  1  0  0  0  0
  7  8  1  0  0  0  0
  7  9  1  0  0  0  0
  9 10  1  0  0  0  0
  9 11  1  0  0  0  0
  9 29  1  0  0  0  0
 11 12  1  0  0  0  0
 11 13  1  0  0  0  0
 11 14  1  0  0  0  0
 14 15  2  0  0  0  0
 14 28  1  0  0  0  0
 15 16  1  0  0  0  0
 15 17  1  0  0  0  0
 17 18  1  0  0  0  0
 17 19  1  0  0  0  0
 19 20  1  0  0  0  0
 19 28  2  0  0  0  0
 20 21  1  0  0  0  0
 20 22  2  0  0  0  0
 22 23  1  0  0  0  0
 22 24  1  0  0  0  0
 24 25  1  0  0  0  0
 24 26  2  0  0  0  0
 26 27  1  0  0  0  0
 26 28  1  0  0  0  0
 29 30  2  0  0  0  0
 29 31  1  0  0  0  0
 31 32  1  0  0  0  0
 31 33  1  0  0  0  0
 33 34  1  0  0  0  0
 33 35  1  0  0  0  0
 33 36  1  0  0  0  0
M  END
$$$$

  -OEChem-03222214083D

 36 37  0     1  0  0  0  0  0999 V2000
   -3.3523   -4.6355    1.1624 H   0  0  0  0  0  0  0  0  0  0  0  0
   -3.3599   -3.8857    0.3660 C   0  0  0  0  0  0  0  0  0  0  0  0
   -4.2354   -3.2452    0.4957 H   0  0  0  0  0  0  0  0  0  0  0  0
   -3.4285   -4.3977   -0.5969 H   0  0  0  0  0  0  0  0  0  0  0  0
   -2.0926   -3.0536    0.4234 C   0  0  0  0  0  0  0  0  0  0  0  0
   -1.2529   -3.2843    1.2730 O   0  0  0  0  0  0  0  0  0  0  0  0
   -1.9045   -2.0272   -0.4801 N   0  0  0  0  0  0  0  0  0  0  0  0
   -2.6563   -1.8393   -1.1340 H   0  0  0  0  0  0  0  0  0  0  0  0
   -0.7289   -1.1345   -0.4945 C   0  0  1  0  0  0  0  0  0  0  0  0
    0.1634   -1.7613   -0.6050 H   0  0  0  0  0  0  0  0  0  0  0  0
   -0.7668   -0.1686   -1.6947 C   0  0  0  0  0  0  0  0  0  0  0  0
   -1.6437    0.4809   -1.6133 H   0  0  0  0  0  0  0  0  0  0  0  0
    0.1164    0.4743   -1.6252 H   0  0  0  0  0  0  0  0  0  0  0  0
   -0.7780   -0.8239   -3.0647 C   0  0  0  0  0  0  0  0  0  0  0  0
   -1.5140   -1.8951   -3.5260 C   0  0  0  0  0  0  0  0  0  0  0  0
   -2.2202   -2.4872   -2.9542 H   0  0  0  0  0  0  0  0  0  0  0  0
   -1.1916   -2.1006   -4.8641 N   0  0  0  0  0  0  0  0  0  0  0  0
   -1.5680   -2.8370   -5.4577 H   0  0  0  0  0  0  0  0  0  0  0  0
   -0.2566   -1.1712   -5.2809 C   0  0  0  0  0  0  0  0  0  0  0  0
    0.3629   -0.9758   -6.5156 C   0  0  0  0  0  0  0  0  0  0  0  0
    0.1299   -1.6223   -7.3544 H   0  0  0  0  0  0  0  0  0  0  0  0
    1.2907    0.0649   -6.6561 C   0  0  0  0  0  0  0  0  0  0  0  0
    1.7825    0.2295   -7.6101 H   0  0  0  0  0  0  0  0  0  0  0  0
    1.5866    0.8932   -5.5634 C   0  0  0  0  0  0  0  0  0  0  0  0
    2.3082    1.6972   -5.6726 H   0  0  0  0  0  0  0  0  0  0  0  0
    0.9565    0.6857   -4.3277 C   0  0  0  0  0  0  0  0  0  0  0  0
    1.1913    1.3278   -3.4853 H   0  0  0  0  0  0  0  0  0  0  0  0
    0.0292   -0.3555   -4.1920 C   0  0  0  0  0  0  0  0  0  0  0  0
   -0.5334   -0.3251    0.8063 C   0  0  0  0  0  0  0  0  0  0  0  0
    0.5946   -0.0305    1.1780 O   0  0  0  0  0  0  0  0  0  0  0  0
   -1.6162    0.2968    1.4040 N   0  0  0  0  0  0  0  0  0  0  0  0
   -2.5357   -0.0225    1.1196 H   0  0  0  0  0  0  0  0  0  0  0  0
   -1.4965    1.1033    2.6125 C   0  0  0  0  0  0  0  0  0  0  0  0
   -0.8012    1.9343    2.4529 H   0  0  0  0  0  0  0  0  0  0  0  0
   -2.4704    1.5192    2.8880 H   0  0  0  0  0  0  0  0  0  0  0  0
   -1.1302    0.4923    3.4443 H   0  0  0  0  0  0  0  0  0  0  0  0
  1  2  1  0  0  0  0
  2  3  1  0  0  0  0
  2  4  1  0  0  0  0
  2  5  1  0  0  0  0
  5  6  2  0  0  0  0
  5  7  1  0  0  0  0
  7  8  1  0  0  0  0
  7  9  1  0  0  0  0
  9 10  1  0  0  0  0
  9 11  1  0  0  0  0
  9 29  1  0  0  0  0
 11 12  1  0  0  0  0
 11 13  1  0  0  0  0
 11 14  1  0  0  0  0
 14 15  2  0  0  0  0
 14 28  1  0  0  0  0
 15 16  1  0  0  0  0
 15 17  1  0  0  0  0
 17 18  1  0  0  0  0
 17 19  1  0  0  0  0
 19 20  1  0  0  0  0
 19 28  2  0  0  0  0
 20 21  1  0  0  0  0
 20 22  2  0  0  0  0
 22 23  1  0  0  0  0
 22 24  1  0  0  0  0
 24 25  1  0  0  0  0
 24 26  2  0  0  0  0
 26 27  1  0  0  0  0
 26 28  1  0  0  0  0
 29 30  2  0  0  0  0
 29 31  1  0  0  0  0
 31 32  1  0  0  0  0
 31 33  1  0  0  0  0
 33 34  1  0  0  0  0
 33 35  1  0  0  0  0
 33 36  1  0  0  0  0
M  END
$$$$

  -OEChem-03222214083D

 36 37  0     1  0  0  0  0  0999 V2000
   -3.2616   -4.7194    0.9950 H   0  0  0  0  0  0  0  0  0  0  0  0
   -3.2801   -3.9494    0.2182 C   0  0  0  0  0  0  0  0  0  0  0  0
   -4.2157   -3.3911    0.2986 H   0  0  0  0  0  0  0  0  0  0  0  0
   -3.2345   -4.4372   -0.7583 H   0  0  0  0  0  0  0  0  0  0  0  0
   -2.0991   -3.0126    0.3868 C   0  0  0  0  0  0  0  0  0  0  0  0
   -1.3242   -3.1751    1.3109 O   0  0  0  0  0  0  0  0  0  0  0  0
   -1.9220   -1.9688   -0.4989 N   0  0  0  0  0  0  0  0  0  0  0  0
   -2.5607   -1.9213   -1.2824 H   0  0  0  0  0  0  0  0  0  0  0  0
   -0.7427   -1.0813   -0.5115 C   0  0  1  0  0  0  0  0  0  0  0  0
    0.1445   -1.7090   -0.6519 H   0  0  0  0  0  0  0  0  0  0  0  0
   -0.7934   -0.0780   -1.6799 C   0  0  0  0  0  0  0  0  0  0  0  0
   -1.6753    0.5600   -1.5666 H   0  0  0  0  0  0  0  0  0  0  0  0
    0.0826    0.5747   -1.6128 H   0  0  0  0  0  0  0  0  0  0  0  0
   -0.8346   -0.7101   -3.0572 C   0  0  0  0  0  0  0  0  0  0  0  0
   -1.7726   -1.5666   -3.5930 C   0  0  0  0  0  0  0  0  0  0  0  0
   -2.6795   -1.9136   -3.1091 H   0  0  0  0  0  0  0  0  0  0  0  0
   -1.3682   -1.8974   -4.8831 N   0  0  0  0  0  0  0  0  0  0  0  0
   -1.8677   -2.5111   -5.5238 H   0  0  0  0  0  0  0  0  0  0  0  0
   -0.1735   -1.2702   -5.1871 C   0  0  0  0  0  0  0  0  0  0  0  0
    0.6142   -1.2959   -6.3379 C   0  0  0  0  0  0  0  0  0  0  0  0
    0.3111   -1.8857   -7.1956 H   0  0  0  0  0  0  0  0  0  0  0  0
    1.8015   -0.5519   -6.3692 C   0  0  0  0  0  0  0  0  0  0  0  0
    2.4266   -0.5628   -7.2573 H   0  0  0  0  0  0  0  0  0  0  0  0
    2.1850    0.2044   -5.2517 C   0  0  0  0  0  0  0  0  0  0  0  0
    3.1071    0.7776   -5.2746 H   0  0  0  0  0  0  0  0  0  0  0  0
    1.3841    0.2211   -4.1008 C   0  0  0  0  0  0  0  0  0  0  0  0
    1.6884    0.8040   -3.2375 H   0  0  0  0  0  0  0  0  0  0  0  0
    0.1966   -0.5214   -4.0763 C   0  0  0  0  0  0  0  0  0  0  0  0
   -0.5215   -0.2995    0.8019 C   0  0  0  0  0  0  0  0  0  0  0  0
    0.6147   -0.0122    1.1554 O   0  0  0  0  0  0  0  0  0  0  0  0
   -1.5918    0.3145    1.4282 N   0  0  0  0  0  0  0  0  0  0  0  0
   -2.5130   -0.0206    1.1680 H   0  0  0  0  0  0  0  0  0  0  0  0
   -1.4480    1.0780    2.6609 C   0  0  0  0  0  0  0  0  0  0  0  0
   -0.7791    1.9316    2.5080 H   0  0  0  0  0  0  0  0  0  0  0  0
   -2.4211    1.4578    2.9863 H   0  0  0  0  0  0  0  0  0  0  0  0
   -1.0373    0.4461    3.4555 H   0  0  0  0  0  0  0  0  0  0  0  0
  1  2  1  0  0  0  0
  2  3  1  0  0  0  0
  2  4  1  0  0  0  0
  2  5  1  0  0  0  0
  5  6  2  0  0  0  0
  5  7  1  0  0  0  0
  7  8  1  0  0  0  0
  7  9  1  0  0  0  0
  9 10  1  0  0  0  0
  9 11  1  0  0  0  0
  9 29  1  0  0  0  0
 11 12  1  0  0  0  0
 11 13  1  0  0  0  0
 11 14  1  0  0  0  0
 14 15  2  0  0  0  0
 14 28  1  0  0  0  0
 15 16  1  0  0  0  0
 15 17  1  0  0  0  0
 17 18  1  0  0  0  0
 17 19  1  0  0  0  0
 19 20  1  0  0  0  0
 19 28  2  0  0  0  0
 20 21  1  0  0  0  0
 20 22  2  0  0  0  0
 22 23  1  0  0  0  0
 22 24  1  0  0  0  0
 24 25  1  0  0  0  0
 24 26  2  0  0  0  0
 26 27  1  0  0  0  0
 26 28  1  0  0  0  0
 29 30  2  0  0  0  0
 29 31  1  0  0  0  0
 31 32  1  0  0  0  0
 31 33  1  0  0  0  0
 33 34  1  0  0  0  0
 33 35  1  0  0  0  0
 33 36  1  0  0  0  0
M  END
$$$$

  -OEChem-03222214083D

 36 37  0     1  0  0  0  0  0999 V2000
   -3.1556   -4.7857    0.7668 H   0  0  0  0  0  0  0  0  0  0  0  0
   -3.1493   -4.0118   -0.0065 C   0  0  0  0  0  0  0  0  0  0  0  0
   -4.1375   -3.5477   -0.0471 H   0  0  0  0  0  0  0  0  0  0  0  0
   -2.9322   -4.4806   -0.9694 H   0  0  0  0  0  0  0  0  0  0  0  0
   -2.0972   -2.9664    0.3116 C   0  0  0  0  0  0  0  0  0  0  0  0
   -1.4415   -3.0602    1.3325 O   0  0  0  0  0  0  0  0  0  0  0  0
   -1.9096   -1.9060   -0.5524 N   0  0  0  0  0  0  0  0  0  0  0  0
   -2.3571   -2.0115   -1.4556 H   0  0  0  0  0  0  0  0  0  0  0  0
   -0.7218   -1.0303   -0.5168 C   0  0  1  0  0  0  0  0  0  0  0  0
    0.1661   -1.6528   -0.6748 H   0  0  0  0  0  0  0  0  0  0  0  0
   -0.7829    0.0184   -1.6427 C   0  0  0  0  0  0  0  0  0  0  0  0
   -1.6711    0.6420   -1.5007 H   0  0  0  0  0  0  0  0  0  0  0  0
    0.0875    0.6794   -1.5757 H   0  0  0  0  0  0  0  0  0  0  0  0
   -0.8367   -0.5938   -3.0230 C   0  0  0  0  0  0  0  0  0  0  0  0
   -1.9120   -1.1997   -3.6331 C   0  0  0  0  0  0  0  0  0  0  0  0
   -2.9195   -1.2655   -3.2305 H   0  0  0  0  0  0  0  0  0  0  0  0
   -1.4864   -1.6790   -4.8691 N   0  0  0  0  0  0  0  0  0  0  0  0
   -2.0717   -2.1473   -5.5584 H   0  0  0  0  0  0  0  0  0  0  0  0
   -0.1414   -1.4042   -5.0541 C   0  0  0  0  0  0  0  0  0  0  0  0
    0.7266   -1.6861   -6.1093 C   0  0  0  0  0  0  0  0  0  0  0  0
    0.3680   -2.2082   -6.9892 H   0  0  0  0  0  0  0  0  0  0  0  0
    2.0678   -1.2881   -6.0151 C   0  0  0  0  0  0  0  0  0  0  0  0
    2.7566   -1.5017   -6.8272 H   0  0  0  0  0  0  0  0  0  0  0  0
    2.5232   -0.6167   -4.8702 C   0  0  0  0  0  0  0  0  0  0  0  0
    3.5630   -0.3123   -4.7965 H   0  0  0  0  0  0  0  0  0  0  0  0
    1.6408   -0.3370   -3.8173 C   0  0  0  0  0  0  0  0  0  0  0  0
    1.9937    0.1800   -2.9305 H   0  0  0  0  0  0  0  0  0  0  0  0
    0.3028   -0.7327   -3.9213 C   0  0  0  0  0  0  0  0  0  0  0  0
   -0.5080   -0.2790    0.8161 C   0  0  0  0  0  0  0  0  0  0  0  0
    0.6286   -0.0068    1.1812 O   0  0  0  0  0  0  0  0  0  0  0  0
   -1.5783    0.3358    1.4409 N   0  0  0  0  0  0  0  0  0  0  0  0
   -2.4963   -0.0095    1.1811 H   0  0  0  0  0  0  0  0  0  0  0  0
   -1.4391    1.0705    2.6916 C   0  0  0  0  0  0  0  0  0  0  0  0
   -0.7471    1.9104    2.5684 H   0  0  0  0  0  0  0  0  0  0  0  0
   -2.4087    1.4676    3.0065 H   0  0  0  0  0  0  0  0  0  0  0  0
   -1.0589    0.4132    3.4809 H   0  0  0  0  0  0  0  0  0  0  0  0
  1  2  1  0  0  0  0
  2  3  1  0  0  0  0
  2  4  1  0  0  0  0
  2  5  1  0  0  0  0
  5  6  2  0  0  0  0
  5  7  1  0  0  0  0
  7  8  1  0  0  0  0
  7  9  1  0  0  0  0
  9 10  1  0  0  0  0
  9 11  1  0  0  0  0
  9 29  1  0  0  0  0
 11 12  1  0  0  0  0
 11 13  1  0  0  0  0
 11 14  1  0  0  0  0
 14 15  2  0  0  0  0
 14 28  1  0  0  0  0
 15 16  1  0  0  0  0
 15 17  1  0  0  0  0
 17 18  1  0  0  0  0
 17 19  1  0  0  0  0
 19 20  1  0  0  0  0
 19 28  2  0  0  0  0
 20 21  1  0  0  0  0
 20 22  2  0  0  0  0
 22 23  1  0  0  0  0
 22 24  1  0  0  0  0
 24 25  1  0  0  0  0
 24 26  2  0  0  0  0
 26 27  1  0  0  0  0
 26 28  1  0  0  0  0
 29 30  2  0  0  0  0
 29 31  1  0  0  0  0
 31 32  1  0  0  0  0
 31 33  1  0  0  0  0
 33 34  1  0  0  0  0
 33 35  1  0  0  0  0
 33 36  1  0  0  0  0
M  END
$$$$

  -OEChem-03222214083D

 36 37  0     1  0  0  0  0  0999 V2000
   -3.1413   -4.7870    0.6272 H   0  0  0  0  0  0  0  0  0  0  0  0
   -3.1086   -4.0025   -0.1342 C   0  0  0  0  0  0  0  0  0  0  0  0
   -4.0969   -3.5427   -0.2074 H   0  0  0  0  0  0  0  0  0  0  0  0
   -2.8515   -4.4564   -1.0944 H   0  0  0  0  0  0  0  0  0  0  0  0
   -2.0752   -2.9560    0.2384 C   0  0  0  0  0  0  0  0  0  0  0  0
   -1.4505   -3.0652    1.2774 O   0  0  0  0  0  0  0  0  0  0  0  0
   -1.8701   -1.8768   -0.5972 N   0  0  0  0  0  0  0  0  0  0  0  0
   -2.2848   -1.9717   -1.5187 H   0  0  0  0  0  0  0  0  0  0  0  0
   -0.6833   -1.0026   -0.5185 C   0  0  1  0  0  0  0  0  0  0  0  0
    0.2094   -1.6173   -0.6796 H   0  0  0  0  0  0  0  0  0  0  0  0
   -0.7524    0.0629   -1.6251 C   0  0  0  0  0  0  0  0  0  0  0  0
   -1.6475    0.6765   -1.4808 H   0  0  0  0  0  0  0  0  0  0  0  0
    0.1144    0.7291   -1.5578 H   0  0  0  0  0  0  0  0  0  0  0  0
   -0.7925   -0.5624   -2.9965 C   0  0  0  0  0  0  0  0  0  0  0  0
   -1.9160   -0.9253   -3.7025 C   0  0  0  0  0  0  0  0  0  0  0  0
   -2.9440   -0.7516   -3.3923 H   0  0  0  0  0  0  0  0  0  0  0  0
   -1.4947   -1.5331   -4.8825 N   0  0  0  0  0  0  0  0  0  0  0  0
   -2.1039   -1.8729   -5.6246 H   0  0  0  0  0  0  0  0  0  0  0  0
   -0.1102   -1.5775   -4.9343 C   0  0  0  0  0  0  0  0  0  0  0  0
    0.7695   -2.0855   -5.8905 C   0  0  0  0  0  0  0  0  0  0  0  0
    0.3886   -2.5446   -6.7962 H   0  0  0  0  0  0  0  0  0  0  0  0
    2.1507   -1.9966   -5.6640 C   0  0  0  0  0  0  0  0  0  0  0  0
    2.8482   -2.3893   -6.3981 H   0  0  0  0  0  0  0  0  0  0  0  0
    2.6343   -1.4019   -4.4882 C   0  0  0  0  0  0  0  0  0  0  0  0
    3.7041   -1.3347   -4.3135 H   0  0  0  0  0  0  0  0  0  0  0  0
    1.7408   -0.8922   -3.5353 C   0  0  0  0  0  0  0  0  0  0  0  0
    2.1112   -0.4321   -2.6241 H   0  0  0  0  0  0  0  0  0  0  0  0
    0.3653   -0.9836   -3.7714 C   0  0  0  0  0  0  0  0  0  0  0  0
   -0.4906   -0.2788    0.8320 C   0  0  0  0  0  0  0  0  0  0  0  0
    0.6404   -0.0095    1.2162 O   0  0  0  0  0  0  0  0  0  0  0  0
   -1.5709    0.3247    1.4507 N   0  0  0  0  0  0  0  0  0  0  0  0
   -2.4833   -0.0253    1.1769 H   0  0  0  0  0  0  0  0  0  0  0  0
   -1.4515    1.0422    2.7133 C   0  0  0  0  0  0  0  0  0  0  0  0
   -0.7599    1.8854    2.6121 H   0  0  0  0  0  0  0  0  0  0  0  0
   -2.4269    1.4327    3.0189 H   0  0  0  0  0  0  0  0  0  0  0  0
   -1.0815    0.3749    3.4989 H   0  0  0  0  0  0  0  0  0  0  0  0
  1  2  1  0  0  0  0
  2  3  1  0  0  0  0
  2  4  1  0  0  0  0
  2  5  1  0  0  0  0
  5  6  2  0  0  0  0
  5  7  1  0  0  0  0
  7  8  1  0  0  0  0
  7  9  1  0  0  0  0
  9 10  1  0  0  0  0
  9 11  1  0  0  0  0
  9 29  1  0  0  0  0
 11 12  1  0  0  0  0
 11 13  1  0  0  0  0
 11 14  1  0  0  0  0
 14 15  2  0  0  0  0
 14 28  1  0  0  0  0
 15 16  1  0  0  0  0
 15 17  1  0  0  0  0
 17 18  1  0  0  0  0
 17 19  1  0  0  0  0
 19 20  1  0  0  0  0
 19 28  2  0  0  0  0
 20 21  1  0  0  0  0
 20 22  2  0  0  0  0
 22 23  1  0  0  0  0
 22 24  1  0  0  0  0
 24 25  1  0  0  0  0
 24 26  2  0  0  0  0
 26 27  1  0  0  0  0
 26 28  1  0  0  0  0
 29 30  2  0  0  0  0
 29 31  1  0  0  0  0
 31 32  1  0  0  0  0
 31 33  1  0  0  0  0
 33 34  1  0  0  0  0
 33 35  1  0  0  0  0
 33 36  1  0  0  0  0
M  END
$$$$

  -OEChem-03222214083D

 36 37  0     1  0  0  0  0  0999 V2000
   -3.1706   -4.7835    0.5864 H   0  0  0  0  0  0  0  0  0  0  0  0
   -3.1274   -3.9924   -0.1678 C   0  0  0  0  0  0  0  0  0  0  0  0
   -4.1118   -3.5249   -0.2440 H   0  0  0  0  0  0  0  0  0  0  0  0
   -2.8668   -4.4396   -1.1302 H   0  0  0  0  0  0  0  0  0  0  0  0
   -2.0902   -2.9564    0.2221 C   0  0  0  0  0  0  0  0  0  0  0  0
   -1.4827   -3.0733    1.2707 O   0  0  0  0  0  0  0  0  0  0  0  0
   -1.8605   -1.8773   -0.6070 N   0  0  0  0  0  0  0  0  0  0  0  0
   -2.2627   -1.9624   -1.5363 H   0  0  0  0  0  0  0  0  0  0  0  0
   -0.6674   -1.0141   -0.5044 C   0  0  1  0  0  0  0  0  0  0  0  0
    0.2213   -1.6372   -0.6501 H   0  0  0  0  0  0  0  0  0  0  0  0
   -0.7221    0.0475   -1.6143 C   0  0  0  0  0  0  0  0  0  0  0  0
   -1.6126    0.6702   -1.4816 H   0  0  0  0  0  0  0  0  0  0  0  0
    0.1521    0.7040   -1.5452 H   0  0  0  0  0  0  0  0  0  0  0  0
   -0.7477   -0.5948   -2.9770 C   0  0  0  0  0  0  0  0  0  0  0  0
   -1.8404   -0.7025   -3.8041 C   0  0  0  0  0  0  0  0  0  0  0  0
   -2.8314   -0.3018   -3.6020 H   0  0  0  0  0  0  0  0  0  0  0  0
   -1.4407   -1.4052   -4.9382 N   0  0  0  0  0  0  0  0  0  0  0  0
   -2.0278   -1.6102   -5.7447 H   0  0  0  0  0  0  0  0  0  0  0  0
   -0.1005   -1.7473   -4.8471 C   0  0  0  0  0  0  0  0  0  0  0  0
    0.7447   -2.4371   -5.7165 C   0  0  0  0  0  0  0  0  0  0  0  0
    0.3697   -2.8120   -6.6622 H   0  0  0  0  0  0  0  0  0  0  0  0
    2.0835   -2.6387   -5.3516 C   0  0  0  0  0  0  0  0  0  0  0  0
    2.7537   -3.1746   -6.0174 H   0  0  0  0  0  0  0  0  0  0  0  0
    2.5609   -2.1468   -4.1270 C   0  0  0  0  0  0  0  0  0  0  0  0
    3.5986   -2.3017   -3.8471 H   0  0  0  0  0  0  0  0  0  0  0  0
    1.7035   -1.4522   -3.2619 C   0  0  0  0  0  0  0  0  0  0  0  0
    2.0718   -1.0669   -2.3157 H   0  0  0  0  0  0  0  0  0  0  0  0
    0.3690   -1.2587   -3.6338 C   0  0  0  0  0  0  0  0  0  0  0  0
   -0.4872   -0.2925    0.8483 C   0  0  0  0  0  0  0  0  0  0  0  0
    0.6418   -0.0391    1.2493 O   0  0  0  0  0  0  0  0  0  0  0  0
   -1.5686    0.3233    1.4529 N   0  0  0  0  0  0  0  0  0  0  0  0
   -2.4813   -0.0165    1.1671 H   0  0  0  0  0  0  0  0  0  0  0  0
   -1.4557    1.0321    2.7211 C   0  0  0  0  0  0  0  0  0  0  0  0
   -0.7461    1.8617    2.6347 H   0  0  0  0  0  0  0  0  0  0  0  0
   -2.4272    1.4406    3.0142 H   0  0  0  0  0  0  0  0  0  0  0  0
   -1.1112    0.3536    3.5085 H   0  0  0  0  0  0  0  0  0  0  0  0
  1  2  1  0  0  0  0
  2  3  1  0  0  0  0
  2  4  1  0  0  0  0
  2  5  1  0  0  0  0
  5  6  2  0  0  0  0
  5  7  1  0  0  0  0
  7  8  1  0  0  0  0
  7  9  1  0  0  0  0
  9 10  1  0  0  0  0
  9 11  1  0  0  0  0
  9 29  1  0  0  0  0
 11 12  1  0  0  0  0
 11 13  1  0  0  0  0
 11 14  1  0  0  0  0
 14 15  2  0  0  0  0
 14 28  1  0  0  0  0
 15 16  1  0  0  0  0
 15 17  1  0  0  0  0
 17 18  1  0  0  0  0
 17 19  1  0  0  0  0
 19 20  1  0  0  0  0
 19 28  2  0  0  0  0
 20 21  1  0  0  0  0
 20 22  2  0  0  0  0
 22 23  1  0  0  0  0
 22 24  1  0  0  0  0
 24 25  1  0  0  0  0
 24 26  2  0  0  0  0
 26 27  1  0  0  0  0
 26 28  1  0  0  0  0
 29 30  2  0  0  0  0
 29 31  1  0  0  0  0
 31 32  1  0  0  0  0
 31 33  1  0  0  0  0
 33 34  1  0  0  0  0
 33 35  1  0  0  0  0
 33 36  1  0  0  0  0
M  END
$$$$

  -OEChem-03222214083D

 36 37  0     1  0  0  0  0  0999 V2000
   -3.2577   -4.7595    0.6206 H   0  0  0  0  0  0  0  0  0  0  0  0
   -3.1875   -3.9741   -0.1374 C   0  0  0  0  0  0  0  0  0  0  0  0
   -4.1592   -3.4827   -0.2264 H   0  0  0  0  0  0  0  0  0  0  0  0
   -2.9285   -4.4331   -1.0947 H   0  0  0  0  0  0  0  0  0  0  0  0
   -2.1282   -2.9623    0.2570 C   0  0  0  0  0  0  0  0  0  0  0  0
   -1.5377   -3.0842    1.3148 O   0  0  0  0  0  0  0  0  0  0  0  0
   -1.8582   -1.8985   -0.5793 N   0  0  0  0  0  0  0  0  0  0  0  0
   -2.2524   -1.9766   -1.5133 H   0  0  0  0  0  0  0  0  0  0  0  0
   -0.6547   -1.0527   -0.4604 C   0  0  1  0  0  0  0  0  0  0  0  0
    0.2267   -1.6908   -0.5713 H   0  0  0  0  0  0  0  0  0  0  0  0
   -0.6841   -0.0081   -1.5887 C   0  0  0  0  0  0  0  0  0  0  0  0
   -1.5634    0.6340   -1.4746 H   0  0  0  0  0  0  0  0  0  0  0  0
    0.2028    0.6305   -1.5144 H   0  0  0  0  0  0  0  0  0  0  0  0
   -0.6962   -0.6591   -2.9497 C   0  0  0  0  0  0  0  0  0  0  0  0
   -1.6854   -0.5065   -3.8919 C   0  0  0  0  0  0  0  0  0  0  0  0
   -2.5759    0.1089   -3.7817 H   0  0  0  0  0  0  0  0  0  0  0  0
   -1.3396   -1.2796   -4.9969 N   0  0  0  0  0  0  0  0  0  0  0  0
   -1.8698   -1.3417   -5.8643 H   0  0  0  0  0  0  0  0  0  0  0  0
   -0.1217   -1.9048   -4.7849 C   0  0  0  0  0  0  0  0  0  0  0  0
    0.6342   -2.7530   -5.5943 C   0  0  0  0  0  0  0  0  0  0  0  0
    0.2756   -3.0354   -6.5779 H   0  0  0  0  0  0  0  0  0  0  0  0
    1.8643   -3.2308   -5.1217 C   0  0  0  0  0  0  0  0  0  0  0  0
    2.4641   -3.8925   -5.7396 H   0  0  0  0  0  0  0  0  0  0  0  0
    2.3266   -2.8477   -3.8539 C   0  0  0  0  0  0  0  0  0  0  0  0
    3.2846   -3.2101   -3.4930 H   0  0  0  0  0  0  0  0  0  0  0  0
    1.5590   -1.9932   -3.0501 C   0  0  0  0  0  0  0  0  0  0  0  0
    1.9276   -1.6882   -2.0759 H   0  0  0  0  0  0  0  0  0  0  0  0
    0.3232   -1.5333   -3.5207 C   0  0  0  0  0  0  0  0  0  0  0  0
   -0.4977   -0.3153    0.8867 C   0  0  0  0  0  0  0  0  0  0  0  0
    0.6237   -0.0754    1.3161 O   0  0  0  0  0  0  0  0  0  0  0  0
   -1.5861    0.3240    1.4532 N   0  0  0  0  0  0  0  0  0  0  0  0
   -2.4953   -0.0045    1.1440 H   0  0  0  0  0  0  0  0  0  0  0  0
   -1.5006    1.0469    2.7157 C   0  0  0  0  0  0  0  0  0  0  0  0
   -0.7781    1.8665    2.6409 H   0  0  0  0  0  0  0  0  0  0  0  0
   -2.4753    1.4709    2.9747 H   0  0  0  0  0  0  0  0  0  0  0  0
   -1.1883    0.3738    3.5211 H   0  0  0  0  0  0  0  0  0  0  0  0
  1  2  1  0  0  0  0
  2  3  1  0  0  0  0
  2  4  1  0  0  0  0
  2  5  1  0  0  0  0
  5  6  2  0  0  0  0
  5  7  1  0  0  0  0
  7  8  1  0  0  0  0
  7  9  1  0  0  0  0
  9 10  1  0  0  0  0
  9 11  1  0  0  0  0
  9 29  1  0  0  0  0
 11 12  1  0  0  0  0
 11 13  1  0  0  0  0
 11 14  1  0  0  0  0
 14 15  2  0  0  0  0
 14 28  1  0  0  0  0
 15 16  1  0  0  0  0
 15 17  1  0  0  0  0
 17 18  1  0  0  0  0
 17 19  1  0  0  0  0
 19 20  1  0  0  0  0
 19 28  2  0  0  0  0
 20 21  1  0  0  0  0
 20 22  2  0  0  0  0
 22 23  1  0  0  0  0
 22 24  1  0  0  0  0
 24 25  1  0  0  0  0
 24 26  2  0  0  0  0
 26 27  1  0  0  0  0
 26 28  1  0  0  0  0
 29 30  2  0  0  0  0
 29 31  1  0  0  0  0
 31 32  1  0  0  0  0
 31 33  1  0  0  0  0
 33 34  1  0  0  0  0
 33 35  1  0  0  0  0
 33 36  1  0  0  0  0
M  END
$$$$

  -OEChem-03222214083D

 36 37  0     1  0  0  0  0  0999 V2000
   -3.3306   -4.7324    0.7094 H   0  0  0  0  0  0  0  0  0  0  0  0
   -3.2238   -3.9735   -0.0710 C   0  0  0  0  0  0  0  0  0  0  0  0
   -4.1861   -3.4758   -0.2124 H   0  0  0  0  0  0  0  0  0  0  0  0
   -2.9348   -4.4661   -1.0027 H   0  0  0  0  0  0  0  0  0  0  0  0
   -2.1677   -2.9604    0.3286 C   0  0  0  0  0  0  0  0  0  0  0  0
   -1.6016   -3.0657    1.4016 O   0  0  0  0  0  0  0  0  0  0  0  0
   -1.8620   -1.9224   -0.5272 N   0  0  0  0  0  0  0  0  0  0  0  0
   -2.2394   -2.0139   -1.4673 H   0  0  0  0  0  0  0  0  0  0  0  0
   -0.6549   -1.0838   -0.3976 C   0  0  1  0  0  0  0  0  0  0  0  0
    0.2243   -1.7268   -0.4576 H   0  0  0  0  0  0  0  0  0  0  0  0
   -0.6534   -0.0701   -1.5533 C   0  0  0  0  0  0  0  0  0  0  0  0
   -1.5227    0.5901   -1.4671 H   0  0  0  0  0  0  0  0  0  0  0  0
    0.2426    0.5543   -1.4686 H   0  0  0  0  0  0  0  0  0  0  0  0
   -0.6401   -0.7267   -2.9157 C   0  0  0  0  0  0  0  0  0  0  0  0
   -1.4530   -0.3245   -3.9490 C   0  0  0  0  0  0  0  0  0  0  0  0
   -2.1802    0.4838   -3.9033 H   0  0  0  0  0  0  0  0  0  0  0  0
   -1.1887   -1.1396   -5.0439 N   0  0  0  0  0  0  0  0  0  0  0  0
   -1.6254   -1.0583   -5.9603 H   0  0  0  0  0  0  0  0  0  0  0  0
   -0.1775   -2.0341   -4.7415 C   0  0  0  0  0  0  0  0  0  0  0  0
    0.4324   -3.0131   -5.5254 C   0  0  0  0  0  0  0  0  0  0  0  0
    0.1066   -3.1804   -6.5460 H   0  0  0  0  0  0  0  0  0  0  0  0
    1.4762   -3.7706   -4.9801 C   0  0  0  0  0  0  0  0  0  0  0  0
    1.9630   -4.5362   -5.5771 H   0  0  0  0  0  0  0  0  0  0  0  0
    1.9031   -3.5293   -3.6671 C   0  0  0  0  0  0  0  0  0  0  0  0
    2.7239   -4.1047   -3.2491 H   0  0  0  0  0  0  0  0  0  0  0  0
    1.2821   -2.5410   -2.8906 C   0  0  0  0  0  0  0  0  0  0  0  0
    1.6473   -2.3535   -1.8876 H   0  0  0  0  0  0  0  0  0  0  0  0
    0.2178   -1.8011   -3.4264 C   0  0  0  0  0  0  0  0  0  0  0  0
   -0.5341   -0.3120    0.9338 C   0  0  0  0  0  0  0  0  0  0  0  0
    0.5753   -0.0728    1.3936 O   0  0  0  0  0  0  0  0  0  0  0  0
   -1.6340    0.3504    1.4498 N   0  0  0  0  0  0  0  0  0  0  0  0
   -2.5362    0.0201    1.1222 H   0  0  0  0  0  0  0  0  0  0  0  0
   -1.5804    1.1025    2.6967 C   0  0  0  0  0  0  0  0  0  0  0  0
   -0.8515    1.9164    2.6229 H   0  0  0  0  0  0  0  0  0  0  0  0
   -2.5594    1.5374    2.9186 H   0  0  0  0  0  0  0  0  0  0  0  0
   -1.2945    0.4468    3.5258 H   0  0  0  0  0  0  0  0  0  0  0  0
  1  2  1  0  0  0  0
  2  3  1  0  0  0  0
  2  4  1  0  0  0  0
  2  5  1  0  0  0  0
  5  6  2  0  0  0  0
  5  7  1  0  0  0  0
  7  8  1  0  0  0  0
  7  9  1  0  0  0  0
  9 10  1  0  0  0  0
  9 11  1  0  0  0  0
  9 29  1  0  0  0  0
 11 12  1  0  0  0  0
 11 13  1  0  0  0  0
 11 14  1  0  0  0  0
 14 15  2  0  0  0  0
 14 28  1  0  0  0  0
 15 16  1  0  0  0  0
 15 17  1  0  0  0  0
 17 18  1  0  0  0  0
 17 19  1  0  0  0  0
 19 20  1  0  0  0  0
 19 28  2  0  0  0  0
 20 21  1  0  0  0  0
 20 22  2  0  0  0  0
 22 23  1  0  0  0  0
 22 24  1  0  0  0  0
 24 25  1  0  0  0  0
 24 26  2  0  0  0  0
 26 27  1  0  0  0  0
 26 28  1  0  0  0  0
 29 30  2  0  0  0  0
 29 31  1  0  0  0  0
 31 32  1  0  0  0  0
 31 33  1  0  0  0  0
 33 34  1  0  0  0  0
 33 35  1  0  0  0  0
 33 36  1  0  0  0  0
M  END
$$$$

  -OEChem-03222214083D

 36 37  0     1  0  0  0  0  0999 V2000
   -3.2731   -4.7382    0.8084 H   0  0  0  0  0  0  0  0  0  0  0  0
   -3.1659   -3.9952    0.0129 C   0  0  0  0  0  0  0  0  0  0  0  0
   -4.1318   -3.5111   -0.1488 H   0  0  0  0  0  0  0  0  0  0  0  0
   -2.8621   -4.5046   -0.9049 H   0  0  0  0  0  0  0  0  0  0  0  0
   -2.1248   -2.9626    0.4009 C   0  0  0  0  0  0  0  0  0  0  0  0
   -1.5698   -3.0382    1.4821 O   0  0  0  0  0  0  0  0  0  0  0  0
   -1.8122   -1.9463   -0.4782 N   0  0  0  0  0  0  0  0  0  0  0  0
   -2.1773   -2.0599   -1.4214 H   0  0  0  0  0  0  0  0  0  0  0  0
   -0.6245   -1.0809   -0.3447 C   0  0  1  0  0  0  0  0  0  0  0  0
    0.2789   -1.6906   -0.3568 H   0  0  0  0  0  0  0  0  0  0  0  0
   -0.6163   -0.1015   -1.5260 C   0  0  0  0  0  0  0  0  0  0  0  0
   -1.4958    0.5482   -1.4677 H   0  0  0  0  0  0  0  0  0  0  0  0
    0.2682    0.5376   -1.4295 H   0  0  0  0  0  0  0  0  0  0  0  0
   -0.5619   -0.7572   -2.8920 C   0  0  0  0  0  0  0  0  0  0  0  0
   -1.1392   -0.1545   -3.9850 C   0  0  0  0  0  0  0  0  0  0  0  0
   -1.6483    0.8071   -3.9781 H   0  0  0  0  0  0  0  0  0  0  0  0
   -0.9672   -0.9887   -5.0815 N   0  0  0  0  0  0  0  0  0  0  0  0
   -1.2727   -0.7870   -6.0318 H   0  0  0  0  0  0  0  0  0  0  0  0
   -0.2635   -2.1192   -4.7129 C   0  0  0  0  0  0  0  0  0  0  0  0
    0.1396   -3.2086   -5.4839 C   0  0  0  0  0  0  0  0  0  0  0  0
   -0.1054   -3.2539   -6.5391 H   0  0  0  0  0  0  0  0  0  0  0  0
    0.8679   -4.2384   -4.8790 C   0  0  0  0  0  0  0  0  0  0  0  0
    1.1921   -5.0933   -5.4652 H   0  0  0  0  0  0  0  0  0  0  0  0
    1.1878   -4.1579   -3.5178 C   0  0  0  0  0  0  0  0  0  0  0  0
    1.7637   -4.9512   -3.0499 H   0  0  0  0  0  0  0  0  0  0  0  0
    0.7772   -3.0549   -2.7556 C   0  0  0  0  0  0  0  0  0  0  0  0
    1.0610   -3.0223   -1.7120 H   0  0  0  0  0  0  0  0  0  0  0  0
    0.0312   -2.0249   -3.3526 C   0  0  0  0  0  0  0  0  0  0  0  0
   -0.5648   -0.2687    0.9676 C   0  0  0  0  0  0  0  0  0  0  0  0
    0.5219    0.0096    1.4582 O   0  0  0  0  0  0  0  0  0  0  0  0
   -1.6954    0.3828    1.4278 N   0  0  0  0  0  0  0  0  0  0  0  0
   -2.5782    0.0272    1.0752 H   0  0  0  0  0  0  0  0  0  0  0  0
   -1.7023    1.1671    2.6559 C   0  0  0  0  0  0  0  0  0  0  0  0
   -0.9932    1.9985    2.5841 H   0  0  0  0  0  0  0  0  0  0  0  0
   -2.6994    1.5805    2.8351 H   0  0  0  0  0  0  0  0  0  0  0  0
   -1.4263    0.5404    3.5105 H   0  0  0  0  0  0  0  0  0  0  0  0
  1  2  1  0  0  0  0
  2  3  1  0  0  0  0
  2  4  1  0  0  0  0
  2  5  1  0  0  0  0
  5  6  2  0  0  0  0
  5  7  1  0  0  0  0
  7  8  1  0  0  0  0
  7  9  1  0  0  0  0
  9 10  1  0  0  0  0
  9 11  1  0  0  0  0
  9 29  1  0  0  0  0
 11 12  1  0  0  0  0
 11 13  1  0  0  0  0
 11 14  1  0  0  0  0
 14 15  2  0  0  0  0
 14 28  1  0  0  0  0
 15 16  1  0  0  0  0
 15 17  1  0  0  0  0
 17 18  1  0  0  0  0
 17 19  1  0  0  0  0
 19 20  1  0  0  0  0
 19 28  2  0  0  0  0
 20 21  1  0  0  0  0
 20 22  2  0  0  0  0
 22 23  1  0  0  0  0
 22 24  1  0  0  0  0
 24 25  1  0  0  0  0
 24 26  2  0  0  0  0
 26 27  1  0  0  0  0
 26 28  1  0  0  0  0
 29 30  2  0  0  0  0
 29 31  1  0  0  0  0
 31 32  1  0  0  0  0
 31 33  1  0  0  0  0
 33 34  1  0  0  0  0
 33 35  1  0  0  0  0
 33 36  1  0  0  0  0
M  END
$$$$

  -OEChem-03222214083D

 36 37  0     1  0  0  0  0  0999 V2000
   -3.2689   -4.7401    0.8650 H   0  0  0  0  0  0  0  0  0  0  0  0
   -3.1882   -3.9819    0.0807 C   0  0  0  0  0  0  0  0  0  0  0  0
   -4.1556   -3.4869   -0.0317 H   0  0  0  0  0  0  0  0  0  0  0  0
   -2.9270   -4.4746   -0.8592 H   0  0  0  0  0  0  0  0  0  0  0  0
   -2.1241   -2.9644    0.4455 C   0  0  0  0  0  0  0  0  0  0  0  0
   -1.5417   -3.0485    1.5112 O   0  0  0  0  0  0  0  0  0  0  0  0
   -1.8118   -1.9579   -0.4442 N   0  0  0  0  0  0  0  0  0  0  0  0
   -2.2019   -2.0622   -1.3787 H   0  0  0  0  0  0  0  0  0  0  0  0
   -0.6252   -1.0875   -0.3291 C   0  0  1  0  0  0  0  0  0  0  0  0
    0.2857   -1.6908   -0.3442 H   0  0  0  0  0  0  0  0  0  0  0  0
   -0.6225   -0.1320   -1.5284 C   0  0  0  0  0  0  0  0  0  0  0  0
   -1.5081    0.5104   -1.4809 H   0  0  0  0  0  0  0  0  0  0  0  0
    0.2559    0.5167   -1.4412 H   0  0  0  0  0  0  0  0  0  0  0  0
   -0.5680   -0.7994   -2.8902 C   0  0  0  0  0  0  0  0  0  0  0  0
   -0.8678   -0.0871   -4.0274 C   0  0  0  0  0  0  0  0  0  0  0  0
   -1.1425    0.9652   -4.0564 H   0  0  0  0  0  0  0  0  0  0  0  0
   -0.7651   -0.9429   -5.1160 N   0  0  0  0  0  0  0  0  0  0  0  0
   -0.9092   -0.6806   -6.0894 H   0  0  0  0  0  0  0  0  0  0  0  0
   -0.3882   -2.2043   -4.6961 C   0  0  0  0  0  0  0  0  0  0  0  0
   -0.1637   -3.3617   -5.4407 C   0  0  0  0  0  0  0  0  0  0  0  0
   -0.2863   -3.3530   -6.5182 H   0  0  0  0  0  0  0  0  0  0  0  0
    0.2257   -4.5319   -4.7802 C   0  0  0  0  0  0  0  0  0  0  0  0
    0.4074   -5.4418   -5.3448 H   0  0  0  0  0  0  0  0  0  0  0  0
    0.3904   -4.5243   -3.3898 C   0  0  0  0  0  0  0  0  0  0  0  0
    0.7031   -5.4294   -2.8773 H   0  0  0  0  0  0  0  0  0  0  0  0
    0.1633   -3.3526   -2.6547 C   0  0  0  0  0  0  0  0  0  0  0  0
    0.3136   -3.3855   -1.5830 H   0  0  0  0  0  0  0  0  0  0  0  0
   -0.2399   -2.1756   -3.3092 C   0  0  0  0  0  0  0  0  0  0  0  0
   -0.5630   -0.2585    0.9723 C   0  0  0  0  0  0  0  0  0  0  0  0
    0.5240    0.0292    1.4569 O   0  0  0  0  0  0  0  0  0  0  0  0
   -1.6953    0.3942    1.4268 N   0  0  0  0  0  0  0  0  0  0  0  0
   -2.5779    0.0378    1.0741 H   0  0  0  0  0  0  0  0  0  0  0  0
   -1.7039    1.1936    2.6450 C   0  0  0  0  0  0  0  0  0  0  0  0
   -0.9918    2.0217    2.5658 H   0  0  0  0  0  0  0  0  0  0  0  0
   -2.7004    1.6124    2.8144 H   0  0  0  0  0  0  0  0  0  0  0  0
   -1.4335    0.5769    3.5086 H   0  0  0  0  0  0  0  0  0  0  0  0
  1  2  1  0  0  0  0
  2  3  1  0  0  0  0
  2  4  1  0  0  0  0
  2  5  1  0  0  0  0
  5  6  2  0  0  0  0
  5  7  1  0  0  0  0
  7  8  1  0  0  0  0
  7  9  1  0  0  0  0
  9 10  1  0  0  0  0
  9 11  1  0  0  0  0
  9 29  1  0  0  0  0
 11 12  1  0  0  0  0
 11 13  1  0  0  0  0
 11 14  1  0  0  0  0
 14 15  2  0  0  0  0
 14 28  1  0  0  0  0
 15 16  1  0  0  0  0
 15 17  1  0  0  0  0
 17 18  1  0  0  0  0
 17 19  1  0  0  0  0
 19 20  1  0  0  0  0
 19 28  2  0  0  0  0
 20 21  1  0  0  0  0
 20 22  2  0  0  0  0
 22 23  1  0  0  0  0
 22 24  1  0  0  0  0
 24 25  1  0  0  0  0
 24 26  2  0  0  0  0
 26 27  1  0  0  0  0
 26 28  1  0  0  0  0
 29 30  2  0  0  0  0
 29 31  1  0  0  0  0
 31 32  1  0  0  0  0
 31 33  1  0  0  0  0
 33 34  1  0  0  0  0
 33 35  1  0  0  0  0
 33 36  1  0  0  0  0
M  END
$$$$

  -OEChem-03222214083D

 36 37  0     1  0  0  0  0  0999 V2000
   -3.5374   -4.6138    1.1898 H   0  0  0  0  0  0  0  0  0  0  0  0
   -3.4923   -3.8570    0.4015 C   0  0  0  0  0  0  0  0  0  0  0  0
   -4.4258   -3.2895    0.4045 H   0  0  0  0  0  0  0  0  0  0  0  0
   -3.3827   -4.3599   -0.5626 H   0  0  0  0  0  0  0  0  0  0  0  0
   -2.3191   -2.9251    0.6382 C   0  0  0  0  0  0  0  0  0  0  0  0
   -1.6370   -3.0454    1.6393 O   0  0  0  0  0  0  0  0  0  0  0  0
   -2.0194   -1.9556   -0.2958 N   0  0  0  0  0  0  0  0  0  0  0  0
   -2.5221   -2.0152   -1.1799 H   0  0  0  0  0  0  0  0  0  0  0  0
   -0.7849   -1.1471   -0.2948 C   0  0  1  0  0  0  0  0  0  0  0  0
    0.0670   -1.8323   -0.3615 H   0  0  0  0  0  0  0  0  0  0  0  0
   -0.7679   -0.2406   -1.5373 C   0  0  0  0  0  0  0  0  0  0  0  0
   -1.4542    0.5944   -1.3615 H   0  0  0  0  0  0  0  0  0  0  0  0
    0.2381    0.1830   -1.6295 H   0  0  0  0  0  0  0  0  0  0  0  0
   -1.1448   -0.8640   -2.8721 C   0  0  0  0  0  0  0  0  0  0  0  0
   -1.1509   -0.0837   -4.0051 C   0  0  0  0  0  0  0  0  0  0  0  0
   -0.9873    0.9919   -4.0257 H   0  0  0  0  0  0  0  0  0  0  0  0
   -1.4363   -0.8924   -5.0966 N   0  0  0  0  0  0  0  0  0  0  0  0
   -1.5060   -0.5771   -6.0624 H   0  0  0  0  0  0  0  0  0  0  0  0
   -1.4909   -2.2142   -4.7031 C   0  0  0  0  0  0  0  0  0  0  0  0
   -1.6778   -3.3630   -5.4711 C   0  0  0  0  0  0  0  0  0  0  0  0
   -1.8666   -3.2864   -6.5362 H   0  0  0  0  0  0  0  0  0  0  0  0
   -1.5961   -4.6153   -4.8536 C   0  0  0  0  0  0  0  0  0  0  0  0
   -1.7357   -5.5210   -5.4367 H   0  0  0  0  0  0  0  0  0  0  0  0
   -1.2972   -4.6981   -3.4886 C   0  0  0  0  0  0  0  0  0  0  0  0
   -1.1921   -5.6709   -3.0172 H   0  0  0  0  0  0  0  0  0  0  0  0
   -1.1097   -3.5326   -2.7328 C   0  0  0  0  0  0  0  0  0  0  0  0
   -0.8203   -3.6373   -1.6944 H   0  0  0  0  0  0  0  0  0  0  0  0
   -1.2574   -2.2671   -3.3287 C   0  0  0  0  0  0  0  0  0  0  0  0
   -0.5651   -0.2883    0.9686 C   0  0  0  0  0  0  0  0  0  0  0  0
    0.5745   -0.0483    1.3459 O   0  0  0  0  0  0  0  0  0  0  0  0
   -1.6150    0.4417    1.4970 N   0  0  0  0  0  0  0  0  0  0  0  0
   -2.5443    0.1366    1.2257 H   0  0  0  0  0  0  0  0  0  0  0  0
   -1.4741    1.2792    2.6814 C   0  0  0  0  0  0  0  0  0  0  0  0
   -0.6941    2.0329    2.5297 H   0  0  0  0  0  0  0  0  0  0  0  0
   -2.4147    1.7968    2.8916 H   0  0  0  0  0  0  0  0  0  0  0  0
   -1.2102    0.6691    3.5516 H   0  0  0  0  0  0  0  0  0  0  0  0
  1  2  1  0  0  0  0
  2  3  1  0  0  0  0
  2  4  1  0  0  0  0
  2  5  1  0  0  0  0
  5  6  2  0  0  0  0
  5  7  1  0  0  0  0
  7  8  1  0  0  0  0
  7  9  1  0  0  0  0
  9 10  1  0  0  0  0
  9 11  1  0  0  0  0
  9 29  1  0  0  0  0
 11 12  1  0  0  0  0
 11 13  1  0  0  0  0
 11 14  1  0  0  0  0
 14 15  2  0  0  0  0
 14 28  1  0  0  0  0
 15 16  1  0  0  0  0
 15 17  1  0  0  0  0
 17 18  1  0  0  0  0
 17 19  1  0  0  0  0
 19 20  1  0  0  0  0
 19 28  2  0  0  0  0
 20 21  1  0  0  0  0
 20 22  2  0  0  0  0
 22 23  1  0  0  0  0
 22 24  1  0  0  0  0
 24 25  1  0  0  0  0
 24 26  2  0  0  0  0
 26 27  1  0  0  0  0
 26 28  1  0  0  0  0
 29 30  2  0  0  0  0
 29 31  1  0  0  0  0
 31 32  1  0  0  0  0
 31 33  1  0  0  0  0
 33 34  1  0  0  0  0
 33 35  1  0  0  0  0
 33 36  1  0  0  0  0
M  END
$$$$

  -OEChem-03222214083D

 36 37  0     1  0  0  0  0  0999 V2000
   -3.5644   -4.4971    1.5196 H   0  0  0  0  0  0  0  0  0  0  0  0
   -3.5204   -3.7997    0.6781 C   0  0  0  0  0  0  0  0  0  0  0  0
   -4.4199   -3.1796    0.6880 H   0  0  0  0  0  0  0  0  0  0  0  0
   -3.4919   -4.3728   -0.2515 H   0  0  0  0  0  0  0  0  0  0  0  0
   -2.2863   -2.9242    0.7905 C   0  0  0  0  0  0  0  0  0  0  0  0
   -1.5429   -3.0411    1.7471 O   0  0  0  0  0  0  0  0  0  0  0  0
   -2.0196   -1.9865   -0.1863 N   0  0  0  0  0  0  0  0  0  0  0  0
   -2.6017   -2.0137   -1.0215 H   0  0  0  0  0  0  0  0  0  0  0  0
   -0.7952   -1.1720   -0.2525 C   0  0  1  0  0  0  0  0  0  0  0  0
    0.0565   -1.8575   -0.3202 H   0  0  0  0  0  0  0  0  0  0  0  0
   -0.8074   -0.3033   -1.5226 C   0  0  0  0  0  0  0  0  0  0  0  0
   -1.5027    0.5237   -1.3445 H   0  0  0  0  0  0  0  0  0  0  0  0
    0.1909    0.1367   -1.6252 H   0  0  0  0  0  0  0  0  0  0  0  0
   -1.1997   -0.9057   -2.8675 C   0  0  0  0  0  0  0  0  0  0  0  0
   -0.8977   -0.1684   -3.9907 C   0  0  0  0  0  0  0  0  0  0  0  0
   -0.4825    0.8377   -3.9847 H   0  0  0  0  0  0  0  0  0  0  0  0
   -1.2693   -0.8892   -5.1142 N   0  0  0  0  0  0  0  0  0  0  0  0
   -1.1734   -0.5737   -6.0777 H   0  0  0  0  0  0  0  0  0  0  0  0
   -1.6753   -2.1524   -4.7436 C   0  0  0  0  0  0  0  0  0  0  0  0
   -2.0510   -3.2173   -5.5609 C   0  0  0  0  0  0  0  0  0  0  0  0
   -2.1217   -3.0867   -6.6351 H   0  0  0  0  0  0  0  0  0  0  0  0
   -2.3073   -4.4613   -4.9793 C   0  0  0  0  0  0  0  0  0  0  0  0
   -2.5975   -5.3047   -5.5992 H   0  0  0  0  0  0  0  0  0  0  0  0
   -2.1398   -4.6252   -3.6004 C   0  0  0  0  0  0  0  0  0  0  0  0
   -2.2830   -5.6051   -3.1540 H   0  0  0  0  0  0  0  0  0  0  0  0
   -1.7578   -3.5404   -2.7982 C   0  0  0  0  0  0  0  0  0  0  0  0
   -1.5573   -3.7462   -1.7576 H   0  0  0  0  0  0  0  0  0  0  0  0
   -1.5825   -2.2578   -3.3529 C   0  0  0  0  0  0  0  0  0  0  0  0
   -0.5491   -0.2680    0.9745 C   0  0  0  0  0  0  0  0  0  0  0  0
    0.5981   -0.0017    1.3087 O   0  0  0  0  0  0  0  0  0  0  0  0
   -1.5907    0.4709    1.5074 N   0  0  0  0  0  0  0  0  0  0  0  0
   -2.5255    0.1518    1.2736 H   0  0  0  0  0  0  0  0  0  0  0  0
   -1.4207    1.3653    2.6455 C   0  0  0  0  0  0  0  0  0  0  0  0
   -0.6842    2.1428    2.4166 H   0  0  0  0  0  0  0  0  0  0  0  0
   -2.3697    1.8525    2.8883 H   0  0  0  0  0  0  0  0  0  0  0  0
   -1.0813    0.8064    3.5241 H   0  0  0  0  0  0  0  0  0  0  0  0
  1  2  1  0  0  0  0
  2  3  1  0  0  0  0
  2  4  1  0  0  0  0
  2  5  1  0  0  0  0
  5  6  2  0  0  0  0
  5  7  1  0  0  0  0
  7  8  1  0  0  0  0
  7  9  1  0  0  0  0
  9 10  1  0  0  0  0
  9 11  1  0  0  0  0
  9 29  1  0  0  0  0
 11 12  1  0  0  0  0
 11 13  1  0  0  0  0
 11 14  1  0  0  0  0
 14 15  2  0  0  0  0
 14 28  1  0  0  0  0
 15 16  1  0  0  0  0
 15 17  1  0  0  0  0
 17 18  1  0  0  0  0
 17 19  1  0  0  0  0
 19 20  1  0  0  0  0
 19 28  2  0  0  0  0
 20 21  1  0  0  0  0
 20 22  2  0  0  0  0
 22 23  1  0  0  0  0
 22 24  1  0  0  0  0
 24 25  1  0  0  0  0
 24 26  2  0  0  0  0
 26 27  1  0  0  0  0
 26 28  1  0  0  0  0
 29 30  2  0  0  0  0
 29 31  1  0  0  0  0
 31 32  1  0  0  0  0
 31 33  1  0  0  0  0
 33 34  1  0  0  0  0
 33 35  1  0  0  0  0
 33 36  1  0  0  0  0
M  END
$$$$

  -OEChem-03222214083D

 36 37  0     1  0  0  0  0  0999 V2000
   -3.1552   -4.5660    1.8392 H   0  0  0  0  0  0  0  0  0  0  0  0
   -3.1161   -4.0119    0.8970 C   0  0  0  0  0  0  0  0  0  0  0  0
   -4.0662   -3.4911    0.7571 H   0  0  0  0  0  0  0  0  0  0  0  0
   -2.9708   -4.7222    0.0795 H   0  0  0  0  0  0  0  0  0  0  0  0
   -1.9722   -3.0153    0.9257 C   0  0  0  0  0  0  0  0  0  0  0  0
   -1.1830   -3.0283    1.8527 O   0  0  0  0  0  0  0  0  0  0  0  0
   -1.8368   -2.0891   -0.0893 N   0  0  0  0  0  0  0  0  0  0  0  0
   -2.4974   -2.1238   -0.8562 H   0  0  0  0  0  0  0  0  0  0  0  0
   -0.7149   -1.1611   -0.2272 C   0  0  1  0  0  0  0  0  0  0  0  0
    0.1940   -1.7715   -0.2730 H   0  0  0  0  0  0  0  0  0  0  0  0
   -0.7733   -0.3447   -1.5325 C   0  0  0  0  0  0  0  0  0  0  0  0
   -1.5439    0.4205   -1.3923 H   0  0  0  0  0  0  0  0  0  0  0  0
    0.1830    0.1831   -1.6219 H   0  0  0  0  0  0  0  0  0  0  0  0
   -1.0914   -1.0104   -2.8726 C   0  0  0  0  0  0  0  0  0  0  0  0
   -0.5098   -0.4099   -3.9687 C   0  0  0  0  0  0  0  0  0  0  0  0
    0.1574    0.4492   -3.9323 H   0  0  0  0  0  0  0  0  0  0  0  0
   -0.9011   -1.0801   -5.1124 N   0  0  0  0  0  0  0  0  0  0  0  0
   -0.6030   -0.8587   -6.0606 H   0  0  0  0  0  0  0  0  0  0  0  0
   -1.7670   -2.0972   -4.7812 C   0  0  0  0  0  0  0  0  0  0  0  0
   -2.3934   -2.9868   -5.6522 C   0  0  0  0  0  0  0  0  0  0  0  0
   -2.2074   -2.9339   -6.7192 H   0  0  0  0  0  0  0  0  0  0  0  0
   -3.2651   -3.9437   -5.1329 C   0  0  0  0  0  0  0  0  0  0  0  0
   -3.7609   -4.6483   -5.7944 H   0  0  0  0  0  0  0  0  0  0  0  0
   -3.4992   -3.9839   -3.7565 C   0  0  0  0  0  0  0  0  0  0  0  0
   -4.1846   -4.7233   -3.3527 H   0  0  0  0  0  0  0  0  0  0  0  0
   -2.8589   -3.0789   -2.8973 C   0  0  0  0  0  0  0  0  0  0  0  0
   -3.1103   -3.1781   -1.8567 H   0  0  0  0  0  0  0  0  0  0  0  0
   -1.9565   -2.1118   -3.3927 C   0  0  0  0  0  0  0  0  0  0  0  0
   -0.5282   -0.1945    0.9627 C   0  0  0  0  0  0  0  0  0  0  0  0
    0.5938    0.2016    1.2508 O   0  0  0  0  0  0  0  0  0  0  0  0
   -1.6251    0.4489    1.5087 N   0  0  0  0  0  0  0  0  0  0  0  0
   -2.5300    0.0366    1.3066 H   0  0  0  0  0  0  0  0  0  0  0  0
   -1.5164    1.3928    2.6139 C   0  0  0  0  0  0  0  0  0  0  0  0
   -0.8573    2.2254    2.3456 H   0  0  0  0  0  0  0  0  0  0  0  0
   -2.5009    1.8007    2.8609 H   0  0  0  0  0  0  0  0  0  0  0  0
   -1.1122    0.8956    3.5020 H   0  0  0  0  0  0  0  0  0  0  0  0
  1  2  1  0  0  0  0
  2  3  1  0  0  0  0
  2  4  1  0  0  0  0
  2  5  1  0  0  0  0
  5  6  2  0  0  0  0
  5  7  1  0  0  0  0
  7  8  1  0  0  0  0
  7  9  1  0  0  0  0
  9 10  1  0  0  0  0
  9 11  1  0  0  0  0
  9 29  1  0  0  0  0
 11 12  1  0  0  0  0
 11 13  1  0  0  0  0
 11 14  1  0  0  0  0
 14 15  2  0  0  0  0
 14 28  1  0  0  0  0
 15 16  1  0  0  0  0
 15 17  1  0  0  0  0
 17 18  1  0  0  0  0
 17 19  1  0  0  0  0
 19 20  1  0  0  0  0
 19 28  2  0  0  0  0
 20 21  1  0  0  0  0
 20 22  2  0  0  0  0
 22 23  1  0  0  0  0
 22 24  1  0  0  0  0
 24 25  1  0  0  0  0
 24 26  2  0  0  0  0
 26 27  1  0  0  0  0
 26 28  1  0  0  0  0
 29 30  2  0  0  0  0
 29 31  1  0  0  0  0
 31 32  1  0  0  0  0
 31 33  1  0  0  0  0
 33 34  1  0  0  0  0
 33 35  1  0  0  0  0
 33 36  1  0  0  0  0
M  END
$$$$

  -OEChem-03222214083D

 36 37  0     1  0  0  0  0  0999 V2000
   -2.6896   -4.9882    1.3895 H   0  0  0  0  0  0  0  0  0  0  0  0
   -2.7686   -4.2972    0.5453 C   0  0  0  0  0  0  0  0  0  0  0  0
   -3.8066   -3.9683    0.4547 H   0  0  0  0  0  0  0  0  0  0  0  0
   -2.4794   -4.8240   -0.3675 H   0  0  0  0  0  0  0  0  0  0  0  0
   -1.8619   -3.1005    0.7635 C   0  0  0  0  0  0  0  0  0  0  0  0
   -1.2505   -2.9842    1.8099 O   0  0  0  0  0  0  0  0  0  0  0  0
   -1.7470   -2.1488   -0.2286 N   0  0  0  0  0  0  0  0  0  0  0  0
   -2.1109   -2.4397   -1.1330 H   0  0  0  0  0  0  0  0  0  0  0  0
   -0.6697   -1.1506   -0.2848 C   0  0  1  0  0  0  0  0  0  0  0  0
    0.2752   -1.7045   -0.3072 H   0  0  0  0  0  0  0  0  0  0  0  0
   -0.7212   -0.2759   -1.5590 C   0  0  0  0  0  0  0  0  0  0  0  0
   -1.5316    0.4517   -1.4454 H   0  0  0  0  0  0  0  0  0  0  0  0
    0.2135    0.2911   -1.6303 H   0  0  0  0  0  0  0  0  0  0  0  0
   -0.9645   -1.0183   -2.8601 C   0  0  0  0  0  0  0  0  0  0  0  0
   -0.2179   -0.7551   -3.9853 C   0  0  0  0  0  0  0  0  0  0  0  0
    0.6639   -0.1178   -4.0169 H   0  0  0  0  0  0  0  0  0  0  0  0
   -0.7492   -1.4783   -5.0456 N   0  0  0  0  0  0  0  0  0  0  0  0
   -0.3771   -1.4935   -5.9936 H   0  0  0  0  0  0  0  0  0  0  0  0
   -1.9308   -2.0797   -4.6615 C   0  0  0  0  0  0  0  0  0  0  0  0
   -2.8457   -2.8174   -5.4120 C   0  0  0  0  0  0  0  0  0  0  0  0
   -2.6368   -3.0581   -6.4488 H   0  0  0  0  0  0  0  0  0  0  0  0
   -4.0477   -3.2173   -4.8178 C   0  0  0  0  0  0  0  0  0  0  0  0
   -4.7728   -3.7892   -5.3898 H   0  0  0  0  0  0  0  0  0  0  0  0
   -4.3317   -2.8392   -3.4994 C   0  0  0  0  0  0  0  0  0  0  0  0
   -5.2865   -3.1069   -3.0563 H   0  0  0  0  0  0  0  0  0  0  0  0
   -3.4006   -2.0959   -2.7608 C   0  0  0  0  0  0  0  0  0  0  0  0
   -3.6796   -1.7580   -1.7693 H   0  0  0  0  0  0  0  0  0  0  0  0
   -2.1543   -1.7643   -3.3221 C   0  0  0  0  0  0  0  0  0  0  0  0
   -0.5934   -0.2054    0.9348 C   0  0  0  0  0  0  0  0  0  0  0  0
    0.4917    0.2455    1.2801 O   0  0  0  0  0  0  0  0  0  0  0  0
   -1.7482    0.3632    1.4417 N   0  0  0  0  0  0  0  0  0  0  0  0
   -2.6121   -0.1154    1.2077 H   0  0  0  0  0  0  0  0  0  0  0  0
   -1.7427    1.2794    2.5751 C   0  0  0  0  0  0  0  0  0  0  0  0
   -1.1358    2.1633    2.3520 H   0  0  0  0  0  0  0  0  0  0  0  0
   -2.7615    1.6099    2.7981 H   0  0  0  0  0  0  0  0  0  0  0  0
   -1.3344    0.7868    3.4640 H   0  0  0  0  0  0  0  0  0  0  0  0
  1  2  1  0  0  0  0
  2  3  1  0  0  0  0
  2  4  1  0  0  0  0
  2  5  1  0  0  0  0
  5  6  2  0  0  0  0
  5  7  1  0  0  0  0
  7  8  1  0  0  0  0
  7  9  1  0  0  0  0
  9 10  1  0  0  0  0
  9 11  1  0  0  0  0
  9 29  1  0  0  0  0
 11 12  1  0  0  0  0
 11 13  1  0  0  0  0
 11 14  1  0  0  0  0
 14 15  2  0  0  0  0
 14 28  1  0  0  0  0
 15 16  1  0  0  0  0
 15 17  1  0  0  0  0
 17 18  1  0  0  0  0
 17 19  1  0  0  0  0
 19 20  1  0  0  0  0
 19 28  2  0  0  0  0
 20 21  1  0  0  0  0
 20 22  2  0  0  0  0
 22 23  1  0  0  0  0
 22 24  1  0  0  0  0
 24 25  1  0  0  0  0
 24 26  2  0  0  0  0
 26 27  1  0  0  0  0
 26 28  1  0  0  0  0
 29 30  2  0  0  0  0
 29 31  1  0  0  0  0
 31 32  1  0  0  0  0
 31 33  1  0  0  0  0
 33 34  1  0  0  0  0
 33 35  1  0  0  0  0
 33 36  1  0  0  0  0
M  END
$$$$

  -OEChem-03222214083D

 36 37  0     1  0  0  0  0  0999 V2000
   -2.8786   -4.9596    1.1319 H   0  0  0  0  0  0  0  0  0  0  0  0
   -2.9347   -4.2152    0.3326 C   0  0  0  0  0  0  0  0  0  0  0  0
   -3.9526   -3.8206    0.2879 H   0  0  0  0  0  0  0  0  0  0  0  0
   -2.6979   -4.7012   -0.6173 H   0  0  0  0  0  0  0  0  0  0  0  0
   -1.9544   -3.0888    0.5987 C   0  0  0  0  0  0  0  0  0  0  0  0
   -1.3223   -3.0635    1.6392 O   0  0  0  0  0  0  0  0  0  0  0  0
   -1.8031   -2.0890   -0.3387 N   0  0  0  0  0  0  0  0  0  0  0  0
   -2.2118   -2.2907   -1.2497 H   0  0  0  0  0  0  0  0  0  0  0  0
   -0.6912   -1.1235   -0.3432 C   0  0  1  0  0  0  0  0  0  0  0  0
    0.2369   -1.7025   -0.4015 H   0  0  0  0  0  0  0  0  0  0  0  0
   -0.7403   -0.1949   -1.5759 C   0  0  0  0  0  0  0  0  0  0  0  0
   -1.5256    0.5543   -1.4313 H   0  0  0  0  0  0  0  0  0  0  0  0
    0.2112    0.3425   -1.6505 H   0  0  0  0  0  0  0  0  0  0  0  0
   -1.0198   -0.9199   -2.8742 C   0  0  0  0  0  0  0  0  0  0  0  0
   -0.1600   -0.9264   -3.9461 C   0  0  0  0  0  0  0  0  0  0  0  0
    0.8396   -0.4963   -3.9540 H   0  0  0  0  0  0  0  0  0  0  0  0
   -0.7818   -1.6020   -4.9914 N   0  0  0  0  0  0  0  0  0  0  0  0
   -0.3715   -1.7710   -5.9082 H   0  0  0  0  0  0  0  0  0  0  0  0
   -2.0781   -1.9361   -4.6431 C   0  0  0  0  0  0  0  0  0  0  0  0
   -3.0921   -2.5552   -5.3735 C   0  0  0  0  0  0  0  0  0  0  0  0
   -2.9037   -2.9055   -6.3826 H   0  0  0  0  0  0  0  0  0  0  0  0
   -4.3594   -2.7008   -4.7942 C   0  0  0  0  0  0  0  0  0  0  0  0
   -5.1598   -3.1768   -5.3536 H   0  0  0  0  0  0  0  0  0  0  0  0
   -4.6016   -2.2053   -3.5050 C   0  0  0  0  0  0  0  0  0  0  0  0
   -5.5938   -2.2909   -3.0717 H   0  0  0  0  0  0  0  0  0  0  0  0
   -3.5732   -1.5844   -2.7827 C   0  0  0  0  0  0  0  0  0  0  0  0
   -3.7816   -1.1670   -1.8028 H   0  0  0  0  0  0  0  0  0  0  0  0
   -2.2906   -1.4875   -3.3431 C   0  0  0  0  0  0  0  0  0  0  0  0
   -0.5820   -0.2469    0.9223 C   0  0  0  0  0  0  0  0  0  0  0  0
    0.5182    0.1485    1.2870 O   0  0  0  0  0  0  0  0  0  0  0  0
   -1.7171    0.3329    1.4600 N   0  0  0  0  0  0  0  0  0  0  0  0
   -2.5961   -0.1050    1.2038 H   0  0  0  0  0  0  0  0  0  0  0  0
   -1.6806    1.1825    2.6435 C   0  0  0  0  0  0  0  0  0  0  0  0
   -1.0363    2.0514    2.4725 H   0  0  0  0  0  0  0  0  0  0  0  0
   -2.6860    1.5424    2.8819 H   0  0  0  0  0  0  0  0  0  0  0  0
   -1.2978    0.6234    3.5039 H   0  0  0  0  0  0  0  0  0  0  0  0
  1  2  1  0  0  0  0
  2  3  1  0  0  0  0
  2  4  1  0  0  0  0
  2  5  1  0  0  0  0
  5  6  2  0  0  0  0
  5  7  1  0  0  0  0
  7  8  1  0  0  0  0
  7  9  1  0  0  0  0
  9 10  1  0  0  0  0
  9 11  1  0  0  0  0
  9 29  1  0  0  0  0
 11 12  1  0  0  0  0
 11 13  1  0  0  0  0
 11 14  1  0  0  0  0
 14 15  2  0  0  0  0
 14 28  1  0  0  0  0
 15 16  1  0  0  0  0
 15 17  1  0  0  0  0
 17 18  1  0  0  0  0
 17 19  1  0  0  0  0
 19 20  1  0  0  0  0
 19 28  2  0  0  0  0
 20 21  1  0  0  0  0
 20 22  2  0  0  0  0
 22 23  1  0  0  0  0
 22 24  1  0  0  0  0
 24 25  1  0  0  0  0
 24 26  2  0  0  0  0
 26 27  1  0  0  0  0
 26 28  1  0  0  0  0
 29 30  2  0  0  0  0
 29 31  1  0  0  0  0
 31 32  1  0  0  0  0
 31 33  1  0  0  0  0
 33 34  1  0  0  0  0
 33 35  1  0  0  0  0
 33 36  1  0  0  0  0
M  END
$$$$

  -OEChem-03222214083D

 36 37  0     1  0  0  0  0  0999 V2000
   -3.0890   -4.8959    0.8889 H   0  0  0  0  0  0  0  0  0  0  0  0
   -3.1012   -4.1150    0.1233 C   0  0  0  0  0  0  0  0  0  0  0  0
   -4.1015   -3.6777    0.0804 H   0  0  0  0  0  0  0  0  0  0  0  0
   -2.8676   -4.5678   -0.8435 H   0  0  0  0  0  0  0  0  0  0  0  0
   -2.0795   -3.0436    0.4538 C   0  0  0  0  0  0  0  0  0  0  0  0
   -1.4567   -3.0958    1.4989 O   0  0  0  0  0  0  0  0  0  0  0  0
   -1.8678   -2.0118   -0.4357 N   0  0  0  0  0  0  0  0  0  0  0  0
   -2.2970   -2.1319   -1.3522 H   0  0  0  0  0  0  0  0  0  0  0  0
   -0.7132   -1.0957   -0.3830 C   0  0  1  0  0  0  0  0  0  0  0  0
    0.1915   -1.7087   -0.4599 H   0  0  0  0  0  0  0  0  0  0  0  0
   -0.7315   -0.1256   -1.5816 C   0  0  0  0  0  0  0  0  0  0  0  0
   -1.4846    0.6520   -1.4183 H   0  0  0  0  0  0  0  0  0  0  0  0
    0.2419    0.3722   -1.6479 H   0  0  0  0  0  0  0  0  0  0  0  0
   -1.0353   -0.8238   -2.8863 C   0  0  0  0  0  0  0  0  0  0  0  0
   -0.1179   -1.1122   -3.8670 C   0  0  0  0  0  0  0  0  0  0  0  0
    0.9496   -0.9067   -3.8137 H   0  0  0  0  0  0  0  0  0  0  0  0
   -0.7999   -1.7235   -4.9166 N   0  0  0  0  0  0  0  0  0  0  0  0
   -0.3739   -2.0489   -5.7827 H   0  0  0  0  0  0  0  0  0  0  0  0
   -2.1562   -1.7840   -4.6431 C   0  0  0  0  0  0  0  0  0  0  0  0
   -3.2312   -2.2741   -5.3841 C   0  0  0  0  0  0  0  0  0  0  0  0
   -3.0646   -2.7222   -6.3577 H   0  0  0  0  0  0  0  0  0  0  0  0
   -4.5269   -2.1710   -4.8591 C   0  0  0  0  0  0  0  0  0  0  0  0
   -5.3730   -2.5464   -5.4278 H   0  0  0  0  0  0  0  0  0  0  0  0
   -4.7335   -1.5692   -3.6085 C   0  0  0  0  0  0  0  0  0  0  0  0
   -5.7412   -1.4746   -3.2143 H   0  0  0  0  0  0  0  0  0  0  0  0
   -3.6454   -1.0792   -2.8732 C   0  0  0  0  0  0  0  0  0  0  0  0
   -3.8067   -0.5945   -1.9152 H   0  0  0  0  0  0  0  0  0  0  0  0
   -2.3512   -1.2096   -3.3924 C   0  0  0  0  0  0  0  0  0  0  0  0
   -0.5780   -0.2752    0.9166 C   0  0  0  0  0  0  0  0  0  0  0  0
    0.5354    0.0509    1.3086 O   0  0  0  0  0  0  0  0  0  0  0  0
   -1.6906    0.3360    1.4665 N   0  0  0  0  0  0  0  0  0  0  0  0
   -2.5871   -0.0481    1.1854 H   0  0  0  0  0  0  0  0  0  0  0  0
   -1.6252    1.1424    2.6786 C   0  0  0  0  0  0  0  0  0  0  0  0
   -0.9535    1.9955    2.5359 H   0  0  0  0  0  0  0  0  0  0  0  0
   -2.6178    1.5260    2.9328 H   0  0  0  0  0  0  0  0  0  0  0  0
   -1.2588    0.5415    3.5175 H   0  0  0  0  0  0  0  0  0  0  0  0
  1  2  1  0  0  0  0
  2  3  1  0  0  0  0
  2  4  1  0  0  0  0
  2  5  1  0  0  0  0
  5  6  2  0  0  0  0
  5  7  1  0  0  0  0
  7  8  1  0  0  0  0
  7  9  1  0  0  0  0
  9 10  1  0  0  0  0
  9 11  1  0  0  0  0
  9 29  1  0  0  0  0
 11 12  1  0  0  0  0
 11 13  1  0  0  0  0
 11 14  1  0  0  0  0
 14 15  2  0  0  0  0
 14 28  1  0  0  0  0
 15 16  1  0  0  0  0
 15 17  1  0  0  0  0
 17 18  1  0  0  0  0
 17 19  1  0  0  0  0
 19 20  1  0  0  0  0
 19 28  2  0  0  0  0
 20 21  1  0  0  0  0
 20 22  2  0  0  0  0
 22 23  1  0  0  0  0
 22 24  1  0  0  0  0
 24 25  1  0  0  0  0
 24 26  2  0  0  0  0
 26 27  1  0  0  0  0
 26 28  1  0  0  0  0
 29 30  2  0  0  0  0
 29 31  1  0  0  0  0
 31 32  1  0  0  0  0
 31 33  1  0  0  0  0
 33 34  1  0  0  0  0
 33 35  1  0  0  0  0
 33 36  1  0  0  0  0
M  END
$$$$

  -OEChem-03222214083D

 36 37  0     1  0  0  0  0  0999 V2000
   -3.2476   -4.8044    0.6737 H   0  0  0  0  0  0  0  0  0  0  0  0
   -3.2445   -3.9752   -0.0393 C   0  0  0  0  0  0  0  0  0  0  0  0
   -4.2223   -3.4886   -0.0196 H   0  0  0  0  0  0  0  0  0  0  0  0
   -3.0645   -4.3738   -1.0408 H   0  0  0  0  0  0  0  0  0  0  0  0
   -2.1617   -2.9772    0.3249 C   0  0  0  0  0  0  0  0  0  0  0  0
   -1.5383   -3.1044    1.3634 O   0  0  0  0  0  0  0  0  0  0  0  0
   -1.8978   -1.9232   -0.5233 N   0  0  0  0  0  0  0  0  0  0  0  0
   -2.3430   -1.9717   -1.4393 H   0  0  0  0  0  0  0  0  0  0  0  0
   -0.7120   -1.0501   -0.4246 C   0  0  1  0  0  0  0  0  0  0  0  0
    0.1733   -1.6888   -0.5132 H   0  0  0  0  0  0  0  0  0  0  0  0
   -0.6986   -0.0516   -1.5972 C   0  0  0  0  0  0  0  0  0  0  0  0
   -1.4249    0.7485   -1.4232 H   0  0  0  0  0  0  0  0  0  0  0  0
    0.2914    0.4129   -1.6560 H   0  0  0  0  0  0  0  0  0  0  0  0
   -1.0163   -0.7329   -2.9057 C   0  0  0  0  0  0  0  0  0  0  0  0
   -0.1040   -1.2970   -3.7630 C   0  0  0  0  0  0  0  0  0  0  0  0
    0.9748   -1.3101   -3.6196 H   0  0  0  0  0  0  0  0  0  0  0  0
   -0.8155   -1.8576   -4.8216 N   0  0  0  0  0  0  0  0  0  0  0  0
   -0.4003   -2.3420   -5.6156 H   0  0  0  0  0  0  0  0  0  0  0  0
   -2.1757   -1.6494   -4.6577 C   0  0  0  0  0  0  0  0  0  0  0  0
   -3.2750   -2.0159   -5.4341 C   0  0  0  0  0  0  0  0  0  0  0  0
   -3.1333   -2.5711   -6.3552 H   0  0  0  0  0  0  0  0  0  0  0  0
   -4.5619   -1.6547   -5.0106 C   0  0  0  0  0  0  0  0  0  0  0  0
   -5.4263   -1.9309   -5.6079 H   0  0  0  0  0  0  0  0  0  0  0  0
   -4.7342   -0.9302   -3.8212 C   0  0  0  0  0  0  0  0  0  0  0  0
   -5.7323   -0.6440   -3.5027 H   0  0  0  0  0  0  0  0  0  0  0  0
   -3.6225   -0.5671   -3.0482 C   0  0  0  0  0  0  0  0  0  0  0  0
   -3.7522    0.0022   -2.1330 H   0  0  0  0  0  0  0  0  0  0  0  0
   -2.3431   -0.9388   -3.4752 C   0  0  0  0  0  0  0  0  0  0  0  0
   -0.5673   -0.2800    0.9041 C   0  0  0  0  0  0  0  0  0  0  0  0
    0.5505   -0.0106    1.3254 O   0  0  0  0  0  0  0  0  0  0  0  0
   -1.6666    0.3501    1.4597 N   0  0  0  0  0  0  0  0  0  0  0  0
   -2.5699    0.0058    1.1504 H   0  0  0  0  0  0  0  0  0  0  0  0
   -1.5962    1.0861    2.7155 C   0  0  0  0  0  0  0  0  0  0  0  0
   -0.8674    1.9003    2.6446 H   0  0  0  0  0  0  0  0  0  0  0  0
   -2.5722    1.5190    2.9547 H   0  0  0  0  0  0  0  0  0  0  0  0
   -1.3010    0.4191    3.5323 H   0  0  0  0  0  0  0  0  0  0  0  0
  1  2  1  0  0  0  0
  2  3  1  0  0  0  0
  2  4  1  0  0  0  0
  2  5  1  0  0  0  0
  5  6  2  0  0  0  0
  5  7  1  0  0  0  0
  7  8  1  0  0  0  0
  7  9  1  0  0  0  0
  9 10  1  0  0  0  0
  9 11  1  0  0  0  0
  9 29  1  0  0  0  0
 11 12  1  0  0  0  0
 11 13  1  0  0  0  0
 11 14  1  0  0  0  0
 14 15  2  0  0  0  0
 14 28  1  0  0  0  0
 15 16  1  0  0  0  0
 15 17  1  0  0  0  0
 17 18  1  0  0  0  0
 17 19  1  0  0  0  0
 19 20  1  0  0  0  0
 19 28  2  0  0  0  0
 20 21  1  0  0  0  0
 20 22  2  0  0  0  0
 22 23  1  0  0  0  0
 22 24  1  0  0  0  0
 24 25  1  0  0  0  0
 24 26  2  0  0  0  0
 26 27  1  0  0  0  0
 26 28  1  0  0  0  0
 29 30  2  0  0  0  0
 29 31  1  0  0  0  0
 31 32  1  0  0  0  0
 31 33  1  0  0  0  0
 33 34  1  0  0  0  0
 33 35  1  0  0  0  0
 33 36  1  0  0  0  0
M  END
$$$$

  -OEChem-03222214083D

 36 37  0     1  0  0  0  0  0999 V2000
   -3.3805   -4.7176    0.6263 H   0  0  0  0  0  0  0  0  0  0  0  0
   -3.3140   -3.9097   -0.1080 C   0  0  0  0  0  0  0  0  0  0  0  0
   -4.2651   -3.3725   -0.1282 H   0  0  0  0  0  0  0  0  0  0  0  0
   -3.1276   -4.3441   -1.0931 H   0  0  0  0  0  0  0  0  0  0  0  0
   -2.1905   -2.9603    0.2620 C   0  0  0  0  0  0  0  0  0  0  0  0
   -1.5538   -3.1372    1.2851 O   0  0  0  0  0  0  0  0  0  0  0  0
   -1.8989   -1.8956   -0.5632 N   0  0  0  0  0  0  0  0  0  0  0  0
   -2.3626   -1.8915   -1.4711 H   0  0  0  0  0  0  0  0  0  0  0  0
   -0.7000   -1.0436   -0.4354 C   0  0  1  0  0  0  0  0  0  0  0  0
    0.1772   -1.6929   -0.5274 H   0  0  0  0  0  0  0  0  0  0  0  0
   -0.6714   -0.0284   -1.5914 C   0  0  0  0  0  0  0  0  0  0  0  0
   -1.3868    0.7787   -1.4056 H   0  0  0  0  0  0  0  0  0  0  0  0
    0.3239    0.4250   -1.6446 H   0  0  0  0  0  0  0  0  0  0  0  0
   -0.9923   -0.6944   -2.9070 C   0  0  0  0  0  0  0  0  0  0  0  0
   -0.1478   -1.5040   -3.6271 C   0  0  0  0  0  0  0  0  0  0  0  0
    0.8842   -1.7327   -3.3666 H   0  0  0  0  0  0  0  0  0  0  0  0
   -0.8610   -1.9835   -4.7237 N   0  0  0  0  0  0  0  0  0  0  0  0
   -0.4851   -2.5952   -5.4464 H   0  0  0  0  0  0  0  0  0  0  0  0
   -2.1585   -1.4976   -4.7087 C   0  0  0  0  0  0  0  0  0  0  0  0
   -3.2375   -1.6986   -5.5693 C   0  0  0  0  0  0  0  0  0  0  0  0
   -3.1304   -2.3338   -6.4418 H   0  0  0  0  0  0  0  0  0  0  0  0
   -4.4590   -1.0686   -5.2921 C   0  0  0  0  0  0  0  0  0  0  0  0
   -5.3068   -1.2150   -5.9551 H   0  0  0  0  0  0  0  0  0  0  0  0
   -4.5863   -0.2455   -4.1626 C   0  0  0  0  0  0  0  0  0  0  0  0
   -5.5323    0.2462   -3.9553 H   0  0  0  0  0  0  0  0  0  0  0  0
   -3.4945   -0.0493   -3.3050 C   0  0  0  0  0  0  0  0  0  0  0  0
   -3.5884    0.5935   -2.4357 H   0  0  0  0  0  0  0  0  0  0  0  0
   -2.2806   -0.6841   -3.5882 C   0  0  0  0  0  0  0  0  0  0  0  0
   -0.5573   -0.2993    0.9082 C   0  0  0  0  0  0  0  0  0  0  0  0
    0.5601   -0.0489    1.3418 O   0  0  0  0  0  0  0  0  0  0  0  0
   -1.6525    0.3391    1.4626 N   0  0  0  0  0  0  0  0  0  0  0  0
   -2.5596    0.0155    1.1421 H   0  0  0  0  0  0  0  0  0  0  0  0
   -1.5790    1.0882    2.7106 C   0  0  0  0  0  0  0  0  0  0  0  0
   -0.8605    1.9098    2.6230 H   0  0  0  0  0  0  0  0  0  0  0  0
   -2.5575    1.5125    2.9551 H   0  0  0  0  0  0  0  0  0  0  0  0
   -1.2681    0.4337    3.5317 H   0  0  0  0  0  0  0  0  0  0  0  0
  1  2  1  0  0  0  0
  2  3  1  0  0  0  0
  2  4  1  0  0  0  0
  2  5  1  0  0  0  0
  5  6  2  0  0  0  0
  5  7  1  0  0  0  0
  7  8  1  0  0  0  0
  7  9  1  0  0  0  0
  9 10  1  0  0  0  0
  9 11  1  0  0  0  0
  9 29  1  0  0  0  0
 11 12  1  0  0  0  0
 11 13  1  0  0  0  0
 11 14  1  0  0  0  0
 14 15  2  0  0  0  0
 14 28  1  0  0  0  0
 15 16  1  0  0  0  0
 15 17  1  0  0  0  0
 17 18  1  0  0  0  0
 17 19  1  0  0  0  0
 19 20  1  0  0  0  0
 19 28  2  0  0  0  0
 20 21  1  0  0  0  0
 20 22  2  0  0  0  0
 22 23  1  0  0  0  0
 22 24  1  0  0  0  0
 24 25  1  0  0  0  0
 24 26  2  0  0  0  0
 26 27  1  0  0  0  0
 26 28  1  0  0  0  0
 29 30  2  0  0  0  0
 29 31  1  0  0  0  0
 31 32  1  0  0  0  0
 31 33  1  0  0  0  0
 33 34  1  0  0  0  0
 33 35  1  0  0  0  0
 33 36  1  0  0  0  0
M  END
$$$$

  -OEChem-03222214083D

 36 37  0     1  0  0  0  0  0999 V2000
   -3.3474   -4.7305    0.6608 H   0  0  0  0  0  0  0  0  0  0  0  0
   -3.3077   -3.9092   -0.0603 C   0  0  0  0  0  0  0  0  0  0  0  0
   -4.2598   -3.3740   -0.0384 H   0  0  0  0  0  0  0  0  0  0  0  0
   -3.1538   -4.3253   -1.0588 H   0  0  0  0  0  0  0  0  0  0  0  0
   -2.1742   -2.9638    0.2885 C   0  0  0  0  0  0  0  0  0  0  0  0
   -1.5148   -3.1469    1.2958 O   0  0  0  0  0  0  0  0  0  0  0  0
   -1.8904   -1.9022   -0.5438 N   0  0  0  0  0  0  0  0  0  0  0  0
   -2.3793   -1.8844   -1.4378 H   0  0  0  0  0  0  0  0  0  0  0  0
   -0.6938   -1.0455   -0.4278 C   0  0  1  0  0  0  0  0  0  0  0  0
    0.1868   -1.6901   -0.5202 H   0  0  0  0  0  0  0  0  0  0  0  0
   -0.6810   -0.0384   -1.5907 C   0  0  0  0  0  0  0  0  0  0  0  0
   -1.4074    0.7562   -1.3953 H   0  0  0  0  0  0  0  0  0  0  0  0
    0.3063    0.4308   -1.6558 H   0  0  0  0  0  0  0  0  0  0  0  0
   -1.0088   -0.7075   -2.9048 C   0  0  0  0  0  0  0  0  0  0  0  0
   -0.2957   -1.7298   -3.4847 C   0  0  0  0  0  0  0  0  0  0  0  0
    0.6243   -2.1603   -3.0935 H   0  0  0  0  0  0  0  0  0  0  0  0
   -0.9729   -2.1127   -4.6395 N   0  0  0  0  0  0  0  0  0  0  0  0
   -0.6632   -2.8313   -5.2918 H   0  0  0  0  0  0  0  0  0  0  0  0
   -2.1166   -1.3488   -4.8052 C   0  0  0  0  0  0  0  0  0  0  0  0
   -3.1025   -1.3588   -5.7918 C   0  0  0  0  0  0  0  0  0  0  0  0
   -3.0414   -2.0569   -6.6197 H   0  0  0  0  0  0  0  0  0  0  0  0
   -4.1690   -0.4539   -5.7004 C   0  0  0  0  0  0  0  0  0  0  0  0
   -4.9420   -0.4482   -6.4635 H   0  0  0  0  0  0  0  0  0  0  0  0
   -4.2362    0.4479   -4.6274 C   0  0  0  0  0  0  0  0  0  0  0  0
   -5.0613    1.1513   -4.5630 H   0  0  0  0  0  0  0  0  0  0  0  0
   -3.2383    0.4500   -3.6420 C   0  0  0  0  0  0  0  0  0  0  0  0
   -3.2857    1.1537   -2.8173 H   0  0  0  0  0  0  0  0  0  0  0  0
   -2.1773   -0.4569   -3.7401 C   0  0  0  0  0  0  0  0  0  0  0  0
   -0.5464   -0.2937    0.9111 C   0  0  0  0  0  0  0  0  0  0  0  0
    0.5720   -0.0446    1.3427 O   0  0  0  0  0  0  0  0  0  0  0  0
   -1.6411    0.3435    1.4676 N   0  0  0  0  0  0  0  0  0  0  0  0
   -2.5485    0.0240    1.1438 H   0  0  0  0  0  0  0  0  0  0  0  0
   -1.5679    1.0856    2.7198 C   0  0  0  0  0  0  0  0  0  0  0  0
   -0.8391    1.8994    2.6428 H   0  0  0  0  0  0  0  0  0  0  0  0
   -2.5433    1.5200    2.9591 H   0  0  0  0  0  0  0  0  0  0  0  0
   -1.2708    0.4228    3.5395 H   0  0  0  0  0  0  0  0  0  0  0  0
  1  2  1  0  0  0  0
  2  3  1  0  0  0  0
  2  4  1  0  0  0  0
  2  5  1  0  0  0  0
  5  6  2  0  0  0  0
  5  7  1  0  0  0  0
  7  8  1  0  0  0  0
  7  9  1  0  0  0  0
  9 10  1  0  0  0  0
  9 11  1  0  0  0  0
  9 29  1  0  0  0  0
 11 12  1  0  0  0  0
 11 13  1  0  0  0  0
 11 14  1  0  0  0  0
 14 15  2  0  0  0  0
 14 28  1  0  0  0  0
 15 16  1  0  0  0  0
 15 17  1  0  0  0  0
 17 18  1  0  0  0  0
 17 19  1  0  0  0  0
 19 20  1  0  0  0  0
 19 28  2  0  0  0  0
 20 21  1  0  0  0  0
 20 22  2  0  0  0  0
 22 23  1  0  0  0  0
 22 24  1  0  0  0  0
 24 25  1  0  0  0  0
 24 26  2  0  0  0  0
 26 27  1  0  0  0  0
 26 28  1  0  0  0  0
 29 30  2  0  0  0  0
 29 31  1  0  0  0  0
 31 32  1  0  0  0  0
 31 33  1  0  0  0  0
 33 34  1  0  0  0  0
 33 35  1  0  0  0  0
 33 36  1  0  0  0  0
M  END
$$$$

  -OEChem-03222214083D

 36 37  0     1  0  0  0  0  0999 V2000
   -3.3294   -4.7322    0.7448 H   0  0  0  0  0  0  0  0  0  0  0  0
   -3.3014   -3.9145    0.0188 C   0  0  0  0  0  0  0  0  0  0  0  0
   -4.2457   -3.3673    0.0677 H   0  0  0  0  0  0  0  0  0  0  0  0
   -3.1844   -4.3374   -0.9820 H   0  0  0  0  0  0  0  0  0  0  0  0
   -2.1456   -2.9820    0.3266 C   0  0  0  0  0  0  0  0  0  0  0  0
   -1.4573   -3.1679    1.3136 O   0  0  0  0  0  0  0  0  0  0  0  0
   -1.8764   -1.9276   -0.5196 N   0  0  0  0  0  0  0  0  0  0  0  0
   -2.3998   -1.8971   -1.3931 H   0  0  0  0  0  0  0  0  0  0  0  0
   -0.6888   -1.0561   -0.4219 C   0  0  1  0  0  0  0  0  0  0  0  0
    0.2002   -1.6892   -0.5103 H   0  0  0  0  0  0  0  0  0  0  0  0
   -0.6953   -0.0632   -1.5985 C   0  0  0  0  0  0  0  0  0  0  0  0
   -1.4407    0.7126   -1.4003 H   0  0  0  0  0  0  0  0  0  0  0  0
    0.2792    0.4309   -1.6714 H   0  0  0  0  0  0  0  0  0  0  0  0
   -1.0210   -0.7299   -2.9167 C   0  0  0  0  0  0  0  0  0  0  0  0
   -0.4991   -1.9159   -3.3809 C   0  0  0  0  0  0  0  0  0  0  0  0
    0.2539   -2.5169   -2.8743 H   0  0  0  0  0  0  0  0  0  0  0  0
   -1.1127   -2.2013   -4.5974 N   0  0  0  0  0  0  0  0  0  0  0  0
   -0.8994   -3.0014   -5.1910 H   0  0  0  0  0  0  0  0  0  0  0  0
   -2.0244   -1.2103   -4.9217 C   0  0  0  0  0  0  0  0  0  0  0  0
   -2.8680   -1.0527   -6.0212 C   0  0  0  0  0  0  0  0  0  0  0  0
   -2.8759   -1.7911   -6.8156 H   0  0  0  0  0  0  0  0  0  0  0  0
   -3.7027    0.0716   -6.0855 C   0  0  0  0  0  0  0  0  0  0  0  0
   -4.3640    0.2081   -6.9363 H   0  0  0  0  0  0  0  0  0  0  0  0
   -3.6819    1.0229   -5.0542 C   0  0  0  0  0  0  0  0  0  0  0  0
   -4.3268    1.8947   -5.1095 H   0  0  0  0  0  0  0  0  0  0  0  0
   -2.8273    0.8552   -3.9551 C   0  0  0  0  0  0  0  0  0  0  0  0
   -2.8060    1.5949   -3.1617 H   0  0  0  0  0  0  0  0  0  0  0  0
   -1.9987   -0.2709   -3.8966 C   0  0  0  0  0  0  0  0  0  0  0  0
   -0.5468   -0.2875    0.9085 C   0  0  0  0  0  0  0  0  0  0  0  0
    0.5691   -0.0348    1.3439 O   0  0  0  0  0  0  0  0  0  0  0  0
   -1.6459    0.3431    1.4639 N   0  0  0  0  0  0  0  0  0  0  0  0
   -2.5522    0.0284    1.1327 H   0  0  0  0  0  0  0  0  0  0  0  0
   -1.5786    1.0874    2.7148 C   0  0  0  0  0  0  0  0  0  0  0  0
   -0.8458    1.8979    2.6411 H   0  0  0  0  0  0  0  0  0  0  0  0
   -2.5537    1.5268    2.9460 H   0  0  0  0  0  0  0  0  0  0  0  0
   -1.2906    0.4254    3.5383 H   0  0  0  0  0  0  0  0  0  0  0  0
  1  2  1  0  0  0  0
  2  3  1  0  0  0  0
  2  4  1  0  0  0  0
  2  5  1  0  0  0  0
  5  6  2  0  0  0  0
  5  7  1  0  0  0  0
  7  8  1  0  0  0  0
  7  9  1  0  0  0  0
  9 10  1  0  0  0  0
  9 11  1  0  0  0  0
  9 29  1  0  0  0  0
 11 12  1  0  0  0  0
 11 13  1  0  0  0  0
 11 14  1  0  0  0  0
 14 15  2  0  0  0  0
 14 28  1  0  0  0  0
 15 16  1  0  0  0  0
 15 17  1  0  0  0  0
 17 18  1  0  0  0  0
 17 19  1  0  0  0  0
 19 20  1  0  0  0  0
 19 28  2  0  0  0  0
 20 21  1  0  0  0  0
 20 22  2  0  0  0  0
 22 23  1  0  0  0  0
 22 24  1  0  0  0  0
 24 25  1  0  0  0  0
 24 26  2  0  0  0  0
 26 27  1  0  0  0  0
 26 28  1  0  0  0  0
 29 30  2  0  0  0  0
 29 31  1  0  0  0  0
 31 32  1  0  0  0  0
 31 33  1  0  0  0  0
 33 34  1  0  0  0  0
 33 35  1  0  0  0  0
 33 36  1  0  0  0  0
M  END
$$$$

  -OEChem-03222214083D

 36 37  0     1  0  0  0  0  0999 V2000
   -3.3178   -4.7281    0.8564 H   0  0  0  0  0  0  0  0  0  0  0  0
   -3.2974   -3.9247    0.1142 C   0  0  0  0  0  0  0  0  0  0  0  0
   -4.2303   -3.3597    0.1805 H   0  0  0  0  0  0  0  0  0  0  0  0
   -3.2174   -4.3675   -0.8813 H   0  0  0  0  0  0  0  0  0  0  0  0
   -2.1165   -3.0079    0.3702 C   0  0  0  0  0  0  0  0  0  0  0  0
   -1.3912   -3.1977    1.3292 O   0  0  0  0  0  0  0  0  0  0  0  0
   -1.8647   -1.9633   -0.4932 N   0  0  0  0  0  0  0  0  0  0  0  0
   -2.4373   -1.9106   -1.3335 H   0  0  0  0  0  0  0  0  0  0  0  0
   -0.6897   -1.0722   -0.4201 C   0  0  1  0  0  0  0  0  0  0  0  0
    0.2085   -1.6937   -0.5024 H   0  0  0  0  0  0  0  0  0  0  0  0
   -0.7128   -0.0999   -1.6147 C   0  0  0  0  0  0  0  0  0  0  0  0
   -1.4735    0.6629   -1.4217 H   0  0  0  0  0  0  0  0  0  0  0  0
    0.2523    0.4118   -1.6909 H   0  0  0  0  0  0  0  0  0  0  0  0
   -1.0307   -0.7643   -2.9385 C   0  0  0  0  0  0  0  0  0  0  0  0
   -0.7440   -2.0578   -3.3162 C   0  0  0  0  0  0  0  0  0  0  0  0
   -0.1999   -2.7859   -2.7169 H   0  0  0  0  0  0  0  0  0  0  0  0
   -1.2706   -2.2569   -4.5893 N   0  0  0  0  0  0  0  0  0  0  0  0
   -1.1755   -3.1085   -5.1400 H   0  0  0  0  0  0  0  0  0  0  0  0
   -1.8923   -1.1038   -5.0387 C   0  0  0  0  0  0  0  0  0  0  0  0
   -2.5527   -0.8105   -6.2320 C   0  0  0  0  0  0  0  0  0  0  0  0
   -2.6439   -1.5631   -7.0075 H   0  0  0  0  0  0  0  0  0  0  0  0
   -3.0948    0.4693   -6.4159 C   0  0  0  0  0  0  0  0  0  0  0  0
   -3.6107    0.7129   -7.3402 H   0  0  0  0  0  0  0  0  0  0  0  0
   -2.9679    1.4381   -5.4088 C   0  0  0  0  0  0  0  0  0  0  0  0
   -3.3850    2.4300   -5.5561 H   0  0  0  0  0  0  0  0  0  0  0  0
   -2.2996    1.1326   -4.2144 C   0  0  0  0  0  0  0  0  0  0  0  0
   -2.1944    1.8831   -3.4379 H   0  0  0  0  0  0  0  0  0  0  0  0
   -1.7641   -0.1477   -4.0373 C   0  0  0  0  0  0  0  0  0  0  0  0
   -0.5529   -0.2801    0.8971 C   0  0  0  0  0  0  0  0  0  0  0  0
    0.5601   -0.0064    1.3265 O   0  0  0  0  0  0  0  0  0  0  0  0
   -1.6592    0.3416    1.4485 N   0  0  0  0  0  0  0  0  0  0  0  0
   -2.5629    0.0197    1.1175 H   0  0  0  0  0  0  0  0  0  0  0  0
   -1.5992    1.1057    2.6882 C   0  0  0  0  0  0  0  0  0  0  0  0
   -0.8720    1.9201    2.6036 H   0  0  0  0  0  0  0  0  0  0  0  0
   -2.5778    1.5416    2.9105 H   0  0  0  0  0  0  0  0  0  0  0  0
   -1.3087    0.4583    3.5224 H   0  0  0  0  0  0  0  0  0  0  0  0
  1  2  1  0  0  0  0
  2  3  1  0  0  0  0
  2  4  1  0  0  0  0
  2  5  1  0  0  0  0
  5  6  2  0  0  0  0
  5  7  1  0  0  0  0
  7  8  1  0  0  0  0
  7  9  1  0  0  0  0
  9 10  1  0  0  0  0
  9 11  1  0  0  0  0
  9 29  1  0  0  0  0
 11 12  1  0  0  0  0
 11 13  1  0  0  0  0
 11 14  1  0  0  0  0
 14 15  2  0  0  0  0
 14 28  1  0  0  0  0
 15 16  1  0  0  0  0
 15 17  1  0  0  0  0
 17 18  1  0  0  0  0
 17 19  1  0  0  0  0
 19 20  1  0  0  0  0
 19 28  2  0  0  0  0
 20 21  1  0  0  0  0
 20 22  2  0  0  0  0
 22 23  1  0  0  0  0
 22 24  1  0  0  0  0
 24 25  1  0  0  0  0
 24 26  2  0  0  0  0
 26 27  1  0  0  0  0
 26 28  1  0  0  0  0
 29 30  2  0  0  0  0
 29 31  1  0  0  0  0
 31 32  1  0  0  0  0
 31 33  1  0  0  0  0
 33 34  1  0  0  0  0
 33 35  1  0  0  0  0
 33 36  1  0  0  0  0
M  END
$$$$

  -OEChem-03222214083D

 36 37  0     1  0  0  0  0  0999 V2000
   -3.2923   -4.7368    1.0217 H   0  0  0  0  0  0  0  0  0  0  0  0
   -3.2898   -3.9594    0.2523 C   0  0  0  0  0  0  0  0  0  0  0  0
   -4.2157   -3.3846    0.3300 H   0  0  0  0  0  0  0  0  0  0  0  0
   -3.2460   -4.4373   -0.7293 H   0  0  0  0  0  0  0  0  0  0  0  0
   -2.0943   -3.0445    0.4377 C   0  0  0  0  0  0  0  0  0  0  0  0
   -1.3266   -3.2221    1.3650 O   0  0  0  0  0  0  0  0  0  0  0  0
   -1.8745   -2.0171   -0.4555 N   0  0  0  0  0  0  0  0  0  0  0  0
   -2.5094   -1.9437   -1.2473 H   0  0  0  0  0  0  0  0  0  0  0  0
   -0.7138   -1.1045   -0.4234 C   0  0  1  0  0  0  0  0  0  0  0  0
    0.1902   -1.7185   -0.4999 H   0  0  0  0  0  0  0  0  0  0  0  0
   -0.7450   -0.1601   -1.6414 C   0  0  0  0  0  0  0  0  0  0  0  0
   -1.5108    0.6015   -1.4624 H   0  0  0  0  0  0  0  0  0  0  0  0
    0.2180    0.3558   -1.7182 H   0  0  0  0  0  0  0  0  0  0  0  0
   -1.0517   -0.8190   -2.9721 C   0  0  0  0  0  0  0  0  0  0  0  0
   -1.0311   -2.1566   -3.3065 C   0  0  0  0  0  0  0  0  0  0  0  0
   -0.7285   -2.9700   -2.6497 H   0  0  0  0  0  0  0  0  0  0  0  0
   -1.4408   -2.2745   -4.6317 N   0  0  0  0  0  0  0  0  0  0  0  0
   -1.4811   -3.1430   -5.1623 H   0  0  0  0  0  0  0  0  0  0  0  0
   -1.7257   -1.0265   -5.1594 C   0  0  0  0  0  0  0  0  0  0  0  0
   -2.1618   -0.6301   -6.4237 C   0  0  0  0  0  0  0  0  0  0  0  0
   -2.3369   -1.3679   -7.1989 H   0  0  0  0  0  0  0  0  0  0  0  0
   -2.3700    0.7329   -6.6775 C   0  0  0  0  0  0  0  0  0  0  0  0
   -2.7091    1.0569   -7.6570 H   0  0  0  0  0  0  0  0  0  0  0  0
   -2.1393    1.6799   -5.6680 C   0  0  0  0  0  0  0  0  0  0  0  0
   -2.2992    2.7352   -5.8678 H   0  0  0  0  0  0  0  0  0  0  0  0
   -1.6993    1.2694   -4.4014 C   0  0  0  0  0  0  0  0  0  0  0  0
   -1.5153    1.9997   -3.6201 H   0  0  0  0  0  0  0  0  0  0  0  0
   -1.4952   -0.0927   -4.1560 C   0  0  0  0  0  0  0  0  0  0  0  0
   -0.5696   -0.2775    0.8715 C   0  0  0  0  0  0  0  0  0  0  0  0
    0.5449    0.0283    1.2744 O   0  0  0  0  0  0  0  0  0  0  0  0
   -1.6771    0.3394    1.4259 N   0  0  0  0  0  0  0  0  0  0  0  0
   -2.5824    0.0008    1.1176 H   0  0  0  0  0  0  0  0  0  0  0  0
   -1.6059    1.1606    2.6277 C   0  0  0  0  0  0  0  0  0  0  0  0
   -0.8981    1.9847    2.4887 H   0  0  0  0  0  0  0  0  0  0  0  0
   -2.5882    1.5866    2.8525 H   0  0  0  0  0  0  0  0  0  0  0  0
   -1.2826    0.5587    3.4834 H   0  0  0  0  0  0  0  0  0  0  0  0
  1  2  1  0  0  0  0
  2  3  1  0  0  0  0
  2  4  1  0  0  0  0
  2  5  1  0  0  0  0
  5  6  2  0  0  0  0
  5  7  1  0  0  0  0
  7  8  1  0  0  0  0
  7  9  1  0  0  0  0
  9 10  1  0  0  0  0
  9 11  1  0  0  0  0
  9 29  1  0  0  0  0
 11 12  1  0  0  0  0
 11 13  1  0  0  0  0
 11 14  1  0  0  0  0
 14 15  2  0  0  0  0
 14 28  1  0  0  0  0
 15 16  1  0  0  0  0
 15 17  1  0  0  0  0
 17 18  1  0  0  0  0
 17 19  1  0  0  0  0
 19 20  1  0  0  0  0
 19 28  2  0  0  0  0
 20 21  1  0  0  0  0
 20 22  2  0  0  0  0
 22 23  1  0  0  0  0
 22 24  1  0  0  0  0
 24 25  1  0  0  0  0
 24 26  2  0  0  0  0
 26 27  1  0  0  0  0
 26 28  1  0  0  0  0
 29 30  2  0  0  0  0
 29 31  1  0  0  0  0
 31 32  1  0  0  0  0
 31 33  1  0  0  0  0
 33 34  1  0  0  0  0
 33 35  1  0  0  0  0
 33 36  1  0  0  0  0
M  END
$$$$

  -OEChem-03222214083D

 36 37  0     1  0  0  0  0  0999 V2000
   -3.2812   -4.7034    1.2137 H   0  0  0  0  0  0  0  0  0  0  0  0
   -3.2996   -3.9564    0.4148 C   0  0  0  0  0  0  0  0  0  0  0  0
   -4.2055   -3.3542    0.5184 H   0  0  0  0  0  0  0  0  0  0  0  0
   -3.3204   -4.4729   -0.5478 H   0  0  0  0  0  0  0  0  0  0  0  0
   -2.0719   -3.0694    0.5019 C   0  0  0  0  0  0  0  0  0  0  0  0
   -1.2532   -3.2478    1.3841 O   0  0  0  0  0  0  0  0  0  0  0  0
   -1.8829   -2.0654   -0.4255 N   0  0  0  0  0  0  0  0  0  0  0  0
   -2.5933   -1.9510   -1.1439 H   0  0  0  0  0  0  0  0  0  0  0  0
   -0.7319   -1.1405   -0.4402 C   0  0  1  0  0  0  0  0  0  0  0  0
    0.1743   -1.7525   -0.5102 H   0  0  0  0  0  0  0  0  0  0  0  0
   -0.7651   -0.2246   -1.6810 C   0  0  0  0  0  0  0  0  0  0  0  0
   -1.5202    0.5507   -1.5165 H   0  0  0  0  0  0  0  0  0  0  0  0
    0.2046    0.2785   -1.7591 H   0  0  0  0  0  0  0  0  0  0  0  0
   -1.0679   -0.8778   -3.0172 C   0  0  0  0  0  0  0  0  0  0  0  0
   -1.3251   -2.1942   -3.3401 C   0  0  0  0  0  0  0  0  0  0  0  0
   -1.2824   -3.0408   -2.6592 H   0  0  0  0  0  0  0  0  0  0  0  0
   -1.6068   -2.2581   -4.7020 N   0  0  0  0  0  0  0  0  0  0  0  0
   -1.7885   -3.1105   -5.2286 H   0  0  0  0  0  0  0  0  0  0  0  0
   -1.5427   -0.9962   -5.2661 C   0  0  0  0  0  0  0  0  0  0  0  0
   -1.7434   -0.5503   -6.5726 C   0  0  0  0  0  0  0  0  0  0  0  0
   -2.0013   -1.2530   -7.3570 H   0  0  0  0  0  0  0  0  0  0  0  0
   -1.6081    0.8159   -6.8563 C   0  0  0  0  0  0  0  0  0  0  0  0
   -1.7608    1.1777   -7.8690 H   0  0  0  0  0  0  0  0  0  0  0  0
   -1.2732    1.7165   -5.8338 C   0  0  0  0  0  0  0  0  0  0  0  0
   -1.1666    2.7740   -6.0564 H   0  0  0  0  0  0  0  0  0  0  0  0
   -1.0725    1.2558   -4.5245 C   0  0  0  0  0  0  0  0  0  0  0  0
   -0.8099    1.9498   -3.7327 H   0  0  0  0  0  0  0  0  0  0  0  0
   -1.2104   -0.1095   -4.2496 C   0  0  0  0  0  0  0  0  0  0  0  0
   -0.5781   -0.2790    0.8315 C   0  0  0  0  0  0  0  0  0  0  0  0
    0.5378    0.0477    1.2129 O   0  0  0  0  0  0  0  0  0  0  0  0
   -1.6843    0.3392    1.3884 N   0  0  0  0  0  0  0  0  0  0  0  0
   -2.5918   -0.0047    1.0933 H   0  0  0  0  0  0  0  0  0  0  0  0
   -1.6053    1.1902    2.5690 C   0  0  0  0  0  0  0  0  0  0  0  0
   -0.9026    2.0139    2.4037 H   0  0  0  0  0  0  0  0  0  0  0  0
   -2.5870    1.6175    2.7935 H   0  0  0  0  0  0  0  0  0  0  0  0
   -1.2707    0.6103    3.4355 H   0  0  0  0  0  0  0  0  0  0  0  0
  1  2  1  0  0  0  0
  2  3  1  0  0  0  0
  2  4  1  0  0  0  0
  2  5  1  0  0  0  0
  5  6  2  0  0  0  0
  5  7  1  0  0  0  0
  7  8  1  0  0  0  0
  7  9  1  0  0  0  0
  9 10  1  0  0  0  0
  9 11  1  0  0  0  0
  9 29  1  0  0  0  0
 11 12  1  0  0  0  0
 11 13  1  0  0  0  0
 11 14  1  0  0  0  0
 14 15  2  0  0  0  0
 14 28  1  0  0  0  0
 15 16  1  0  0  0  0
 15 17  1  0  0  0  0
 17 18  1  0  0  0  0
 17 19  1  0  0  0  0
 19 20  1  0  0  0  0
 19 28  2  0  0  0  0
 20 21  1  0  0  0  0
 20 22  2  0  0  0  0
 22 23  1  0  0  0  0
 22 24  1  0  0  0  0
 24 25  1  0  0  0  0
 24 26  2  0  0  0  0
 26 27  1  0  0  0  0
 26 28  1  0  0  0  0
 29 30  2  0  0  0  0
 29 31  1  0  0  0  0
 31 32  1  0  0  0  0
 31 33  1  0  0  0  0
 33 34  1  0  0  0  0
 33 35  1  0  0  0  0
 33 36  1  0  0  0  0
M  END
$$$$

  -OEChem-03222214083D

 36 37  0     1  0  0  0  0  0999 V2000
   -3.2756   -4.6603    1.3693 H   0  0  0  0  0  0  0  0  0  0  0  0
   -3.3132   -3.9418    0.5454 C   0  0  0  0  0  0  0  0  0  0  0  0
   -4.1968   -3.3113    0.6706 H   0  0  0  0  0  0  0  0  0  0  0  0
   -3.3941   -4.4913   -0.3956 H   0  0  0  0  0  0  0  0  0  0  0  0
   -2.0596   -3.0875    0.5430 C   0  0  0  0  0  0  0  0  0  0  0  0
   -1.1950   -3.2749    1.3783 O   0  0  0  0  0  0  0  0  0  0  0  0
   -1.9047   -2.0962   -0.4046 N   0  0  0  0  0  0  0  0  0  0  0  0
   -2.6723   -1.9441   -1.0522 H   0  0  0  0  0  0  0  0  0  0  0  0
   -0.7574   -1.1700   -0.4626 C   0  0  1  0  0  0  0  0  0  0  0  0
    0.1453   -1.7862   -0.5421 H   0  0  0  0  0  0  0  0  0  0  0  0
   -0.7975   -0.2668   -1.7137 C   0  0  0  0  0  0  0  0  0  0  0  0
   -1.5354    0.5252   -1.5501 H   0  0  0  0  0  0  0  0  0  0  0  0
    0.1819    0.2169   -1.7963 H   0  0  0  0  0  0  0  0  0  0  0  0
   -1.1159   -0.9102   -3.0538 C   0  0  0  0  0  0  0  0  0  0  0  0
   -1.6460   -2.1413   -3.3849 C   0  0  0  0  0  0  0  0  0  0  0  0
   -1.8824   -2.9505   -2.7014 H   0  0  0  0  0  0  0  0  0  0  0  0
   -1.7915   -2.1943   -4.7683 N   0  0  0  0  0  0  0  0  0  0  0  0
   -2.1242   -2.9979   -5.2975 H   0  0  0  0  0  0  0  0  0  0  0  0
   -1.3692   -1.0095   -5.3428 C   0  0  0  0  0  0  0  0  0  0  0  0
   -1.3184   -0.5866   -6.6711 C   0  0  0  0  0  0  0  0  0  0  0  0
   -1.6506   -1.2430   -7.4678 H   0  0  0  0  0  0  0  0  0  0  0  0
   -0.8326    0.6961   -6.9612 C   0  0  0  0  0  0  0  0  0  0  0  0
   -0.7866    1.0393   -7.9908 H   0  0  0  0  0  0  0  0  0  0  0  0
   -0.4036    1.5363   -5.9226 C   0  0  0  0  0  0  0  0  0  0  0  0
   -0.0254    2.5288   -6.1490 H   0  0  0  0  0  0  0  0  0  0  0  0
   -0.4579    1.0981   -4.5916 C   0  0  0  0  0  0  0  0  0  0  0  0
   -0.1223    1.7453   -3.7878 H   0  0  0  0  0  0  0  0  0  0  0  0
   -0.9442   -0.1839   -4.3098 C   0  0  0  0  0  0  0  0  0  0  0  0
   -0.5751   -0.2949    0.7964 C   0  0  0  0  0  0  0  0  0  0  0  0
    0.5478    0.0439    1.1450 O   0  0  0  0  0  0  0  0  0  0  0  0
   -1.6697    0.3250    1.3744 N   0  0  0  0  0  0  0  0  0  0  0  0
   -2.5838   -0.0185    1.1013 H   0  0  0  0  0  0  0  0  0  0  0  0
   -1.5656    1.1978    2.5372 C   0  0  0  0  0  0  0  0  0  0  0  0
   -0.8790    2.0270    2.3357 H   0  0  0  0  0  0  0  0  0  0  0  0
   -2.5457    1.6168    2.7844 H   0  0  0  0  0  0  0  0  0  0  0  0
   -1.1977    0.6380    3.4036 H   0  0  0  0  0  0  0  0  0  0  0  0
  1  2  1  0  0  0  0
  2  3  1  0  0  0  0
  2  4  1  0  0  0  0
  2  5  1  0  0  0  0
  5  6  2  0  0  0  0
  5  7  1  0  0  0  0
  7  8  1  0  0  0  0
  7  9  1  0  0  0  0
  9 10  1  0  0  0  0
  9 11  1  0  0  0  0
  9 29  1  0  0  0  0
 11 12  1  0  0  0  0
 11 13  1  0  0  0  0
 11 14  1  0  0  0  0
 14 15  2  0  0  0  0
 14 28  1  0  0  0  0
 15 16  1  0  0  0  0
 15 17  1  0  0  0  0
 17 18  1  0  0  0  0
 17 19  1  0  0  0  0
 19 20  1  0  0  0  0
 19 28  2  0  0  0  0
 20 21  1  0  0  0  0
 20 22  2  0  0  0  0
 22 23  1  0  0  0  0
 22 24  1  0  0  0  0
 24 25  1  0  0  0  0
 24 26  2  0  0  0  0
 26 27  1  0  0  0  0
 26 28  1  0  0  0  0
 29 30  2  0  0  0  0
 29 31  1  0  0  0  0
 31 32  1  0  0  0  0
 31 33  1  0  0  0  0
 33 34  1  0  0  0  0
 33 35  1  0  0  0  0
 33 36  1  0  0  0  0
M  END
$$$$

  -OEChem-03222214083D

 36 37  0     1  0  0  0  0  0999 V2000
   -3.2744   -4.6495    1.4124 H   0  0  0  0  0  0  0  0  0  0  0  0
   -3.3310   -3.9303    0.5899 C   0  0  0  0  0  0  0  0  0  0  0  0
   -4.2030   -3.2900    0.7436 H   0  0  0  0  0  0  0  0  0  0  0  0
   -3.4482   -4.4788   -0.3478 H   0  0  0  0  0  0  0  0  0  0  0  0
   -2.0680   -3.0910    0.5451 C   0  0  0  0  0  0  0  0  0  0  0  0
   -1.1773   -3.2919    1.3492 O   0  0  0  0  0  0  0  0  0  0  0  0
   -1.9382   -2.0937   -0.4008 N   0  0  0  0  0  0  0  0  0  0  0  0
   -2.7408   -1.9063   -0.9919 H   0  0  0  0  0  0  0  0  0  0  0  0
   -0.7877   -1.1741   -0.4844 C   0  0  1  0  0  0  0  0  0  0  0  0
    0.1057   -1.8009   -0.5852 H   0  0  0  0  0  0  0  0  0  0  0  0
   -0.8281   -0.2602   -1.7288 C   0  0  0  0  0  0  0  0  0  0  0  0
   -1.5465    0.5465   -1.5520 H   0  0  0  0  0  0  0  0  0  0  0  0
    0.1608    0.2028   -1.8095 H   0  0  0  0  0  0  0  0  0  0  0  0
   -1.1698   -0.8830   -3.0748 C   0  0  0  0  0  0  0  0  0  0  0  0
   -1.9545   -1.9663   -3.4185 C   0  0  0  0  0  0  0  0  0  0  0  0
   -2.4670   -2.6406   -2.7416 H   0  0  0  0  0  0  0  0  0  0  0  0
   -1.9685   -2.0729   -4.8065 N   0  0  0  0  0  0  0  0  0  0  0  0
   -2.4457   -2.7967   -5.3403 H   0  0  0  0  0  0  0  0  0  0  0  0
   -1.2099   -1.0664   -5.3741 C   0  0  0  0  0  0  0  0  0  0  0  0
   -0.9287   -0.7564   -6.7050 C   0  0  0  0  0  0  0  0  0  0  0  0
   -1.3357   -1.3627   -7.5065 H   0  0  0  0  0  0  0  0  0  0  0  0
   -0.1145    0.3480   -6.9910 C   0  0  0  0  0  0  0  0  0  0  0  0
    0.1137    0.6028   -8.0216 H   0  0  0  0  0  0  0  0  0  0  0  0
    0.4070    1.1248   -5.9460 C   0  0  0  0  0  0  0  0  0  0  0  0
    1.0388    1.9790   -6.1691 H   0  0  0  0  0  0  0  0  0  0  0  0
    0.1174    0.8016   -4.6128 C   0  0  0  0  0  0  0  0  0  0  0  0
    0.5242    1.4036   -3.8072 H   0  0  0  0  0  0  0  0  0  0  0  0
   -0.6968   -0.3032   -4.3325 C   0  0  0  0  0  0  0  0  0  0  0  0
   -0.5662   -0.3113    0.7769 C   0  0  0  0  0  0  0  0  0  0  0  0
    0.5672    0.0202    1.0973 O   0  0  0  0  0  0  0  0  0  0  0  0
   -1.6412    0.3089    1.3903 N   0  0  0  0  0  0  0  0  0  0  0  0
   -2.5643   -0.0286    1.1417 H   0  0  0  0  0  0  0  0  0  0  0  0
   -1.4981    1.1655    2.5610 C   0  0  0  0  0  0  0  0  0  0  0  0
   -0.8370    2.0103    2.3406 H   0  0  0  0  0  0  0  0  0  0  0  0
   -2.4726    1.5618    2.8615 H   0  0  0  0  0  0  0  0  0  0  0  0
   -1.0789    0.5991    3.3994 H   0  0  0  0  0  0  0  0  0  0  0  0
  1  2  1  0  0  0  0
  2  3  1  0  0  0  0
  2  4  1  0  0  0  0
  2  5  1  0  0  0  0
  5  6  2  0  0  0  0
  5  7  1  0  0  0  0
  7  8  1  0  0  0  0
  7  9  1  0  0  0  0
  9 10  1  0  0  0  0
  9 11  1  0  0  0  0
  9 29  1  0  0  0  0
 11 12  1  0  0  0  0
 11 13  1  0  0  0  0
 11 14  1  0  0  0  0
 14 15  2  0  0  0  0
 14 28  1  0  0  0  0
 15 16  1  0  0  0  0
 15 17  1  0  0  0  0
 17 18  1  0  0  0  0
 17 19  1  0  0  0  0
 19 20  1  0  0  0  0
 19 28  2  0  0  0  0
 20 21  1  0  0  0  0
 20 22  2  0  0  0  0
 22 23  1  0  0  0  0
 22 24  1  0  0  0  0
 24 25  1  0  0  0  0
 24 26  2  0  0  0  0
 26 27  1  0  0  0  0
 26 28  1  0  0  0  0
 29 30  2  0  0  0  0
 29 31  1  0  0  0  0
 31 32  1  0  0  0  0
 31 33  1  0  0  0  0
 33 34  1  0  0  0  0
 33 35  1  0  0  0  0
 33 36  1  0  0  0  0
M  END
$$$$

  -OEChem-03222214083D

 36 37  0     1  0  0  0  0  0999 V2000
   -3.2648   -4.6872    1.2982 H   0  0  0  0  0  0  0  0  0  0  0  0
   -3.3265   -3.9441    0.4978 C   0  0  0  0  0  0  0  0  0  0  0  0
   -4.2153   -3.3293    0.6580 H   0  0  0  0  0  0  0  0  0  0  0  0
   -3.4171   -4.4658   -0.4579 H   0  0  0  0  0  0  0  0  0  0  0  0
   -2.0835   -3.0742    0.4982 C   0  0  0  0  0  0  0  0  0  0  0  0
   -1.2068   -3.2691    1.3194 O   0  0  0  0  0  0  0  0  0  0  0  0
   -1.9611   -2.0509   -0.4205 N   0  0  0  0  0  0  0  0  0  0  0  0
   -2.7390   -1.8951   -1.0485 H   0  0  0  0  0  0  0  0  0  0  0  0
   -0.8062   -1.1376   -0.5008 C   0  0  1  0  0  0  0  0  0  0  0  0
    0.0788   -1.7704   -0.6326 H   0  0  0  0  0  0  0  0  0  0  0  0
   -0.8492   -0.1869   -1.7180 C   0  0  0  0  0  0  0  0  0  0  0  0
   -1.5642    0.6158   -1.5125 H   0  0  0  0  0  0  0  0  0  0  0  0
    0.1375    0.2795   -1.7942 H   0  0  0  0  0  0  0  0  0  0  0  0
   -1.2157   -0.7816   -3.0698 C   0  0  0  0  0  0  0  0  0  0  0  0
   -2.2164   -1.6621   -3.4286 C   0  0  0  0  0  0  0  0  0  0  0  0
   -2.9569   -2.1062   -2.7738 H   0  0  0  0  0  0  0  0  0  0  0  0
   -2.1299   -1.8875   -4.7991 N   0  0  0  0  0  0  0  0  0  0  0  0
   -2.7360   -2.5018   -5.3395 H   0  0  0  0  0  0  0  0  0  0  0  0
   -1.0860   -1.1614   -5.3400 C   0  0  0  0  0  0  0  0  0  0  0  0
   -0.6150   -1.0612   -6.6491 C   0  0  0  0  0  0  0  0  0  0  0  0
   -1.0925   -1.6183   -7.4475 H   0  0  0  0  0  0  0  0  0  0  0  0
    0.4819   -0.2316   -6.9174 C   0  0  0  0  0  0  0  0  0  0  0  0
    0.8613   -0.1422   -7.9309 H   0  0  0  0  0  0  0  0  0  0  0  0
    1.0906    0.4844   -5.8763 C   0  0  0  0  0  0  0  0  0  0  0  0
    1.9408    1.1267   -6.0853 H   0  0  0  0  0  0  0  0  0  0  0  0
    0.6070    0.3738   -4.5647 C   0  0  0  0  0  0  0  0  0  0  0  0
    1.0839    0.9303   -3.7647 H   0  0  0  0  0  0  0  0  0  0  0  0
   -0.4899   -0.4574   -4.3002 C   0  0  0  0  0  0  0  0  0  0  0  0
   -0.5536   -0.3117    0.7794 C   0  0  0  0  0  0  0  0  0  0  0  0
    0.5888    0.0048    1.0835 O   0  0  0  0  0  0  0  0  0  0  0  0
   -1.6111    0.2990    1.4316 N   0  0  0  0  0  0  0  0  0  0  0  0
   -2.5389   -0.0401    1.2033 H   0  0  0  0  0  0  0  0  0  0  0  0
   -1.4368    1.1081    2.6316 C   0  0  0  0  0  0  0  0  0  0  0  0
   -0.7693    1.9532    2.4328 H   0  0  0  0  0  0  0  0  0  0  0  0
   -2.4009    1.5037    2.9648 H   0  0  0  0  0  0  0  0  0  0  0  0
   -1.0101    0.5051    3.4401 H   0  0  0  0  0  0  0  0  0  0  0  0
  1  2  1  0  0  0  0
  2  3  1  0  0  0  0
  2  4  1  0  0  0  0
  2  5  1  0  0  0  0
  5  6  2  0  0  0  0
  5  7  1  0  0  0  0
  7  8  1  0  0  0  0
  7  9  1  0  0  0  0
  9 10  1  0  0  0  0
  9 11  1  0  0  0  0
  9 29  1  0  0  0  0
 11 12  1  0  0  0  0
 11 13  1  0  0  0  0
 11 14  1  0  0  0  0
 14 15  2  0  0  0  0
 14 28  1  0  0  0  0
 15 16  1  0  0  0  0
 15 17  1  0  0  0  0
 17 18  1  0  0  0  0
 17 19  1  0  0  0  0
 19 20  1  0  0  0  0
 19 28  2  0  0  0  0
 20 21  1  0  0  0  0
 20 22  2  0  0  0  0
 22 23  1  0  0  0  0
 22 24  1  0  0  0  0
 24 25  1  0  0  0  0
 24 26  2  0  0  0  0
 26 27  1  0  0  0  0
 26 28  1  0  0  0  0
 29 30  2  0  0  0  0
 29 31  1  0  0  0  0
 31 32  1  0  0  0  0
 31 33  1  0  0  0  0
 33 34  1  0  0  0  0
 33 35  1  0  0  0  0
 33 36  1  0  0  0  0
M  END
$$$$

  -OEChem-03222214083D

 36 37  0     1  0  0  0  0  0999 V2000
   -3.1639   -4.8161    0.9461 H   0  0  0  0  0  0  0  0  0  0  0  0
   -3.1938   -4.0538    0.1622 C   0  0  0  0  0  0  0  0  0  0  0  0
   -4.1878   -3.6003    0.1507 H   0  0  0  0  0  0  0  0  0  0  0  0
   -3.0066   -4.5342   -0.8012 H   0  0  0  0  0  0  0  0  0  0  0  0
   -2.1423   -2.9931    0.4273 C   0  0  0  0  0  0  0  0  0  0  0  0
   -1.4630   -3.0549    1.4350 O   0  0  0  0  0  0  0  0  0  0  0  0
   -1.9796   -1.9582   -0.4722 N   0  0  0  0  0  0  0  0  0  0  0  0
   -2.4285   -2.1108   -1.3672 H   0  0  0  0  0  0  0  0  0  0  0  0
   -0.7902   -1.0846   -0.4924 C   0  0  1  0  0  0  0  0  0  0  0  0
    0.0823   -1.7298   -0.6429 H   0  0  0  0  0  0  0  0  0  0  0  0
   -0.8188   -0.0622   -1.6512 C   0  0  0  0  0  0  0  0  0  0  0  0
   -1.5243    0.7354   -1.3968 H   0  0  0  0  0  0  0  0  0  0  0  0
    0.1692    0.4027   -1.7247 H   0  0  0  0  0  0  0  0  0  0  0  0
   -1.2255   -0.6014   -3.0088 C   0  0  0  0  0  0  0  0  0  0  0  0
   -2.4108   -1.2018   -3.3768 C   0  0  0  0  0  0  0  0  0  0  0  0
   -3.2917   -1.3118   -2.7502 H   0  0  0  0  0  0  0  0  0  0  0  0
   -2.3000   -1.5987   -4.7059 N   0  0  0  0  0  0  0  0  0  0  0  0
   -3.0335   -2.0388   -5.2587 H   0  0  0  0  0  0  0  0  0  0  0  0
   -1.0507   -1.2688   -5.2012 C   0  0  0  0  0  0  0  0  0  0  0  0
   -0.4763   -1.4599   -6.4577 C   0  0  0  0  0  0  0  0  0  0  0  0
   -1.0374   -1.9446   -7.2489 H   0  0  0  0  0  0  0  0  0  0  0  0
    0.8352   -1.0197   -6.6823 C   0  0  0  0  0  0  0  0  0  0  0  0
    1.2968   -1.1622   -7.6548 H   0  0  0  0  0  0  0  0  0  0  0  0
    1.5529   -0.3955   -5.6512 C   0  0  0  0  0  0  0  0  0  0  0  0
    2.5689   -0.0548   -5.8263 H   0  0  0  0  0  0  0  0  0  0  0  0
    0.9637   -0.2082   -4.3927 C   0  0  0  0  0  0  0  0  0  0  0  0
    1.5217    0.2750   -3.5972 H   0  0  0  0  0  0  0  0  0  0  0  0
   -0.3475   -0.6482   -4.1749 C   0  0  0  0  0  0  0  0  0  0  0  0
   -0.5402   -0.2975    0.8132 C   0  0  0  0  0  0  0  0  0  0  0  0
    0.6065   -0.0232    1.1429 O   0  0  0  0  0  0  0  0  0  0  0  0
   -1.5923    0.3368    1.4494 N   0  0  0  0  0  0  0  0  0  0  0  0
   -2.5183   -0.0094    1.2211 H   0  0  0  0  0  0  0  0  0  0  0  0
   -1.4183    1.1102    2.6718 C   0  0  0  0  0  0  0  0  0  0  0  0
   -0.7122    1.9312    2.5096 H   0  0  0  0  0  0  0  0  0  0  0  0
   -2.3743    1.5378    2.9885 H   0  0  0  0  0  0  0  0  0  0  0  0
   -1.0378    0.4720    3.4761 H   0  0  0  0  0  0  0  0  0  0  0  0
  1  2  1  0  0  0  0
  2  3  1  0  0  0  0
  2  4  1  0  0  0  0
  2  5  1  0  0  0  0
  5  6  2  0  0  0  0
  5  7  1  0  0  0  0
  7  8  1  0  0  0  0
  7  9  1  0  0  0  0
  9 10  1  0  0  0  0
  9 11  1  0  0  0  0
  9 29  1  0  0  0  0
 11 12  1  0  0  0  0
 11 13  1  0  0  0  0
 11 14  1  0  0  0  0
 14 15  2  0  0  0  0
 14 28  1  0  0  0  0
 15 16  1  0  0  0  0
 15 17  1  0  0  0  0
 17 18  1  0  0  0  0
 17 19  1  0  0  0  0
 19 20  1  0  0  0  0
 19 28  2  0  0  0  0
 20 21  1  0  0  0  0
 20 22  2  0  0  0  0
 22 23  1  0  0  0  0
 22 24  1  0  0  0  0
 24 25  1  0  0  0  0
 24 26  2  0  0  0  0
 26 27  1  0  0  0  0
 26 28  1  0  0  0  0
 29 30  2  0  0  0  0
 29 31  1  0  0  0  0
 31 32  1  0  0  0  0
 31 33  1  0  0  0  0
 33 34  1  0  0  0  0
 33 35  1  0  0  0  0
 33 36  1  0  0  0  0
M  END
$$$$

  -OEChem-03222214083D

 36 37  0     1  0  0  0  0  0999 V2000
   -3.1699   -4.8101    0.7312 H   0  0  0  0  0  0  0  0  0  0  0  0
   -3.1612   -4.0292   -0.0346 C   0  0  0  0  0  0  0  0  0  0  0  0
   -4.1552   -3.5791   -0.0894 H   0  0  0  0  0  0  0  0  0  0  0  0
   -2.9199   -4.4857   -0.9978 H   0  0  0  0  0  0  0  0  0  0  0  0
   -2.1302   -2.9714    0.3109 C   0  0  0  0  0  0  0  0  0  0  0  0
   -1.4924   -3.0623    1.3437 O   0  0  0  0  0  0  0  0  0  0  0  0
   -1.9389   -1.9050   -0.5444 N   0  0  0  0  0  0  0  0  0  0  0  0
   -2.3525   -2.0287   -1.4634 H   0  0  0  0  0  0  0  0  0  0  0  0
   -0.7469   -1.0348   -0.5005 C   0  0  1  0  0  0  0  0  0  0  0  0
    0.1294   -1.6731   -0.6580 H   0  0  0  0  0  0  0  0  0  0  0  0
   -0.7741    0.0174   -1.6289 C   0  0  0  0  0  0  0  0  0  0  0  0
   -1.4977    0.7957   -1.3661 H   0  0  0  0  0  0  0  0  0  0  0  0
    0.2051    0.5022   -1.6988 H   0  0  0  0  0  0  0  0  0  0  0  0
   -1.1658   -0.5388   -2.9792 C   0  0  0  0  0  0  0  0  0  0  0  0
   -2.4285   -0.8964   -3.3968 C   0  0  0  0  0  0  0  0  0  0  0  0
   -3.3466   -0.7564   -2.8302 H   0  0  0  0  0  0  0  0  0  0  0  0
   -2.3168   -1.4396   -4.6736 N   0  0  0  0  0  0  0  0  0  0  0  0
   -3.0918   -1.7522   -5.2561 H   0  0  0  0  0  0  0  0  0  0  0  0
   -0.9919   -1.4475   -5.0776 C   0  0  0  0  0  0  0  0  0  0  0  0
   -0.3852   -1.8885   -6.2535 C   0  0  0  0  0  0  0  0  0  0  0  0
   -0.9828   -2.3140   -7.0520 H   0  0  0  0  0  0  0  0  0  0  0  0
    1.0058   -1.7753   -6.3878 C   0  0  0  0  0  0  0  0  0  0  0  0
    1.4933   -2.1144   -7.2972 H   0  0  0  0  0  0  0  0  0  0  0  0
    1.7703   -1.2250   -5.3477 C   0  0  0  0  0  0  0  0  0  0  0  0
    2.8478   -1.1396   -5.4525 H   0  0  0  0  0  0  0  0  0  0  0  0
    1.1489   -0.7840   -4.1706 C   0  0  0  0  0  0  0  0  0  0  0  0
    1.7395   -0.3594   -3.3650 H   0  0  0  0  0  0  0  0  0  0  0  0
   -0.2402   -0.8969   -4.0462 C   0  0  0  0  0  0  0  0  0  0  0  0
   -0.5228   -0.2925    0.8351 C   0  0  0  0  0  0  0  0  0  0  0  0
    0.6172   -0.0244    1.1924 O   0  0  0  0  0  0  0  0  0  0  0  0
   -1.5873    0.3253    1.4668 N   0  0  0  0  0  0  0  0  0  0  0  0
   -2.5072   -0.0202    1.2135 H   0  0  0  0  0  0  0  0  0  0  0  0
   -1.4397    1.0620    2.7152 C   0  0  0  0  0  0  0  0  0  0  0  0
   -0.7415    1.8959    2.5878 H   0  0  0  0  0  0  0  0  0  0  0  0
   -2.4056    1.4678    3.0304 H   0  0  0  0  0  0  0  0  0  0  0  0
   -1.0637    0.4041    3.5059 H   0  0  0  0  0  0  0  0  0  0  0  0
  1  2  1  0  0  0  0
  2  3  1  0  0  0  0
  2  4  1  0  0  0  0
  2  5  1  0  0  0  0
  5  6  2  0  0  0  0
  5  7  1  0  0  0  0
  7  8  1  0  0  0  0
  7  9  1  0  0  0  0
  9 10  1  0  0  0  0
  9 11  1  0  0  0  0
  9 29  1  0  0  0  0
 11 12  1  0  0  0  0
 11 13  1  0  0  0  0
 11 14  1  0  0  0  0
 14 15  2  0  0  0  0
 14 28  1  0  0  0  0
 15 16  1  0  0  0  0
 15 17  1  0  0  0  0
 17 18  1  0  0  0  0
 17 19  1  0  0  0  0
 19 20  1  0  0  0  0
 19 28  2  0  0  0  0
 20 21  1  0  0  0  0
 20 22  2  0  0  0  0
 22 23  1  0  0  0  0
 22 24  1  0  0  0  0
 24 25  1  0  0  0  0
 24 26  2  0  0  0  0
 26 27  1  0  0  0  0
 26 28  1  0  0  0  0
 29 30  2  0  0  0  0
 29 31  1  0  0  0  0
 31 32  1  0  0  0  0
 31 33  1  0  0  0  0
 33 34  1  0  0  0  0
 33 35  1  0  0  0  0
 33 36  1  0  0  0  0
M  END
$$$$

  -OEChem-03222214083D

 36 37  0     1  0  0  0  0  0999 V2000
   -3.1622   -4.8054    0.5849 H   0  0  0  0  0  0  0  0  0  0  0  0
   -3.1329   -4.0126   -0.1681 C   0  0  0  0  0  0  0  0  0  0  0  0
   -4.1259   -3.5635   -0.2452 H   0  0  0  0  0  0  0  0  0  0  0  0
   -2.8623   -4.4533   -1.1307 H   0  0  0  0  0  0  0  0  0  0  0  0
   -2.1145   -2.9588    0.2242 C   0  0  0  0  0  0  0  0  0  0  0  0
   -1.4970   -3.0725    1.2672 O   0  0  0  0  0  0  0  0  0  0  0  0
   -1.9075   -1.8713   -0.5996 N   0  0  0  0  0  0  0  0  0  0  0  0
   -2.3129   -1.9612   -1.5276 H   0  0  0  0  0  0  0  0  0  0  0  0
   -0.7172   -1.0015   -0.5120 C   0  0  1  0  0  0  0  0  0  0  0  0
    0.1634   -1.6334   -0.6713 H   0  0  0  0  0  0  0  0  0  0  0  0
   -0.7449    0.0637   -1.6248 C   0  0  0  0  0  0  0  0  0  0  0  0
   -1.4788    0.8329   -1.3630 H   0  0  0  0  0  0  0  0  0  0  0  0
    0.2308    0.5560   -1.6932 H   0  0  0  0  0  0  0  0  0  0  0  0
   -1.1199   -0.5165   -2.9665 C   0  0  0  0  0  0  0  0  0  0  0  0
   -2.3905   -0.6310   -3.4814 C   0  0  0  0  0  0  0  0  0  0  0  0
   -3.2988   -0.2543   -3.0153 H   0  0  0  0  0  0  0  0  0  0  0  0
   -2.2932   -1.3017   -4.6978 N   0  0  0  0  0  0  0  0  0  0  0  0
   -3.0663   -1.4905   -5.3337 H   0  0  0  0  0  0  0  0  0  0  0  0
   -0.9730   -1.6309   -4.9626 C   0  0  0  0  0  0  0  0  0  0  0  0
   -0.3779   -2.2987   -6.0330 C   0  0  0  0  0  0  0  0  0  0  0  0
   -0.9820   -2.6582   -6.8586 H   0  0  0  0  0  0  0  0  0  0  0  0
    1.0097   -2.5004   -6.0252 C   0  0  0  0  0  0  0  0  0  0  0  0
    1.4875   -3.0192   -6.8510 H   0  0  0  0  0  0  0  0  0  0  0  0
    1.7834   -2.0337   -4.9510 C   0  0  0  0  0  0  0  0  0  0  0  0
    2.8578   -2.1922   -4.9468 H   0  0  0  0  0  0  0  0  0  0  0  0
    1.1749   -1.3605   -3.8819 C   0  0  0  0  0  0  0  0  0  0  0  0
    1.7699   -0.9965   -3.0499 H   0  0  0  0  0  0  0  0  0  0  0  0
   -0.2092   -1.1612   -3.9005 C   0  0  0  0  0  0  0  0  0  0  0  0
   -0.5106   -0.2881    0.8417 C   0  0  0  0  0  0  0  0  0  0  0  0
    0.6255   -0.0296    1.2183 O   0  0  0  0  0  0  0  0  0  0  0  0
   -1.5816    0.3184    1.4740 N   0  0  0  0  0  0  0  0  0  0  0  0
   -2.4988   -0.0235    1.2058 H   0  0  0  0  0  0  0  0  0  0  0  0
   -1.4462    1.0247    2.7416 C   0  0  0  0  0  0  0  0  0  0  0  0
   -0.7509    1.8646    2.6407 H   0  0  0  0  0  0  0  0  0  0  0  0
   -2.4158    1.4182    3.0610 H   0  0  0  0  0  0  0  0  0  0  0  0
   -1.0721    0.3493    3.5182 H   0  0  0  0  0  0  0  0  0  0  0  0
  1  2  1  0  0  0  0
  2  3  1  0  0  0  0
  2  4  1  0  0  0  0
  2  5  1  0  0  0  0
  5  6  2  0  0  0  0
  5  7  1  0  0  0  0
  7  8  1  0  0  0  0
  7  9  1  0  0  0  0
  9 10  1  0  0  0  0
  9 11  1  0  0  0  0
  9 29  1  0  0  0  0
 11 12  1  0  0  0  0
 11 13  1  0  0  0  0
 11 14  1  0  0  0  0
 14 15  2  0  0  0  0
 14 28  1  0  0  0  0
 15 16  1  0  0  0  0
 15 17  1  0  0  0  0
 17 18  1  0  0  0  0
 17 19  1  0  0  0  0
 19 20  1  0  0  0  0
 19 28  2  0  0  0  0
 20 21  1  0  0  0  0
 20 22  2  0  0  0  0
 22 23  1  0  0  0  0
 22 24  1  0  0  0  0
 24 25  1  0  0  0  0
 24 26  2  0  0  0  0
 26 27  1  0  0  0  0
 26 28  1  0  0  0  0
 29 30  2  0  0  0  0
 29 31  1  0  0  0  0
 31 32  1  0  0  0  0
 31 33  1  0  0  0  0
 33 34  1  0  0  0  0
 33 35  1  0  0  0  0
 33 36  1  0  0  0  0
M  END
$$$$

  -OEChem-03222214083D

 36 37  0     1  0  0  0  0  0999 V2000
   -3.1754   -4.7962    0.5019 H   0  0  0  0  0  0  0  0  0  0  0  0
   -3.1202   -3.9972   -0.2429 C   0  0  0  0  0  0  0  0  0  0  0  0
   -4.1074   -3.5403   -0.3433 H   0  0  0  0  0  0  0  0  0  0  0  0
   -2.8269   -4.4306   -1.2024 H   0  0  0  0  0  0  0  0  0  0  0  0
   -2.1056   -2.9538    0.1841 C   0  0  0  0  0  0  0  0  0  0  0  0
   -1.5046   -3.0848    1.2350 O   0  0  0  0  0  0  0  0  0  0  0  0
   -1.8782   -1.8593   -0.6237 N   0  0  0  0  0  0  0  0  0  0  0  0
   -2.2798   -1.9271   -1.5563 H   0  0  0  0  0  0  0  0  0  0  0  0
   -0.6874   -0.9940   -0.5091 C   0  0  1  0  0  0  0  0  0  0  0  0
    0.1943   -1.6265   -0.6582 H   0  0  0  0  0  0  0  0  0  0  0  0
   -0.7102    0.0722   -1.6201 C   0  0  0  0  0  0  0  0  0  0  0  0
   -1.4432    0.8443   -1.3654 H   0  0  0  0  0  0  0  0  0  0  0  0
    0.2684    0.5587   -1.6874 H   0  0  0  0  0  0  0  0  0  0  0  0
   -1.0721   -0.5262   -2.9570 C   0  0  0  0  0  0  0  0  0  0  0  0
   -2.2812   -0.4010   -3.5991 C   0  0  0  0  0  0  0  0  0  0  0  0
   -3.1230    0.1962   -3.2542 H   0  0  0  0  0  0  0  0  0  0  0  0
   -2.2258   -1.1771   -4.7543 N   0  0  0  0  0  0  0  0  0  0  0  0
   -2.9619   -1.2469   -5.4552 H   0  0  0  0  0  0  0  0  0  0  0  0
   -0.9936   -1.8035   -4.8565 C   0  0  0  0  0  0  0  0  0  0  0  0
   -0.4679   -2.6716   -5.8135 C   0  0  0  0  0  0  0  0  0  0  0  0
   -1.0608   -2.9651   -6.6728 H   0  0  0  0  0  0  0  0  0  0  0  0
    0.8358   -3.1606   -5.6485 C   0  0  0  0  0  0  0  0  0  0  0  0
    1.2588   -3.8376   -6.3849 H   0  0  0  0  0  0  0  0  0  0  0  0
    1.5962   -2.7760   -4.5332 C   0  0  0  0  0  0  0  0  0  0  0  0
    2.6058   -3.1555   -4.4078 H   0  0  0  0  0  0  0  0  0  0  0  0
    1.0585   -1.9009   -3.5787 C   0  0  0  0  0  0  0  0  0  0  0  0
    1.6450   -1.5980   -2.7167 H   0  0  0  0  0  0  0  0  0  0  0  0
   -0.2430   -1.4199   -3.7515 C   0  0  0  0  0  0  0  0  0  0  0  0
   -0.5010   -0.2934    0.8535 C   0  0  0  0  0  0  0  0  0  0  0  0
    0.6294   -0.0396    1.2500 O   0  0  0  0  0  0  0  0  0  0  0  0
   -1.5818    0.3098    1.4715 N   0  0  0  0  0  0  0  0  0  0  0  0
   -2.4930   -0.0372    1.1892 H   0  0  0  0  0  0  0  0  0  0  0  0
   -1.4671    1.0011    2.7494 C   0  0  0  0  0  0  0  0  0  0  0  0
   -0.7802    1.8498    2.6664 H   0  0  0  0  0  0  0  0  0  0  0  0
   -2.4444    1.3799    3.0630 H   0  0  0  0  0  0  0  0  0  0  0  0
   -1.0942    0.3193    3.5211 H   0  0  0  0  0  0  0  0  0  0  0  0
  1  2  1  0  0  0  0
  2  3  1  0  0  0  0
  2  4  1  0  0  0  0
  2  5  1  0  0  0  0
  5  6  2  0  0  0  0
  5  7  1  0  0  0  0
  7  8  1  0  0  0  0
  7  9  1  0  0  0  0
  9 10  1  0  0  0  0
  9 11  1  0  0  0  0
  9 29  1  0  0  0  0
 11 12  1  0  0  0  0
 11 13  1  0  0  0  0
 11 14  1  0  0  0  0
 14 15  2  0  0  0  0
 14 28  1  0  0  0  0
 15 16  1  0  0  0  0
 15 17  1  0  0  0  0
 17 18  1  0  0  0  0
 17 19  1  0  0  0  0
 19 20  1  0  0  0  0
 19 28  2  0  0  0  0
 20 21  1  0  0  0  0
 20 22  2  0  0  0  0
 22 23  1  0  0  0  0
 22 24  1  0  0  0  0
 24 25  1  0  0  0  0
 24 26  2  0  0  0  0
 26 27  1  0  0  0  0
 26 28  1  0  0  0  0
 29 30  2  0  0  0  0
 29 31  1  0  0  0  0
 31 32  1  0  0  0  0
 31 33  1  0  0  0  0
 33 34  1  0  0  0  0
 33 35  1  0  0  0  0
 33 36  1  0  0  0  0
M  END
$$$$

  -OEChem-03222214083D

 36 37  0     1  0  0  0  0  0999 V2000
   -3.2507   -4.7834    0.5646 H   0  0  0  0  0  0  0  0  0  0  0  0
   -3.1856   -3.9853   -0.1803 C   0  0  0  0  0  0  0  0  0  0  0  0
   -4.1618   -3.5019   -0.2653 H   0  0  0  0  0  0  0  0  0  0  0  0
   -2.9185   -4.4254   -1.1444 H   0  0  0  0  0  0  0  0  0  0  0  0
   -2.1375   -2.9697    0.2332 C   0  0  0  0  0  0  0  0  0  0  0  0
   -1.5429   -3.1038    1.2874 O   0  0  0  0  0  0  0  0  0  0  0  0
   -1.8727   -1.8944   -0.5885 N   0  0  0  0  0  0  0  0  0  0  0  0
   -2.2711   -1.9575   -1.5234 H   0  0  0  0  0  0  0  0  0  0  0  0
   -0.6746   -1.0409   -0.4627 C   0  0  1  0  0  0  0  0  0  0  0  0
    0.2044   -1.6822   -0.5747 H   0  0  0  0  0  0  0  0  0  0  0  0
   -0.6764    0.0036   -1.5946 C   0  0  0  0  0  0  0  0  0  0  0  0
   -1.3993    0.7927   -1.3625 H   0  0  0  0  0  0  0  0  0  0  0  0
    0.3126    0.4699   -1.6566 H   0  0  0  0  0  0  0  0  0  0  0  0
   -1.0225   -0.6079   -2.9318 C   0  0  0  0  0  0  0  0  0  0  0  0
   -2.0959   -0.2476   -3.7111 C   0  0  0  0  0  0  0  0  0  0  0  0
   -2.8127    0.5373   -3.4779 H   0  0  0  0  0  0  0  0  0  0  0  0
   -2.0992   -1.0726   -4.8323 N   0  0  0  0  0  0  0  0  0  0  0  0
   -2.7613   -1.0164   -5.6045 H   0  0  0  0  0  0  0  0  0  0  0  0
   -1.0247   -1.9461   -4.7911 C   0  0  0  0  0  0  0  0  0  0  0  0
   -0.6068   -2.9378   -5.6783 C   0  0  0  0  0  0  0  0  0  0  0  0
   -1.1673   -3.1332   -6.5858 H   0  0  0  0  0  0  0  0  0  0  0  0
    0.5485   -3.6746   -5.3831 C   0  0  0  0  0  0  0  0  0  0  0  0
    0.8871   -4.4498   -6.0642 H   0  0  0  0  0  0  0  0  0  0  0  0
    1.2730   -3.4064   -4.2120 C   0  0  0  0  0  0  0  0  0  0  0  0
    2.1728   -3.9722   -3.9891 H   0  0  0  0  0  0  0  0  0  0  0  0
    0.8438   -2.4061   -3.3286 C   0  0  0  0  0  0  0  0  0  0  0  0
    1.4142   -2.1938   -2.4304 H   0  0  0  0  0  0  0  0  0  0  0  0
   -0.3177   -1.6825   -3.6230 C   0  0  0  0  0  0  0  0  0  0  0  0
   -0.5145   -0.3146    0.8896 C   0  0  0  0  0  0  0  0  0  0  0  0
    0.6083   -0.0675    1.3112 O   0  0  0  0  0  0  0  0  0  0  0  0
   -1.6032    0.3137    1.4677 N   0  0  0  0  0  0  0  0  0  0  0  0
   -2.5125   -0.0195    1.1634 H   0  0  0  0  0  0  0  0  0  0  0  0
   -1.5124    1.0359    2.7300 C   0  0  0  0  0  0  0  0  0  0  0  0
   -0.8045    1.8672    2.6465 H   0  0  0  0  0  0  0  0  0  0  0  0
   -2.4901    1.4436    3.0033 H   0  0  0  0  0  0  0  0  0  0  0  0
   -1.1779    0.3670    3.5299 H   0  0  0  0  0  0  0  0  0  0  0  0
  1  2  1  0  0  0  0
  2  3  1  0  0  0  0
  2  4  1  0  0  0  0
  2  5  1  0  0  0  0
  5  6  2  0  0  0  0
  5  7  1  0  0  0  0
  7  8  1  0  0  0  0
  7  9  1  0  0  0  0
  9 10  1  0  0  0  0
  9 11  1  0  0  0  0
  9 29  1  0  0  0  0
 11 12  1  0  0  0  0
 11 13  1  0  0  0  0
 11 14  1  0  0  0  0
 14 15  2  0  0  0  0
 14 28  1  0  0  0  0
 15 16  1  0  0  0  0
 15 17  1  0  0  0  0
 17 18  1  0  0  0  0
 17 19  1  0  0  0  0
 19 20  1  0  0  0  0
 19 28  2  0  0  0  0
 20 21  1  0  0  0  0
 20 22  2  0  0  0  0
 22 23  1  0  0  0  0
 22 24  1  0  0  0  0
 24 25  1  0  0  0  0
 24 26  2  0  0  0  0
 26 27  1  0  0  0  0
 26 28  1  0  0  0  0
 29 30  2  0  0  0  0
 29 31  1  0  0  0  0
 31 32  1  0  0  0  0
 31 33  1  0  0  0  0
 33 34  1  0  0  0  0
 33 35  1  0  0  0  0
 33 36  1  0  0  0  0
M  END
$$$$

  -OEChem-03222214083D

 36 37  0     1  0  0  0  0  0999 V2000
   -3.2751   -4.7769    0.6678 H   0  0  0  0  0  0  0  0  0  0  0  0
   -3.1957   -3.9950   -0.0928 C   0  0  0  0  0  0  0  0  0  0  0  0
   -4.1685   -3.5101   -0.2025 H   0  0  0  0  0  0  0  0  0  0  0  0
   -2.9161   -4.4566   -1.0431 H   0  0  0  0  0  0  0  0  0  0  0  0
   -2.1495   -2.9744    0.3128 C   0  0  0  0  0  0  0  0  0  0  0  0
   -1.5671   -3.0893    1.3762 O   0  0  0  0  0  0  0  0  0  0  0  0
   -1.8629   -1.9237   -0.5330 N   0  0  0  0  0  0  0  0  0  0  0  0
   -2.2540   -2.0007   -1.4702 H   0  0  0  0  0  0  0  0  0  0  0  0
   -0.6676   -1.0677   -0.4064 C   0  0  1  0  0  0  0  0  0  0  0  0
    0.2175   -1.7044   -0.4734 H   0  0  0  0  0  0  0  0  0  0  0  0
   -0.6531   -0.0562   -1.5666 C   0  0  0  0  0  0  0  0  0  0  0  0
   -1.3716    0.7442   -1.3612 H   0  0  0  0  0  0  0  0  0  0  0  0
    0.3407    0.4012   -1.6185 H   0  0  0  0  0  0  0  0  0  0  0  0
   -0.9744   -0.6769   -2.9100 C   0  0  0  0  0  0  0  0  0  0  0  0
   -1.8423   -0.1126   -3.8145 C   0  0  0  0  0  0  0  0  0  0  0  0
   -2.3760    0.8259   -3.6778 H   0  0  0  0  0  0  0  0  0  0  0  0
   -1.9215   -0.9584   -4.9154 N   0  0  0  0  0  0  0  0  0  0  0  0
   -2.4698   -0.7825   -5.7555 H   0  0  0  0  0  0  0  0  0  0  0  0
   -1.0905   -2.0512   -4.7424 C   0  0  0  0  0  0  0  0  0  0  0  0
   -0.8327   -3.1417   -5.5727 C   0  0  0  0  0  0  0  0  0  0  0  0
   -1.3324   -3.2322   -6.5310 H   0  0  0  0  0  0  0  0  0  0  0  0
    0.0840   -4.1148   -5.1549 C   0  0  0  0  0  0  0  0  0  0  0  0
    0.2976   -4.9698   -5.7897 H   0  0  0  0  0  0  0  0  0  0  0  0
    0.7364   -3.9788   -3.9217 C   0  0  0  0  0  0  0  0  0  0  0  0
    1.4572   -4.7270   -3.6053 H   0  0  0  0  0  0  0  0  0  0  0  0
    0.4705   -2.8763   -3.0978 C   0  0  0  0  0  0  0  0  0  0  0  0
    0.9992   -2.7774   -2.1569 H   0  0  0  0  0  0  0  0  0  0  0  0
   -0.4619   -1.9131   -3.5076 C   0  0  0  0  0  0  0  0  0  0  0  0
   -0.5417   -0.3034    0.9284 C   0  0  0  0  0  0  0  0  0  0  0  0
    0.5693   -0.0456    1.3737 O   0  0  0  0  0  0  0  0  0  0  0  0
   -1.6446    0.3398    1.4607 N   0  0  0  0  0  0  0  0  0  0  0  0
   -2.5458    0.0032    1.1369 H   0  0  0  0  0  0  0  0  0  0  0  0
   -1.5875    1.0917    2.7076 C   0  0  0  0  0  0  0  0  0  0  0  0
   -0.8761    1.9200    2.6239 H   0  0  0  0  0  0  0  0  0  0  0  0
   -2.5718    1.5067    2.9441 H   0  0  0  0  0  0  0  0  0  0  0  0
   -1.2760    0.4413    3.5318 H   0  0  0  0  0  0  0  0  0  0  0  0
  1  2  1  0  0  0  0
  2  3  1  0  0  0  0
  2  4  1  0  0  0  0
  2  5  1  0  0  0  0
  5  6  2  0  0  0  0
  5  7  1  0  0  0  0
  7  8  1  0  0  0  0
  7  9  1  0  0  0  0
  9 10  1  0  0  0  0
  9 11  1  0  0  0  0
  9 29  1  0  0  0  0
 11 12  1  0  0  0  0
 11 13  1  0  0  0  0
 11 14  1  0  0  0  0
 14 15  2  0  0  0  0
 14 28  1  0  0  0  0
 15 16  1  0  0  0  0
 15 17  1  0  0  0  0
 17 18  1  0  0  0  0
 17 19  1  0  0  0  0
 19 20  1  0  0  0  0
 19 28  2  0  0  0  0
 20 21  1  0  0  0  0
 20 22  2  0  0  0  0
 22 23  1  0  0  0  0
 22 24  1  0  0  0  0
 24 25  1  0  0  0  0
 24 26  2  0  0  0  0
 26 27  1  0  0  0  0
 26 28  1  0  0  0  0
 29 30  2  0  0  0  0
 29 31  1  0  0  0  0
 31 32  1  0  0  0  0
 31 33  1  0  0  0  0
 33 34  1  0  0  0  0
 33 35  1  0  0  0  0
 33 36  1  0  0  0  0
M  END
$$$$

  -OEChem-03222214083D

 36 37  0     1  0  0  0  0  0999 V2000
   -3.2805   -4.7697    0.8001 H   0  0  0  0  0  0  0  0  0  0  0  0
   -3.2240   -3.9884    0.0369 C   0  0  0  0  0  0  0  0  0  0  0  0
   -4.1958   -3.4943   -0.0350 H   0  0  0  0  0  0  0  0  0  0  0  0
   -2.9860   -4.4520   -0.9238 H   0  0  0  0  0  0  0  0  0  0  0  0
   -2.1548   -2.9770    0.4029 C   0  0  0  0  0  0  0  0  0  0  0  0
   -1.5515   -3.0816    1.4554 O   0  0  0  0  0  0  0  0  0  0  0  0
   -1.8651   -1.9492   -0.4690 N   0  0  0  0  0  0  0  0  0  0  0  0
   -2.2728   -2.0350   -1.3986 H   0  0  0  0  0  0  0  0  0  0  0  0
   -0.6734   -1.0849   -0.3640 C   0  0  1  0  0  0  0  0  0  0  0  0
    0.2195   -1.7133   -0.4097 H   0  0  0  0  0  0  0  0  0  0  0  0
   -0.6558   -0.1112   -1.5542 C   0  0  0  0  0  0  0  0  0  0  0  0
   -1.3748    0.6947   -1.3729 H   0  0  0  0  0  0  0  0  0  0  0  0
    0.3386    0.3445   -1.6065 H   0  0  0  0  0  0  0  0  0  0  0  0
   -0.9636   -0.7438   -2.8982 C   0  0  0  0  0  0  0  0  0  0  0  0
   -1.5736   -0.0414   -3.9106 C   0  0  0  0  0  0  0  0  0  0  0  0
   -1.8882    0.9990   -3.8553 H   0  0  0  0  0  0  0  0  0  0  0  0
   -1.7208   -0.8934   -4.9987 N   0  0  0  0  0  0  0  0  0  0  0  0
   -2.1220   -0.6364   -5.8989 H   0  0  0  0  0  0  0  0  0  0  0  0
   -1.1826   -2.1343   -4.7112 C   0  0  0  0  0  0  0  0  0  0  0  0
   -1.0905   -3.2828   -5.4969 C   0  0  0  0  0  0  0  0  0  0  0  0
   -1.4888   -3.2905   -6.5055 H   0  0  0  0  0  0  0  0  0  0  0  0
   -0.4718   -4.4221   -4.9688 C   0  0  0  0  0  0  0  0  0  0  0  0
   -0.3900   -5.3245   -5.5677 H   0  0  0  0  0  0  0  0  0  0  0  0
    0.0527   -4.3932   -3.6697 C   0  0  0  0  0  0  0  0  0  0  0  0
    0.5447   -5.2732   -3.2651 H   0  0  0  0  0  0  0  0  0  0  0  0
   -0.0446   -3.2309   -2.8919 C   0  0  0  0  0  0  0  0  0  0  0  0
    0.3836   -3.2310   -1.8967 H   0  0  0  0  0  0  0  0  0  0  0  0
   -0.6797   -2.0924   -3.4122 C   0  0  0  0  0  0  0  0  0  0  0  0
   -0.5604   -0.2840    0.9506 C   0  0  0  0  0  0  0  0  0  0  0  0
    0.5459   -0.0088    1.3973 O   0  0  0  0  0  0  0  0  0  0  0  0
   -1.6708    0.3666    1.4585 N   0  0  0  0  0  0  0  0  0  0  0  0
   -2.5682    0.0195    1.1347 H   0  0  0  0  0  0  0  0  0  0  0  0
   -1.6282    1.1478    2.6880 C   0  0  0  0  0  0  0  0  0  0  0  0
   -0.9076    1.9674    2.5976 H   0  0  0  0  0  0  0  0  0  0  0  0
   -2.6124    1.5777    2.8969 H   0  0  0  0  0  0  0  0  0  0  0  0
   -1.3381    0.5147    3.5331 H   0  0  0  0  0  0  0  0  0  0  0  0
  1  2  1  0  0  0  0
  2  3  1  0  0  0  0
  2  4  1  0  0  0  0
  2  5  1  0  0  0  0
  5  6  2  0  0  0  0
  5  7  1  0  0  0  0
  7  8  1  0  0  0  0
  7  9  1  0  0  0  0
  9 10  1  0  0  0  0
  9 11  1  0  0  0  0
  9 29  1  0  0  0  0
 11 12  1  0  0  0  0
 11 13  1  0  0  0  0
 11 14  1  0  0  0  0
 14 15  2  0  0  0  0
 14 28  1  0  0  0  0
 15 16  1  0  0  0  0
 15 17  1  0  0  0  0
 17 18  1  0  0  0  0
 17 19  1  0  0  0  0
 19 20  1  0  0  0  0
 19 28  2  0  0  0  0
 20 21  1  0  0  0  0
 20 22  2  0  0  0  0
 22 23  1  0  0  0  0
 22 24  1  0  0  0  0
 24 25  1  0  0  0  0
 24 26  2  0  0  0  0
 26 27  1  0  0  0  0
 26 28  1  0  0  0  0
 29 30  2  0  0  0  0
 29 31  1  0  0  0  0
 31 32  1  0  0  0  0
 31 33  1  0  0  0  0
 33 34  1  0  0  0  0
 33 35  1  0  0  0  0
 33 36  1  0  0  0  0
M  END
$$$$

  -OEChem-03222214083D

 36 37  0     1  0  0  0  0  0999 V2000
   -3.3797   -4.7262    0.9596 H   0  0  0  0  0  0  0  0  0  0  0  0
   -3.3446   -3.9437    0.1962 C   0  0  0  0  0  0  0  0  0  0  0  0
   -4.3091   -3.4312    0.1722 H   0  0  0  0  0  0  0  0  0  0  0  0
   -3.1628   -4.4093   -0.7758 H   0  0  0  0  0  0  0  0  0  0  0  0
   -2.2387   -2.9548    0.5123 C   0  0  0  0  0  0  0  0  0  0  0  0
   -1.6017   -3.0624    1.5442 O   0  0  0  0  0  0  0  0  0  0  0  0
   -1.9429   -1.9536   -0.3885 N   0  0  0  0  0  0  0  0  0  0  0  0
   -2.3889   -2.0347   -1.3010 H   0  0  0  0  0  0  0  0  0  0  0  0
   -0.7305   -1.1130   -0.3299 C   0  0  1  0  0  0  0  0  0  0  0  0
    0.1450   -1.7673   -0.3823 H   0  0  0  0  0  0  0  0  0  0  0  0
   -0.7065   -0.1756   -1.5490 C   0  0  0  0  0  0  0  0  0  0  0  0
   -1.4084    0.6474   -1.3780 H   0  0  0  0  0  0  0  0  0  0  0  0
    0.2953    0.2613   -1.6190 H   0  0  0  0  0  0  0  0  0  0  0  0
   -1.0406   -0.8138   -2.8860 C   0  0  0  0  0  0  0  0  0  0  0  0
   -1.3551   -0.0443   -3.9816 C   0  0  0  0  0  0  0  0  0  0  0  0
   -1.4347    1.0411   -3.9861 H   0  0  0  0  0  0  0  0  0  0  0  0
   -1.5624   -0.8914   -5.0631 N   0  0  0  0  0  0  0  0  0  0  0  0
   -1.7947   -0.5942   -6.0089 H   0  0  0  0  0  0  0  0  0  0  0  0
   -1.3173   -2.2009   -4.6969 C   0  0  0  0  0  0  0  0  0  0  0  0
   -1.3587   -3.3685   -5.4578 C   0  0  0  0  0  0  0  0  0  0  0  0
   -1.6432   -3.3311   -6.5036 H   0  0  0  0  0  0  0  0  0  0  0  0
   -1.0147   -4.5852   -4.8581 C   0  0  0  0  0  0  0  0  0  0  0  0
   -1.0373   -5.5034   -5.4380 H   0  0  0  0  0  0  0  0  0  0  0  0
   -0.6198   -4.6133   -3.5144 C   0  0  0  0  0  0  0  0  0  0  0  0
   -0.3314   -5.5542   -3.0550 H   0  0  0  0  0  0  0  0  0  0  0  0
   -0.5795   -3.4306   -2.7635 C   0  0  0  0  0  0  0  0  0  0  0  0
   -0.2408   -3.4796   -1.7354 H   0  0  0  0  0  0  0  0  0  0  0  0
   -0.9568   -2.2109   -3.3503 C   0  0  0  0  0  0  0  0  0  0  0  0
   -0.5693   -0.2830    0.9612 C   0  0  0  0  0  0  0  0  0  0  0  0
    0.5529   -0.0244    1.3769 O   0  0  0  0  0  0  0  0  0  0  0  0
   -1.6523    0.4052    1.4786 N   0  0  0  0  0  0  0  0  0  0  0  0
   -2.5650    0.0763    1.1802 H   0  0  0  0  0  0  0  0  0  0  0  0
   -1.5635    1.2100    2.6901 C   0  0  0  0  0  0  0  0  0  0  0  0
   -0.8062    1.9930    2.5773 H   0  0  0  0  0  0  0  0  0  0  0  0
   -2.5244    1.6904    2.8967 H   0  0  0  0  0  0  0  0  0  0  0  0
   -1.2961    0.5818    3.5462 H   0  0  0  0  0  0  0  0  0  0  0  0
  1  2  1  0  0  0  0
  2  3  1  0  0  0  0
  2  4  1  0  0  0  0
  2  5  1  0  0  0  0
  5  6  2  0  0  0  0
  5  7  1  0  0  0  0
  7  8  1  0  0  0  0
  7  9  1  0  0  0  0
  9 10  1  0  0  0  0
  9 11  1  0  0  0  0
  9 29  1  0  0  0  0
 11 12  1  0  0  0  0
 11 13  1  0  0  0  0
 11 14  1  0  0  0  0
 14 15  2  0  0  0  0
 14 28  1  0  0  0  0
 15 16  1  0  0  0  0
 15 17  1  0  0  0  0
 17 18  1  0  0  0  0
 17 19  1  0  0  0  0
 19 20  1  0  0  0  0
 19 28  2  0  0  0  0
 20 21  1  0  0  0  0
 20 22  2  0  0  0  0
 22 23  1  0  0  0  0
 22 24  1  0  0  0  0
 24 25  1  0  0  0  0
 24 26  2  0  0  0  0
 26 27  1  0  0  0  0
 26 28  1  0  0  0  0
 29 30  2  0  0  0  0
 29 31  1  0  0  0  0
 31 32  1  0  0  0  0
 31 33  1  0  0  0  0
 33 34  1  0  0  0  0
 33 35  1  0  0  0  0
 33 36  1  0  0  0  0
M  END
$$$$

  -OEChem-03222214083D

 36 37  0     1  0  0  0  0  0999 V2000
   -3.5132   -4.5277    1.5697 H   0  0  0  0  0  0  0  0  0  0  0  0
   -3.5008   -3.8246    0.7321 C   0  0  0  0  0  0  0  0  0  0  0  0
   -4.4100   -3.2198    0.7673 H   0  0  0  0  0  0  0  0  0  0  0  0
   -3.4851   -4.3913   -0.2019 H   0  0  0  0  0  0  0  0  0  0  0  0
   -2.2790   -2.9295    0.8214 C   0  0  0  0  0  0  0  0  0  0  0  0
   -1.5001   -3.0534    1.7487 O   0  0  0  0  0  0  0  0  0  0  0  0
   -2.0543   -1.9763   -0.1503 N   0  0  0  0  0  0  0  0  0  0  0  0
   -2.6651   -1.9986   -0.9659 H   0  0  0  0  0  0  0  0  0  0  0  0
   -0.8386   -1.1506   -0.2514 C   0  0  1  0  0  0  0  0  0  0  0  0
    0.0078   -1.8403   -0.3408 H   0  0  0  0  0  0  0  0  0  0  0  0
   -0.8609   -0.2781   -1.5251 C   0  0  0  0  0  0  0  0  0  0  0  0
   -1.3261    0.6790   -1.2660 H   0  0  0  0  0  0  0  0  0  0  0  0
    0.1788   -0.0623   -1.7936 H   0  0  0  0  0  0  0  0  0  0  0  0
   -1.5796   -0.7768   -2.7723 C   0  0  0  0  0  0  0  0  0  0  0  0
   -1.5907    0.0340   -3.8849 C   0  0  0  0  0  0  0  0  0  0  0  0
   -1.2281    1.0598   -3.9131 H   0  0  0  0  0  0  0  0  0  0  0  0
   -2.1872   -0.6514   -4.9333 N   0  0  0  0  0  0  0  0  0  0  0  0
   -2.3379   -0.2821   -5.8704 H   0  0  0  0  0  0  0  0  0  0  0  0
   -2.4061   -1.9626   -4.5691 C   0  0  0  0  0  0  0  0  0  0  0  0
   -2.8873   -3.0213   -5.3379 C   0  0  0  0  0  0  0  0  0  0  0  0
   -3.2292   -2.8516   -6.3531 H   0  0  0  0  0  0  0  0  0  0  0  0
   -2.8925   -4.3085   -4.7927 C   0  0  0  0  0  0  0  0  0  0  0  0
   -3.2596   -5.1471   -5.3774 H   0  0  0  0  0  0  0  0  0  0  0  0
   -2.3748   -4.5187   -3.5095 C   0  0  0  0  0  0  0  0  0  0  0  0
   -2.3233   -5.5263   -3.1071 H   0  0  0  0  0  0  0  0  0  0  0  0
   -1.8941   -3.4398   -2.7544 C   0  0  0  0  0  0  0  0  0  0  0  0
   -1.4277   -3.6577   -1.8020 H   0  0  0  0  0  0  0  0  0  0  0  0
   -1.9698   -2.1258   -3.2535 C   0  0  0  0  0  0  0  0  0  0  0  0
   -0.5516   -0.2603    0.9765 C   0  0  0  0  0  0  0  0  0  0  0  0
    0.6058    0.0104    1.2692 O   0  0  0  0  0  0  0  0  0  0  0  0
   -1.5770    0.4640    1.5582 N   0  0  0  0  0  0  0  0  0  0  0  0
   -2.5189    0.1490    1.3480 H   0  0  0  0  0  0  0  0  0  0  0  0
   -1.3719    1.3456    2.7003 C   0  0  0  0  0  0  0  0  0  0  0  0
   -0.6303    2.1159    2.4629 H   0  0  0  0  0  0  0  0  0  0  0  0
   -2.3092    1.8427    2.9674 H   0  0  0  0  0  0  0  0  0  0  0  0
   -1.0217    0.7737    3.5661 H   0  0  0  0  0  0  0  0  0  0  0  0
  1  2  1  0  0  0  0
  2  3  1  0  0  0  0
  2  4  1  0  0  0  0
  2  5  1  0  0  0  0
  5  6  2  0  0  0  0
  5  7  1  0  0  0  0
  7  8  1  0  0  0  0
  7  9  1  0  0  0  0
  9 10  1  0  0  0  0
  9 11  1  0  0  0  0
  9 29  1  0  0  0  0
 11 12  1  0  0  0  0
 11 13  1  0  0  0  0
 11 14  1  0  0  0  0
 14 15  2  0  0  0  0
 14 28  1  0  0  0  0
 15 16  1  0  0  0  0
 15 17  1  0  0  0  0
 17 18  1  0  0  0  0
 17 19  1  0  0  0  0
 19 20  1  0  0  0  0
 19 28  2  0  0  0  0
 20 21  1  0  0  0  0
 20 22  2  0  0  0  0
 22 23  1  0  0  0  0
 22 24  1  0  0  0  0
 24 25  1  0  0  0  0
 24 26  2  0  0  0  0
 26 27  1  0  0  0  0
 26 28  1  0  0  0  0
 29 30  2  0  0  0  0
 29 31  1  0  0  0  0
 31 32  1  0  0  0  0
 31 33  1  0  0  0  0
 33 34  1  0  0  0  0
 33 35  1  0  0  0  0
 33 36  1  0  0  0  0
M  END
$$$$

  -OEChem-03222214083D

 36 37  0     1  0  0  0  0  0999 V2000
   -3.3042   -4.3250    2.0686 H   0  0  0  0  0  0  0  0  0  0  0  0
   -3.2114   -3.9089    1.0614 C   0  0  0  0  0  0  0  0  0  0  0  0
   -4.1265   -3.3612    0.8236 H   0  0  0  0  0  0  0  0  0  0  0  0
   -3.0906   -4.7308    0.3520 H   0  0  0  0  0  0  0  0  0  0  0  0
   -2.0117   -2.9819    0.9908 C   0  0  0  0  0  0  0  0  0  0  0  0
   -1.1539   -3.0394    1.8524 O   0  0  0  0  0  0  0  0  0  0  0  0
   -1.9086   -2.0573   -0.0299 N   0  0  0  0  0  0  0  0  0  0  0  0
   -2.6276   -2.0634   -0.7499 H   0  0  0  0  0  0  0  0  0  0  0  0
   -0.7758   -1.1470   -0.2201 C   0  0  1  0  0  0  0  0  0  0  0  0
    0.1166   -1.7766   -0.3084 H   0  0  0  0  0  0  0  0  0  0  0  0
   -0.8813   -0.3300   -1.5250 C   0  0  0  0  0  0  0  0  0  0  0  0
   -1.4171    0.5914   -1.2732 H   0  0  0  0  0  0  0  0  0  0  0  0
    0.1401   -0.0348   -1.7905 H   0  0  0  0  0  0  0  0  0  0  0  0
   -1.5694   -0.8455   -2.7907 C   0  0  0  0  0  0  0  0  0  0  0  0
   -1.2892   -0.1168   -3.9264 C   0  0  0  0  0  0  0  0  0  0  0  0
   -0.6831    0.7868   -3.9544 H   0  0  0  0  0  0  0  0  0  0  0  0
   -1.9509   -0.6804   -5.0019 N   0  0  0  0  0  0  0  0  0  0  0  0
   -1.9302   -0.3324   -5.9586 H   0  0  0  0  0  0  0  0  0  0  0  0
   -2.5768   -1.8397   -4.6047 C   0  0  0  0  0  0  0  0  0  0  0  0
   -3.2983   -2.7281   -5.4002 C   0  0  0  0  0  0  0  0  0  0  0  0
   -3.4707   -2.5105   -6.4486 H   0  0  0  0  0  0  0  0  0  0  0  0
   -3.7761   -3.9101   -4.8333 C   0  0  0  0  0  0  0  0  0  0  0  0
   -4.3375   -4.6179   -5.4363 H   0  0  0  0  0  0  0  0  0  0  0  0
   -3.4912   -4.1933   -3.4950 C   0  0  0  0  0  0  0  0  0  0  0  0
   -3.8206   -5.1345   -3.0645 H   0  0  0  0  0  0  0  0  0  0  0  0
   -2.7611   -3.2847   -2.7151 C   0  0  0  0  0  0  0  0  0  0  0  0
   -2.5152   -3.6115   -1.7195 H   0  0  0  0  0  0  0  0  0  0  0  0
   -2.3297   -2.0490   -3.2421 C   0  0  0  0  0  0  0  0  0  0  0  0
   -0.5168   -0.1862    0.9608 C   0  0  0  0  0  0  0  0  0  0  0  0
    0.6241    0.1893    1.1969 O   0  0  0  0  0  0  0  0  0  0  0  0
   -1.5756    0.4748    1.5585 N   0  0  0  0  0  0  0  0  0  0  0  0
   -2.4968    0.0821    1.3933 H   0  0  0  0  0  0  0  0  0  0  0  0
   -1.3985    1.4031    2.6677 C   0  0  0  0  0  0  0  0  0  0  0  0
   -0.7389    2.2280    2.3783 H   0  0  0  0  0  0  0  0  0  0  0  0
   -2.3631    1.8240    2.9669 H   0  0  0  0  0  0  0  0  0  0  0  0
   -0.9607    0.8877    3.5290 H   0  0  0  0  0  0  0  0  0  0  0  0
  1  2  1  0  0  0  0
  2  3  1  0  0  0  0
  2  4  1  0  0  0  0
  2  5  1  0  0  0  0
  5  6  2  0  0  0  0
  5  7  1  0  0  0  0
  7  8  1  0  0  0  0
  7  9  1  0  0  0  0
  9 10  1  0  0  0  0
  9 11  1  0  0  0  0
  9 29  1  0  0  0  0
 11 12  1  0  0  0  0
 11 13  1  0  0  0  0
 11 14  1  0  0  0  0
 14 15  2  0  0  0  0
 14 28  1  0  0  0  0
 15 16  1  0  0  0  0
 15 17  1  0  0  0  0
 17 18  1  0  0  0  0
 17 19  1  0  0  0  0
 19 20  1  0  0  0  0
 19 28  2  0  0  0  0
 20 21  1  0  0  0  0
 20 22  2  0  0  0  0
 22 23  1  0  0  0  0
 22 24  1  0  0  0  0
 24 25  1  0  0  0  0
 24 26  2  0  0  0  0
 26 27  1  0  0  0  0
 26 28  1  0  0  0  0
 29 30  2  0  0  0  0
 29 31  1  0  0  0  0
 31 32  1  0  0  0  0
 31 33  1  0  0  0  0
 33 34  1  0  0  0  0
 33 35  1  0  0  0  0
 33 36  1  0  0  0  0
M  END
$$$$

  -OEChem-03222214083D

 36 37  0     1  0  0  0  0  0999 V2000
   -2.3975   -5.0525    1.5504 H   0  0  0  0  0  0  0  0  0  0  0  0
   -2.5620   -4.3692    0.7124 C   0  0  0  0  0  0  0  0  0  0  0  0
   -3.6156   -4.0808    0.6938 H   0  0  0  0  0  0  0  0  0  0  0  0
   -2.3170   -4.8893   -0.2170 H   0  0  0  0  0  0  0  0  0  0  0  0
   -1.6908   -3.1367    0.8643 C   0  0  0  0  0  0  0  0  0  0  0  0
   -1.0322   -2.9774    1.8758 O   0  0  0  0  0  0  0  0  0  0  0  0
   -1.6676   -2.1965   -0.1450 N   0  0  0  0  0  0  0  0  0  0  0  0
   -2.0780   -2.5027   -1.0248 H   0  0  0  0  0  0  0  0  0  0  0  0
   -0.6577   -1.1394   -0.2625 C   0  0  1  0  0  0  0  0  0  0  0  0
    0.3114   -1.6489   -0.2987 H   0  0  0  0  0  0  0  0  0  0  0  0
   -0.7710   -0.3036   -1.5626 C   0  0  0  0  0  0  0  0  0  0  0  0
   -1.4381    0.5399   -1.3551 H   0  0  0  0  0  0  0  0  0  0  0  0
    0.2156    0.1203   -1.7793 H   0  0  0  0  0  0  0  0  0  0  0  0
   -1.3256   -0.9653   -2.8173 C   0  0  0  0  0  0  0  0  0  0  0  0
   -0.8744   -0.5379   -4.0461 C   0  0  0  0  0  0  0  0  0  0  0  0
   -0.0420    0.1455   -4.2024 H   0  0  0  0  0  0  0  0  0  0  0  0
   -1.6089   -1.1690   -5.0388 N   0  0  0  0  0  0  0  0  0  0  0  0
   -1.4648   -1.0581   -6.0409 H   0  0  0  0  0  0  0  0  0  0  0  0
   -2.6589   -1.8592   -4.4737 C   0  0  0  0  0  0  0  0  0  0  0  0
   -3.7000   -2.5406   -5.1021 C   0  0  0  0  0  0  0  0  0  0  0  0
   -3.7078   -2.6557   -6.1806 H   0  0  0  0  0  0  0  0  0  0  0  0
   -4.7483   -3.0430   -4.3259 C   0  0  0  0  0  0  0  0  0  0  0  0
   -5.5712   -3.5730   -4.7971 H   0  0  0  0  0  0  0  0  0  0  0  0
   -4.7581   -2.8139   -2.9457 C   0  0  0  0  0  0  0  0  0  0  0  0
   -5.6018   -3.1529   -2.3516 H   0  0  0  0  0  0  0  0  0  0  0  0
   -3.7014   -2.1244   -2.3343 C   0  0  0  0  0  0  0  0  0  0  0  0
   -3.7957   -1.8970   -1.2799 H   0  0  0  0  0  0  0  0  0  0  0  0
   -2.5899   -1.6984   -3.0889 C   0  0  0  0  0  0  0  0  0  0  0  0
   -0.5872   -0.1660    0.9353 C   0  0  0  0  0  0  0  0  0  0  0  0
    0.4828    0.3554    1.2235 O   0  0  0  0  0  0  0  0  0  0  0  0
   -1.7511    0.3452    1.4813 N   0  0  0  0  0  0  0  0  0  0  0  0
   -2.5965   -0.1821    1.2891 H   0  0  0  0  0  0  0  0  0  0  0  0
   -1.7528    1.2888    2.5917 C   0  0  0  0  0  0  0  0  0  0  0  0
   -1.2200    2.2056    2.3178 H   0  0  0  0  0  0  0  0  0  0  0  0
   -2.7796    1.5553    2.8592 H   0  0  0  0  0  0  0  0  0  0  0  0
   -1.2677    0.8475    3.4687 H   0  0  0  0  0  0  0  0  0  0  0  0
  1  2  1  0  0  0  0
  2  3  1  0  0  0  0
  2  4  1  0  0  0  0
  2  5  1  0  0  0  0
  5  6  2  0  0  0  0
  5  7  1  0  0  0  0
  7  8  1  0  0  0  0
  7  9  1  0  0  0  0
  9 10  1  0  0  0  0
  9 11  1  0  0  0  0
  9 29  1  0  0  0  0
 11 12  1  0  0  0  0
 11 13  1  0  0  0  0
 11 14  1  0  0  0  0
 14 15  2  0  0  0  0
 14 28  1  0  0  0  0
 15 16  1  0  0  0  0
 15 17  1  0  0  0  0
 17 18  1  0  0  0  0
 17 19  1  0  0  0  0
 19 20  1  0  0  0  0
 19 28  2  0  0  0  0
 20 21  1  0  0  0  0
 20 22  2  0  0  0  0
 22 23  1  0  0  0  0
 22 24  1  0  0  0  0
 24 25  1  0  0  0  0
 24 26  2  0  0  0  0
 26 27  1  0  0  0  0
 26 28  1  0  0  0  0
 29 30  2  0  0  0  0
 29 31  1  0  0  0  0
 31 32  1  0  0  0  0
 31 33  1  0  0  0  0
 33 34  1  0  0  0  0
 33 35  1  0  0  0  0
 33 36  1  0  0  0  0
M  END
$$$$

  -OEChem-03222214083D

 36 37  0     1  0  0  0  0  0999 V2000
   -2.5857   -5.0721    1.3004 H   0  0  0  0  0  0  0  0  0  0  0  0
   -2.7375   -4.3295    0.5119 C   0  0  0  0  0  0  0  0  0  0  0  0
   -3.7750   -3.9888    0.5425 H   0  0  0  0  0  0  0  0  0  0  0  0
   -2.5449   -4.8010   -0.4550 H   0  0  0  0  0  0  0  0  0  0  0  0
   -1.7999   -3.1542    0.7130 C   0  0  0  0  0  0  0  0  0  0  0  0
   -1.1181   -3.0837    1.7193 O   0  0  0  0  0  0  0  0  0  0  0  0
   -1.7385   -2.1639   -0.2447 N   0  0  0  0  0  0  0  0  0  0  0  0
   -2.2085   -2.3754   -1.1237 H   0  0  0  0  0  0  0  0  0  0  0  0
   -0.6880   -1.1360   -0.3105 C   0  0  1  0  0  0  0  0  0  0  0  0
    0.2629   -1.6761   -0.3751 H   0  0  0  0  0  0  0  0  0  0  0  0
   -0.7832   -0.2427   -1.5726 C   0  0  0  0  0  0  0  0  0  0  0  0
   -1.4231    0.6148   -1.3383 H   0  0  0  0  0  0  0  0  0  0  0  0
    0.2130    0.1542   -1.7946 H   0  0  0  0  0  0  0  0  0  0  0  0
   -1.3698   -0.8885   -2.8142 C   0  0  0  0  0  0  0  0  0  0  0  0
   -0.7897   -0.7460   -4.0533 C   0  0  0  0  0  0  0  0  0  0  0  0
    0.1768   -0.2832   -4.2440 H   0  0  0  0  0  0  0  0  0  0  0  0
   -1.6294   -1.3226   -4.9991 N   0  0  0  0  0  0  0  0  0  0  0  0
   -1.4410   -1.3761   -5.9987 H   0  0  0  0  0  0  0  0  0  0  0  0
   -2.8169   -1.7068   -4.4074 C   0  0  0  0  0  0  0  0  0  0  0  0
   -3.9740   -2.2451   -4.9689 C   0  0  0  0  0  0  0  0  0  0  0  0
   -4.0093   -2.4833   -6.0264 H   0  0  0  0  0  0  0  0  0  0  0  0
   -5.0944   -2.4501   -4.1552 C   0  0  0  0  0  0  0  0  0  0  0  0
   -6.0048   -2.8650   -4.5786 H   0  0  0  0  0  0  0  0  0  0  0  0
   -5.0514   -2.0847   -2.8031 C   0  0  0  0  0  0  0  0  0  0  0  0
   -5.9350   -2.2073   -2.1833 H   0  0  0  0  0  0  0  0  0  0  0  0
   -3.8804   -1.5433   -2.2547 C   0  0  0  0  0  0  0  0  0  0  0  0
   -3.8837   -1.2176   -1.2200 H   0  0  0  0  0  0  0  0  0  0  0  0
   -2.7319   -1.4014   -3.0513 C   0  0  0  0  0  0  0  0  0  0  0  0
   -0.5803   -0.2266    0.9321 C   0  0  0  0  0  0  0  0  0  0  0  0
    0.5085    0.2385    1.2446 O   0  0  0  0  0  0  0  0  0  0  0  0
   -1.7239    0.2994    1.5057 N   0  0  0  0  0  0  0  0  0  0  0  0
   -2.5882   -0.1869    1.2917 H   0  0  0  0  0  0  0  0  0  0  0  0
   -1.6881    1.1851    2.6622 C   0  0  0  0  0  0  0  0  0  0  0  0
   -1.1071    2.0859    2.4383 H   0  0  0  0  0  0  0  0  0  0  0  0
   -2.7023    1.4903    2.9367 H   0  0  0  0  0  0  0  0  0  0  0  0
   -1.2333    0.6764    3.5187 H   0  0  0  0  0  0  0  0  0  0  0  0
  1  2  1  0  0  0  0
  2  3  1  0  0  0  0
  2  4  1  0  0  0  0
  2  5  1  0  0  0  0
  5  6  2  0  0  0  0
  5  7  1  0  0  0  0
  7  8  1  0  0  0  0
  7  9  1  0  0  0  0
  9 10  1  0  0  0  0
  9 11  1  0  0  0  0
  9 29  1  0  0  0  0
 11 12  1  0  0  0  0
 11 13  1  0  0  0  0
 11 14  1  0  0  0  0
 14 15  2  0  0  0  0
 14 28  1  0  0  0  0
 15 16  1  0  0  0  0
 15 17  1  0  0  0  0
 17 18  1  0  0  0  0
 17 19  1  0  0  0  0
 19 20  1  0  0  0  0
 19 28  2  0  0  0  0
 20 21  1  0  0  0  0
 20 22  2  0  0  0  0
 22 23  1  0  0  0  0
 22 24  1  0  0  0  0
 24 25  1  0  0  0  0
 24 26  2  0  0  0  0
 26 27  1  0  0  0  0
 26 28  1  0  0  0  0
 29 30  2  0  0  0  0
 29 31  1  0  0  0  0
 31 32  1  0  0  0  0
 31 33  1  0  0  0  0
 33 34  1  0  0  0  0
 33 35  1  0  0  0  0
 33 36  1  0  0  0  0
M  END
$$$$

  -OEChem-03222214083D

 36 37  0     1  0  0  0  0  0999 V2000
   -2.8870   -4.9729    1.1153 H   0  0  0  0  0  0  0  0  0  0  0  0
   -2.9628   -4.2092    0.3360 C   0  0  0  0  0  0  0  0  0  0  0  0
   -3.9703   -3.7869    0.3522 H   0  0  0  0  0  0  0  0  0  0  0  0
   -2.7885   -4.6791   -0.6351 H   0  0  0  0  0  0  0  0  0  0  0  0
   -1.9384   -3.1163    0.5741 C   0  0  0  0  0  0  0  0  0  0  0  0
   -1.2426   -3.1384    1.5734 O   0  0  0  0  0  0  0  0  0  0  0  0
   -1.8157   -2.0904   -0.3385 N   0  0  0  0  0  0  0  0  0  0  0  0
   -2.3197   -2.2145   -1.2159 H   0  0  0  0  0  0  0  0  0  0  0  0
   -0.7143   -1.1112   -0.3532 C   0  0  1  0  0  0  0  0  0  0  0  0
    0.2111   -1.6909   -0.4379 H   0  0  0  0  0  0  0  0  0  0  0  0
   -0.7754   -0.1723   -1.5822 C   0  0  0  0  0  0  0  0  0  0  0  0
   -1.3708    0.7112   -1.3283 H   0  0  0  0  0  0  0  0  0  0  0  0
    0.2376    0.1777   -1.8066 H   0  0  0  0  0  0  0  0  0  0  0  0
   -1.3941   -0.7888   -2.8188 C   0  0  0  0  0  0  0  0  0  0  0  0
   -0.7398   -0.9399   -4.0177 C   0  0  0  0  0  0  0  0  0  0  0  0
    0.3082   -0.7074   -4.1974 H   0  0  0  0  0  0  0  0  0  0  0  0
   -1.6476   -1.4548   -4.9391 N   0  0  0  0  0  0  0  0  0  0  0  0
   -1.4383   -1.6700   -5.9125 H   0  0  0  0  0  0  0  0  0  0  0  0
   -2.9059   -1.5533   -4.3716 C   0  0  0  0  0  0  0  0  0  0  0  0
   -4.1285   -1.9604   -4.9051 C   0  0  0  0  0  0  0  0  0  0  0  0
   -4.1899   -2.3066   -5.9313 H   0  0  0  0  0  0  0  0  0  0  0  0
   -5.2766   -1.9013   -4.1039 C   0  0  0  0  0  0  0  0  0  0  0  0
   -6.2364   -2.2100   -4.5080 H   0  0  0  0  0  0  0  0  0  0  0  0
   -5.1910   -1.4221   -2.7884 C   0  0  0  0  0  0  0  0  0  0  0  0
   -6.0872   -1.3554   -2.1784 H   0  0  0  0  0  0  0  0  0  0  0  0
   -3.9560   -1.0159   -2.2642 C   0  0  0  0  0  0  0  0  0  0  0  0
   -3.8981   -0.6198   -1.2554 H   0  0  0  0  0  0  0  0  0  0  0  0
   -2.8038   -1.1124   -3.0564 C   0  0  0  0  0  0  0  0  0  0  0  0
   -0.5748   -0.2603    0.9266 C   0  0  0  0  0  0  0  0  0  0  0  0
    0.5318    0.1397    1.2659 O   0  0  0  0  0  0  0  0  0  0  0  0
   -1.6988    0.2955    1.5111 N   0  0  0  0  0  0  0  0  0  0  0  0
   -2.5805   -0.1488    1.2767 H   0  0  0  0  0  0  0  0  0  0  0  0
   -1.6321    1.1234    2.7083 C   0  0  0  0  0  0  0  0  0  0  0  0
   -1.0034    2.0027    2.5330 H   0  0  0  0  0  0  0  0  0  0  0  0
   -2.6329    1.4672    2.9857 H   0  0  0  0  0  0  0  0  0  0  0  0
   -1.2148    0.5523    3.5443 H   0  0  0  0  0  0  0  0  0  0  0  0
  1  2  1  0  0  0  0
  2  3  1  0  0  0  0
  2  4  1  0  0  0  0
  2  5  1  0  0  0  0
  5  6  2  0  0  0  0
  5  7  1  0  0  0  0
  7  8  1  0  0  0  0
  7  9  1  0  0  0  0
  9 10  1  0  0  0  0
  9 11  1  0  0  0  0
  9 29  1  0  0  0  0
 11 12  1  0  0  0  0
 11 13  1  0  0  0  0
 11 14  1  0  0  0  0
 14 15  2  0  0  0  0
 14 28  1  0  0  0  0
 15 16  1  0  0  0  0
 15 17  1  0  0  0  0
 17 18  1  0  0  0  0
 17 19  1  0  0  0  0
 19 20  1  0  0  0  0
 19 28  2  0  0  0  0
 20 21  1  0  0  0  0
 20 22  2  0  0  0  0
 22 23  1  0  0  0  0
 22 24  1  0  0  0  0
 24 25  1  0  0  0  0
 24 26  2  0  0  0  0
 26 27  1  0  0  0  0
 26 28  1  0  0  0  0
 29 30  2  0  0  0  0
 29 31  1  0  0  0  0
 31 32  1  0  0  0  0
 31 33  1  0  0  0  0
 33 34  1  0  0  0  0
 33 35  1  0  0  0  0
 33 36  1  0  0  0  0
M  END
$$$$

  -OEChem-03222214083D

 36 37  0     1  0  0  0  0  0999 V2000
   -3.1525   -4.8530    0.9347 H   0  0  0  0  0  0  0  0  0  0  0  0
   -3.1598   -4.0711    0.1700 C   0  0  0  0  0  0  0  0  0  0  0  0
   -4.1357   -3.5801    0.1765 H   0  0  0  0  0  0  0  0  0  0  0  0
   -2.9996   -4.5335   -0.8071 H   0  0  0  0  0  0  0  0  0  0  0  0
   -2.0670   -3.0565    0.4488 C   0  0  0  0  0  0  0  0  0  0  0  0
   -1.3776   -3.1589    1.4475 O   0  0  0  0  0  0  0  0  0  0  0  0
   -1.8737   -2.0095   -0.4260 N   0  0  0  0  0  0  0  0  0  0  0  0
   -2.3934   -2.0542   -1.3024 H   0  0  0  0  0  0  0  0  0  0  0  0
   -0.7259   -1.0831   -0.3886 C   0  0  1  0  0  0  0  0  0  0  0  0
    0.1755   -1.6983   -0.4803 H   0  0  0  0  0  0  0  0  0  0  0  0
   -0.7434   -0.1098   -1.5899 C   0  0  0  0  0  0  0  0  0  0  0  0
   -1.2967    0.7967   -1.3232 H   0  0  0  0  0  0  0  0  0  0  0  0
    0.2855    0.1946   -1.8087 H   0  0  0  0  0  0  0  0  0  0  0  0
   -1.3814   -0.6928   -2.8303 C   0  0  0  0  0  0  0  0  0  0  0  0
   -0.7081   -1.1299   -3.9446 C   0  0  0  0  0  0  0  0  0  0  0  0
    0.3730   -1.1303   -4.0701 H   0  0  0  0  0  0  0  0  0  0  0  0
   -1.6568   -1.5761   -4.8623 N   0  0  0  0  0  0  0  0  0  0  0  0
   -1.4482   -1.9491   -5.7870 H   0  0  0  0  0  0  0  0  0  0  0  0
   -2.9367   -1.3979   -4.3628 C   0  0  0  0  0  0  0  0  0  0  0  0
   -4.1936   -1.6714   -4.9023 C   0  0  0  0  0  0  0  0  0  0  0  0
   -4.2813   -2.1126   -5.8893 H   0  0  0  0  0  0  0  0  0  0  0  0
   -5.3395   -1.3633   -4.1553 C   0  0  0  0  0  0  0  0  0  0  0  0
   -6.3245   -1.5682   -4.5646 H   0  0  0  0  0  0  0  0  0  0  0  0
   -5.2164   -0.7805   -2.8847 C   0  0  0  0  0  0  0  0  0  0  0  0
   -6.1070   -0.5333   -2.3145 H   0  0  0  0  0  0  0  0  0  0  0  0
   -3.9483   -0.5074   -2.3536 C   0  0  0  0  0  0  0  0  0  0  0  0
   -3.8491   -0.0446   -1.3767 H   0  0  0  0  0  0  0  0  0  0  0  0
   -2.8098   -0.8320   -3.0998 C   0  0  0  0  0  0  0  0  0  0  0  0
   -0.5722   -0.2791    0.9193 C   0  0  0  0  0  0  0  0  0  0  0  0
    0.5450    0.0514    1.2959 O   0  0  0  0  0  0  0  0  0  0  0  0
   -1.6802    0.3123    1.4996 N   0  0  0  0  0  0  0  0  0  0  0  0
   -2.5779   -0.0759    1.2289 H   0  0  0  0  0  0  0  0  0  0  0  0
   -1.6002    1.0935    2.7273 C   0  0  0  0  0  0  0  0  0  0  0  0
   -0.9327    1.9517    2.5945 H   0  0  0  0  0  0  0  0  0  0  0  0
   -2.5909    1.4684    3.0014 H   0  0  0  0  0  0  0  0  0  0  0  0
   -1.2215    0.4761    3.5488 H   0  0  0  0  0  0  0  0  0  0  0  0
  1  2  1  0  0  0  0
  2  3  1  0  0  0  0
  2  4  1  0  0  0  0
  2  5  1  0  0  0  0
  5  6  2  0  0  0  0
  5  7  1  0  0  0  0
  7  8  1  0  0  0  0
  7  9  1  0  0  0  0
  9 10  1  0  0  0  0
  9 11  1  0  0  0  0
  9 29  1  0  0  0  0
 11 12  1  0  0  0  0
 11 13  1  0  0  0  0
 11 14  1  0  0  0  0
 14 15  2  0  0  0  0
 14 28  1  0  0  0  0
 15 16  1  0  0  0  0
 15 17  1  0  0  0  0
 17 18  1  0  0  0  0
 17 19  1  0  0  0  0
 19 20  1  0  0  0  0
 19 28  2  0  0  0  0
 20 21  1  0  0  0  0
 20 22  2  0  0  0  0
 22 23  1  0  0  0  0
 22 24  1  0  0  0  0
 24 25  1  0  0  0  0
 24 26  2  0  0  0  0
 26 27  1  0  0  0  0
 26 28  1  0  0  0  0
 29 30  2  0  0  0  0
 29 31  1  0  0  0  0
 31 32  1  0  0  0  0
 31 33  1  0  0  0  0
 33 34  1  0  0  0  0
 33 35  1  0  0  0  0
 33 36  1  0  0  0  0
M  END
$$$$

  -OEChem-03222214083D

 36 37  0     1  0  0  0  0  0999 V2000
   -3.3100   -4.7600    0.7605 H   0  0  0  0  0  0  0  0  0  0  0  0
   -3.2940   -3.9410    0.0359 C   0  0  0  0  0  0  0  0  0  0  0  0
   -4.2454   -3.4061    0.0853 H   0  0  0  0  0  0  0  0  0  0  0  0
   -3.1719   -4.3602   -0.9657 H   0  0  0  0  0  0  0  0  0  0  0  0
   -2.1510   -2.9933    0.3442 C   0  0  0  0  0  0  0  0  0  0  0  0
   -1.4692   -3.1605    1.3393 O   0  0  0  0  0  0  0  0  0  0  0  0
   -1.8990   -1.9350   -0.5013 N   0  0  0  0  0  0  0  0  0  0  0  0
   -2.4256   -1.9154   -1.3744 H   0  0  0  0  0  0  0  0  0  0  0  0
   -0.7186   -1.0521   -0.4198 C   0  0  1  0  0  0  0  0  0  0  0  0
    0.1638   -1.6947   -0.5096 H   0  0  0  0  0  0  0  0  0  0  0  0
   -0.6935   -0.0568   -1.6013 C   0  0  0  0  0  0  0  0  0  0  0  0
   -1.2144    0.8666   -1.3282 H   0  0  0  0  0  0  0  0  0  0  0  0
    0.3468    0.2110   -1.8128 H   0  0  0  0  0  0  0  0  0  0  0  0
   -1.3397   -0.6198   -2.8456 C   0  0  0  0  0  0  0  0  0  0  0  0
   -0.7044   -1.3293   -3.8353 C   0  0  0  0  0  0  0  0  0  0  0  0
    0.3604   -1.5526   -3.8703 H   0  0  0  0  0  0  0  0  0  0  0  0
   -1.6733   -1.7200   -4.7576 N   0  0  0  0  0  0  0  0  0  0  0  0
   -1.4935   -2.2509   -5.6083 H   0  0  0  0  0  0  0  0  0  0  0  0
   -2.9240   -1.2658   -4.3711 C   0  0  0  0  0  0  0  0  0  0  0  0
   -4.1861   -1.4062   -4.9476 C   0  0  0  0  0  0  0  0  0  0  0  0
   -4.3055   -1.9552   -5.8755 H   0  0  0  0  0  0  0  0  0  0  0  0
   -5.2949   -0.8280   -4.3133 C   0  0  0  0  0  0  0  0  0  0  0  0
   -6.2829   -0.9272   -4.7533 H   0  0  0  0  0  0  0  0  0  0  0  0
   -5.1298   -0.1171   -3.1143 C   0  0  0  0  0  0  0  0  0  0  0  0
   -5.9909    0.3344   -2.6302 H   0  0  0  0  0  0  0  0  0  0  0  0
   -3.8563    0.0177   -2.5437 C   0  0  0  0  0  0  0  0  0  0  0  0
   -3.7229    0.5720   -1.6200 H   0  0  0  0  0  0  0  0  0  0  0  0
   -2.7571   -0.5653   -3.1827 C   0  0  0  0  0  0  0  0  0  0  0  0
   -0.5672   -0.2849    0.9096 C   0  0  0  0  0  0  0  0  0  0  0  0
    0.5510   -0.0085    1.3245 O   0  0  0  0  0  0  0  0  0  0  0  0
   -1.6689    0.3311    1.4762 N   0  0  0  0  0  0  0  0  0  0  0  0
   -2.5713   -0.0168    1.1683 H   0  0  0  0  0  0  0  0  0  0  0  0
   -1.5973    1.0689    2.7309 C   0  0  0  0  0  0  0  0  0  0  0  0
   -0.8715    1.8855    2.6568 H   0  0  0  0  0  0  0  0  0  0  0  0
   -2.5737    1.4993    2.9722 H   0  0  0  0  0  0  0  0  0  0  0  0
   -1.2979    0.4038    3.5477 H   0  0  0  0  0  0  0  0  0  0  0  0
  1  2  1  0  0  0  0
  2  3  1  0  0  0  0
  2  4  1  0  0  0  0
  2  5  1  0  0  0  0
  5  6  2  0  0  0  0
  5  7  1  0  0  0  0
  7  8  1  0  0  0  0
  7  9  1  0  0  0  0
  9 10  1  0  0  0  0
  9 11  1  0  0  0  0
  9 29  1  0  0  0  0
 11 12  1  0  0  0  0
 11 13  1  0  0  0  0
 11 14  1  0  0  0  0
 14 15  2  0  0  0  0
 14 28  1  0  0  0  0
 15 16  1  0  0  0  0
 15 17  1  0  0  0  0
 17 18  1  0  0  0  0
 17 19  1  0  0  0  0
 19 20  1  0  0  0  0
 19 28  2  0  0  0  0
 20 21  1  0  0  0  0
 20 22  2  0  0  0  0
 22 23  1  0  0  0  0
 22 24  1  0  0  0  0
 24 25  1  0  0  0  0
 24 26  2  0  0  0  0
 26 27  1  0  0  0  0
 26 28  1  0  0  0  0
 29 30  2  0  0  0  0
 29 31  1  0  0  0  0
 31 32  1  0  0  0  0
 31 33  1  0  0  0  0
 33 34  1  0  0  0  0
 33 35  1  0  0  0  0
 33 36  1  0  0  0  0
M  END
$$$$

  -OEChem-03222214083D

 36 37  0     1  0  0  0  0  0999 V2000
   -3.3645   -4.7201    0.7287 H   0  0  0  0  0  0  0  0  0  0  0  0
   -3.3343   -3.8995    0.0062 C   0  0  0  0  0  0  0  0  0  0  0  0
   -4.2752   -3.3469    0.0598 H   0  0  0  0  0  0  0  0  0  0  0  0
   -3.2221   -4.3175   -0.9968 H   0  0  0  0  0  0  0  0  0  0  0  0
   -2.1725   -2.9753    0.3157 C   0  0  0  0  0  0  0  0  0  0  0  0
   -1.4843   -3.1681    1.3018 O   0  0  0  0  0  0  0  0  0  0  0  0
   -1.9028   -1.9148   -0.5219 N   0  0  0  0  0  0  0  0  0  0  0  0
   -2.4382   -1.8671   -1.3885 H   0  0  0  0  0  0  0  0  0  0  0  0
   -0.7117   -1.0468   -0.4266 C   0  0  1  0  0  0  0  0  0  0  0  0
    0.1647   -1.6977   -0.5163 H   0  0  0  0  0  0  0  0  0  0  0  0
   -0.6739   -0.0462   -1.6020 C   0  0  0  0  0  0  0  0  0  0  0  0
   -1.1856    0.8800   -1.3227 H   0  0  0  0  0  0  0  0  0  0  0  0
    0.3683    0.2143   -1.8144 H   0  0  0  0  0  0  0  0  0  0  0  0
   -1.3227   -0.6018   -2.8474 C   0  0  0  0  0  0  0  0  0  0  0  0
   -0.7766   -1.5454   -3.6834 C   0  0  0  0  0  0  0  0  0  0  0  0
    0.2180   -1.9767   -3.5864 H   0  0  0  0  0  0  0  0  0  0  0  0
   -1.7321   -1.8524   -4.6493 N   0  0  0  0  0  0  0  0  0  0  0  0
   -1.5984   -2.5036   -5.4213 H   0  0  0  0  0  0  0  0  0  0  0  0
   -2.8900   -1.1219   -4.4354 C   0  0  0  0  0  0  0  0  0  0  0  0
   -4.1065   -1.0875   -5.1170 C   0  0  0  0  0  0  0  0  0  0  0  0
   -4.2617   -1.7089   -5.9924 H   0  0  0  0  0  0  0  0  0  0  0  0
   -5.1234   -0.2393   -4.6563 C   0  0  0  0  0  0  0  0  0  0  0  0
   -6.0750   -0.1998   -5.1786 H   0  0  0  0  0  0  0  0  0  0  0  0
   -4.9123    0.5622   -3.5237 C   0  0  0  0  0  0  0  0  0  0  0  0
   -5.7010    1.2209   -3.1724 H   0  0  0  0  0  0  0  0  0  0  0  0
   -3.6844    0.5211   -2.8477 C   0  0  0  0  0  0  0  0  0  0  0  0
   -3.5168    1.1449   -1.9754 H   0  0  0  0  0  0  0  0  0  0  0  0
   -2.6753   -0.3272   -3.3152 C   0  0  0  0  0  0  0  0  0  0  0  0
   -0.5597   -0.2899    0.9087 C   0  0  0  0  0  0  0  0  0  0  0  0
    0.5591   -0.0306    1.3327 O   0  0  0  0  0  0  0  0  0  0  0  0
   -1.6568    0.3367    1.4728 N   0  0  0  0  0  0  0  0  0  0  0  0
   -2.5631    0.0107    1.1524 H   0  0  0  0  0  0  0  0  0  0  0  0
   -1.5836    1.0720    2.7287 C   0  0  0  0  0  0  0  0  0  0  0  0
   -0.8543    1.8853    2.6563 H   0  0  0  0  0  0  0  0  0  0  0  0
   -2.5584    1.5063    2.9698 H   0  0  0  0  0  0  0  0  0  0  0  0
   -1.2879    0.4046    3.5450 H   0  0  0  0  0  0  0  0  0  0  0  0
  1  2  1  0  0  0  0
  2  3  1  0  0  0  0
  2  4  1  0  0  0  0
  2  5  1  0  0  0  0
  5  6  2  0  0  0  0
  5  7  1  0  0  0  0
  7  8  1  0  0  0  0
  7  9  1  0  0  0  0
  9 10  1  0  0  0  0
  9 11  1  0  0  0  0
  9 29  1  0  0  0  0
 11 12  1  0  0  0  0
 11 13  1  0  0  0  0
 11 14  1  0  0  0  0
 14 15  2  0  0  0  0
 14 28  1  0  0  0  0
 15 16  1  0  0  0  0
 15 17  1  0  0  0  0
 17 18  1  0  0  0  0
 17 19  1  0  0  0  0
 19 20  1  0  0  0  0
 19 28  2  0  0  0  0
 20 21  1  0  0  0  0
 20 22  2  0  0  0  0
 22 23  1  0  0  0  0
 22 24  1  0  0  0  0
 24 25  1  0  0  0  0
 24 26  2  0  0  0  0
 26 27  1  0  0  0  0
 26 28  1  0  0  0  0
 29 30  2  0  0  0  0
 29 31  1  0  0  0  0
 31 32  1  0  0  0  0
 31 33  1  0  0  0  0
 33 34  1  0  0  0  0
 33 35  1  0  0  0  0
 33 36  1  0  0  0  0
M  END
$$$$

  -OEChem-03222214083D

 36 37  0     1  0  0  0  0  0999 V2000
   -3.3645   -4.7206    0.7580 H   0  0  0  0  0  0  0  0  0  0  0  0
   -3.3368   -3.9016    0.0336 C   0  0  0  0  0  0  0  0  0  0  0  0
   -4.2724   -3.3411    0.0990 H   0  0  0  0  0  0  0  0  0  0  0  0
   -3.2414   -4.3231   -0.9698 H   0  0  0  0  0  0  0  0  0  0  0  0
   -2.1631   -2.9864    0.3259 C   0  0  0  0  0  0  0  0  0  0  0  0
   -1.4559   -3.1910    1.2959 O   0  0  0  0  0  0  0  0  0  0  0  0
   -1.8994   -1.9249   -0.5129 N   0  0  0  0  0  0  0  0  0  0  0  0
   -2.4555   -1.8611   -1.3649 H   0  0  0  0  0  0  0  0  0  0  0  0
   -0.7111   -1.0521   -0.4207 C   0  0  1  0  0  0  0  0  0  0  0  0
    0.1670   -1.7005   -0.5115 H   0  0  0  0  0  0  0  0  0  0  0  0
   -0.6805   -0.0544   -1.5989 C   0  0  0  0  0  0  0  0  0  0  0  0
   -1.2031    0.8628   -1.3111 H   0  0  0  0  0  0  0  0  0  0  0  0
    0.3574    0.2213   -1.8119 H   0  0  0  0  0  0  0  0  0  0  0  0
   -1.3264   -0.6051   -2.8498 C   0  0  0  0  0  0  0  0  0  0  0  0
   -0.9247   -1.7329   -3.5264 C   0  0  0  0  0  0  0  0  0  0  0  0
   -0.0551   -2.3404   -3.2814 H   0  0  0  0  0  0  0  0  0  0  0  0
   -1.8355   -1.9524   -4.5564 N   0  0  0  0  0  0  0  0  0  0  0  0
   -1.7731   -2.6975   -5.2484 H   0  0  0  0  0  0  0  0  0  0  0  0
   -2.8242   -0.9822   -4.5420 C   0  0  0  0  0  0  0  0  0  0  0  0
   -3.9397   -0.7844   -5.3554 C   0  0  0  0  0  0  0  0  0  0  0  0
   -4.1451   -1.4615   -6.1775 H   0  0  0  0  0  0  0  0  0  0  0  0
   -4.7899    0.2997   -5.0962 C   0  0  0  0  0  0  0  0  0  0  0  0
   -5.6613    0.4673   -5.7226 H   0  0  0  0  0  0  0  0  0  0  0  0
   -4.5154    1.1701   -4.0301 C   0  0  0  0  0  0  0  0  0  0  0  0
   -5.1752    2.0101   -3.8337 H   0  0  0  0  0  0  0  0  0  0  0  0
   -3.3896    0.9626   -3.2204 C   0  0  0  0  0  0  0  0  0  0  0  0
   -3.1747    1.6389   -2.3994 H   0  0  0  0  0  0  0  0  0  0  0  0
   -2.5447   -0.1206   -3.4868 C   0  0  0  0  0  0  0  0  0  0  0  0
   -0.5540   -0.2918    0.9123 C   0  0  0  0  0  0  0  0  0  0  0  0
    0.5667   -0.0372    1.3339 O   0  0  0  0  0  0  0  0  0  0  0  0
   -1.6477    0.3347    1.4827 N   0  0  0  0  0  0  0  0  0  0  0  0
   -2.5575    0.0273    1.1536 H   0  0  0  0  0  0  0  0  0  0  0  0
   -1.5679    1.0768    2.7344 C   0  0  0  0  0  0  0  0  0  0  0  0
   -0.8378    1.8892    2.6544 H   0  0  0  0  0  0  0  0  0  0  0  0
   -2.5413    1.5132    2.9778 H   0  0  0  0  0  0  0  0  0  0  0  0
   -1.2690    0.4134    3.5528 H   0  0  0  0  0  0  0  0  0  0  0  0
  1  2  1  0  0  0  0
  2  3  1  0  0  0  0
  2  4  1  0  0  0  0
  2  5  1  0  0  0  0
  5  6  2  0  0  0  0
  5  7  1  0  0  0  0
  7  8  1  0  0  0  0
  7  9  1  0  0  0  0
  9 10  1  0  0  0  0
  9 11  1  0  0  0  0
  9 29  1  0  0  0  0
 11 12  1  0  0  0  0
 11 13  1  0  0  0  0
 11 14  1  0  0  0  0
 14 15  2  0  0  0  0
 14 28  1  0  0  0  0
 15 16  1  0  0  0  0
 15 17  1  0  0  0  0
 17 18  1  0  0  0  0
 17 19  1  0  0  0  0
 19 20  1  0  0  0  0
 19 28  2  0  0  0  0
 20 21  1  0  0  0  0
 20 22  2  0  0  0  0
 22 23  1  0  0  0  0
 22 24  1  0  0  0  0
 24 25  1  0  0  0  0
 24 26  2  0  0  0  0
 26 27  1  0  0  0  0
 26 28  1  0  0  0  0
 29 30  2  0  0  0  0
 29 31  1  0  0  0  0
 31 32  1  0  0  0  0
 31 33  1  0  0  0  0
 33 34  1  0  0  0  0
 33 35  1  0  0  0  0
 33 36  1  0  0  0  0
M  END
$$$$

  -OEChem-03222214083D

 36 37  0     1  0  0  0  0  0999 V2000
   -3.3345   -4.7310    0.8609 H   0  0  0  0  0  0  0  0  0  0  0  0
   -3.3153   -3.9242    0.1227 C   0  0  0  0  0  0  0  0  0  0  0  0
   -4.2418   -3.3504    0.2037 H   0  0  0  0  0  0  0  0  0  0  0  0
   -3.2526   -4.3630   -0.8761 H   0  0  0  0  0  0  0  0  0  0  0  0
   -2.1223   -3.0197    0.3675 C   0  0  0  0  0  0  0  0  0  0  0  0
   -1.3785   -3.2287    1.3082 O   0  0  0  0  0  0  0  0  0  0  0  0
   -1.8822   -1.9624   -0.4833 N   0  0  0  0  0  0  0  0  0  0  0  0
   -2.4859   -1.8766   -1.2995 H   0  0  0  0  0  0  0  0  0  0  0  0
   -0.7102   -1.0665   -0.4136 C   0  0  1  0  0  0  0  0  0  0  0  0
    0.1804   -1.6982   -0.5044 H   0  0  0  0  0  0  0  0  0  0  0  0
   -0.7059   -0.0833   -1.6054 C   0  0  0  0  0  0  0  0  0  0  0  0
   -1.2541    0.8173   -1.3131 H   0  0  0  0  0  0  0  0  0  0  0  0
    0.3227    0.2228   -1.8212 H   0  0  0  0  0  0  0  0  0  0  0  0
   -1.3439   -0.6322   -2.8647 C   0  0  0  0  0  0  0  0  0  0  0  0
   -1.1397   -1.8832   -3.4025 C   0  0  0  0  0  0  0  0  0  0  0  0
   -0.4451   -2.6284   -3.0184 H   0  0  0  0  0  0  0  0  0  0  0  0
   -1.9794   -2.0143   -4.5046 N   0  0  0  0  0  0  0  0  0  0  0  0
   -2.0143   -2.8203   -5.1267 H   0  0  0  0  0  0  0  0  0  0  0  0
   -2.7260   -0.8613   -4.6809 C   0  0  0  0  0  0  0  0  0  0  0  0
   -3.6886   -0.5180   -5.6301 C   0  0  0  0  0  0  0  0  0  0  0  0
   -3.9617   -1.2187   -6.4115 H   0  0  0  0  0  0  0  0  0  0  0  0
   -4.2965    0.7431   -5.5607 C   0  0  0  0  0  0  0  0  0  0  0  0
   -5.0469    1.0248   -6.2938 H   0  0  0  0  0  0  0  0  0  0  0  0
   -3.9347    1.6434   -4.5472 C   0  0  0  0  0  0  0  0  0  0  0  0
   -4.4057    2.6207   -4.4979 H   0  0  0  0  0  0  0  0  0  0  0  0
   -2.9630    1.2888   -3.6004 C   0  0  0  0  0  0  0  0  0  0  0  0
   -2.6785    1.9882   -2.8210 H   0  0  0  0  0  0  0  0  0  0  0  0
   -2.3607    0.0278   -3.6756 C   0  0  0  0  0  0  0  0  0  0  0  0
   -0.5578   -0.2889    0.9103 C   0  0  0  0  0  0  0  0  0  0  0  0
    0.5603   -0.0113    1.3236 O   0  0  0  0  0  0  0  0  0  0  0  0
   -1.6583    0.3223    1.4843 N   0  0  0  0  0  0  0  0  0  0  0  0
   -2.5664    0.0079    1.1579 H   0  0  0  0  0  0  0  0  0  0  0  0
   -1.5831    1.0870    2.7227 C   0  0  0  0  0  0  0  0  0  0  0  0
   -0.8627    1.9064    2.6264 H   0  0  0  0  0  0  0  0  0  0  0  0
   -2.5608    1.5164    2.9607 H   0  0  0  0  0  0  0  0  0  0  0  0
   -1.2746    0.4416    3.5519 H   0  0  0  0  0  0  0  0  0  0  0  0
  1  2  1  0  0  0  0
  2  3  1  0  0  0  0
  2  4  1  0  0  0  0
  2  5  1  0  0  0  0
  5  6  2  0  0  0  0
  5  7  1  0  0  0  0
  7  8  1  0  0  0  0
  7  9  1  0  0  0  0
  9 10  1  0  0  0  0
  9 11  1  0  0  0  0
  9 29  1  0  0  0  0
 11 12  1  0  0  0  0
 11 13  1  0  0  0  0
 11 14  1  0  0  0  0
 14 15  2  0  0  0  0
 14 28  1  0  0  0  0
 15 16  1  0  0  0  0
 15 17  1  0  0  0  0
 17 18  1  0  0  0  0
 17 19  1  0  0  0  0
 19 20  1  0  0  0  0
 19 28  2  0  0  0  0
 20 21  1  0  0  0  0
 20 22  2  0  0  0  0
 22 23  1  0  0  0  0
 22 24  1  0  0  0  0
 24 25  1  0  0  0  0
 24 26  2  0  0  0  0
 26 27  1  0  0  0  0
 26 28  1  0  0  0  0
 29 30  2  0  0  0  0
 29 31  1  0  0  0  0
 31 32  1  0  0  0  0
 31 33  1  0  0  0  0
 33 34  1  0  0  0  0
 33 35  1  0  0  0  0
 33 36  1  0  0  0  0
M  END
$$$$

  -OEChem-03222214083D

 36 37  0     1  0  0  0  0  0999 V2000
   -3.2506   -4.7520    1.0635 H   0  0  0  0  0  0  0  0  0  0  0  0
   -3.2671   -3.9763    0.2926 C   0  0  0  0  0  0  0  0  0  0  0  0
   -4.1894   -3.3995    0.3943 H   0  0  0  0  0  0  0  0  0  0  0  0
   -3.2509   -4.4556   -0.6891 H   0  0  0  0  0  0  0  0  0  0  0  0
   -2.0645   -3.0649    0.4457 C   0  0  0  0  0  0  0  0  0  0  0  0
   -1.2645   -3.2570    1.3425 O   0  0  0  0  0  0  0  0  0  0  0  0
   -1.8767   -2.0226   -0.4373 N   0  0  0  0  0  0  0  0  0  0  0  0
   -2.5493   -1.9227   -1.1951 H   0  0  0  0  0  0  0  0  0  0  0  0
   -0.7311   -1.0909   -0.4153 C   0  0  1  0  0  0  0  0  0  0  0  0
    0.1739   -1.7022   -0.5028 H   0  0  0  0  0  0  0  0  0  0  0  0
   -0.7564   -0.1341   -1.6301 C   0  0  0  0  0  0  0  0  0  0  0  0
   -1.3310    0.7525   -1.3436 H   0  0  0  0  0  0  0  0  0  0  0  0
    0.2632    0.2008   -1.8473 H   0  0  0  0  0  0  0  0  0  0  0  0
   -1.3812   -0.6833   -2.8994 C   0  0  0  0  0  0  0  0  0  0  0  0
   -1.4170   -1.9911   -3.3339 C   0  0  0  0  0  0  0  0  0  0  0  0
   -0.9367   -2.8340   -2.8398 H   0  0  0  0  0  0  0  0  0  0  0  0
   -2.1575   -2.0332   -4.5114 N   0  0  0  0  0  0  0  0  0  0  0  0
   -2.3121   -2.8622   -5.0828 H   0  0  0  0  0  0  0  0  0  0  0  0
   -2.5994   -0.7647   -4.8460 C   0  0  0  0  0  0  0  0  0  0  0  0
   -3.3612   -0.3023   -5.9190 C   0  0  0  0  0  0  0  0  0  0  0  0
   -3.7155   -0.9920   -6.6771 H   0  0  0  0  0  0  0  0  0  0  0  0
   -3.6610    1.0643   -6.0045 C   0  0  0  0  0  0  0  0  0  0  0  0
   -4.2536    1.4394   -6.8339 H   0  0  0  0  0  0  0  0  0  0  0  0
   -3.1937    1.9495   -5.0210 C   0  0  0  0  0  0  0  0  0  0  0  0
   -3.4244    3.0083   -5.0915 H   0  0  0  0  0  0  0  0  0  0  0  0
   -2.4264    1.4731   -3.9481 C   0  0  0  0  0  0  0  0  0  0  0  0
   -2.0595    2.1582   -3.1908 H   0  0  0  0  0  0  0  0  0  0  0  0
   -2.1347    0.1068   -3.8672 C   0  0  0  0  0  0  0  0  0  0  0  0
   -0.5795   -0.2793    0.8884 C   0  0  0  0  0  0  0  0  0  0  0  0
    0.5355    0.0401    1.2789 O   0  0  0  0  0  0  0  0  0  0  0  0
   -1.6896    0.3091    1.4680 N   0  0  0  0  0  0  0  0  0  0  0  0
   -2.5939   -0.0295    1.1562 H   0  0  0  0  0  0  0  0  0  0  0  0
   -1.6187    1.1161    2.6792 C   0  0  0  0  0  0  0  0  0  0  0  0
   -0.9371    1.9615    2.5380 H   0  0  0  0  0  0  0  0  0  0  0  0
   -2.6084    1.5107    2.9277 H   0  0  0  0  0  0  0  0  0  0  0  0
   -1.2623    0.5123    3.5204 H   0  0  0  0  0  0  0  0  0  0  0  0
  1  2  1  0  0  0  0
  2  3  1  0  0  0  0
  2  4  1  0  0  0  0
  2  5  1  0  0  0  0
  5  6  2  0  0  0  0
  5  7  1  0  0  0  0
  7  8  1  0  0  0  0
  7  9  1  0  0  0  0
  9 10  1  0  0  0  0
  9 11  1  0  0  0  0
  9 29  1  0  0  0  0
 11 12  1  0  0  0  0
 11 13  1  0  0  0  0
 11 14  1  0  0  0  0
 14 15  2  0  0  0  0
 14 28  1  0  0  0  0
 15 16  1  0  0  0  0
 15 17  1  0  0  0  0
 17 18  1  0  0  0  0
 17 19  1  0  0  0  0
 19 20  1  0  0  0  0
 19 28  2  0  0  0  0
 20 21  1  0  0  0  0
 20 22  2  0  0  0  0
 22 23  1  0  0  0  0
 22 24  1  0  0  0  0
 24 25  1  0  0  0  0
 24 26  2  0  0  0  0
 26 27  1  0  0  0  0
 26 28  1  0  0  0  0
 29 30  2  0  0  0  0
 29 31  1  0  0  0  0
 31 32  1  0  0  0  0
 31 33  1  0  0  0  0
 33 34  1  0  0  0  0
 33 35  1  0  0  0  0
 33 36  1  0  0  0  0
M  END
$$$$

  -OEChem-03222214083D

 36 37  0     1  0  0  0  0  0999 V2000
   -3.1701   -4.7536    1.2867 H   0  0  0  0  0  0  0  0  0  0  0  0
   -3.2276   -4.0113    0.4853 C   0  0  0  0  0  0  0  0  0  0  0  0
   -4.1386   -3.4228    0.6166 H   0  0  0  0  0  0  0  0  0  0  0  0
   -3.2723   -4.5332   -0.4737 H   0  0  0  0  0  0  0  0  0  0  0  0
   -2.0122   -3.1047    0.5280 C   0  0  0  0  0  0  0  0  0  0  0  0
   -1.1555   -3.2744    1.3753 O   0  0  0  0  0  0  0  0  0  0  0  0
   -1.8802   -2.0870   -0.3941 N   0  0  0  0  0  0  0  0  0  0  0  0
   -2.6261   -1.9704   -1.0758 H   0  0  0  0  0  0  0  0  0  0  0  0
   -0.7619   -1.1241   -0.4292 C   0  0  1  0  0  0  0  0  0  0  0  0
    0.1554   -1.7172   -0.5132 H   0  0  0  0  0  0  0  0  0  0  0  0
   -0.8127   -0.2021   -1.6705 C   0  0  0  0  0  0  0  0  0  0  0  0
   -1.3986    0.6821   -1.3992 H   0  0  0  0  0  0  0  0  0  0  0  0
    0.2031    0.1428   -1.8899 H   0  0  0  0  0  0  0  0  0  0  0  0
   -1.4249   -0.7515   -2.9479 C   0  0  0  0  0  0  0  0  0  0  0  0
   -1.7186   -2.0490   -3.3132 C   0  0  0  0  0  0  0  0  0  0  0  0
   -1.4775   -2.9415   -2.7400 H   0  0  0  0  0  0  0  0  0  0  0  0
   -2.3391   -2.0189   -4.5589 N   0  0  0  0  0  0  0  0  0  0  0  0
   -2.6255   -2.8348   -5.0970 H   0  0  0  0  0  0  0  0  0  0  0  0
   -2.4486   -0.7149   -5.0091 C   0  0  0  0  0  0  0  0  0  0  0  0
   -2.9812   -0.1789   -6.1816 C   0  0  0  0  0  0  0  0  0  0  0  0
   -3.4138   -0.8290   -6.9341 H   0  0  0  0  0  0  0  0  0  0  0  0
   -2.9472    1.2093   -6.3744 C   0  0  0  0  0  0  0  0  0  0  0  0
   -3.3557    1.6414   -7.2831 H   0  0  0  0  0  0  0  0  0  0  0  0
   -2.3812    2.0412   -5.3965 C   0  0  0  0  0  0  0  0  0  0  0  0
   -2.3514    3.1159   -5.5502 H   0  0  0  0  0  0  0  0  0  0  0  0
   -1.8485    1.4901   -4.2223 C   0  0  0  0  0  0  0  0  0  0  0  0
   -1.4042    2.1315   -3.4680 H   0  0  0  0  0  0  0  0  0  0  0  0
   -1.8886    0.1039   -4.0359 C   0  0  0  0  0  0  0  0  0  0  0  0
   -0.6049   -0.2691    0.8462 C   0  0  0  0  0  0  0  0  0  0  0  0
    0.5081    0.0977    1.1984 O   0  0  0  0  0  0  0  0  0  0  0  0
   -1.7174    0.3060    1.4355 N   0  0  0  0  0  0  0  0  0  0  0  0
   -2.6210   -0.0578    1.1525 H   0  0  0  0  0  0  0  0  0  0  0  0
   -1.6396    1.1630    2.6115 C   0  0  0  0  0  0  0  0  0  0  0  0
   -0.9841    2.0195    2.4209 H   0  0  0  0  0  0  0  0  0  0  0  0
   -2.6331    1.5420    2.8686 H   0  0  0  0  0  0  0  0  0  0  0  0
   -1.2478    0.6029    3.4670 H   0  0  0  0  0  0  0  0  0  0  0  0
  1  2  1  0  0  0  0
  2  3  1  0  0  0  0
  2  4  1  0  0  0  0
  2  5  1  0  0  0  0
  5  6  2  0  0  0  0
  5  7  1  0  0  0  0
  7  8  1  0  0  0  0
  7  9  1  0  0  0  0
  9 10  1  0  0  0  0
  9 11  1  0  0  0  0
  9 29  1  0  0  0  0
 11 12  1  0  0  0  0
 11 13  1  0  0  0  0
 11 14  1  0  0  0  0
 14 15  2  0  0  0  0
 14 28  1  0  0  0  0
 15 16  1  0  0  0  0
 15 17  1  0  0  0  0
 17 18  1  0  0  0  0
 17 19  1  0  0  0  0
 19 20  1  0  0  0  0
 19 28  2  0  0  0  0
 20 21  1  0  0  0  0
 20 22  2  0  0  0  0
 22 23  1  0  0  0  0
 22 24  1  0  0  0  0
 24 25  1  0  0  0  0
 24 26  2  0  0  0  0
 26 27  1  0  0  0  0
 26 28  1  0  0  0  0
 29 30  2  0  0  0  0
 29 31  1  0  0  0  0
 31 32  1  0  0  0  0
 31 33  1  0  0  0  0
 33 34  1  0  0  0  0
 33 35  1  0  0  0  0
 33 36  1  0  0  0  0
M  END
$$$$

  -OEChem-03222214083D

 36 37  0     1  0  0  0  0  0999 V2000
   -3.1206   -4.7247    1.4684 H   0  0  0  0  0  0  0  0  0  0  0  0
   -3.2098   -4.0100    0.6452 C   0  0  0  0  0  0  0  0  0  0  0  0
   -4.1068   -3.4060    0.8008 H   0  0  0  0  0  0  0  0  0  0  0  0
   -3.3078   -4.5645   -0.2911 H   0  0  0  0  0  0  0  0  0  0  0  0
   -1.9835   -3.1183    0.5949 C   0  0  0  0  0  0  0  0  0  0  0  0
   -1.0819   -3.2778    1.3963 O   0  0  0  0  0  0  0  0  0  0  0  0
   -1.8957   -2.1248   -0.3589 N   0  0  0  0  0  0  0  0  0  0  0  0
   -2.7001   -1.9852   -0.9637 H   0  0  0  0  0  0  0  0  0  0  0  0
   -0.7908   -1.1520   -0.4510 C   0  0  1  0  0  0  0  0  0  0  0  0
    0.1280   -1.7430   -0.5379 H   0  0  0  0  0  0  0  0  0  0  0  0
   -0.8597   -0.2601   -1.7142 C   0  0  0  0  0  0  0  0  0  0  0  0
   -1.4317    0.6379   -1.4576 H   0  0  0  0  0  0  0  0  0  0  0  0
    0.1597    0.0665   -1.9455 H   0  0  0  0  0  0  0  0  0  0  0  0
   -1.4791   -0.8097   -2.9906 C   0  0  0  0  0  0  0  0  0  0  0  0
   -2.0378   -2.0336   -3.3023 C   0  0  0  0  0  0  0  0  0  0  0  0
   -2.0645   -2.9130   -2.6656 H   0  0  0  0  0  0  0  0  0  0  0  0
   -2.5225   -1.9724   -4.6058 N   0  0  0  0  0  0  0  0  0  0  0  0
   -2.9447   -2.7450   -5.1173 H   0  0  0  0  0  0  0  0  0  0  0  0
   -2.2902   -0.7214   -5.1465 C   0  0  0  0  0  0  0  0  0  0  0  0
   -2.5846   -0.1815   -6.3985 C   0  0  0  0  0  0  0  0  0  0  0  0
   -3.0898   -0.7801   -7.1481 H   0  0  0  0  0  0  0  0  0  0  0  0
   -2.2193    1.1436   -6.6736 C   0  0  0  0  0  0  0  0  0  0  0  0
   -2.4410    1.5776   -7.6442 H   0  0  0  0  0  0  0  0  0  0  0  0
   -1.5654    1.9095   -5.6966 C   0  0  0  0  0  0  0  0  0  0  0  0
   -1.2807    2.9349   -5.9131 H   0  0  0  0  0  0  0  0  0  0  0  0
   -1.2748    1.3546   -4.4417 C   0  0  0  0  0  0  0  0  0  0  0  0
   -0.7658    1.9448   -3.6863 H   0  0  0  0  0  0  0  0  0  0  0  0
   -1.6432    0.0306   -4.1745 C   0  0  0  0  0  0  0  0  0  0  0  0
   -0.6101   -0.2649    0.7997 C   0  0  0  0  0  0  0  0  0  0  0  0
    0.5072    0.1188    1.1182 O   0  0  0  0  0  0  0  0  0  0  0  0
   -1.7138    0.3105    1.4051 N   0  0  0  0  0  0  0  0  0  0  0  0
   -2.6216   -0.0585    1.1443 H   0  0  0  0  0  0  0  0  0  0  0  0
   -1.6164    1.1869    2.5655 C   0  0  0  0  0  0  0  0  0  0  0  0
   -0.9835    2.0524    2.3423 H   0  0  0  0  0  0  0  0  0  0  0  0
   -2.6086    1.5512    2.8485 H   0  0  0  0  0  0  0  0  0  0  0  0
   -1.1881    0.6472    3.4164 H   0  0  0  0  0  0  0  0  0  0  0  0
  1  2  1  0  0  0  0
  2  3  1  0  0  0  0
  2  4  1  0  0  0  0
  2  5  1  0  0  0  0
  5  6  2  0  0  0  0
  5  7  1  0  0  0  0
  7  8  1  0  0  0  0
  7  9  1  0  0  0  0
  9 10  1  0  0  0  0
  9 11  1  0  0  0  0
  9 29  1  0  0  0  0
 11 12  1  0  0  0  0
 11 13  1  0  0  0  0
 11 14  1  0  0  0  0
 14 15  2  0  0  0  0
 14 28  1  0  0  0  0
 15 16  1  0  0  0  0
 15 17  1  0  0  0  0
 17 18  1  0  0  0  0
 17 19  1  0  0  0  0
 19 20  1  0  0  0  0
 19 28  2  0  0  0  0
 20 21  1  0  0  0  0
 20 22  2  0  0  0  0
 22 23  1  0  0  0  0
 22 24  1  0  0  0  0
 24 25  1  0  0  0  0
 24 26  2  0  0  0  0
 26 27  1  0  0  0  0
 26 28  1  0  0  0  0
 29 30  2  0  0  0  0
 29 31  1  0  0  0  0
 31 32  1  0  0  0  0
 31 33  1  0  0  0  0
 33 34  1  0  0  0  0
 33 35  1  0  0  0  0
 33 36  1  0  0  0  0
M  END
$$$$

  -OEChem-03222214083D

 36 37  0     1  0  0  0  0  0999 V2000
   -3.0980   -4.6977    1.5881 H   0  0  0  0  0  0  0  0  0  0  0  0
   -3.2145   -4.0019    0.7520 C   0  0  0  0  0  0  0  0  0  0  0  0
   -4.0950   -3.3812    0.9327 H   0  0  0  0  0  0  0  0  0  0  0  0
   -3.3623   -4.5776   -0.1648 H   0  0  0  0  0  0  0  0  0  0  0  0
   -1.9795   -3.1303    0.6242 C   0  0  0  0  0  0  0  0  0  0  0  0
   -1.0399   -3.2949    1.3798 O   0  0  0  0  0  0  0  0  0  0  0  0
   -1.9316   -2.1431   -0.3399 N   0  0  0  0  0  0  0  0  0  0  0  0
   -2.7793   -1.9723   -0.8703 H   0  0  0  0  0  0  0  0  0  0  0  0
   -0.8302   -1.1726   -0.4746 C   0  0  1  0  0  0  0  0  0  0  0  0
    0.0817   -1.7714   -0.5808 H   0  0  0  0  0  0  0  0  0  0  0  0
   -0.9115   -0.2870   -1.7423 C   0  0  0  0  0  0  0  0  0  0  0  0
   -1.4589    0.6260   -1.4855 H   0  0  0  0  0  0  0  0  0  0  0  0
    0.1136    0.0141   -1.9827 H   0  0  0  0  0  0  0  0  0  0  0  0
   -1.5522   -0.8209   -3.0167 C   0  0  0  0  0  0  0  0  0  0  0  0
   -2.3599   -1.9092   -3.2870 C   0  0  0  0  0  0  0  0  0  0  0  0
   -2.6629   -2.6869   -2.5952 H   0  0  0  0  0  0  0  0  0  0  0  0
   -2.7071   -1.8732   -4.6348 N   0  0  0  0  0  0  0  0  0  0  0  0
   -3.2701   -2.5687   -5.1208 H   0  0  0  0  0  0  0  0  0  0  0  0
   -2.1414   -0.7716   -5.2479 C   0  0  0  0  0  0  0  0  0  0  0  0
   -2.1975   -0.3108   -6.5636 C   0  0  0  0  0  0  0  0  0  0  0  0
   -2.7665   -0.8533   -7.3103 H   0  0  0  0  0  0  0  0  0  0  0  0
   -1.5099    0.8616   -6.9060 C   0  0  0  0  0  0  0  0  0  0  0  0
   -1.5442    1.2333   -7.9259 H   0  0  0  0  0  0  0  0  0  0  0  0
   -0.7766    1.5554   -5.9319 C   0  0  0  0  0  0  0  0  0  0  0  0
   -0.2436    2.4627   -6.1999 H   0  0  0  0  0  0  0  0  0  0  0  0
   -0.7279    1.0807   -4.6131 C   0  0  0  0  0  0  0  0  0  0  0  0
   -0.1580    1.6171   -3.8612 H   0  0  0  0  0  0  0  0  0  0  0  0
   -1.4172   -0.0915   -4.2776 C   0  0  0  0  0  0  0  0  0  0  0  0
   -0.6048   -0.2799    0.7653 C   0  0  0  0  0  0  0  0  0  0  0  0
    0.5231    0.1058    1.0413 O   0  0  0  0  0  0  0  0  0  0  0  0
   -1.6844    0.3008    1.4082 N   0  0  0  0  0  0  0  0  0  0  0  0
   -2.6023   -0.0672    1.1845 H   0  0  0  0  0  0  0  0  0  0  0  0
   -1.5416    1.1874    2.5566 C   0  0  0  0  0  0  0  0  0  0  0  0
   -0.9281    2.0568    2.2972 H   0  0  0  0  0  0  0  0  0  0  0  0
   -2.5228    1.5449    2.8830 H   0  0  0  0  0  0  0  0  0  0  0  0
   -1.0688    0.6583    3.3908 H   0  0  0  0  0  0  0  0  0  0  0  0
  1  2  1  0  0  0  0
  2  3  1  0  0  0  0
  2  4  1  0  0  0  0
  2  5  1  0  0  0  0
  5  6  2  0  0  0  0
  5  7  1  0  0  0  0
  7  8  1  0  0  0  0
  7  9  1  0  0  0  0
  9 10  1  0  0  0  0
  9 11  1  0  0  0  0
  9 29  1  0  0  0  0
 11 12  1  0  0  0  0
 11 13  1  0  0  0  0
 11 14  1  0  0  0  0
 14 15  2  0  0  0  0
 14 28  1  0  0  0  0
 15 16  1  0  0  0  0
 15 17  1  0  0  0  0
 17 18  1  0  0  0  0
 17 19  1  0  0  0  0
 19 20  1  0  0  0  0
 19 28  2  0  0  0  0
 20 21  1  0  0  0  0
 20 22  2  0  0  0  0
 22 23  1  0  0  0  0
 22 24  1  0  0  0  0
 24 25  1  0  0  0  0
 24 26  2  0  0  0  0
 26 27  1  0  0  0  0
 26 28  1  0  0  0  0
 29 30  2  0  0  0  0
 29 31  1  0  0  0  0
 31 32  1  0  0  0  0
 31 33  1  0  0  0  0
 33 34  1  0  0  0  0
 33 35  1  0  0  0  0
 33 36  1  0  0  0  0
M  END
$$$$

  -OEChem-03222214083D

 36 37  0     1  0  0  0  0  0999 V2000
   -3.1264   -4.7094    1.5377 H   0  0  0  0  0  0  0  0  0  0  0  0
   -3.2523   -3.9883    0.7248 C   0  0  0  0  0  0  0  0  0  0  0  0
   -4.1270   -3.3697    0.9381 H   0  0  0  0  0  0  0  0  0  0  0  0
   -3.4169   -4.5357   -0.2064 H   0  0  0  0  0  0  0  0  0  0  0  0
   -2.0143   -3.1199    0.6035 C   0  0  0  0  0  0  0  0  0  0  0  0
   -1.0714   -3.2987    1.3516 O   0  0  0  0  0  0  0  0  0  0  0  0
   -1.9709   -2.1158   -0.3429 N   0  0  0  0  0  0  0  0  0  0  0  0
   -2.8213   -1.9341   -0.8605 H   0  0  0  0  0  0  0  0  0  0  0  0
   -0.8557   -1.1638   -0.4908 C   0  0  1  0  0  0  0  0  0  0  0  0
    0.0396   -1.7814   -0.6258 H   0  0  0  0  0  0  0  0  0  0  0  0
   -0.9338   -0.2556   -1.7430 C   0  0  0  0  0  0  0  0  0  0  0  0
   -1.4500    0.6702   -1.4686 H   0  0  0  0  0  0  0  0  0  0  0  0
    0.0974    0.0187   -1.9865 H   0  0  0  0  0  0  0  0  0  0  0  0
   -1.6073   -0.7581   -3.0146 C   0  0  0  0  0  0  0  0  0  0  0  0
   -2.6396   -1.6486   -3.2427 C   0  0  0  0  0  0  0  0  0  0  0  0
   -3.1925   -2.2164   -2.5049 H   0  0  0  0  0  0  0  0  0  0  0  0
   -2.8697   -1.7128   -4.6137 N   0  0  0  0  0  0  0  0  0  0  0  0
   -3.5624   -2.3011   -5.0730 H   0  0  0  0  0  0  0  0  0  0  0  0
   -2.0102   -0.8653   -5.2849 C   0  0  0  0  0  0  0  0  0  0  0  0
   -1.8659   -0.5830   -6.6432 C   0  0  0  0  0  0  0  0  0  0  0  0
   -2.4968   -1.0744   -7.3755 H   0  0  0  0  0  0  0  0  0  0  0  0
   -0.8955    0.3436   -7.0472 C   0  0  0  0  0  0  0  0  0  0  0  0
   -0.7701    0.5740   -8.1010 H   0  0  0  0  0  0  0  0  0  0  0  0
   -0.0855    0.9734   -6.0906 C   0  0  0  0  0  0  0  0  0  0  0  0
    0.6661    1.6915   -6.4045 H   0  0  0  0  0  0  0  0  0  0  0  0
   -0.2414    0.6792   -4.7283 C   0  0  0  0  0  0  0  0  0  0  0  0
    0.3874    1.1694   -3.9923 H   0  0  0  0  0  0  0  0  0  0  0  0
   -1.2112   -0.2500   -4.3296 C   0  0  0  0  0  0  0  0  0  0  0  0
   -0.5804   -0.2982    0.7579 C   0  0  0  0  0  0  0  0  0  0  0  0
    0.5611    0.0650    1.0075 O   0  0  0  0  0  0  0  0  0  0  0  0
   -1.6319    0.2899    1.4394 N   0  0  0  0  0  0  0  0  0  0  0  0
   -2.5598   -0.0679    1.2423 H   0  0  0  0  0  0  0  0  0  0  0  0
   -1.4403    1.1371    2.6097 C   0  0  0  0  0  0  0  0  0  0  0  0
   -0.8282    2.0093    2.3568 H   0  0  0  0  0  0  0  0  0  0  0  0
   -2.4062    1.4914    2.9818 H   0  0  0  0  0  0  0  0  0  0  0  0
   -0.9434    0.5772    3.4091 H   0  0  0  0  0  0  0  0  0  0  0  0
  1  2  1  0  0  0  0
  2  3  1  0  0  0  0
  2  4  1  0  0  0  0
  2  5  1  0  0  0  0
  5  6  2  0  0  0  0
  5  7  1  0  0  0  0
  7  8  1  0  0  0  0
  7  9  1  0  0  0  0
  9 10  1  0  0  0  0
  9 11  1  0  0  0  0
  9 29  1  0  0  0  0
 11 12  1  0  0  0  0
 11 13  1  0  0  0  0
 11 14  1  0  0  0  0
 14 15  2  0  0  0  0
 14 28  1  0  0  0  0
 15 16  1  0  0  0  0
 15 17  1  0  0  0  0
 17 18  1  0  0  0  0
 17 19  1  0  0  0  0
 19 20  1  0  0  0  0
 19 28  2  0  0  0  0
 20 21  1  0  0  0  0
 20 22  2  0  0  0  0
 22 23  1  0  0  0  0
 22 24  1  0  0  0  0
 24 25  1  0  0  0  0
 24 26  2  0  0  0  0
 26 27  1  0  0  0  0
 26 28  1  0  0  0  0
 29 30  2  0  0  0  0
 29 31  1  0  0  0  0
 31 32  1  0  0  0  0
 31 33  1  0  0  0  0
 33 34  1  0  0  0  0
 33 35  1  0  0  0  0
 33 36  1  0  0  0  0
M  END
$$$$

  -OEChem-03222214083D

 36 37  0     1  0  0  0  0  0999 V2000
   -3.0792   -4.8671    1.1466 H   0  0  0  0  0  0  0  0  0  0  0  0
   -3.1662   -4.1212    0.3513 C   0  0  0  0  0  0  0  0  0  0  0  0
   -4.1748   -3.7017    0.3709 H   0  0  0  0  0  0  0  0  0  0  0  0
   -3.0005   -4.6139   -0.6097 H   0  0  0  0  0  0  0  0  0  0  0  0
   -2.1424   -3.0208    0.5566 C   0  0  0  0  0  0  0  0  0  0  0  0
   -1.4307   -3.0355    1.5436 O   0  0  0  0  0  0  0  0  0  0  0  0
   -2.0363   -2.0081   -0.3767 N   0  0  0  0  0  0  0  0  0  0  0  0
   -2.4958   -2.2123   -1.2564 H   0  0  0  0  0  0  0  0  0  0  0  0
   -0.8613   -1.1203   -0.4690 C   0  0  1  0  0  0  0  0  0  0  0  0
    0.0057   -1.7723   -0.6223 H   0  0  0  0  0  0  0  0  0  0  0  0
   -0.9022   -0.1322   -1.6650 C   0  0  0  0  0  0  0  0  0  0  0  0
   -1.3726    0.7998   -1.3344 H   0  0  0  0  0  0  0  0  0  0  0  0
    0.1350    0.1131   -1.9115 H   0  0  0  0  0  0  0  0  0  0  0  0
   -1.6326   -0.5432   -2.9348 C   0  0  0  0  0  0  0  0  0  0  0  0
   -2.8682   -1.1364   -3.0977 C   0  0  0  0  0  0  0  0  0  0  0  0
   -3.5924   -1.3353   -2.3124 H   0  0  0  0  0  0  0  0  0  0  0  0
   -3.0594   -1.3823   -4.4536 N   0  0  0  0  0  0  0  0  0  0  0  0
   -3.8981   -1.7785   -4.8741 H   0  0  0  0  0  0  0  0  0  0  0  0
   -1.9610   -0.9552   -5.1767 C   0  0  0  0  0  0  0  0  0  0  0  0
   -1.6900   -0.9847   -6.5448 C   0  0  0  0  0  0  0  0  0  0  0  0
   -2.4112   -1.4030   -7.2382 H   0  0  0  0  0  0  0  0  0  0  0  0
   -0.4741   -0.4668   -7.0105 C   0  0  0  0  0  0  0  0  0  0  0  0
   -0.2482   -0.4830   -8.0728 H   0  0  0  0  0  0  0  0  0  0  0  0
    0.4510    0.0741   -6.1054 C   0  0  0  0  0  0  0  0  0  0  0  0
    1.3923    0.4771   -6.4676 H   0  0  0  0  0  0  0  0  0  0  0  0
    0.1661    0.0978   -4.7326 C   0  0  0  0  0  0  0  0  0  0  0  0
    0.8844    0.5204   -4.0378 H   0  0  0  0  0  0  0  0  0  0  0  0
   -1.0498   -0.4237   -4.2714 C   0  0  0  0  0  0  0  0  0  0  0  0
   -0.5655   -0.2954    0.8042 C   0  0  0  0  0  0  0  0  0  0  0  0
    0.5915    0.0001    1.0752 O   0  0  0  0  0  0  0  0  0  0  0  0
   -1.5967    0.3431    1.4697 N   0  0  0  0  0  0  0  0  0  0  0  0
   -2.5284   -0.0139    1.2850 H   0  0  0  0  0  0  0  0  0  0  0  0
   -1.3809    1.1437    2.6678 C   0  0  0  0  0  0  0  0  0  0  0  0
   -0.6779    1.9582    2.4646 H   0  0  0  0  0  0  0  0  0  0  0  0
   -2.3249    1.5820    3.0044 H   0  0  0  0  0  0  0  0  0  0  0  0
   -0.9770    0.5228    3.4742 H   0  0  0  0  0  0  0  0  0  0  0  0
  1  2  1  0  0  0  0
  2  3  1  0  0  0  0
  2  4  1  0  0  0  0
  2  5  1  0  0  0  0
  5  6  2  0  0  0  0
  5  7  1  0  0  0  0
  7  8  1  0  0  0  0
  7  9  1  0  0  0  0
  9 10  1  0  0  0  0
  9 11  1  0  0  0  0
  9 29  1  0  0  0  0
 11 12  1  0  0  0  0
 11 13  1  0  0  0  0
 11 14  1  0  0  0  0
 14 15  2  0  0  0  0
 14 28  1  0  0  0  0
 15 16  1  0  0  0  0
 15 17  1  0  0  0  0
 17 18  1  0  0  0  0
 17 19  1  0  0  0  0
 19 20  1  0  0  0  0
 19 28  2  0  0  0  0
 20 21  1  0  0  0  0
 20 22  2  0  0  0  0
 22 23  1  0  0  0  0
 22 24  1  0  0  0  0
 24 25  1  0  0  0  0
 24 26  2  0  0  0  0
 26 27  1  0  0  0  0
 26 28  1  0  0  0  0
 29 30  2  0  0  0  0
 29 31  1  0  0  0  0
 31 32  1  0  0  0  0
 31 33  1  0  0  0  0
 33 34  1  0  0  0  0
 33 35  1  0  0  0  0
 33 36  1  0  0  0  0
M  END
$$$$

  -OEChem-03222214083D

 36 37  0     1  0  0  0  0  0999 V2000
   -3.1607   -4.8402    0.9035 H   0  0  0  0  0  0  0  0  0  0  0  0
   -3.1885   -4.0704    0.1269 C   0  0  0  0  0  0  0  0  0  0  0  0
   -4.1881   -3.6299    0.1035 H   0  0  0  0  0  0  0  0  0  0  0  0
   -2.9795   -4.5388   -0.8380 H   0  0  0  0  0  0  0  0  0  0  0  0
   -2.1562   -2.9979    0.4189 C   0  0  0  0  0  0  0  0  0  0  0  0
   -1.4829   -3.0654    1.4304 O   0  0  0  0  0  0  0  0  0  0  0  0
   -2.0019   -1.9466   -0.4623 N   0  0  0  0  0  0  0  0  0  0  0  0
   -2.4393   -2.0962   -1.3667 H   0  0  0  0  0  0  0  0  0  0  0  0
   -0.8150   -1.0692   -0.4747 C   0  0  1  0  0  0  0  0  0  0  0  0
    0.0515   -1.7211   -0.6312 H   0  0  0  0  0  0  0  0  0  0  0  0
   -0.8293   -0.0429   -1.6354 C   0  0  0  0  0  0  0  0  0  0  0  0
   -1.3245    0.8704   -1.2894 H   0  0  0  0  0  0  0  0  0  0  0  0
    0.2046    0.2319   -1.8652 H   0  0  0  0  0  0  0  0  0  0  0  0
   -1.5434   -0.4643   -2.9059 C   0  0  0  0  0  0  0  0  0  0  0  0
   -2.8696   -0.8090   -3.0581 C   0  0  0  0  0  0  0  0  0  0  0  0
   -3.6319   -0.7495   -2.2841 H   0  0  0  0  0  0  0  0  0  0  0  0
   -3.0632   -1.2065   -4.3772 N   0  0  0  0  0  0  0  0  0  0  0  0
   -3.9542   -1.4726   -4.7932 H   0  0  0  0  0  0  0  0  0  0  0  0
   -1.8728   -1.1303   -5.0797 C   0  0  0  0  0  0  0  0  0  0  0  0
   -1.5650   -1.4192   -6.4092 C   0  0  0  0  0  0  0  0  0  0  0  0
   -2.3358   -1.7698   -7.0867 H   0  0  0  0  0  0  0  0  0  0  0  0
   -0.2473   -1.2514   -6.8567 C   0  0  0  0  0  0  0  0  0  0  0  0
    0.0082   -1.4721   -7.8889 H   0  0  0  0  0  0  0  0  0  0  0  0
    0.7427   -0.7982   -5.9717 C   0  0  0  0  0  0  0  0  0  0  0  0
    1.7632   -0.6694   -6.3200 H   0  0  0  0  0  0  0  0  0  0  0  0
    0.4204   -0.5086   -4.6381 C   0  0  0  0  0  0  0  0  0  0  0  0
    1.1881   -0.1573   -3.9564 H   0  0  0  0  0  0  0  0  0  0  0  0
   -0.8981   -0.6757   -4.1983 C   0  0  0  0  0  0  0  0  0  0  0  0
   -0.5507   -0.3009    0.8395 C   0  0  0  0  0  0  0  0  0  0  0  0
    0.5999   -0.0217    1.1516 O   0  0  0  0  0  0  0  0  0  0  0  0
   -1.5955    0.3233    1.4975 N   0  0  0  0  0  0  0  0  0  0  0  0
   -2.5233   -0.0259    1.2808 H   0  0  0  0  0  0  0  0  0  0  0  0
   -1.4062    1.0861    2.7246 C   0  0  0  0  0  0  0  0  0  0  0  0
   -0.7090    1.9141    2.5582 H   0  0  0  0  0  0  0  0  0  0  0  0
   -2.3598    1.5034    3.0614 H   0  0  0  0  0  0  0  0  0  0  0  0
   -1.0076    0.4434    3.5166 H   0  0  0  0  0  0  0  0  0  0  0  0
  1  2  1  0  0  0  0
  2  3  1  0  0  0  0
  2  4  1  0  0  0  0
  2  5  1  0  0  0  0
  5  6  2  0  0  0  0
  5  7  1  0  0  0  0
  7  8  1  0  0  0  0
  7  9  1  0  0  0  0
  9 10  1  0  0  0  0
  9 11  1  0  0  0  0
  9 29  1  0  0  0  0
 11 12  1  0  0  0  0
 11 13  1  0  0  0  0
 11 14  1  0  0  0  0
 14 15  2  0  0  0  0
 14 28  1  0  0  0  0
 15 16  1  0  0  0  0
 15 17  1  0  0  0  0
 17 18  1  0  0  0  0
 17 19  1  0  0  0  0
 19 20  1  0  0  0  0
 19 28  2  0  0  0  0
 20 21  1  0  0  0  0
 20 22  2  0  0  0  0
 22 23  1  0  0  0  0
 22 24  1  0  0  0  0
 24 25  1  0  0  0  0
 24 26  2  0  0  0  0
 26 27  1  0  0  0  0
 26 28  1  0  0  0  0
 29 30  2  0  0  0  0
 29 31  1  0  0  0  0
 31 32  1  0  0  0  0
 31 33  1  0  0  0  0
 33 34  1  0  0  0  0
 33 35  1  0  0  0  0
 33 36  1  0  0  0  0
M  END
$$$$

  -OEChem-03222214083D

 36 37  0     1  0  0  0  0  0999 V2000
   -3.2029   -4.8110    0.6965 H   0  0  0  0  0  0  0  0  0  0  0  0
   -3.1902   -4.0206   -0.0596 C   0  0  0  0  0  0  0  0  0  0  0  0
   -4.1808   -3.5623   -0.1064 H   0  0  0  0  0  0  0  0  0  0  0  0
   -2.9557   -4.4660   -1.0295 H   0  0  0  0  0  0  0  0  0  0  0  0
   -2.1503   -2.9750    0.2956 C   0  0  0  0  0  0  0  0  0  0  0  0
   -1.5056   -3.0846    1.3224 O   0  0  0  0  0  0  0  0  0  0  0  0
   -1.9591   -1.8954   -0.5420 N   0  0  0  0  0  0  0  0  0  0  0  0
   -2.3919   -1.9882   -1.4581 H   0  0  0  0  0  0  0  0  0  0  0  0
   -0.7673   -1.0245   -0.4909 C   0  0  1  0  0  0  0  0  0  0  0  0
    0.1018   -1.6724   -0.6490 H   0  0  0  0  0  0  0  0  0  0  0  0
   -0.7684    0.0282   -1.6241 C   0  0  0  0  0  0  0  0  0  0  0  0
   -1.2832    0.9267   -1.2683 H   0  0  0  0  0  0  0  0  0  0  0  0
    0.2622    0.3215   -1.8481 H   0  0  0  0  0  0  0  0  0  0  0  0
   -1.4687   -0.4157   -2.8890 C   0  0  0  0  0  0  0  0  0  0  0  0
   -2.8284   -0.5069   -3.0879 C   0  0  0  0  0  0  0  0  0  0  0  0
   -3.5927   -0.1961   -2.3780 H   0  0  0  0  0  0  0  0  0  0  0  0
   -3.0371   -1.0549   -4.3504 N   0  0  0  0  0  0  0  0  0  0  0  0
   -3.9437   -1.1941   -4.7940 H   0  0  0  0  0  0  0  0  0  0  0  0
   -1.8242   -1.3278   -4.9621 C   0  0  0  0  0  0  0  0  0  0  0  0
   -1.5164   -1.8759   -6.2072 C   0  0  0  0  0  0  0  0  0  0  0  0
   -2.3081   -2.1686   -6.8881 H   0  0  0  0  0  0  0  0  0  0  0  0
   -0.1713   -2.0445   -6.5654 C   0  0  0  0  0  0  0  0  0  0  0  0
    0.0851   -2.4688   -7.5319 H   0  0  0  0  0  0  0  0  0  0  0  0
    0.8463   -1.6651   -5.6765 C   0  0  0  0  0  0  0  0  0  0  0  0
    1.8875   -1.7956   -5.9560 H   0  0  0  0  0  0  0  0  0  0  0  0
    0.5247   -1.1144   -4.4277 C   0  0  0  0  0  0  0  0  0  0  0  0
    1.3104   -0.8190   -3.7395 H   0  0  0  0  0  0  0  0  0  0  0  0
   -0.8198   -0.9462   -4.0800 C   0  0  0  0  0  0  0  0  0  0  0  0
   -0.5348   -0.2999    0.8528 C   0  0  0  0  0  0  0  0  0  0  0  0
    0.6075   -0.0282    1.1999 O   0  0  0  0  0  0  0  0  0  0  0  0
   -1.5960    0.3088    1.4990 N   0  0  0  0  0  0  0  0  0  0  0  0
   -2.5151   -0.0477    1.2584 H   0  0  0  0  0  0  0  0  0  0  0  0
   -1.4389    1.0330    2.7537 C   0  0  0  0  0  0  0  0  0  0  0  0
   -0.7517    1.8762    2.6270 H   0  0  0  0  0  0  0  0  0  0  0  0
   -2.4047    1.4244    3.0873 H   0  0  0  0  0  0  0  0  0  0  0  0
   -1.0441    0.3702    3.5311 H   0  0  0  0  0  0  0  0  0  0  0  0
  1  2  1  0  0  0  0
  2  3  1  0  0  0  0
  2  4  1  0  0  0  0
  2  5  1  0  0  0  0
  5  6  2  0  0  0  0
  5  7  1  0  0  0  0
  7  8  1  0  0  0  0
  7  9  1  0  0  0  0
  9 10  1  0  0  0  0
  9 11  1  0  0  0  0
  9 29  1  0  0  0  0
 11 12  1  0  0  0  0
 11 13  1  0  0  0  0
 11 14  1  0  0  0  0
 14 15  2  0  0  0  0
 14 28  1  0  0  0  0
 15 16  1  0  0  0  0
 15 17  1  0  0  0  0
 17 18  1  0  0  0  0
 17 19  1  0  0  0  0
 19 20  1  0  0  0  0
 19 28  2  0  0  0  0
 20 21  1  0  0  0  0
 20 22  2  0  0  0  0
 22 23  1  0  0  0  0
 22 24  1  0  0  0  0
 24 25  1  0  0  0  0
 24 26  2  0  0  0  0
 26 27  1  0  0  0  0
 26 28  1  0  0  0  0
 29 30  2  0  0  0  0
 29 31  1  0  0  0  0
 31 32  1  0  0  0  0
 31 33  1  0  0  0  0
 33 34  1  0  0  0  0
 33 35  1  0  0  0  0
 33 36  1  0  0  0  0
M  END
$$$$

  -OEChem-03222214083D

 36 37  0     1  0  0  0  0  0999 V2000
   -3.2217   -4.7918    0.5677 H   0  0  0  0  0  0  0  0  0  0  0  0
   -3.1895   -3.9870   -0.1723 C   0  0  0  0  0  0  0  0  0  0  0  0
   -4.1724   -3.5123   -0.2197 H   0  0  0  0  0  0  0  0  0  0  0  0
   -2.9511   -4.4164   -1.1485 H   0  0  0  0  0  0  0  0  0  0  0  0
   -2.1376   -2.9650    0.2136 C   0  0  0  0  0  0  0  0  0  0  0  0
   -1.5010   -3.1067    1.2417 O   0  0  0  0  0  0  0  0  0  0  0  0
   -1.9227   -1.8700   -0.5969 N   0  0  0  0  0  0  0  0  0  0  0  0
   -2.3581   -1.9224   -1.5159 H   0  0  0  0  0  0  0  0  0  0  0  0
   -0.7306   -1.0023   -0.5047 C   0  0  1  0  0  0  0  0  0  0  0  0
    0.1416   -1.6470   -0.6584 H   0  0  0  0  0  0  0  0  0  0  0  0
   -0.7240    0.0612   -1.6252 C   0  0  0  0  0  0  0  0  0  0  0  0
   -1.2479    0.9547   -1.2704 H   0  0  0  0  0  0  0  0  0  0  0  0
    0.3057    0.3596   -1.8467 H   0  0  0  0  0  0  0  0  0  0  0  0
   -1.4114   -0.4074   -2.8851 C   0  0  0  0  0  0  0  0  0  0  0  0
   -2.7442   -0.2536   -3.1883 C   0  0  0  0  0  0  0  0  0  0  0  0
   -3.4706    0.2913   -2.5883 H   0  0  0  0  0  0  0  0  0  0  0  0
   -2.9825   -0.9229   -4.3859 N   0  0  0  0  0  0  0  0  0  0  0  0
   -3.8695   -0.9404   -4.8869 H   0  0  0  0  0  0  0  0  0  0  0  0
   -1.8173   -1.5143   -4.8484 C   0  0  0  0  0  0  0  0  0  0  0  0
   -1.5509   -2.2853   -5.9799 C   0  0  0  0  0  0  0  0  0  0  0  0
   -2.3413   -2.5122   -6.6870 H   0  0  0  0  0  0  0  0  0  0  0  0
   -0.2495   -2.7637   -6.1890 C   0  0  0  0  0  0  0  0  0  0  0  0
   -0.0265   -3.3648   -7.0656 H   0  0  0  0  0  0  0  0  0  0  0  0
    0.7667   -2.4668   -5.2674 C   0  0  0  0  0  0  0  0  0  0  0  0
    1.7741   -2.8372   -5.4328 H   0  0  0  0  0  0  0  0  0  0  0  0
    0.4876   -1.6902   -4.1339 C   0  0  0  0  0  0  0  0  0  0  0  0
    1.2711   -1.4561   -3.4198 H   0  0  0  0  0  0  0  0  0  0  0  0
   -0.8126   -1.2159   -3.9356 C   0  0  0  0  0  0  0  0  0  0  0  0
   -0.5240   -0.3023    0.8551 C   0  0  0  0  0  0  0  0  0  0  0  0
    0.6114   -0.0404    1.2312 O   0  0  0  0  0  0  0  0  0  0  0  0
   -1.5975    0.2971    1.4894 N   0  0  0  0  0  0  0  0  0  0  0  0
   -2.5122   -0.0523    1.2220 H   0  0  0  0  0  0  0  0  0  0  0  0
   -1.4645    0.9943    2.7619 C   0  0  0  0  0  0  0  0  0  0  0  0
   -0.7772    1.8410    2.6649 H   0  0  0  0  0  0  0  0  0  0  0  0
   -2.4367    1.3763    3.0874 H   0  0  0  0  0  0  0  0  0  0  0  0
   -1.0816    0.3157    3.5313 H   0  0  0  0  0  0  0  0  0  0  0  0
  1  2  1  0  0  0  0
  2  3  1  0  0  0  0
  2  4  1  0  0  0  0
  2  5  1  0  0  0  0
  5  6  2  0  0  0  0
  5  7  1  0  0  0  0
  7  8  1  0  0  0  0
  7  9  1  0  0  0  0
  9 10  1  0  0  0  0
  9 11  1  0  0  0  0
  9 29  1  0  0  0  0
 11 12  1  0  0  0  0
 11 13  1  0  0  0  0
 11 14  1  0  0  0  0
 14 15  2  0  0  0  0
 14 28  1  0  0  0  0
 15 16  1  0  0  0  0
 15 17  1  0  0  0  0
 17 18  1  0  0  0  0
 17 19  1  0  0  0  0
 19 20  1  0  0  0  0
 19 28  2  0  0  0  0
 20 21  1  0  0  0  0
 20 22  2  0  0  0  0
 22 23  1  0  0  0  0
 22 24  1  0  0  0  0
 24 25  1  0  0  0  0
 24 26  2  0  0  0  0
 26 27  1  0  0  0  0
 26 28  1  0  0  0  0
 29 30  2  0  0  0  0
 29 31  1  0  0  0  0
 31 32  1  0  0  0  0
 31 33  1  0  0  0  0
 33 34  1  0  0  0  0
 33 35  1  0  0  0  0
 33 36  1  0  0  0  0
M  END
$$$$

  -OEChem-03222214083D

 36 37  0     1  0  0  0  0  0999 V2000
   -3.2441   -4.7820    0.5423 H   0  0  0  0  0  0  0  0  0  0  0  0
   -3.2005   -3.9732   -0.1925 C   0  0  0  0  0  0  0  0  0  0  0  0
   -4.1755   -3.4821   -0.2347 H   0  0  0  0  0  0  0  0  0  0  0  0
   -2.9716   -4.3998   -1.1723 H   0  0  0  0  0  0  0  0  0  0  0  0
   -2.1320   -2.9703    0.1986 C   0  0  0  0  0  0  0  0  0  0  0  0
   -1.4969   -3.1269    1.2258 O   0  0  0  0  0  0  0  0  0  0  0  0
   -1.8989   -1.8763   -0.6078 N   0  0  0  0  0  0  0  0  0  0  0  0
   -2.3389   -1.9103   -1.5262 H   0  0  0  0  0  0  0  0  0  0  0  0
   -0.7065   -1.0108   -0.4998 C   0  0  1  0  0  0  0  0  0  0  0  0
    0.1677   -1.6558   -0.6382 H   0  0  0  0  0  0  0  0  0  0  0  0
   -0.6917    0.0467   -1.6255 C   0  0  0  0  0  0  0  0  0  0  0  0
   -1.2136    0.9458   -1.2815 H   0  0  0  0  0  0  0  0  0  0  0  0
    0.3414    0.3357   -1.8449 H   0  0  0  0  0  0  0  0  0  0  0  0
   -1.3677   -0.4394   -2.8853 C   0  0  0  0  0  0  0  0  0  0  0  0
   -2.6088   -0.0582   -3.3364 C   0  0  0  0  0  0  0  0  0  0  0  0
   -3.2489    0.6897   -2.8722 H   0  0  0  0  0  0  0  0  0  0  0  0
   -2.8889   -0.8071   -4.4770 N   0  0  0  0  0  0  0  0  0  0  0  0
   -3.7223   -0.7113   -5.0552 H   0  0  0  0  0  0  0  0  0  0  0  0
   -1.8415   -1.6699   -4.7590 C   0  0  0  0  0  0  0  0  0  0  0  0
   -1.6550   -2.6082   -5.7744 C   0  0  0  0  0  0  0  0  0  0  0  0
   -2.4170   -2.7548   -6.5323 H   0  0  0  0  0  0  0  0  0  0  0  0
   -0.4702   -3.3580   -5.8011 C   0  0  0  0  0  0  0  0  0  0  0  0
   -0.3099   -4.0919   -6.5856 H   0  0  0  0  0  0  0  0  0  0  0  0
    0.5107   -3.1608   -4.8167 C   0  0  0  0  0  0  0  0  0  0  0  0
    1.4277   -3.7420   -4.8403 H   0  0  0  0  0  0  0  0  0  0  0  0
    0.3140   -2.2126   -3.8028 C   0  0  0  0  0  0  0  0  0  0  0  0
    1.0719   -2.0536   -3.0418 H   0  0  0  0  0  0  0  0  0  0  0  0
   -0.8704   -1.4698   -3.7849 C   0  0  0  0  0  0  0  0  0  0  0  0
   -0.5198   -0.3098    0.8620 C   0  0  0  0  0  0  0  0  0  0  0  0
    0.6098   -0.0532    1.2587 O   0  0  0  0  0  0  0  0  0  0  0  0
   -1.6028    0.2917    1.4778 N   0  0  0  0  0  0  0  0  0  0  0  0
   -2.5133   -0.0520    1.1894 H   0  0  0  0  0  0  0  0  0  0  0  0
   -1.4925    0.9813    2.7565 C   0  0  0  0  0  0  0  0  0  0  0  0
   -0.7964    1.8231    2.6796 H   0  0  0  0  0  0  0  0  0  0  0  0
   -2.4686    1.3694    3.0623 H   0  0  0  0  0  0  0  0  0  0  0  0
   -1.1324    0.2952    3.5305 H   0  0  0  0  0  0  0  0  0  0  0  0
  1  2  1  0  0  0  0
  2  3  1  0  0  0  0
  2  4  1  0  0  0  0
  2  5  1  0  0  0  0
  5  6  2  0  0  0  0
  5  7  1  0  0  0  0
  7  8  1  0  0  0  0
  7  9  1  0  0  0  0
  9 10  1  0  0  0  0
  9 11  1  0  0  0  0
  9 29  1  0  0  0  0
 11 12  1  0  0  0  0
 11 13  1  0  0  0  0
 11 14  1  0  0  0  0
 14 15  2  0  0  0  0
 14 28  1  0  0  0  0
 15 16  1  0  0  0  0
 15 17  1  0  0  0  0
 17 18  1  0  0  0  0
 17 19  1  0  0  0  0
 19 20  1  0  0  0  0
 19 28  2  0  0  0  0
 20 21  1  0  0  0  0
 20 22  2  0  0  0  0
 22 23  1  0  0  0  0
 22 24  1  0  0  0  0
 24 25  1  0  0  0  0
 24 26  2  0  0  0  0
 26 27  1  0  0  0  0
 26 28  1  0  0  0  0
 29 30  2  0  0  0  0
 29 31  1  0  0  0  0
 31 32  1  0  0  0  0
 31 33  1  0  0  0  0
 33 34  1  0  0  0  0
 33 35  1  0  0  0  0
 33 36  1  0  0  0  0
M  END
$$$$

  -OEChem-03222214083D

 36 37  0     1  0  0  0  0  0999 V2000
   -3.2787   -4.7910    0.5952 H   0  0  0  0  0  0  0  0  0  0  0  0
   -3.2349   -3.9796   -0.1368 C   0  0  0  0  0  0  0  0  0  0  0  0
   -4.2087   -3.4856   -0.1749 H   0  0  0  0  0  0  0  0  0  0  0  0
   -3.0097   -4.4038   -1.1185 H   0  0  0  0  0  0  0  0  0  0  0  0
   -2.1616   -2.9816    0.2533 C   0  0  0  0  0  0  0  0  0  0  0  0
   -1.5350   -3.1327    1.2867 O   0  0  0  0  0  0  0  0  0  0  0  0
   -1.9053   -1.9047   -0.5683 N   0  0  0  0  0  0  0  0  0  0  0  0
   -2.3431   -1.9421   -1.4879 H   0  0  0  0  0  0  0  0  0  0  0  0
   -0.7078   -1.0465   -0.4596 C   0  0  1  0  0  0  0  0  0  0  0  0
    0.1637   -1.6993   -0.5704 H   0  0  0  0  0  0  0  0  0  0  0  0
   -0.6757   -0.0132   -1.6079 C   0  0  0  0  0  0  0  0  0  0  0  0
   -1.1865    0.9010   -1.2876 H   0  0  0  0  0  0  0  0  0  0  0  0
    0.3644    0.2545   -1.8212 H   0  0  0  0  0  0  0  0  0  0  0  0
   -1.3381   -0.5128   -2.8720 C   0  0  0  0  0  0  0  0  0  0  0  0
   -2.4178    0.0700   -3.4904 C   0  0  0  0  0  0  0  0  0  0  0  0
   -2.9177    0.9804   -3.1655 H   0  0  0  0  0  0  0  0  0  0  0  0
   -2.7526   -0.7213   -4.5865 N   0  0  0  0  0  0  0  0  0  0  0  0
   -3.4958   -0.5195   -5.2535 H   0  0  0  0  0  0  0  0  0  0  0  0
   -1.8878   -1.7990   -4.6877 C   0  0  0  0  0  0  0  0  0  0  0  0
   -1.8162   -2.8482   -5.6040 C   0  0  0  0  0  0  0  0  0  0  0  0
   -2.5285   -2.9144   -6.4193 H   0  0  0  0  0  0  0  0  0  0  0  0
   -0.8101   -3.8137   -5.4589 C   0  0  0  0  0  0  0  0  0  0  0  0
   -0.7410   -4.6361   -6.1650 H   0  0  0  0  0  0  0  0  0  0  0  0
    0.1127   -3.7156   -4.4064 C   0  0  0  0  0  0  0  0  0  0  0  0
    0.8963   -4.4604   -4.3013 H   0  0  0  0  0  0  0  0  0  0  0  0
    0.0314   -2.6561   -3.4921 C   0  0  0  0  0  0  0  0  0  0  0  0
    0.7502   -2.5770   -2.6829 H   0  0  0  0  0  0  0  0  0  0  0  0
   -0.9808   -1.7014   -3.6388 C   0  0  0  0  0  0  0  0  0  0  0  0
   -0.5331   -0.3197    0.8901 C   0  0  0  0  0  0  0  0  0  0  0  0
    0.5933   -0.0665    1.2977 O   0  0  0  0  0  0  0  0  0  0  0  0
   -1.6179    0.3035    1.4802 N   0  0  0  0  0  0  0  0  0  0  0  0
   -2.5290   -0.0277    1.1792 H   0  0  0  0  0  0  0  0  0  0  0  0
   -1.5189    1.0204    2.7450 C   0  0  0  0  0  0  0  0  0  0  0  0
   -0.8146    1.8545    2.6589 H   0  0  0  0  0  0  0  0  0  0  0  0
   -2.4957    1.4233    3.0292 H   0  0  0  0  0  0  0  0  0  0  0  0
   -1.1750    0.3490    3.5390 H   0  0  0  0  0  0  0  0  0  0  0  0
  1  2  1  0  0  0  0
  2  3  1  0  0  0  0
  2  4  1  0  0  0  0
  2  5  1  0  0  0  0
  5  6  2  0  0  0  0
  5  7  1  0  0  0  0
  7  8  1  0  0  0  0
  7  9  1  0  0  0  0
  9 10  1  0  0  0  0
  9 11  1  0  0  0  0
  9 29  1  0  0  0  0
 11 12  1  0  0  0  0
 11 13  1  0  0  0  0
 11 14  1  0  0  0  0
 14 15  2  0  0  0  0
 14 28  1  0  0  0  0
 15 16  1  0  0  0  0
 15 17  1  0  0  0  0
 17 18  1  0  0  0  0
 17 19  1  0  0  0  0
 19 20  1  0  0  0  0
 19 28  2  0  0  0  0
 20 21  1  0  0  0  0
 20 22  2  0  0  0  0
 22 23  1  0  0  0  0
 22 24  1  0  0  0  0
 24 25  1  0  0  0  0
 24 26  2  0  0  0  0
 26 27  1  0  0  0  0
 26 28  1  0  0  0  0
 29 30  2  0  0  0  0
 29 31  1  0  0  0  0
 31 32  1  0  0  0  0
 31 33  1  0  0  0  0
 33 34  1  0  0  0  0
 33 35  1  0  0  0  0
 33 36  1  0  0  0  0
M  END
$$$$

  -OEChem-03222214083D

 36 37  0     1  0  0  0  0  0999 V2000
   -3.3006   -4.7903    0.7445 H   0  0  0  0  0  0  0  0  0  0  0  0
   -3.2774   -3.9793    0.0110 C   0  0  0  0  0  0  0  0  0  0  0  0
   -4.2493   -3.4804    0.0061 H   0  0  0  0  0  0  0  0  0  0  0  0
   -3.0884   -4.4048   -0.9779 H   0  0  0  0  0  0  0  0  0  0  0  0
   -2.1868   -2.9858    0.3630 C   0  0  0  0  0  0  0  0  0  0  0  0
   -1.5440   -3.1223    1.3883 O   0  0  0  0  0  0  0  0  0  0  0  0
   -1.9234   -1.9358   -0.4903 N   0  0  0  0  0  0  0  0  0  0  0  0
   -2.3789   -1.9807   -1.4011 H   0  0  0  0  0  0  0  0  0  0  0  0
   -0.7249   -1.0775   -0.4067 C   0  0  1  0  0  0  0  0  0  0  0  0
    0.1481   -1.7322   -0.4902 H   0  0  0  0  0  0  0  0  0  0  0  0
   -0.6868   -0.0850   -1.5891 C   0  0  0  0  0  0  0  0  0  0  0  0
   -1.1860    0.8455   -1.2982 H   0  0  0  0  0  0  0  0  0  0  0  0
    0.3586    0.1608   -1.8023 H   0  0  0  0  0  0  0  0  0  0  0  0
   -1.3400   -0.6012   -2.8547 C   0  0  0  0  0  0  0  0  0  0  0  0
   -2.2004    0.1318   -3.6363 C   0  0  0  0  0  0  0  0  0  0  0  0
   -2.5185    1.1536   -3.4387 H   0  0  0  0  0  0  0  0  0  0  0  0
   -2.5876   -0.6676   -4.7079 N   0  0  0  0  0  0  0  0  0  0  0  0
   -3.2058   -0.3790   -5.4643 H   0  0  0  0  0  0  0  0  0  0  0  0
   -1.9564   -1.8979   -4.6449 C   0  0  0  0  0  0  0  0  0  0  0  0
   -2.0121   -3.0046   -5.4918 C   0  0  0  0  0  0  0  0  0  0  0  0
   -2.6408   -2.9867   -6.3754 H   0  0  0  0  0  0  0  0  0  0  0  0
   -1.2406   -4.1346   -5.1892 C   0  0  0  0  0  0  0  0  0  0  0  0
   -1.2713   -5.0032   -5.8408 H   0  0  0  0  0  0  0  0  0  0  0  0
   -0.4206   -4.1405   -4.0510 C   0  0  0  0  0  0  0  0  0  0  0  0
    0.1854   -5.0129   -3.8239 H   0  0  0  0  0  0  0  0  0  0  0  0
   -0.3719   -3.0207   -3.2091 C   0  0  0  0  0  0  0  0  0  0  0  0
    0.2742   -3.0288   -2.3379 H   0  0  0  0  0  0  0  0  0  0  0  0
   -1.1545   -1.8981   -3.5083 C   0  0  0  0  0  0  0  0  0  0  0  0
   -0.5555   -0.3098    0.9209 C   0  0  0  0  0  0  0  0  0  0  0  0
    0.5697   -0.0505    1.3279 O   0  0  0  0  0  0  0  0  0  0  0  0
   -1.6405    0.3335    1.4892 N   0  0  0  0  0  0  0  0  0  0  0  0
   -2.5524   -0.0014    1.1944 H   0  0  0  0  0  0  0  0  0  0  0  0
   -1.5427    1.0824    2.7355 C   0  0  0  0  0  0  0  0  0  0  0  0
   -0.8095    1.8906    2.6421 H   0  0  0  0  0  0  0  0  0  0  0  0
   -2.5112    1.5251    2.9873 H   0  0  0  0  0  0  0  0  0  0  0  0
   -1.2370    0.4226    3.5545 H   0  0  0  0  0  0  0  0  0  0  0  0
  1  2  1  0  0  0  0
  2  3  1  0  0  0  0
  2  4  1  0  0  0  0
  2  5  1  0  0  0  0
  5  6  2  0  0  0  0
  5  7  1  0  0  0  0
  7  8  1  0  0  0  0
  7  9  1  0  0  0  0
  9 10  1  0  0  0  0
  9 11  1  0  0  0  0
  9 29  1  0  0  0  0
 11 12  1  0  0  0  0
 11 13  1  0  0  0  0
 11 14  1  0  0  0  0
 14 15  2  0  0  0  0
 14 28  1  0  0  0  0
 15 16  1  0  0  0  0
 15 17  1  0  0  0  0
 17 18  1  0  0  0  0
 17 19  1  0  0  0  0
 19 20  1  0  0  0  0
 19 28  2  0  0  0  0
 20 21  1  0  0  0  0
 20 22  2  0  0  0  0
 22 23  1  0  0  0  0
 22 24  1  0  0  0  0
 24 25  1  0  0  0  0
 24 26  2  0  0  0  0
 26 27  1  0  0  0  0
 26 28  1  0  0  0  0
 29 30  2  0  0  0  0
 29 31  1  0  0  0  0
 31 32  1  0  0  0  0
 31 33  1  0  0  0  0
 33 34  1  0  0  0  0
 33 35  1  0  0  0  0
 33 36  1  0  0  0  0
M  END
$$$$

  -OEChem-03222214083D

 36 37  0     1  0  0  0  0  0999 V2000
   -3.3505   -4.7515    0.9537 H   0  0  0  0  0  0  0  0  0  0  0  0
   -3.3402   -3.9571    0.2020 C   0  0  0  0  0  0  0  0  0  0  0  0
   -4.3061   -3.4469    0.2139 H   0  0  0  0  0  0  0  0  0  0  0  0
   -3.1847   -4.4058   -0.7824 H   0  0  0  0  0  0  0  0  0  0  0  0
   -2.2287   -2.9698    0.5021 C   0  0  0  0  0  0  0  0  0  0  0  0
   -1.5599   -3.0928    1.5123 O   0  0  0  0  0  0  0  0  0  0  0  0
   -1.9658   -1.9507   -0.3882 N   0  0  0  0  0  0  0  0  0  0  0  0
   -2.4530   -2.0037   -1.2820 H   0  0  0  0  0  0  0  0  0  0  0  0
   -0.7599   -1.0999   -0.3525 C   0  0  1  0  0  0  0  0  0  0  0  0
    0.1067   -1.7649   -0.4237 H   0  0  0  0  0  0  0  0  0  0  0  0
   -0.7245   -0.1534   -1.5724 C   0  0  0  0  0  0  0  0  0  0  0  0
   -1.2085    0.7920   -1.3061 H   0  0  0  0  0  0  0  0  0  0  0  0
    0.3235    0.0729   -1.7953 H   0  0  0  0  0  0  0  0  0  0  0  0
   -1.3853   -0.6803   -2.8335 C   0  0  0  0  0  0  0  0  0  0  0  0
   -1.9814    0.1402   -3.7620 C   0  0  0  0  0  0  0  0  0  0  0  0
   -2.0846    1.2200   -3.6740 H   0  0  0  0  0  0  0  0  0  0  0  0
   -2.4283   -0.6521   -4.8144 N   0  0  0  0  0  0  0  0  0  0  0  0
   -2.8972   -0.3099   -5.6514 H   0  0  0  0  0  0  0  0  0  0  0  0
   -2.0650   -1.9708   -4.6098 C   0  0  0  0  0  0  0  0  0  0  0  0
   -2.2577   -3.1027   -5.4015 C   0  0  0  0  0  0  0  0  0  0  0  0
   -2.7913   -3.0282   -6.3427 H   0  0  0  0  0  0  0  0  0  0  0  0
   -1.7435   -4.3323   -4.9708 C   0  0  0  0  0  0  0  0  0  0  0  0
   -1.8831   -5.2224   -5.5778 H   0  0  0  0  0  0  0  0  0  0  0  0
   -1.0329   -4.4099   -3.7647 C   0  0  0  0  0  0  0  0  0  0  0  0
   -0.6175   -5.3600   -3.4412 H   0  0  0  0  0  0  0  0  0  0  0  0
   -0.8446   -3.2636   -2.9801 C   0  0  0  0  0  0  0  0  0  0  0  0
   -0.2751   -3.3355   -2.0598 H   0  0  0  0  0  0  0  0  0  0  0  0
   -1.3852   -2.0379   -3.3967 C   0  0  0  0  0  0  0  0  0  0  0  0
   -0.5676   -0.2896    0.9465 C   0  0  0  0  0  0  0  0  0  0  0  0
    0.5640   -0.0276    1.3337 O   0  0  0  0  0  0  0  0  0  0  0  0
   -1.6418    0.3791    1.5059 N   0  0  0  0  0  0  0  0  0  0  0  0
   -2.5591    0.0507    1.2204 H   0  0  0  0  0  0  0  0  0  0  0  0
   -1.5296    1.1531    2.7357 C   0  0  0  0  0  0  0  0  0  0  0  0
   -0.7781    1.9422    2.6267 H   0  0  0  0  0  0  0  0  0  0  0  0
   -2.4881    1.6231    2.9750 H   0  0  0  0  0  0  0  0  0  0  0  0
   -1.2410    0.5048    3.5700 H   0  0  0  0  0  0  0  0  0  0  0  0
  1  2  1  0  0  0  0
  2  3  1  0  0  0  0
  2  4  1  0  0  0  0
  2  5  1  0  0  0  0
  5  6  2  0  0  0  0
  5  7  1  0  0  0  0
  7  8  1  0  0  0  0
  7  9  1  0  0  0  0
  9 10  1  0  0  0  0
  9 11  1  0  0  0  0
  9 29  1  0  0  0  0
 11 12  1  0  0  0  0
 11 13  1  0  0  0  0
 11 14  1  0  0  0  0
 14 15  2  0  0  0  0
 14 28  1  0  0  0  0
 15 16  1  0  0  0  0
 15 17  1  0  0  0  0
 17 18  1  0  0  0  0
 17 19  1  0  0  0  0
 19 20  1  0  0  0  0
 19 28  2  0  0  0  0
 20 21  1  0  0  0  0
 20 22  2  0  0  0  0
 22 23  1  0  0  0  0
 22 24  1  0  0  0  0
 24 25  1  0  0  0  0
 24 26  2  0  0  0  0
 26 27  1  0  0  0  0
 26 28  1  0  0  0  0
 29 30  2  0  0  0  0
 29 31  1  0  0  0  0
 31 32  1  0  0  0  0
 31 33  1  0  0  0  0
 33 34  1  0  0  0  0
 33 35  1  0  0  0  0
 33 36  1  0  0  0  0
M  END
$$$$

  -OEChem-03222214083D

 36 37  0     1  0  0  0  0  0999 V2000
   -3.4696   -4.6483    1.2491 H   0  0  0  0  0  0  0  0  0  0  0  0
   -3.4531   -3.8926    0.4585 C   0  0  0  0  0  0  0  0  0  0  0  0
   -4.3924   -3.3350    0.4845 H   0  0  0  0  0  0  0  0  0  0  0  0
   -3.3630   -4.3961   -0.5076 H   0  0  0  0  0  0  0  0  0  0  0  0
   -2.2842   -2.9478    0.6636 C   0  0  0  0  0  0  0  0  0  0  0  0
   -1.5645   -3.0703    1.6379 O   0  0  0  0  0  0  0  0  0  0  0  0
   -2.0306   -1.9637   -0.2682 N   0  0  0  0  0  0  0  0  0  0  0  0
   -2.5706   -2.0109   -1.1316 H   0  0  0  0  0  0  0  0  0  0  0  0
   -0.8117   -1.1328   -0.2989 C   0  0  1  0  0  0  0  0  0  0  0  0
    0.0399   -1.8167   -0.3789 H   0  0  0  0  0  0  0  0  0  0  0  0
   -0.7957   -0.2255   -1.5481 C   0  0  0  0  0  0  0  0  0  0  0  0
   -1.2615    0.7313   -1.2900 H   0  0  0  0  0  0  0  0  0  0  0  0
    0.2504   -0.0161   -1.7952 H   0  0  0  0  0  0  0  0  0  0  0  0
   -1.4886   -0.7437   -2.7976 C   0  0  0  0  0  0  0  0  0  0  0  0
   -1.7979    0.1026   -3.8371 C   0  0  0  0  0  0  0  0  0  0  0  0
   -1.6761    1.1840   -3.8231 H   0  0  0  0  0  0  0  0  0  0  0  0
   -2.3072   -0.6556   -4.8841 N   0  0  0  0  0  0  0  0  0  0  0  0
   -2.6143   -0.2876   -5.7828 H   0  0  0  0  0  0  0  0  0  0  0  0
   -2.2160   -2.0005   -4.5837 C   0  0  0  0  0  0  0  0  0  0  0  0
   -2.5334   -3.1174   -5.3556 C   0  0  0  0  0  0  0  0  0  0  0  0
   -2.9691   -2.9963   -6.3412 H   0  0  0  0  0  0  0  0  0  0  0  0
   -2.2625   -4.3939   -4.8501 C   0  0  0  0  0  0  0  0  0  0  0  0
   -2.4994   -5.2749   -5.4398 H   0  0  0  0  0  0  0  0  0  0  0  0
   -1.6544   -4.5322   -3.5957 C   0  0  0  0  0  0  0  0  0  0  0  0
   -1.4121   -5.5216   -3.2189 H   0  0  0  0  0  0  0  0  0  0  0  0
   -1.3385   -3.3987   -2.8339 C   0  0  0  0  0  0  0  0  0  0  0  0
   -0.8253   -3.5304   -1.8877 H   0  0  0  0  0  0  0  0  0  0  0  0
   -1.6622   -2.1169   -3.3103 C   0  0  0  0  0  0  0  0  0  0  0  0
   -0.5677   -0.2824    0.9657 C   0  0  0  0  0  0  0  0  0  0  0  0
    0.5788   -0.0226    1.3074 O   0  0  0  0  0  0  0  0  0  0  0  0
   -1.6141    0.4222    1.5340 N   0  0  0  0  0  0  0  0  0  0  0  0
   -2.5455    0.1035    1.2864 H   0  0  0  0  0  0  0  0  0  0  0  0
   -1.4530    1.2505    2.7222 C   0  0  0  0  0  0  0  0  0  0  0  0
   -0.6913    2.0195    2.5559 H   0  0  0  0  0  0  0  0  0  0  0  0
   -2.3959    1.7492    2.9653 H   0  0  0  0  0  0  0  0  0  0  0  0
   -1.1528    0.6366    3.5779 H   0  0  0  0  0  0  0  0  0  0  0  0
  1  2  1  0  0  0  0
  2  3  1  0  0  0  0
  2  4  1  0  0  0  0
  2  5  1  0  0  0  0
  5  6  2  0  0  0  0
  5  7  1  0  0  0  0
  7  8  1  0  0  0  0
  7  9  1  0  0  0  0
  9 10  1  0  0  0  0
  9 11  1  0  0  0  0
  9 29  1  0  0  0  0
 11 12  1  0  0  0  0
 11 13  1  0  0  0  0
 11 14  1  0  0  0  0
 14 15  2  0  0  0  0
 14 28  1  0  0  0  0
 15 16  1  0  0  0  0
 15 17  1  0  0  0  0
 17 18  1  0  0  0  0
 17 19  1  0  0  0  0
 19 20  1  0  0  0  0
 19 28  2  0  0  0  0
 20 21  1  0  0  0  0
 20 22  2  0  0  0  0
 22 23  1  0  0  0  0
 22 24  1  0  0  0  0
 24 25  1  0  0  0  0
 24 26  2  0  0  0  0
 26 27  1  0  0  0  0
 26 28  1  0  0  0  0
 29 30  2  0  0  0  0
 29 31  1  0  0  0  0
 31 32  1  0  0  0  0
 31 33  1  0  0  0  0
 33 34  1  0  0  0  0
 33 35  1  0  0  0  0
 33 36  1  0  0  0  0
M  END
$$$$

  -OEChem-03222214083D

 36 37  0     1  0  0  0  0  0999 V2000
   -3.2845   -4.3960    2.0156 H   0  0  0  0  0  0  0  0  0  0  0  0
   -3.2441   -3.8984    1.0425 C   0  0  0  0  0  0  0  0  0  0  0  0
   -4.1651   -3.3275    0.9024 H   0  0  0  0  0  0  0  0  0  0  0  0
   -3.1717   -4.6588    0.2615 H   0  0  0  0  0  0  0  0  0  0  0  0
   -2.0415   -2.9759    0.9795 C   0  0  0  0  0  0  0  0  0  0  0  0
   -1.1561   -3.0764    1.8089 O   0  0  0  0  0  0  0  0  0  0  0  0
   -1.9543   -2.0256   -0.0172 N   0  0  0  0  0  0  0  0  0  0  0  0
   -2.6961   -2.0060   -0.7153 H   0  0  0  0  0  0  0  0  0  0  0  0
   -0.8099   -1.1316   -0.2280 C   0  0  1  0  0  0  0  0  0  0  0  0
    0.0651   -1.7783   -0.3585 H   0  0  0  0  0  0  0  0  0  0  0  0
   -0.9393   -0.2794   -1.5146 C   0  0  0  0  0  0  0  0  0  0  0  0
   -1.1706    0.7467   -1.2081 H   0  0  0  0  0  0  0  0  0  0  0  0
    0.0551   -0.2479   -1.9727 H   0  0  0  0  0  0  0  0  0  0  0  0
   -1.9440   -0.6141   -2.6154 C   0  0  0  0  0  0  0  0  0  0  0  0
   -1.9606    0.2394   -3.6969 C   0  0  0  0  0  0  0  0  0  0  0  0
   -1.4079    1.1749   -3.7609 H   0  0  0  0  0  0  0  0  0  0  0  0
   -2.8452   -0.2467   -4.6451 N   0  0  0  0  0  0  0  0  0  0  0  0
   -3.0675    0.2023   -5.5319 H   0  0  0  0  0  0  0  0  0  0  0  0
   -3.2701   -1.5038   -4.2795 C   0  0  0  0  0  0  0  0  0  0  0  0
   -4.0776   -2.3840   -4.9977 C   0  0  0  0  0  0  0  0  0  0  0  0
   -4.5311   -2.0747   -5.9329 H   0  0  0  0  0  0  0  0  0  0  0  0
   -4.2664   -3.6796   -4.5124 C   0  0  0  0  0  0  0  0  0  0  0  0
   -4.8891   -4.3825   -5.0582 H   0  0  0  0  0  0  0  0  0  0  0  0
   -3.6034   -4.0820   -3.3488 C   0  0  0  0  0  0  0  0  0  0  0  0
   -3.6975   -5.1077   -3.0037 H   0  0  0  0  0  0  0  0  0  0  0  0
   -2.7915   -3.1797   -2.6470 C   0  0  0  0  0  0  0  0  0  0  0  0
   -2.2272   -3.5767   -1.8155 H   0  0  0  0  0  0  0  0  0  0  0  0
   -2.6712   -1.8371   -3.0612 C   0  0  0  0  0  0  0  0  0  0  0  0
   -0.4888   -0.2094    0.9686 C   0  0  0  0  0  0  0  0  0  0  0  0
    0.6673    0.1381    1.1720 O   0  0  0  0  0  0  0  0  0  0  0  0
   -1.5121    0.4536    1.6226 N   0  0  0  0  0  0  0  0  0  0  0  0
   -2.4494    0.0960    1.4684 H   0  0  0  0  0  0  0  0  0  0  0  0
   -1.2813    1.3744    2.7283 C   0  0  0  0  0  0  0  0  0  0  0  0
   -0.6516    2.2106    2.4066 H   0  0  0  0  0  0  0  0  0  0  0  0
   -2.2322    1.7782    3.0890 H   0  0  0  0  0  0  0  0  0  0  0  0
   -0.7847    0.8591    3.5571 H   0  0  0  0  0  0  0  0  0  0  0  0
  1  2  1  0  0  0  0
  2  3  1  0  0  0  0
  2  4  1  0  0  0  0
  2  5  1  0  0  0  0
  5  6  2  0  0  0  0
  5  7  1  0  0  0  0
  7  8  1  0  0  0  0
  7  9  1  0  0  0  0
  9 10  1  0  0  0  0
  9 11  1  0  0  0  0
  9 29  1  0  0  0  0
 11 12  1  0  0  0  0
 11 13  1  0  0  0  0
 11 14  1  0  0  0  0
 14 15  2  0  0  0  0
 14 28  1  0  0  0  0
 15 16  1  0  0  0  0
 15 17  1  0  0  0  0
 17 18  1  0  0  0  0
 17 19  1  0  0  0  0
 19 20  1  0  0  0  0
 19 28  2  0  0  0  0
 20 21  1  0  0  0  0
 20 22  2  0  0  0  0
 22 23  1  0  0  0  0
 22 24  1  0  0  0  0
 24 25  1  0  0  0  0
 24 26  2  0  0  0  0
 26 27  1  0  0  0  0
 26 28  1  0  0  0  0
 29 30  2  0  0  0  0
 29 31  1  0  0  0  0
 31 32  1  0  0  0  0
 31 33  1  0  0  0  0
 33 34  1  0  0  0  0
 33 35  1  0  0  0  0
 33 36  1  0  0  0  0
M  END
$$$$

  -OEChem-03222214083D

 36 37  0     1  0  0  0  0  0999 V2000
   -2.1280   -5.0903    1.6026 H   0  0  0  0  0  0  0  0  0  0  0  0
   -2.3782   -4.3981    0.7935 C   0  0  0  0  0  0  0  0  0  0  0  0
   -3.4378   -4.1418    0.8641 H   0  0  0  0  0  0  0  0  0  0  0  0
   -2.1932   -4.8943   -0.1626 H   0  0  0  0  0  0  0  0  0  0  0  0
   -1.5325   -3.1431    0.9000 C   0  0  0  0  0  0  0  0  0  0  0  0
   -0.8192   -2.9717    1.8716 O   0  0  0  0  0  0  0  0  0  0  0  0
   -1.5891   -2.1996   -0.1054 N   0  0  0  0  0  0  0  0  0  0  0  0
   -2.0547   -2.4972   -0.9605 H   0  0  0  0  0  0  0  0  0  0  0  0
   -0.6413   -1.0944   -0.2561 C   0  0  1  0  0  0  0  0  0  0  0  0
    0.3506   -1.5558   -0.3155 H   0  0  0  0  0  0  0  0  0  0  0  0
   -0.8307   -0.2769   -1.5610 C   0  0  0  0  0  0  0  0  0  0  0  0
   -1.2905    0.6784   -1.2841 H   0  0  0  0  0  0  0  0  0  0  0  0
    0.1690   -0.0384   -1.9392 H   0  0  0  0  0  0  0  0  0  0  0  0
   -1.6765   -0.7986   -2.7227 C   0  0  0  0  0  0  0  0  0  0  0  0
   -1.4989   -0.1593   -3.9303 C   0  0  0  0  0  0  0  0  0  0  0  0
   -0.7292    0.5824   -4.1354 H   0  0  0  0  0  0  0  0  0  0  0  0
   -2.4024   -0.6641   -4.8498 N   0  0  0  0  0  0  0  0  0  0  0  0
   -2.4661   -0.3895   -5.8286 H   0  0  0  0  0  0  0  0  0  0  0  0
   -3.2937   -1.4967   -4.2127 C   0  0  0  0  0  0  0  0  0  0  0  0
   -4.4135   -2.1278   -4.7519 C   0  0  0  0  0  0  0  0  0  0  0  0
   -4.6213   -2.0646   -5.8146 H   0  0  0  0  0  0  0  0  0  0  0  0
   -5.2793   -2.8158   -3.9001 C   0  0  0  0  0  0  0  0  0  0  0  0
   -6.1591   -3.3126   -4.2992 H   0  0  0  0  0  0  0  0  0  0  0  0
   -5.0331   -2.8163   -2.5241 C   0  0  0  0  0  0  0  0  0  0  0  0
   -5.7379   -3.3007   -1.8544 H   0  0  0  0  0  0  0  0  0  0  0  0
   -3.9016   -2.1709   -2.0045 C   0  0  0  0  0  0  0  0  0  0  0  0
   -3.8242   -2.1318   -0.9275 H   0  0  0  0  0  0  0  0  0  0  0  0
   -2.9575   -1.5563   -2.8563 C   0  0  0  0  0  0  0  0  0  0  0  0
   -0.5836   -0.1230    0.9444 C   0  0  0  0  0  0  0  0  0  0  0  0
    0.4657    0.4523    1.2046 O   0  0  0  0  0  0  0  0  0  0  0  0
   -1.7559    0.3220    1.5287 N   0  0  0  0  0  0  0  0  0  0  0  0
   -2.5843   -0.2336    1.3417 H   0  0  0  0  0  0  0  0  0  0  0  0
   -1.7790    1.2650    2.6390 C   0  0  0  0  0  0  0  0  0  0  0  0
   -1.3151    2.2129    2.3465 H   0  0  0  0  0  0  0  0  0  0  0  0
   -2.8107    1.4659    2.9424 H   0  0  0  0  0  0  0  0  0  0  0  0
   -1.2373    0.8570    3.4990 H   0  0  0  0  0  0  0  0  0  0  0  0
  1  2  1  0  0  0  0
  2  3  1  0  0  0  0
  2  4  1  0  0  0  0
  2  5  1  0  0  0  0
  5  6  2  0  0  0  0
  5  7  1  0  0  0  0
  7  8  1  0  0  0  0
  7  9  1  0  0  0  0
  9 10  1  0  0  0  0
  9 11  1  0  0  0  0
  9 29  1  0  0  0  0
 11 12  1  0  0  0  0
 11 13  1  0  0  0  0
 11 14  1  0  0  0  0
 14 15  2  0  0  0  0
 14 28  1  0  0  0  0
 15 16  1  0  0  0  0
 15 17  1  0  0  0  0
 17 18  1  0  0  0  0
 17 19  1  0  0  0  0
 19 20  1  0  0  0  0
 19 28  2  0  0  0  0
 20 21  1  0  0  0  0
 20 22  2  0  0  0  0
 22 23  1  0  0  0  0
 22 24  1  0  0  0  0
 24 25  1  0  0  0  0
 24 26  2  0  0  0  0
 26 27  1  0  0  0  0
 26 28  1  0  0  0  0
 29 30  2  0  0  0  0
 29 31  1  0  0  0  0
 31 32  1  0  0  0  0
 31 33  1  0  0  0  0
 33 34  1  0  0  0  0
 33 35  1  0  0  0  0
 33 36  1  0  0  0  0
M  END
$$$$

  -OEChem-03222214083D

 36 37  0     1  0  0  0  0  0999 V2000
   -2.3256   -5.1615    1.3392 H   0  0  0  0  0  0  0  0  0  0  0  0
   -2.5737   -4.3983    0.5962 C   0  0  0  0  0  0  0  0  0  0  0  0
   -3.6101   -4.0853    0.7428 H   0  0  0  0  0  0  0  0  0  0  0  0
   -2.4690   -4.8337   -0.4009 H   0  0  0  0  0  0  0  0  0  0  0  0
   -1.6470   -3.2064    0.7445 C   0  0  0  0  0  0  0  0  0  0  0  0
   -0.9082   -3.1260    1.7090 O   0  0  0  0  0  0  0  0  0  0  0  0
   -1.6591   -2.2114   -0.2102 N   0  0  0  0  0  0  0  0  0  0  0  0
   -2.1915   -2.4100   -1.0564 H   0  0  0  0  0  0  0  0  0  0  0  0
   -0.6638   -1.1344   -0.3077 C   0  0  1  0  0  0  0  0  0  0  0  0
    0.3081   -1.6335   -0.3873 H   0  0  0  0  0  0  0  0  0  0  0  0
   -0.8136   -0.2567   -1.5792 C   0  0  0  0  0  0  0  0  0  0  0  0
   -1.2527    0.7004   -1.2778 H   0  0  0  0  0  0  0  0  0  0  0  0
    0.1892   -0.0333   -1.9582 H   0  0  0  0  0  0  0  0  0  0  0  0
   -1.6835   -0.7645   -2.7199 C   0  0  0  0  0  0  0  0  0  0  0  0
   -1.3834   -0.4192   -4.0182 C   0  0  0  0  0  0  0  0  0  0  0  0
   -0.4760    0.0909   -4.3358 H   0  0  0  0  0  0  0  0  0  0  0  0
   -2.4027   -0.8679   -4.8466 N   0  0  0  0  0  0  0  0  0  0  0  0
   -2.4271   -0.7644   -5.8596 H   0  0  0  0  0  0  0  0  0  0  0  0
   -3.4486   -1.3473   -4.0862 C   0  0  0  0  0  0  0  0  0  0  0  0
   -4.7052   -1.8001   -4.4852 C   0  0  0  0  0  0  0  0  0  0  0  0
   -4.9493   -1.8825   -5.5388 H   0  0  0  0  0  0  0  0  0  0  0  0
   -5.6546   -2.1184   -3.5089 C   0  0  0  0  0  0  0  0  0  0  0  0
   -6.6399   -2.4689   -3.8028 H   0  0  0  0  0  0  0  0  0  0  0  0
   -5.3453   -1.9413   -2.1547 C   0  0  0  0  0  0  0  0  0  0  0  0
   -6.0997   -2.1427   -1.3996 H   0  0  0  0  0  0  0  0  0  0  0  0
   -4.0767   -1.4823   -1.7734 C   0  0  0  0  0  0  0  0  0  0  0  0
   -3.8919   -1.2931   -0.7226 H   0  0  0  0  0  0  0  0  0  0  0  0
   -3.0870   -1.2394   -2.7437 C   0  0  0  0  0  0  0  0  0  0  0  0
   -0.5638   -0.2222    0.9347 C   0  0  0  0  0  0  0  0  0  0  0  0
    0.5102    0.2952    1.2145 O   0  0  0  0  0  0  0  0  0  0  0  0
   -1.7125    0.2471    1.5465 N   0  0  0  0  0  0  0  0  0  0  0  0
   -2.5630   -0.2695    1.3496 H   0  0  0  0  0  0  0  0  0  0  0  0
   -1.6845    1.1380    2.6997 C   0  0  0  0  0  0  0  0  0  0  0  0
   -1.1563    2.0659    2.4555 H   0  0  0  0  0  0  0  0  0  0  0  0
   -2.7036    1.3936    3.0055 H   0  0  0  0  0  0  0  0  0  0  0  0
   -1.1783    0.6559    3.5426 H   0  0  0  0  0  0  0  0  0  0  0  0
  1  2  1  0  0  0  0
  2  3  1  0  0  0  0
  2  4  1  0  0  0  0
  2  5  1  0  0  0  0
  5  6  2  0  0  0  0
  5  7  1  0  0  0  0
  7  8  1  0  0  0  0
  7  9  1  0  0  0  0
  9 10  1  0  0  0  0
  9 11  1  0  0  0  0
  9 29  1  0  0  0  0
 11 12  1  0  0  0  0
 11 13  1  0  0  0  0
 11 14  1  0  0  0  0
 14 15  2  0  0  0  0
 14 28  1  0  0  0  0
 15 16  1  0  0  0  0
 15 17  1  0  0  0  0
 17 18  1  0  0  0  0
 17 19  1  0  0  0  0
 19 20  1  0  0  0  0
 19 28  2  0  0  0  0
 20 21  1  0  0  0  0
 20 22  2  0  0  0  0
 22 23  1  0  0  0  0
 22 24  1  0  0  0  0
 24 25  1  0  0  0  0
 24 26  2  0  0  0  0
 26 27  1  0  0  0  0
 26 28  1  0  0  0  0
 29 30  2  0  0  0  0
 29 31  1  0  0  0  0
 31 32  1  0  0  0  0
 31 33  1  0  0  0  0
 33 34  1  0  0  0  0
 33 35  1  0  0  0  0
 33 36  1  0  0  0  0
M  END
$$$$

  -OEChem-03222214083D

 36 37  0     1  0  0  0  0  0999 V2000
   -2.6373   -5.0770    1.1938 H   0  0  0  0  0  0  0  0  0  0  0  0
   -2.7955   -4.2990    0.4415 C   0  0  0  0  0  0  0  0  0  0  0  0
   -3.8089   -3.9044    0.5480 H   0  0  0  0  0  0  0  0  0  0  0  0
   -2.6879   -4.7427   -0.5515 H   0  0  0  0  0  0  0  0  0  0  0  0
   -1.7836   -3.1840    0.6233 C   0  0  0  0  0  0  0  0  0  0  0  0
   -1.0250   -3.1947    1.5758 O   0  0  0  0  0  0  0  0  0  0  0  0
   -1.7392   -2.1524   -0.2894 N   0  0  0  0  0  0  0  0  0  0  0  0
   -2.3213   -2.2563   -1.1199 H   0  0  0  0  0  0  0  0  0  0  0  0
   -0.6942   -1.1158   -0.3416 C   0  0  1  0  0  0  0  0  0  0  0  0
    0.2554   -1.6534   -0.4382 H   0  0  0  0  0  0  0  0  0  0  0  0
   -0.8106   -0.1936   -1.5836 C   0  0  0  0  0  0  0  0  0  0  0  0
   -1.2114    0.7740   -1.2633 H   0  0  0  0  0  0  0  0  0  0  0  0
    0.1963   -0.0042   -1.9696 H   0  0  0  0  0  0  0  0  0  0  0  0
   -1.7089   -0.6779   -2.7069 C   0  0  0  0  0  0  0  0  0  0  0  0
   -1.3378   -0.6327   -4.0303 C   0  0  0  0  0  0  0  0  0  0  0  0
   -0.3504   -0.3582   -4.3968 H   0  0  0  0  0  0  0  0  0  0  0  0
   -2.4304   -1.0138   -4.8022 N   0  0  0  0  0  0  0  0  0  0  0  0
   -2.4402   -1.0731   -5.8189 H   0  0  0  0  0  0  0  0  0  0  0  0
   -3.5431   -1.1877   -4.0013 C   0  0  0  0  0  0  0  0  0  0  0  0
   -4.8635   -1.4936   -4.3287 C   0  0  0  0  0  0  0  0  0  0  0  0
   -5.1425   -1.6835   -5.3596 H   0  0  0  0  0  0  0  0  0  0  0  0
   -5.8265   -1.5315   -3.3124 C   0  0  0  0  0  0  0  0  0  0  0  0
   -6.8599   -1.7643   -3.5527 H   0  0  0  0  0  0  0  0  0  0  0  0
   -5.4611   -1.2410   -1.9906 C   0  0  0  0  0  0  0  0  0  0  0  0
   -6.2159   -1.2415   -1.2097 H   0  0  0  0  0  0  0  0  0  0  0  0
   -4.1297   -0.9336   -1.6776 C   0  0  0  0  0  0  0  0  0  0  0  0
   -3.8642   -0.6748   -0.6582 H   0  0  0  0  0  0  0  0  0  0  0  0
   -3.1555   -0.9449   -2.6870 C   0  0  0  0  0  0  0  0  0  0  0  0
   -0.5620   -0.2568    0.9342 C   0  0  0  0  0  0  0  0  0  0  0  0
    0.5304    0.2046    1.2393 O   0  0  0  0  0  0  0  0  0  0  0  0
   -1.6957    0.2373    1.5544 N   0  0  0  0  0  0  0  0  0  0  0  0
   -2.5612   -0.2468    1.3416 H   0  0  0  0  0  0  0  0  0  0  0  0
   -1.6397    1.0750    2.7454 C   0  0  0  0  0  0  0  0  0  0  0  0
   -1.0740    1.9912    2.5456 H   0  0  0  0  0  0  0  0  0  0  0  0
   -2.6499    1.3569    3.0568 H   0  0  0  0  0  0  0  0  0  0  0  0
   -1.1589    0.5362    3.5688 H   0  0  0  0  0  0  0  0  0  0  0  0
  1  2  1  0  0  0  0
  2  3  1  0  0  0  0
  2  4  1  0  0  0  0
  2  5  1  0  0  0  0
  5  6  2  0  0  0  0
  5  7  1  0  0  0  0
  7  8  1  0  0  0  0
  7  9  1  0  0  0  0
  9 10  1  0  0  0  0
  9 11  1  0  0  0  0
  9 29  1  0  0  0  0
 11 12  1  0  0  0  0
 11 13  1  0  0  0  0
 11 14  1  0  0  0  0
 14 15  2  0  0  0  0
 14 28  1  0  0  0  0
 15 16  1  0  0  0  0
 15 17  1  0  0  0  0
 17 18  1  0  0  0  0
 17 19  1  0  0  0  0
 19 20  1  0  0  0  0
 19 28  2  0  0  0  0
 20 21  1  0  0  0  0
 20 22  2  0  0  0  0
 22 23  1  0  0  0  0
 22 24  1  0  0  0  0
 24 25  1  0  0  0  0
 24 26  2  0  0  0  0
 26 27  1  0  0  0  0
 26 28  1  0  0  0  0
 29 30  2  0  0  0  0
 29 31  1  0  0  0  0
 31 32  1  0  0  0  0
 31 33  1  0  0  0  0
 33 34  1  0  0  0  0
 33 35  1  0  0  0  0
 33 36  1  0  0  0  0
M  END
$$$$

  -OEChem-03222214083D

 36 37  0     1  0  0  0  0  0999 V2000
   -2.9831   -4.9269    1.0787 H   0  0  0  0  0  0  0  0  0  0  0  0
   -3.0360   -4.1580    0.3027 C   0  0  0  0  0  0  0  0  0  0  0  0
   -4.0165   -3.6776    0.3477 H   0  0  0  0  0  0  0  0  0  0  0  0
   -2.9157   -4.6342   -0.6733 H   0  0  0  0  0  0  0  0  0  0  0  0
   -1.9431   -3.1279    0.5136 C   0  0  0  0  0  0  0  0  0  0  0  0
   -1.1919   -3.2193    1.4677 O   0  0  0  0  0  0  0  0  0  0  0  0
   -1.8201   -2.0762   -0.3680 N   0  0  0  0  0  0  0  0  0  0  0  0
   -2.4167   -2.0998   -1.1947 H   0  0  0  0  0  0  0  0  0  0  0  0
   -0.7165   -1.0974   -0.3718 C   0  0  1  0  0  0  0  0  0  0  0  0
    0.2065   -1.6791   -0.4717 H   0  0  0  0  0  0  0  0  0  0  0  0
   -0.7780   -0.1352   -1.5870 C   0  0  0  0  0  0  0  0  0  0  0  0
   -1.1255    0.8476   -1.2514 H   0  0  0  0  0  0  0  0  0  0  0  0
    0.2366    0.0029   -1.9742 H   0  0  0  0  0  0  0  0  0  0  0  0
   -1.6985   -0.5731   -2.7068 C   0  0  0  0  0  0  0  0  0  0  0  0
   -1.3022   -0.8238   -3.9984 C   0  0  0  0  0  0  0  0  0  0  0  0
   -0.2771   -0.7903   -4.3624 H   0  0  0  0  0  0  0  0  0  0  0  0
   -2.4398   -1.1355   -4.7393 N   0  0  0  0  0  0  0  0  0  0  0  0
   -2.4505   -1.3582   -5.7334 H   0  0  0  0  0  0  0  0  0  0  0  0
   -3.5742   -1.0237   -3.9535 C   0  0  0  0  0  0  0  0  0  0  0  0
   -4.9261   -1.1992   -4.2467 C   0  0  0  0  0  0  0  0  0  0  0  0
   -5.2352   -1.4949   -5.2432 H   0  0  0  0  0  0  0  0  0  0  0  0
   -5.8777   -0.9793   -3.2413 C   0  0  0  0  0  0  0  0  0  0  0  0
   -6.9340   -1.1108   -3.4571 H   0  0  0  0  0  0  0  0  0  0  0  0
   -5.4682   -0.5733   -1.9623 C   0  0  0  0  0  0  0  0  0  0  0  0
   -6.2105   -0.3863   -1.1916 H   0  0  0  0  0  0  0  0  0  0  0  0
   -4.1062   -0.3979   -1.6808 C   0  0  0  0  0  0  0  0  0  0  0  0
   -3.7878   -0.0647   -0.6985 H   0  0  0  0  0  0  0  0  0  0  0  0
   -3.1595   -0.6472   -2.6816 C   0  0  0  0  0  0  0  0  0  0  0  0
   -0.5668   -0.2842    0.9310 C   0  0  0  0  0  0  0  0  0  0  0  0
    0.5416    0.1094    1.2710 O   0  0  0  0  0  0  0  0  0  0  0  0
   -1.6862    0.2531    1.5413 N   0  0  0  0  0  0  0  0  0  0  0  0
   -2.5687   -0.1877    1.3050 H   0  0  0  0  0  0  0  0  0  0  0  0
   -1.6087    1.0505    2.7587 C   0  0  0  0  0  0  0  0  0  0  0  0
   -0.9968    1.9437    2.5937 H   0  0  0  0  0  0  0  0  0  0  0  0
   -2.6086    1.3713    3.0658 H   0  0  0  0  0  0  0  0  0  0  0  0
   -1.1660    0.4650    3.5715 H   0  0  0  0  0  0  0  0  0  0  0  0
  1  2  1  0  0  0  0
  2  3  1  0  0  0  0
  2  4  1  0  0  0  0
  2  5  1  0  0  0  0
  5  6  2  0  0  0  0
  5  7  1  0  0  0  0
  7  8  1  0  0  0  0
  7  9  1  0  0  0  0
  9 10  1  0  0  0  0
  9 11  1  0  0  0  0
  9 29  1  0  0  0  0
 11 12  1  0  0  0  0
 11 13  1  0  0  0  0
 11 14  1  0  0  0  0
 14 15  2  0  0  0  0
 14 28  1  0  0  0  0
 15 16  1  0  0  0  0
 15 17  1  0  0  0  0
 17 18  1  0  0  0  0
 17 19  1  0  0  0  0
 19 20  1  0  0  0  0
 19 28  2  0  0  0  0
 20 21  1  0  0  0  0
 20 22  2  0  0  0  0
 22 23  1  0  0  0  0
 22 24  1  0  0  0  0
 24 25  1  0  0  0  0
 24 26  2  0  0  0  0
 26 27  1  0  0  0  0
 26 28  1  0  0  0  0
 29 30  2  0  0  0  0
 29 31  1  0  0  0  0
 31 32  1  0  0  0  0
 31 33  1  0  0  0  0
 33 34  1  0  0  0  0
 33 35  1  0  0  0  0
 33 36  1  0  0  0  0
M  END
$$$$

  -OEChem-03222214083D

 36 37  0     1  0  0  0  0  0999 V2000
   -3.2187   -4.8069    0.9166 H   0  0  0  0  0  0  0  0  0  0  0  0
   -3.2207   -4.0103    0.1676 C   0  0  0  0  0  0  0  0  0  0  0  0
   -4.1693   -3.4711    0.2283 H   0  0  0  0  0  0  0  0  0  0  0  0
   -3.1285   -4.4596   -0.8242 H   0  0  0  0  0  0  0  0  0  0  0  0
   -2.0665   -3.0574    0.4136 C   0  0  0  0  0  0  0  0  0  0  0  0
   -1.3265   -3.2221    1.3668 O   0  0  0  0  0  0  0  0  0  0  0  0
   -1.8713   -1.9940   -0.4399 N   0  0  0  0  0  0  0  0  0  0  0  0
   -2.4767   -1.9432   -1.2591 H   0  0  0  0  0  0  0  0  0  0  0  0
   -0.7232   -1.0668   -0.3992 C   0  0  1  0  0  0  0  0  0  0  0  0
    0.1760   -1.6849   -0.4954 H   0  0  0  0  0  0  0  0  0  0  0  0
   -0.7302   -0.0814   -1.5957 C   0  0  0  0  0  0  0  0  0  0  0  0
   -1.0319    0.9153   -1.2572 H   0  0  0  0  0  0  0  0  0  0  0  0
    0.2915    0.0094   -1.9786 H   0  0  0  0  0  0  0  0  0  0  0  0
   -1.6607   -0.4895   -2.7154 C   0  0  0  0  0  0  0  0  0  0  0  0
   -1.2828   -1.0271   -3.9211 C   0  0  0  0  0  0  0  0  0  0  0  0
   -0.2590   -1.2286   -4.2305 H   0  0  0  0  0  0  0  0  0  0  0  0
   -2.4434   -1.2802   -4.6500 N   0  0  0  0  0  0  0  0  0  0  0  0
   -2.4721   -1.6670   -5.5922 H   0  0  0  0  0  0  0  0  0  0  0  0
   -3.5626   -0.8867   -3.9340 C   0  0  0  0  0  0  0  0  0  0  0  0
   -4.9246   -0.9304   -4.2318 C   0  0  0  0  0  0  0  0  0  0  0  0
   -5.2652   -1.3356   -5.1785 H   0  0  0  0  0  0  0  0  0  0  0  0
   -5.8453   -0.4411   -3.2941 C   0  0  0  0  0  0  0  0  0  0  0  0
   -6.9089   -0.4677   -3.5140 H   0  0  0  0  0  0  0  0  0  0  0  0
   -5.3948    0.0921   -2.0764 C   0  0  0  0  0  0  0  0  0  0  0  0
   -6.1108    0.4811   -1.3583 H   0  0  0  0  0  0  0  0  0  0  0  0
   -4.0235    0.1327   -1.7884 C   0  0  0  0  0  0  0  0  0  0  0  0
   -3.6678    0.5549   -0.8540 H   0  0  0  0  0  0  0  0  0  0  0  0
   -3.1144   -0.3705   -2.7245 C   0  0  0  0  0  0  0  0  0  0  0  0
   -0.5679   -0.2894    0.9240 C   0  0  0  0  0  0  0  0  0  0  0  0
    0.5477    0.0463    1.3003 O   0  0  0  0  0  0  0  0  0  0  0  0
   -1.6788    0.2838    1.5168 N   0  0  0  0  0  0  0  0  0  0  0  0
   -2.5714   -0.1175    1.2494 H   0  0  0  0  0  0  0  0  0  0  0  0
   -1.6017    1.0458    2.7568 C   0  0  0  0  0  0  0  0  0  0  0  0
   -0.9133    1.8904    2.6474 H   0  0  0  0  0  0  0  0  0  0  0  0
   -2.5878    1.4395    3.0206 H   0  0  0  0  0  0  0  0  0  0  0  0
   -1.2499    0.4085    3.5749 H   0  0  0  0  0  0  0  0  0  0  0  0
  1  2  1  0  0  0  0
  2  3  1  0  0  0  0
  2  4  1  0  0  0  0
  2  5  1  0  0  0  0
  5  6  2  0  0  0  0
  5  7  1  0  0  0  0
  7  8  1  0  0  0  0
  7  9  1  0  0  0  0
  9 10  1  0  0  0  0
  9 11  1  0  0  0  0
  9 29  1  0  0  0  0
 11 12  1  0  0  0  0
 11 13  1  0  0  0  0
 11 14  1  0  0  0  0
 14 15  2  0  0  0  0
 14 28  1  0  0  0  0
 15 16  1  0  0  0  0
 15 17  1  0  0  0  0
 17 18  1  0  0  0  0
 17 19  1  0  0  0  0
 19 20  1  0  0  0  0
 19 28  2  0  0  0  0
 20 21  1  0  0  0  0
 20 22  2  0  0  0  0
 22 23  1  0  0  0  0
 22 24  1  0  0  0  0
 24 25  1  0  0  0  0
 24 26  2  0  0  0  0
 26 27  1  0  0  0  0
 26 28  1  0  0  0  0
 29 30  2  0  0  0  0
 29 31  1  0  0  0  0
 31 32  1  0  0  0  0
 31 33  1  0  0  0  0
 33 34  1  0  0  0  0
 33 35  1  0  0  0  0
 33 36  1  0  0  0  0
M  END
$$$$

  -OEChem-03222214083D

 36 37  0     1  0  0  0  0  0999 V2000
   -3.3510   -4.7194    0.8333 H   0  0  0  0  0  0  0  0  0  0  0  0
   -3.3263   -3.9119    0.0961 C   0  0  0  0  0  0  0  0  0  0  0  0
   -4.2540   -3.3388    0.1686 H   0  0  0  0  0  0  0  0  0  0  0  0
   -3.2534   -4.3490   -0.9026 H   0  0  0  0  0  0  0  0  0  0  0  0
   -2.1368   -3.0066    0.3531 C   0  0  0  0  0  0  0  0  0  0  0  0
   -1.4096   -3.2088    1.3087 O   0  0  0  0  0  0  0  0  0  0  0  0
   -1.8891   -1.9486   -0.4940 N   0  0  0  0  0  0  0  0  0  0  0  0
   -2.4881   -1.8611   -1.3148 H   0  0  0  0  0  0  0  0  0  0  0  0
   -0.7132   -1.0571   -0.4217 C   0  0  1  0  0  0  0  0  0  0  0  0
    0.1720   -1.6967   -0.5028 H   0  0  0  0  0  0  0  0  0  0  0  0
   -0.6777   -0.0602   -1.6072 C   0  0  0  0  0  0  0  0  0  0  0  0
   -0.9450    0.9464   -1.2688 H   0  0  0  0  0  0  0  0  0  0  0  0
    0.3488   -0.0054   -1.9836 H   0  0  0  0  0  0  0  0  0  0  0  0
   -1.6083   -0.4451   -2.7330 C   0  0  0  0  0  0  0  0  0  0  0  0
   -1.2968   -1.2389   -3.8098 C   0  0  0  0  0  0  0  0  0  0  0  0
   -0.3163   -1.6607   -4.0233 H   0  0  0  0  0  0  0  0  0  0  0  0
   -2.4644   -1.4154   -4.5498 N   0  0  0  0  0  0  0  0  0  0  0  0
   -2.5347   -1.9419   -5.4193 H   0  0  0  0  0  0  0  0  0  0  0  0
   -3.5222   -0.7453   -3.9560 C   0  0  0  0  0  0  0  0  0  0  0  0
   -4.8680   -0.6314   -4.3035 C   0  0  0  0  0  0  0  0  0  0  0  0
   -5.2465   -1.1217   -5.1938 H   0  0  0  0  0  0  0  0  0  0  0  0
   -5.7229    0.1239   -3.4879 C   0  0  0  0  0  0  0  0  0  0  0  0
   -6.7727    0.2226   -3.7483 H   0  0  0  0  0  0  0  0  0  0  0  0
   -5.2238    0.7562   -2.3385 C   0  0  0  0  0  0  0  0  0  0  0  0
   -5.8884    1.3449   -1.7129 H   0  0  0  0  0  0  0  0  0  0  0  0
   -3.8688    0.6362   -1.9991 C   0  0  0  0  0  0  0  0  0  0  0  0
   -3.4762    1.1294   -1.1154 H   0  0  0  0  0  0  0  0  0  0  0  0
   -3.0257   -0.1211   -2.8185 C   0  0  0  0  0  0  0  0  0  0  0  0
   -0.5730   -0.2899    0.9091 C   0  0  0  0  0  0  0  0  0  0  0  0
    0.5402   -0.0003    1.3282 O   0  0  0  0  0  0  0  0  0  0  0  0
   -1.6837    0.3137    1.4717 N   0  0  0  0  0  0  0  0  0  0  0  0
   -2.5818   -0.0388    1.1567 H   0  0  0  0  0  0  0  0  0  0  0  0
   -1.6247    1.0585    2.7229 C   0  0  0  0  0  0  0  0  0  0  0  0
   -0.9126    1.8867    2.6438 H   0  0  0  0  0  0  0  0  0  0  0  0
   -2.6081    1.4734    2.9629 H   0  0  0  0  0  0  0  0  0  0  0  0
   -1.3134    0.4029    3.5431 H   0  0  0  0  0  0  0  0  0  0  0  0
  1  2  1  0  0  0  0
  2  3  1  0  0  0  0
  2  4  1  0  0  0  0
  2  5  1  0  0  0  0
  5  6  2  0  0  0  0
  5  7  1  0  0  0  0
  7  8  1  0  0  0  0
  7  9  1  0  0  0  0
  9 10  1  0  0  0  0
  9 11  1  0  0  0  0
  9 29  1  0  0  0  0
 11 12  1  0  0  0  0
 11 13  1  0  0  0  0
 11 14  1  0  0  0  0
 14 15  2  0  0  0  0
 14 28  1  0  0  0  0
 15 16  1  0  0  0  0
 15 17  1  0  0  0  0
 17 18  1  0  0  0  0
 17 19  1  0  0  0  0
 19 20  1  0  0  0  0
 19 28  2  0  0  0  0
 20 21  1  0  0  0  0
 20 22  2  0  0  0  0
 22 23  1  0  0  0  0
 22 24  1  0  0  0  0
 24 25  1  0  0  0  0
 24 26  2  0  0  0  0
 26 27  1  0  0  0  0
 26 28  1  0  0  0  0
 29 30  2  0  0  0  0
 29 31  1  0  0  0  0
 31 32  1  0  0  0  0
 31 33  1  0  0  0  0
 33 34  1  0  0  0  0
 33 35  1  0  0  0  0
 33 36  1  0  0  0  0
M  END
$$$$

  -OEChem-03222214083D

 36 37  0     1  0  0  0  0  0999 V2000
   -3.3911   -4.6840    0.8316 H   0  0  0  0  0  0  0  0  0  0  0  0
   -3.3567   -3.8773    0.0940 C   0  0  0  0  0  0  0  0  0  0  0  0
   -4.2711   -3.2850    0.1766 H   0  0  0  0  0  0  0  0  0  0  0  0
   -3.3040   -4.3158   -0.9052 H   0  0  0  0  0  0  0  0  0  0  0  0
   -2.1456   -2.9979    0.3390 C   0  0  0  0  0  0  0  0  0  0  0  0
   -1.4081   -3.2222    1.2819 O   0  0  0  0  0  0  0  0  0  0  0  0
   -1.8868   -1.9409   -0.5065 N   0  0  0  0  0  0  0  0  0  0  0  0
   -2.4986   -1.8284   -1.3147 H   0  0  0  0  0  0  0  0  0  0  0  0
   -0.7045   -1.0585   -0.4268 C   0  0  1  0  0  0  0  0  0  0  0  0
    0.1775   -1.7028   -0.5072 H   0  0  0  0  0  0  0  0  0  0  0  0
   -0.6616   -0.0601   -1.6099 C   0  0  0  0  0  0  0  0  0  0  0  0
   -0.9209    0.9465   -1.2661 H   0  0  0  0  0  0  0  0  0  0  0  0
    0.3647   -0.0095   -1.9874 H   0  0  0  0  0  0  0  0  0  0  0  0
   -1.5914   -0.4361   -2.7395 C   0  0  0  0  0  0  0  0  0  0  0  0
   -1.3816   -1.4426   -3.6513 C   0  0  0  0  0  0  0  0  0  0  0  0
   -0.4855   -2.0567   -3.7185 H   0  0  0  0  0  0  0  0  0  0  0  0
   -2.5238   -1.5355   -4.4429 N   0  0  0  0  0  0  0  0  0  0  0  0
   -2.6442   -2.1724   -5.2294 H   0  0  0  0  0  0  0  0  0  0  0  0
   -3.4695   -0.6064   -4.0387 C   0  0  0  0  0  0  0  0  0  0  0  0
   -4.7530   -0.3232   -4.5049 C   0  0  0  0  0  0  0  0  0  0  0  0
   -5.1659   -0.8770   -5.3412 H   0  0  0  0  0  0  0  0  0  0  0  0
   -5.5002    0.6848   -3.8790 C   0  0  0  0  0  0  0  0  0  0  0  0
   -6.5001    0.9176   -4.2334 H   0  0  0  0  0  0  0  0  0  0  0  0
   -4.9574    1.3950   -2.7971 C   0  0  0  0  0  0  0  0  0  0  0  0
   -5.5383    2.1765   -2.3163 H   0  0  0  0  0  0  0  0  0  0  0  0
   -3.6646    1.1041   -2.3386 C   0  0  0  0  0  0  0  0  0  0  0  0
   -3.2401    1.6557   -1.5056 H   0  0  0  0  0  0  0  0  0  0  0  0
   -2.9256    0.0993   -2.9717 C   0  0  0  0  0  0  0  0  0  0  0  0
   -0.5645   -0.2934    0.9054 C   0  0  0  0  0  0  0  0  0  0  0  0
    0.5489   -0.0182    1.3333 O   0  0  0  0  0  0  0  0  0  0  0  0
   -1.6717    0.3195    1.4647 N   0  0  0  0  0  0  0  0  0  0  0  0
   -2.5739   -0.0019    1.1288 H   0  0  0  0  0  0  0  0  0  0  0  0
   -1.6141    1.0660    2.7147 C   0  0  0  0  0  0  0  0  0  0  0  0
   -0.8968    1.8898    2.6382 H   0  0  0  0  0  0  0  0  0  0  0  0
   -2.5966    1.4867    2.9490 H   0  0  0  0  0  0  0  0  0  0  0  0
   -1.3105    0.4098    3.5372 H   0  0  0  0  0  0  0  0  0  0  0  0
  1  2  1  0  0  0  0
  2  3  1  0  0  0  0
  2  4  1  0  0  0  0
  2  5  1  0  0  0  0
  5  6  2  0  0  0  0
  5  7  1  0  0  0  0
  7  8  1  0  0  0  0
  7  9  1  0  0  0  0
  9 10  1  0  0  0  0
  9 11  1  0  0  0  0
  9 29  1  0  0  0  0
 11 12  1  0  0  0  0
 11 13  1  0  0  0  0
 11 14  1  0  0  0  0
 14 15  2  0  0  0  0
 14 28  1  0  0  0  0
 15 16  1  0  0  0  0
 15 17  1  0  0  0  0
 17 18  1  0  0  0  0
 17 19  1  0  0  0  0
 19 20  1  0  0  0  0
 19 28  2  0  0  0  0
 20 21  1  0  0  0  0
 20 22  2  0  0  0  0
 22 23  1  0  0  0  0
 22 24  1  0  0  0  0
 24 25  1  0  0  0  0
 24 26  2  0  0  0  0
 26 27  1  0  0  0  0
 26 28  1  0  0  0  0
 29 30  2  0  0  0  0
 29 31  1  0  0  0  0
 31 32  1  0  0  0  0
 31 33  1  0  0  0  0
 33 34  1  0  0  0  0
 33 35  1  0  0  0  0
 33 36  1  0  0  0  0
M  END
$$$$

  -OEChem-03222214083D

 36 37  0     1  0  0  0  0  0999 V2000
   -3.3709   -4.6866    0.9002 H   0  0  0  0  0  0  0  0  0  0  0  0
   -3.3437   -3.8875    0.1539 C   0  0  0  0  0  0  0  0  0  0  0  0
   -4.2475   -3.2817    0.2541 H   0  0  0  0  0  0  0  0  0  0  0  0
   -3.3229   -4.3368   -0.8420 H   0  0  0  0  0  0  0  0  0  0  0  0
   -2.1138   -3.0235    0.3592 C   0  0  0  0  0  0  0  0  0  0  0  0
   -1.3430   -3.2630    1.2708 O   0  0  0  0  0  0  0  0  0  0  0  0
   -1.8735   -1.9653   -0.4904 N   0  0  0  0  0  0  0  0  0  0  0  0
   -2.5256   -1.8246   -1.2612 H   0  0  0  0  0  0  0  0  0  0  0  0
   -0.7018   -1.0685   -0.4217 C   0  0  1  0  0  0  0  0  0  0  0  0
    0.1875   -1.7025   -0.5051 H   0  0  0  0  0  0  0  0  0  0  0  0
   -0.6751   -0.0752   -1.6101 C   0  0  0  0  0  0  0  0  0  0  0  0
   -0.9502    0.9236   -1.2575 H   0  0  0  0  0  0  0  0  0  0  0  0
    0.3501   -0.0029   -1.9870 H   0  0  0  0  0  0  0  0  0  0  0  0
   -1.5979   -0.4473   -2.7505 C   0  0  0  0  0  0  0  0  0  0  0  0
   -1.5376   -1.6074   -3.4887 C   0  0  0  0  0  0  0  0  0  0  0  0
   -0.7737   -2.3773   -3.3915 H   0  0  0  0  0  0  0  0  0  0  0  0
   -2.6271   -1.6139   -4.3552 N   0  0  0  0  0  0  0  0  0  0  0  0
   -2.8173   -2.3268   -5.0581 H   0  0  0  0  0  0  0  0  0  0  0  0
   -3.3957   -0.4760   -4.1719 C   0  0  0  0  0  0  0  0  0  0  0  0
   -4.5697   -0.0428   -4.7880 C   0  0  0  0  0  0  0  0  0  0  0  0
   -5.0315   -0.6377   -5.5686 H   0  0  0  0  0  0  0  0  0  0  0  0
   -5.1443    1.1706   -4.3851 C   0  0  0  0  0  0  0  0  0  0  0  0
   -6.0580    1.5210   -4.8565 H   0  0  0  0  0  0  0  0  0  0  0  0
   -4.5393    1.9349   -3.3757 C   0  0  0  0  0  0  0  0  0  0  0  0
   -4.9860    2.8759   -3.0679 H   0  0  0  0  0  0  0  0  0  0  0  0
   -3.3566    1.4917   -2.7665 C   0  0  0  0  0  0  0  0  0  0  0  0
   -2.8851    2.0861   -1.9905 H   0  0  0  0  0  0  0  0  0  0  0  0
   -2.7887    0.2795   -3.1743 C   0  0  0  0  0  0  0  0  0  0  0  0
   -0.5601   -0.2975    0.9071 C   0  0  0  0  0  0  0  0  0  0  0  0
    0.5532   -0.0144    1.3296 O   0  0  0  0  0  0  0  0  0  0  0  0
   -1.6690    0.3047    1.4743 N   0  0  0  0  0  0  0  0  0  0  0  0
   -2.5724   -0.0052    1.1309 H   0  0  0  0  0  0  0  0  0  0  0  0
   -1.6104    1.0637    2.7166 C   0  0  0  0  0  0  0  0  0  0  0  0
   -0.8967    1.8898    2.6297 H   0  0  0  0  0  0  0  0  0  0  0  0
   -2.5938    1.4831    2.9497 H   0  0  0  0  0  0  0  0  0  0  0  0
   -1.3019    0.4168    3.5445 H   0  0  0  0  0  0  0  0  0  0  0  0
  1  2  1  0  0  0  0
  2  3  1  0  0  0  0
  2  4  1  0  0  0  0
  2  5  1  0  0  0  0
  5  6  2  0  0  0  0
  5  7  1  0  0  0  0
  7  8  1  0  0  0  0
  7  9  1  0  0  0  0
  9 10  1  0  0  0  0
  9 11  1  0  0  0  0
  9 29  1  0  0  0  0
 11 12  1  0  0  0  0
 11 13  1  0  0  0  0
 11 14  1  0  0  0  0
 14 15  2  0  0  0  0
 14 28  1  0  0  0  0
 15 16  1  0  0  0  0
 15 17  1  0  0  0  0
 17 18  1  0  0  0  0
 17 19  1  0  0  0  0
 19 20  1  0  0  0  0
 19 28  2  0  0  0  0
 20 21  1  0  0  0  0
 20 22  2  0  0  0  0
 22 23  1  0  0  0  0
 22 24  1  0  0  0  0
 24 25  1  0  0  0  0
 24 26  2  0  0  0  0
 26 27  1  0  0  0  0
 26 28  1  0  0  0  0
 29 30  2  0  0  0  0
 29 31  1  0  0  0  0
 31 32  1  0  0  0  0
 31 33  1  0  0  0  0
 33 34  1  0  0  0  0
 33 35  1  0  0  0  0
 33 36  1  0  0  0  0
M  END
$$$$

  -OEChem-03222214083D

 36 37  0     1  0  0  0  0  0999 V2000
   -3.2494   -4.7549    1.0663 H   0  0  0  0  0  0  0  0  0  0  0  0
   -3.2669   -3.9748    0.2997 C   0  0  0  0  0  0  0  0  0  0  0  0
   -4.1743   -3.3797    0.4249 H   0  0  0  0  0  0  0  0  0  0  0  0
   -3.2831   -4.4493   -0.6844 H   0  0  0  0  0  0  0  0  0  0  0  0
   -2.0428   -3.0880    0.4283 C   0  0  0  0  0  0  0  0  0  0  0  0
   -1.2152   -3.3107    1.2927 O   0  0  0  0  0  0  0  0  0  0  0  0
   -1.8685   -2.0310   -0.4396 N   0  0  0  0  0  0  0  0  0  0  0  0
   -2.5854   -1.8806   -1.1474 H   0  0  0  0  0  0  0  0  0  0  0  0
   -0.7294   -1.0916   -0.4118 C   0  0  1  0  0  0  0  0  0  0  0  0
    0.1765   -1.7004   -0.5054 H   0  0  0  0  0  0  0  0  0  0  0  0
   -0.7440   -0.1103   -1.6128 C   0  0  0  0  0  0  0  0  0  0  0  0
   -1.0569    0.8737   -1.2503 H   0  0  0  0  0  0  0  0  0  0  0  0
    0.2771    0.0063   -1.9897 H   0  0  0  0  0  0  0  0  0  0  0  0
   -1.6547   -0.4821   -2.7673 C   0  0  0  0  0  0  0  0  0  0  0  0
   -1.7889   -1.7225   -3.3519 C   0  0  0  0  0  0  0  0  0  0  0  0
   -1.2031   -2.6044   -3.0972 H   0  0  0  0  0  0  0  0  0  0  0  0
   -2.7918   -1.6373   -4.3128 N   0  0  0  0  0  0  0  0  0  0  0  0
   -3.0761   -2.3891   -4.9391 H   0  0  0  0  0  0  0  0  0  0  0  0
   -3.3072   -0.3528   -4.3550 C   0  0  0  0  0  0  0  0  0  0  0  0
   -4.3088    0.2151   -5.1419 C   0  0  0  0  0  0  0  0  0  0  0  0
   -4.8314   -0.3827   -5.8804 H   0  0  0  0  0  0  0  0  0  0  0  0
   -4.6298    1.5681   -4.9670 C   0  0  0  0  0  0  0  0  0  0  0  0
   -5.4063    2.0240   -5.5740 H   0  0  0  0  0  0  0  0  0  0  0  0
   -3.9464    2.3350   -4.0111 C   0  0  0  0  0  0  0  0  0  0  0  0
   -4.1954    3.3840   -3.8803 H   0  0  0  0  0  0  0  0  0  0  0  0
   -2.9399    1.7535   -3.2266 C   0  0  0  0  0  0  0  0  0  0  0  0
   -2.4090    2.3499   -2.4918 H   0  0  0  0  0  0  0  0  0  0  0  0
   -2.6250    0.4012   -3.4059 C   0  0  0  0  0  0  0  0  0  0  0  0
   -0.5794   -0.3019    0.9056 C   0  0  0  0  0  0  0  0  0  0  0  0
    0.5338    0.0290    1.2920 O   0  0  0  0  0  0  0  0  0  0  0  0
   -1.6928    0.2659    1.4986 N   0  0  0  0  0  0  0  0  0  0  0  0
   -2.5971   -0.0614    1.1747 H   0  0  0  0  0  0  0  0  0  0  0  0
   -1.6247    1.0850    2.7016 C   0  0  0  0  0  0  0  0  0  0  0  0
   -0.9744    1.9509    2.5392 H   0  0  0  0  0  0  0  0  0  0  0  0
   -2.6211    1.4496    2.9686 H   0  0  0  0  0  0  0  0  0  0  0  0
   -1.2316    0.5008    3.5400 H   0  0  0  0  0  0  0  0  0  0  0  0
  1  2  1  0  0  0  0
  2  3  1  0  0  0  0
  2  4  1  0  0  0  0
  2  5  1  0  0  0  0
  5  6  2  0  0  0  0
  5  7  1  0  0  0  0
  7  8  1  0  0  0  0
  7  9  1  0  0  0  0
  9 10  1  0  0  0  0
  9 11  1  0  0  0  0
  9 29  1  0  0  0  0
 11 12  1  0  0  0  0
 11 13  1  0  0  0  0
 11 14  1  0  0  0  0
 14 15  2  0  0  0  0
 14 28  1  0  0  0  0
 15 16  1  0  0  0  0
 15 17  1  0  0  0  0
 17 18  1  0  0  0  0
 17 19  1  0  0  0  0
 19 20  1  0  0  0  0
 19 28  2  0  0  0  0
 20 21  1  0  0  0  0
 20 22  2  0  0  0  0
 22 23  1  0  0  0  0
 22 24  1  0  0  0  0
 24 25  1  0  0  0  0
 24 26  2  0  0  0  0
 26 27  1  0  0  0  0
 26 28  1  0  0  0  0
 29 30  2  0  0  0  0
 29 31  1  0  0  0  0
 31 32  1  0  0  0  0
 31 33  1  0  0  0  0
 33 34  1  0  0  0  0
 33 35  1  0  0  0  0
 33 36  1  0  0  0  0
M  END
$$$$

  -OEChem-03222214083D

 36 37  0     1  0  0  0  0  0999 V2000
   -3.1053   -4.7833    1.2774 H   0  0  0  0  0  0  0  0  0  0  0  0
   -3.1836   -4.0283    0.4896 C   0  0  0  0  0  0  0  0  0  0  0  0
   -4.0897   -3.4407    0.6558 H   0  0  0  0  0  0  0  0  0  0  0  0
   -3.2565   -4.5346   -0.4759 H   0  0  0  0  0  0  0  0  0  0  0  0
   -1.9654   -3.1245    0.5118 C   0  0  0  0  0  0  0  0  0  0  0  0
   -1.0799   -3.3159    1.3242 O   0  0  0  0  0  0  0  0  0  0  0  0
   -1.8626   -2.0870   -0.3915 N   0  0  0  0  0  0  0  0  0  0  0  0
   -2.6439   -1.9376   -1.0259 H   0  0  0  0  0  0  0  0  0  0  0  0
   -0.7601   -1.1064   -0.4216 C   0  0  1  0  0  0  0  0  0  0  0  0
    0.1637   -1.6877   -0.5182 H   0  0  0  0  0  0  0  0  0  0  0  0
   -0.8172   -0.1560   -1.6477 C   0  0  0  0  0  0  0  0  0  0  0  0
   -1.1637    0.8194   -1.2919 H   0  0  0  0  0  0  0  0  0  0  0  0
    0.1996   -0.0075   -2.0251 H   0  0  0  0  0  0  0  0  0  0  0  0
   -1.7156   -0.5366   -2.8136 C   0  0  0  0  0  0  0  0  0  0  0  0
   -2.0803   -1.7879   -3.2652 C   0  0  0  0  0  0  0  0  0  0  0  0
   -1.7050   -2.7341   -2.8798 H   0  0  0  0  0  0  0  0  0  0  0  0
   -2.9805   -1.6256   -4.3138 N   0  0  0  0  0  0  0  0  0  0  0  0
   -3.3798   -2.3773   -4.8737 H   0  0  0  0  0  0  0  0  0  0  0  0
   -3.1990   -0.2804   -4.5528 C   0  0  0  0  0  0  0  0  0  0  0  0
   -3.9983    0.3740   -5.4897 C   0  0  0  0  0  0  0  0  0  0  0  0
   -4.5927   -0.1956   -6.1955 H   0  0  0  0  0  0  0  0  0  0  0  0
   -4.0213    1.7751   -5.5072 C   0  0  0  0  0  0  0  0  0  0  0  0
   -4.6382    2.2988   -6.2314 H   0  0  0  0  0  0  0  0  0  0  0  0
   -3.2450    2.5022   -4.5923 C   0  0  0  0  0  0  0  0  0  0  0  0
   -3.2614    3.5879   -4.6108 H   0  0  0  0  0  0  0  0  0  0  0  0
   -2.4438    1.8326   -3.6562 C   0  0  0  0  0  0  0  0  0  0  0  0
   -1.8383    2.3970   -2.9542 H   0  0  0  0  0  0  0  0  0  0  0  0
   -2.4282    0.4326   -3.6415 C   0  0  0  0  0  0  0  0  0  0  0  0
   -0.6083   -0.2800    0.8739 C   0  0  0  0  0  0  0  0  0  0  0  0
    0.5010    0.0906    1.2340 O   0  0  0  0  0  0  0  0  0  0  0  0
   -1.7271    0.2591    1.4843 N   0  0  0  0  0  0  0  0  0  0  0  0
   -2.6289   -0.0861    1.1733 H   0  0  0  0  0  0  0  0  0  0  0  0
   -1.6610    1.0955    2.6757 C   0  0  0  0  0  0  0  0  0  0  0  0
   -1.0526    1.9860    2.4861 H   0  0  0  0  0  0  0  0  0  0  0  0
   -2.6646    1.4204    2.9662 H   0  0  0  0  0  0  0  0  0  0  0  0
   -1.2211    0.5385    3.5094 H   0  0  0  0  0  0  0  0  0  0  0  0
  1  2  1  0  0  0  0
  2  3  1  0  0  0  0
  2  4  1  0  0  0  0
  2  5  1  0  0  0  0
  5  6  2  0  0  0  0
  5  7  1  0  0  0  0
  7  8  1  0  0  0  0
  7  9  1  0  0  0  0
  9 10  1  0  0  0  0
  9 11  1  0  0  0  0
  9 29  1  0  0  0  0
 11 12  1  0  0  0  0
 11 13  1  0  0  0  0
 11 14  1  0  0  0  0
 14 15  2  0  0  0  0
 14 28  1  0  0  0  0
 15 16  1  0  0  0  0
 15 17  1  0  0  0  0
 17 18  1  0  0  0  0
 17 19  1  0  0  0  0
 19 20  1  0  0  0  0
 19 28  2  0  0  0  0
 20 21  1  0  0  0  0
 20 22  2  0  0  0  0
 22 23  1  0  0  0  0
 22 24  1  0  0  0  0
 24 25  1  0  0  0  0
 24 26  2  0  0  0  0
 26 27  1  0  0  0  0
 26 28  1  0  0  0  0
 29 30  2  0  0  0  0
 29 31  1  0  0  0  0
 31 32  1  0  0  0  0
 31 33  1  0  0  0  0
 33 34  1  0  0  0  0
 33 35  1  0  0  0  0
 33 36  1  0  0  0  0
M  END
$$$$

  -OEChem-03222214083D

 36 37  0     1  0  0  0  0  0999 V2000
   -2.9868   -4.7821    1.4776 H   0  0  0  0  0  0  0  0  0  0  0  0
   -3.1159   -4.0577    0.6680 C   0  0  0  0  0  0  0  0  0  0  0  0
   -4.0144   -3.4681    0.8645 H   0  0  0  0  0  0  0  0  0  0  0  0
   -3.2405   -4.6002   -0.2722 H   0  0  0  0  0  0  0  0  0  0  0  0
   -1.9038   -3.1495    0.5850 C   0  0  0  0  0  0  0  0  0  0  0  0
   -0.9664   -3.3150    1.3430 O   0  0  0  0  0  0  0  0  0  0  0  0
   -1.8694   -2.1349   -0.3497 N   0  0  0  0  0  0  0  0  0  0  0  0
   -2.7111   -1.9790   -0.8970 H   0  0  0  0  0  0  0  0  0  0  0  0
   -0.7999   -1.1241   -0.4408 C   0  0  1  0  0  0  0  0  0  0  0  0
    0.1348   -1.6866   -0.5442 H   0  0  0  0  0  0  0  0  0  0  0  0
   -0.8946   -0.2094   -1.6917 C   0  0  0  0  0  0  0  0  0  0  0  0
   -1.2539    0.7679   -1.3526 H   0  0  0  0  0  0  0  0  0  0  0  0
    0.1187   -0.0535   -2.0758 H   0  0  0  0  0  0  0  0  0  0  0  0
   -1.7870   -0.6019   -2.8616 C   0  0  0  0  0  0  0  0  0  0  0  0
   -2.3891   -1.7971   -3.2029 C   0  0  0  0  0  0  0  0  0  0  0  0
   -2.2504   -2.7526   -2.7040 H   0  0  0  0  0  0  0  0  0  0  0  0
   -3.1662   -1.5863   -4.3384 N   0  0  0  0  0  0  0  0  0  0  0  0
   -3.6870   -2.3028   -4.8412 H   0  0  0  0  0  0  0  0  0  0  0  0
   -3.0759   -0.2672   -4.7436 C   0  0  0  0  0  0  0  0  0  0  0  0
   -3.6571    0.4183   -5.8104 C   0  0  0  0  0  0  0  0  0  0  0  0
   -4.3187   -0.0970   -6.4978 H   0  0  0  0  0  0  0  0  0  0  0  0
   -3.3741    1.7805   -5.9816 C   0  0  0  0  0  0  0  0  0  0  0  0
   -3.8185    2.3278   -6.8077 H   0  0  0  0  0  0  0  0  0  0  0  0
   -2.5141    2.4371   -5.0883 C   0  0  0  0  0  0  0  0  0  0  0  0
   -2.2921    3.4913   -5.2246 H   0  0  0  0  0  0  0  0  0  0  0  0
   -1.9360    1.7362   -4.0202 C   0  0  0  0  0  0  0  0  0  0  0  0
   -1.2668    2.2421   -3.3319 H   0  0  0  0  0  0  0  0  0  0  0  0
   -2.2260    0.3770   -3.8537 C   0  0  0  0  0  0  0  0  0  0  0  0
   -0.6316   -0.2613    0.8293 C   0  0  0  0  0  0  0  0  0  0  0  0
    0.4771    0.1490    1.1449 O   0  0  0  0  0  0  0  0  0  0  0  0
   -1.7447    0.2605    1.4655 N   0  0  0  0  0  0  0  0  0  0  0  0
   -2.6479   -0.1092    1.1898 H   0  0  0  0  0  0  0  0  0  0  0  0
   -1.6625    1.1291    2.6328 C   0  0  0  0  0  0  0  0  0  0  0  0
   -1.0800    2.0276    2.4027 H   0  0  0  0  0  0  0  0  0  0  0  0
   -2.6643    1.4396    2.9444 H   0  0  0  0  0  0  0  0  0  0  0  0
   -1.1858    0.6036    3.4669 H   0  0  0  0  0  0  0  0  0  0  0  0
  1  2  1  0  0  0  0
  2  3  1  0  0  0  0
  2  4  1  0  0  0  0
  2  5  1  0  0  0  0
  5  6  2  0  0  0  0
  5  7  1  0  0  0  0
  7  8  1  0  0  0  0
  7  9  1  0  0  0  0
  9 10  1  0  0  0  0
  9 11  1  0  0  0  0
  9 29  1  0  0  0  0
 11 12  1  0  0  0  0
 11 13  1  0  0  0  0
 11 14  1  0  0  0  0
 14 15  2  0  0  0  0
 14 28  1  0  0  0  0
 15 16  1  0  0  0  0
 15 17  1  0  0  0  0
 17 18  1  0  0  0  0
 17 19  1  0  0  0  0
 19 20  1  0  0  0  0
 19 28  2  0  0  0  0
 20 21  1  0  0  0  0
 20 22  2  0  0  0  0
 22 23  1  0  0  0  0
 22 24  1  0  0  0  0
 24 25  1  0  0  0  0
 24 26  2  0  0  0  0
 26 27  1  0  0  0  0
 26 28  1  0  0  0  0
 29 30  2  0  0  0  0
 29 31  1  0  0  0  0
 31 32  1  0  0  0  0
 31 33  1  0  0  0  0
 33 34  1  0  0  0  0
 33 35  1  0  0  0  0
 33 36  1  0  0  0  0
M  END
$$$$

  -OEChem-03222214083D

 36 37  0     1  0  0  0  0  0999 V2000
   -2.9034   -4.7766    1.6203 H   0  0  0  0  0  0  0  0  0  0  0  0
   -3.0783   -4.0697    0.8040 C   0  0  0  0  0  0  0  0  0  0  0  0
   -3.9657   -3.4769    1.0377 H   0  0  0  0  0  0  0  0  0  0  0  0
   -3.2543   -4.6332   -0.1154 H   0  0  0  0  0  0  0  0  0  0  0  0
   -1.8737   -3.1632    0.6346 C   0  0  0  0  0  0  0  0  0  0  0  0
   -0.8969   -3.3125    1.3449 O   0  0  0  0  0  0  0  0  0  0  0  0
   -1.8948   -2.1637   -0.3177 N   0  0  0  0  0  0  0  0  0  0  0  0
   -2.7780   -1.9958   -0.7873 H   0  0  0  0  0  0  0  0  0  0  0  0
   -0.8424   -1.1431   -0.4648 C   0  0  1  0  0  0  0  0  0  0  0  0
    0.0924   -1.7020   -0.5884 H   0  0  0  0  0  0  0  0  0  0  0  0
   -0.9703   -0.2488   -1.7271 C   0  0  0  0  0  0  0  0  0  0  0  0
   -1.3149    0.7381   -1.3998 H   0  0  0  0  0  0  0  0  0  0  0  0
    0.0389   -0.1103   -2.1289 H   0  0  0  0  0  0  0  0  0  0  0  0
   -1.8788   -0.6384   -2.8867 C   0  0  0  0  0  0  0  0  0  0  0  0
   -2.7122   -1.7146   -3.1278 C   0  0  0  0  0  0  0  0  0  0  0  0
   -2.8299   -2.6011   -2.5139 H   0  0  0  0  0  0  0  0  0  0  0  0
   -3.3569   -1.5058   -4.3441 N   0  0  0  0  0  0  0  0  0  0  0  0
   -4.0009   -2.1544   -4.7930 H   0  0  0  0  0  0  0  0  0  0  0  0
   -2.9566   -0.3060   -4.9007 C   0  0  0  0  0  0  0  0  0  0  0  0
   -3.3100    0.3306   -6.0905 C   0  0  0  0  0  0  0  0  0  0  0  0
   -4.0255   -0.1261   -6.7653 H   0  0  0  0  0  0  0  0  0  0  0  0
   -2.7282    1.5673   -6.4018 C   0  0  0  0  0  0  0  0  0  0  0  0
   -2.9933    2.0752   -7.3242 H   0  0  0  0  0  0  0  0  0  0  0  0
   -1.8019    2.1486   -5.5231 C   0  0  0  0  0  0  0  0  0  0  0  0
   -1.3502    3.1057   -5.7668 H   0  0  0  0  0  0  0  0  0  0  0  0
   -1.4541    1.4975   -4.3310 C   0  0  0  0  0  0  0  0  0  0  0  0
   -0.7349    1.9458   -3.6527 H   0  0  0  0  0  0  0  0  0  0  0  0
   -2.0400    0.2628   -4.0264 C   0  0  0  0  0  0  0  0  0  0  0  0
   -0.6334   -0.2596    0.7848 C   0  0  0  0  0  0  0  0  0  0  0  0
    0.4813    0.1710    1.0478 O   0  0  0  0  0  0  0  0  0  0  0  0
   -1.7258    0.2597    1.4579 N   0  0  0  0  0  0  0  0  0  0  0  0
   -2.6360   -0.1203    1.2234 H   0  0  0  0  0  0  0  0  0  0  0  0
   -1.6050    1.1508    2.6046 C   0  0  0  0  0  0  0  0  0  0  0  0
   -1.0729    2.0659    2.3245 H   0  0  0  0  0  0  0  0  0  0  0  0
   -2.5967    1.4280    2.9741 H   0  0  0  0  0  0  0  0  0  0  0  0
   -1.0577    0.6587    3.4155 H   0  0  0  0  0  0  0  0  0  0  0  0
  1  2  1  0  0  0  0
  2  3  1  0  0  0  0
  2  4  1  0  0  0  0
  2  5  1  0  0  0  0
  5  6  2  0  0  0  0
  5  7  1  0  0  0  0
  7  8  1  0  0  0  0
  7  9  1  0  0  0  0
  9 10  1  0  0  0  0
  9 11  1  0  0  0  0
  9 29  1  0  0  0  0
 11 12  1  0  0  0  0
 11 13  1  0  0  0  0
 11 14  1  0  0  0  0
 14 15  2  0  0  0  0
 14 28  1  0  0  0  0
 15 16  1  0  0  0  0
 15 17  1  0  0  0  0
 17 18  1  0  0  0  0
 17 19  1  0  0  0  0
 19 20  1  0  0  0  0
 19 28  2  0  0  0  0
 20 21  1  0  0  0  0
 20 22  2  0  0  0  0
 22 23  1  0  0  0  0
 22 24  1  0  0  0  0
 24 25  1  0  0  0  0
 24 26  2  0  0  0  0
 26 27  1  0  0  0  0
 26 28  1  0  0  0  0
 29 30  2  0  0  0  0
 29 31  1  0  0  0  0
 31 32  1  0  0  0  0
 31 33  1  0  0  0  0
 33 34  1  0  0  0  0
 33 35  1  0  0  0  0
 33 36  1  0  0  0  0
M  END
$$$$

  -OEChem-03222214083D

 36 37  0     1  0  0  0  0  0999 V2000
   -2.9110   -4.7656    1.6590 H   0  0  0  0  0  0  0  0  0  0  0  0
   -3.1038   -4.0516    0.8531 C   0  0  0  0  0  0  0  0  0  0  0  0
   -3.9741   -3.4479    1.1206 H   0  0  0  0  0  0  0  0  0  0  0  0
   -3.3189   -4.6070   -0.0628 H   0  0  0  0  0  0  0  0  0  0  0  0
   -1.8933   -3.1606    0.6469 C   0  0  0  0  0  0  0  0  0  0  0  0
   -0.8978   -3.3212    1.3280 O   0  0  0  0  0  0  0  0  0  0  0  0
   -1.9345   -2.1583   -0.3016 N   0  0  0  0  0  0  0  0  0  0  0  0
   -2.8316   -1.9769   -0.7329 H   0  0  0  0  0  0  0  0  0  0  0  0
   -0.8724   -1.1553   -0.4871 C   0  0  1  0  0  0  0  0  0  0  0  0
    0.0460   -1.7346   -0.6392 H   0  0  0  0  0  0  0  0  0  0  0  0
   -1.0135   -0.2578   -1.7465 C   0  0  0  0  0  0  0  0  0  0  0  0
   -1.3137    0.7435   -1.4192 H   0  0  0  0  0  0  0  0  0  0  0  0
   -0.0078   -0.1597   -2.1681 H   0  0  0  0  0  0  0  0  0  0  0  0
   -1.9573   -0.6184   -2.8890 C   0  0  0  0  0  0  0  0  0  0  0  0
   -3.0059   -1.5096   -3.0271 C   0  0  0  0  0  0  0  0  0  0  0  0
   -3.3684   -2.2217   -2.2964 H   0  0  0  0  0  0  0  0  0  0  0  0
   -3.5371   -1.3686   -4.3061 N   0  0  0  0  0  0  0  0  0  0  0  0
   -4.3048   -1.9137   -4.6933 H   0  0  0  0  0  0  0  0  0  0  0  0
   -2.8575   -0.3900   -5.0044 C   0  0  0  0  0  0  0  0  0  0  0  0
   -3.0189    0.1081   -6.2973 C   0  0  0  0  0  0  0  0  0  0  0  0
   -3.7927   -0.2889   -6.9450 H   0  0  0  0  0  0  0  0  0  0  0  0
   -2.1685    1.1276   -6.7466 C   0  0  0  0  0  0  0  0  0  0  0  0
   -2.2818    1.5265   -7.7504 H   0  0  0  0  0  0  0  0  0  0  0  0
   -1.1711    1.6333   -5.8997 C   0  0  0  0  0  0  0  0  0  0  0  0
   -0.5128    2.4231   -6.2495 H   0  0  0  0  0  0  0  0  0  0  0  0
   -1.0195    1.1220   -4.6025 C   0  0  0  0  0  0  0  0  0  0  0  0
   -0.2470    1.5143   -3.9490 H   0  0  0  0  0  0  0  0  0  0  0  0
   -1.8715    0.1023   -4.1598 C   0  0  0  0  0  0  0  0  0  0  0  0
   -0.6000   -0.2783    0.7548 C   0  0  0  0  0  0  0  0  0  0  0  0
    0.5309    0.1347    0.9728 O   0  0  0  0  0  0  0  0  0  0  0  0
   -1.6556    0.2581    1.4719 N   0  0  0  0  0  0  0  0  0  0  0  0
   -2.5776   -0.1199    1.2856 H   0  0  0  0  0  0  0  0  0  0  0  0
   -1.4706    1.1323    2.6234 C   0  0  0  0  0  0  0  0  0  0  0  0
   -0.9350    2.0420    2.3321 H   0  0  0  0  0  0  0  0  0  0  0  0
   -2.4407    1.4219    3.0385 H   0  0  0  0  0  0  0  0  0  0  0  0
   -0.8975    0.6201    3.4037 H   0  0  0  0  0  0  0  0  0  0  0  0
  1  2  1  0  0  0  0
  2  3  1  0  0  0  0
  2  4  1  0  0  0  0
  2  5  1  0  0  0  0
  5  6  2  0  0  0  0
  5  7  1  0  0  0  0
  7  8  1  0  0  0  0
  7  9  1  0  0  0  0
  9 10  1  0  0  0  0
  9 11  1  0  0  0  0
  9 29  1  0  0  0  0
 11 12  1  0  0  0  0
 11 13  1  0  0  0  0
 11 14  1  0  0  0  0
 14 15  2  0  0  0  0
 14 28  1  0  0  0  0
 15 16  1  0  0  0  0
 15 17  1  0  0  0  0
 17 18  1  0  0  0  0
 17 19  1  0  0  0  0
 19 20  1  0  0  0  0
 19 28  2  0  0  0  0
 20 21  1  0  0  0  0
 20 22  2  0  0  0  0
 22 23  1  0  0  0  0
 22 24  1  0  0  0  0
 24 25  1  0  0  0  0
 24 26  2  0  0  0  0
 26 27  1  0  0  0  0
 26 28  1  0  0  0  0
 29 30  2  0  0  0  0
 29 31  1  0  0  0  0
 31 32  1  0  0  0  0
 31 33  1  0  0  0  0
 33 34  1  0  0  0  0
 33 35  1  0  0  0  0
 33 36  1  0  0  0  0
M  END
$$$$

  -OEChem-03222214083D

 36 37  0     1  0  0  0  0  0999 V2000
   -2.9079   -4.9109    1.3178 H   0  0  0  0  0  0  0  0  0  0  0  0
   -3.0430   -4.1901    0.5060 C   0  0  0  0  0  0  0  0  0  0  0  0
   -4.0652   -3.8061    0.5440 H   0  0  0  0  0  0  0  0  0  0  0  0
   -2.8865   -4.7028   -0.4463 H   0  0  0  0  0  0  0  0  0  0  0  0
   -2.0530   -3.0495    0.6519 C   0  0  0  0  0  0  0  0  0  0  0  0
   -1.2984   -3.0257    1.6061 O   0  0  0  0  0  0  0  0  0  0  0  0
   -2.0219   -2.0492   -0.3006 N   0  0  0  0  0  0  0  0  0  0  0  0
   -2.5064   -2.2833   -1.1597 H   0  0  0  0  0  0  0  0  0  0  0  0
   -0.8927   -1.1126   -0.4496 C   0  0  1  0  0  0  0  0  0  0  0  0
   -0.0036   -1.7326   -0.6101 H   0  0  0  0  0  0  0  0  0  0  0  0
   -0.9999   -0.1531   -1.6704 C   0  0  0  0  0  0  0  0  0  0  0  0
   -1.2225    0.8576   -1.3116 H   0  0  0  0  0  0  0  0  0  0  0  0
    0.0013   -0.1098   -2.1097 H   0  0  0  0  0  0  0  0  0  0  0  0
   -1.9987   -0.4238   -2.7899 C   0  0  0  0  0  0  0  0  0  0  0  0
   -3.2354   -1.0399   -2.7925 C   0  0  0  0  0  0  0  0  0  0  0  0
   -3.7864   -1.3886   -1.9243 H   0  0  0  0  0  0  0  0  0  0  0  0
   -3.7012   -1.0850   -4.1028 N   0  0  0  0  0  0  0  0  0  0  0  0
   -4.6020   -1.4547   -4.4015 H   0  0  0  0  0  0  0  0  0  0  0  0
   -2.7863   -0.4980   -4.9564 C   0  0  0  0  0  0  0  0  0  0  0  0
   -2.8062   -0.2984   -6.3369 C   0  0  0  0  0  0  0  0  0  0  0  0
   -3.6498   -0.6372   -6.9282 H   0  0  0  0  0  0  0  0  0  0  0  0
   -1.7230    0.3464   -6.9489 C   0  0  0  0  0  0  0  0  0  0  0  0
   -1.7233    0.5100   -8.0226 H   0  0  0  0  0  0  0  0  0  0  0  0
   -0.6379    0.7835   -6.1749 C   0  0  0  0  0  0  0  0  0  0  0  0
    0.2000    1.2854   -6.6497 H   0  0  0  0  0  0  0  0  0  0  0  0
   -0.6309    0.5771   -4.7880 C   0  0  0  0  0  0  0  0  0  0  0  0
    0.2084    0.9213   -4.1926 H   0  0  0  0  0  0  0  0  0  0  0  0
   -1.7149   -0.0707   -4.1814 C   0  0  0  0  0  0  0  0  0  0  0  0
   -0.5959   -0.2552    0.8023 C   0  0  0  0  0  0  0  0  0  0  0  0
    0.5562    0.0846    1.0396 O   0  0  0  0  0  0  0  0  0  0  0  0
   -1.6321    0.3470    1.4935 N   0  0  0  0  0  0  0  0  0  0  0  0
   -2.5566   -0.0372    1.3285 H   0  0  0  0  0  0  0  0  0  0  0  0
   -1.4161    1.1651    2.6799 C   0  0  0  0  0  0  0  0  0  0  0  0
   -0.7431    1.9993    2.4552 H   0  0  0  0  0  0  0  0  0  0  0  0
   -2.3661    1.5772    3.0332 H   0  0  0  0  0  0  0  0  0  0  0  0
   -0.9763    0.5639    3.4826 H   0  0  0  0  0  0  0  0  0  0  0  0
  1  2  1  0  0  0  0
  2  3  1  0  0  0  0
  2  4  1  0  0  0  0
  2  5  1  0  0  0  0
  5  6  2  0  0  0  0
  5  7  1  0  0  0  0
  7  8  1  0  0  0  0
  7  9  1  0  0  0  0
  9 10  1  0  0  0  0
  9 11  1  0  0  0  0
  9 29  1  0  0  0  0
 11 12  1  0  0  0  0
 11 13  1  0  0  0  0
 11 14  1  0  0  0  0
 14 15  2  0  0  0  0
 14 28  1  0  0  0  0
 15 16  1  0  0  0  0
 15 17  1  0  0  0  0
 17 18  1  0  0  0  0
 17 19  1  0  0  0  0
 19 20  1  0  0  0  0
 19 28  2  0  0  0  0
 20 21  1  0  0  0  0
 20 22  2  0  0  0  0
 22 23  1  0  0  0  0
 22 24  1  0  0  0  0
 24 25  1  0  0  0  0
 24 26  2  0  0  0  0
 26 27  1  0  0  0  0
 26 28  1  0  0  0  0
 29 30  2  0  0  0  0
 29 31  1  0  0  0  0
 31 32  1  0  0  0  0
 31 33  1  0  0  0  0
 33 34  1  0  0  0  0
 33 35  1  0  0  0  0
 33 36  1  0  0  0  0
M  END
$$$$

  -OEChem-03222214083D

 36 37  0     1  0  0  0  0  0999 V2000
   -3.0962   -4.8696    1.0810 H   0  0  0  0  0  0  0  0  0  0  0  0
   -3.1663   -4.1122    0.2950 C   0  0  0  0  0  0  0  0  0  0  0  0
   -4.1692   -3.6791    0.3125 H   0  0  0  0  0  0  0  0  0  0  0  0
   -2.9996   -4.5939   -0.6716 H   0  0  0  0  0  0  0  0  0  0  0  0
   -2.1288   -3.0291    0.5214 C   0  0  0  0  0  0  0  0  0  0  0  0
   -1.4063   -3.0784    1.4994 O   0  0  0  0  0  0  0  0  0  0  0  0
   -2.0223   -1.9906   -0.3819 N   0  0  0  0  0  0  0  0  0  0  0  0
   -2.5031   -2.1505   -1.2627 H   0  0  0  0  0  0  0  0  0  0  0  0
   -0.8521   -1.0941   -0.4544 C   0  0  1  0  0  0  0  0  0  0  0  0
    0.0175   -1.7404   -0.6170 H   0  0  0  0  0  0  0  0  0  0  0  0
   -0.8968   -0.0901   -1.6406 C   0  0  0  0  0  0  0  0  0  0  0  0
   -1.1125    0.9122   -1.2552 H   0  0  0  0  0  0  0  0  0  0  0  0
    0.1121   -0.0466   -2.0604 H   0  0  0  0  0  0  0  0  0  0  0  0
   -1.8913   -0.3334   -2.7653 C   0  0  0  0  0  0  0  0  0  0  0  0
   -3.2249   -0.6784   -2.6901 C   0  0  0  0  0  0  0  0  0  0  0  0
   -3.8102   -0.7543   -1.7764 H   0  0  0  0  0  0  0  0  0  0  0  0
   -3.6998   -0.8675   -3.9837 N   0  0  0  0  0  0  0  0  0  0  0  0
   -4.6618   -1.0856   -4.2377 H   0  0  0  0  0  0  0  0  0  0  0  0
   -2.6878   -0.6473   -4.9008 C   0  0  0  0  0  0  0  0  0  0  0  0
   -2.6766   -0.7081   -6.2943 C   0  0  0  0  0  0  0  0  0  0  0  0
   -3.5775   -0.9684   -6.8387 H   0  0  0  0  0  0  0  0  0  0  0  0
   -1.4871   -0.4283   -6.9804 C   0  0  0  0  0  0  0  0  0  0  0  0
   -1.4622   -0.4715   -8.0654 H   0  0  0  0  0  0  0  0  0  0  0  0
   -0.3281   -0.0908   -6.2661 C   0  0  0  0  0  0  0  0  0  0  0  0
    0.5926    0.1279   -6.7988 H   0  0  0  0  0  0  0  0  0  0  0  0
   -0.3531   -0.0317   -4.8654 C   0  0  0  0  0  0  0  0  0  0  0  0
    0.5447    0.2345   -4.3178 H   0  0  0  0  0  0  0  0  0  0  0  0
   -1.5440   -0.3129   -4.1848 C   0  0  0  0  0  0  0  0  0  0  0  0
   -0.5603   -0.3019    0.8401 C   0  0  0  0  0  0  0  0  0  0  0  0
    0.5950   -0.0048    1.1161 O   0  0  0  0  0  0  0  0  0  0  0  0
   -1.5952    0.3120    1.5227 N   0  0  0  0  0  0  0  0  0  0  0  0
   -2.5240   -0.0490    1.3316 H   0  0  0  0  0  0  0  0  0  0  0  0
   -1.3842    1.0863    2.7389 C   0  0  0  0  0  0  0  0  0  0  0  0
   -0.6970    1.9180    2.5511 H   0  0  0  0  0  0  0  0  0  0  0  0
   -2.3336    1.4993    3.0929 H   0  0  0  0  0  0  0  0  0  0  0  0
   -0.9634    0.4526    3.5268 H   0  0  0  0  0  0  0  0  0  0  0  0
  1  2  1  0  0  0  0
  2  3  1  0  0  0  0
  2  4  1  0  0  0  0
  2  5  1  0  0  0  0
  5  6  2  0  0  0  0
  5  7  1  0  0  0  0
  7  8  1  0  0  0  0
  7  9  1  0  0  0  0
  9 10  1  0  0  0  0
  9 11  1  0  0  0  0
  9 29  1  0  0  0  0
 11 12  1  0  0  0  0
 11 13  1  0  0  0  0
 11 14  1  0  0  0  0
 14 15  2  0  0  0  0
 14 28  1  0  0  0  0
 15 16  1  0  0  0  0
 15 17  1  0  0  0  0
 17 18  1  0  0  0  0
 17 19  1  0  0  0  0
 19 20  1  0  0  0  0
 19 28  2  0  0  0  0
 20 21  1  0  0  0  0
 20 22  2  0  0  0  0
 22 23  1  0  0  0  0
 22 24  1  0  0  0  0
 24 25  1  0  0  0  0
 24 26  2  0  0  0  0
 26 27  1  0  0  0  0
 26 28  1  0  0  0  0
 29 30  2  0  0  0  0
 29 31  1  0  0  0  0
 31 32  1  0  0  0  0
 31 33  1  0  0  0  0
 33 34  1  0  0  0  0
 33 35  1  0  0  0  0
 33 36  1  0  0  0  0
M  END
$$$$

  -OEChem-03222214083D

 36 37  0     1  0  0  0  0  0999 V2000
   -3.2059   -4.8247    0.8569 H   0  0  0  0  0  0  0  0  0  0  0  0
   -3.2228   -4.0392    0.0957 C   0  0  0  0  0  0  0  0  0  0  0  0
   -4.2105   -3.5722    0.0939 H   0  0  0  0  0  0  0  0  0  0  0  0
   -3.0391   -4.4931   -0.8813 H   0  0  0  0  0  0  0  0  0  0  0  0
   -2.1576   -3.0007    0.3931 C   0  0  0  0  0  0  0  0  0  0  0  0
   -1.4690   -3.1058    1.3914 O   0  0  0  0  0  0  0  0  0  0  0  0
   -1.9910   -1.9330   -0.4649 N   0  0  0  0  0  0  0  0  0  0  0  0
   -2.4682   -2.0230   -1.3593 H   0  0  0  0  0  0  0  0  0  0  0  0
   -0.8045   -1.0537   -0.4608 C   0  0  1  0  0  0  0  0  0  0  0  0
    0.0621   -1.7059   -0.6155 H   0  0  0  0  0  0  0  0  0  0  0  0
   -0.8100   -0.0227   -1.6214 C   0  0  0  0  0  0  0  0  0  0  0  0
   -1.0511    0.9677   -1.2207 H   0  0  0  0  0  0  0  0  0  0  0  0
    0.2049    0.0468   -2.0236 H   0  0  0  0  0  0  0  0  0  0  0  0
   -1.7896   -0.2831   -2.7491 C   0  0  0  0  0  0  0  0  0  0  0  0
   -3.1623   -0.3647   -2.6592 C   0  0  0  0  0  0  0  0  0  0  0  0
   -3.7469   -0.1796   -1.7600 H   0  0  0  0  0  0  0  0  0  0  0  0
   -3.6549   -0.7068   -3.9147 N   0  0  0  0  0  0  0  0  0  0  0  0
   -4.6394   -0.7906   -4.1630 H   0  0  0  0  0  0  0  0  0  0  0  0
   -2.6127   -0.8507   -4.8152 C   0  0  0  0  0  0  0  0  0  0  0  0
   -2.6014   -1.1782   -6.1709 C   0  0  0  0  0  0  0  0  0  0  0  0
   -3.5304   -1.3705   -6.6962 H   0  0  0  0  0  0  0  0  0  0  0  0
   -1.3744   -1.2557   -6.8442 C   0  0  0  0  0  0  0  0  0  0  0  0
   -1.3493   -1.5084   -7.9002 H   0  0  0  0  0  0  0  0  0  0  0  0
   -0.1778   -1.0062   -6.1554 C   0  0  0  0  0  0  0  0  0  0  0  0
    0.7716   -1.0651   -6.6792 H   0  0  0  0  0  0  0  0  0  0  0  0
   -0.2018   -0.6770   -4.7926 C   0  0  0  0  0  0  0  0  0  0  0  0
    0.7244   -0.4815   -4.2621 H   0  0  0  0  0  0  0  0  0  0  0  0
   -1.4307   -0.5984   -4.1275 C   0  0  0  0  0  0  0  0  0  0  0  0
   -0.5481   -0.3082    0.8673 C   0  0  0  0  0  0  0  0  0  0  0  0
    0.5997   -0.0287    1.1889 O   0  0  0  0  0  0  0  0  0  0  0  0
   -1.5989    0.3011    1.5293 N   0  0  0  0  0  0  0  0  0  0  0  0
   -2.5223   -0.0559    1.3075 H   0  0  0  0  0  0  0  0  0  0  0  0
   -1.4190    1.0440    2.7698 C   0  0  0  0  0  0  0  0  0  0  0  0
   -0.7316    1.8829    2.6186 H   0  0  0  0  0  0  0  0  0  0  0  0
   -2.3778    1.4436    3.1133 H   0  0  0  0  0  0  0  0  0  0  0  0
   -1.0133    0.3917    3.5502 H   0  0  0  0  0  0  0  0  0  0  0  0
  1  2  1  0  0  0  0
  2  3  1  0  0  0  0
  2  4  1  0  0  0  0
  2  5  1  0  0  0  0
  5  6  2  0  0  0  0
  5  7  1  0  0  0  0
  7  8  1  0  0  0  0
  7  9  1  0  0  0  0
  9 10  1  0  0  0  0
  9 11  1  0  0  0  0
  9 29  1  0  0  0  0
 11 12  1  0  0  0  0
 11 13  1  0  0  0  0
 11 14  1  0  0  0  0
 14 15  2  0  0  0  0
 14 28  1  0  0  0  0
 15 16  1  0  0  0  0
 15 17  1  0  0  0  0
 17 18  1  0  0  0  0
 17 19  1  0  0  0  0
 19 20  1  0  0  0  0
 19 28  2  0  0  0  0
 20 21  1  0  0  0  0
 20 22  2  0  0  0  0
 22 23  1  0  0  0  0
 22 24  1  0  0  0  0
 24 25  1  0  0  0  0
 24 26  2  0  0  0  0
 26 27  1  0  0  0  0
 26 28  1  0  0  0  0
 29 30  2  0  0  0  0
 29 31  1  0  0  0  0
 31 32  1  0  0  0  0
 31 33  1  0  0  0  0
 33 34  1  0  0  0  0
 33 35  1  0  0  0  0
 33 36  1  0  0  0  0
M  END
$$$$

  -OEChem-03222214083D

 36 37  0     1  0  0  0  0  0999 V2000
   -3.2669   -4.7845    0.6554 H   0  0  0  0  0  0  0  0  0  0  0  0
   -3.2419   -3.9819   -0.0873 C   0  0  0  0  0  0  0  0  0  0  0  0
   -4.2182   -3.4922   -0.1102 H   0  0  0  0  0  0  0  0  0  0  0  0
   -3.0364   -4.4173   -1.0684 H   0  0  0  0  0  0  0  0  0  0  0  0
   -2.1639   -2.9758    0.2679 C   0  0  0  0  0  0  0  0  0  0  0  0
   -1.4955   -3.1296    1.2738 O   0  0  0  0  0  0  0  0  0  0  0  0
   -1.9592   -1.8825   -0.5472 N   0  0  0  0  0  0  0  0  0  0  0  0
   -2.4376   -1.9119   -1.4464 H   0  0  0  0  0  0  0  0  0  0  0  0
   -0.7667   -1.0127   -0.4809 C   0  0  1  0  0  0  0  0  0  0  0  0
    0.1000   -1.6652   -0.6328 H   0  0  0  0  0  0  0  0  0  0  0  0
   -0.7469    0.0410   -1.6178 C   0  0  0  0  0  0  0  0  0  0  0  0
   -1.0103    1.0197   -1.2028 H   0  0  0  0  0  0  0  0  0  0  0  0
    0.2707    0.1312   -2.0102 H   0  0  0  0  0  0  0  0  0  0  0  0
   -1.7139   -0.2404   -2.7460 C   0  0  0  0  0  0  0  0  0  0  0  0
   -3.0783   -0.0625   -2.7113 C   0  0  0  0  0  0  0  0  0  0  0  0
   -3.6361    0.3790   -1.8875 H   0  0  0  0  0  0  0  0  0  0  0  0
   -3.5989   -0.5517   -3.9063 N   0  0  0  0  0  0  0  0  0  0  0  0
   -4.5776   -0.5093   -4.1866 H   0  0  0  0  0  0  0  0  0  0  0  0
   -2.5833   -1.0531   -4.7046 C   0  0  0  0  0  0  0  0  0  0  0  0
   -2.6014   -1.6453   -5.9673 C   0  0  0  0  0  0  0  0  0  0  0  0
   -3.5378   -1.7736   -6.4990 H   0  0  0  0  0  0  0  0  0  0  0  0
   -1.3943   -2.0727   -6.5384 C   0  0  0  0  0  0  0  0  0  0  0  0
   -1.3925   -2.5344   -7.5214 H   0  0  0  0  0  0  0  0  0  0  0  0
   -0.1875   -1.9041   -5.8423 C   0  0  0  0  0  0  0  0  0  0  0  0
    0.7461   -2.2351   -6.2879 H   0  0  0  0  0  0  0  0  0  0  0  0
   -0.1811   -1.3066   -4.5737 C   0  0  0  0  0  0  0  0  0  0  0  0
    0.7516   -1.1740   -4.0343 H   0  0  0  0  0  0  0  0  0  0  0  0
   -1.3896   -0.8800   -4.0131 C   0  0  0  0  0  0  0  0  0  0  0  0
   -0.5400   -0.3091    0.8744 C   0  0  0  0  0  0  0  0  0  0  0  0
    0.6007   -0.0410    1.2298 O   0  0  0  0  0  0  0  0  0  0  0  0
   -1.6041    0.2893    1.5254 N   0  0  0  0  0  0  0  0  0  0  0  0
   -2.5228   -0.0615    1.2751 H   0  0  0  0  0  0  0  0  0  0  0  0
   -1.4507    0.9984    2.7893 C   0  0  0  0  0  0  0  0  0  0  0  0
   -0.7752    1.8519    2.6705 H   0  0  0  0  0  0  0  0  0  0  0  0
   -2.4194    1.3725    3.1336 H   0  0  0  0  0  0  0  0  0  0  0  0
   -1.0435    0.3311    3.5560 H   0  0  0  0  0  0  0  0  0  0  0  0
  1  2  1  0  0  0  0
  2  3  1  0  0  0  0
  2  4  1  0  0  0  0
  2  5  1  0  0  0  0
  5  6  2  0  0  0  0
  5  7  1  0  0  0  0
  7  8  1  0  0  0  0
  7  9  1  0  0  0  0
  9 10  1  0  0  0  0
  9 11  1  0  0  0  0
  9 29  1  0  0  0  0
 11 12  1  0  0  0  0
 11 13  1  0  0  0  0
 11 14  1  0  0  0  0
 14 15  2  0  0  0  0
 14 28  1  0  0  0  0
 15 16  1  0  0  0  0
 15 17  1  0  0  0  0
 17 18  1  0  0  0  0
 17 19  1  0  0  0  0
 19 20  1  0  0  0  0
 19 28  2  0  0  0  0
 20 21  1  0  0  0  0
 20 22  2  0  0  0  0
 22 23  1  0  0  0  0
 22 24  1  0  0  0  0
 24 25  1  0  0  0  0
 24 26  2  0  0  0  0
 26 27  1  0  0  0  0
 26 28  1  0  0  0  0
 29 30  2  0  0  0  0
 29 31  1  0  0  0  0
 31 32  1  0  0  0  0
 31 33  1  0  0  0  0
 33 34  1  0  0  0  0
 33 35  1  0  0  0  0
 33 36  1  0  0  0  0
M  END
$$$$

  -OEChem-03222214083D

 36 37  0     1  0  0  0  0  0999 V2000
   -3.2977   -4.7673    0.5613 H   0  0  0  0  0  0  0  0  0  0  0  0
   -3.2564   -3.9509   -0.1653 C   0  0  0  0  0  0  0  0  0  0  0  0
   -4.2234   -3.4426   -0.1802 H   0  0  0  0  0  0  0  0  0  0  0  0
   -3.0571   -4.3705   -1.1546 H   0  0  0  0  0  0  0  0  0  0  0  0
   -2.1616   -2.9708    0.2113 C   0  0  0  0  0  0  0  0  0  0  0  0
   -1.5016   -3.1500    1.2189 O   0  0  0  0  0  0  0  0  0  0  0  0
   -1.9293   -1.8721   -0.5882 N   0  0  0  0  0  0  0  0  0  0  0  0
   -2.4104   -1.8697   -1.4870 H   0  0  0  0  0  0  0  0  0  0  0  0
   -0.7345   -1.0075   -0.4912 C   0  0  1  0  0  0  0  0  0  0  0  0
    0.1342   -1.6595   -0.6324 H   0  0  0  0  0  0  0  0  0  0  0  0
   -0.7020    0.0494   -1.6238 C   0  0  0  0  0  0  0  0  0  0  0  0
   -0.9717    1.0275   -1.2115 H   0  0  0  0  0  0  0  0  0  0  0  0
    0.3166    0.1404   -2.0137 H   0  0  0  0  0  0  0  0  0  0  0  0
   -1.6598   -0.2526   -2.7519 C   0  0  0  0  0  0  0  0  0  0  0  0
   -2.9656    0.1684   -2.8393 C   0  0  0  0  0  0  0  0  0  0  0  0
   -3.4637    0.8350   -2.1379 H   0  0  0  0  0  0  0  0  0  0  0  0
   -3.5219   -0.4245   -3.9701 N   0  0  0  0  0  0  0  0  0  0  0  0
   -4.4655   -0.2608   -4.3180 H   0  0  0  0  0  0  0  0  0  0  0  0
   -2.5886   -1.2305   -4.6027 C   0  0  0  0  0  0  0  0  0  0  0  0
   -2.6678   -2.0249   -5.7465 C   0  0  0  0  0  0  0  0  0  0  0  0
   -3.5904   -2.0781   -6.3139 H   0  0  0  0  0  0  0  0  0  0  0  0
   -1.5401   -2.7533   -6.1513 C   0  0  0  0  0  0  0  0  0  0  0  0
   -1.5864   -3.3760   -7.0400 H   0  0  0  0  0  0  0  0  0  0  0  0
   -0.3505   -2.6791   -5.4100 C   0  0  0  0  0  0  0  0  0  0  0  0
    0.5220   -3.2430   -5.7268 H   0  0  0  0  0  0  0  0  0  0  0  0
   -0.2821   -1.8760   -4.2626 C   0  0  0  0  0  0  0  0  0  0  0  0
    0.6363   -1.8137   -3.6876 H   0  0  0  0  0  0  0  0  0  0  0  0
   -1.4111   -1.1512   -3.8691 C   0  0  0  0  0  0  0  0  0  0  0  0
   -0.5340   -0.3142    0.8732 C   0  0  0  0  0  0  0  0  0  0  0  0
    0.5995   -0.0567    1.2579 O   0  0  0  0  0  0  0  0  0  0  0  0
   -1.6099    0.2840    1.5046 N   0  0  0  0  0  0  0  0  0  0  0  0
   -2.5245   -0.0552    1.2248 H   0  0  0  0  0  0  0  0  0  0  0  0
   -1.4836    0.9742    2.7816 C   0  0  0  0  0  0  0  0  0  0  0  0
   -0.8026    1.8269    2.6912 H   0  0  0  0  0  0  0  0  0  0  0  0
   -2.4591    1.3466    3.1077 H   0  0  0  0  0  0  0  0  0  0  0  0
   -1.0971    0.2943    3.5480 H   0  0  0  0  0  0  0  0  0  0  0  0
  1  2  1  0  0  0  0
  2  3  1  0  0  0  0
  2  4  1  0  0  0  0
  2  5  1  0  0  0  0
  5  6  2  0  0  0  0
  5  7  1  0  0  0  0
  7  8  1  0  0  0  0
  7  9  1  0  0  0  0
  9 10  1  0  0  0  0
  9 11  1  0  0  0  0
  9 29  1  0  0  0  0
 11 12  1  0  0  0  0
 11 13  1  0  0  0  0
 11 14  1  0  0  0  0
 14 15  2  0  0  0  0
 14 28  1  0  0  0  0
 15 16  1  0  0  0  0
 15 17  1  0  0  0  0
 17 18  1  0  0  0  0
 17 19  1  0  0  0  0
 19 20  1  0  0  0  0
 19 28  2  0  0  0  0
 20 21  1  0  0  0  0
 20 22  2  0  0  0  0
 22 23  1  0  0  0  0
 22 24  1  0  0  0  0
 24 25  1  0  0  0  0
 24 26  2  0  0  0  0
 26 27  1  0  0  0  0
 26 28  1  0  0  0  0
 29 30  2  0  0  0  0
 29 31  1  0  0  0  0
 31 32  1  0  0  0  0
 31 33  1  0  0  0  0
 33 34  1  0  0  0  0
 33 35  1  0  0  0  0
 33 36  1  0  0  0  0
M  END
$$$$

  -OEChem-03222214083D

 36 37  0     1  0  0  0  0  0999 V2000
   -3.3093   -4.7765    0.5905 H   0  0  0  0  0  0  0  0  0  0  0  0
   -3.2733   -3.9552   -0.1307 C   0  0  0  0  0  0  0  0  0  0  0  0
   -4.2368   -3.4400   -0.1278 H   0  0  0  0  0  0  0  0  0  0  0  0
   -3.0922   -4.3692   -1.1259 H   0  0  0  0  0  0  0  0  0  0  0  0
   -2.1665   -2.9849    0.2358 C   0  0  0  0  0  0  0  0  0  0  0  0
   -1.5015   -3.1672    1.2398 O   0  0  0  0  0  0  0  0  0  0  0  0
   -1.9236   -1.8956   -0.5730 N   0  0  0  0  0  0  0  0  0  0  0  0
   -2.4151   -1.8851   -1.4664 H   0  0  0  0  0  0  0  0  0  0  0  0
   -0.7283   -1.0323   -0.4775 C   0  0  1  0  0  0  0  0  0  0  0  0
    0.1399   -1.6882   -0.6024 H   0  0  0  0  0  0  0  0  0  0  0  0
   -0.6864    0.0092   -1.6239 C   0  0  0  0  0  0  0  0  0  0  0  0
   -0.9492    0.9957   -1.2271 H   0  0  0  0  0  0  0  0  0  0  0  0
    0.3347    0.0839   -2.0113 H   0  0  0  0  0  0  0  0  0  0  0  0
   -1.6360   -0.3066   -2.7559 C   0  0  0  0  0  0  0  0  0  0  0  0
   -2.8266    0.3275   -3.0169 C   0  0  0  0  0  0  0  0  0  0  0  0
   -3.2257    1.1775   -2.4664 H   0  0  0  0  0  0  0  0  0  0  0  0
   -3.4180   -0.3221   -4.0985 N   0  0  0  0  0  0  0  0  0  0  0  0
   -4.2923   -0.0472   -4.5438 H   0  0  0  0  0  0  0  0  0  0  0  0
   -2.6206   -1.3701   -4.5307 C   0  0  0  0  0  0  0  0  0  0  0  0
   -2.7789   -2.3012   -5.5569 C   0  0  0  0  0  0  0  0  0  0  0  0
   -3.6573   -2.2726   -6.1921 H   0  0  0  0  0  0  0  0  0  0  0  0
   -1.7875   -3.2726   -5.7568 C   0  0  0  0  0  0  0  0  0  0  0  0
   -1.8961   -4.0031   -6.5533 H   0  0  0  0  0  0  0  0  0  0  0  0
   -0.6527   -3.3011   -4.9315 C   0  0  0  0  0  0  0  0  0  0  0  0
    0.1147   -4.0530   -5.0902 H   0  0  0  0  0  0  0  0  0  0  0  0
   -0.5022   -2.3581   -3.9050 C   0  0  0  0  0  0  0  0  0  0  0  0
    0.3756   -2.3735   -3.2663 H   0  0  0  0  0  0  0  0  0  0  0  0
   -1.4960   -1.3932   -3.7152 C   0  0  0  0  0  0  0  0  0  0  0  0
   -0.5380   -0.3240    0.8801 C   0  0  0  0  0  0  0  0  0  0  0  0
    0.5925   -0.0664    1.2733 O   0  0  0  0  0  0  0  0  0  0  0  0
   -1.6182    0.2829    1.4956 N   0  0  0  0  0  0  0  0  0  0  0  0
   -2.5321   -0.0495    1.2042 H   0  0  0  0  0  0  0  0  0  0  0  0
   -1.5027    0.9867    2.7665 C   0  0  0  0  0  0  0  0  0  0  0  0
   -0.8027    1.8246    2.6787 H   0  0  0  0  0  0  0  0  0  0  0  0
   -2.4766    1.3830    3.0688 H   0  0  0  0  0  0  0  0  0  0  0  0
   -1.1449    0.3081    3.5483 H   0  0  0  0  0  0  0  0  0  0  0  0
  1  2  1  0  0  0  0
  2  3  1  0  0  0  0
  2  4  1  0  0  0  0
  2  5  1  0  0  0  0
  5  6  2  0  0  0  0
  5  7  1  0  0  0  0
  7  8  1  0  0  0  0
  7  9  1  0  0  0  0
  9 10  1  0  0  0  0
  9 11  1  0  0  0  0
  9 29  1  0  0  0  0
 11 12  1  0  0  0  0
 11 13  1  0  0  0  0
 11 14  1  0  0  0  0
 14 15  2  0  0  0  0
 14 28  1  0  0  0  0
 15 16  1  0  0  0  0
 15 17  1  0  0  0  0
 17 18  1  0  0  0  0
 17 19  1  0  0  0  0
 19 20  1  0  0  0  0
 19 28  2  0  0  0  0
 20 21  1  0  0  0  0
 20 22  2  0  0  0  0
 22 23  1  0  0  0  0
 22 24  1  0  0  0  0
 24 25  1  0  0  0  0
 24 26  2  0  0  0  0
 26 27  1  0  0  0  0
 26 28  1  0  0  0  0
 29 30  2  0  0  0  0
 29 31  1  0  0  0  0
 31 32  1  0  0  0  0
 31 33  1  0  0  0  0
 33 34  1  0  0  0  0
 33 35  1  0  0  0  0
 33 36  1  0  0  0  0
M  END
$$$$

  -OEChem-03222214083D

 36 37  0     1  0  0  0  0  0999 V2000
   -3.3241   -4.7820    0.7237 H   0  0  0  0  0  0  0  0  0  0  0  0
   -3.3057   -3.9641   -0.0020 C   0  0  0  0  0  0  0  0  0  0  0  0
   -4.2677   -3.4467    0.0244 H   0  0  0  0  0  0  0  0  0  0  0  0
   -3.1521   -4.3828   -0.9998 H   0  0  0  0  0  0  0  0  0  0  0  0
   -2.1864   -2.9960    0.3303 C   0  0  0  0  0  0  0  0  0  0  0  0
   -1.5105   -3.1635    1.3294 O   0  0  0  0  0  0  0  0  0  0  0  0
   -1.9371   -1.9308   -0.5077 N   0  0  0  0  0  0  0  0  0  0  0  0
   -2.4421   -1.9301   -1.3936 H   0  0  0  0  0  0  0  0  0  0  0  0
   -0.7390   -1.0693   -0.4366 C   0  0  1  0  0  0  0  0  0  0  0  0
    0.1277   -1.7306   -0.5407 H   0  0  0  0  0  0  0  0  0  0  0  0
   -0.6905   -0.0595   -1.6111 C   0  0  0  0  0  0  0  0  0  0  0  0
   -0.9372    0.9412   -1.2411 H   0  0  0  0  0  0  0  0  0  0  0  0
    0.3330   -0.0123   -1.9970 H   0  0  0  0  0  0  0  0  0  0  0  0
   -1.6348   -0.3888   -2.7462 C   0  0  0  0  0  0  0  0  0  0  0  0
   -2.6533    0.4129   -3.2016 C   0  0  0  0  0  0  0  0  0  0  0  0
   -2.9093    1.3952   -2.8092 H   0  0  0  0  0  0  0  0  0  0  0  0
   -3.2899   -0.2642   -4.2394 N   0  0  0  0  0  0  0  0  0  0  0  0
   -4.0678    0.0984   -4.7884 H   0  0  0  0  0  0  0  0  0  0  0  0
   -2.6757   -1.4842   -4.4716 C   0  0  0  0  0  0  0  0  0  0  0  0
   -2.9360   -2.4974   -5.3942 C   0  0  0  0  0  0  0  0  0  0  0  0
   -3.7530   -2.3987   -6.1004 H   0  0  0  0  0  0  0  0  0  0  0  0
   -2.1259   -3.6418   -5.3990 C   0  0  0  0  0  0  0  0  0  0  0  0
   -2.3151   -4.4375   -6.1139 H   0  0  0  0  0  0  0  0  0  0  0  0
   -1.0664   -3.7582   -4.4862 C   0  0  0  0  0  0  0  0  0  0  0  0
   -0.4367   -4.6432   -4.4967 H   0  0  0  0  0  0  0  0  0  0  0  0
   -0.8125   -2.7326   -3.5649 C   0  0  0  0  0  0  0  0  0  0  0  0
    0.0105   -2.8172   -2.8620 H   0  0  0  0  0  0  0  0  0  0  0  0
   -1.6295   -1.5970   -3.5641 C   0  0  0  0  0  0  0  0  0  0  0  0
   -0.5502   -0.3247    0.9015 C   0  0  0  0  0  0  0  0  0  0  0  0
    0.5800   -0.0615    1.2920 O   0  0  0  0  0  0  0  0  0  0  0  0
   -1.6304    0.3014    1.4974 N   0  0  0  0  0  0  0  0  0  0  0  0
   -2.5444   -0.0314    1.2069 H   0  0  0  0  0  0  0  0  0  0  0  0
   -1.5191    1.0303    2.7543 C   0  0  0  0  0  0  0  0  0  0  0  0
   -0.8001    1.8510    2.6603 H   0  0  0  0  0  0  0  0  0  0  0  0
   -2.4884    1.4539    3.0331 H   0  0  0  0  0  0  0  0  0  0  0  0
   -1.1878    0.3615    3.5558 H   0  0  0  0  0  0  0  0  0  0  0  0
  1  2  1  0  0  0  0
  2  3  1  0  0  0  0
  2  4  1  0  0  0  0
  2  5  1  0  0  0  0
  5  6  2  0  0  0  0
  5  7  1  0  0  0  0
  7  8  1  0  0  0  0
  7  9  1  0  0  0  0
  9 10  1  0  0  0  0
  9 11  1  0  0  0  0
  9 29  1  0  0  0  0
 11 12  1  0  0  0  0
 11 13  1  0  0  0  0
 11 14  1  0  0  0  0
 14 15  2  0  0  0  0
 14 28  1  0  0  0  0
 15 16  1  0  0  0  0
 15 17  1  0  0  0  0
 17 18  1  0  0  0  0
 17 19  1  0  0  0  0
 19 20  1  0  0  0  0
 19 28  2  0  0  0  0
 20 21  1  0  0  0  0
 20 22  2  0  0  0  0
 22 23  1  0  0  0  0
 22 24  1  0  0  0  0
 24 25  1  0  0  0  0
 24 26  2  0  0  0  0
 26 27  1  0  0  0  0
 26 28  1  0  0  0  0
 29 30  2  0  0  0  0
 29 31  1  0  0  0  0
 31 32  1  0  0  0  0
 31 33  1  0  0  0  0
 33 34  1  0  0  0  0
 33 35  1  0  0  0  0
 33 36  1  0  0  0  0
M  END
$$$$

  -OEChem-03222214083D

 36 37  0     1  0  0  0  0  0999 V2000
   -3.3264   -4.7633    0.9454 H   0  0  0  0  0  0  0  0  0  0  0  0
   -3.3311   -3.9580    0.2054 C   0  0  0  0  0  0  0  0  0  0  0  0
   -4.2885   -3.4345    0.2586 H   0  0  0  0  0  0  0  0  0  0  0  0
   -3.2162   -4.3940   -0.7902 H   0  0  0  0  0  0  0  0  0  0  0  0
   -2.1965   -2.9905    0.4799 C   0  0  0  0  0  0  0  0  0  0  0  0
   -1.4934   -3.1361    1.4634 O   0  0  0  0  0  0  0  0  0  0  0  0
   -1.9575   -1.9576   -0.4003 N   0  0  0  0  0  0  0  0  0  0  0  0
   -2.4923   -1.9721   -1.2684 H   0  0  0  0  0  0  0  0  0  0  0  0
   -0.7598   -1.0951   -0.3799 C   0  0  1  0  0  0  0  0  0  0  0  0
    0.1065   -1.7598   -0.4676 H   0  0  0  0  0  0  0  0  0  0  0  0
   -0.7240   -0.1315   -1.5934 C   0  0  0  0  0  0  0  0  0  0  0  0
   -0.9529    0.8852   -1.2561 H   0  0  0  0  0  0  0  0  0  0  0  0
    0.2977   -0.1133   -1.9861 H   0  0  0  0  0  0  0  0  0  0  0  0
   -1.6719   -0.4764   -2.7256 C   0  0  0  0  0  0  0  0  0  0  0  0
   -2.4723    0.4329   -3.3746 C   0  0  0  0  0  0  0  0  0  0  0  0
   -2.5511    1.4906   -3.1309 H   0  0  0  0  0  0  0  0  0  0  0  0
   -3.1559   -0.2427   -4.3823 N   0  0  0  0  0  0  0  0  0  0  0  0
   -3.8080    0.1841   -5.0384 H   0  0  0  0  0  0  0  0  0  0  0  0
   -2.7628   -1.5694   -4.4269 C   0  0  0  0  0  0  0  0  0  0  0  0
   -3.1376   -2.6175   -5.2674 C   0  0  0  0  0  0  0  0  0  0  0  0
   -3.8738   -2.4570   -6.0476 H   0  0  0  0  0  0  0  0  0  0  0  0
   -2.5451   -3.8763   -5.0963 C   0  0  0  0  0  0  0  0  0  0  0  0
   -2.8257   -4.7014   -5.7449 H   0  0  0  0  0  0  0  0  0  0  0  0
   -1.5798   -4.0680   -4.0967 C   0  0  0  0  0  0  0  0  0  0  0  0
   -1.1122   -5.0407   -3.9739 H   0  0  0  0  0  0  0  0  0  0  0  0
   -1.2083   -3.0058   -3.2612 C   0  0  0  0  0  0  0  0  0  0  0  0
   -0.4509   -3.1533   -2.4975 H   0  0  0  0  0  0  0  0  0  0  0  0
   -1.8195   -1.7558   -3.4227 C   0  0  0  0  0  0  0  0  0  0  0  0
   -0.5591   -0.3037    0.9298 C   0  0  0  0  0  0  0  0  0  0  0  0
    0.5738   -0.0342    1.3077 O   0  0  0  0  0  0  0  0  0  0  0  0
   -1.6355    0.3402    1.5135 N   0  0  0  0  0  0  0  0  0  0  0  0
   -2.5510    0.0043    1.2312 H   0  0  0  0  0  0  0  0  0  0  0  0
   -1.5231    1.0919    2.7571 C   0  0  0  0  0  0  0  0  0  0  0  0
   -0.7786    1.8892    2.6603 H   0  0  0  0  0  0  0  0  0  0  0  0
   -2.4844    1.5496    3.0092 H   0  0  0  0  0  0  0  0  0  0  0  0
   -1.2262    0.4302    3.5776 H   0  0  0  0  0  0  0  0  0  0  0  0
  1  2  1  0  0  0  0
  2  3  1  0  0  0  0
  2  4  1  0  0  0  0
  2  5  1  0  0  0  0
  5  6  2  0  0  0  0
  5  7  1  0  0  0  0
  7  8  1  0  0  0  0
  7  9  1  0  0  0  0
  9 10  1  0  0  0  0
  9 11  1  0  0  0  0
  9 29  1  0  0  0  0
 11 12  1  0  0  0  0
 11 13  1  0  0  0  0
 11 14  1  0  0  0  0
 14 15  2  0  0  0  0
 14 28  1  0  0  0  0
 15 16  1  0  0  0  0
 15 17  1  0  0  0  0
 17 18  1  0  0  0  0
 17 19  1  0  0  0  0
 19 20  1  0  0  0  0
 19 28  2  0  0  0  0
 20 21  1  0  0  0  0
 20 22  2  0  0  0  0
 22 23  1  0  0  0  0
 22 24  1  0  0  0  0
 24 25  1  0  0  0  0
 24 26  2  0  0  0  0
 26 27  1  0  0  0  0
 26 28  1  0  0  0  0
 29 30  2  0  0  0  0
 29 31  1  0  0  0  0
 31 32  1  0  0  0  0
 31 33  1  0  0  0  0
 33 34  1  0  0  0  0
 33 35  1  0  0  0  0
 33 36  1  0  0  0  0
M  END
$$$$

  -OEChem-03222214083D

 36 37  0     1  0  0  0  0  0999 V2000
   -3.4109   -4.6790    1.2683 H   0  0  0  0  0  0  0  0  0  0  0  0
   -3.4056   -3.9232    0.4778 C   0  0  0  0  0  0  0  0  0  0  0  0
   -4.3396   -3.3582    0.5244 H   0  0  0  0  0  0  0  0  0  0  0  0
   -3.3402   -4.4262   -0.4902 H   0  0  0  0  0  0  0  0  0  0  0  0
   -2.2247   -2.9883    0.6558 C   0  0  0  0  0  0  0  0  0  0  0  0
   -1.4657   -3.1332    1.5968 O   0  0  0  0  0  0  0  0  0  0  0  0
   -2.0063   -1.9853   -0.2638 N   0  0  0  0  0  0  0  0  0  0  0  0
   -2.6001   -1.9895   -1.0928 H   0  0  0  0  0  0  0  0  0  0  0  0
   -0.8061   -1.1287   -0.3122 C   0  0  1  0  0  0  0  0  0  0  0  0
    0.0535   -1.8012   -0.4062 H   0  0  0  0  0  0  0  0  0  0  0  0
   -0.8015   -0.2048   -1.5568 C   0  0  0  0  0  0  0  0  0  0  0  0
   -1.0089    0.8235   -1.2416 H   0  0  0  0  0  0  0  0  0  0  0  0
    0.2117   -0.2093   -1.9711 H   0  0  0  0  0  0  0  0  0  0  0  0
   -1.7716   -0.5513   -2.6725 C   0  0  0  0  0  0  0  0  0  0  0  0
   -2.3276    0.4002   -3.4952 C   0  0  0  0  0  0  0  0  0  0  0  0
   -2.2152    1.4765   -3.3780 H   0  0  0  0  0  0  0  0  0  0  0  0
   -3.0613   -0.2520   -4.4805 N   0  0  0  0  0  0  0  0  0  0  0  0
   -3.5758    0.2062   -5.2307 H   0  0  0  0  0  0  0  0  0  0  0  0
   -2.8931   -1.6201   -4.3745 C   0  0  0  0  0  0  0  0  0  0  0  0
   -3.3698   -2.6623   -5.1690 C   0  0  0  0  0  0  0  0  0  0  0  0
   -4.0221   -2.4552   -6.0104 H   0  0  0  0  0  0  0  0  0  0  0  0
   -2.9798   -3.9756   -4.8778 C   0  0  0  0  0  0  0  0  0  0  0  0
   -3.3391   -4.7975   -5.4903 H   0  0  0  0  0  0  0  0  0  0  0  0
   -2.1042   -4.2255   -3.8119 C   0  0  0  0  0  0  0  0  0  0  0  0
   -1.7809   -5.2416   -3.6048 H   0  0  0  0  0  0  0  0  0  0  0  0
   -1.6316   -3.1677   -3.0231 C   0  0  0  0  0  0  0  0  0  0  0  0
   -0.9279   -3.3703   -2.2218 H   0  0  0  0  0  0  0  0  0  0  0  0
   -2.0593   -1.8572   -3.2857 C   0  0  0  0  0  0  0  0  0  0  0  0
   -0.5574   -0.2940    0.9621 C   0  0  0  0  0  0  0  0  0  0  0  0
    0.5884   -0.0100    1.2870 O   0  0  0  0  0  0  0  0  0  0  0  0
   -1.6107    0.3751    1.5594 N   0  0  0  0  0  0  0  0  0  0  0  0
   -2.5391    0.0436    1.3171 H   0  0  0  0  0  0  0  0  0  0  0  0
   -1.4498    1.2023    2.7481 C   0  0  0  0  0  0  0  0  0  0  0  0
   -0.7228    2.0003    2.5653 H   0  0  0  0  0  0  0  0  0  0  0  0
   -2.4042    1.6635    3.0192 H   0  0  0  0  0  0  0  0  0  0  0  0
   -1.1031    0.5963    3.5917 H   0  0  0  0  0  0  0  0  0  0  0  0
  1  2  1  0  0  0  0
  2  3  1  0  0  0  0
  2  4  1  0  0  0  0
  2  5  1  0  0  0  0
  5  6  2  0  0  0  0
  5  7  1  0  0  0  0
  7  8  1  0  0  0  0
  7  9  1  0  0  0  0
  9 10  1  0  0  0  0
  9 11  1  0  0  0  0
  9 29  1  0  0  0  0
 11 12  1  0  0  0  0
 11 13  1  0  0  0  0
 11 14  1  0  0  0  0
 14 15  2  0  0  0  0
 14 28  1  0  0  0  0
 15 16  1  0  0  0  0
 15 17  1  0  0  0  0
 17 18  1  0  0  0  0
 17 19  1  0  0  0  0
 19 20  1  0  0  0  0
 19 28  2  0  0  0  0
 20 21  1  0  0  0  0
 20 22  2  0  0  0  0
 22 23  1  0  0  0  0
 22 24  1  0  0  0  0
 24 25  1  0  0  0  0
 24 26  2  0  0  0  0
 26 27  1  0  0  0  0
 26 28  1  0  0  0  0
 29 30  2  0  0  0  0
 29 31  1  0  0  0  0
 31 32  1  0  0  0  0
 31 33  1  0  0  0  0
 33 34  1  0  0  0  0
 33 35  1  0  0  0  0
 33 36  1  0  0  0  0
M  END
$$$$

  -OEChem-03222214083D

 36 37  0     1  0  0  0  0  0999 V2000
   -3.4261   -4.5619    1.6077 H   0  0  0  0  0  0  0  0  0  0  0  0
   -3.4222   -3.8738    0.7576 C   0  0  0  0  0  0  0  0  0  0  0  0
   -4.3384   -3.2791    0.7817 H   0  0  0  0  0  0  0  0  0  0  0  0
   -3.3990   -4.4564   -0.1666 H   0  0  0  0  0  0  0  0  0  0  0  0
   -2.2105   -2.9637    0.8287 C   0  0  0  0  0  0  0  0  0  0  0  0
   -1.3966   -3.0991    1.7241 O   0  0  0  0  0  0  0  0  0  0  0  0
   -2.0304   -1.9909   -0.1318 N   0  0  0  0  0  0  0  0  0  0  0  0
   -2.6869   -1.9852   -0.9118 H   0  0  0  0  0  0  0  0  0  0  0  0
   -0.8375   -1.1361   -0.2575 C   0  0  1  0  0  0  0  0  0  0  0  0
    0.0186   -1.8113   -0.3642 H   0  0  0  0  0  0  0  0  0  0  0  0
   -0.8796   -0.2484   -1.5278 C   0  0  0  0  0  0  0  0  0  0  0  0
   -1.0775    0.7854   -1.2242 H   0  0  0  0  0  0  0  0  0  0  0  0
    0.1238   -0.2592   -1.9660 H   0  0  0  0  0  0  0  0  0  0  0  0
   -1.8736   -0.5863   -2.6297 C   0  0  0  0  0  0  0  0  0  0  0  0
   -2.1634    0.3425   -3.6035 C   0  0  0  0  0  0  0  0  0  0  0  0
   -1.8377    1.3809   -3.5933 H   0  0  0  0  0  0  0  0  0  0  0  0
   -2.9673   -0.2554   -4.5651 N   0  0  0  0  0  0  0  0  0  0  0  0
   -3.3377    0.2063   -5.3940 H   0  0  0  0  0  0  0  0  0  0  0  0
   -3.0623   -1.6097   -4.3214 C   0  0  0  0  0  0  0  0  0  0  0  0
   -3.6746   -2.6116   -5.0732 C   0  0  0  0  0  0  0  0  0  0  0  0
   -4.2412   -2.3608   -5.9633 H   0  0  0  0  0  0  0  0  0  0  0  0
   -3.5220   -3.9456   -4.6807 C   0  0  0  0  0  0  0  0  0  0  0  0
   -3.9876   -4.7395   -5.2576 H   0  0  0  0  0  0  0  0  0  0  0  0
   -2.7290   -4.2565   -3.5691 C   0  0  0  0  0  0  0  0  0  0  0  0
   -2.5691   -5.2950   -3.2938 H   0  0  0  0  0  0  0  0  0  0  0  0
   -2.1194   -3.2352   -2.8275 C   0  0  0  0  0  0  0  0  0  0  0  0
   -1.4578   -3.5096   -2.0133 H   0  0  0  0  0  0  0  0  0  0  0  0
   -2.3359   -1.8871   -3.1645 C   0  0  0  0  0  0  0  0  0  0  0  0
   -0.5424   -0.2602    0.9789 C   0  0  0  0  0  0  0  0  0  0  0  0
    0.6145    0.0342    1.2501 O   0  0  0  0  0  0  0  0  0  0  0  0
   -1.5722    0.4265    1.5970 N   0  0  0  0  0  0  0  0  0  0  0  0
   -2.5109    0.0976    1.3946 H   0  0  0  0  0  0  0  0  0  0  0  0
   -1.3649    1.2957    2.7480 C   0  0  0  0  0  0  0  0  0  0  0  0
   -0.6549    2.0932    2.5043 H   0  0  0  0  0  0  0  0  0  0  0  0
   -2.3100    1.7583    3.0481 H   0  0  0  0  0  0  0  0  0  0  0  0
   -0.9736    0.7213    3.5943 H   0  0  0  0  0  0  0  0  0  0  0  0
  1  2  1  0  0  0  0
  2  3  1  0  0  0  0
  2  4  1  0  0  0  0
  2  5  1  0  0  0  0
  5  6  2  0  0  0  0
  5  7  1  0  0  0  0
  7  8  1  0  0  0  0
  7  9  1  0  0  0  0
  9 10  1  0  0  0  0
  9 11  1  0  0  0  0
  9 29  1  0  0  0  0
 11 12  1  0  0  0  0
 11 13  1  0  0  0  0
 11 14  1  0  0  0  0
 14 15  2  0  0  0  0
 14 28  1  0  0  0  0
 15 16  1  0  0  0  0
 15 17  1  0  0  0  0
 17 18  1  0  0  0  0
 17 19  1  0  0  0  0
 19 20  1  0  0  0  0
 19 28  2  0  0  0  0
 20 21  1  0  0  0  0
 20 22  2  0  0  0  0
 22 23  1  0  0  0  0
 22 24  1  0  0  0  0
 24 25  1  0  0  0  0
 24 26  2  0  0  0  0
 26 27  1  0  0  0  0
 26 28  1  0  0  0  0
 29 30  2  0  0  0  0
 29 31  1  0  0  0  0
 31 32  1  0  0  0  0
 31 33  1  0  0  0  0
 33 34  1  0  0  0  0
 33 35  1  0  0  0  0
 33 36  1  0  0  0  0
M  END
$$$$

  -OEChem-03222214083D

 36 37  0     1  0  0  0  0  0999 V2000
   -1.8783   -5.1479    1.5148 H   0  0  0  0  0  0  0  0  0  0  0  0
   -2.2119   -4.4292    0.7607 C   0  0  0  0  0  0  0  0  0  0  0  0
   -3.2754   -4.2304    0.9113 H   0  0  0  0  0  0  0  0  0  0  0  0
   -2.0656   -4.8670   -0.2297 H   0  0  0  0  0  0  0  0  0  0  0  0
   -1.4196   -3.1408    0.8838 C   0  0  0  0  0  0  0  0  0  0  0  0
   -0.6861   -2.9736    1.8410 O   0  0  0  0  0  0  0  0  0  0  0  0
   -1.5326   -2.1701   -0.0924 N   0  0  0  0  0  0  0  0  0  0  0  0
   -2.0142   -2.4444   -0.9453 H   0  0  0  0  0  0  0  0  0  0  0  0
   -0.6489   -1.0119   -0.2084 C   0  0  1  0  0  0  0  0  0  0  0  0
    0.3720   -1.4025   -0.2832 H   0  0  0  0  0  0  0  0  0  0  0  0
   -0.9086   -0.1605   -1.4788 C   0  0  0  0  0  0  0  0  0  0  0  0
   -1.1037    0.8687   -1.1551 H   0  0  0  0  0  0  0  0  0  0  0  0
    0.0450   -0.1304   -2.0167 H   0  0  0  0  0  0  0  0  0  0  0  0
   -1.9858   -0.4761   -2.5229 C   0  0  0  0  0  0  0  0  0  0  0  0
   -2.0147    0.4213   -3.5691 C   0  0  0  0  0  0  0  0  0  0  0  0
   -1.3065    1.2356   -3.7124 H   0  0  0  0  0  0  0  0  0  0  0  0
   -3.0388    0.0822   -4.4329 N   0  0  0  0  0  0  0  0  0  0  0  0
   -3.2648    0.5627   -5.3019 H   0  0  0  0  0  0  0  0  0  0  0  0
   -3.7677   -0.9548   -3.8999 C   0  0  0  0  0  0  0  0  0  0  0  0
   -4.9154   -1.5355   -4.4364 C   0  0  0  0  0  0  0  0  0  0  0  0
   -5.2884   -1.2218   -5.4052 H   0  0  0  0  0  0  0  0  0  0  0  0
   -5.5897   -2.5088   -3.7000 C   0  0  0  0  0  0  0  0  0  0  0  0
   -6.4875   -2.9729   -4.0980 H   0  0  0  0  0  0  0  0  0  0  0  0
   -5.1233   -2.8501   -2.4289 C   0  0  0  0  0  0  0  0  0  0  0  0
   -5.6738   -3.5731   -1.8340 H   0  0  0  0  0  0  0  0  0  0  0  0
   -3.9678   -2.2493   -1.9085 C   0  0  0  0  0  0  0  0  0  0  0  0
   -3.7311   -2.5161   -0.8921 H   0  0  0  0  0  0  0  0  0  0  0  0
   -3.2175   -1.3181   -2.6633 C   0  0  0  0  0  0  0  0  0  0  0  0
   -0.6548   -0.0885    1.0316 C   0  0  0  0  0  0  0  0  0  0  0  0
    0.3604    0.5272    1.3319 O   0  0  0  0  0  0  0  0  0  0  0  0
   -1.8534    0.2616    1.6264 N   0  0  0  0  0  0  0  0  0  0  0  0
   -2.6592   -0.3037    1.3788 H   0  0  0  0  0  0  0  0  0  0  0  0
   -1.9398    1.1517    2.7765 C   0  0  0  0  0  0  0  0  0  0  0  0
   -1.5498    2.1430    2.5233 H   0  0  0  0  0  0  0  0  0  0  0  0
   -2.9815    1.2616    3.0923 H   0  0  0  0  0  0  0  0  0  0  0  0
   -1.3627    0.7490    3.6156 H   0  0  0  0  0  0  0  0  0  0  0  0
  1  2  1  0  0  0  0
  2  3  1  0  0  0  0
  2  4  1  0  0  0  0
  2  5  1  0  0  0  0
  5  6  2  0  0  0  0
  5  7  1  0  0  0  0
  7  8  1  0  0  0  0
  7  9  1  0  0  0  0
  9 10  1  0  0  0  0
  9 11  1  0  0  0  0
  9 29  1  0  0  0  0
 11 12  1  0  0  0  0
 11 13  1  0  0  0  0
 11 14  1  0  0  0  0
 14 15  2  0  0  0  0
 14 28  1  0  0  0  0
 15 16  1  0  0  0  0
 15 17  1  0  0  0  0
 17 18  1  0  0  0  0
 17 19  1  0  0  0  0
 19 20  1  0  0  0  0
 19 28  2  0  0  0  0
 20 21  1  0  0  0  0
 20 22  2  0  0  0  0
 22 23  1  0  0  0  0
 22 24  1  0  0  0  0
 24 25  1  0  0  0  0
 24 26  2  0  0  0  0
 26 27  1  0  0  0  0
 26 28  1  0  0  0  0
 29 30  2  0  0  0  0
 29 31  1  0  0  0  0
 31 32  1  0  0  0  0
 31 33  1  0  0  0  0
 33 34  1  0  0  0  0
 33 35  1  0  0  0  0
 33 36  1  0  0  0  0
M  END
$$$$

  -OEChem-03222214083D

 36 37  0     1  0  0  0  0  0999 V2000
   -2.2360   -5.1677    1.3497 H   0  0  0  0  0  0  0  0  0  0  0  0
   -2.4559   -4.4269    0.5756 C   0  0  0  0  0  0  0  0  0  0  0  0
   -3.4901   -4.0938    0.6889 H   0  0  0  0  0  0  0  0  0  0  0  0
   -2.3369   -4.8964   -0.4040 H   0  0  0  0  0  0  0  0  0  0  0  0
   -1.5133   -3.2452    0.7012 C   0  0  0  0  0  0  0  0  0  0  0  0
   -0.7369   -3.1806    1.6366 O   0  0  0  0  0  0  0  0  0  0  0  0
   -1.5555   -2.2396   -0.2413 N   0  0  0  0  0  0  0  0  0  0  0  0
   -2.1465   -2.4021   -1.0555 H   0  0  0  0  0  0  0  0  0  0  0  0
   -0.5995   -1.1298   -0.3341 C   0  0  1  0  0  0  0  0  0  0  0  0
    0.3949   -1.5802   -0.4271 H   0  0  0  0  0  0  0  0  0  0  0  0
   -0.8189   -0.2395   -1.5872 C   0  0  0  0  0  0  0  0  0  0  0  0
   -0.9839    0.7906   -1.2521 H   0  0  0  0  0  0  0  0  0  0  0  0
    0.1245   -0.2323   -2.1432 H   0  0  0  0  0  0  0  0  0  0  0  0
   -1.9420   -0.5444   -2.5740 C   0  0  0  0  0  0  0  0  0  0  0  0
   -1.8840    0.0592   -3.8106 C   0  0  0  0  0  0  0  0  0  0  0  0
   -1.0361    0.6278   -4.1875 H   0  0  0  0  0  0  0  0  0  0  0  0
   -3.0496   -0.2214   -4.5062 N   0  0  0  0  0  0  0  0  0  0  0  0
   -3.2588    0.0831   -5.4555 H   0  0  0  0  0  0  0  0  0  0  0  0
   -3.9478   -0.8512   -3.6733 C   0  0  0  0  0  0  0  0  0  0  0  0
   -5.2684   -1.2173   -3.9292 C   0  0  0  0  0  0  0  0  0  0  0  0
   -5.6925   -1.0881   -4.9191 H   0  0  0  0  0  0  0  0  0  0  0  0
   -6.0469   -1.7243   -2.8855 C   0  0  0  0  0  0  0  0  0  0  0  0
   -7.0789   -2.0118   -3.0649 H   0  0  0  0  0  0  0  0  0  0  0  0
   -5.5047   -1.8132   -1.5992 C   0  0  0  0  0  0  0  0  0  0  0  0
   -6.1253   -2.1562   -0.7764 H   0  0  0  0  0  0  0  0  0  0  0  0
   -4.1754   -1.4358   -1.3633 C   0  0  0  0  0  0  0  0  0  0  0  0
   -3.8289   -1.4503   -0.3387 H   0  0  0  0  0  0  0  0  0  0  0  0
   -3.3477   -1.0100   -2.4221 C   0  0  0  0  0  0  0  0  0  0  0  0
   -0.5409   -0.2366    0.9252 C   0  0  0  0  0  0  0  0  0  0  0  0
    0.5134    0.3042    1.2342 O   0  0  0  0  0  0  0  0  0  0  0  0
   -1.7107    0.1751    1.5383 N   0  0  0  0  0  0  0  0  0  0  0  0
   -2.5536   -0.3286    1.2854 H   0  0  0  0  0  0  0  0  0  0  0  0
   -1.7318    1.0464    2.7056 C   0  0  0  0  0  0  0  0  0  0  0  0
   -1.2889    2.0188    2.4661 H   0  0  0  0  0  0  0  0  0  0  0  0
   -2.7615    1.2089    3.0374 H   0  0  0  0  0  0  0  0  0  0  0  0
   -1.1685    0.5952    3.5291 H   0  0  0  0  0  0  0  0  0  0  0  0
  1  2  1  0  0  0  0
  2  3  1  0  0  0  0
  2  4  1  0  0  0  0
  2  5  1  0  0  0  0
  5  6  2  0  0  0  0
  5  7  1  0  0  0  0
  7  8  1  0  0  0  0
  7  9  1  0  0  0  0
  9 10  1  0  0  0  0
  9 11  1  0  0  0  0
  9 29  1  0  0  0  0
 11 12  1  0  0  0  0
 11 13  1  0  0  0  0
 11 14  1  0  0  0  0
 14 15  2  0  0  0  0
 14 28  1  0  0  0  0
 15 16  1  0  0  0  0
 15 17  1  0  0  0  0
 17 18  1  0  0  0  0
 17 19  1  0  0  0  0
 19 20  1  0  0  0  0
 19 28  2  0  0  0  0
 20 21  1  0  0  0  0
 20 22  2  0  0  0  0
 22 23  1  0  0  0  0
 22 24  1  0  0  0  0
 24 25  1  0  0  0  0
 24 26  2  0  0  0  0
 26 27  1  0  0  0  0
 26 28  1  0  0  0  0
 29 30  2  0  0  0  0
 29 31  1  0  0  0  0
 31 32  1  0  0  0  0
 31 33  1  0  0  0  0
 33 34  1  0  0  0  0
 33 35  1  0  0  0  0
 33 36  1  0  0  0  0
M  END
$$$$

  -OEChem-03222214083D

 36 37  0     1  0  0  0  0  0999 V2000
   -2.5329   -5.1020    1.2345 H   0  0  0  0  0  0  0  0  0  0  0  0
   -2.6798   -4.3514    0.4527 C   0  0  0  0  0  0  0  0  0  0  0  0
   -3.6913   -3.9467    0.5371 H   0  0  0  0  0  0  0  0  0  0  0  0
   -2.5676   -4.8323   -0.5220 H   0  0  0  0  0  0  0  0  0  0  0  0
   -1.6617   -3.2371    0.6005 C   0  0  0  0  0  0  0  0  0  0  0  0
   -0.8656   -3.2533    1.5217 O   0  0  0  0  0  0  0  0  0  0  0  0
   -1.6625   -2.1924   -0.2983 N   0  0  0  0  0  0  0  0  0  0  0  0
   -2.3009   -2.2662   -1.0898 H   0  0  0  0  0  0  0  0  0  0  0  0
   -0.6546   -1.1213   -0.3540 C   0  0  1  0  0  0  0  0  0  0  0  0
    0.3148   -1.6189   -0.4672 H   0  0  0  0  0  0  0  0  0  0  0  0
   -0.8292   -0.1917   -1.5856 C   0  0  0  0  0  0  0  0  0  0  0  0
   -0.9747    0.8336   -1.2285 H   0  0  0  0  0  0  0  0  0  0  0  0
    0.1129   -0.1939   -2.1434 H   0  0  0  0  0  0  0  0  0  0  0  0
   -1.9707   -0.4742   -2.5507 C   0  0  0  0  0  0  0  0  0  0  0  0
   -1.8532   -0.1661   -3.8868 C   0  0  0  0  0  0  0  0  0  0  0  0
   -0.9415    0.1745   -4.3740 H   0  0  0  0  0  0  0  0  0  0  0  0
   -3.0793   -0.3866   -4.5011 N   0  0  0  0  0  0  0  0  0  0  0  0
   -3.2758   -0.2472   -5.4908 H   0  0  0  0  0  0  0  0  0  0  0  0
   -4.0324   -0.7021   -3.5540 C   0  0  0  0  0  0  0  0  0  0  0  0
   -5.4017   -0.9202   -3.6974 C   0  0  0  0  0  0  0  0  0  0  0  0
   -5.8584   -0.9051   -4.6810 H   0  0  0  0  0  0  0  0  0  0  0  0
   -6.1804   -1.1346   -2.5549 C   0  0  0  0  0  0  0  0  0  0  0  0
   -7.2493   -1.3027   -2.6493 H   0  0  0  0  0  0  0  0  0  0  0  0
   -5.5835   -1.0996   -1.2882 C   0  0  0  0  0  0  0  0  0  0  0  0
   -6.1953   -1.2313   -0.4005 H   0  0  0  0  0  0  0  0  0  0  0  0
   -4.2053   -0.8763   -1.1628 C   0  0  0  0  0  0  0  0  0  0  0  0
   -3.7740   -0.8082   -0.1720 H   0  0  0  0  0  0  0  0  0  0  0  0
   -3.4076   -0.7195   -2.3086 C   0  0  0  0  0  0  0  0  0  0  0  0
   -0.5351   -0.2761    0.9335 C   0  0  0  0  0  0  0  0  0  0  0  0
    0.5467    0.2123    1.2343 O   0  0  0  0  0  0  0  0  0  0  0  0
   -1.6731    0.1716    1.5797 N   0  0  0  0  0  0  0  0  0  0  0  0
   -2.5308   -0.3226    1.3626 H   0  0  0  0  0  0  0  0  0  0  0  0
   -1.6287    1.0063    2.7730 C   0  0  0  0  0  0  0  0  0  0  0  0
   -1.1425    1.9627    2.5541 H   0  0  0  0  0  0  0  0  0  0  0  0
   -2.6430    1.2092    3.1295 H   0  0  0  0  0  0  0  0  0  0  0  0
   -1.0737    0.5026    3.5715 H   0  0  0  0  0  0  0  0  0  0  0  0
  1  2  1  0  0  0  0
  2  3  1  0  0  0  0
  2  4  1  0  0  0  0
  2  5  1  0  0  0  0
  5  6  2  0  0  0  0
  5  7  1  0  0  0  0
  7  8  1  0  0  0  0
  7  9  1  0  0  0  0
  9 10  1  0  0  0  0
  9 11  1  0  0  0  0
  9 29  1  0  0  0  0
 11 12  1  0  0  0  0
 11 13  1  0  0  0  0
 11 14  1  0  0  0  0
 14 15  2  0  0  0  0
 14 28  1  0  0  0  0
 15 16  1  0  0  0  0
 15 17  1  0  0  0  0
 17 18  1  0  0  0  0
 17 19  1  0  0  0  0
 19 20  1  0  0  0  0
 19 28  2  0  0  0  0
 20 21  1  0  0  0  0
 20 22  2  0  0  0  0
 22 23  1  0  0  0  0
 22 24  1  0  0  0  0
 24 25  1  0  0  0  0
 24 26  2  0  0  0  0
 26 27  1  0  0  0  0
 26 28  1  0  0  0  0
 29 30  2  0  0  0  0
 29 31  1  0  0  0  0
 31 32  1  0  0  0  0
 31 33  1  0  0  0  0
 33 34  1  0  0  0  0
 33 35  1  0  0  0  0
 33 36  1  0  0  0  0
M  END
$$$$

  -OEChem-03222214083D

 36 37  0     1  0  0  0  0  0999 V2000
   -2.8210   -4.9883    1.1171 H   0  0  0  0  0  0  0  0  0  0  0  0
   -2.9319   -4.2021    0.3648 C   0  0  0  0  0  0  0  0  0  0  0  0
   -3.9084   -3.7281    0.4905 H   0  0  0  0  0  0  0  0  0  0  0  0
   -2.8800   -4.6553   -0.6282 H   0  0  0  0  0  0  0  0  0  0  0  0
   -1.8314   -3.1703    0.5213 C   0  0  0  0  0  0  0  0  0  0  0  0
   -1.0162   -3.2750    1.4200 O   0  0  0  0  0  0  0  0  0  0  0  0
   -1.7772   -2.0966   -0.3404 N   0  0  0  0  0  0  0  0  0  0  0  0
   -2.4519   -2.0807   -1.1048 H   0  0  0  0  0  0  0  0  0  0  0  0
   -0.7111   -1.0787   -0.3649 C   0  0  1  0  0  0  0  0  0  0  0  0
    0.2265   -1.6311   -0.4903 H   0  0  0  0  0  0  0  0  0  0  0  0
   -0.8227   -0.1242   -1.5843 C   0  0  0  0  0  0  0  0  0  0  0  0
   -0.9276    0.9034   -1.2198 H   0  0  0  0  0  0  0  0  0  0  0  0
    0.1204   -0.1639   -2.1389 H   0  0  0  0  0  0  0  0  0  0  0  0
   -1.9764   -0.3734   -2.5396 C   0  0  0  0  0  0  0  0  0  0  0  0
   -1.8290   -0.3777   -3.9065 C   0  0  0  0  0  0  0  0  0  0  0  0
   -0.8846   -0.2766   -4.4379 H   0  0  0  0  0  0  0  0  0  0  0  0
   -3.0863   -0.5484   -4.4773 N   0  0  0  0  0  0  0  0  0  0  0  0
   -3.2773   -0.5868   -5.4771 H   0  0  0  0  0  0  0  0  0  0  0  0
   -4.0605   -0.5675   -3.4960 C   0  0  0  0  0  0  0  0  0  0  0  0
   -5.4488   -0.6681   -3.5830 C   0  0  0  0  0  0  0  0  0  0  0  0
   -5.9307   -0.7822   -4.5479 H   0  0  0  0  0  0  0  0  0  0  0  0
   -6.2122   -0.6058   -2.4101 C   0  0  0  0  0  0  0  0  0  0  0  0
   -7.2948   -0.6802   -2.4618 H   0  0  0  0  0  0  0  0  0  0  0  0
   -5.5800   -0.4262   -1.1715 C   0  0  0  0  0  0  0  0  0  0  0  0
   -6.1758   -0.3543   -0.2662 H   0  0  0  0  0  0  0  0  0  0  0  0
   -4.1839   -0.3258   -1.1003 C   0  0  0  0  0  0  0  0  0  0  0  0
   -3.7030   -0.1617   -0.1441 H   0  0  0  0  0  0  0  0  0  0  0  0
   -3.4189   -0.4255   -2.2694 C   0  0  0  0  0  0  0  0  0  0  0  0
   -0.5332   -0.2802    0.9453 C   0  0  0  0  0  0  0  0  0  0  0  0
    0.5775    0.1394    1.2446 O   0  0  0  0  0  0  0  0  0  0  0  0
   -1.6358    0.2130    1.6194 N   0  0  0  0  0  0  0  0  0  0  0  0
   -2.5122   -0.2580    1.4260 H   0  0  0  0  0  0  0  0  0  0  0  0
   -1.5222    0.9872    2.8492 C   0  0  0  0  0  0  0  0  0  0  0  0
   -0.9271    1.8912    2.6816 H   0  0  0  0  0  0  0  0  0  0  0  0
   -2.5142    1.2895    3.1981 H   0  0  0  0  0  0  0  0  0  0  0  0
   -1.0439    0.3907    3.6332 H   0  0  0  0  0  0  0  0  0  0  0  0
  1  2  1  0  0  0  0
  2  3  1  0  0  0  0
  2  4  1  0  0  0  0
  2  5  1  0  0  0  0
  5  6  2  0  0  0  0
  5  7  1  0  0  0  0
  7  8  1  0  0  0  0
  7  9  1  0  0  0  0
  9 10  1  0  0  0  0
  9 11  1  0  0  0  0
  9 29  1  0  0  0  0
 11 12  1  0  0  0  0
 11 13  1  0  0  0  0
 11 14  1  0  0  0  0
 14 15  2  0  0  0  0
 14 28  1  0  0  0  0
 15 16  1  0  0  0  0
 15 17  1  0  0  0  0
 17 18  1  0  0  0  0
 17 19  1  0  0  0  0
 19 20  1  0  0  0  0
 19 28  2  0  0  0  0
 20 21  1  0  0  0  0
 20 22  2  0  0  0  0
 22 23  1  0  0  0  0
 22 24  1  0  0  0  0
 24 25  1  0  0  0  0
 24 26  2  0  0  0  0
 26 27  1  0  0  0  0
 26 28  1  0  0  0  0
 29 30  2  0  0  0  0
 29 31  1  0  0  0  0
 31 32  1  0  0  0  0
 31 33  1  0  0  0  0
 33 34  1  0  0  0  0
 33 35  1  0  0  0  0
 33 36  1  0  0  0  0
M  END
$$$$

  -OEChem-03222214083D

 36 37  0     1  0  0  0  0  0999 V2000
   -3.0893   -4.8567    1.0252 H   0  0  0  0  0  0  0  0  0  0  0  0
   -3.1297   -4.0710    0.2652 C   0  0  0  0  0  0  0  0  0  0  0  0
   -4.0738   -3.5299    0.3663 H   0  0  0  0  0  0  0  0  0  0  0  0
   -3.0879   -4.5347   -0.7236 H   0  0  0  0  0  0  0  0  0  0  0  0
   -1.9639   -3.1162    0.4390 C   0  0  0  0  0  0  0  0  0  0  0  0
   -1.1502   -3.2970    1.3270 O   0  0  0  0  0  0  0  0  0  0  0  0
   -1.8444   -2.0273   -0.3963 N   0  0  0  0  0  0  0  0  0  0  0  0
   -2.5327   -1.9336   -1.1429 H   0  0  0  0  0  0  0  0  0  0  0  0
   -0.7307   -1.0591   -0.3814 C   0  0  1  0  0  0  0  0  0  0  0  0
    0.1833   -1.6506   -0.5038 H   0  0  0  0  0  0  0  0  0  0  0  0
   -0.7816   -0.0784   -1.5834 C   0  0  0  0  0  0  0  0  0  0  0  0
   -0.8420    0.9506   -1.2125 H   0  0  0  0  0  0  0  0  0  0  0  0
    0.1598   -0.1601   -2.1362 H   0  0  0  0  0  0  0  0  0  0  0  0
   -1.9419   -0.2924   -2.5338 C   0  0  0  0  0  0  0  0  0  0  0  0
   -1.8109   -0.5930   -3.8682 C   0  0  0  0  0  0  0  0  0  0  0  0
   -0.8683   -0.7342   -4.3937 H   0  0  0  0  0  0  0  0  0  0  0  0
   -3.0900   -0.7019   -4.4075 N   0  0  0  0  0  0  0  0  0  0  0  0
   -3.3004   -0.9061   -5.3831 H   0  0  0  0  0  0  0  0  0  0  0  0
   -4.0452   -0.4193   -3.4463 C   0  0  0  0  0  0  0  0  0  0  0  0
   -5.4377   -0.3727   -3.5098 C   0  0  0  0  0  0  0  0  0  0  0  0
   -5.9515   -0.6021   -4.4370 H   0  0  0  0  0  0  0  0  0  0  0  0
   -6.1618   -0.0158   -2.3641 C   0  0  0  0  0  0  0  0  0  0  0  0
   -7.2466    0.0300   -2.4007 H   0  0  0  0  0  0  0  0  0  0  0  0
   -5.4860    0.2996   -1.1759 C   0  0  0  0  0  0  0  0  0  0  0  0
   -6.0498    0.5950   -0.2960 H   0  0  0  0  0  0  0  0  0  0  0  0
   -4.0861    0.2485   -1.1256 C   0  0  0  0  0  0  0  0  0  0  0  0
   -3.5615    0.5165   -0.2164 H   0  0  0  0  0  0  0  0  0  0  0  0
   -3.3701   -0.1318   -2.2653 C   0  0  0  0  0  0  0  0  0  0  0  0
   -0.5415   -0.3016    0.9504 C   0  0  0  0  0  0  0  0  0  0  0  0
    0.5792    0.0699    1.2747 O   0  0  0  0  0  0  0  0  0  0  0  0
   -1.6358    0.2234    1.6141 N   0  0  0  0  0  0  0  0  0  0  0  0
   -2.5251   -0.2170    1.4036 H   0  0  0  0  0  0  0  0  0  0  0  0
   -1.5122    0.9803    2.8537 C   0  0  0  0  0  0  0  0  0  0  0  0
   -0.8835    1.8643    2.7028 H   0  0  0  0  0  0  0  0  0  0  0  0
   -2.4975    1.3143    3.1924 H   0  0  0  0  0  0  0  0  0  0  0  0
   -1.0653    0.3599    3.6378 H   0  0  0  0  0  0  0  0  0  0  0  0
  1  2  1  0  0  0  0
  2  3  1  0  0  0  0
  2  4  1  0  0  0  0
  2  5  1  0  0  0  0
  5  6  2  0  0  0  0
  5  7  1  0  0  0  0
  7  8  1  0  0  0  0
  7  9  1  0  0  0  0
  9 10  1  0  0  0  0
  9 11  1  0  0  0  0
  9 29  1  0  0  0  0
 11 12  1  0  0  0  0
 11 13  1  0  0  0  0
 11 14  1  0  0  0  0
 14 15  2  0  0  0  0
 14 28  1  0  0  0  0
 15 16  1  0  0  0  0
 15 17  1  0  0  0  0
 17 18  1  0  0  0  0
 17 19  1  0  0  0  0
 19 20  1  0  0  0  0
 19 28  2  0  0  0  0
 20 21  1  0  0  0  0
 20 22  2  0  0  0  0
 22 23  1  0  0  0  0
 22 24  1  0  0  0  0
 24 25  1  0  0  0  0
 24 26  2  0  0  0  0
 26 27  1  0  0  0  0
 26 28  1  0  0  0  0
 29 30  2  0  0  0  0
 29 31  1  0  0  0  0
 31 32  1  0  0  0  0
 31 33  1  0  0  0  0
 33 34  1  0  0  0  0
 33 35  1  0  0  0  0
 33 36  1  0  0  0  0
M  END
$$$$

  -OEChem-03222214083D

 36 37  0     1  0  0  0  0  0999 V2000
   -3.2765   -4.7438    0.9242 H   0  0  0  0  0  0  0  0  0  0  0  0
   -3.2714   -3.9442    0.1782 C   0  0  0  0  0  0  0  0  0  0  0  0
   -4.1888   -3.3596    0.2814 H   0  0  0  0  0  0  0  0  0  0  0  0
   -3.2431   -4.3924   -0.8181 H   0  0  0  0  0  0  0  0  0  0  0  0
   -2.0621   -3.0512    0.3787 C   0  0  0  0  0  0  0  0  0  0  0  0
   -1.2745   -3.2780    1.2796 O   0  0  0  0  0  0  0  0  0  0  0  0
   -1.8675   -1.9724   -0.4556 N   0  0  0  0  0  0  0  0  0  0  0  0
   -2.5454   -1.8317   -1.2044 H   0  0  0  0  0  0  0  0  0  0  0  0
   -0.7162   -1.0488   -0.4053 C   0  0  1  0  0  0  0  0  0  0  0  0
    0.1831   -1.6664   -0.5044 H   0  0  0  0  0  0  0  0  0  0  0  0
   -0.7166   -0.0539   -1.5968 C   0  0  0  0  0  0  0  0  0  0  0  0
   -0.7327    0.9776   -1.2291 H   0  0  0  0  0  0  0  0  0  0  0  0
    0.2204   -0.1774   -2.1489 H   0  0  0  0  0  0  0  0  0  0  0  0
   -1.8800   -0.2402   -2.5450 C   0  0  0  0  0  0  0  0  0  0  0  0
   -1.8117   -0.8171   -3.7898 C   0  0  0  0  0  0  0  0  0  0  0  0
   -0.9077   -1.1955   -4.2633 H   0  0  0  0  0  0  0  0  0  0  0  0
   -3.1044   -0.8527   -4.3074 N   0  0  0  0  0  0  0  0  0  0  0  0
   -3.3596   -1.2118   -5.2261 H   0  0  0  0  0  0  0  0  0  0  0  0
   -3.9985   -0.2782   -3.4189 C   0  0  0  0  0  0  0  0  0  0  0  0
   -5.3768   -0.0765   -3.4864 C   0  0  0  0  0  0  0  0  0  0  0  0
   -5.9360   -0.4051   -4.3558 H   0  0  0  0  0  0  0  0  0  0  0  0
   -6.0267    0.5607   -2.4199 C   0  0  0  0  0  0  0  0  0  0  0  0
   -7.0994    0.7272   -2.4607 H   0  0  0  0  0  0  0  0  0  0  0  0
   -5.2918    0.9949   -1.3059 C   0  0  0  0  0  0  0  0  0  0  0  0
   -5.7969    1.5019   -0.4886 H   0  0  0  0  0  0  0  0  0  0  0  0
   -3.9066    0.7866   -1.2496 C   0  0  0  0  0  0  0  0  0  0  0  0
   -3.3324    1.1394   -0.3998 H   0  0  0  0  0  0  0  0  0  0  0  0
   -3.2694    0.1351   -2.3102 C   0  0  0  0  0  0  0  0  0  0  0  0
   -0.5573   -0.2994    0.9343 C   0  0  0  0  0  0  0  0  0  0  0  0
    0.5607    0.0169    1.3201 O   0  0  0  0  0  0  0  0  0  0  0  0
   -1.6623    0.2640    1.5470 N   0  0  0  0  0  0  0  0  0  0  0  0
   -2.5602   -0.1172    1.2662 H   0  0  0  0  0  0  0  0  0  0  0  0
   -1.5759    0.9936    2.8059 C   0  0  0  0  0  0  0  0  0  0  0  0
   -0.8899    1.8422    2.7126 H   0  0  0  0  0  0  0  0  0  0  0  0
   -2.5604    1.3783    3.0886 H   0  0  0  0  0  0  0  0  0  0  0  0
   -1.2159    0.3360    3.6043 H   0  0  0  0  0  0  0  0  0  0  0  0
  1  2  1  0  0  0  0
  2  3  1  0  0  0  0
  2  4  1  0  0  0  0
  2  5  1  0  0  0  0
  5  6  2  0  0  0  0
  5  7  1  0  0  0  0
  7  8  1  0  0  0  0
  7  9  1  0  0  0  0
  9 10  1  0  0  0  0
  9 11  1  0  0  0  0
  9 29  1  0  0  0  0
 11 12  1  0  0  0  0
 11 13  1  0  0  0  0
 11 14  1  0  0  0  0
 14 15  2  0  0  0  0
 14 28  1  0  0  0  0
 15 16  1  0  0  0  0
 15 17  1  0  0  0  0
 17 18  1  0  0  0  0
 17 19  1  0  0  0  0
 19 20  1  0  0  0  0
 19 28  2  0  0  0  0
 20 21  1  0  0  0  0
 20 22  2  0  0  0  0
 22 23  1  0  0  0  0
 22 24  1  0  0  0  0
 24 25  1  0  0  0  0
 24 26  2  0  0  0  0
 26 27  1  0  0  0  0
 26 28  1  0  0  0  0
 29 30  2  0  0  0  0
 29 31  1  0  0  0  0
 31 32  1  0  0  0  0
 31 33  1  0  0  0  0
 33 34  1  0  0  0  0
 33 35  1  0  0  0  0
 33 36  1  0  0  0  0
M  END
$$$$

  -OEChem-03222214083D

 36 37  0     1  0  0  0  0  0999 V2000
   -3.3810   -4.6593    0.9080 H   0  0  0  0  0  0  0  0  0  0  0  0
   -3.3460   -3.8659    0.1563 C   0  0  0  0  0  0  0  0  0  0  0  0
   -4.2392   -3.2444    0.2571 H   0  0  0  0  0  0  0  0  0  0  0  0
   -3.3377   -4.3216   -0.8366 H   0  0  0  0  0  0  0  0  0  0  0  0
   -2.1019   -3.0199    0.3478 C   0  0  0  0  0  0  0  0  0  0  0  0
   -1.3287   -3.2658    1.2559 O   0  0  0  0  0  0  0  0  0  0  0  0
   -1.8552   -1.9653   -0.5039 N   0  0  0  0  0  0  0  0  0  0  0  0
   -2.5299   -1.7962   -1.2496 H   0  0  0  0  0  0  0  0  0  0  0  0
   -0.6849   -1.0656   -0.4314 C   0  0  1  0  0  0  0  0  0  0  0  0
    0.2120   -1.6908   -0.5021 H   0  0  0  0  0  0  0  0  0  0  0  0
   -0.6547   -0.0612   -1.6131 C   0  0  0  0  0  0  0  0  0  0  0  0
   -0.6390    0.9709   -1.2461 H   0  0  0  0  0  0  0  0  0  0  0  0
    0.2789   -0.2119   -2.1644 H   0  0  0  0  0  0  0  0  0  0  0  0
   -1.8154   -0.2239   -2.5658 C   0  0  0  0  0  0  0  0  0  0  0  0
   -1.8463   -1.0313   -3.6767 C   0  0  0  0  0  0  0  0  0  0  0  0
   -1.0131   -1.6224   -4.0524 H   0  0  0  0  0  0  0  0  0  0  0  0
   -3.1346   -0.9671   -4.2033 N   0  0  0  0  0  0  0  0  0  0  0  0
   -3.4476   -1.4382   -5.0511 H   0  0  0  0  0  0  0  0  0  0  0  0
   -3.9303   -0.1276   -3.4397 C   0  0  0  0  0  0  0  0  0  0  0  0
   -5.2684    0.2489   -3.5545 C   0  0  0  0  0  0  0  0  0  0  0  0
   -5.8776   -0.1348   -4.3656 H   0  0  0  0  0  0  0  0  0  0  0  0
   -5.8135    1.1303   -2.6099 C   0  0  0  0  0  0  0  0  0  0  0  0
   -6.8536    1.4337   -2.6883 H   0  0  0  0  0  0  0  0  0  0  0  0
   -5.0158    1.6271   -1.5673 C   0  0  0  0  0  0  0  0  0  0  0  0
   -5.4395    2.3159   -0.8423 H   0  0  0  0  0  0  0  0  0  0  0  0
   -3.6709    1.2449   -1.4637 C   0  0  0  0  0  0  0  0  0  0  0  0
   -3.0461    1.6377   -0.6676 H   0  0  0  0  0  0  0  0  0  0  0  0
   -3.1391    0.3607   -2.4072 C   0  0  0  0  0  0  0  0  0  0  0  0
   -0.5762   -0.2994    0.9036 C   0  0  0  0  0  0  0  0  0  0  0  0
    0.5253    0.0021    1.3443 O   0  0  0  0  0  0  0  0  0  0  0  0
   -1.7032    0.2898    1.4493 N   0  0  0  0  0  0  0  0  0  0  0  0
   -2.5943   -0.0500    1.1010 H   0  0  0  0  0  0  0  0  0  0  0  0
   -1.6768    1.0440    2.6957 C   0  0  0  0  0  0  0  0  0  0  0  0
   -0.9870    1.8909    2.6184 H   0  0  0  0  0  0  0  0  0  0  0  0
   -2.6738    1.4327    2.9226 H   0  0  0  0  0  0  0  0  0  0  0  0
   -1.3564    0.4025    3.5234 H   0  0  0  0  0  0  0  0  0  0  0  0
  1  2  1  0  0  0  0
  2  3  1  0  0  0  0
  2  4  1  0  0  0  0
  2  5  1  0  0  0  0
  5  6  2  0  0  0  0
  5  7  1  0  0  0  0
  7  8  1  0  0  0  0
  7  9  1  0  0  0  0
  9 10  1  0  0  0  0
  9 11  1  0  0  0  0
  9 29  1  0  0  0  0
 11 12  1  0  0  0  0
 11 13  1  0  0  0  0
 11 14  1  0  0  0  0
 14 15  2  0  0  0  0
 14 28  1  0  0  0  0
 15 16  1  0  0  0  0
 15 17  1  0  0  0  0
 17 18  1  0  0  0  0
 17 19  1  0  0  0  0
 19 20  1  0  0  0  0
 19 28  2  0  0  0  0
 20 21  1  0  0  0  0
 20 22  2  0  0  0  0
 22 23  1  0  0  0  0
 22 24  1  0  0  0  0
 24 25  1  0  0  0  0
 24 26  2  0  0  0  0
 26 27  1  0  0  0  0
 26 28  1  0  0  0  0
 29 30  2  0  0  0  0
 29 31  1  0  0  0  0
 31 32  1  0  0  0  0
 31 33  1  0  0  0  0
 33 34  1  0  0  0  0
 33 35  1  0  0  0  0
 33 36  1  0  0  0  0
M  END
$$$$

  -OEChem-03222214083D

 36 37  0     1  0  0  0  0  0999 V2000
   -3.4000   -4.6290    0.9464 H   0  0  0  0  0  0  0  0  0  0  0  0
   -3.3620   -3.8428    0.1870 C   0  0  0  0  0  0  0  0  0  0  0  0
   -4.2385   -3.2005    0.3015 H   0  0  0  0  0  0  0  0  0  0  0  0
   -3.3843   -4.3066   -0.8019 H   0  0  0  0  0  0  0  0  0  0  0  0
   -2.0948   -3.0244    0.3468 C   0  0  0  0  0  0  0  0  0  0  0  0
   -1.3037   -3.2893    1.2338 O   0  0  0  0  0  0  0  0  0  0  0  0
   -1.8450   -1.9767   -0.5132 N   0  0  0  0  0  0  0  0  0  0  0  0
   -2.5434   -1.7798   -1.2290 H   0  0  0  0  0  0  0  0  0  0  0  0
   -0.6753   -1.0769   -0.4391 C   0  0  1  0  0  0  0  0  0  0  0  0
    0.2232   -1.7004   -0.5014 H   0  0  0  0  0  0  0  0  0  0  0  0
   -0.6410   -0.0736   -1.6214 C   0  0  0  0  0  0  0  0  0  0  0  0
   -0.6183    0.9576   -1.2536 H   0  0  0  0  0  0  0  0  0  0  0  0
    0.2936   -0.2271   -2.1702 H   0  0  0  0  0  0  0  0  0  0  0  0
   -1.7933   -0.2264   -2.5873 C   0  0  0  0  0  0  0  0  0  0  0  0
   -1.9385   -1.2209   -3.5261 C   0  0  0  0  0  0  0  0  0  0  0  0
   -1.2021   -1.9911   -3.7489 H   0  0  0  0  0  0  0  0  0  0  0  0
   -3.1925   -1.0645   -4.1119 N   0  0  0  0  0  0  0  0  0  0  0  0
   -3.5594   -1.6278   -4.8779 H   0  0  0  0  0  0  0  0  0  0  0  0
   -3.8605    0.0098   -3.5455 C   0  0  0  0  0  0  0  0  0  0  0  0
   -5.1243    0.5501   -3.7825 C   0  0  0  0  0  0  0  0  0  0  0  0
   -5.7706    0.1212   -4.5405 H   0  0  0  0  0  0  0  0  0  0  0  0
   -5.5475    1.6544   -3.0289 C   0  0  0  0  0  0  0  0  0  0  0  0
   -6.5287    2.0861   -3.2038 H   0  0  0  0  0  0  0  0  0  0  0  0
   -4.7049    2.2044   -2.0504 C   0  0  0  0  0  0  0  0  0  0  0  0
   -5.0354    3.0610   -1.4702 H   0  0  0  0  0  0  0  0  0  0  0  0
   -3.4343    1.6567   -1.8237 C   0  0  0  0  0  0  0  0  0  0  0  0
   -2.7772    2.0838   -1.0721 H   0  0  0  0  0  0  0  0  0  0  0  0
   -3.0201    0.5572   -2.5830 C   0  0  0  0  0  0  0  0  0  0  0  0
   -0.5756   -0.3001    0.8907 C   0  0  0  0  0  0  0  0  0  0  0  0
    0.5226   -0.0064    1.3445 O   0  0  0  0  0  0  0  0  0  0  0  0
   -1.7053    0.2947    1.4243 N   0  0  0  0  0  0  0  0  0  0  0  0
   -2.5965   -0.0103    1.0458 H   0  0  0  0  0  0  0  0  0  0  0  0
   -1.6883    1.0671    2.6595 C   0  0  0  0  0  0  0  0  0  0  0  0
   -0.9955    1.9110    2.5754 H   0  0  0  0  0  0  0  0  0  0  0  0
   -2.6863    1.4615    2.8726 H   0  0  0  0  0  0  0  0  0  0  0  0
   -1.3761    0.4370    3.4990 H   0  0  0  0  0  0  0  0  0  0  0  0
  1  2  1  0  0  0  0
  2  3  1  0  0  0  0
  2  4  1  0  0  0  0
  2  5  1  0  0  0  0
  5  6  2  0  0  0  0
  5  7  1  0  0  0  0
  7  8  1  0  0  0  0
  7  9  1  0  0  0  0
  9 10  1  0  0  0  0
  9 11  1  0  0  0  0
  9 29  1  0  0  0  0
 11 12  1  0  0  0  0
 11 13  1  0  0  0  0
 11 14  1  0  0  0  0
 14 15  2  0  0  0  0
 14 28  1  0  0  0  0
 15 16  1  0  0  0  0
 15 17  1  0  0  0  0
 17 18  1  0  0  0  0
 17 19  1  0  0  0  0
 19 20  1  0  0  0  0
 19 28  2  0  0  0  0
 20 21  1  0  0  0  0
 20 22  2  0  0  0  0
 22 23  1  0  0  0  0
 22 24  1  0  0  0  0
 24 25  1  0  0  0  0
 24 26  2  0  0  0  0
 26 27  1  0  0  0  0
 26 28  1  0  0  0  0
 29 30  2  0  0  0  0
 29 31  1  0  0  0  0
 31 32  1  0  0  0  0
 31 33  1  0  0  0  0
 33 34  1  0  0  0  0
 33 35  1  0  0  0  0
 33 36  1  0  0  0  0
M  END
$$$$

  -OEChem-03222214083D

 36 37  0     1  0  0  0  0  0999 V2000
   -3.3220   -4.6643    1.0536 H   0  0  0  0  0  0  0  0  0  0  0  0
   -3.3129   -3.8873    0.2838 C   0  0  0  0  0  0  0  0  0  0  0  0
   -4.1822   -3.2405    0.4267 H   0  0  0  0  0  0  0  0  0  0  0  0
   -3.3781   -4.3632   -0.6974 H   0  0  0  0  0  0  0  0  0  0  0  0
   -2.0374   -3.0720    0.3797 C   0  0  0  0  0  0  0  0  0  0  0  0
   -1.2003   -3.3424    1.2213 O   0  0  0  0  0  0  0  0  0  0  0  0
   -1.8319   -2.0209   -0.4884 N   0  0  0  0  0  0  0  0  0  0  0  0
   -2.5792   -1.8037   -1.1456 H   0  0  0  0  0  0  0  0  0  0  0  0
   -0.6836   -1.0938   -0.4358 C   0  0  1  0  0  0  0  0  0  0  0  0
    0.2260   -1.7004   -0.5078 H   0  0  0  0  0  0  0  0  0  0  0  0
   -0.6751   -0.0932   -1.6230 C   0  0  0  0  0  0  0  0  0  0  0  0
   -0.6710    0.9337   -1.2438 H   0  0  0  0  0  0  0  0  0  0  0  0
    0.2635   -0.2211   -2.1710 H   0  0  0  0  0  0  0  0  0  0  0  0
   -1.8174   -0.2424   -2.6066 C   0  0  0  0  0  0  0  0  0  0  0  0
   -2.1093   -1.3579   -3.3597 C   0  0  0  0  0  0  0  0  0  0  0  0
   -1.5046   -2.2625   -3.4044 H   0  0  0  0  0  0  0  0  0  0  0  0
   -3.3025   -1.1154   -4.0338 N   0  0  0  0  0  0  0  0  0  0  0  0
   -3.7382   -1.7424   -4.7085 H   0  0  0  0  0  0  0  0  0  0  0  0
   -3.7896    0.1406   -3.7123 C   0  0  0  0  0  0  0  0  0  0  0  0
   -4.9368    0.8204   -4.1210 C   0  0  0  0  0  0  0  0  0  0  0  0
   -5.6263    0.3608   -4.8206 H   0  0  0  0  0  0  0  0  0  0  0  0
   -5.1867    2.1035   -3.6144 C   0  0  0  0  0  0  0  0  0  0  0  0
   -6.0749    2.6465   -3.9245 H   0  0  0  0  0  0  0  0  0  0  0  0
   -4.2894    2.6886   -2.7080 C   0  0  0  0  0  0  0  0  0  0  0  0
   -4.4843    3.6834   -2.3186 H   0  0  0  0  0  0  0  0  0  0  0  0
   -3.1381    1.9964   -2.3060 C   0  0  0  0  0  0  0  0  0  0  0  0
   -2.4426    2.4516   -1.6082 H   0  0  0  0  0  0  0  0  0  0  0  0
   -2.8937    0.7176   -2.8189 C   0  0  0  0  0  0  0  0  0  0  0  0
   -0.5785   -0.3118    0.8911 C   0  0  0  0  0  0  0  0  0  0  0  0
    0.5207   -0.0010    1.3304 O   0  0  0  0  0  0  0  0  0  0  0  0
   -1.7103    0.2590    1.4463 N   0  0  0  0  0  0  0  0  0  0  0  0
   -2.6039   -0.0297    1.0616 H   0  0  0  0  0  0  0  0  0  0  0  0
   -1.6868    1.0602    2.6630 C   0  0  0  0  0  0  0  0  0  0  0  0
   -1.0164    1.9182    2.5452 H   0  0  0  0  0  0  0  0  0  0  0  0
   -2.6897    1.4357    2.8879 H   0  0  0  0  0  0  0  0  0  0  0  0
   -1.3428    0.4574    3.5102 H   0  0  0  0  0  0  0  0  0  0  0  0
  1  2  1  0  0  0  0
  2  3  1  0  0  0  0
  2  4  1  0  0  0  0
  2  5  1  0  0  0  0
  5  6  2  0  0  0  0
  5  7  1  0  0  0  0
  7  8  1  0  0  0  0
  7  9  1  0  0  0  0
  9 10  1  0  0  0  0
  9 11  1  0  0  0  0
  9 29  1  0  0  0  0
 11 12  1  0  0  0  0
 11 13  1  0  0  0  0
 11 14  1  0  0  0  0
 14 15  2  0  0  0  0
 14 28  1  0  0  0  0
 15 16  1  0  0  0  0
 15 17  1  0  0  0  0
 17 18  1  0  0  0  0
 17 19  1  0  0  0  0
 19 20  1  0  0  0  0
 19 28  2  0  0  0  0
 20 21  1  0  0  0  0
 20 22  2  0  0  0  0
 22 23  1  0  0  0  0
 22 24  1  0  0  0  0
 24 25  1  0  0  0  0
 24 26  2  0  0  0  0
 26 27  1  0  0  0  0
 26 28  1  0  0  0  0
 29 30  2  0  0  0  0
 29 31  1  0  0  0  0
 31 32  1  0  0  0  0
 31 33  1  0  0  0  0
 33 34  1  0  0  0  0
 33 35  1  0  0  0  0
 33 36  1  0  0  0  0
M  END
$$$$

  -OEChem-03222214083D

 36 37  0     1  0  0  0  0  0999 V2000
   -3.1331   -4.7530    1.2309 H   0  0  0  0  0  0  0  0  0  0  0  0
   -3.1987   -3.9876    0.4522 C   0  0  0  0  0  0  0  0  0  0  0  0
   -4.0751   -3.3648    0.6452 H   0  0  0  0  0  0  0  0  0  0  0  0
   -3.3145   -4.4811   -0.5157 H   0  0  0  0  0  0  0  0  0  0  0  0
   -1.9447   -3.1343    0.4533 C   0  0  0  0  0  0  0  0  0  0  0  0
   -1.0440   -3.3773    1.2351 O   0  0  0  0  0  0  0  0  0  0  0  0
   -1.8269   -2.0859   -0.4359 N   0  0  0  0  0  0  0  0  0  0  0  0
   -2.6374   -1.8732   -1.0130 H   0  0  0  0  0  0  0  0  0  0  0  0
   -0.7190   -1.1105   -0.4337 C   0  0  1  0  0  0  0  0  0  0  0  0
    0.2103   -1.6844   -0.5229 H   0  0  0  0  0  0  0  0  0  0  0  0
   -0.7606   -0.1217   -1.6329 C   0  0  0  0  0  0  0  0  0  0  0  0
   -0.7905    0.9005   -1.2435 H   0  0  0  0  0  0  0  0  0  0  0  0
    0.1818   -0.2103   -2.1825 H   0  0  0  0  0  0  0  0  0  0  0  0
   -1.8940   -0.2753   -2.6320 C   0  0  0  0  0  0  0  0  0  0  0  0
   -2.3719   -1.4346   -3.2052 C   0  0  0  0  0  0  0  0  0  0  0  0
   -1.9406   -2.4256   -3.0740 H   0  0  0  0  0  0  0  0  0  0  0  0
   -3.4754   -1.1073   -3.9867 N   0  0  0  0  0  0  0  0  0  0  0  0
   -3.9995   -1.7556   -4.5723 H   0  0  0  0  0  0  0  0  0  0  0  0
   -3.7192    0.2538   -3.9242 C   0  0  0  0  0  0  0  0  0  0  0  0
   -4.6971    1.0448   -4.5268 C   0  0  0  0  0  0  0  0  0  0  0  0
   -5.4399    0.5976   -5.1781 H   0  0  0  0  0  0  0  0  0  0  0  0
   -4.7064    2.4245   -4.2802 C   0  0  0  0  0  0  0  0  0  0  0  0
   -5.4612    3.0538   -4.7426 H   0  0  0  0  0  0  0  0  0  0  0  0
   -3.7394    2.9942   -3.4384 C   0  0  0  0  0  0  0  0  0  0  0  0
   -3.7466    4.0639   -3.2507 H   0  0  0  0  0  0  0  0  0  0  0  0
   -2.7598    2.1886   -2.8403 C   0  0  0  0  0  0  0  0  0  0  0  0
   -2.0105    2.6339   -2.1939 H   0  0  0  0  0  0  0  0  0  0  0  0
   -2.7565    0.8108   -3.0895 C   0  0  0  0  0  0  0  0  0  0  0  0
   -0.6023   -0.3141    0.8846 C   0  0  0  0  0  0  0  0  0  0  0  0
    0.4963    0.0434    1.2880 O   0  0  0  0  0  0  0  0  0  0  0  0
   -1.7377    0.2111    1.4764 N   0  0  0  0  0  0  0  0  0  0  0  0
   -2.6324   -0.0829    1.0998 H   0  0  0  0  0  0  0  0  0  0  0  0
   -1.7078    1.0498    2.6673 C   0  0  0  0  0  0  0  0  0  0  0  0
   -1.1157    1.9529    2.4859 H   0  0  0  0  0  0  0  0  0  0  0  0
   -2.7227    1.3527    2.9418 H   0  0  0  0  0  0  0  0  0  0  0  0
   -1.2692    0.5034    3.5086 H   0  0  0  0  0  0  0  0  0  0  0  0
  1  2  1  0  0  0  0
  2  3  1  0  0  0  0
  2  4  1  0  0  0  0
  2  5  1  0  0  0  0
  5  6  2  0  0  0  0
  5  7  1  0  0  0  0
  7  8  1  0  0  0  0
  7  9  1  0  0  0  0
  9 10  1  0  0  0  0
  9 11  1  0  0  0  0
  9 29  1  0  0  0  0
 11 12  1  0  0  0  0
 11 13  1  0  0  0  0
 11 14  1  0  0  0  0
 14 15  2  0  0  0  0
 14 28  1  0  0  0  0
 15 16  1  0  0  0  0
 15 17  1  0  0  0  0
 17 18  1  0  0  0  0
 17 19  1  0  0  0  0
 19 20  1  0  0  0  0
 19 28  2  0  0  0  0
 20 21  1  0  0  0  0
 20 22  2  0  0  0  0
 22 23  1  0  0  0  0
 22 24  1  0  0  0  0
 24 25  1  0  0  0  0
 24 26  2  0  0  0  0
 26 27  1  0  0  0  0
 26 28  1  0  0  0  0
 29 30  2  0  0  0  0
 29 31  1  0  0  0  0
 31 32  1  0  0  0  0
 31 33  1  0  0  0  0
 33 34  1  0  0  0  0
 33 35  1  0  0  0  0
 33 36  1  0  0  0  0
M  END
$$$$

  -OEChem-03222214083D

 36 37  0     1  0  0  0  0  0999 V2000
   -2.9511   -4.8032    1.4100 H   0  0  0  0  0  0  0  0  0  0  0  0
   -3.0880   -4.0569    0.6222 C   0  0  0  0  0  0  0  0  0  0  0  0
   -3.9694   -3.4561    0.8583 H   0  0  0  0  0  0  0  0  0  0  0  0
   -3.2486   -4.5739   -0.3268 H   0  0  0  0  0  0  0  0  0  0  0  0
   -1.8616   -3.1690    0.5281 C   0  0  0  0  0  0  0  0  0  0  0  0
   -0.9076   -3.3713    1.2564 O   0  0  0  0  0  0  0  0  0  0  0  0
   -1.8315   -2.1343   -0.3852 N   0  0  0  0  0  0  0  0  0  0  0  0
   -2.6968   -1.9319   -0.8775 H   0  0  0  0  0  0  0  0  0  0  0  0
   -0.7666   -1.1156   -0.4423 C   0  0  1  0  0  0  0  0  0  0  0  0
    0.1774   -1.6619   -0.5471 H   0  0  0  0  0  0  0  0  0  0  0  0
   -0.8574   -0.1537   -1.6619 C   0  0  0  0  0  0  0  0  0  0  0  0
   -0.9248    0.8682   -1.2756 H   0  0  0  0  0  0  0  0  0  0  0  0
    0.0887   -0.2115   -2.2091 H   0  0  0  0  0  0  0  0  0  0  0  0
   -1.9826   -0.3219   -2.6740 C   0  0  0  0  0  0  0  0  0  0  0  0
   -2.6643   -1.4520   -3.0793 C   0  0  0  0  0  0  0  0  0  0  0  0
   -2.4333   -2.4743   -2.7889 H   0  0  0  0  0  0  0  0  0  0  0  0
   -3.6643   -1.0653   -3.9661 N   0  0  0  0  0  0  0  0  0  0  0  0
   -4.2908   -1.6947   -4.4651 H   0  0  0  0  0  0  0  0  0  0  0  0
   -3.6402    0.3056   -4.1455 C   0  0  0  0  0  0  0  0  0  0  0  0
   -4.4284    1.1480   -4.9291 C   0  0  0  0  0  0  0  0  0  0  0  0
   -5.2286    0.7401   -5.5368 H   0  0  0  0  0  0  0  0  0  0  0  0
   -4.1718    2.5258   -4.9211 C   0  0  0  0  0  0  0  0  0  0  0  0
   -4.7769    3.1951   -5.5255 H   0  0  0  0  0  0  0  0  0  0  0  0
   -3.1308    3.0411   -4.1347 C   0  0  0  0  0  0  0  0  0  0  0  0
   -2.9310    4.1086   -4.1331 H   0  0  0  0  0  0  0  0  0  0  0  0
   -2.3443    2.1832   -3.3524 C   0  0  0  0  0  0  0  0  0  0  0  0
   -1.5364    2.5859   -2.7499 H   0  0  0  0  0  0  0  0  0  0  0  0
   -2.6078    0.8074   -3.3614 C   0  0  0  0  0  0  0  0  0  0  0  0
   -0.6306   -0.2930    0.8585 C   0  0  0  0  0  0  0  0  0  0  0  0
    0.4682    0.1113    1.2140 O   0  0  0  0  0  0  0  0  0  0  0  0
   -1.7606    0.1966    1.4901 N   0  0  0  0  0  0  0  0  0  0  0  0
   -2.6591   -0.1272    1.1494 H   0  0  0  0  0  0  0  0  0  0  0  0
   -1.7135    1.0505    2.6698 C   0  0  0  0  0  0  0  0  0  0  0  0
   -1.1712    1.9764    2.4518 H   0  0  0  0  0  0  0  0  0  0  0  0
   -2.7275    1.3111    2.9881 H   0  0  0  0  0  0  0  0  0  0  0  0
   -1.2121    0.5342    3.4952 H   0  0  0  0  0  0  0  0  0  0  0  0
  1  2  1  0  0  0  0
  2  3  1  0  0  0  0
  2  4  1  0  0  0  0
  2  5  1  0  0  0  0
  5  6  2  0  0  0  0
  5  7  1  0  0  0  0
  7  8  1  0  0  0  0
  7  9  1  0  0  0  0
  9 10  1  0  0  0  0
  9 11  1  0  0  0  0
  9 29  1  0  0  0  0
 11 12  1  0  0  0  0
 11 13  1  0  0  0  0
 11 14  1  0  0  0  0
 14 15  2  0  0  0  0
 14 28  1  0  0  0  0
 15 16  1  0  0  0  0
 15 17  1  0  0  0  0
 17 18  1  0  0  0  0
 17 19  1  0  0  0  0
 19 20  1  0  0  0  0
 19 28  2  0  0  0  0
 20 21  1  0  0  0  0
 20 22  2  0  0  0  0
 22 23  1  0  0  0  0
 22 24  1  0  0  0  0
 24 25  1  0  0  0  0
 24 26  2  0  0  0  0
 26 27  1  0  0  0  0
 26 28  1  0  0  0  0
 29 30  2  0  0  0  0
 29 31  1  0  0  0  0
 31 32  1  0  0  0  0
 31 33  1  0  0  0  0
 33 34  1  0  0  0  0
 33 35  1  0  0  0  0
 33 36  1  0  0  0  0
M  END
$$$$

  -OEChem-03222214083D

 36 37  0     1  0  0  0  0  0999 V2000
   -2.7940   -4.8323    1.5534 H   0  0  0  0  0  0  0  0  0  0  0  0
   -2.9956   -4.0999    0.7661 C   0  0  0  0  0  0  0  0  0  0  0  0
   -3.8728   -3.5135    1.0494 H   0  0  0  0  0  0  0  0  0  0  0  0
   -3.2044   -4.6335   -0.1644 H   0  0  0  0  0  0  0  0  0  0  0  0
   -1.7962   -3.1892    0.5847 C   0  0  0  0  0  0  0  0  0  0  0  0
   -0.7962   -3.3606    1.2568 O   0  0  0  0  0  0  0  0  0  0  0  0
   -1.8460   -2.1674   -0.3424 N   0  0  0  0  0  0  0  0  0  0  0  0
   -2.7535   -1.9741   -0.7516 H   0  0  0  0  0  0  0  0  0  0  0  0
   -0.8175   -1.1190   -0.4597 C   0  0  1  0  0  0  0  0  0  0  0  0
    0.1352   -1.6452   -0.5910 H   0  0  0  0  0  0  0  0  0  0  0  0
   -0.9634   -0.1829   -1.6937 C   0  0  0  0  0  0  0  0  0  0  0  0
   -1.0449    0.8433   -1.3200 H   0  0  0  0  0  0  0  0  0  0  0  0
   -0.0249   -0.2314   -2.2551 H   0  0  0  0  0  0  0  0  0  0  0  0
   -2.0956   -0.3635   -2.6985 C   0  0  0  0  0  0  0  0  0  0  0  0
   -2.9778   -1.3977   -2.9484 C   0  0  0  0  0  0  0  0  0  0  0  0
   -2.9690   -2.3838   -2.4951 H   0  0  0  0  0  0  0  0  0  0  0  0
   -3.8613   -0.9909   -3.9439 N   0  0  0  0  0  0  0  0  0  0  0  0
   -4.5916   -1.5661   -4.3598 H   0  0  0  0  0  0  0  0  0  0  0  0
   -3.5653    0.2959   -4.3518 C   0  0  0  0  0  0  0  0  0  0  0  0
   -4.1509    1.1228   -5.3109 C   0  0  0  0  0  0  0  0  0  0  0  0
   -5.0010    0.7771   -5.8882 H   0  0  0  0  0  0  0  0  0  0  0  0
   -3.6249    2.4053   -5.5190 C   0  0  0  0  0  0  0  0  0  0  0  0
   -4.0694    3.0611   -6.2619 H   0  0  0  0  0  0  0  0  0  0  0  0
   -2.5224    2.8419   -4.7694 C   0  0  0  0  0  0  0  0  0  0  0  0
   -2.1141    3.8346   -4.9337 H   0  0  0  0  0  0  0  0  0  0  0  0
   -1.9423    1.9998   -3.8099 C   0  0  0  0  0  0  0  0  0  0  0  0
   -1.0861    2.3371   -3.2346 H   0  0  0  0  0  0  0  0  0  0  0  0
   -2.4743    0.7208   -3.6047 C   0  0  0  0  0  0  0  0  0  0  0  0
   -0.6445   -0.2750    0.8234 C   0  0  0  0  0  0  0  0  0  0  0  0
    0.4574    0.1649    1.1221 O   0  0  0  0  0  0  0  0  0  0  0  0
   -1.7563    0.1910    1.5038 N   0  0  0  0  0  0  0  0  0  0  0  0
   -2.6621   -0.1550    1.2078 H   0  0  0  0  0  0  0  0  0  0  0  0
   -1.6750    1.0656    2.6666 C   0  0  0  0  0  0  0  0  0  0  0  0
   -1.1999    2.0155    2.3999 H   0  0  0  0  0  0  0  0  0  0  0  0
   -2.6769    1.2770    3.0516 H   0  0  0  0  0  0  0  0  0  0  0  0
   -1.0914    0.5902    3.4622 H   0  0  0  0  0  0  0  0  0  0  0  0
  1  2  1  0  0  0  0
  2  3  1  0  0  0  0
  2  4  1  0  0  0  0
  2  5  1  0  0  0  0
  5  6  2  0  0  0  0
  5  7  1  0  0  0  0
  7  8  1  0  0  0  0
  7  9  1  0  0  0  0
  9 10  1  0  0  0  0
  9 11  1  0  0  0  0
  9 29  1  0  0  0  0
 11 12  1  0  0  0  0
 11 13  1  0  0  0  0
 11 14  1  0  0  0  0
 14 15  2  0  0  0  0
 14 28  1  0  0  0  0
 15 16  1  0  0  0  0
 15 17  1  0  0  0  0
 17 18  1  0  0  0  0
 17 19  1  0  0  0  0
 19 20  1  0  0  0  0
 19 28  2  0  0  0  0
 20 21  1  0  0  0  0
 20 22  2  0  0  0  0
 22 23  1  0  0  0  0
 22 24  1  0  0  0  0
 24 25  1  0  0  0  0
 24 26  2  0  0  0  0
 26 27  1  0  0  0  0
 26 28  1  0  0  0  0
 29 30  2  0  0  0  0
 29 31  1  0  0  0  0
 31 32  1  0  0  0  0
 31 33  1  0  0  0  0
 33 34  1  0  0  0  0
 33 35  1  0  0  0  0
 33 36  1  0  0  0  0
M  END
$$$$

  -OEChem-03222214083D

 36 37  0     1  0  0  0  0  0999 V2000
   -2.7693   -4.9683    1.3345 H   0  0  0  0  0  0  0  0  0  0  0  0
   -2.9305   -4.2463    0.5286 C   0  0  0  0  0  0  0  0  0  0  0  0
   -3.9574   -3.8779    0.5881 H   0  0  0  0  0  0  0  0  0  0  0  0
   -2.7859   -4.7519   -0.4292 H   0  0  0  0  0  0  0  0  0  0  0  0
   -1.9542   -3.0923    0.6594 C   0  0  0  0  0  0  0  0  0  0  0  0
   -1.1733   -3.0654    1.5920 O   0  0  0  0  0  0  0  0  0  0  0  0
   -1.9652   -2.0833   -0.2839 N   0  0  0  0  0  0  0  0  0  0  0  0
   -2.4771   -2.3084   -1.1303 H   0  0  0  0  0  0  0  0  0  0  0  0
   -0.8707   -1.1095   -0.4475 C   0  0  1  0  0  0  0  0  0  0  0  0
    0.0426   -1.6874   -0.6277 H   0  0  0  0  0  0  0  0  0  0  0  0
   -1.0517   -0.1395   -1.6535 C   0  0  0  0  0  0  0  0  0  0  0  0
   -1.0002    0.8950   -1.2956 H   0  0  0  0  0  0  0  0  0  0  0  0
   -0.1720   -0.2871   -2.2879 H   0  0  0  0  0  0  0  0  0  0  0  0
   -2.2725   -0.2136   -2.5656 C   0  0  0  0  0  0  0  0  0  0  0  0
   -3.5062   -0.8279   -2.4523 C   0  0  0  0  0  0  0  0  0  0  0  0
   -3.8964   -1.3542   -1.5872 H   0  0  0  0  0  0  0  0  0  0  0  0
   -4.2152   -0.6118   -3.6303 N   0  0  0  0  0  0  0  0  0  0  0  0
   -5.1668   -0.9235   -3.8168 H   0  0  0  0  0  0  0  0  0  0  0  0
   -3.4631    0.1404   -4.5122 C   0  0  0  0  0  0  0  0  0  0  0  0
   -3.7361    0.6118   -5.7965 C   0  0  0  0  0  0  0  0  0  0  0  0
   -4.6857    0.3919   -6.2717 H   0  0  0  0  0  0  0  0  0  0  0  0
   -2.7669    1.3738   -6.4635 C   0  0  0  0  0  0  0  0  0  0  0  0
   -2.9643    1.7494   -7.4631 H   0  0  0  0  0  0  0  0  0  0  0  0
   -1.5428    1.6551   -5.8389 C   0  0  0  0  0  0  0  0  0  0  0  0
   -0.7948    2.2489   -6.3556 H   0  0  0  0  0  0  0  0  0  0  0  0
   -1.2813    1.1749   -4.5478 C   0  0  0  0  0  0  0  0  0  0  0  0
   -0.3356    1.3976   -4.0642 H   0  0  0  0  0  0  0  0  0  0  0  0
   -2.2521    0.4114   -3.8881 C   0  0  0  0  0  0  0  0  0  0  0  0
   -0.5898   -0.2564    0.8115 C   0  0  0  0  0  0  0  0  0  0  0  0
    0.5521    0.1207    1.0424 O   0  0  0  0  0  0  0  0  0  0  0  0
   -1.6395    0.2991    1.5204 N   0  0  0  0  0  0  0  0  0  0  0  0
   -2.5547   -0.1040    1.3501 H   0  0  0  0  0  0  0  0  0  0  0  0
   -1.4441    1.1235    2.7056 C   0  0  0  0  0  0  0  0  0  0  0  0
   -0.8296    1.9983    2.4679 H   0  0  0  0  0  0  0  0  0  0  0  0
   -2.4086    1.4740    3.0849 H   0  0  0  0  0  0  0  0  0  0  0  0
   -0.9478    0.5473    3.4936 H   0  0  0  0  0  0  0  0  0  0  0  0
  1  2  1  0  0  0  0
  2  3  1  0  0  0  0
  2  4  1  0  0  0  0
  2  5  1  0  0  0  0
  5  6  2  0  0  0  0
  5  7  1  0  0  0  0
  7  8  1  0  0  0  0
  7  9  1  0  0  0  0
  9 10  1  0  0  0  0
  9 11  1  0  0  0  0
  9 29  1  0  0  0  0
 11 12  1  0  0  0  0
 11 13  1  0  0  0  0
 11 14  1  0  0  0  0
 14 15  2  0  0  0  0
 14 28  1  0  0  0  0
 15 16  1  0  0  0  0
 15 17  1  0  0  0  0
 17 18  1  0  0  0  0
 17 19  1  0  0  0  0
 19 20  1  0  0  0  0
 19 28  2  0  0  0  0
 20 21  1  0  0  0  0
 20 22  2  0  0  0  0
 22 23  1  0  0  0  0
 22 24  1  0  0  0  0
 24 25  1  0  0  0  0
 24 26  2  0  0  0  0
 26 27  1  0  0  0  0
 26 28  1  0  0  0  0
 29 30  2  0  0  0  0
 29 31  1  0  0  0  0
 31 32  1  0  0  0  0
 31 33  1  0  0  0  0
 33 34  1  0  0  0  0
 33 35  1  0  0  0  0
 33 36  1  0  0  0  0
M  END
$$$$

  -OEChem-03222214083D

 36 37  0     1  0  0  0  0  0999 V2000
   -2.9904   -4.9099    1.1823 H   0  0  0  0  0  0  0  0  0  0  0  0
   -3.0970   -4.1594    0.3935 C   0  0  0  0  0  0  0  0  0  0  0  0
   -4.1023   -3.7350    0.4457 H   0  0  0  0  0  0  0  0  0  0  0  0
   -2.9637   -4.6477   -0.5750 H   0  0  0  0  0  0  0  0  0  0  0  0
   -2.0606   -3.0657    0.5718 C   0  0  0  0  0  0  0  0  0  0  0  0
   -1.3011   -3.1027    1.5217 O   0  0  0  0  0  0  0  0  0  0  0  0
   -1.9963   -2.0309   -0.3403 N   0  0  0  0  0  0  0  0  0  0  0  0
   -2.5196   -2.1850   -1.1979 H   0  0  0  0  0  0  0  0  0  0  0  0
   -0.8519   -1.1051   -0.4487 C   0  0  1  0  0  0  0  0  0  0  0  0
    0.0369   -1.7221   -0.6222 H   0  0  0  0  0  0  0  0  0  0  0  0
   -0.9583   -0.1047   -1.6376 C   0  0  0  0  0  0  0  0  0  0  0  0
   -0.8763    0.9225   -1.2652 H   0  0  0  0  0  0  0  0  0  0  0  0
   -0.0720   -0.2765   -2.2556 H   0  0  0  0  0  0  0  0  0  0  0  0
   -2.1723   -0.1419   -2.5565 C   0  0  0  0  0  0  0  0  0  0  0  0
   -3.4821   -0.5012   -2.3075 C   0  0  0  0  0  0  0  0  0  0  0  0
   -3.9007   -0.7607   -1.3385 H   0  0  0  0  0  0  0  0  0  0  0  0
   -4.1910   -0.4289   -3.5025 N   0  0  0  0  0  0  0  0  0  0  0  0
   -5.1884   -0.6038   -3.6130 H   0  0  0  0  0  0  0  0  0  0  0  0
   -3.3590   -0.0178   -4.5277 C   0  0  0  0  0  0  0  0  0  0  0  0
   -3.6029    0.2075   -5.8824 C   0  0  0  0  0  0  0  0  0  0  0  0
   -4.5944    0.0540   -6.2939 H   0  0  0  0  0  0  0  0  0  0  0  0
   -2.5507    0.6356   -6.7033 C   0  0  0  0  0  0  0  0  0  0  0  0
   -2.7246    0.8159   -7.7602 H   0  0  0  0  0  0  0  0  0  0  0  0
   -1.2728    0.8350   -6.1603 C   0  0  0  0  0  0  0  0  0  0  0  0
   -0.4597    1.1708   -6.7971 H   0  0  0  0  0  0  0  0  0  0  0  0
   -1.0408    0.6059   -4.7966 C   0  0  0  0  0  0  0  0  0  0  0  0
   -0.0524    0.7660   -4.3783 H   0  0  0  0  0  0  0  0  0  0  0  0
   -2.0952    0.1745   -3.9819 C   0  0  0  0  0  0  0  0  0  0  0  0
   -0.5608   -0.2996    0.8385 C   0  0  0  0  0  0  0  0  0  0  0  0
    0.5920    0.0185    1.1017 O   0  0  0  0  0  0  0  0  0  0  0  0
   -1.5982    0.2885    1.5398 N   0  0  0  0  0  0  0  0  0  0  0  0
   -2.5240   -0.0821    1.3550 H   0  0  0  0  0  0  0  0  0  0  0  0
   -1.3848    1.0674    2.7526 C   0  0  0  0  0  0  0  0  0  0  0  0
   -0.7199    1.9144    2.5530 H   0  0  0  0  0  0  0  0  0  0  0  0
   -2.3371    1.4584    3.1232 H   0  0  0  0  0  0  0  0  0  0  0  0
   -0.9366    0.4430    3.5326 H   0  0  0  0  0  0  0  0  0  0  0  0
  1  2  1  0  0  0  0
  2  3  1  0  0  0  0
  2  4  1  0  0  0  0
  2  5  1  0  0  0  0
  5  6  2  0  0  0  0
  5  7  1  0  0  0  0
  7  8  1  0  0  0  0
  7  9  1  0  0  0  0
  9 10  1  0  0  0  0
  9 11  1  0  0  0  0
  9 29  1  0  0  0  0
 11 12  1  0  0  0  0
 11 13  1  0  0  0  0
 11 14  1  0  0  0  0
 14 15  2  0  0  0  0
 14 28  1  0  0  0  0
 15 16  1  0  0  0  0
 15 17  1  0  0  0  0
 17 18  1  0  0  0  0
 17 19  1  0  0  0  0
 19 20  1  0  0  0  0
 19 28  2  0  0  0  0
 20 21  1  0  0  0  0
 20 22  2  0  0  0  0
 22 23  1  0  0  0  0
 22 24  1  0  0  0  0
 24 25  1  0  0  0  0
 24 26  2  0  0  0  0
 26 27  1  0  0  0  0
 26 28  1  0  0  0  0
 29 30  2  0  0  0  0
 29 31  1  0  0  0  0
 31 32  1  0  0  0  0
 31 33  1  0  0  0  0
 33 34  1  0  0  0  0
 33 35  1  0  0  0  0
 33 36  1  0  0  0  0
M  END
$$$$

  -OEChem-03222214083D

 36 37  0     1  0  0  0  0  0999 V2000
   -3.1392   -4.8538    0.9994 H   0  0  0  0  0  0  0  0  0  0  0  0
   -3.1976   -4.0717    0.2368 C   0  0  0  0  0  0  0  0  0  0  0  0
   -4.1860   -3.6088    0.2824 H   0  0  0  0  0  0  0  0  0  0  0  0
   -3.0610   -4.5295   -0.7460 H   0  0  0  0  0  0  0  0  0  0  0  0
   -2.1233   -3.0281    0.4769 C   0  0  0  0  0  0  0  0  0  0  0  0
   -1.3971   -3.1184    1.4494 O   0  0  0  0  0  0  0  0  0  0  0  0
   -1.9880   -1.9730   -0.4024 N   0  0  0  0  0  0  0  0  0  0  0  0
   -2.5121   -2.0587   -1.2709 H   0  0  0  0  0  0  0  0  0  0  0  0
   -0.8149   -1.0765   -0.4425 C   0  0  1  0  0  0  0  0  0  0  0  0
    0.0626   -1.7143   -0.5964 H   0  0  0  0  0  0  0  0  0  0  0  0
   -0.8575   -0.0618   -1.6211 C   0  0  0  0  0  0  0  0  0  0  0  0
   -0.7873    0.9609   -1.2348 H   0  0  0  0  0  0  0  0  0  0  0  0
    0.0474   -0.2267   -2.2131 H   0  0  0  0  0  0  0  0  0  0  0  0
   -2.0555   -0.1057   -2.5552 C   0  0  0  0  0  0  0  0  0  0  0  0
   -3.3917   -0.1996   -2.2279 C   0  0  0  0  0  0  0  0  0  0  0  0
   -3.7953   -0.1961   -1.2177 H   0  0  0  0  0  0  0  0  0  0  0  0
   -4.1229   -0.2747   -3.4090 N   0  0  0  0  0  0  0  0  0  0  0  0
   -5.1389   -0.3033   -3.4772 H   0  0  0  0  0  0  0  0  0  0  0  0
   -3.2739   -0.2245   -4.5008 C   0  0  0  0  0  0  0  0  0  0  0  0
   -3.5307   -0.2578   -5.8715 C   0  0  0  0  0  0  0  0  0  0  0  0
   -4.5485   -0.3391   -6.2371 H   0  0  0  0  0  0  0  0  0  0  0  0
   -2.4567   -0.1835   -6.7689 C   0  0  0  0  0  0  0  0  0  0  0  0
   -2.6405   -0.2079   -7.8391 H   0  0  0  0  0  0  0  0  0  0  0  0
   -1.1440   -0.0749   -6.2859 C   0  0  0  0  0  0  0  0  0  0  0  0
   -0.3136   -0.0130   -6.9831 H   0  0  0  0  0  0  0  0  0  0  0  0
   -0.8990   -0.0417   -4.9055 C   0  0  0  0  0  0  0  0  0  0  0  0
    0.1170    0.0480   -4.5355 H   0  0  0  0  0  0  0  0  0  0  0  0
   -1.9757   -0.1184   -4.0137 C   0  0  0  0  0  0  0  0  0  0  0  0
   -0.5501   -0.3078    0.8719 C   0  0  0  0  0  0  0  0  0  0  0  0
    0.5993   -0.0167    1.1771 O   0  0  0  0  0  0  0  0  0  0  0  0
   -1.5980    0.2936    1.5461 N   0  0  0  0  0  0  0  0  0  0  0  0
   -2.5205   -0.0728    1.3379 H   0  0  0  0  0  0  0  0  0  0  0  0
   -1.4083    1.0350    2.7865 C   0  0  0  0  0  0  0  0  0  0  0  0
   -0.7027    1.8592    2.6384 H   0  0  0  0  0  0  0  0  0  0  0  0
   -2.3599    1.4556    3.1246 H   0  0  0  0  0  0  0  0  0  0  0  0
   -1.0204    0.3754    3.5699 H   0  0  0  0  0  0  0  0  0  0  0  0
  1  2  1  0  0  0  0
  2  3  1  0  0  0  0
  2  4  1  0  0  0  0
  2  5  1  0  0  0  0
  5  6  2  0  0  0  0
  5  7  1  0  0  0  0
  7  8  1  0  0  0  0
  7  9  1  0  0  0  0
  9 10  1  0  0  0  0
  9 11  1  0  0  0  0
  9 29  1  0  0  0  0
 11 12  1  0  0  0  0
 11 13  1  0  0  0  0
 11 14  1  0  0  0  0
 14 15  2  0  0  0  0
 14 28  1  0  0  0  0
 15 16  1  0  0  0  0
 15 17  1  0  0  0  0
 17 18  1  0  0  0  0
 17 19  1  0  0  0  0
 19 20  1  0  0  0  0
 19 28  2  0  0  0  0
 20 21  1  0  0  0  0
 20 22  2  0  0  0  0
 22 23  1  0  0  0  0
 22 24  1  0  0  0  0
 24 25  1  0  0  0  0
 24 26  2  0  0  0  0
 26 27  1  0  0  0  0
 26 28  1  0  0  0  0
 29 30  2  0  0  0  0
 29 31  1  0  0  0  0
 31 32  1  0  0  0  0
 31 33  1  0  0  0  0
 33 34  1  0  0  0  0
 33 35  1  0  0  0  0
 33 36  1  0  0  0  0
M  END
$$$$

  -OEChem-03222214083D

 36 37  0     1  0  0  0  0  0999 V2000
   -3.2620   -4.7948    0.8044 H   0  0  0  0  0  0  0  0  0  0  0  0
   -3.2669   -3.9910    0.0625 C   0  0  0  0  0  0  0  0  0  0  0  0
   -4.2378   -3.4906    0.0907 H   0  0  0  0  0  0  0  0  0  0  0  0
   -3.1172   -4.4272   -0.9283 H   0  0  0  0  0  0  0  0  0  0  0  0
   -2.1612   -2.9971    0.3636 C   0  0  0  0  0  0  0  0  0  0  0  0
   -1.4649   -3.1421    1.3518 O   0  0  0  0  0  0  0  0  0  0  0  0
   -1.9633   -1.9219   -0.4773 N   0  0  0  0  0  0  0  0  0  0  0  0
   -2.4888   -1.9362   -1.3503 H   0  0  0  0  0  0  0  0  0  0  0  0
   -0.7734   -1.0464   -0.4468 C   0  0  1  0  0  0  0  0  0  0  0  0
    0.0990   -1.6947   -0.5843 H   0  0  0  0  0  0  0  0  0  0  0  0
   -0.7671   -0.0145   -1.6079 C   0  0  0  0  0  0  0  0  0  0  0  0
   -0.7240    1.0017   -1.2005 H   0  0  0  0  0  0  0  0  0  0  0  0
    0.1537   -0.1541   -2.1814 H   0  0  0  0  0  0  0  0  0  0  0  0
   -1.9530   -0.0765   -2.5496 C   0  0  0  0  0  0  0  0  0  0  0  0
   -3.2762    0.1004   -2.2117 C   0  0  0  0  0  0  0  0  0  0  0  0
   -3.6426    0.3686   -1.2228 H   0  0  0  0  0  0  0  0  0  0  0  0
   -4.0411   -0.1224   -3.3527 N   0  0  0  0  0  0  0  0  0  0  0  0
   -5.0521   -0.0149   -3.4180 H   0  0  0  0  0  0  0  0  0  0  0  0
   -3.2234   -0.4404   -4.4242 C   0  0  0  0  0  0  0  0  0  0  0  0
   -3.5178   -0.7370   -5.7549 C   0  0  0  0  0  0  0  0  0  0  0  0
   -4.5452   -0.7421   -6.1013 H   0  0  0  0  0  0  0  0  0  0  0  0
   -2.4685   -1.0261   -6.6382 C   0  0  0  0  0  0  0  0  0  0  0  0
   -2.6822   -1.2570   -7.6777 H   0  0  0  0  0  0  0  0  0  0  0  0
   -1.1419   -1.0153   -6.1815 C   0  0  0  0  0  0  0  0  0  0  0  0
   -0.3309   -1.2373   -6.8686 H   0  0  0  0  0  0  0  0  0  0  0  0
   -0.8582   -0.7150   -4.8413 C   0  0  0  0  0  0  0  0  0  0  0  0
    0.1686   -0.7028   -4.4905 H   0  0  0  0  0  0  0  0  0  0  0  0
   -1.9107   -0.4254   -3.9652 C   0  0  0  0  0  0  0  0  0  0  0  0
   -0.5458   -0.3147    0.8941 C   0  0  0  0  0  0  0  0  0  0  0  0
    0.5951   -0.0398    1.2431 O   0  0  0  0  0  0  0  0  0  0  0  0
   -1.6094    0.2903    1.5401 N   0  0  0  0  0  0  0  0  0  0  0  0
   -2.5263   -0.0740    1.3053 H   0  0  0  0  0  0  0  0  0  0  0  0
   -1.4504    1.0148    2.7947 C   0  0  0  0  0  0  0  0  0  0  0  0
   -0.7526    1.8496    2.6701 H   0  0  0  0  0  0  0  0  0  0  0  0
   -2.4124    1.4186    3.1236 H   0  0  0  0  0  0  0  0  0  0  0  0
   -1.0670    0.3486    3.5747 H   0  0  0  0  0  0  0  0  0  0  0  0
  1  2  1  0  0  0  0
  2  3  1  0  0  0  0
  2  4  1  0  0  0  0
  2  5  1  0  0  0  0
  5  6  2  0  0  0  0
  5  7  1  0  0  0  0
  7  8  1  0  0  0  0
  7  9  1  0  0  0  0
  9 10  1  0  0  0  0
  9 11  1  0  0  0  0
  9 29  1  0  0  0  0
 11 12  1  0  0  0  0
 11 13  1  0  0  0  0
 11 14  1  0  0  0  0
 14 15  2  0  0  0  0
 14 28  1  0  0  0  0
 15 16  1  0  0  0  0
 15 17  1  0  0  0  0
 17 18  1  0  0  0  0
 17 19  1  0  0  0  0
 19 20  1  0  0  0  0
 19 28  2  0  0  0  0
 20 21  1  0  0  0  0
 20 22  2  0  0  0  0
 22 23  1  0  0  0  0
 22 24  1  0  0  0  0
 24 25  1  0  0  0  0
 24 26  2  0  0  0  0
 26 27  1  0  0  0  0
 26 28  1  0  0  0  0
 29 30  2  0  0  0  0
 29 31  1  0  0  0  0
 31 32  1  0  0  0  0
 31 33  1  0  0  0  0
 33 34  1  0  0  0  0
 33 35  1  0  0  0  0
 33 36  1  0  0  0  0
M  END
$$$$

  -OEChem-03222214083D

 36 37  0     1  0  0  0  0  0999 V2000
   -3.3338   -4.7493    0.6629 H   0  0  0  0  0  0  0  0  0  0  0  0
   -3.3025   -3.9346   -0.0661 C   0  0  0  0  0  0  0  0  0  0  0  0
   -4.2591   -3.4072   -0.0466 H   0  0  0  0  0  0  0  0  0  0  0  0
   -3.1483   -4.3599   -1.0609 H   0  0  0  0  0  0  0  0  0  0  0  0
   -2.1739   -2.9778    0.2689 C   0  0  0  0  0  0  0  0  0  0  0  0
   -1.4921   -3.1641    1.2604 O   0  0  0  0  0  0  0  0  0  0  0  0
   -1.9356   -1.8904   -0.5446 N   0  0  0  0  0  0  0  0  0  0  0  0
   -2.4660   -1.8519   -1.4147 H   0  0  0  0  0  0  0  0  0  0  0  0
   -0.7378   -1.0275   -0.4659 C   0  0  1  0  0  0  0  0  0  0  0  0
    0.1326   -1.6803   -0.5921 H   0  0  0  0  0  0  0  0  0  0  0  0
   -0.7004    0.0202   -1.6110 C   0  0  0  0  0  0  0  0  0  0  0  0
   -0.6724    1.0296   -1.1866 H   0  0  0  0  0  0  0  0  0  0  0  0
    0.2278   -0.1029   -2.1771 H   0  0  0  0  0  0  0  0  0  0  0  0
   -1.8789   -0.0551   -2.5553 C   0  0  0  0  0  0  0  0  0  0  0  0
   -3.1538    0.3850   -2.2859 C   0  0  0  0  0  0  0  0  0  0  0  0
   -3.4631    0.9069   -1.3826 H   0  0  0  0  0  0  0  0  0  0  0  0
   -3.9585    0.0318   -3.3661 N   0  0  0  0  0  0  0  0  0  0  0  0
   -4.9443    0.2681   -3.4701 H   0  0  0  0  0  0  0  0  0  0  0  0
   -3.2135   -0.6358   -4.3250 C   0  0  0  0  0  0  0  0  0  0  0  0
   -3.5644   -1.1797   -5.5606 C   0  0  0  0  0  0  0  0  0  0  0  0
   -4.5852   -1.1112   -5.9204 H   0  0  0  0  0  0  0  0  0  0  0  0
   -2.5802   -1.8140   -6.3316 C   0  0  0  0  0  0  0  0  0  0  0  0
   -2.8383   -2.2398   -7.2969 H   0  0  0  0  0  0  0  0  0  0  0  0
   -1.2615   -1.8974   -5.8594 C   0  0  0  0  0  0  0  0  0  0  0  0
   -0.5012   -2.3872   -6.4605 H   0  0  0  0  0  0  0  0  0  0  0  0
   -0.9199   -1.3466   -4.6160 C   0  0  0  0  0  0  0  0  0  0  0  0
    0.1005   -1.4054   -4.2512 H   0  0  0  0  0  0  0  0  0  0  0  0
   -1.9075   -0.7132   -3.8545 C   0  0  0  0  0  0  0  0  0  0  0  0
   -0.5436   -0.3211    0.8934 C   0  0  0  0  0  0  0  0  0  0  0  0
    0.5880   -0.0556    1.2782 O   0  0  0  0  0  0  0  0  0  0  0  0
   -1.6223    0.2822    1.5157 N   0  0  0  0  0  0  0  0  0  0  0  0
   -2.5337   -0.0745    1.2478 H   0  0  0  0  0  0  0  0  0  0  0  0
   -1.4974    0.9878    2.7850 C   0  0  0  0  0  0  0  0  0  0  0  0
   -0.8077    1.8329    2.6876 H   0  0  0  0  0  0  0  0  0  0  0  0
   -2.4709    1.3739    3.1015 H   0  0  0  0  0  0  0  0  0  0  0  0
   -1.1212    0.3138    3.5619 H   0  0  0  0  0  0  0  0  0  0  0  0
  1  2  1  0  0  0  0
  2  3  1  0  0  0  0
  2  4  1  0  0  0  0
  2  5  1  0  0  0  0
  5  6  2  0  0  0  0
  5  7  1  0  0  0  0
  7  8  1  0  0  0  0
  7  9  1  0  0  0  0
  9 10  1  0  0  0  0
  9 11  1  0  0  0  0
  9 29  1  0  0  0  0
 11 12  1  0  0  0  0
 11 13  1  0  0  0  0
 11 14  1  0  0  0  0
 14 15  2  0  0  0  0
 14 28  1  0  0  0  0
 15 16  1  0  0  0  0
 15 17  1  0  0  0  0
 17 18  1  0  0  0  0
 17 19  1  0  0  0  0
 19 20  1  0  0  0  0
 19 28  2  0  0  0  0
 20 21  1  0  0  0  0
 20 22  2  0  0  0  0
 22 23  1  0  0  0  0
 22 24  1  0  0  0  0
 24 25  1  0  0  0  0
 24 26  2  0  0  0  0
 26 27  1  0  0  0  0
 26 28  1  0  0  0  0
 29 30  2  0  0  0  0
 29 31  1  0  0  0  0
 31 32  1  0  0  0  0
 31 33  1  0  0  0  0
 33 34  1  0  0  0  0
 33 35  1  0  0  0  0
 33 36  1  0  0  0  0
M  END
$$$$

  -OEChem-03222214083D

 36 37  0     1  0  0  0  0  0999 V2000
   -3.3703   -4.7262    0.6113 H   0  0  0  0  0  0  0  0  0  0  0  0
   -3.3190   -3.9079   -0.1123 C   0  0  0  0  0  0  0  0  0  0  0  0
   -4.2633   -3.3589   -0.0909 H   0  0  0  0  0  0  0  0  0  0  0  0
   -3.1730   -4.3298   -1.1098 H   0  0  0  0  0  0  0  0  0  0  0  0
   -2.1698   -2.9786    0.2295 C   0  0  0  0  0  0  0  0  0  0  0  0
   -1.4864   -3.1885    1.2154 O   0  0  0  0  0  0  0  0  0  0  0  0
   -1.9111   -1.8909   -0.5765 N   0  0  0  0  0  0  0  0  0  0  0  0
   -2.4478   -1.8282   -1.4417 H   0  0  0  0  0  0  0  0  0  0  0  0
   -0.7128   -1.0303   -0.4789 C   0  0  1  0  0  0  0  0  0  0  0  0
    0.1597   -1.6822   -0.5941 H   0  0  0  0  0  0  0  0  0  0  0  0
   -0.6643    0.0191   -1.6211 C   0  0  0  0  0  0  0  0  0  0  0  0
   -0.6444    1.0273   -1.1936 H   0  0  0  0  0  0  0  0  0  0  0  0
    0.2665   -0.1002   -2.1843 H   0  0  0  0  0  0  0  0  0  0  0  0
   -1.8369   -0.0666   -2.5696 C   0  0  0  0  0  0  0  0  0  0  0  0
   -3.0274    0.6076   -2.4417 C   0  0  0  0  0  0  0  0  0  0  0  0
   -3.2581    1.3428   -1.6728 H   0  0  0  0  0  0  0  0  0  0  0  0
   -3.8701    0.1655   -3.4590 N   0  0  0  0  0  0  0  0  0  0  0  0
   -4.8080    0.5196   -3.6420 H   0  0  0  0  0  0  0  0  0  0  0  0
   -3.2354   -0.7948   -4.2309 C   0  0  0  0  0  0  0  0  0  0  0  0
   -3.6605   -1.5315   -5.3364 C   0  0  0  0  0  0  0  0  0  0  0  0
   -4.6565   -1.3880   -5.7412 H   0  0  0  0  0  0  0  0  0  0  0  0
   -2.7837   -2.4596   -5.9158 C   0  0  0  0  0  0  0  0  0  0  0  0
   -3.1000   -3.0388   -6.7783 H   0  0  0  0  0  0  0  0  0  0  0  0
   -1.4969   -2.6400   -5.3853 C   0  0  0  0  0  0  0  0  0  0  0  0
   -0.8195   -3.3577   -5.8390 H   0  0  0  0  0  0  0  0  0  0  0  0
   -1.0798   -1.8933   -4.2743 C   0  0  0  0  0  0  0  0  0  0  0  0
   -0.0845   -2.0276   -3.8621 H   0  0  0  0  0  0  0  0  0  0  0  0
   -1.9605   -0.9686   -3.7054 C   0  0  0  0  0  0  0  0  0  0  0  0
   -0.5422   -0.3264    0.8841 C   0  0  0  0  0  0  0  0  0  0  0  0
    0.5817   -0.0660    1.2944 O   0  0  0  0  0  0  0  0  0  0  0  0
   -1.6329    0.2765    1.4850 N   0  0  0  0  0  0  0  0  0  0  0  0
   -2.5398   -0.0656    1.1842 H   0  0  0  0  0  0  0  0  0  0  0  0
   -1.5378    0.9665    2.7650 C   0  0  0  0  0  0  0  0  0  0  0  0
   -0.8500    1.8157    2.6929 H   0  0  0  0  0  0  0  0  0  0  0  0
   -2.5198    1.3438    3.0662 H   0  0  0  0  0  0  0  0  0  0  0  0
   -1.1747    0.2837    3.5405 H   0  0  0  0  0  0  0  0  0  0  0  0
  1  2  1  0  0  0  0
  2  3  1  0  0  0  0
  2  4  1  0  0  0  0
  2  5  1  0  0  0  0
  5  6  2  0  0  0  0
  5  7  1  0  0  0  0
  7  8  1  0  0  0  0
  7  9  1  0  0  0  0
  9 10  1  0  0  0  0
  9 11  1  0  0  0  0
  9 29  1  0  0  0  0
 11 12  1  0  0  0  0
 11 13  1  0  0  0  0
 11 14  1  0  0  0  0
 14 15  2  0  0  0  0
 14 28  1  0  0  0  0
 15 16  1  0  0  0  0
 15 17  1  0  0  0  0
 17 18  1  0  0  0  0
 17 19  1  0  0  0  0
 19 20  1  0  0  0  0
 19 28  2  0  0  0  0
 20 21  1  0  0  0  0
 20 22  2  0  0  0  0
 22 23  1  0  0  0  0
 22 24  1  0  0  0  0
 24 25  1  0  0  0  0
 24 26  2  0  0  0  0
 26 27  1  0  0  0  0
 26 28  1  0  0  0  0
 29 30  2  0  0  0  0
 29 31  1  0  0  0  0
 31 32  1  0  0  0  0
 31 33  1  0  0  0  0
 33 34  1  0  0  0  0
 33 35  1  0  0  0  0
 33 36  1  0  0  0  0
M  END
$$$$

  -OEChem-03222214083D

 36 37  0     1  0  0  0  0  0999 V2000
   -3.3552   -4.7509    0.7260 H   0  0  0  0  0  0  0  0  0  0  0  0
   -3.3293   -3.9287    0.0051 C   0  0  0  0  0  0  0  0  0  0  0  0
   -4.2692   -3.3752    0.0672 H   0  0  0  0  0  0  0  0  0  0  0  0
   -3.2254   -4.3449   -1.0001 H   0  0  0  0  0  0  0  0  0  0  0  0
   -2.1634   -3.0066    0.3060 C   0  0  0  0  0  0  0  0  0  0  0  0
   -1.4579   -3.2102    1.2775 O   0  0  0  0  0  0  0  0  0  0  0  0
   -1.9100   -1.9370   -0.5252 N   0  0  0  0  0  0  0  0  0  0  0  0
   -2.4675   -1.8783   -1.3773 H   0  0  0  0  0  0  0  0  0  0  0  0
   -0.7154   -1.0710   -0.4526 C   0  0  1  0  0  0  0  0  0  0  0  0
    0.1606   -1.7205   -0.5565 H   0  0  0  0  0  0  0  0  0  0  0  0
   -0.6755   -0.0455   -1.6169 C   0  0  0  0  0  0  0  0  0  0  0  0
   -0.6449    0.9715   -1.2110 H   0  0  0  0  0  0  0  0  0  0  0  0
    0.2508   -0.1853   -2.1830 H   0  0  0  0  0  0  0  0  0  0  0  0
   -1.8478   -0.1451   -2.5662 C   0  0  0  0  0  0  0  0  0  0  0  0
   -2.9121    0.7208   -2.6305 C   0  0  0  0  0  0  0  0  0  0  0  0
   -3.0396    1.6123   -2.0196 H   0  0  0  0  0  0  0  0  0  0  0  0
   -3.7825    0.2433   -3.6083 N   0  0  0  0  0  0  0  0  0  0  0  0
   -4.6460    0.6988   -3.8996 H   0  0  0  0  0  0  0  0  0  0  0  0
   -3.2843   -0.9182   -4.1772 C   0  0  0  0  0  0  0  0  0  0  0  0
   -3.7782   -1.7545   -5.1784 C   0  0  0  0  0  0  0  0  0  0  0  0
   -4.7205   -1.5281   -5.6652 H   0  0  0  0  0  0  0  0  0  0  0  0
   -3.0404   -2.8888   -5.5472 C   0  0  0  0  0  0  0  0  0  0  0  0
   -3.4120   -3.5476   -6.3267 H   0  0  0  0  0  0  0  0  0  0  0  0
   -1.8207   -3.1725   -4.9133 C   0  0  0  0  0  0  0  0  0  0  0  0
   -1.2507   -4.0506   -5.2029 H   0  0  0  0  0  0  0  0  0  0  0  0
   -1.3313   -2.3225   -3.9116 C   0  0  0  0  0  0  0  0  0  0  0  0
   -0.3859   -2.5344   -3.4213 H   0  0  0  0  0  0  0  0  0  0  0  0
   -2.0745   -1.1940   -3.5521 C   0  0  0  0  0  0  0  0  0  0  0  0
   -0.5460   -0.3366    0.8946 C   0  0  0  0  0  0  0  0  0  0  0  0
    0.5771   -0.0650    1.2992 O   0  0  0  0  0  0  0  0  0  0  0  0
   -1.6381    0.2747    1.4844 N   0  0  0  0  0  0  0  0  0  0  0  0
   -2.5459   -0.0626    1.1807 H   0  0  0  0  0  0  0  0  0  0  0  0
   -1.5482    1.0065    2.7413 C   0  0  0  0  0  0  0  0  0  0  0  0
   -0.8256    1.8252    2.6585 H   0  0  0  0  0  0  0  0  0  0  0  0
   -2.5218    1.4336    2.9997 H   0  0  0  0  0  0  0  0  0  0  0  0
   -1.2337    0.3393    3.5506 H   0  0  0  0  0  0  0  0  0  0  0  0
  1  2  1  0  0  0  0
  2  3  1  0  0  0  0
  2  4  1  0  0  0  0
  2  5  1  0  0  0  0
  5  6  2  0  0  0  0
  5  7  1  0  0  0  0
  7  8  1  0  0  0  0
  7  9  1  0  0  0  0
  9 10  1  0  0  0  0
  9 11  1  0  0  0  0
  9 29  1  0  0  0  0
 11 12  1  0  0  0  0
 11 13  1  0  0  0  0
 11 14  1  0  0  0  0
 14 15  2  0  0  0  0
 14 28  1  0  0  0  0
 15 16  1  0  0  0  0
 15 17  1  0  0  0  0
 17 18  1  0  0  0  0
 17 19  1  0  0  0  0
 19 20  1  0  0  0  0
 19 28  2  0  0  0  0
 20 21  1  0  0  0  0
 20 22  2  0  0  0  0
 22 23  1  0  0  0  0
 22 24  1  0  0  0  0
 24 25  1  0  0  0  0
 24 26  2  0  0  0  0
 26 27  1  0  0  0  0
 26 28  1  0  0  0  0
 29 30  2  0  0  0  0
 29 31  1  0  0  0  0
 31 32  1  0  0  0  0
 31 33  1  0  0  0  0
 33 34  1  0  0  0  0
 33 35  1  0  0  0  0
 33 36  1  0  0  0  0
M  END
$$$$

  -OEChem-03222214083D

 36 37  0     1  0  0  0  0  0999 V2000
   -3.3340   -4.7519    0.9158 H   0  0  0  0  0  0  0  0  0  0  0  0
   -3.3304   -3.9432    0.1796 C   0  0  0  0  0  0  0  0  0  0  0  0
   -4.2683   -3.3888    0.2590 H   0  0  0  0  0  0  0  0  0  0  0  0
   -3.2559   -4.3777   -0.8204 H   0  0  0  0  0  0  0  0  0  0  0  0
   -2.1569   -3.0157    0.4299 C   0  0  0  0  0  0  0  0  0  0  0  0
   -1.4260   -3.1986    1.3866 O   0  0  0  0  0  0  0  0  0  0  0  0
   -1.9183   -1.9722   -0.4378 N   0  0  0  0  0  0  0  0  0  0  0  0
   -2.5047   -1.9255   -1.2710 H   0  0  0  0  0  0  0  0  0  0  0  0
   -0.7284   -1.0983   -0.4097 C   0  0  1  0  0  0  0  0  0  0  0  0
    0.1493   -1.7474   -0.4996 H   0  0  0  0  0  0  0  0  0  0  0  0
   -0.7010   -0.1080   -1.6057 C   0  0  0  0  0  0  0  0  0  0  0  0
   -0.6543    0.9208   -1.2327 H   0  0  0  0  0  0  0  0  0  0  0  0
    0.2194   -0.2775   -2.1741 H   0  0  0  0  0  0  0  0  0  0  0  0
   -1.8736   -0.2223   -2.5564 C   0  0  0  0  0  0  0  0  0  0  0  0
   -2.7685    0.7811   -2.8395 C   0  0  0  0  0  0  0  0  0  0  0  0
   -2.7583    1.7783   -2.4034 H   0  0  0  0  0  0  0  0  0  0  0  0
   -3.6784    0.2856   -3.7711 N   0  0  0  0  0  0  0  0  0  0  0  0
   -4.4461    0.8148   -4.1818 H   0  0  0  0  0  0  0  0  0  0  0  0
   -3.3563   -1.0164   -4.1183 C   0  0  0  0  0  0  0  0  0  0  0  0
   -3.9473   -1.9170   -5.0044 C   0  0  0  0  0  0  0  0  0  0  0  0
   -4.8299   -1.6319   -5.5667 H   0  0  0  0  0  0  0  0  0  0  0  0
   -3.3834   -3.1911   -5.1612 C   0  0  0  0  0  0  0  0  0  0  0  0
   -3.8324   -3.9020   -5.8489 H   0  0  0  0  0  0  0  0  0  0  0  0
   -2.2343   -3.5462   -4.4383 C   0  0  0  0  0  0  0  0  0  0  0  0
   -1.7947   -4.5309   -4.5692 H   0  0  0  0  0  0  0  0  0  0  0  0
   -1.6462   -2.6316   -3.5541 C   0  0  0  0  0  0  0  0  0  0  0  0
   -0.7518   -2.8999   -2.9996 H   0  0  0  0  0  0  0  0  0  0  0  0
   -2.2238   -1.3672   -3.3934 C   0  0  0  0  0  0  0  0  0  0  0  0
   -0.5522   -0.3221    0.9130 C   0  0  0  0  0  0  0  0  0  0  0  0
    0.5724   -0.0428    1.3083 O   0  0  0  0  0  0  0  0  0  0  0  0
   -1.6438    0.2989    1.4938 N   0  0  0  0  0  0  0  0  0  0  0  0
   -2.5531   -0.0338    1.1885 H   0  0  0  0  0  0  0  0  0  0  0  0
   -1.5542    1.0439    2.7432 C   0  0  0  0  0  0  0  0  0  0  0  0
   -0.8236    1.8551    2.6564 H   0  0  0  0  0  0  0  0  0  0  0  0
   -2.5250    1.4825    2.9922 H   0  0  0  0  0  0  0  0  0  0  0  0
   -1.2504    0.3821    3.5611 H   0  0  0  0  0  0  0  0  0  0  0  0
  1  2  1  0  0  0  0
  2  3  1  0  0  0  0
  2  4  1  0  0  0  0
  2  5  1  0  0  0  0
  5  6  2  0  0  0  0
  5  7  1  0  0  0  0
  7  8  1  0  0  0  0
  7  9  1  0  0  0  0
  9 10  1  0  0  0  0
  9 11  1  0  0  0  0
  9 29  1  0  0  0  0
 11 12  1  0  0  0  0
 11 13  1  0  0  0  0
 11 14  1  0  0  0  0
 14 15  2  0  0  0  0
 14 28  1  0  0  0  0
 15 16  1  0  0  0  0
 15 17  1  0  0  0  0
 17 18  1  0  0  0  0
 17 19  1  0  0  0  0
 19 20  1  0  0  0  0
 19 28  2  0  0  0  0
 20 21  1  0  0  0  0
 20 22  2  0  0  0  0
 22 23  1  0  0  0  0
 22 24  1  0  0  0  0
 24 25  1  0  0  0  0
 24 26  2  0  0  0  0
 26 27  1  0  0  0  0
 26 28  1  0  0  0  0
 29 30  2  0  0  0  0
 29 31  1  0  0  0  0
 31 32  1  0  0  0  0
 31 33  1  0  0  0  0
 33 34  1  0  0  0  0
 33 35  1  0  0  0  0
 33 36  1  0  0  0  0
M  END
$$$$

  -OEChem-03222214083D

 36 37  0     1  0  0  0  0  0999 V2000
   -3.3484   -4.6991    1.2421 H   0  0  0  0  0  0  0  0  0  0  0  0
   -3.3534   -3.9374    0.4574 C   0  0  0  0  0  0  0  0  0  0  0  0
   -4.2748   -3.3552    0.5359 H   0  0  0  0  0  0  0  0  0  0  0  0
   -3.3266   -4.4340   -0.5157 H   0  0  0  0  0  0  0  0  0  0  0  0
   -2.1499   -3.0268    0.6071 C   0  0  0  0  0  0  0  0  0  0  0  0
   -1.3621   -3.1990    1.5194 O   0  0  0  0  0  0  0  0  0  0  0  0
   -1.9478   -2.0106   -0.3014 N   0  0  0  0  0  0  0  0  0  0  0  0
   -2.5930   -1.9599   -1.0894 H   0  0  0  0  0  0  0  0  0  0  0  0
   -0.7651   -1.1301   -0.3449 C   0  0  1  0  0  0  0  0  0  0  0  0
    0.1126   -1.7784   -0.4418 H   0  0  0  0  0  0  0  0  0  0  0  0
   -0.7762   -0.1779   -1.5724 C   0  0  0  0  0  0  0  0  0  0  0  0
   -0.7081    0.8618   -1.2340 H   0  0  0  0  0  0  0  0  0  0  0  0
    0.1290   -0.3752   -2.1554 H   0  0  0  0  0  0  0  0  0  0  0  0
   -1.9645   -0.3034   -2.5064 C   0  0  0  0  0  0  0  0  0  0  0  0
   -2.6643    0.7680   -3.0084 C   0  0  0  0  0  0  0  0  0  0  0  0
   -2.5003    1.8096   -2.7387 H   0  0  0  0  0  0  0  0  0  0  0  0
   -3.6121    0.2808   -3.9042 N   0  0  0  0  0  0  0  0  0  0  0  0
   -4.2662    0.8526   -4.4362 H   0  0  0  0  0  0  0  0  0  0  0  0
   -3.4700   -1.0868   -4.0584 C   0  0  0  0  0  0  0  0  0  0  0  0
   -4.1421   -1.9977   -4.8730 C   0  0  0  0  0  0  0  0  0  0  0  0
   -4.9550   -1.6660   -5.5098 H   0  0  0  0  0  0  0  0  0  0  0  0
   -3.7436   -3.3410   -4.8685 C   0  0  0  0  0  0  0  0  0  0  0  0
   -4.2549   -4.0606   -5.5014 H   0  0  0  0  0  0  0  0  0  0  0  0
   -2.6711   -3.7525   -4.0638 C   0  0  0  0  0  0  0  0  0  0  0  0
   -2.3494   -4.7898   -4.0795 H   0  0  0  0  0  0  0  0  0  0  0  0
   -2.0037   -2.8268   -3.2502 C   0  0  0  0  0  0  0  0  0  0  0  0
   -1.1592   -3.1435   -2.6456 H   0  0  0  0  0  0  0  0  0  0  0  0
   -2.4281   -1.4913   -3.2310 C   0  0  0  0  0  0  0  0  0  0  0  0
   -0.5477   -0.3101    0.9450 C   0  0  0  0  0  0  0  0  0  0  0  0
    0.5881   -0.0084    1.2880 O   0  0  0  0  0  0  0  0  0  0  0  0
   -1.6209    0.3238    1.5456 N   0  0  0  0  0  0  0  0  0  0  0  0
   -2.5408   -0.0135    1.2807 H   0  0  0  0  0  0  0  0  0  0  0  0
   -1.4890    1.1327    2.7505 C   0  0  0  0  0  0  0  0  0  0  0  0
   -0.7860    1.9563    2.5854 H   0  0  0  0  0  0  0  0  0  0  0  0
   -2.4578    1.5590    3.0277 H   0  0  0  0  0  0  0  0  0  0  0  0
   -1.1262    0.5211    3.5835 H   0  0  0  0  0  0  0  0  0  0  0  0
  1  2  1  0  0  0  0
  2  3  1  0  0  0  0
  2  4  1  0  0  0  0
  2  5  1  0  0  0  0
  5  6  2  0  0  0  0
  5  7  1  0  0  0  0
  7  8  1  0  0  0  0
  7  9  1  0  0  0  0
  9 10  1  0  0  0  0
  9 11  1  0  0  0  0
  9 29  1  0  0  0  0
 11 12  1  0  0  0  0
 11 13  1  0  0  0  0
 11 14  1  0  0  0  0
 14 15  2  0  0  0  0
 14 28  1  0  0  0  0
 15 16  1  0  0  0  0
 15 17  1  0  0  0  0
 17 18  1  0  0  0  0
 17 19  1  0  0  0  0
 19 20  1  0  0  0  0
 19 28  2  0  0  0  0
 20 21  1  0  0  0  0
 20 22  2  0  0  0  0
 22 23  1  0  0  0  0
 22 24  1  0  0  0  0
 24 25  1  0  0  0  0
 24 26  2  0  0  0  0
 26 27  1  0  0  0  0
 26 28  1  0  0  0  0
 29 30  2  0  0  0  0
 29 31  1  0  0  0  0
 31 32  1  0  0  0  0
 31 33  1  0  0  0  0
 33 34  1  0  0  0  0
 33 35  1  0  0  0  0
 33 36  1  0  0  0  0
M  END
$$$$

  -OEChem-03222214083D

 36 37  0     1  0  0  0  0  0999 V2000
   -3.3179   -4.6011    1.6012 H   0  0  0  0  0  0  0  0  0  0  0  0
   -3.3268   -3.9185    0.7465 C   0  0  0  0  0  0  0  0  0  0  0  0
   -4.2396   -3.3191    0.7847 H   0  0  0  0  0  0  0  0  0  0  0  0
   -3.3238   -4.5065   -0.1746 H   0  0  0  0  0  0  0  0  0  0  0  0
   -2.1092   -3.0147    0.7877 C   0  0  0  0  0  0  0  0  0  0  0  0
   -1.2631   -3.1691    1.6494 O   0  0  0  0  0  0  0  0  0  0  0  0
   -1.9592   -2.0263   -0.1617 N   0  0  0  0  0  0  0  0  0  0  0  0
   -2.6674   -1.9713   -0.8929 H   0  0  0  0  0  0  0  0  0  0  0  0
   -0.7912   -1.1376   -0.2882 C   0  0  1  0  0  0  0  0  0  0  0  0
    0.0879   -1.7813   -0.4030 H   0  0  0  0  0  0  0  0  0  0  0  0
   -0.8592   -0.2188   -1.5395 C   0  0  0  0  0  0  0  0  0  0  0  0
   -0.7718    0.8285   -1.2300 H   0  0  0  0  0  0  0  0  0  0  0  0
    0.0256   -0.4369   -2.1460 H   0  0  0  0  0  0  0  0  0  0  0  0
   -2.0691   -0.3457   -2.4506 C   0  0  0  0  0  0  0  0  0  0  0  0
   -2.5516    0.7290   -3.1615 C   0  0  0  0  0  0  0  0  0  0  0  0
   -2.2156    1.7578   -3.0466 H   0  0  0  0  0  0  0  0  0  0  0  0
   -3.5503    0.2792   -4.0170 N   0  0  0  0  0  0  0  0  0  0  0  0
   -4.0845    0.8639   -4.6576 H   0  0  0  0  0  0  0  0  0  0  0  0
   -3.6167   -1.0996   -3.9830 C   0  0  0  0  0  0  0  0  0  0  0  0
   -4.3928   -1.9863   -4.7281 C   0  0  0  0  0  0  0  0  0  0  0  0
   -5.1295   -1.6120   -5.4306 H   0  0  0  0  0  0  0  0  0  0  0  0
   -4.1904   -3.3630   -4.5760 C   0  0  0  0  0  0  0  0  0  0  0  0
   -4.7847   -4.0665   -5.1519 H   0  0  0  0  0  0  0  0  0  0  0  0
   -3.1947   -3.8301   -3.7079 C   0  0  0  0  0  0  0  0  0  0  0  0
   -3.0107   -4.8971   -3.6219 H   0  0  0  0  0  0  0  0  0  0  0  0
   -2.4219   -2.9248   -2.9674 C   0  0  0  0  0  0  0  0  0  0  0  0
   -1.6225   -3.3023   -2.3381 H   0  0  0  0  0  0  0  0  0  0  0  0
   -2.6692   -1.5454   -3.0653 C   0  0  0  0  0  0  0  0  0  0  0  0
   -0.5273   -0.2750    0.9649 C   0  0  0  0  0  0  0  0  0  0  0  0
    0.6190    0.0456    1.2511 O   0  0  0  0  0  0  0  0  0  0  0  0
   -1.5802    0.3663    1.5930 N   0  0  0  0  0  0  0  0  0  0  0  0
   -2.5098    0.0284    1.3650 H   0  0  0  0  0  0  0  0  0  0  0  0
   -1.4065    1.2131    2.7660 C   0  0  0  0  0  0  0  0  0  0  0  0
   -0.7176    2.0359    2.5478 H   0  0  0  0  0  0  0  0  0  0  0  0
   -2.3668    1.6411    3.0691 H   0  0  0  0  0  0  0  0  0  0  0  0
   -1.0059    0.6296    3.6017 H   0  0  0  0  0  0  0  0  0  0  0  0
  1  2  1  0  0  0  0
  2  3  1  0  0  0  0
  2  4  1  0  0  0  0
  2  5  1  0  0  0  0
  5  6  2  0  0  0  0
  5  7  1  0  0  0  0
  7  8  1  0  0  0  0
  7  9  1  0  0  0  0
  9 10  1  0  0  0  0
  9 11  1  0  0  0  0
  9 29  1  0  0  0  0
 11 12  1  0  0  0  0
 11 13  1  0  0  0  0
 11 14  1  0  0  0  0
 14 15  2  0  0  0  0
 14 28  1  0  0  0  0
 15 16  1  0  0  0  0
 15 17  1  0  0  0  0
 17 18  1  0  0  0  0
 17 19  1  0  0  0  0
 19 20  1  0  0  0  0
 19 28  2  0  0  0  0
 20 21  1  0  0  0  0
 20 22  2  0  0  0  0
 22 23  1  0  0  0  0
 22 24  1  0  0  0  0
 24 25  1  0  0  0  0
 24 26  2  0  0  0  0
 26 27  1  0  0  0  0
 26 28  1  0  0  0  0
 29 30  2  0  0  0  0
 29 31  1  0  0  0  0
 31 32  1  0  0  0  0
 31 33  1  0  0  0  0
 33 34  1  0  0  0  0
 33 35  1  0  0  0  0
 33 36  1  0  0  0  0
M  END
$$$$

  -OEChem-03222214083D

 36 37  0     1  0  0  0  0  0999 V2000
   -3.1973   -4.5090    1.9108 H   0  0  0  0  0  0  0  0  0  0  0  0
   -3.2271   -3.9075    0.9980 C   0  0  0  0  0  0  0  0  0  0  0  0
   -4.1391   -3.3058    1.0037 H   0  0  0  0  0  0  0  0  0  0  0  0
   -3.2468   -4.5774    0.1350 H   0  0  0  0  0  0  0  0  0  0  0  0
   -2.0076   -3.0075    0.9268 C   0  0  0  0  0  0  0  0  0  0  0  0
   -1.0959   -3.1518    1.7206 O   0  0  0  0  0  0  0  0  0  0  0  0
   -1.9321   -2.0325   -0.0458 N   0  0  0  0  0  0  0  0  0  0  0  0
   -2.7127   -1.9575   -0.6966 H   0  0  0  0  0  0  0  0  0  0  0  0
   -0.7956   -1.1243   -0.2510 C   0  0  1  0  0  0  0  0  0  0  0  0
    0.0884   -1.7542   -0.3998 H   0  0  0  0  0  0  0  0  0  0  0  0
   -0.9391   -0.2279   -1.5120 C   0  0  0  0  0  0  0  0  0  0  0  0
   -0.8534    0.8227   -1.2123 H   0  0  0  0  0  0  0  0  0  0  0  0
   -0.0695   -0.4373   -2.1431 H   0  0  0  0  0  0  0  0  0  0  0  0
   -2.1686   -0.3484   -2.4057 C   0  0  0  0  0  0  0  0  0  0  0  0
   -2.4256    0.6624   -3.3055 C   0  0  0  0  0  0  0  0  0  0  0  0
   -1.9058    1.6182   -3.3341 H   0  0  0  0  0  0  0  0  0  0  0  0
   -3.4875    0.2881   -4.1156 N   0  0  0  0  0  0  0  0  0  0  0  0
   -3.8985    0.8599   -4.8515 H   0  0  0  0  0  0  0  0  0  0  0  0
   -3.7962   -1.0360   -3.8944 C   0  0  0  0  0  0  0  0  0  0  0  0
   -4.7067   -1.8523   -4.5646 C   0  0  0  0  0  0  0  0  0  0  0  0
   -5.3612   -1.4374   -5.3236 H   0  0  0  0  0  0  0  0  0  0  0  0
   -4.7384   -3.2186   -4.2706 C   0  0  0  0  0  0  0  0  0  0  0  0
   -5.4371   -3.8712   -4.7863 H   0  0  0  0  0  0  0  0  0  0  0  0
   -3.8279   -3.7488   -3.3499 C   0  0  0  0  0  0  0  0  0  0  0  0
   -3.8107   -4.8191   -3.1657 H   0  0  0  0  0  0  0  0  0  0  0  0
   -2.9186   -2.9102   -2.6903 C   0  0  0  0  0  0  0  0  0  0  0  0
   -2.1745   -3.3740   -2.0542 H   0  0  0  0  0  0  0  0  0  0  0  0
   -2.9440   -1.5171   -2.8992 C   0  0  0  0  0  0  0  0  0  0  0  0
   -0.4833   -0.2360    0.9731 C   0  0  0  0  0  0  0  0  0  0  0  0
    0.6697    0.1119    1.1930 O   0  0  0  0  0  0  0  0  0  0  0  0
   -1.5135    0.3931    1.6487 N   0  0  0  0  0  0  0  0  0  0  0  0
   -2.4496    0.0465    1.4666 H   0  0  0  0  0  0  0  0  0  0  0  0
   -1.2951    1.2737    2.7884 C   0  0  0  0  0  0  0  0  0  0  0  0
   -0.6954    2.1409    2.4928 H   0  0  0  0  0  0  0  0  0  0  0  0
   -2.2525    1.6328    3.1775 H   0  0  0  0  0  0  0  0  0  0  0  0
   -0.7725    0.7397    3.5891 H   0  0  0  0  0  0  0  0  0  0  0  0
  1  2  1  0  0  0  0
  2  3  1  0  0  0  0
  2  4  1  0  0  0  0
  2  5  1  0  0  0  0
  5  6  2  0  0  0  0
  5  7  1  0  0  0  0
  7  8  1  0  0  0  0
  7  9  1  0  0  0  0
  9 10  1  0  0  0  0
  9 11  1  0  0  0  0
  9 29  1  0  0  0  0
 11 12  1  0  0  0  0
 11 13  1  0  0  0  0
 11 14  1  0  0  0  0
 14 15  2  0  0  0  0
 14 28  1  0  0  0  0
 15 16  1  0  0  0  0
 15 17  1  0  0  0  0
 17 18  1  0  0  0  0
 17 19  1  0  0  0  0
 19 20  1  0  0  0  0
 19 28  2  0  0  0  0
 20 21  1  0  0  0  0
 20 22  2  0  0  0  0
 22 23  1  0  0  0  0
 22 24  1  0  0  0  0
 24 25  1  0  0  0  0
 24 26  2  0  0  0  0
 26 27  1  0  0  0  0
 26 28  1  0  0  0  0
 29 30  2  0  0  0  0
 29 31  1  0  0  0  0
 31 32  1  0  0  0  0
 31 33  1  0  0  0  0
 33 34  1  0  0  0  0
 33 35  1  0  0  0  0
 33 36  1  0  0  0  0
M  END
$$$$

  -OEChem-03222214083D

 36 37  0     1  0  0  0  0  0999 V2000
   -2.0980   -5.2221    1.2074 H   0  0  0  0  0  0  0  0  0  0  0  0
   -2.3868   -4.4277    0.5133 C   0  0  0  0  0  0  0  0  0  0  0  0
   -3.3993   -4.0978    0.7573 H   0  0  0  0  0  0  0  0  0  0  0  0
   -2.3762   -4.8290   -0.5030 H   0  0  0  0  0  0  0  0  0  0  0  0
   -1.4209   -3.2627    0.6240 C   0  0  0  0  0  0  0  0  0  0  0  0
   -0.6049   -3.2341    1.5268 O   0  0  0  0  0  0  0  0  0  0  0  0
   -1.4793   -2.2367   -0.2970 N   0  0  0  0  0  0  0  0  0  0  0  0
   -2.1225   -2.3489   -1.0790 H   0  0  0  0  0  0  0  0  0  0  0  0
   -0.5492   -1.1046   -0.3569 C   0  0  1  0  0  0  0  0  0  0  0  0
    0.4637   -1.5084   -0.4635 H   0  0  0  0  0  0  0  0  0  0  0  0
   -0.8262   -0.1818   -1.5693 C   0  0  0  0  0  0  0  0  0  0  0  0
   -0.6844    0.8586   -1.2543 H   0  0  0  0  0  0  0  0  0  0  0  0
   -0.0284   -0.3911   -2.2897 H   0  0  0  0  0  0  0  0  0  0  0  0
   -2.1332   -0.2398   -2.3606 C   0  0  0  0  0  0  0  0  0  0  0  0
   -2.2211    0.6366   -3.4202 C   0  0  0  0  0  0  0  0  0  0  0  0
   -1.4079    1.2646   -3.7798 H   0  0  0  0  0  0  0  0  0  0  0  0
   -3.4810    0.5410   -3.9847 N   0  0  0  0  0  0  0  0  0  0  0  0
   -3.8054    1.0606   -4.7984 H   0  0  0  0  0  0  0  0  0  0  0  0
   -4.2757   -0.2716   -3.2090 C   0  0  0  0  0  0  0  0  0  0  0  0
   -5.6291   -0.5575   -3.3772 C   0  0  0  0  0  0  0  0  0  0  0  0
   -6.1655   -0.1858   -4.2433 H   0  0  0  0  0  0  0  0  0  0  0  0
   -6.2901   -1.3052   -2.4012 C   0  0  0  0  0  0  0  0  0  0  0  0
   -7.3456   -1.5369   -2.5122 H   0  0  0  0  0  0  0  0  0  0  0  0
   -5.5952   -1.7128   -1.2591 C   0  0  0  0  0  0  0  0  0  0  0  0
   -6.1208   -2.2498   -0.4749 H   0  0  0  0  0  0  0  0  0  0  0  0
   -4.2344   -1.4104   -1.1096 C   0  0  0  0  0  0  0  0  0  0  0  0
   -3.7848   -1.6870   -0.1680 H   0  0  0  0  0  0  0  0  0  0  0  0
   -3.5228   -0.7336   -2.1241 C   0  0  0  0  0  0  0  0  0  0  0  0
   -0.5347   -0.2495    0.9302 C   0  0  0  0  0  0  0  0  0  0  0  0
    0.5018    0.2971    1.2854 O   0  0  0  0  0  0  0  0  0  0  0  0
   -1.7252    0.1111    1.5356 N   0  0  0  0  0  0  0  0  0  0  0  0
   -2.5701   -0.3261    1.1845 H   0  0  0  0  0  0  0  0  0  0  0  0
   -1.8050    0.9945    2.6908 C   0  0  0  0  0  0  0  0  0  0  0  0
   -1.4389    1.9939    2.4340 H   0  0  0  0  0  0  0  0  0  0  0  0
   -2.8419    1.0815    3.0289 H   0  0  0  0  0  0  0  0  0  0  0  0
   -1.2039    0.5994    3.5166 H   0  0  0  0  0  0  0  0  0  0  0  0
  1  2  1  0  0  0  0
  2  3  1  0  0  0  0
  2  4  1  0  0  0  0
  2  5  1  0  0  0  0
  5  6  2  0  0  0  0
  5  7  1  0  0  0  0
  7  8  1  0  0  0  0
  7  9  1  0  0  0  0
  9 10  1  0  0  0  0
  9 11  1  0  0  0  0
  9 29  1  0  0  0  0
 11 12  1  0  0  0  0
 11 13  1  0  0  0  0
 11 14  1  0  0  0  0
 14 15  2  0  0  0  0
 14 28  1  0  0  0  0
 15 16  1  0  0  0  0
 15 17  1  0  0  0  0
 17 18  1  0  0  0  0
 17 19  1  0  0  0  0
 19 20  1  0  0  0  0
 19 28  2  0  0  0  0
 20 21  1  0  0  0  0
 20 22  2  0  0  0  0
 22 23  1  0  0  0  0
 22 24  1  0  0  0  0
 24 25  1  0  0  0  0
 24 26  2  0  0  0  0
 26 27  1  0  0  0  0
 26 28  1  0  0  0  0
 29 30  2  0  0  0  0
 29 31  1  0  0  0  0
 31 32  1  0  0  0  0
 31 33  1  0  0  0  0
 33 34  1  0  0  0  0
 33 35  1  0  0  0  0
 33 36  1  0  0  0  0
M  END
$$$$

  -OEChem-03222214083D

 36 37  0     1  0  0  0  0  0999 V2000
   -2.4549   -5.1443    1.1548 H   0  0  0  0  0  0  0  0  0  0  0  0
   -2.6387   -4.3612    0.4135 C   0  0  0  0  0  0  0  0  0  0  0  0
   -3.6335   -3.9424    0.5821 H   0  0  0  0  0  0  0  0  0  0  0  0
   -2.6023   -4.8057   -0.5843 H   0  0  0  0  0  0  0  0  0  0  0  0
   -1.5894   -3.2727    0.5346 C   0  0  0  0  0  0  0  0  0  0  0  0
   -0.7469   -3.3318    1.4116 O   0  0  0  0  0  0  0  0  0  0  0  0
   -1.6074   -2.2072   -0.3401 N   0  0  0  0  0  0  0  0  0  0  0  0
   -2.3048   -2.2240   -1.0830 H   0  0  0  0  0  0  0  0  0  0  0  0
   -0.6126   -1.1254   -0.3750 C   0  0  1  0  0  0  0  0  0  0  0  0
    0.3676   -1.5953   -0.5132 H   0  0  0  0  0  0  0  0  0  0  0  0
   -0.8404   -0.1709   -1.5742 C   0  0  0  0  0  0  0  0  0  0  0  0
   -0.6806    0.8593   -1.2363 H   0  0  0  0  0  0  0  0  0  0  0  0
   -0.0475   -0.3809   -2.2993 H   0  0  0  0  0  0  0  0  0  0  0  0
   -2.1633   -0.1939   -2.3335 C   0  0  0  0  0  0  0  0  0  0  0  0
   -2.2102    0.4173   -3.5663 C   0  0  0  0  0  0  0  0  0  0  0  0
   -1.3524    0.8334   -4.0913 H   0  0  0  0  0  0  0  0  0  0  0  0
   -3.5154    0.3834   -4.0327 N   0  0  0  0  0  0  0  0  0  0  0  0
   -3.8336    0.7565   -4.9254 H   0  0  0  0  0  0  0  0  0  0  0  0
   -4.3477   -0.1295   -3.0607 C   0  0  0  0  0  0  0  0  0  0  0  0
   -5.7342   -0.2726   -3.0794 C   0  0  0  0  0  0  0  0  0  0  0  0
   -6.3005   -0.0125   -3.9670 H   0  0  0  0  0  0  0  0  0  0  0  0
   -6.3852   -0.7355   -1.9325 C   0  0  0  0  0  0  0  0  0  0  0  0
   -7.4654   -0.8496   -1.9277 H   0  0  0  0  0  0  0  0  0  0  0  0
   -5.6421   -1.0198   -0.7813 C   0  0  0  0  0  0  0  0  0  0  0  0
   -6.1524   -1.3460    0.1204 H   0  0  0  0  0  0  0  0  0  0  0  0
   -4.2483   -0.8683   -0.7822 C   0  0  0  0  0  0  0  0  0  0  0  0
   -3.7218   -1.0563    0.1426 H   0  0  0  0  0  0  0  0  0  0  0  0
   -3.5722   -0.4600   -1.9476 C   0  0  0  0  0  0  0  0  0  0  0  0
   -0.4944   -0.3072    0.9312 C   0  0  0  0  0  0  0  0  0  0  0  0
    0.5916    0.1578    1.2533 O   0  0  0  0  0  0  0  0  0  0  0  0
   -1.6261    0.1206    1.6013 N   0  0  0  0  0  0  0  0  0  0  0  0
   -2.5100   -0.2784    1.3094 H   0  0  0  0  0  0  0  0  0  0  0  0
   -1.5843    0.9574    2.7930 C   0  0  0  0  0  0  0  0  0  0  0  0
   -1.1085    1.9181    2.5704 H   0  0  0  0  0  0  0  0  0  0  0  0
   -2.5986    1.1508    3.1546 H   0  0  0  0  0  0  0  0  0  0  0  0
   -1.0207    0.4607    3.5899 H   0  0  0  0  0  0  0  0  0  0  0  0
  1  2  1  0  0  0  0
  2  3  1  0  0  0  0
  2  4  1  0  0  0  0
  2  5  1  0  0  0  0
  5  6  2  0  0  0  0
  5  7  1  0  0  0  0
  7  8  1  0  0  0  0
  7  9  1  0  0  0  0
  9 10  1  0  0  0  0
  9 11  1  0  0  0  0
  9 29  1  0  0  0  0
 11 12  1  0  0  0  0
 11 13  1  0  0  0  0
 11 14  1  0  0  0  0
 14 15  2  0  0  0  0
 14 28  1  0  0  0  0
 15 16  1  0  0  0  0
 15 17  1  0  0  0  0
 17 18  1  0  0  0  0
 17 19  1  0  0  0  0
 19 20  1  0  0  0  0
 19 28  2  0  0  0  0
 20 21  1  0  0  0  0
 20 22  2  0  0  0  0
 22 23  1  0  0  0  0
 22 24  1  0  0  0  0
 24 25  1  0  0  0  0
 24 26  2  0  0  0  0
 26 27  1  0  0  0  0
 26 28  1  0  0  0  0
 29 30  2  0  0  0  0
 29 31  1  0  0  0  0
 31 32  1  0  0  0  0
 31 33  1  0  0  0  0
 33 34  1  0  0  0  0
 33 35  1  0  0  0  0
 33 36  1  0  0  0  0
M  END
$$$$

  -OEChem-03222214083D

 36 37  0     1  0  0  0  0  0999 V2000
   -2.7125   -5.0448    1.0824 H   0  0  0  0  0  0  0  0  0  0  0  0
   -2.8664   -4.2330    0.3659 C   0  0  0  0  0  0  0  0  0  0  0  0
   -3.8350   -3.7673    0.5630 H   0  0  0  0  0  0  0  0  0  0  0  0
   -2.8699   -4.6512   -0.6436 H   0  0  0  0  0  0  0  0  0  0  0  0
   -1.7593   -3.2044    0.4968 C   0  0  0  0  0  0  0  0  0  0  0  0
   -0.9021   -3.3322    1.3523 O   0  0  0  0  0  0  0  0  0  0  0  0
   -1.7467   -2.1048   -0.3333 N   0  0  0  0  0  0  0  0  0  0  0  0
   -2.4740   -2.0476   -1.0454 H   0  0  0  0  0  0  0  0  0  0  0  0
   -0.6975   -1.0715   -0.3575 C   0  0  1  0  0  0  0  0  0  0  0  0
    0.2457   -1.6054   -0.5198 H   0  0  0  0  0  0  0  0  0  0  0  0
   -0.8617   -0.1070   -1.5594 C   0  0  0  0  0  0  0  0  0  0  0  0
   -0.6827    0.9162   -1.2116 H   0  0  0  0  0  0  0  0  0  0  0  0
   -0.0642   -0.3333   -2.2744 H   0  0  0  0  0  0  0  0  0  0  0  0
   -2.1853   -0.0990   -2.3122 C   0  0  0  0  0  0  0  0  0  0  0  0
   -2.2147    0.2051   -3.6539 C   0  0  0  0  0  0  0  0  0  0  0  0
   -1.3405    0.3973   -4.2731 H   0  0  0  0  0  0  0  0  0  0  0  0
   -3.5381    0.2104   -4.0752 N   0  0  0  0  0  0  0  0  0  0  0  0
   -3.8547    0.4135   -5.0219 H   0  0  0  0  0  0  0  0  0  0  0  0
   -4.3789   -0.0125   -3.0029 C   0  0  0  0  0  0  0  0  0  0  0  0
   -5.7717   -0.0489   -2.9468 C   0  0  0  0  0  0  0  0  0  0  0  0
   -6.3600    0.0835   -3.8482 H   0  0  0  0  0  0  0  0  0  0  0  0
   -6.3990   -0.2448   -1.7114 C   0  0  0  0  0  0  0  0  0  0  0  0
   -7.4832   -0.2723   -1.6498 H   0  0  0  0  0  0  0  0  0  0  0  0
   -5.6255   -0.3858   -0.5522 C   0  0  0  0  0  0  0  0  0  0  0  0
   -6.1131   -0.5166    0.4095 H   0  0  0  0  0  0  0  0  0  0  0  0
   -4.2267   -0.3455   -0.6279 C   0  0  0  0  0  0  0  0  0  0  0  0
   -3.6516   -0.4344    0.2815 H   0  0  0  0  0  0  0  0  0  0  0  0
   -3.5893   -0.1818   -1.8665 C   0  0  0  0  0  0  0  0  0  0  0  0
   -0.4722   -0.2945    0.9603 C   0  0  0  0  0  0  0  0  0  0  0  0
    0.6502    0.1224    1.2175 O   0  0  0  0  0  0  0  0  0  0  0  0
   -1.5373    0.1833    1.7016 N   0  0  0  0  0  0  0  0  0  0  0  0
   -2.4285   -0.2690    1.5396 H   0  0  0  0  0  0  0  0  0  0  0  0
   -1.3666    0.9670    2.9185 C   0  0  0  0  0  0  0  0  0  0  0  0
   -0.7867    1.8732    2.7140 H   0  0  0  0  0  0  0  0  0  0  0  0
   -2.3416    1.2665    3.3143 H   0  0  0  0  0  0  0  0  0  0  0  0
   -0.8454    0.3796    3.6817 H   0  0  0  0  0  0  0  0  0  0  0  0
  1  2  1  0  0  0  0
  2  3  1  0  0  0  0
  2  4  1  0  0  0  0
  2  5  1  0  0  0  0
  5  6  2  0  0  0  0
  5  7  1  0  0  0  0
  7  8  1  0  0  0  0
  7  9  1  0  0  0  0
  9 10  1  0  0  0  0
  9 11  1  0  0  0  0
  9 29  1  0  0  0  0
 11 12  1  0  0  0  0
 11 13  1  0  0  0  0
 11 14  1  0  0  0  0
 14 15  2  0  0  0  0
 14 28  1  0  0  0  0
 15 16  1  0  0  0  0
 15 17  1  0  0  0  0
 17 18  1  0  0  0  0
 17 19  1  0  0  0  0
 19 20  1  0  0  0  0
 19 28  2  0  0  0  0
 20 21  1  0  0  0  0
 20 22  2  0  0  0  0
 22 23  1  0  0  0  0
 22 24  1  0  0  0  0
 24 25  1  0  0  0  0
 24 26  2  0  0  0  0
 26 27  1  0  0  0  0
 26 28  1  0  0  0  0
 29 30  2  0  0  0  0
 29 31  1  0  0  0  0
 31 32  1  0  0  0  0
 31 33  1  0  0  0  0
 33 34  1  0  0  0  0
 33 35  1  0  0  0  0
 33 36  1  0  0  0  0
M  END
$$$$

  -OEChem-03222214083D

 36 37  0     1  0  0  0  0  0999 V2000
   -2.9088   -4.8747    1.0904 H   0  0  0  0  0  0  0  0  0  0  0  0
   -3.0126   -4.0789    0.3474 C   0  0  0  0  0  0  0  0  0  0  0  0
   -3.9566   -3.5562    0.5202 H   0  0  0  0  0  0  0  0  0  0  0  0
   -3.0297   -4.5266   -0.6492 H   0  0  0  0  0  0  0  0  0  0  0  0
   -1.8532   -3.1073    0.4587 C   0  0  0  0  0  0  0  0  0  0  0  0
   -0.9703   -3.2959    1.2761 O   0  0  0  0  0  0  0  0  0  0  0  0
   -1.8213   -1.9881   -0.3433 N   0  0  0  0  0  0  0  0  0  0  0  0
   -2.5812   -1.8687   -1.0126 H   0  0  0  0  0  0  0  0  0  0  0  0
   -0.7379   -0.9890   -0.3677 C   0  0  1  0  0  0  0  0  0  0  0  0
    0.1789   -1.5640   -0.5411 H   0  0  0  0  0  0  0  0  0  0  0  0
   -0.8593   -0.0346   -1.5824 C   0  0  0  0  0  0  0  0  0  0  0  0
   -0.6648    0.9889   -1.2447 H   0  0  0  0  0  0  0  0  0  0  0  0
   -0.0649   -0.2865   -2.2924 H   0  0  0  0  0  0  0  0  0  0  0  0
   -2.1890   -0.0300   -2.3199 C   0  0  0  0  0  0  0  0  0  0  0  0
   -2.2518   -0.0624   -3.6937 C   0  0  0  0  0  0  0  0  0  0  0  0
   -1.3941   -0.1120   -4.3617 H   0  0  0  0  0  0  0  0  0  0  0  0
   -3.5902   -0.0449   -4.0687 N   0  0  0  0  0  0  0  0  0  0  0  0
   -3.9336   -0.0521   -5.0277 H   0  0  0  0  0  0  0  0  0  0  0  0
   -4.3981    0.0518   -2.9519 C   0  0  0  0  0  0  0  0  0  0  0  0
   -5.7862    0.1228   -2.8382 C   0  0  0  0  0  0  0  0  0  0  0  0
   -6.4107    0.0845   -3.7239 H   0  0  0  0  0  0  0  0  0  0  0  0
   -6.3609    0.2533   -1.5683 C   0  0  0  0  0  0  0  0  0  0  0  0
   -7.4405    0.3125   -1.4630 H   0  0  0  0  0  0  0  0  0  0  0  0
   -5.5393    0.3260   -0.4355 C   0  0  0  0  0  0  0  0  0  0  0  0
   -5.9842    0.4486    0.5475 H   0  0  0  0  0  0  0  0  0  0  0  0
   -4.1459    0.2553   -0.5687 C   0  0  0  0  0  0  0  0  0  0  0  0
   -3.5224    0.3418    0.3074 H   0  0  0  0  0  0  0  0  0  0  0  0
   -3.5697    0.0938   -1.8334 C   0  0  0  0  0  0  0  0  0  0  0  0
   -0.4493   -0.2491    0.9588 C   0  0  0  0  0  0  0  0  0  0  0  0
    0.6912    0.1350    1.1854 O   0  0  0  0  0  0  0  0  0  0  0  0
   -1.4762    0.2471    1.7394 N   0  0  0  0  0  0  0  0  0  0  0  0
   -2.3704   -0.2160    1.6225 H   0  0  0  0  0  0  0  0  0  0  0  0
   -1.2414    0.9920    2.9699 C   0  0  0  0  0  0  0  0  0  0  0  0
   -0.6345    1.8817    2.7716 H   0  0  0  0  0  0  0  0  0  0  0  0
   -2.1931    1.3165    3.4018 H   0  0  0  0  0  0  0  0  0  0  0  0
   -0.7205    0.3660    3.7020 H   0  0  0  0  0  0  0  0  0  0  0  0
  1  2  1  0  0  0  0
  2  3  1  0  0  0  0
  2  4  1  0  0  0  0
  2  5  1  0  0  0  0
  5  6  2  0  0  0  0
  5  7  1  0  0  0  0
  7  8  1  0  0  0  0
  7  9  1  0  0  0  0
  9 10  1  0  0  0  0
  9 11  1  0  0  0  0
  9 29  1  0  0  0  0
 11 12  1  0  0  0  0
 11 13  1  0  0  0  0
 11 14  1  0  0  0  0
 14 15  2  0  0  0  0
 14 28  1  0  0  0  0
 15 16  1  0  0  0  0
 15 17  1  0  0  0  0
 17 18  1  0  0  0  0
 17 19  1  0  0  0  0
 19 20  1  0  0  0  0
 19 28  2  0  0  0  0
 20 21  1  0  0  0  0
 20 22  2  0  0  0  0
 22 23  1  0  0  0  0
 22 24  1  0  0  0  0
 24 25  1  0  0  0  0
 24 26  2  0  0  0  0
 26 27  1  0  0  0  0
 26 28  1  0  0  0  0
 29 30  2  0  0  0  0
 29 31  1  0  0  0  0
 31 32  1  0  0  0  0
 31 33  1  0  0  0  0
 33 34  1  0  0  0  0
 33 35  1  0  0  0  0
 33 36  1  0  0  0  0
M  END
$$$$

  -OEChem-03222214083D

 36 37  0     1  0  0  0  0  0999 V2000
   -3.1211   -4.8262    0.9628 H   0  0  0  0  0  0  0  0  0  0  0  0
   -3.1760   -4.0087    0.2380 C   0  0  0  0  0  0  0  0  0  0  0  0
   -4.0903   -3.4383    0.4187 H   0  0  0  0  0  0  0  0  0  0  0  0
   -3.2117   -4.4317   -0.7690 H   0  0  0  0  0  0  0  0  0  0  0  0
   -1.9654   -3.1053    0.3768 C   0  0  0  0  0  0  0  0  0  0  0  0
   -1.0944   -3.3675    1.1869 O   0  0  0  0  0  0  0  0  0  0  0  0
   -1.8646   -1.9738   -0.4027 N   0  0  0  0  0  0  0  0  0  0  0  0
   -2.6246   -1.7821   -1.0543 H   0  0  0  0  0  0  0  0  0  0  0  0
   -0.7430   -1.0164   -0.3719 C   0  0  1  0  0  0  0  0  0  0  0  0
    0.1603   -1.6177   -0.5259 H   0  0  0  0  0  0  0  0  0  0  0  0
   -0.7929   -0.0322   -1.5688 C   0  0  0  0  0  0  0  0  0  0  0  0
   -0.5663    0.9801   -1.2178 H   0  0  0  0  0  0  0  0  0  0  0  0
   -0.0001   -0.3075   -2.2716 H   0  0  0  0  0  0  0  0  0  0  0  0
   -2.1155    0.0035   -2.3100 C   0  0  0  0  0  0  0  0  0  0  0  0
   -2.2402   -0.3083   -3.6433 C   0  0  0  0  0  0  0  0  0  0  0  0
   -1.4271   -0.6174   -4.2973 H   0  0  0  0  0  0  0  0  0  0  0  0
   -3.5833   -0.1925   -3.9868 N   0  0  0  0  0  0  0  0  0  0  0  0
   -3.9688   -0.3489   -4.9168 H   0  0  0  0  0  0  0  0  0  0  0  0
   -4.3185    0.2540   -2.9037 C   0  0  0  0  0  0  0  0  0  0  0  0
   -5.6761    0.5465   -2.7754 C   0  0  0  0  0  0  0  0  0  0  0  0
   -6.3491    0.4030   -3.6138 H   0  0  0  0  0  0  0  0  0  0  0  0
   -6.1548    1.0400   -1.5547 C   0  0  0  0  0  0  0  0  0  0  0  0
   -7.2089    1.2762   -1.4397 H   0  0  0  0  0  0  0  0  0  0  0  0
   -5.2675    1.2519   -0.4898 C   0  0  0  0  0  0  0  0  0  0  0  0
   -5.6338    1.6629    0.4463 H   0  0  0  0  0  0  0  0  0  0  0  0
   -3.9053    0.9538   -0.6352 C   0  0  0  0  0  0  0  0  0  0  0  0
   -3.2188    1.1643    0.1730 H   0  0  0  0  0  0  0  0  0  0  0  0
   -3.4363    0.4229   -1.8406 C   0  0  0  0  0  0  0  0  0  0  0  0
   -0.4933   -0.3262    0.9870 C   0  0  0  0  0  0  0  0  0  0  0  0
    0.6470    0.0040    1.2866 O   0  0  0  0  0  0  0  0  0  0  0  0
   -1.5431    0.1805    1.7302 N   0  0  0  0  0  0  0  0  0  0  0  0
   -2.4565   -0.2101    1.5212 H   0  0  0  0  0  0  0  0  0  0  0  0
   -1.3506    0.8589    3.0063 C   0  0  0  0  0  0  0  0  0  0  0  0
   -0.7161    1.7426    2.8803 H   0  0  0  0  0  0  0  0  0  0  0  0
   -2.3139    1.1836    3.4113 H   0  0  0  0  0  0  0  0  0  0  0  0
   -0.8775    0.1862    3.7295 H   0  0  0  0  0  0  0  0  0  0  0  0
  1  2  1  0  0  0  0
  2  3  1  0  0  0  0
  2  4  1  0  0  0  0
  2  5  1  0  0  0  0
  5  6  2  0  0  0  0
  5  7  1  0  0  0  0
  7  8  1  0  0  0  0
  7  9  1  0  0  0  0
  9 10  1  0  0  0  0
  9 11  1  0  0  0  0
  9 29  1  0  0  0  0
 11 12  1  0  0  0  0
 11 13  1  0  0  0  0
 11 14  1  0  0  0  0
 14 15  2  0  0  0  0
 14 28  1  0  0  0  0
 15 16  1  0  0  0  0
 15 17  1  0  0  0  0
 17 18  1  0  0  0  0
 17 19  1  0  0  0  0
 19 20  1  0  0  0  0
 19 28  2  0  0  0  0
 20 21  1  0  0  0  0
 20 22  2  0  0  0  0
 22 23  1  0  0  0  0
 22 24  1  0  0  0  0
 24 25  1  0  0  0  0
 24 26  2  0  0  0  0
 26 27  1  0  0  0  0
 26 28  1  0  0  0  0
 29 30  2  0  0  0  0
 29 31  1  0  0  0  0
 31 32  1  0  0  0  0
 31 33  1  0  0  0  0
 33 34  1  0  0  0  0
 33 35  1  0  0  0  0
 33 36  1  0  0  0  0
M  END
$$$$

  -OEChem-03222214083D

 36 37  0     1  0  0  0  0  0999 V2000
   -3.2713   -4.7163    0.9343 H   0  0  0  0  0  0  0  0  0  0  0  0
   -3.2742   -3.9093    0.1965 C   0  0  0  0  0  0  0  0  0  0  0  0
   -4.1624   -3.2926    0.3525 H   0  0  0  0  0  0  0  0  0  0  0  0
   -3.3138   -4.3472   -0.8035 H   0  0  0  0  0  0  0  0  0  0  0  0
   -2.0232   -3.0641    0.3416 C   0  0  0  0  0  0  0  0  0  0  0  0
   -1.1828   -3.3515    1.1748 O   0  0  0  0  0  0  0  0  0  0  0  0
   -1.8472   -1.9628   -0.4677 N   0  0  0  0  0  0  0  0  0  0  0  0
   -2.5924   -1.7403   -1.1264 H   0  0  0  0  0  0  0  0  0  0  0  0
   -0.6995   -1.0357   -0.4056 C   0  0  1  0  0  0  0  0  0  0  0  0
    0.2052   -1.6432   -0.5176 H   0  0  0  0  0  0  0  0  0  0  0  0
   -0.7123   -0.0332   -1.5890 C   0  0  0  0  0  0  0  0  0  0  0  0
   -0.4516    0.9713   -1.2389 H   0  0  0  0  0  0  0  0  0  0  0  0
    0.0660   -0.3333   -2.2981 H   0  0  0  0  0  0  0  0  0  0  0  0
   -2.0366    0.0234   -2.3185 C   0  0  0  0  0  0  0  0  0  0  0  0
   -2.2747   -0.5383   -3.5497 C   0  0  0  0  0  0  0  0  0  0  0  0
   -1.5433   -1.0746   -4.1518 H   0  0  0  0  0  0  0  0  0  0  0  0
   -3.6171   -0.3314   -3.8547 N   0  0  0  0  0  0  0  0  0  0  0  0
   -4.0751   -0.6194   -4.7182 H   0  0  0  0  0  0  0  0  0  0  0  0
   -4.2319    0.4015   -2.8531 C   0  0  0  0  0  0  0  0  0  0  0  0
   -5.5392    0.8690   -2.7206 C   0  0  0  0  0  0  0  0  0  0  0  0
   -6.2797    0.6489   -3.4816 H   0  0  0  0  0  0  0  0  0  0  0  0
   -5.8794    1.6350   -1.5974 C   0  0  0  0  0  0  0  0  0  0  0  0
   -6.8927    2.0083   -1.4814 H   0  0  0  0  0  0  0  0  0  0  0  0
   -4.9065    1.9387   -0.6337 C   0  0  0  0  0  0  0  0  0  0  0  0
   -5.1661    2.5551    0.2221 H   0  0  0  0  0  0  0  0  0  0  0  0
   -3.5955    1.4643   -0.7802 C   0  0  0  0  0  0  0  0  0  0  0  0
   -2.8362    1.7337   -0.0551 H   0  0  0  0  0  0  0  0  0  0  0  0
   -3.2706    0.6700   -1.8846 C   0  0  0  0  0  0  0  0  0  0  0  0
   -0.5351   -0.3261    0.9552 C   0  0  0  0  0  0  0  0  0  0  0  0
    0.5846   -0.0287    1.3505 O   0  0  0  0  0  0  0  0  0  0  0  0
   -1.6331    0.2132    1.5995 N   0  0  0  0  0  0  0  0  0  0  0  0
   -2.5412   -0.1068    1.2766 H   0  0  0  0  0  0  0  0  0  0  0  0
   -1.5430    0.9053    2.8785 C   0  0  0  0  0  0  0  0  0  0  0  0
   -0.8676    1.7641    2.8040 H   0  0  0  0  0  0  0  0  0  0  0  0
   -2.5294    1.2691    3.1818 H   0  0  0  0  0  0  0  0  0  0  0  0
   -1.1679    0.2282    3.6532 H   0  0  0  0  0  0  0  0  0  0  0  0
  1  2  1  0  0  0  0
  2  3  1  0  0  0  0
  2  4  1  0  0  0  0
  2  5  1  0  0  0  0
  5  6  2  0  0  0  0
  5  7  1  0  0  0  0
  7  8  1  0  0  0  0
  7  9  1  0  0  0  0
  9 10  1  0  0  0  0
  9 11  1  0  0  0  0
  9 29  1  0  0  0  0
 11 12  1  0  0  0  0
 11 13  1  0  0  0  0
 11 14  1  0  0  0  0
 14 15  2  0  0  0  0
 14 28  1  0  0  0  0
 15 16  1  0  0  0  0
 15 17  1  0  0  0  0
 17 18  1  0  0  0  0
 17 19  1  0  0  0  0
 19 20  1  0  0  0  0
 19 28  2  0  0  0  0
 20 21  1  0  0  0  0
 20 22  2  0  0  0  0
 22 23  1  0  0  0  0
 22 24  1  0  0  0  0
 24 25  1  0  0  0  0
 24 26  2  0  0  0  0
 26 27  1  0  0  0  0
 26 28  1  0  0  0  0
 29 30  2  0  0  0  0
 29 31  1  0  0  0  0
 31 32  1  0  0  0  0
 31 33  1  0  0  0  0
 33 34  1  0  0  0  0
 33 35  1  0  0  0  0
 33 36  1  0  0  0  0
M  END
$$$$

  -OEChem-03222214083D

 36 37  0     1  0  0  0  0  0999 V2000
   -3.3721   -4.6130    0.9712 H   0  0  0  0  0  0  0  0  0  0  0  0
   -3.3415   -3.8277    0.2107 C   0  0  0  0  0  0  0  0  0  0  0  0
   -4.1962   -3.1629    0.3574 H   0  0  0  0  0  0  0  0  0  0  0  0
   -3.4126   -4.2905   -0.7765 H   0  0  0  0  0  0  0  0  0  0  0  0
   -2.0484   -3.0430    0.3226 C   0  0  0  0  0  0  0  0  0  0  0  0
   -1.2187   -3.3484    1.1600 O   0  0  0  0  0  0  0  0  0  0  0  0
   -1.8206   -1.9776   -0.5217 N   0  0  0  0  0  0  0  0  0  0  0  0
   -2.5689   -1.7224   -1.1644 H   0  0  0  0  0  0  0  0  0  0  0  0
   -0.6599   -1.0671   -0.4381 C   0  0  1  0  0  0  0  0  0  0  0  0
    0.2497   -1.6733   -0.5100 H   0  0  0  0  0  0  0  0  0  0  0  0
   -0.6456   -0.0513   -1.6092 C   0  0  0  0  0  0  0  0  0  0  0  0
   -0.3575    0.9455   -1.2587 H   0  0  0  0  0  0  0  0  0  0  0  0
    0.1243   -0.3684   -2.3196 H   0  0  0  0  0  0  0  0  0  0  0  0
   -1.9624    0.0302   -2.3460 C   0  0  0  0  0  0  0  0  0  0  0  0
   -2.3223   -0.7310   -3.4325 C   0  0  0  0  0  0  0  0  0  0  0  0
   -1.6852   -1.4575   -3.9338 H   0  0  0  0  0  0  0  0  0  0  0  0
   -3.6440   -0.4201   -3.7423 N   0  0  0  0  0  0  0  0  0  0  0  0
   -4.1703   -0.8017   -4.5273 H   0  0  0  0  0  0  0  0  0  0  0  0
   -4.1295    0.5461   -2.8753 C   0  0  0  0  0  0  0  0  0  0  0  0
   -5.3702    1.1775   -2.7885 C   0  0  0  0  0  0  0  0  0  0  0  0
   -6.1635    0.9259   -3.4841 H   0  0  0  0  0  0  0  0  0  0  0  0
   -5.5761    2.1445   -1.7941 C   0  0  0  0  0  0  0  0  0  0  0  0
   -6.5364    2.6460   -1.7162 H   0  0  0  0  0  0  0  0  0  0  0  0
   -4.5400    2.4739   -0.9066 C   0  0  0  0  0  0  0  0  0  0  0  0
   -4.6988    3.2328   -0.1459 H   0  0  0  0  0  0  0  0  0  0  0  0
   -3.2960    1.8353   -1.0059 C   0  0  0  0  0  0  0  0  0  0  0  0
   -2.4869    2.1033   -0.3337 H   0  0  0  0  0  0  0  0  0  0  0  0
   -3.1040    0.8614   -1.9912 C   0  0  0  0  0  0  0  0  0  0  0  0
   -0.5697   -0.3206    0.9101 C   0  0  0  0  0  0  0  0  0  0  0  0
    0.5243   -0.0331    1.3775 O   0  0  0  0  0  0  0  0  0  0  0  0
   -1.7036    0.2473    1.4629 N   0  0  0  0  0  0  0  0  0  0  0  0
   -2.5925   -0.0104    1.0445 H   0  0  0  0  0  0  0  0  0  0  0  0
   -1.6961    1.0090    2.7046 C   0  0  0  0  0  0  0  0  0  0  0  0
   -1.0167    1.8642    2.6264 H   0  0  0  0  0  0  0  0  0  0  0  0
   -2.7000    1.3856    2.9225 H   0  0  0  0  0  0  0  0  0  0  0  0
   -1.3729    0.3769    3.5383 H   0  0  0  0  0  0  0  0  0  0  0  0
  1  2  1  0  0  0  0
  2  3  1  0  0  0  0
  2  4  1  0  0  0  0
  2  5  1  0  0  0  0
  5  6  2  0  0  0  0
  5  7  1  0  0  0  0
  7  8  1  0  0  0  0
  7  9  1  0  0  0  0
  9 10  1  0  0  0  0
  9 11  1  0  0  0  0
  9 29  1  0  0  0  0
 11 12  1  0  0  0  0
 11 13  1  0  0  0  0
 11 14  1  0  0  0  0
 14 15  2  0  0  0  0
 14 28  1  0  0  0  0
 15 16  1  0  0  0  0
 15 17  1  0  0  0  0
 17 18  1  0  0  0  0
 17 19  1  0  0  0  0
 19 20  1  0  0  0  0
 19 28  2  0  0  0  0
 20 21  1  0  0  0  0
 20 22  2  0  0  0  0
 22 23  1  0  0  0  0
 22 24  1  0  0  0  0
 24 25  1  0  0  0  0
 24 26  2  0  0  0  0
 26 27  1  0  0  0  0
 26 28  1  0  0  0  0
 29 30  2  0  0  0  0
 29 31  1  0  0  0  0
 31 32  1  0  0  0  0
 31 33  1  0  0  0  0
 33 34  1  0  0  0  0
 33 35  1  0  0  0  0
 33 36  1  0  0  0  0
M  END
$$$$

  -OEChem-03222214083D

 36 37  0     1  0  0  0  0  0999 V2000
   -3.3978   -4.5779    1.0207 H   0  0  0  0  0  0  0  0  0  0  0  0
   -3.3642   -3.7996    0.2529 C   0  0  0  0  0  0  0  0  0  0  0  0
   -4.1979   -3.1118    0.4126 H   0  0  0  0  0  0  0  0  0  0  0  0
   -3.4693   -4.2687   -0.7282 H   0  0  0  0  0  0  0  0  0  0  0  0
   -2.0494   -3.0468    0.3304 C   0  0  0  0  0  0  0  0  0  0  0  0
   -1.2156   -3.3584    1.1612 O   0  0  0  0  0  0  0  0  0  0  0  0
   -1.8012   -2.0122   -0.5467 N   0  0  0  0  0  0  0  0  0  0  0  0
   -2.5649   -1.7334   -1.1597 H   0  0  0  0  0  0  0  0  0  0  0  0
   -0.6405   -1.1026   -0.4582 C   0  0  1  0  0  0  0  0  0  0  0  0
    0.2747   -1.7037   -0.4971 H   0  0  0  0  0  0  0  0  0  0  0  0
   -0.6075   -0.0861   -1.6284 C   0  0  0  0  0  0  0  0  0  0  0  0
   -0.3034    0.9064   -1.2790 H   0  0  0  0  0  0  0  0  0  0  0  0
    0.1646   -0.4154   -2.3310 H   0  0  0  0  0  0  0  0  0  0  0  0
   -1.9073    0.0162   -2.3927 C   0  0  0  0  0  0  0  0  0  0  0  0
   -2.3990   -0.8939   -3.3002 C   0  0  0  0  0  0  0  0  0  0  0  0
   -1.8716   -1.7768   -3.6581 H   0  0  0  0  0  0  0  0  0  0  0  0
   -3.6826   -0.4843   -3.6521 N   0  0  0  0  0  0  0  0  0  0  0  0
   -4.2757   -0.9340   -4.3484 H   0  0  0  0  0  0  0  0  0  0  0  0
   -4.0262    0.6705   -2.9668 C   0  0  0  0  0  0  0  0  0  0  0  0
   -5.1876    1.4432   -2.9701 C   0  0  0  0  0  0  0  0  0  0  0  0
   -6.0264    1.1703   -3.6011 H   0  0  0  0  0  0  0  0  0  0  0  0
   -5.2564    2.5764   -2.1472 C   0  0  0  0  0  0  0  0  0  0  0  0
   -6.1543    3.1877   -2.1401 H   0  0  0  0  0  0  0  0  0  0  0  0
   -4.1663    2.9236   -1.3342 C   0  0  0  0  0  0  0  0  0  0  0  0
   -4.2221    3.8037   -0.7004 H   0  0  0  0  0  0  0  0  0  0  0  0
   -3.0027    2.1417   -1.3411 C   0  0  0  0  0  0  0  0  0  0  0  0
   -2.1569    2.4115   -0.7158 H   0  0  0  0  0  0  0  0  0  0  0  0
   -2.9430    1.0137   -2.1665 C   0  0  0  0  0  0  0  0  0  0  0  0
   -0.5986   -0.3178    0.8709 C   0  0  0  0  0  0  0  0  0  0  0  0
    0.4758   -0.0253    1.3791 O   0  0  0  0  0  0  0  0  0  0  0  0
   -1.7541    0.2649    1.3618 N   0  0  0  0  0  0  0  0  0  0  0  0
   -2.6174    0.0688    0.8644 H   0  0  0  0  0  0  0  0  0  0  0  0
   -1.7892    1.1099    2.5474 C   0  0  0  0  0  0  0  0  0  0  0  0
   -1.1681    2.0000    2.4027 H   0  0  0  0  0  0  0  0  0  0  0  0
   -2.8148    1.4327    2.7501 H   0  0  0  0  0  0  0  0  0  0  0  0
   -1.4204    0.5596    3.4195 H   0  0  0  0  0  0  0  0  0  0  0  0
  1  2  1  0  0  0  0
  2  3  1  0  0  0  0
  2  4  1  0  0  0  0
  2  5  1  0  0  0  0
  5  6  2  0  0  0  0
  5  7  1  0  0  0  0
  7  8  1  0  0  0  0
  7  9  1  0  0  0  0
  9 10  1  0  0  0  0
  9 11  1  0  0  0  0
  9 29  1  0  0  0  0
 11 12  1  0  0  0  0
 11 13  1  0  0  0  0
 11 14  1  0  0  0  0
 14 15  2  0  0  0  0
 14 28  1  0  0  0  0
 15 16  1  0  0  0  0
 15 17  1  0  0  0  0
 17 18  1  0  0  0  0
 17 19  1  0  0  0  0
 19 20  1  0  0  0  0
 19 28  2  0  0  0  0
 20 21  1  0  0  0  0
 20 22  2  0  0  0  0
 22 23  1  0  0  0  0
 22 24  1  0  0  0  0
 24 25  1  0  0  0  0
 24 26  2  0  0  0  0
 26 27  1  0  0  0  0
 26 28  1  0  0  0  0
 29 30  2  0  0  0  0
 29 31  1  0  0  0  0
 31 32  1  0  0  0  0
 31 33  1  0  0  0  0
 33 34  1  0  0  0  0
 33 35  1  0  0  0  0
 33 36  1  0  0  0  0
M  END
$$$$

  -OEChem-03222214083D

 36 37  0     1  0  0  0  0  0999 V2000
   -3.2441   -4.6644    1.1415 H   0  0  0  0  0  0  0  0  0  0  0  0
   -3.2711   -3.8837    0.3760 C   0  0  0  0  0  0  0  0  0  0  0  0
   -4.1078   -3.2138    0.5872 H   0  0  0  0  0  0  0  0  0  0  0  0
   -3.4232   -4.3523   -0.5992 H   0  0  0  0  0  0  0  0  0  0  0  0
   -1.9693   -3.1055    0.3794 C   0  0  0  0  0  0  0  0  0  0  0  0
   -1.0853   -3.3997    1.1631 O   0  0  0  0  0  0  0  0  0  0  0  0
   -1.7884   -2.0709   -0.5150 N   0  0  0  0  0  0  0  0  0  0  0  0
   -2.6004   -1.7938   -1.0610 H   0  0  0  0  0  0  0  0  0  0  0  0
   -0.6581   -1.1228   -0.4617 C   0  0  1  0  0  0  0  0  0  0  0  0
    0.2731   -1.6985   -0.5132 H   0  0  0  0  0  0  0  0  0  0  0  0
   -0.6613   -0.1094   -1.6369 C   0  0  0  0  0  0  0  0  0  0  0  0
   -0.3683    0.8836   -1.2811 H   0  0  0  0  0  0  0  0  0  0  0  0
    0.1174   -0.4201   -2.3403 H   0  0  0  0  0  0  0  0  0  0  0  0
   -1.9534   -0.0070   -2.4224 C   0  0  0  0  0  0  0  0  0  0  0  0
   -2.5888   -1.0065   -3.1264 C   0  0  0  0  0  0  0  0  0  0  0  0
   -2.1941   -2.0076   -3.2931 H   0  0  0  0  0  0  0  0  0  0  0  0
   -3.8056   -0.5045   -3.5783 N   0  0  0  0  0  0  0  0  0  0  0  0
   -4.4665   -1.0013   -4.1741 H   0  0  0  0  0  0  0  0  0  0  0  0
   -3.9692    0.8057   -3.1603 C   0  0  0  0  0  0  0  0  0  0  0  0
   -5.0079    1.7163   -3.3530 C   0  0  0  0  0  0  0  0  0  0  0  0
   -5.8836    1.4358   -3.9279 H   0  0  0  0  0  0  0  0  0  0  0  0
   -4.9051    2.9975   -2.7937 C   0  0  0  0  0  0  0  0  0  0  0  0
   -5.7056    3.7177   -2.9357 H   0  0  0  0  0  0  0  0  0  0  0  0
   -3.7692    3.3513   -2.0499 C   0  0  0  0  0  0  0  0  0  0  0  0
   -3.6920    4.3449   -1.6181 H   0  0  0  0  0  0  0  0  0  0  0  0
   -2.7301    2.4283   -1.8647 C   0  0  0  0  0  0  0  0  0  0  0  0
   -1.8508    2.7049   -1.2915 H   0  0  0  0  0  0  0  0  0  0  0  0
   -2.8376    1.1526   -2.4308 C   0  0  0  0  0  0  0  0  0  0  0  0
   -0.6106   -0.3295    0.8628 C   0  0  0  0  0  0  0  0  0  0  0  0
    0.4655   -0.0076    1.3486 O   0  0  0  0  0  0  0  0  0  0  0  0
   -1.7726    0.2165    1.3802 N   0  0  0  0  0  0  0  0  0  0  0  0
   -2.6351    0.0292    0.8792 H   0  0  0  0  0  0  0  0  0  0  0  0
   -1.8019    1.0898    2.5455 C   0  0  0  0  0  0  0  0  0  0  0  0
   -1.2507    2.0143    2.3455 H   0  0  0  0  0  0  0  0  0  0  0  0
   -2.8345    1.3490    2.7972 H   0  0  0  0  0  0  0  0  0  0  0  0
   -1.3515    0.5898    3.4096 H   0  0  0  0  0  0  0  0  0  0  0  0
  1  2  1  0  0  0  0
  2  3  1  0  0  0  0
  2  4  1  0  0  0  0
  2  5  1  0  0  0  0
  5  6  2  0  0  0  0
  5  7  1  0  0  0  0
  7  8  1  0  0  0  0
  7  9  1  0  0  0  0
  9 10  1  0  0  0  0
  9 11  1  0  0  0  0
  9 29  1  0  0  0  0
 11 12  1  0  0  0  0
 11 13  1  0  0  0  0
 11 14  1  0  0  0  0
 14 15  2  0  0  0  0
 14 28  1  0  0  0  0
 15 16  1  0  0  0  0
 15 17  1  0  0  0  0
 17 18  1  0  0  0  0
 17 19  1  0  0  0  0
 19 20  1  0  0  0  0
 19 28  2  0  0  0  0
 20 21  1  0  0  0  0
 20 22  2  0  0  0  0
 22 23  1  0  0  0  0
 22 24  1  0  0  0  0
 24 25  1  0  0  0  0
 24 26  2  0  0  0  0
 26 27  1  0  0  0  0
 26 28  1  0  0  0  0
 29 30  2  0  0  0  0
 29 31  1  0  0  0  0
 31 32  1  0  0  0  0
 31 33  1  0  0  0  0
 33 34  1  0  0  0  0
 33 35  1  0  0  0  0
 33 36  1  0  0  0  0
M  END
$$$$

  -OEChem-03222214083D

 36 37  0     1  0  0  0  0  0999 V2000
   -3.0383   -4.7449    1.3122 H   0  0  0  0  0  0  0  0  0  0  0  0
   -3.1392   -3.9827    0.5340 C   0  0  0  0  0  0  0  0  0  0  0  0
   -3.9822   -3.3346    0.7847 H   0  0  0  0  0  0  0  0  0  0  0  0
   -3.3380   -4.4781   -0.4193 H   0  0  0  0  0  0  0  0  0  0  0  0
   -1.8652   -3.1650    0.4382 C   0  0  0  0  0  0  0  0  0  0  0  0
   -0.9176   -3.4285    1.1552 O   0  0  0  0  0  0  0  0  0  0  0  0
   -1.7870   -2.1248   -0.4655 N   0  0  0  0  0  0  0  0  0  0  0  0
   -2.6553   -1.8620   -0.9215 H   0  0  0  0  0  0  0  0  0  0  0  0
   -0.7025   -1.1253   -0.4647 C   0  0  1  0  0  0  0  0  0  0  0  0
    0.2465   -1.6675   -0.5478 H   0  0  0  0  0  0  0  0  0  0  0  0
   -0.7648   -0.1199   -1.6482 C   0  0  0  0  0  0  0  0  0  0  0  0
   -0.5033    0.8775   -1.2817 H   0  0  0  0  0  0  0  0  0  0  0  0
    0.0232   -0.3968   -2.3553 H   0  0  0  0  0  0  0  0  0  0  0  0
   -2.0537   -0.0270   -2.4499 C   0  0  0  0  0  0  0  0  0  0  0  0
   -2.8470   -1.0414   -2.9444 C   0  0  0  0  0  0  0  0  0  0  0  0
   -2.6084   -2.1029   -2.9151 H   0  0  0  0  0  0  0  0  0  0  0  0
   -3.9749   -0.4692   -3.5240 N   0  0  0  0  0  0  0  0  0  0  0  0
   -4.7068   -0.9738   -4.0218 H   0  0  0  0  0  0  0  0  0  0  0  0
   -3.9274    0.9083   -3.4039 C   0  0  0  0  0  0  0  0  0  0  0  0
   -4.8119    1.9026   -3.8223 C   0  0  0  0  0  0  0  0  0  0  0  0
   -5.7246    1.6402   -4.3459 H   0  0  0  0  0  0  0  0  0  0  0  0
   -4.5061    3.2441   -3.5563 C   0  0  0  0  0  0  0  0  0  0  0  0
   -5.1857    4.0294   -3.8744 H   0  0  0  0  0  0  0  0  0  0  0  0
   -3.3221    3.5734   -2.8798 C   0  0  0  0  0  0  0  0  0  0  0  0
   -3.0856    4.6136   -2.6752 H   0  0  0  0  0  0  0  0  0  0  0  0
   -2.4386    2.5650   -2.4690 C   0  0  0  0  0  0  0  0  0  0  0  0
   -1.5215    2.8260   -1.9508 H   0  0  0  0  0  0  0  0  0  0  0  0
   -2.7491    1.2260   -2.7373 C   0  0  0  0  0  0  0  0  0  0  0  0
   -0.6243   -0.3300    0.8581 C   0  0  0  0  0  0  0  0  0  0  0  0
    0.4606    0.0308    1.2942 O   0  0  0  0  0  0  0  0  0  0  0  0
   -1.7797    0.1637    1.4392 N   0  0  0  0  0  0  0  0  0  0  0  0
   -2.6591   -0.0553    0.9836 H   0  0  0  0  0  0  0  0  0  0  0  0
   -1.7828    1.0307    2.6100 C   0  0  0  0  0  0  0  0  0  0  0  0
   -1.2431    1.9603    2.4010 H   0  0  0  0  0  0  0  0  0  0  0  0
   -2.8098    1.2826    2.8906 H   0  0  0  0  0  0  0  0  0  0  0  0
   -1.3058    0.5284    3.4581 H   0  0  0  0  0  0  0  0  0  0  0  0
  1  2  1  0  0  0  0
  2  3  1  0  0  0  0
  2  4  1  0  0  0  0
  2  5  1  0  0  0  0
  5  6  2  0  0  0  0
  5  7  1  0  0  0  0
  7  8  1  0  0  0  0
  7  9  1  0  0  0  0
  9 10  1  0  0  0  0
  9 11  1  0  0  0  0
  9 29  1  0  0  0  0
 11 12  1  0  0  0  0
 11 13  1  0  0  0  0
 11 14  1  0  0  0  0
 14 15  2  0  0  0  0
 14 28  1  0  0  0  0
 15 16  1  0  0  0  0
 15 17  1  0  0  0  0
 17 18  1  0  0  0  0
 17 19  1  0  0  0  0
 19 20  1  0  0  0  0
 19 28  2  0  0  0  0
 20 21  1  0  0  0  0
 20 22  2  0  0  0  0
 22 23  1  0  0  0  0
 22 24  1  0  0  0  0
 24 25  1  0  0  0  0
 24 26  2  0  0  0  0
 26 27  1  0  0  0  0
 26 28  1  0  0  0  0
 29 30  2  0  0  0  0
 29 31  1  0  0  0  0
 31 32  1  0  0  0  0
 31 33  1  0  0  0  0
 33 34  1  0  0  0  0
 33 35  1  0  0  0  0
 33 36  1  0  0  0  0
M  END
$$$$

  -OEChem-03222214083D

 36 37  0     1  0  0  0  0  0999 V2000
   -2.8192   -4.8250    1.4510 H   0  0  0  0  0  0  0  0  0  0  0  0
   -3.0038   -4.0722    0.6789 C   0  0  0  0  0  0  0  0  0  0  0  0
   -3.8531   -3.4573    0.9849 H   0  0  0  0  0  0  0  0  0  0  0  0
   -3.2461   -4.5816   -0.2569 H   0  0  0  0  0  0  0  0  0  0  0  0
   -1.7728   -3.2056    0.4940 C   0  0  0  0  0  0  0  0  0  0  0  0
   -0.7712   -3.4272    1.1489 O   0  0  0  0  0  0  0  0  0  0  0  0
   -1.7956   -2.1679   -0.4169 N   0  0  0  0  0  0  0  0  0  0  0  0
   -2.7061   -1.9316   -0.7941 H   0  0  0  0  0  0  0  0  0  0  0  0
   -0.7573   -1.1234   -0.4743 C   0  0  1  0  0  0  0  0  0  0  0  0
    0.2051   -1.6346   -0.5917 H   0  0  0  0  0  0  0  0  0  0  0  0
   -0.8832   -0.1324   -1.6667 C   0  0  0  0  0  0  0  0  0  0  0  0
   -0.6555    0.8717   -1.2954 H   0  0  0  0  0  0  0  0  0  0  0  0
   -0.0903   -0.3782   -2.3800 H   0  0  0  0  0  0  0  0  0  0  0  0
   -2.1752   -0.0523   -2.4711 C   0  0  0  0  0  0  0  0  0  0  0  0
   -3.1332   -1.0038   -2.7615 C   0  0  0  0  0  0  0  0  0  0  0  0
   -3.0770   -2.0644   -2.5345 H   0  0  0  0  0  0  0  0  0  0  0  0
   -4.1660   -0.3882   -3.4615 N   0  0  0  0  0  0  0  0  0  0  0  0
   -4.9851   -0.8566   -3.8453 H   0  0  0  0  0  0  0  0  0  0  0  0
   -3.8926    0.9555   -3.6350 C   0  0  0  0  0  0  0  0  0  0  0  0
   -4.6108    1.9705   -4.2677 C   0  0  0  0  0  0  0  0  0  0  0  0
   -5.5674    1.7578   -4.7316 H   0  0  0  0  0  0  0  0  0  0  0  0
   -4.0794    3.2668   -4.2961 C   0  0  0  0  0  0  0  0  0  0  0  0
   -4.6266    4.0681   -4.7841 H   0  0  0  0  0  0  0  0  0  0  0  0
   -2.8391    3.5297   -3.6961 C   0  0  0  0  0  0  0  0  0  0  0  0
   -2.4266    4.5341   -3.7208 H   0  0  0  0  0  0  0  0  0  0  0  0
   -2.1265    2.4999   -3.0652 C   0  0  0  0  0  0  0  0  0  0  0  0
   -1.1649    2.7079   -2.6073 H   0  0  0  0  0  0  0  0  0  0  0  0
   -2.6638    1.2064   -3.0362 C   0  0  0  0  0  0  0  0  0  0  0  0
   -0.6431   -0.3212    0.8425 C   0  0  0  0  0  0  0  0  0  0  0  0
    0.4464    0.0889    1.2190 O   0  0  0  0  0  0  0  0  0  0  0  0
   -1.7853    0.1247    1.4853 N   0  0  0  0  0  0  0  0  0  0  0  0
   -2.6779   -0.1289    1.0772 H   0  0  0  0  0  0  0  0  0  0  0  0
   -1.7612    1.0029    2.6477 C   0  0  0  0  0  0  0  0  0  0  0  0
   -1.3019    1.9636    2.3925 H   0  0  0  0  0  0  0  0  0  0  0  0
   -2.7795    1.1886    3.0021 H   0  0  0  0  0  0  0  0  0  0  0  0
   -1.1911    0.5437    3.4623 H   0  0  0  0  0  0  0  0  0  0  0  0
  1  2  1  0  0  0  0
  2  3  1  0  0  0  0
  2  4  1  0  0  0  0
  2  5  1  0  0  0  0
  5  6  2  0  0  0  0
  5  7  1  0  0  0  0
  7  8  1  0  0  0  0
  7  9  1  0  0  0  0
  9 10  1  0  0  0  0
  9 11  1  0  0  0  0
  9 29  1  0  0  0  0
 11 12  1  0  0  0  0
 11 13  1  0  0  0  0
 11 14  1  0  0  0  0
 14 15  2  0  0  0  0
 14 28  1  0  0  0  0
 15 16  1  0  0  0  0
 15 17  1  0  0  0  0
 17 18  1  0  0  0  0
 17 19  1  0  0  0  0
 19 20  1  0  0  0  0
 19 28  2  0  0  0  0
 20 21  1  0  0  0  0
 20 22  2  0  0  0  0
 22 23  1  0  0  0  0
 22 24  1  0  0  0  0
 24 25  1  0  0  0  0
 24 26  2  0  0  0  0
 26 27  1  0  0  0  0
 26 28  1  0  0  0  0
 29 30  2  0  0  0  0
 29 31  1  0  0  0  0
 31 32  1  0  0  0  0
 31 33  1  0  0  0  0
 33 34  1  0  0  0  0
 33 35  1  0  0  0  0
 33 36  1  0  0  0  0
M  END
$$$$

  -OEChem-03222214083D

 36 37  0     1  0  0  0  0  0999 V2000
   -2.5874   -5.0110    1.3701 H   0  0  0  0  0  0  0  0  0  0  0  0
   -2.7689   -4.3040    0.5553 C   0  0  0  0  0  0  0  0  0  0  0  0
   -3.8016   -3.9532    0.6187 H   0  0  0  0  0  0  0  0  0  0  0  0
   -2.6221   -4.8212   -0.3959 H   0  0  0  0  0  0  0  0  0  0  0  0
   -1.8141   -3.1298    0.6624 C   0  0  0  0  0  0  0  0  0  0  0  0
   -1.0137   -3.0873    1.5776 O   0  0  0  0  0  0  0  0  0  0  0  0
   -1.8548   -2.1309   -0.2915 N   0  0  0  0  0  0  0  0  0  0  0  0
   -2.3696   -2.3674   -1.1301 H   0  0  0  0  0  0  0  0  0  0  0  0
   -0.8101   -1.1028   -0.4444 C   0  0  1  0  0  0  0  0  0  0  0  0
    0.1440   -1.6153   -0.6103 H   0  0  0  0  0  0  0  0  0  0  0  0
   -1.0454   -0.1279   -1.6364 C   0  0  0  0  0  0  0  0  0  0  0  0
   -0.7693    0.8818   -1.3126 H   0  0  0  0  0  0  0  0  0  0  0  0
   -0.3250   -0.4029   -2.4132 H   0  0  0  0  0  0  0  0  0  0  0  0
   -2.3984   -0.0174   -2.3352 C   0  0  0  0  0  0  0  0  0  0  0  0
   -3.5451   -0.7918   -2.3516 C   0  0  0  0  0  0  0  0  0  0  0  0
   -3.7376   -1.7034   -1.7999 H   0  0  0  0  0  0  0  0  0  0  0  0
   -4.4673   -0.1953   -3.2066 N   0  0  0  0  0  0  0  0  0  0  0  0
   -5.4039   -0.5421   -3.4057 H   0  0  0  0  0  0  0  0  0  0  0  0
   -3.9391    0.9560   -3.7562 C   0  0  0  0  0  0  0  0  0  0  0  0
   -4.4695    1.8802   -4.6559 C   0  0  0  0  0  0  0  0  0  0  0  0
   -5.4729    1.7514   -5.0465 H   0  0  0  0  0  0  0  0  0  0  0  0
   -3.6884    2.9754   -5.0487 C   0  0  0  0  0  0  0  0  0  0  0  0
   -4.0873    3.7039   -5.7486 H   0  0  0  0  0  0  0  0  0  0  0  0
   -2.3906    3.1302   -4.5395 C   0  0  0  0  0  0  0  0  0  0  0  0
   -1.7858    3.9788   -4.8451 H   0  0  0  0  0  0  0  0  0  0  0  0
   -1.8702    2.1926   -3.6360 C   0  0  0  0  0  0  0  0  0  0  0  0
   -0.8654    2.3146   -3.2447 H   0  0  0  0  0  0  0  0  0  0  0  0
   -2.6569    1.1014   -3.2442 C   0  0  0  0  0  0  0  0  0  0  0  0
   -0.6208   -0.2364    0.8237 C   0  0  0  0  0  0  0  0  0  0  0  0
    0.4919    0.1904    1.1050 O   0  0  0  0  0  0  0  0  0  0  0  0
   -1.7231    0.2568    1.4980 N   0  0  0  0  0  0  0  0  0  0  0  0
   -2.6249   -0.1307    1.2414 H   0  0  0  0  0  0  0  0  0  0  0  0
   -1.6258    1.1247    2.6634 C   0  0  0  0  0  0  0  0  0  0  0  0
   -1.0663    2.0337    2.4187 H   0  0  0  0  0  0  0  0  0  0  0  0
   -2.6245    1.4162    3.0022 H   0  0  0  0  0  0  0  0  0  0  0  0
   -1.1170    0.6064    3.4828 H   0  0  0  0  0  0  0  0  0  0  0  0
  1  2  1  0  0  0  0
  2  3  1  0  0  0  0
  2  4  1  0  0  0  0
  2  5  1  0  0  0  0
  5  6  2  0  0  0  0
  5  7  1  0  0  0  0
  7  8  1  0  0  0  0
  7  9  1  0  0  0  0
  9 10  1  0  0  0  0
  9 11  1  0  0  0  0
  9 29  1  0  0  0  0
 11 12  1  0  0  0  0
 11 13  1  0  0  0  0
 11 14  1  0  0  0  0
 14 15  2  0  0  0  0
 14 28  1  0  0  0  0
 15 16  1  0  0  0  0
 15 17  1  0  0  0  0
 17 18  1  0  0  0  0
 17 19  1  0  0  0  0
 19 20  1  0  0  0  0
 19 28  2  0  0  0  0
 20 21  1  0  0  0  0
 20 22  2  0  0  0  0
 22 23  1  0  0  0  0
 22 24  1  0  0  0  0
 24 25  1  0  0  0  0
 24 26  2  0  0  0  0
 26 27  1  0  0  0  0
 26 28  1  0  0  0  0
 29 30  2  0  0  0  0
 29 31  1  0  0  0  0
 31 32  1  0  0  0  0
 31 33  1  0  0  0  0
 33 34  1  0  0  0  0
 33 35  1  0  0  0  0
 33 36  1  0  0  0  0
M  END
$$$$

  -OEChem-03222214083D

 36 37  0     1  0  0  0  0  0999 V2000
   -2.6885   -5.0055    1.2621 H   0  0  0  0  0  0  0  0  0  0  0  0
   -2.8634   -4.2671    0.4743 C   0  0  0  0  0  0  0  0  0  0  0  0
   -3.8862   -3.8938    0.5644 H   0  0  0  0  0  0  0  0  0  0  0  0
   -2.7429   -4.7552   -0.4958 H   0  0  0  0  0  0  0  0  0  0  0  0
   -1.8775   -3.1217    0.6064 C   0  0  0  0  0  0  0  0  0  0  0  0
   -1.0770   -3.1183    1.5224 O   0  0  0  0  0  0  0  0  0  0  0  0
   -1.8989   -2.0956   -0.3184 N   0  0  0  0  0  0  0  0  0  0  0  0
   -2.4326   -2.2891   -1.1598 H   0  0  0  0  0  0  0  0  0  0  0  0
   -0.8265   -1.0928   -0.4546 C   0  0  1  0  0  0  0  0  0  0  0  0
    0.1102   -1.6287   -0.6439 H   0  0  0  0  0  0  0  0  0  0  0  0
   -1.0503   -0.0935   -1.6263 C   0  0  0  0  0  0  0  0  0  0  0  0
   -0.7415    0.9075   -1.3042 H   0  0  0  0  0  0  0  0  0  0  0  0
   -0.3504   -0.3892   -2.4144 H   0  0  0  0  0  0  0  0  0  0  0  0
   -2.4088    0.0544   -2.3038 C   0  0  0  0  0  0  0  0  0  0  0  0
   -3.6434   -0.5414   -2.1197 C   0  0  0  0  0  0  0  0  0  0  0  0
   -3.9223   -1.2490   -1.3466 H   0  0  0  0  0  0  0  0  0  0  0  0
   -4.5178   -0.0450   -3.0821 N   0  0  0  0  0  0  0  0  0  0  0  0
   -5.5022   -0.2898   -3.1727 H   0  0  0  0  0  0  0  0  0  0  0  0
   -3.8716    0.8661   -3.8953 C   0  0  0  0  0  0  0  0  0  0  0  0
   -4.3156    1.6201   -4.9818 C   0  0  0  0  0  0  0  0  0  0  0  0
   -5.3423    1.5403   -5.3213 H   0  0  0  0  0  0  0  0  0  0  0  0
   -3.4175    2.4815   -5.6267 C   0  0  0  0  0  0  0  0  0  0  0  0
   -3.7475    3.0752   -6.4739 H   0  0  0  0  0  0  0  0  0  0  0  0
   -2.0917    2.5779   -5.1782 C   0  0  0  0  0  0  0  0  0  0  0  0
   -1.3974    3.2461   -5.6785 H   0  0  0  0  0  0  0  0  0  0  0  0
   -1.6590    1.8150   -4.0844 C   0  0  0  0  0  0  0  0  0  0  0  0
   -0.6342    1.8925   -3.7352 H   0  0  0  0  0  0  0  0  0  0  0  0
   -2.5613    0.9561   -3.4450 C   0  0  0  0  0  0  0  0  0  0  0  0
   -0.5918   -0.2625    0.8297 C   0  0  0  0  0  0  0  0  0  0  0  0
    0.5380    0.1235    1.1022 O   0  0  0  0  0  0  0  0  0  0  0  0
   -1.6673    0.2484    1.5340 N   0  0  0  0  0  0  0  0  0  0  0  0
   -2.5780   -0.1367    1.3087 H   0  0  0  0  0  0  0  0  0  0  0  0
   -1.5184    1.0535    2.7388 C   0  0  0  0  0  0  0  0  0  0  0  0
   -0.9108    1.9415    2.5351 H   0  0  0  0  0  0  0  0  0  0  0  0
   -2.4984    1.3828    3.0966 H   0  0  0  0  0  0  0  0  0  0  0  0
   -1.0365    0.4698    3.5301 H   0  0  0  0  0  0  0  0  0  0  0  0
  1  2  1  0  0  0  0
  2  3  1  0  0  0  0
  2  4  1  0  0  0  0
  2  5  1  0  0  0  0
  5  6  2  0  0  0  0
  5  7  1  0  0  0  0
  7  8  1  0  0  0  0
  7  9  1  0  0  0  0
  9 10  1  0  0  0  0
  9 11  1  0  0  0  0
  9 29  1  0  0  0  0
 11 12  1  0  0  0  0
 11 13  1  0  0  0  0
 11 14  1  0  0  0  0
 14 15  2  0  0  0  0
 14 28  1  0  0  0  0
 15 16  1  0  0  0  0
 15 17  1  0  0  0  0
 17 18  1  0  0  0  0
 17 19  1  0  0  0  0
 19 20  1  0  0  0  0
 19 28  2  0  0  0  0
 20 21  1  0  0  0  0
 20 22  2  0  0  0  0
 22 23  1  0  0  0  0
 22 24  1  0  0  0  0
 24 25  1  0  0  0  0
 24 26  2  0  0  0  0
 26 27  1  0  0  0  0
 26 28  1  0  0  0  0
 29 30  2  0  0  0  0
 29 31  1  0  0  0  0
 31 32  1  0  0  0  0
 31 33  1  0  0  0  0
 33 34  1  0  0  0  0
 33 35  1  0  0  0  0
 33 36  1  0  0  0  0
M  END
$$$$

  -OEChem-03222214083D

 36 37  0     1  0  0  0  0  0999 V2000
   -2.8904   -4.9450    1.1738 H   0  0  0  0  0  0  0  0  0  0  0  0
   -3.0195   -4.1887    0.3942 C   0  0  0  0  0  0  0  0  0  0  0  0
   -4.0239   -3.7668    0.4772 H   0  0  0  0  0  0  0  0  0  0  0  0
   -2.9113   -4.6695   -0.5812 H   0  0  0  0  0  0  0  0  0  0  0  0
   -1.9797   -3.0954    0.5539 C   0  0  0  0  0  0  0  0  0  0  0  0
   -1.1923   -3.1420    1.4802 O   0  0  0  0  0  0  0  0  0  0  0  0
   -1.9417   -2.0516   -0.3496 N   0  0  0  0  0  0  0  0  0  0  0  0
   -2.5010   -2.1810   -1.1887 H   0  0  0  0  0  0  0  0  0  0  0  0
   -0.8230   -1.0946   -0.4560 C   0  0  1  0  0  0  0  0  0  0  0  0
    0.0894   -1.6719   -0.6433 H   0  0  0  0  0  0  0  0  0  0  0  0
   -0.9891   -0.0802   -1.6231 C   0  0  0  0  0  0  0  0  0  0  0  0
   -0.6422    0.9088   -1.3033 H   0  0  0  0  0  0  0  0  0  0  0  0
   -0.2964   -0.4089   -2.4041 H   0  0  0  0  0  0  0  0  0  0  0  0
   -2.3417    0.1043   -2.2994 C   0  0  0  0  0  0  0  0  0  0  0  0
   -3.6207   -0.2674   -1.9327 C   0  0  0  0  0  0  0  0  0  0  0  0
   -3.9134   -0.7330   -0.9960 H   0  0  0  0  0  0  0  0  0  0  0  0
   -4.4928    0.1002   -2.9532 N   0  0  0  0  0  0  0  0  0  0  0  0
   -5.5041   -0.0190   -2.9415 H   0  0  0  0  0  0  0  0  0  0  0  0
   -3.7987    0.7127   -3.9799 C   0  0  0  0  0  0  0  0  0  0  0  0
   -4.2226    1.2522   -5.1943 C   0  0  0  0  0  0  0  0  0  0  0  0
   -5.2716    1.2291   -5.4682 H   0  0  0  0  0  0  0  0  0  0  0  0
   -3.2754    1.8251   -6.0542 C   0  0  0  0  0  0  0  0  0  0  0  0
   -3.5907    2.2488   -7.0030 H   0  0  0  0  0  0  0  0  0  0  0  0
   -1.9210    1.8536   -5.6887 C   0  0  0  0  0  0  0  0  0  0  0  0
   -1.1892    2.3006   -6.3549 H   0  0  0  0  0  0  0  0  0  0  0  0
   -1.5082    1.3091   -4.4639 C   0  0  0  0  0  0  0  0  0  0  0  0
   -0.4615    1.3351   -4.1783 H   0  0  0  0  0  0  0  0  0  0  0  0
   -2.4595    0.7360   -3.6116 C   0  0  0  0  0  0  0  0  0  0  0  0
   -0.5583   -0.2954    0.8414 C   0  0  0  0  0  0  0  0  0  0  0  0
    0.5862    0.0375    1.1217 O   0  0  0  0  0  0  0  0  0  0  0  0
   -1.6121    0.2553    1.5486 N   0  0  0  0  0  0  0  0  0  0  0  0
   -2.5329   -0.1123    1.3368 H   0  0  0  0  0  0  0  0  0  0  0  0
   -1.4265    1.0228    2.7731 C   0  0  0  0  0  0  0  0  0  0  0  0
   -0.7713    1.8817    2.5932 H   0  0  0  0  0  0  0  0  0  0  0  0
   -2.3894    1.3956    3.1350 H   0  0  0  0  0  0  0  0  0  0  0  0
   -0.9800    0.3955    3.5519 H   0  0  0  0  0  0  0  0  0  0  0  0
  1  2  1  0  0  0  0
  2  3  1  0  0  0  0
  2  4  1  0  0  0  0
  2  5  1  0  0  0  0
  5  6  2  0  0  0  0
  5  7  1  0  0  0  0
  7  8  1  0  0  0  0
  7  9  1  0  0  0  0
  9 10  1  0  0  0  0
  9 11  1  0  0  0  0
  9 29  1  0  0  0  0
 11 12  1  0  0  0  0
 11 13  1  0  0  0  0
 11 14  1  0  0  0  0
 14 15  2  0  0  0  0
 14 28  1  0  0  0  0
 15 16  1  0  0  0  0
 15 17  1  0  0  0  0
 17 18  1  0  0  0  0
 17 19  1  0  0  0  0
 19 20  1  0  0  0  0
 19 28  2  0  0  0  0
 20 21  1  0  0  0  0
 20 22  2  0  0  0  0
 22 23  1  0  0  0  0
 22 24  1  0  0  0  0
 24 25  1  0  0  0  0
 24 26  2  0  0  0  0
 26 27  1  0  0  0  0
 26 28  1  0  0  0  0
 29 30  2  0  0  0  0
 29 31  1  0  0  0  0
 31 32  1  0  0  0  0
 31 33  1  0  0  0  0
 33 34  1  0  0  0  0
 33 35  1  0  0  0  0
 33 36  1  0  0  0  0
M  END
$$$$

  -OEChem-03222214083D

 36 37  0     1  0  0  0  0  0999 V2000
   -3.0823   -4.8671    1.0416 H   0  0  0  0  0  0  0  0  0  0  0  0
   -3.1548   -4.0842    0.2811 C   0  0  0  0  0  0  0  0  0  0  0  0
   -4.1354   -3.6083    0.3578 H   0  0  0  0  0  0  0  0  0  0  0  0
   -3.0552   -4.5433   -0.7054 H   0  0  0  0  0  0  0  0  0  0  0  0
   -2.0596   -3.0551    0.4862 C   0  0  0  0  0  0  0  0  0  0  0  0
   -1.2984   -3.1573    1.4301 O   0  0  0  0  0  0  0  0  0  0  0  0
   -1.9466   -1.9968   -0.3919 N   0  0  0  0  0  0  0  0  0  0  0  0
   -2.5192   -2.0525   -1.2314 H   0  0  0  0  0  0  0  0  0  0  0  0
   -0.7926   -1.0772   -0.4453 C   0  0  1  0  0  0  0  0  0  0  0  0
    0.1046   -1.6838   -0.6118 H   0  0  0  0  0  0  0  0  0  0  0  0
   -0.8924   -0.0589   -1.6142 C   0  0  0  0  0  0  0  0  0  0  0  0
   -0.5371    0.9253   -1.2893 H   0  0  0  0  0  0  0  0  0  0  0  0
   -0.1864   -0.4049   -2.3748 H   0  0  0  0  0  0  0  0  0  0  0  0
   -2.2338    0.1285   -2.3062 C   0  0  0  0  0  0  0  0  0  0  0  0
   -3.5121    0.0002   -1.8035 C   0  0  0  0  0  0  0  0  0  0  0  0
   -3.7690   -0.2144   -0.7691 H   0  0  0  0  0  0  0  0  0  0  0  0
   -4.4115    0.2218   -2.8420 N   0  0  0  0  0  0  0  0  0  0  0  0
   -5.4263    0.2325   -2.7556 H   0  0  0  0  0  0  0  0  0  0  0  0
   -3.7304    0.5021   -4.0134 C   0  0  0  0  0  0  0  0  0  0  0  0
   -4.1832    0.7985   -5.2990 C   0  0  0  0  0  0  0  0  0  0  0  0
   -5.2460    0.8336   -5.5107 H   0  0  0  0  0  0  0  0  0  0  0  0
   -3.2469    1.0526   -6.3108 C   0  0  0  0  0  0  0  0  0  0  0  0
   -3.5838    1.2862   -7.3167 H   0  0  0  0  0  0  0  0  0  0  0  0
   -1.8739    1.0091   -6.0248 C   0  0  0  0  0  0  0  0  0  0  0  0
   -1.1500    1.2103   -6.8090 H   0  0  0  0  0  0  0  0  0  0  0  0
   -1.4316    0.7105   -4.7280 C   0  0  0  0  0  0  0  0  0  0  0  0
   -0.3697    0.6828   -4.5065 H   0  0  0  0  0  0  0  0  0  0  0  0
   -2.3721    0.4554   -3.7228 C   0  0  0  0  0  0  0  0  0  0  0  0
   -0.5392   -0.3069    0.8705 C   0  0  0  0  0  0  0  0  0  0  0  0
    0.6056   -0.0027    1.1800 O   0  0  0  0  0  0  0  0  0  0  0  0
   -1.5962    0.2693    1.5527 N   0  0  0  0  0  0  0  0  0  0  0  0
   -2.5128   -0.1082    1.3417 H   0  0  0  0  0  0  0  0  0  0  0  0
   -1.4178    1.0045    2.7982 C   0  0  0  0  0  0  0  0  0  0  0  0
   -0.7106    1.8294    2.6613 H   0  0  0  0  0  0  0  0  0  0  0  0
   -2.3727    1.4237    3.1287 H   0  0  0  0  0  0  0  0  0  0  0  0
   -1.0379    0.3406    3.5820 H   0  0  0  0  0  0  0  0  0  0  0  0
  1  2  1  0  0  0  0
  2  3  1  0  0  0  0
  2  4  1  0  0  0  0
  2  5  1  0  0  0  0
  5  6  2  0  0  0  0
  5  7  1  0  0  0  0
  7  8  1  0  0  0  0
  7  9  1  0  0  0  0
  9 10  1  0  0  0  0
  9 11  1  0  0  0  0
  9 29  1  0  0  0  0
 11 12  1  0  0  0  0
 11 13  1  0  0  0  0
 11 14  1  0  0  0  0
 14 15  2  0  0  0  0
 14 28  1  0  0  0  0
 15 16  1  0  0  0  0
 15 17  1  0  0  0  0
 17 18  1  0  0  0  0
 17 19  1  0  0  0  0
 19 20  1  0  0  0  0
 19 28  2  0  0  0  0
 20 21  1  0  0  0  0
 20 22  2  0  0  0  0
 22 23  1  0  0  0  0
 22 24  1  0  0  0  0
 24 25  1  0  0  0  0
 24 26  2  0  0  0  0
 26 27  1  0  0  0  0
 26 28  1  0  0  0  0
 29 30  2  0  0  0  0
 29 31  1  0  0  0  0
 31 32  1  0  0  0  0
 31 33  1  0  0  0  0
 33 34  1  0  0  0  0
 33 35  1  0  0  0  0
 33 36  1  0  0  0  0
M  END
$$$$

  -OEChem-03222214083D

 36 37  0     1  0  0  0  0  0999 V2000
   -3.2405   -4.7948    0.8901 H   0  0  0  0  0  0  0  0  0  0  0  0
   -3.2585   -3.9941    0.1454 C   0  0  0  0  0  0  0  0  0  0  0  0
   -4.2181   -3.4756    0.2084 H   0  0  0  0  0  0  0  0  0  0  0  0
   -3.1552   -4.4369   -0.8481 H   0  0  0  0  0  0  0  0  0  0  0  0
   -2.1238   -3.0199    0.3991 C   0  0  0  0  0  0  0  0  0  0  0  0
   -1.3894   -3.1760    1.3573 O   0  0  0  0  0  0  0  0  0  0  0  0
   -1.9430   -1.9467   -0.4481 N   0  0  0  0  0  0  0  0  0  0  0  0
   -2.5218   -1.9278   -1.2861 H   0  0  0  0  0  0  0  0  0  0  0  0
   -0.7639   -1.0563   -0.4381 C   0  0  1  0  0  0  0  0  0  0  0  0
    0.1219   -1.6856   -0.5795 H   0  0  0  0  0  0  0  0  0  0  0  0
   -0.7963   -0.0299   -1.6015 C   0  0  0  0  0  0  0  0  0  0  0  0
   -0.4550    0.9508   -1.2526 H   0  0  0  0  0  0  0  0  0  0  0  0
   -0.0633   -0.3665   -2.3401 H   0  0  0  0  0  0  0  0  0  0  0  0
   -2.1249    0.1508   -2.3119 C   0  0  0  0  0  0  0  0  0  0  0  0
   -3.3703    0.2876   -1.7389 C   0  0  0  0  0  0  0  0  0  0  0  0
   -3.5707    0.3367   -0.6714 H   0  0  0  0  0  0  0  0  0  0  0  0
   -4.3088    0.3635   -2.7632 N   0  0  0  0  0  0  0  0  0  0  0  0
   -5.3080    0.5192   -2.6405 H   0  0  0  0  0  0  0  0  0  0  0  0
   -3.6816    0.2823   -3.9946 C   0  0  0  0  0  0  0  0  0  0  0  0
   -4.1889    0.3192   -5.2933 C   0  0  0  0  0  0  0  0  0  0  0  0
   -5.2548    0.4261   -5.4621 H   0  0  0  0  0  0  0  0  0  0  0  0
   -3.3032    0.2184   -6.3750 C   0  0  0  0  0  0  0  0  0  0  0  0
   -3.6829    0.2467   -7.3922 H   0  0  0  0  0  0  0  0  0  0  0  0
   -1.9257    0.0838   -6.1452 C   0  0  0  0  0  0  0  0  0  0  0  0
   -1.2412    0.0098   -6.9851 H   0  0  0  0  0  0  0  0  0  0  0  0
   -1.4279    0.0482   -4.8347 C   0  0  0  0  0  0  0  0  0  0  0  0
   -0.3617   -0.0509   -4.6598 H   0  0  0  0  0  0  0  0  0  0  0  0
   -2.3177    0.1487   -3.7586 C   0  0  0  0  0  0  0  0  0  0  0  0
   -0.5379   -0.3168    0.8995 C   0  0  0  0  0  0  0  0  0  0  0  0
    0.6018   -0.0268    1.2398 O   0  0  0  0  0  0  0  0  0  0  0  0
   -1.6036    0.2754    1.5544 N   0  0  0  0  0  0  0  0  0  0  0  0
   -2.5136   -0.1175    1.3421 H   0  0  0  0  0  0  0  0  0  0  0  0
   -1.4411    1.0018    2.8077 C   0  0  0  0  0  0  0  0  0  0  0  0
   -0.7361    1.8305    2.6843 H   0  0  0  0  0  0  0  0  0  0  0  0
   -2.4005    1.4143    3.1331 H   0  0  0  0  0  0  0  0  0  0  0  0
   -1.0654    0.3337    3.5896 H   0  0  0  0  0  0  0  0  0  0  0  0
  1  2  1  0  0  0  0
  2  3  1  0  0  0  0
  2  4  1  0  0  0  0
  2  5  1  0  0  0  0
  5  6  2  0  0  0  0
  5  7  1  0  0  0  0
  7  8  1  0  0  0  0
  7  9  1  0  0  0  0
  9 10  1  0  0  0  0
  9 11  1  0  0  0  0
  9 29  1  0  0  0  0
 11 12  1  0  0  0  0
 11 13  1  0  0  0  0
 11 14  1  0  0  0  0
 14 15  2  0  0  0  0
 14 28  1  0  0  0  0
 15 16  1  0  0  0  0
 15 17  1  0  0  0  0
 17 18  1  0  0  0  0
 17 19  1  0  0  0  0
 19 20  1  0  0  0  0
 19 28  2  0  0  0  0
 20 21  1  0  0  0  0
 20 22  2  0  0  0  0
 22 23  1  0  0  0  0
 22 24  1  0  0  0  0
 24 25  1  0  0  0  0
 24 26  2  0  0  0  0
 26 27  1  0  0  0  0
 26 28  1  0  0  0  0
 29 30  2  0  0  0  0
 29 31  1  0  0  0  0
 31 32  1  0  0  0  0
 31 33  1  0  0  0  0
 33 34  1  0  0  0  0
 33 35  1  0  0  0  0
 33 36  1  0  0  0  0
M  END
$$$$

  -OEChem-03222214083D

 36 37  0     1  0  0  0  0  0999 V2000
   -3.3609   -4.7158    0.7450 H   0  0  0  0  0  0  0  0  0  0  0  0
   -3.3270   -3.9059    0.0108 C   0  0  0  0  0  0  0  0  0  0  0  0
   -4.2647   -3.3473    0.0583 H   0  0  0  0  0  0  0  0  0  0  0  0
   -3.2190   -4.3399   -0.9862 H   0  0  0  0  0  0  0  0  0  0  0  0
   -2.1578   -2.9848    0.3028 C   0  0  0  0  0  0  0  0  0  0  0  0
   -1.4469   -3.1895    1.2698 O   0  0  0  0  0  0  0  0  0  0  0  0
   -1.9167   -1.9040   -0.5187 N   0  0  0  0  0  0  0  0  0  0  0  0
   -2.4978   -1.8206   -1.3520 H   0  0  0  0  0  0  0  0  0  0  0  0
   -0.7206   -1.0386   -0.4498 C   0  0  1  0  0  0  0  0  0  0  0  0
    0.1587   -1.6809   -0.5677 H   0  0  0  0  0  0  0  0  0  0  0  0
   -0.6985    0.0018   -1.6000 C   0  0  0  0  0  0  0  0  0  0  0  0
   -0.3731    0.9772   -1.2220 H   0  0  0  0  0  0  0  0  0  0  0  0
    0.0551   -0.3144   -2.3267 H   0  0  0  0  0  0  0  0  0  0  0  0
   -2.0190    0.1767   -2.3195 C   0  0  0  0  0  0  0  0  0  0  0  0
   -3.2009    0.5858   -1.7462 C   0  0  0  0  0  0  0  0  0  0  0  0
   -3.3231    0.9018   -0.7124 H   0  0  0  0  0  0  0  0  0  0  0  0
   -4.1912    0.5215   -2.7221 N   0  0  0  0  0  0  0  0  0  0  0  0
   -5.1607    0.8100   -2.5999 H   0  0  0  0  0  0  0  0  0  0  0  0
   -3.6583    0.0722   -3.9188 C   0  0  0  0  0  0  0  0  0  0  0  0
   -4.2442   -0.1520   -5.1646 C   0  0  0  0  0  0  0  0  0  0  0  0
   -5.3017    0.0350   -5.3148 H   0  0  0  0  0  0  0  0  0  0  0  0
   -3.4479   -0.6195   -6.2190 C   0  0  0  0  0  0  0  0  0  0  0  0
   -3.8897   -0.7963   -7.1953 H   0  0  0  0  0  0  0  0  0  0  0  0
   -2.0800   -0.8558   -6.0157 C   0  0  0  0  0  0  0  0  0  0  0  0
   -1.4652   -1.2141   -6.8360 H   0  0  0  0  0  0  0  0  0  0  0  0
   -1.5018   -0.6259   -4.7589 C   0  0  0  0  0  0  0  0  0  0  0  0
   -0.4425   -0.8035   -4.6047 H   0  0  0  0  0  0  0  0  0  0  0  0
   -2.3025   -0.1581   -3.7106 C   0  0  0  0  0  0  0  0  0  0  0  0
   -0.5404   -0.3256    0.9085 C   0  0  0  0  0  0  0  0  0  0  0  0
    0.5865   -0.0518    1.3008 O   0  0  0  0  0  0  0  0  0  0  0  0
   -1.6268    0.2744    1.5214 N   0  0  0  0  0  0  0  0  0  0  0  0
   -2.5302   -0.1102    1.2674 H   0  0  0  0  0  0  0  0  0  0  0  0
   -1.5106    0.9847    2.7893 C   0  0  0  0  0  0  0  0  0  0  0  0
   -0.8229    1.8316    2.6927 H   0  0  0  0  0  0  0  0  0  0  0  0
   -2.4870    1.3692    3.0989 H   0  0  0  0  0  0  0  0  0  0  0  0
   -1.1369    0.3145    3.5710 H   0  0  0  0  0  0  0  0  0  0  0  0
  1  2  1  0  0  0  0
  2  3  1  0  0  0  0
  2  4  1  0  0  0  0
  2  5  1  0  0  0  0
  5  6  2  0  0  0  0
  5  7  1  0  0  0  0
  7  8  1  0  0  0  0
  7  9  1  0  0  0  0
  9 10  1  0  0  0  0
  9 11  1  0  0  0  0
  9 29  1  0  0  0  0
 11 12  1  0  0  0  0
 11 13  1  0  0  0  0
 11 14  1  0  0  0  0
 14 15  2  0  0  0  0
 14 28  1  0  0  0  0
 15 16  1  0  0  0  0
 15 17  1  0  0  0  0
 17 18  1  0  0  0  0
 17 19  1  0  0  0  0
 19 20  1  0  0  0  0
 19 28  2  0  0  0  0
 20 21  1  0  0  0  0
 20 22  2  0  0  0  0
 22 23  1  0  0  0  0
 22 24  1  0  0  0  0
 24 25  1  0  0  0  0
 24 26  2  0  0  0  0
 26 27  1  0  0  0  0
 26 28  1  0  0  0  0
 29 30  2  0  0  0  0
 29 31  1  0  0  0  0
 31 32  1  0  0  0  0
 31 33  1  0  0  0  0
 33 34  1  0  0  0  0
 33 35  1  0  0  0  0
 33 36  1  0  0  0  0
M  END
$$$$

  -OEChem-03222214083D

 36 37  0     1  0  0  0  0  0999 V2000
   -3.4363   -4.6553    0.6494 H   0  0  0  0  0  0  0  0  0  0  0  0
   -3.3628   -3.8451   -0.0817 C   0  0  0  0  0  0  0  0  0  0  0  0
   -4.2789   -3.2509   -0.0433 H   0  0  0  0  0  0  0  0  0  0  0  0
   -3.2589   -4.2796   -1.0790 H   0  0  0  0  0  0  0  0  0  0  0  0
   -2.1633   -2.9701    0.2271 C   0  0  0  0  0  0  0  0  0  0  0  0
   -1.4611   -3.2139    1.1916 O   0  0  0  0  0  0  0  0  0  0  0  0
   -1.8810   -1.8899   -0.5809 N   0  0  0  0  0  0  0  0  0  0  0  0
   -2.4676   -1.7618   -1.4053 H   0  0  0  0  0  0  0  0  0  0  0  0
   -0.6789   -1.0365   -0.4741 C   0  0  1  0  0  0  0  0  0  0  0  0
    0.2016   -1.6806   -0.5746 H   0  0  0  0  0  0  0  0  0  0  0  0
   -0.6320    0.0164   -1.6110 C   0  0  0  0  0  0  0  0  0  0  0  0
   -0.3192    0.9874   -1.2113 H   0  0  0  0  0  0  0  0  0  0  0  0
    0.1310   -0.2813   -2.3363 H   0  0  0  0  0  0  0  0  0  0  0  0
   -1.9497    0.1851   -2.3312 C   0  0  0  0  0  0  0  0  0  0  0  0
   -3.0484    0.8480   -1.8382 C   0  0  0  0  0  0  0  0  0  0  0  0
   -3.0841    1.3998   -0.9003 H   0  0  0  0  0  0  0  0  0  0  0  0
   -4.0868    0.6750   -2.7499 N   0  0  0  0  0  0  0  0  0  0  0  0
   -5.0125    1.0946   -2.6757 H   0  0  0  0  0  0  0  0  0  0  0  0
   -3.6696   -0.1075   -3.8148 C   0  0  0  0  0  0  0  0  0  0  0  0
   -4.3384   -0.5609   -4.9516 C   0  0  0  0  0  0  0  0  0  0  0  0
   -5.3763   -0.2949   -5.1188 H   0  0  0  0  0  0  0  0  0  0  0  0
   -3.6517   -1.3646   -5.8725 C   0  0  0  0  0  0  0  0  0  0  0  0
   -4.1593   -1.7238   -6.7631 H   0  0  0  0  0  0  0  0  0  0  0  0
   -2.3087   -1.7038   -5.6466 C   0  0  0  0  0  0  0  0  0  0  0  0
   -1.7791   -2.3241   -6.3637 H   0  0  0  0  0  0  0  0  0  0  0  0
   -1.6459   -1.2411   -4.5009 C   0  0  0  0  0  0  0  0  0  0  0  0
   -0.6066   -1.5004   -4.3261 H   0  0  0  0  0  0  0  0  0  0  0  0
   -2.3382   -0.4376   -3.5892 C   0  0  0  0  0  0  0  0  0  0  0  0
   -0.5420   -0.3320    0.8925 C   0  0  0  0  0  0  0  0  0  0  0  0
    0.5703   -0.0695    1.3313 O   0  0  0  0  0  0  0  0  0  0  0  0
   -1.6489    0.2716    1.4631 N   0  0  0  0  0  0  0  0  0  0  0  0
   -2.5448   -0.0903    1.1529 H   0  0  0  0  0  0  0  0  0  0  0  0
   -1.5857    0.9635    2.7440 C   0  0  0  0  0  0  0  0  0  0  0  0
   -0.8963    1.8125    2.6874 H   0  0  0  0  0  0  0  0  0  0  0  0
   -2.5749    1.3412    3.0192 H   0  0  0  0  0  0  0  0  0  0  0  0
   -1.2423    0.2819    3.5296 H   0  0  0  0  0  0  0  0  0  0  0  0
  1  2  1  0  0  0  0
  2  3  1  0  0  0  0
  2  4  1  0  0  0  0
  2  5  1  0  0  0  0
  5  6  2  0  0  0  0
  5  7  1  0  0  0  0
  7  8  1  0  0  0  0
  7  9  1  0  0  0  0
  9 10  1  0  0  0  0
  9 11  1  0  0  0  0
  9 29  1  0  0  0  0
 11 12  1  0  0  0  0
 11 13  1  0  0  0  0
 11 14  1  0  0  0  0
 14 15  2  0  0  0  0
 14 28  1  0  0  0  0
 15 16  1  0  0  0  0
 15 17  1  0  0  0  0
 17 18  1  0  0  0  0
 17 19  1  0  0  0  0
 19 20  1  0  0  0  0
 19 28  2  0  0  0  0
 20 21  1  0  0  0  0
 20 22  2  0  0  0  0
 22 23  1  0  0  0  0
 22 24  1  0  0  0  0
 24 25  1  0  0  0  0
 24 26  2  0  0  0  0
 26 27  1  0  0  0  0
 26 28  1  0  0  0  0
 29 30  2  0  0  0  0
 29 31  1  0  0  0  0
 31 32  1  0  0  0  0
 31 33  1  0  0  0  0
 33 34  1  0  0  0  0
 33 35  1  0  0  0  0
 33 36  1  0  0  0  0
M  END
$$$$

  -OEChem-03222214083D

 36 37  0     1  0  0  0  0  0999 V2000
   -3.4344   -4.6782    0.6869 H   0  0  0  0  0  0  0  0  0  0  0  0
   -3.3718   -3.8596   -0.0357 C   0  0  0  0  0  0  0  0  0  0  0  0
   -4.2818   -3.2585    0.0318 H   0  0  0  0  0  0  0  0  0  0  0  0
   -3.2967   -4.2823   -1.0408 H   0  0  0  0  0  0  0  0  0  0  0  0
   -2.1583   -2.9974    0.2547 C   0  0  0  0  0  0  0  0  0  0  0  0
   -1.4461   -3.2436    1.2112 O   0  0  0  0  0  0  0  0  0  0  0  0
   -1.8716   -1.9289   -0.5664 N   0  0  0  0  0  0  0  0  0  0  0  0
   -2.4738   -1.7930   -1.3782 H   0  0  0  0  0  0  0  0  0  0  0  0
   -0.6729   -1.0704   -0.4676 C   0  0  1  0  0  0  0  0  0  0  0  0
    0.2113   -1.7105   -0.5579 H   0  0  0  0  0  0  0  0  0  0  0  0
   -0.6314   -0.0277   -1.6142 C   0  0  0  0  0  0  0  0  0  0  0  0
   -0.3193    0.9473   -1.2233 H   0  0  0  0  0  0  0  0  0  0  0  0
    0.1285   -0.3296   -2.3412 H   0  0  0  0  0  0  0  0  0  0  0  0
   -1.9510    0.1270   -2.3340 C   0  0  0  0  0  0  0  0  0  0  0  0
   -2.9491    1.0104   -2.0019 C   0  0  0  0  0  0  0  0  0  0  0  0
   -2.9005    1.7482   -1.2029 H   0  0  0  0  0  0  0  0  0  0  0  0
   -4.0187    0.7765   -2.8639 N   0  0  0  0  0  0  0  0  0  0  0  0
   -4.8878    1.3081   -2.8801 H   0  0  0  0  0  0  0  0  0  0  0  0
   -3.7184   -0.2524   -3.7427 C   0  0  0  0  0  0  0  0  0  0  0  0
   -4.4523   -0.8451   -4.7704 C   0  0  0  0  0  0  0  0  0  0  0  0
   -5.4529   -0.4962   -5.0021 H   0  0  0  0  0  0  0  0  0  0  0  0
   -3.8787   -1.8959   -5.5004 C   0  0  0  0  0  0  0  0  0  0  0  0
   -4.4365   -2.3647   -6.3060 H   0  0  0  0  0  0  0  0  0  0  0  0
   -2.5829   -2.3406   -5.1951 C   0  0  0  0  0  0  0  0  0  0  0  0
   -2.1409   -3.1526   -5.7650 H   0  0  0  0  0  0  0  0  0  0  0  0
   -1.8532   -1.7354   -4.1623 C   0  0  0  0  0  0  0  0  0  0  0  0
   -0.8484   -2.0726   -3.9266 H   0  0  0  0  0  0  0  0  0  0  0  0
   -2.4330   -0.6865   -3.4422 C   0  0  0  0  0  0  0  0  0  0  0  0
   -0.5447   -0.3440    0.8883 C   0  0  0  0  0  0  0  0  0  0  0  0
    0.5646   -0.0748    1.3310 O   0  0  0  0  0  0  0  0  0  0  0  0
   -1.6553    0.2659    1.4447 N   0  0  0  0  0  0  0  0  0  0  0  0
   -2.5525   -0.0761    1.1157 H   0  0  0  0  0  0  0  0  0  0  0  0
   -1.6022    0.9945    2.7056 C   0  0  0  0  0  0  0  0  0  0  0  0
   -0.8973    1.8300    2.6368 H   0  0  0  0  0  0  0  0  0  0  0  0
   -2.5891    1.3975    2.9517 H   0  0  0  0  0  0  0  0  0  0  0  0
   -1.2840    0.3315    3.5172 H   0  0  0  0  0  0  0  0  0  0  0  0
  1  2  1  0  0  0  0
  2  3  1  0  0  0  0
  2  4  1  0  0  0  0
  2  5  1  0  0  0  0
  5  6  2  0  0  0  0
  5  7  1  0  0  0  0
  7  8  1  0  0  0  0
  7  9  1  0  0  0  0
  9 10  1  0  0  0  0
  9 11  1  0  0  0  0
  9 29  1  0  0  0  0
 11 12  1  0  0  0  0
 11 13  1  0  0  0  0
 11 14  1  0  0  0  0
 14 15  2  0  0  0  0
 14 28  1  0  0  0  0
 15 16  1  0  0  0  0
 15 17  1  0  0  0  0
 17 18  1  0  0  0  0
 17 19  1  0  0  0  0
 19 20  1  0  0  0  0
 19 28  2  0  0  0  0
 20 21  1  0  0  0  0
 20 22  2  0  0  0  0
 22 23  1  0  0  0  0
 22 24  1  0  0  0  0
 24 25  1  0  0  0  0
 24 26  2  0  0  0  0
 26 27  1  0  0  0  0
 26 28  1  0  0  0  0
 29 30  2  0  0  0  0
 29 31  1  0  0  0  0
 31 32  1  0  0  0  0
 31 33  1  0  0  0  0
 33 34  1  0  0  0  0
 33 35  1  0  0  0  0
 33 36  1  0  0  0  0
M  END
$$$$

  -OEChem-03222214083D

 36 37  0     1  0  0  0  0  0999 V2000
   -3.4046   -4.6859    0.8445 H   0  0  0  0  0  0  0  0  0  0  0  0
   -3.3634   -3.8782    0.1084 C   0  0  0  0  0  0  0  0  0  0  0  0
   -4.2654   -3.2687    0.2022 H   0  0  0  0  0  0  0  0  0  0  0  0
   -3.3300   -4.3154   -0.8926 H   0  0  0  0  0  0  0  0  0  0  0  0
   -2.1330   -3.0228    0.3412 C   0  0  0  0  0  0  0  0  0  0  0  0
   -1.3879   -3.2619    1.2741 O   0  0  0  0  0  0  0  0  0  0  0  0
   -1.8654   -1.9726   -0.5092 N   0  0  0  0  0  0  0  0  0  0  0  0
   -2.5001   -1.8386   -1.2961 H   0  0  0  0  0  0  0  0  0  0  0  0
   -0.6754   -1.1003   -0.4466 C   0  0  1  0  0  0  0  0  0  0  0  0
    0.2153   -1.7323   -0.5298 H   0  0  0  0  0  0  0  0  0  0  0  0
   -0.6523   -0.0801   -1.6150 C   0  0  0  0  0  0  0  0  0  0  0  0
   -0.3343    0.9022   -1.2483 H   0  0  0  0  0  0  0  0  0  0  0  0
    0.0990   -0.4003   -2.3437 H   0  0  0  0  0  0  0  0  0  0  0  0
   -1.9743    0.0606   -2.3355 C   0  0  0  0  0  0  0  0  0  0  0  0
   -2.8434    1.1169   -2.2130 C   0  0  0  0  0  0  0  0  0  0  0  0
   -2.6874    1.9938   -1.5872 H   0  0  0  0  0  0  0  0  0  0  0  0
   -3.9463    0.8489   -3.0216 N   0  0  0  0  0  0  0  0  0  0  0  0
   -4.7457    1.4677   -3.1490 H   0  0  0  0  0  0  0  0  0  0  0  0
   -3.7848   -0.3609   -3.6783 C   0  0  0  0  0  0  0  0  0  0  0  0
   -4.5957   -1.0489   -4.5809 C   0  0  0  0  0  0  0  0  0  0  0  0
   -5.5503   -0.6333   -4.8847 H   0  0  0  0  0  0  0  0  0  0  0  0
   -4.1598   -2.2805   -5.0906 C   0  0  0  0  0  0  0  0  0  0  0  0
   -4.7809   -2.8258   -5.7955 H   0  0  0  0  0  0  0  0  0  0  0  0
   -2.9199   -2.8071   -4.6962 C   0  0  0  0  0  0  0  0  0  0  0  0
   -2.5832   -3.7585   -5.0977 H   0  0  0  0  0  0  0  0  0  0  0  0
   -2.1113   -2.1058   -3.7910 C   0  0  0  0  0  0  0  0  0  0  0  0
   -1.1483   -2.5058   -3.4878 H   0  0  0  0  0  0  0  0  0  0  0  0
   -2.5583   -0.8812   -3.2837 C   0  0  0  0  0  0  0  0  0  0  0  0
   -0.5470   -0.3416    0.8919 C   0  0  0  0  0  0  0  0  0  0  0  0
    0.5616   -0.0654    1.3320 O   0  0  0  0  0  0  0  0  0  0  0  0
   -1.6603    0.2681    1.4434 N   0  0  0  0  0  0  0  0  0  0  0  0
   -2.5582   -0.0527    1.0949 H   0  0  0  0  0  0  0  0  0  0  0  0
   -1.6160    1.0089    2.6974 C   0  0  0  0  0  0  0  0  0  0  0  0
   -0.8995    1.8345    2.6308 H   0  0  0  0  0  0  0  0  0  0  0  0
   -2.6015    1.4267    2.9243 H   0  0  0  0  0  0  0  0  0  0  0  0
   -1.3189    0.3497    3.5200 H   0  0  0  0  0  0  0  0  0  0  0  0
  1  2  1  0  0  0  0
  2  3  1  0  0  0  0
  2  4  1  0  0  0  0
  2  5  1  0  0  0  0
  5  6  2  0  0  0  0
  5  7  1  0  0  0  0
  7  8  1  0  0  0  0
  7  9  1  0  0  0  0
  9 10  1  0  0  0  0
  9 11  1  0  0  0  0
  9 29  1  0  0  0  0
 11 12  1  0  0  0  0
 11 13  1  0  0  0  0
 11 14  1  0  0  0  0
 14 15  2  0  0  0  0
 14 28  1  0  0  0  0
 15 16  1  0  0  0  0
 15 17  1  0  0  0  0
 17 18  1  0  0  0  0
 17 19  1  0  0  0  0
 19 20  1  0  0  0  0
 19 28  2  0  0  0  0
 20 21  1  0  0  0  0
 20 22  2  0  0  0  0
 22 23  1  0  0  0  0
 22 24  1  0  0  0  0
 24 25  1  0  0  0  0
 24 26  2  0  0  0  0
 26 27  1  0  0  0  0
 26 28  1  0  0  0  0
 29 30  2  0  0  0  0
 29 31  1  0  0  0  0
 31 32  1  0  0  0  0
 31 33  1  0  0  0  0
 33 34  1  0  0  0  0
 33 35  1  0  0  0  0
 33 36  1  0  0  0  0
M  END
$$$$

  -OEChem-03222214083D

 36 37  0     1  0  0  0  0  0999 V2000
   -3.3341   -4.6882    1.1317 H   0  0  0  0  0  0  0  0  0  0  0  0
   -3.3271   -3.9106    0.3628 C   0  0  0  0  0  0  0  0  0  0  0  0
   -4.2244   -3.2969    0.4730 H   0  0  0  0  0  0  0  0  0  0  0  0
   -3.3394   -4.3873   -0.6206 H   0  0  0  0  0  0  0  0  0  0  0  0
   -2.0879   -3.0477    0.5046 C   0  0  0  0  0  0  0  0  0  0  0  0
   -1.2900   -3.2633    1.3988 O   0  0  0  0  0  0  0  0  0  0  0  0
   -1.8679   -2.0231   -0.3902 N   0  0  0  0  0  0  0  0  0  0  0  0
   -2.5591   -1.8935   -1.1282 H   0  0  0  0  0  0  0  0  0  0  0  0
   -0.6929   -1.1303   -0.3985 C   0  0  1  0  0  0  0  0  0  0  0  0
    0.2052   -1.7519   -0.4861 H   0  0  0  0  0  0  0  0  0  0  0  0
   -0.7125   -0.1428   -1.5961 C   0  0  0  0  0  0  0  0  0  0  0  0
   -0.3797    0.8488   -1.2697 H   0  0  0  0  0  0  0  0  0  0  0  0
    0.0198   -0.4906   -2.3314 H   0  0  0  0  0  0  0  0  0  0  0  0
   -2.0451   -0.0177   -2.3049 C   0  0  0  0  0  0  0  0  0  0  0  0
   -2.7613    1.1489   -2.4206 C   0  0  0  0  0  0  0  0  0  0  0  0
   -2.4847    2.1050   -1.9800 H   0  0  0  0  0  0  0  0  0  0  0  0
   -3.8932    0.8793   -3.1860 N   0  0  0  0  0  0  0  0  0  0  0  0
   -4.6000    1.5637   -3.4502 H   0  0  0  0  0  0  0  0  0  0  0  0
   -3.8827   -0.4360   -3.6184 C   0  0  0  0  0  0  0  0  0  0  0  0
   -4.7674   -1.1554   -4.4217 C   0  0  0  0  0  0  0  0  0  0  0  0
   -5.6634   -0.6828   -4.8092 H   0  0  0  0  0  0  0  0  0  0  0  0
   -4.4784   -2.4921   -4.7294 C   0  0  0  0  0  0  0  0  0  0  0  0
   -5.1575   -3.0635   -5.3557 H   0  0  0  0  0  0  0  0  0  0  0  0
   -3.3052   -3.0880   -4.2424 C   0  0  0  0  0  0  0  0  0  0  0  0
   -3.0762   -4.1190   -4.4969 H   0  0  0  0  0  0  0  0  0  0  0  0
   -2.4222   -2.3540   -3.4378 C   0  0  0  0  0  0  0  0  0  0  0  0
   -1.5056   -2.8092   -3.0736 H   0  0  0  0  0  0  0  0  0  0  0  0
   -2.7305   -1.0270   -3.1130 C   0  0  0  0  0  0  0  0  0  0  0  0
   -0.5386   -0.3266    0.9106 C   0  0  0  0  0  0  0  0  0  0  0  0
    0.5766   -0.0198    1.3118 O   0  0  0  0  0  0  0  0  0  0  0  0
   -1.6470    0.2792    1.4751 N   0  0  0  0  0  0  0  0  0  0  0  0
   -2.5489   -0.0518    1.1475 H   0  0  0  0  0  0  0  0  0  0  0  0
   -1.5864    1.0530    2.7079 C   0  0  0  0  0  0  0  0  0  0  0  0
   -0.8744    1.8792    2.6096 H   0  0  0  0  0  0  0  0  0  0  0  0
   -2.5699    1.4733    2.9385 H   0  0  0  0  0  0  0  0  0  0  0  0
   -1.2750    0.4161    3.5426 H   0  0  0  0  0  0  0  0  0  0  0  0
  1  2  1  0  0  0  0
  2  3  1  0  0  0  0
  2  4  1  0  0  0  0
  2  5  1  0  0  0  0
  5  6  2  0  0  0  0
  5  7  1  0  0  0  0
  7  8  1  0  0  0  0
  7  9  1  0  0  0  0
  9 10  1  0  0  0  0
  9 11  1  0  0  0  0
  9 29  1  0  0  0  0
 11 12  1  0  0  0  0
 11 13  1  0  0  0  0
 11 14  1  0  0  0  0
 14 15  2  0  0  0  0
 14 28  1  0  0  0  0
 15 16  1  0  0  0  0
 15 17  1  0  0  0  0
 17 18  1  0  0  0  0
 17 19  1  0  0  0  0
 19 20  1  0  0  0  0
 19 28  2  0  0  0  0
 20 21  1  0  0  0  0
 20 22  2  0  0  0  0
 22 23  1  0  0  0  0
 22 24  1  0  0  0  0
 24 25  1  0  0  0  0
 24 26  2  0  0  0  0
 26 27  1  0  0  0  0
 26 28  1  0  0  0  0
 29 30  2  0  0  0  0
 29 31  1  0  0  0  0
 31 32  1  0  0  0  0
 31 33  1  0  0  0  0
 33 34  1  0  0  0  0
 33 35  1  0  0  0  0
 33 36  1  0  0  0  0
M  END
$$$$

  -OEChem-03222214083D

 36 37  0     1  0  0  0  0  0999 V2000
   -3.2657   -4.6373    1.4766 H   0  0  0  0  0  0  0  0  0  0  0  0
   -3.2842   -3.9230    0.6486 C   0  0  0  0  0  0  0  0  0  0  0  0
   -4.1739   -3.2961    0.7444 H   0  0  0  0  0  0  0  0  0  0  0  0
   -3.3374   -4.4754   -0.2926 H   0  0  0  0  0  0  0  0  0  0  0  0
   -2.0353   -3.0623    0.6744 C   0  0  0  0  0  0  0  0  0  0  0  0
   -1.1679   -3.2661    1.5043 O   0  0  0  0  0  0  0  0  0  0  0  0
   -1.8824   -2.0561   -0.2550 N   0  0  0  0  0  0  0  0  0  0  0  0
   -2.6365   -1.9239   -0.9278 H   0  0  0  0  0  0  0  0  0  0  0  0
   -0.7260   -1.1472   -0.3453 C   0  0  1  0  0  0  0  0  0  0  0  0
    0.1743   -1.7611   -0.4605 H   0  0  0  0  0  0  0  0  0  0  0  0
   -0.8041   -0.1847   -1.5618 C   0  0  0  0  0  0  0  0  0  0  0  0
   -0.4504    0.8119   -1.2751 H   0  0  0  0  0  0  0  0  0  0  0  0
   -0.1017   -0.5581   -2.3135 H   0  0  0  0  0  0  0  0  0  0  0  0
   -2.1534   -0.0637   -2.2448 C   0  0  0  0  0  0  0  0  0  0  0  0
   -2.7071    1.1417   -2.6070 C   0  0  0  0  0  0  0  0  0  0  0  0
   -2.3027    2.1204   -2.3556 H   0  0  0  0  0  0  0  0  0  0  0  0
   -3.8724    0.8869   -3.3231 N   0  0  0  0  0  0  0  0  0  0  0  0
   -4.4895    1.5971   -3.7140 H   0  0  0  0  0  0  0  0  0  0  0  0
   -4.0131   -0.4714   -3.5391 C   0  0  0  0  0  0  0  0  0  0  0  0
   -4.9680   -1.1906   -4.2572 C   0  0  0  0  0  0  0  0  0  0  0  0
   -5.8031   -0.6784   -4.7228 H   0  0  0  0  0  0  0  0  0  0  0  0
   -4.8225   -2.5779   -4.3863 C   0  0  0  0  0  0  0  0  0  0  0  0
   -5.5562   -3.1510   -4.9459 H   0  0  0  0  0  0  0  0  0  0  0  0
   -3.7137   -3.2219   -3.8193 C   0  0  0  0  0  0  0  0  0  0  0  0
   -3.5855   -4.2928   -3.9487 H   0  0  0  0  0  0  0  0  0  0  0  0
   -2.7609   -2.4858   -3.1018 C   0  0  0  0  0  0  0  0  0  0  0  0
   -1.8862   -2.9871   -2.6981 H   0  0  0  0  0  0  0  0  0  0  0  0
   -2.9365   -1.1048   -2.9263 C   0  0  0  0  0  0  0  0  0  0  0  0
   -0.5166   -0.3110    0.9362 C   0  0  0  0  0  0  0  0  0  0  0  0
    0.6139    0.0162    1.2737 O   0  0  0  0  0  0  0  0  0  0  0  0
   -1.6007    0.2930    1.5483 N   0  0  0  0  0  0  0  0  0  0  0  0
   -2.5183   -0.0325    1.2616 H   0  0  0  0  0  0  0  0  0  0  0  0
   -1.4835    1.1187    2.7432 C   0  0  0  0  0  0  0  0  0  0  0  0
   -0.8157    1.9671    2.5604 H   0  0  0  0  0  0  0  0  0  0  0  0
   -2.4644    1.5095    3.0301 H   0  0  0  0  0  0  0  0  0  0  0  0
   -1.0858    0.5303    3.5768 H   0  0  0  0  0  0  0  0  0  0  0  0
  1  2  1  0  0  0  0
  2  3  1  0  0  0  0
  2  4  1  0  0  0  0
  2  5  1  0  0  0  0
  5  6  2  0  0  0  0
  5  7  1  0  0  0  0
  7  8  1  0  0  0  0
  7  9  1  0  0  0  0
  9 10  1  0  0  0  0
  9 11  1  0  0  0  0
  9 29  1  0  0  0  0
 11 12  1  0  0  0  0
 11 13  1  0  0  0  0
 11 14  1  0  0  0  0
 14 15  2  0  0  0  0
 14 28  1  0  0  0  0
 15 16  1  0  0  0  0
 15 17  1  0  0  0  0
 17 18  1  0  0  0  0
 17 19  1  0  0  0  0
 19 20  1  0  0  0  0
 19 28  2  0  0  0  0
 20 21  1  0  0  0  0
 20 22  2  0  0  0  0
 22 23  1  0  0  0  0
 22 24  1  0  0  0  0
 24 25  1  0  0  0  0
 24 26  2  0  0  0  0
 26 27  1  0  0  0  0
 26 28  1  0  0  0  0
 29 30  2  0  0  0  0
 29 31  1  0  0  0  0
 31 32  1  0  0  0  0
 31 33  1  0  0  0  0
 33 34  1  0  0  0  0
 33 35  1  0  0  0  0
 33 36  1  0  0  0  0
M  END
$$$$

  -OEChem-03222214083D

 36 37  0     1  0  0  0  0  0999 V2000
   -3.1314   -4.5854    1.7803 H   0  0  0  0  0  0  0  0  0  0  0  0
   -3.1838   -3.9379    0.9006 C   0  0  0  0  0  0  0  0  0  0  0  0
   -4.0749   -3.3106    0.9787 H   0  0  0  0  0  0  0  0  0  0  0  0
   -3.2637   -4.5622    0.0074 H   0  0  0  0  0  0  0  0  0  0  0  0
   -1.9415   -3.0716    0.8161 C   0  0  0  0  0  0  0  0  0  0  0  0
   -1.0060   -3.2684    1.5700 O   0  0  0  0  0  0  0  0  0  0  0  0
   -1.8726   -2.0696   -0.1281 N   0  0  0  0  0  0  0  0  0  0  0  0
   -2.6946   -1.9201   -0.7110 H   0  0  0  0  0  0  0  0  0  0  0  0
   -0.7489   -1.1373   -0.2968 C   0  0  1  0  0  0  0  0  0  0  0  0
    0.1544   -1.7364   -0.4563 H   0  0  0  0  0  0  0  0  0  0  0  0
   -0.9034   -0.1905   -1.5187 C   0  0  0  0  0  0  0  0  0  0  0  0
   -0.5421    0.8107   -1.2579 H   0  0  0  0  0  0  0  0  0  0  0  0
   -0.2264   -0.5689   -2.2912 H   0  0  0  0  0  0  0  0  0  0  0  0
   -2.2705   -0.0701   -2.1758 C   0  0  0  0  0  0  0  0  0  0  0  0
   -2.6528    1.1072   -2.7784 C   0  0  0  0  0  0  0  0  0  0  0  0
   -2.1123    2.0494   -2.7094 H   0  0  0  0  0  0  0  0  0  0  0  0
   -3.8548    0.8996   -3.4422 N   0  0  0  0  0  0  0  0  0  0  0  0
   -4.3711    1.6077   -3.9612 H   0  0  0  0  0  0  0  0  0  0  0  0
   -4.1673   -0.4437   -3.4372 C   0  0  0  0  0  0  0  0  0  0  0  0
   -5.2088   -1.1219   -4.0694 C   0  0  0  0  0  0  0  0  0  0  0  0
   -5.9738   -0.5731   -4.6077 H   0  0  0  0  0  0  0  0  0  0  0  0
   -5.2342   -2.5198   -4.0282 C   0  0  0  0  0  0  0  0  0  0  0  0
   -6.0347   -3.0640   -4.5212 H   0  0  0  0  0  0  0  0  0  0  0  0
   -4.1988   -3.2153   -3.3917 C   0  0  0  0  0  0  0  0  0  0  0  0
   -4.1900   -4.3013   -3.4049 H   0  0  0  0  0  0  0  0  0  0  0  0
   -3.1595   -2.5161   -2.7628 C   0  0  0  0  0  0  0  0  0  0  0  0
   -2.3369   -3.0827   -2.3401 H   0  0  0  0  0  0  0  0  0  0  0  0
   -3.1714   -1.1097   -2.7243 C   0  0  0  0  0  0  0  0  0  0  0  0
   -0.4745   -0.2836    0.9612 C   0  0  0  0  0  0  0  0  0  0  0  0
    0.6686    0.0727    1.2170 O   0  0  0  0  0  0  0  0  0  0  0  0
   -1.5255    0.3051    1.6420 N   0  0  0  0  0  0  0  0  0  0  0  0
   -2.4580   -0.0233    1.4131 H   0  0  0  0  0  0  0  0  0  0  0  0
   -1.3413    1.1800    2.7926 C   0  0  0  0  0  0  0  0  0  0  0  0
   -0.7464    2.0569    2.5160 H   0  0  0  0  0  0  0  0  0  0  0  0
   -2.3103    1.5250    3.1652 H   0  0  0  0  0  0  0  0  0  0  0  0
   -0.8286    0.6467    3.6000 H   0  0  0  0  0  0  0  0  0  0  0  0
  1  2  1  0  0  0  0
  2  3  1  0  0  0  0
  2  4  1  0  0  0  0
  2  5  1  0  0  0  0
  5  6  2  0  0  0  0
  5  7  1  0  0  0  0
  7  8  1  0  0  0  0
  7  9  1  0  0  0  0
  9 10  1  0  0  0  0
  9 11  1  0  0  0  0
  9 29  1  0  0  0  0
 11 12  1  0  0  0  0
 11 13  1  0  0  0  0
 11 14  1  0  0  0  0
 14 15  2  0  0  0  0
 14 28  1  0  0  0  0
 15 16  1  0  0  0  0
 15 17  1  0  0  0  0
 17 18  1  0  0  0  0
 17 19  1  0  0  0  0
 19 20  1  0  0  0  0
 19 28  2  0  0  0  0
 20 21  1  0  0  0  0
 20 22  2  0  0  0  0
 22 23  1  0  0  0  0
 22 24  1  0  0  0  0
 24 25  1  0  0  0  0
 24 26  2  0  0  0  0
 26 27  1  0  0  0  0
 26 28  1  0  0  0  0
 29 30  2  0  0  0  0
 29 31  1  0  0  0  0
 31 32  1  0  0  0  0
 31 33  1  0  0  0  0
 33 34  1  0  0  0  0
 33 35  1  0  0  0  0
 33 36  1  0  0  0  0
M  END
$$$$

  -OEChem-03222214083D

 36 37  0     1  0  0  0  0  0999 V2000
   -2.7648   -4.6185    1.9740 H   0  0  0  0  0  0  0  0  0  0  0  0
   -2.9033   -4.0108    1.0751 C   0  0  0  0  0  0  0  0  0  0  0  0
   -3.8073   -3.4088    1.1943 H   0  0  0  0  0  0  0  0  0  0  0  0
   -3.0262   -4.6751    0.2164 H   0  0  0  0  0  0  0  0  0  0  0  0
   -1.6997   -3.1114    0.8644 C   0  0  0  0  0  0  0  0  0  0  0  0
   -0.6925   -3.2790    1.5276 O   0  0  0  0  0  0  0  0  0  0  0  0
   -1.7476   -2.1118   -0.0858 N   0  0  0  0  0  0  0  0  0  0  0  0
   -2.6401   -1.9469   -0.5452 H   0  0  0  0  0  0  0  0  0  0  0  0
   -0.6963   -1.1163   -0.3014 C   0  0  1  0  0  0  0  0  0  0  0  0
    0.2343   -1.6607   -0.4975 H   0  0  0  0  0  0  0  0  0  0  0  0
   -0.9463   -0.1749   -1.5098 C   0  0  0  0  0  0  0  0  0  0  0  0
   -0.6167    0.8363   -1.2443 H   0  0  0  0  0  0  0  0  0  0  0  0
   -0.2660   -0.5170   -2.2963 H   0  0  0  0  0  0  0  0  0  0  0  0
   -2.3173   -0.0690   -2.1757 C   0  0  0  0  0  0  0  0  0  0  0  0
   -2.5106    1.0193   -2.9983 C   0  0  0  0  0  0  0  0  0  0  0  0
   -1.8153    1.8496   -3.1074 H   0  0  0  0  0  0  0  0  0  0  0  0
   -3.7574    0.9227   -3.5932 N   0  0  0  0  0  0  0  0  0  0  0  0
   -4.1647    1.6078   -4.2274 H   0  0  0  0  0  0  0  0  0  0  0  0
   -4.3070   -0.3084   -3.3172 C   0  0  0  0  0  0  0  0  0  0  0  0
   -5.4977   -0.8470   -3.8012 C   0  0  0  0  0  0  0  0  0  0  0  0
   -6.1666   -0.2446   -4.4063 H   0  0  0  0  0  0  0  0  0  0  0  0
   -5.7996   -2.1816   -3.5234 C   0  0  0  0  0  0  0  0  0  0  0  0
   -6.7212   -2.6213   -3.8938 H   0  0  0  0  0  0  0  0  0  0  0  0
   -4.8805   -2.9618   -2.8153 C   0  0  0  0  0  0  0  0  0  0  0  0
   -5.0821   -4.0171   -2.6551 H   0  0  0  0  0  0  0  0  0  0  0  0
   -3.6869   -2.3981   -2.3426 C   0  0  0  0  0  0  0  0  0  0  0  0
   -2.9753   -3.0779   -1.8946 H   0  0  0  0  0  0  0  0  0  0  0  0
   -3.4133   -1.0239   -2.5146 C   0  0  0  0  0  0  0  0  0  0  0  0
   -0.4275   -0.2508    0.9506 C   0  0  0  0  0  0  0  0  0  0  0  0
    0.7016    0.1678    1.1718 O   0  0  0  0  0  0  0  0  0  0  0  0
   -1.4864    0.2674    1.6757 N   0  0  0  0  0  0  0  0  0  0  0  0
   -2.4129   -0.0781    1.4492 H   0  0  0  0  0  0  0  0  0  0  0  0
   -1.3175    1.1559    2.8180 C   0  0  0  0  0  0  0  0  0  0  0  0
   -0.7990    2.0723    2.5172 H   0  0  0  0  0  0  0  0  0  0  0  0
   -2.2927    1.4311    3.2306 H   0  0  0  0  0  0  0  0  0  0  0  0
   -0.7353    0.6621    3.6032 H   0  0  0  0  0  0  0  0  0  0  0  0
  1  2  1  0  0  0  0
  2  3  1  0  0  0  0
  2  4  1  0  0  0  0
  2  5  1  0  0  0  0
  5  6  2  0  0  0  0
  5  7  1  0  0  0  0
  7  8  1  0  0  0  0
  7  9  1  0  0  0  0
  9 10  1  0  0  0  0
  9 11  1  0  0  0  0
  9 29  1  0  0  0  0
 11 12  1  0  0  0  0
 11 13  1  0  0  0  0
 11 14  1  0  0  0  0
 14 15  2  0  0  0  0
 14 28  1  0  0  0  0
 15 16  1  0  0  0  0
 15 17  1  0  0  0  0
 17 18  1  0  0  0  0
 17 19  1  0  0  0  0
 19 20  1  0  0  0  0
 19 28  2  0  0  0  0
 20 21  1  0  0  0  0
 20 22  2  0  0  0  0
 22 23  1  0  0  0  0
 22 24  1  0  0  0  0
 24 25  1  0  0  0  0
 24 26  2  0  0  0  0
 26 27  1  0  0  0  0
 26 28  1  0  0  0  0
 29 30  2  0  0  0  0
 29 31  1  0  0  0  0
 31 32  1  0  0  0  0
 31 33  1  0  0  0  0
 33 34  1  0  0  0  0
 33 35  1  0  0  0  0
 33 36  1  0  0  0  0
M  END
$$$$

  -OEChem-03222214083D

 36 37  0     1  0  0  0  0  0999 V2000
   -2.4635   -5.1817    1.0003 H   0  0  0  0  0  0  0  0  0  0  0  0
   -2.6590   -4.3533    0.3133 C   0  0  0  0  0  0  0  0  0  0  0  0
   -3.6292   -3.9146    0.5577 H   0  0  0  0  0  0  0  0  0  0  0  0
   -2.6893   -4.7435   -0.7068 H   0  0  0  0  0  0  0  0  0  0  0  0
   -1.5682   -3.3062    0.4365 C   0  0  0  0  0  0  0  0  0  0  0  0
   -0.7099   -3.4194    1.2923 O   0  0  0  0  0  0  0  0  0  0  0  0
   -1.5562   -2.2258   -0.4214 N   0  0  0  0  0  0  0  0  0  0  0  0
   -2.2861   -2.1786   -1.1301 H   0  0  0  0  0  0  0  0  0  0  0  0
   -0.5596   -1.1466   -0.3986 C   0  0  1  0  0  0  0  0  0  0  0  0
    0.4318   -1.5924   -0.5367 H   0  0  0  0  0  0  0  0  0  0  0  0
   -0.8093   -0.1542   -1.5522 C   0  0  0  0  0  0  0  0  0  0  0  0
   -0.3719    0.8135   -1.2806 H   0  0  0  0  0  0  0  0  0  0  0  0
   -0.2276   -0.5260   -2.4019 H   0  0  0  0  0  0  0  0  0  0  0  0
   -2.2200    0.0962   -2.0809 C   0  0  0  0  0  0  0  0  0  0  0  0
   -2.3278    0.9949   -3.1183 C   0  0  0  0  0  0  0  0  0  0  0  0
   -1.4884    1.4614   -3.6306 H   0  0  0  0  0  0  0  0  0  0  0  0
   -3.6675    1.1812   -3.4136 N   0  0  0  0  0  0  0  0  0  0  0  0
   -4.0332    1.7910   -4.1431 H   0  0  0  0  0  0  0  0  0  0  0  0
   -4.4454    0.4947   -2.5075 C   0  0  0  0  0  0  0  0  0  0  0  0
   -5.8356    0.4700   -2.4133 C   0  0  0  0  0  0  0  0  0  0  0  0
   -6.4444    0.9993   -3.1380 H   0  0  0  0  0  0  0  0  0  0  0  0
   -6.4324   -0.2295   -1.3627 C   0  0  0  0  0  0  0  0  0  0  0  0
   -7.5146   -0.2573   -1.2707 H   0  0  0  0  0  0  0  0  0  0  0  0
   -5.6277   -0.8694   -0.4151 C   0  0  0  0  0  0  0  0  0  0  0  0
   -6.0910   -1.3879    0.4195 H   0  0  0  0  0  0  0  0  0  0  0  0
   -4.2308   -0.8320   -0.5273 C   0  0  0  0  0  0  0  0  0  0  0  0
   -3.6727   -1.3115    0.2630 H   0  0  0  0  0  0  0  0  0  0  0  0
   -3.6076   -0.1733   -1.6085 C   0  0  0  0  0  0  0  0  0  0  0  0
   -0.4951   -0.3570    0.9290 C   0  0  0  0  0  0  0  0  0  0  0  0
    0.5816    0.0657    1.3304 O   0  0  0  0  0  0  0  0  0  0  0  0
   -1.6540    0.0587    1.5602 N   0  0  0  0  0  0  0  0  0  0  0  0
   -2.5274   -0.1333    1.0822 H   0  0  0  0  0  0  0  0  0  0  0  0
   -1.6641    0.9371    2.7221 C   0  0  0  0  0  0  0  0  0  0  0  0
   -1.2509    1.9178    2.4650 H   0  0  0  0  0  0  0  0  0  0  0  0
   -2.6881    1.0744    3.0820 H   0  0  0  0  0  0  0  0  0  0  0  0
   -1.0694    0.5046    3.5337 H   0  0  0  0  0  0  0  0  0  0  0  0
  1  2  1  0  0  0  0
  2  3  1  0  0  0  0
  2  4  1  0  0  0  0
  2  5  1  0  0  0  0
  5  6  2  0  0  0  0
  5  7  1  0  0  0  0
  7  8  1  0  0  0  0
  7  9  1  0  0  0  0
  9 10  1  0  0  0  0
  9 11  1  0  0  0  0
  9 29  1  0  0  0  0
 11 12  1  0  0  0  0
 11 13  1  0  0  0  0
 11 14  1  0  0  0  0
 14 15  2  0  0  0  0
 14 28  1  0  0  0  0
 15 16  1  0  0  0  0
 15 17  1  0  0  0  0
 17 18  1  0  0  0  0
 17 19  1  0  0  0  0
 19 20  1  0  0  0  0
 19 28  2  0  0  0  0
 20 21  1  0  0  0  0
 20 22  2  0  0  0  0
 22 23  1  0  0  0  0
 22 24  1  0  0  0  0
 24 25  1  0  0  0  0
 24 26  2  0  0  0  0
 26 27  1  0  0  0  0
 26 28  1  0  0  0  0
 29 30  2  0  0  0  0
 29 31  1  0  0  0  0
 31 32  1  0  0  0  0
 31 33  1  0  0  0  0
 33 34  1  0  0  0  0
 33 35  1  0  0  0  0
 33 36  1  0  0  0  0
M  END
$$$$

  -OEChem-03222214083D

 36 37  0     1  0  0  0  0  0999 V2000
   -2.7547   -5.0323    1.0303 H   0  0  0  0  0  0  0  0  0  0  0  0
   -2.8757   -4.2216    0.3062 C   0  0  0  0  0  0  0  0  0  0  0  0
   -3.8188   -3.7078    0.5069 H   0  0  0  0  0  0  0  0  0  0  0  0
   -2.9074   -4.6494   -0.6987 H   0  0  0  0  0  0  0  0  0  0  0  0
   -1.7188   -3.2472    0.4168 C   0  0  0  0  0  0  0  0  0  0  0  0
   -0.8354   -3.4392    1.2325 O   0  0  0  0  0  0  0  0  0  0  0  0
   -1.6782   -2.1388   -0.4019 N   0  0  0  0  0  0  0  0  0  0  0  0
   -2.4414   -2.0140   -1.0648 H   0  0  0  0  0  0  0  0  0  0  0  0
   -0.6212   -1.1167   -0.3768 C   0  0  1  0  0  0  0  0  0  0  0  0
    0.3313   -1.6267   -0.5601 H   0  0  0  0  0  0  0  0  0  0  0  0
   -0.8366   -0.1053   -1.5214 C   0  0  0  0  0  0  0  0  0  0  0  0
   -0.3709    0.8460   -1.2403 H   0  0  0  0  0  0  0  0  0  0  0  0
   -0.2731   -0.4821   -2.3810 H   0  0  0  0  0  0  0  0  0  0  0  0
   -2.2503    0.1941   -2.0126 C   0  0  0  0  0  0  0  0  0  0  0  0
   -2.3776    0.8408   -3.2207 C   0  0  0  0  0  0  0  0  0  0  0  0
   -1.5510    1.1247   -3.8696 H   0  0  0  0  0  0  0  0  0  0  0  0
   -3.7230    1.0687   -3.4621 N   0  0  0  0  0  0  0  0  0  0  0  0
   -4.1046    1.5385   -4.2814 H   0  0  0  0  0  0  0  0  0  0  0  0
   -4.4767    0.6111   -2.4015 C   0  0  0  0  0  0  0  0  0  0  0  0
   -5.8589    0.6659   -2.2273 C   0  0  0  0  0  0  0  0  0  0  0  0
   -6.4915    1.1046   -2.9914 H   0  0  0  0  0  0  0  0  0  0  0  0
   -6.4173    0.1539   -1.0533 C   0  0  0  0  0  0  0  0  0  0  0  0
   -7.4921    0.1894   -0.8999 H   0  0  0  0  0  0  0  0  0  0  0  0
   -5.5850   -0.3985   -0.0743 C   0  0  0  0  0  0  0  0  0  0  0  0
   -6.0194   -0.7907    0.8410 H   0  0  0  0  0  0  0  0  0  0  0  0
   -4.1973   -0.4439   -0.2659 C   0  0  0  0  0  0  0  0  0  0  0  0
   -3.6064   -0.8819    0.5250 H   0  0  0  0  0  0  0  0  0  0  0  0
   -3.6173    0.0587   -1.4475 C   0  0  0  0  0  0  0  0  0  0  0  0
   -0.4252   -0.3536    0.9552 C   0  0  0  0  0  0  0  0  0  0  0  0
    0.7062   -0.0376    1.3009 O   0  0  0  0  0  0  0  0  0  0  0  0
   -1.4971    0.1383    1.6775 N   0  0  0  0  0  0  0  0  0  0  0  0
   -2.4092    0.0661    1.2433 H   0  0  0  0  0  0  0  0  0  0  0  0
   -1.3460    0.9839    2.8545 C   0  0  0  0  0  0  0  0  0  0  0  0
   -0.8388    1.9185    2.5931 H   0  0  0  0  0  0  0  0  0  0  0  0
   -2.3270    1.2262    3.2742 H   0  0  0  0  0  0  0  0  0  0  0  0
   -0.7608    0.4675    3.6231 H   0  0  0  0  0  0  0  0  0  0  0  0
  1  2  1  0  0  0  0
  2  3  1  0  0  0  0
  2  4  1  0  0  0  0
  2  5  1  0  0  0  0
  5  6  2  0  0  0  0
  5  7  1  0  0  0  0
  7  8  1  0  0  0  0
  7  9  1  0  0  0  0
  9 10  1  0  0  0  0
  9 11  1  0  0  0  0
  9 29  1  0  0  0  0
 11 12  1  0  0  0  0
 11 13  1  0  0  0  0
 11 14  1  0  0  0  0
 14 15  2  0  0  0  0
 14 28  1  0  0  0  0
 15 16  1  0  0  0  0
 15 17  1  0  0  0  0
 17 18  1  0  0  0  0
 17 19  1  0  0  0  0
 19 20  1  0  0  0  0
 19 28  2  0  0  0  0
 20 21  1  0  0  0  0
 20 22  2  0  0  0  0
 22 23  1  0  0  0  0
 22 24  1  0  0  0  0
 24 25  1  0  0  0  0
 24 26  2  0  0  0  0
 26 27  1  0  0  0  0
 26 28  1  0  0  0  0
 29 30  2  0  0  0  0
 29 31  1  0  0  0  0
 31 32  1  0  0  0  0
 31 33  1  0  0  0  0
 33 34  1  0  0  0  0
 33 35  1  0  0  0  0
 33 36  1  0  0  0  0
M  END
$$$$

  -OEChem-03222214083D

 36 37  0     1  0  0  0  0  0999 V2000
   -2.6186   -4.6455    1.4924 H   0  0  0  0  0  0  0  0  0  0  0  0
   -2.8469   -3.8506    0.7770 C   0  0  0  0  0  0  0  0  0  0  0  0
   -3.7352   -3.3134    1.1180 H   0  0  0  0  0  0  0  0  0  0  0  0
   -3.0540   -4.3017   -0.1964 H   0  0  0  0  0  0  0  0  0  0  0  0
   -1.6737   -2.8959    0.6645 C   0  0  0  0  0  0  0  0  0  0  0  0
   -0.6762   -3.0652    1.3447 O   0  0  0  0  0  0  0  0  0  0  0  0
   -1.7531   -1.8117   -0.1809 N   0  0  0  0  0  0  0  0  0  0  0  0
   -2.6250   -1.6723   -0.6894 H   0  0  0  0  0  0  0  0  0  0  0  0
   -0.6898   -0.8137   -0.3817 C   0  0  1  0  0  0  0  0  0  0  0  0
    0.1985   -1.4197   -0.5927 H   0  0  0  0  0  0  0  0  0  0  0  0
   -0.9011   -0.0103   -1.6891 C   0  0  0  0  0  0  0  0  0  0  0  0
   -0.4423    0.9760   -1.5645 H   0  0  0  0  0  0  0  0  0  0  0  0
   -0.3423   -0.5164   -2.4830 H   0  0  0  0  0  0  0  0  0  0  0  0
   -2.3207    0.2096   -2.1865 C   0  0  0  0  0  0  0  0  0  0  0  0
   -2.5743    0.3290   -3.5339 C   0  0  0  0  0  0  0  0  0  0  0  0
   -1.8262    0.2628   -4.3214 H   0  0  0  0  0  0  0  0  0  0  0  0
   -3.9402    0.5154   -3.7098 N   0  0  0  0  0  0  0  0  0  0  0  0
   -4.4084    0.6406   -4.6055 H   0  0  0  0  0  0  0  0  0  0  0  0
   -4.5720    0.5778   -2.4833 C   0  0  0  0  0  0  0  0  0  0  0  0
   -5.9149    0.7792   -2.1653 C   0  0  0  0  0  0  0  0  0  0  0  0
   -6.6537    0.8886   -2.9517 H   0  0  0  0  0  0  0  0  0  0  0  0
   -6.2921    0.8506   -0.8188 C   0  0  0  0  0  0  0  0  0  0  0  0
   -7.3331    1.0111   -0.5534 H   0  0  0  0  0  0  0  0  0  0  0  0
   -5.3199    0.7387    0.1845 C   0  0  0  0  0  0  0  0  0  0  0  0
   -5.6062    0.8215    1.2287 H   0  0  0  0  0  0  0  0  0  0  0  0
   -3.9754    0.5377   -0.1572 C   0  0  0  0  0  0  0  0  0  0  0  0
   -3.2243    0.4912    0.6142 H   0  0  0  0  0  0  0  0  0  0  0  0
   -3.5992    0.4267   -1.4976 C   0  0  0  0  0  0  0  0  0  0  0  0
   -0.1907    0.0233    0.8276 C   0  0  0  0  0  0  0  0  0  0  0  0
    0.8854    0.5931    0.7248 O   0  0  0  0  0  0  0  0  0  0  0  0
   -0.9691    0.6352    1.7841 N   0  0  0  0  0  0  0  0  0  0  0  0
   -0.4438    1.3953    2.2099 H   0  0  0  0  0  0  0  0  0  0  0  0
   -1.7232   -0.1820    2.7268 C   0  0  0  0  0  0  0  0  0  0  0  0
   -1.0557   -0.8811    3.2425 H   0  0  0  0  0  0  0  0  0  0  0  0
   -2.1953    0.4598    3.4768 H   0  0  0  0  0  0  0  0  0  0  0  0
   -2.5095   -0.7562    2.2320 H   0  0  0  0  0  0  0  0  0  0  0  0
  1  2  1  0  0  0  0
  2  3  1  0  0  0  0
  2  4  1  0  0  0  0
  2  5  1  0  0  0  0
  5  6  2  0  0  0  0
  5  7  1  0  0  0  0
  7  8  1  0  0  0  0
  7  9  1  0  0  0  0
  9 10  1  0  0  0  0
  9 11  1  0  0  0  0
  9 29  1  0  0  0  0
 11 12  1  0  0  0  0
 11 13  1  0  0  0  0
 11 14  1  0  0  0  0
 14 15  2  0  0  0  0
 14 28  1  0  0  0  0
 15 16  1  0  0  0  0
 15 17  1  0  0  0  0
 17 18  1  0  0  0  0
 17 19  1  0  0  0  0
 19 20  1  0  0  0  0
 19 28  2  0  0  0  0
 20 21  1  0  0  0  0
 20 22  2  0  0  0  0
 22 23  1  0  0  0  0
 22 24  1  0  0  0  0
 24 25  1  0  0  0  0
 24 26  2  0  0  0  0
 26 27  1  0  0  0  0
 26 28  1  0  0  0  0
 29 30  2  0  0  0  0
 29 31  1  0  0  0  0
 31 32  1  0  0  0  0
 31 33  1  0  0  0  0
 33 34  1  0  0  0  0
 33 35  1  0  0  0  0
 33 36  1  0  0  0  0
M  END
$$$$

  -OEChem-03222214083D

 36 37  0     1  0  0  0  0  0999 V2000
   -3.0928   -4.9900    0.5694 H   0  0  0  0  0  0  0  0  0  0  0  0
   -3.2083   -4.0718   -0.0134 C   0  0  0  0  0  0  0  0  0  0  0  0
   -4.0873   -3.5326    0.3481 H   0  0  0  0  0  0  0  0  0  0  0  0
   -3.3580   -4.3372   -1.0627 H   0  0  0  0  0  0  0  0  0  0  0  0
   -1.9721   -3.2046    0.1292 C   0  0  0  0  0  0  0  0  0  0  0  0
   -1.0313   -3.5851    0.8029 O   0  0  0  0  0  0  0  0  0  0  0  0
   -1.9293   -1.9690   -0.4792 N   0  0  0  0  0  0  0  0  0  0  0  0
   -2.7486   -1.6761   -1.0091 H   0  0  0  0  0  0  0  0  0  0  0  0
   -0.7930   -1.0336   -0.4194 C   0  0  1  0  0  0  0  0  0  0  0  0
    0.0728   -1.6413   -0.7076 H   0  0  0  0  0  0  0  0  0  0  0  0
   -0.8805    0.0295   -1.5385 C   0  0  0  0  0  0  0  0  0  0  0  0
   -0.3753    0.9373   -1.1923 H   0  0  0  0  0  0  0  0  0  0  0  0
   -0.3112   -0.3391   -2.3980 H   0  0  0  0  0  0  0  0  0  0  0  0
   -2.2723    0.4182   -2.0125 C   0  0  0  0  0  0  0  0  0  0  0  0
   -2.5366    0.5196   -3.3596 C   0  0  0  0  0  0  0  0  0  0  0  0
   -1.8202    0.3320   -4.1571 H   0  0  0  0  0  0  0  0  0  0  0  0
   -3.8744    0.8541   -3.5203 N   0  0  0  0  0  0  0  0  0  0  0  0
   -4.3432    1.0015   -4.4125 H   0  0  0  0  0  0  0  0  0  0  0  0
   -4.4664    1.0423   -2.2875 C   0  0  0  0  0  0  0  0  0  0  0  0
   -5.7699    1.4194   -1.9676 C   0  0  0  0  0  0  0  0  0  0  0  0
   -6.5029    1.5758   -2.7513 H   0  0  0  0  0  0  0  0  0  0  0  0
   -6.1134    1.6084   -0.6245 C   0  0  0  0  0  0  0  0  0  0  0  0
   -7.1232    1.9064   -0.3573 H   0  0  0  0  0  0  0  0  0  0  0  0
   -5.1424    1.4411    0.3713 C   0  0  0  0  0  0  0  0  0  0  0  0
   -5.3978    1.6223    1.4114 H   0  0  0  0  0  0  0  0  0  0  0  0
   -3.8369    1.0621    0.0278 C   0  0  0  0  0  0  0  0  0  0  0  0
   -3.0911    0.9955    0.8012 H   0  0  0  0  0  0  0  0  0  0  0  0
   -3.4984    0.8230   -1.3083 C   0  0  0  0  0  0  0  0  0  0  0  0
   -0.3620   -0.5327    0.9776 C   0  0  0  0  0  0  0  0  0  0  0  0
    0.8156   -0.2534    1.1656 O   0  0  0  0  0  0  0  0  0  0  0  0
   -1.2861   -0.1188    1.9164 N   0  0  0  0  0  0  0  0  0  0  0  0
   -2.2269   -0.4783    1.7908 H   0  0  0  0  0  0  0  0  0  0  0  0
   -0.9083    0.3954    3.2268 C   0  0  0  0  0  0  0  0  0  0  0  0
   -0.3101    1.3068    3.1230 H   0  0  0  0  0  0  0  0  0  0  0  0
   -1.8024    0.6354    3.8096 H   0  0  0  0  0  0  0  0  0  0  0  0
   -0.3239   -0.3498    3.7771 H   0  0  0  0  0  0  0  0  0  0  0  0
  1  2  1  0  0  0  0
  2  3  1  0  0  0  0
  2  4  1  0  0  0  0
  2  5  1  0  0  0  0
  5  6  2  0  0  0  0
  5  7  1  0  0  0  0
  7  8  1  0  0  0  0
  7  9  1  0  0  0  0
  9 10  1  0  0  0  0
  9 11  1  0  0  0  0
  9 29  1  0  0  0  0
 11 12  1  0  0  0  0
 11 13  1  0  0  0  0
 11 14  1  0  0  0  0
 14 15  2  0  0  0  0
 14 28  1  0  0  0  0
 15 16  1  0  0  0  0
 15 17  1  0  0  0  0
 17 18  1  0  0  0  0
 17 19  1  0  0  0  0
 19 20  1  0  0  0  0
 19 28  2  0  0  0  0
 20 21  1  0  0  0  0
 20 22  2  0  0  0  0
 22 23  1  0  0  0  0
 22 24  1  0  0  0  0
 24 25  1  0  0  0  0
 24 26  2  0  0  0  0
 26 27  1  0  0  0  0
 26 28  1  0  0  0  0
 29 30  2  0  0  0  0
 29 31  1  0  0  0  0
 31 32  1  0  0  0  0
 31 33  1  0  0  0  0
 33 34  1  0  0  0  0
 33 35  1  0  0  0  0
 33 36  1  0  0  0  0
M  END
$$$$

  -OEChem-03222214083D

 36 37  0     1  0  0  0  0  0999 V2000
   -3.0670   -4.8641    0.8910 H   0  0  0  0  0  0  0  0  0  0  0  0
   -3.1463   -4.0191    0.2012 C   0  0  0  0  0  0  0  0  0  0  0  0
   -4.0355   -3.4382    0.4575 H   0  0  0  0  0  0  0  0  0  0  0  0
   -3.2501   -4.4034   -0.8162 H   0  0  0  0  0  0  0  0  0  0  0  0
   -1.9097   -3.1468    0.3015 C   0  0  0  0  0  0  0  0  0  0  0  0
   -0.9942   -3.4677    1.0378 O   0  0  0  0  0  0  0  0  0  0  0  0
   -1.8336   -1.9814   -0.4307 N   0  0  0  0  0  0  0  0  0  0  0  0
   -2.6442   -1.7255   -0.9916 H   0  0  0  0  0  0  0  0  0  0  0  0
   -0.7212   -1.0154   -0.3686 C   0  0  1  0  0  0  0  0  0  0  0  0
    0.1924   -1.5951   -0.5445 H   0  0  0  0  0  0  0  0  0  0  0  0
   -0.7976   -0.0166   -1.5487 C   0  0  0  0  0  0  0  0  0  0  0  0
   -0.3255    0.9265   -1.2541 H   0  0  0  0  0  0  0  0  0  0  0  0
   -0.2078   -0.4232   -2.3765 H   0  0  0  0  0  0  0  0  0  0  0  0
   -2.2006    0.2693   -2.0489 C   0  0  0  0  0  0  0  0  0  0  0  0
   -2.5975    0.0028   -3.3390 C   0  0  0  0  0  0  0  0  0  0  0  0
   -1.9803   -0.4638   -4.1046 H   0  0  0  0  0  0  0  0  0  0  0  0
   -3.9283    0.3846   -3.4683 N   0  0  0  0  0  0  0  0  0  0  0  0
   -4.4808    0.3172   -4.3218 H   0  0  0  0  0  0  0  0  0  0  0  0
   -4.3630    0.9944   -2.3060 C   0  0  0  0  0  0  0  0  0  0  0  0
   -5.5861    1.5860   -1.9911 C   0  0  0  0  0  0  0  0  0  0  0  0
   -6.4040    1.5669   -2.7029 H   0  0  0  0  0  0  0  0  0  0  0  0
   -5.7355    2.2230   -0.7528 C   0  0  0  0  0  0  0  0  0  0  0  0
   -6.6801    2.6921   -0.4929 H   0  0  0  0  0  0  0  0  0  0  0  0
   -4.6522    2.2876    0.1344 C   0  0  0  0  0  0  0  0  0  0  0  0
   -4.7541    2.8195    1.0759 H   0  0  0  0  0  0  0  0  0  0  0  0
   -3.4291    1.6897   -0.2002 C   0  0  0  0  0  0  0  0  0  0  0  0
   -2.5793    1.8075    0.4588 H   0  0  0  0  0  0  0  0  0  0  0  0
   -3.2997    0.9938   -1.4069 C   0  0  0  0  0  0  0  0  0  0  0  0
   -0.4782   -0.3939    1.0240 C   0  0  0  0  0  0  0  0  0  0  0  0
    0.6602   -0.0864    1.3530 O   0  0  0  0  0  0  0  0  0  0  0  0
   -1.5300    0.0599    1.7967 N   0  0  0  0  0  0  0  0  0  0  0  0
   -2.4589   -0.2378    1.5137 H   0  0  0  0  0  0  0  0  0  0  0  0
   -1.3521    0.6776    3.1047 C   0  0  0  0  0  0  0  0  0  0  0  0
   -0.7381    1.5806    3.0223 H   0  0  0  0  0  0  0  0  0  0  0  0
   -2.3222    0.9585    3.5252 H   0  0  0  0  0  0  0  0  0  0  0  0
   -0.8631   -0.0195    3.7936 H   0  0  0  0  0  0  0  0  0  0  0  0
  1  2  1  0  0  0  0
  2  3  1  0  0  0  0
  2  4  1  0  0  0  0
  2  5  1  0  0  0  0
  5  6  2  0  0  0  0
  5  7  1  0  0  0  0
  7  8  1  0  0  0  0
  7  9  1  0  0  0  0
  9 10  1  0  0  0  0
  9 11  1  0  0  0  0
  9 29  1  0  0  0  0
 11 12  1  0  0  0  0
 11 13  1  0  0  0  0
 11 14  1  0  0  0  0
 14 15  2  0  0  0  0
 14 28  1  0  0  0  0
 15 16  1  0  0  0  0
 15 17  1  0  0  0  0
 17 18  1  0  0  0  0
 17 19  1  0  0  0  0
 19 20  1  0  0  0  0
 19 28  2  0  0  0  0
 20 21  1  0  0  0  0
 20 22  2  0  0  0  0
 22 23  1  0  0  0  0
 22 24  1  0  0  0  0
 24 25  1  0  0  0  0
 24 26  2  0  0  0  0
 26 27  1  0  0  0  0
 26 28  1  0  0  0  0
 29 30  2  0  0  0  0
 29 31  1  0  0  0  0
 31 32  1  0  0  0  0
 31 33  1  0  0  0  0
 33 34  1  0  0  0  0
 33 35  1  0  0  0  0
 33 36  1  0  0  0  0
M  END
$$$$

  -OEChem-03222214083D

 36 37  0     1  0  0  0  0  0999 V2000
   -3.2377   -4.7242    0.9216 H   0  0  0  0  0  0  0  0  0  0  0  0
   -3.2550   -3.9083    0.1932 C   0  0  0  0  0  0  0  0  0  0  0  0
   -4.1163   -3.2690    0.4019 H   0  0  0  0  0  0  0  0  0  0  0  0
   -3.3580   -4.3324   -0.8086 H   0  0  0  0  0  0  0  0  0  0  0  0
   -1.9735   -3.1016    0.2848 C   0  0  0  0  0  0  0  0  0  0  0  0
   -1.0865   -3.4495    1.0432 O   0  0  0  0  0  0  0  0  0  0  0  0
   -1.8170   -1.9750   -0.4943 N   0  0  0  0  0  0  0  0  0  0  0  0
   -2.6160   -1.6813   -1.0524 H   0  0  0  0  0  0  0  0  0  0  0  0
   -0.6780   -1.0408   -0.4009 C   0  0  1  0  0  0  0  0  0  0  0  0
    0.2367   -1.6303   -0.5275 H   0  0  0  0  0  0  0  0  0  0  0  0
   -0.7109   -0.0236   -1.5661 C   0  0  0  0  0  0  0  0  0  0  0  0
   -0.2093    0.9039   -1.2701 H   0  0  0  0  0  0  0  0  0  0  0  0
   -0.1384   -0.4436   -2.3992 H   0  0  0  0  0  0  0  0  0  0  0  0
   -2.1088    0.2871   -2.0547 C   0  0  0  0  0  0  0  0  0  0  0  0
   -2.6445   -0.1968   -3.2249 C   0  0  0  0  0  0  0  0  0  0  0  0
   -2.1384   -0.8591   -3.9252 H   0  0  0  0  0  0  0  0  0  0  0  0
   -3.9478    0.2806   -3.3234 N   0  0  0  0  0  0  0  0  0  0  0  0
   -4.5824    0.1050   -4.1010 H   0  0  0  0  0  0  0  0  0  0  0  0
   -4.2289    1.1303   -2.2672 C   0  0  0  0  0  0  0  0  0  0  0  0
   -5.3687    1.8741   -1.9632 C   0  0  0  0  0  0  0  0  0  0  0  0
   -6.2478    1.8130   -2.5954 H   0  0  0  0  0  0  0  0  0  0  0  0
   -5.3571    2.7115   -0.8396 C   0  0  0  0  0  0  0  0  0  0  0  0
   -6.2365    3.2980   -0.5898 H   0  0  0  0  0  0  0  0  0  0  0  0
   -4.2012    2.8119   -0.0516 C   0  0  0  0  0  0  0  0  0  0  0  0
   -4.1828    3.4829    0.8021 H   0  0  0  0  0  0  0  0  0  0  0  0
   -3.0615    2.0612   -0.3714 C   0  0  0  0  0  0  0  0  0  0  0  0
   -2.1561    2.1734    0.2157 H   0  0  0  0  0  0  0  0  0  0  0  0
   -3.0931    1.1908   -1.4663 C   0  0  0  0  0  0  0  0  0  0  0  0
   -0.5272   -0.3775    0.9851 C   0  0  0  0  0  0  0  0  0  0  0  0
    0.5887   -0.1072    1.4093 O   0  0  0  0  0  0  0  0  0  0  0  0
   -1.6289    0.1302    1.6485 N   0  0  0  0  0  0  0  0  0  0  0  0
   -2.5398   -0.0649    1.2431 H   0  0  0  0  0  0  0  0  0  0  0  0
   -1.5511    0.8190    2.9300 C   0  0  0  0  0  0  0  0  0  0  0  0
   -0.9059    1.7005    2.8544 H   0  0  0  0  0  0  0  0  0  0  0  0
   -2.5468    1.1462    3.2439 H   0  0  0  0  0  0  0  0  0  0  0  0
   -1.1468    0.1511    3.6979 H   0  0  0  0  0  0  0  0  0  0  0  0
  1  2  1  0  0  0  0
  2  3  1  0  0  0  0
  2  4  1  0  0  0  0
  2  5  1  0  0  0  0
  5  6  2  0  0  0  0
  5  7  1  0  0  0  0
  7  8  1  0  0  0  0
  7  9  1  0  0  0  0
  9 10  1  0  0  0  0
  9 11  1  0  0  0  0
  9 29  1  0  0  0  0
 11 12  1  0  0  0  0
 11 13  1  0  0  0  0
 11 14  1  0  0  0  0
 14 15  2  0  0  0  0
 14 28  1  0  0  0  0
 15 16  1  0  0  0  0
 15 17  1  0  0  0  0
 17 18  1  0  0  0  0
 17 19  1  0  0  0  0
 19 20  1  0  0  0  0
 19 28  2  0  0  0  0
 20 21  1  0  0  0  0
 20 22  2  0  0  0  0
 22 23  1  0  0  0  0
 22 24  1  0  0  0  0
 24 25  1  0  0  0  0
 24 26  2  0  0  0  0
 26 27  1  0  0  0  0
 26 28  1  0  0  0  0
 29 30  2  0  0  0  0
 29 31  1  0  0  0  0
 31 32  1  0  0  0  0
 31 33  1  0  0  0  0
 33 34  1  0  0  0  0
 33 35  1  0  0  0  0
 33 36  1  0  0  0  0
M  END
$$$$

  -OEChem-03222214083D

 36 37  0     1  0  0  0  0  0999 V2000
   -3.3406   -4.6128    0.9825 H   0  0  0  0  0  0  0  0  0  0  0  0
   -3.3304   -3.8136    0.2358 C   0  0  0  0  0  0  0  0  0  0  0  0
   -4.1495   -3.1229    0.4494 H   0  0  0  0  0  0  0  0  0  0  0  0
   -3.4802   -4.2534   -0.7529 H   0  0  0  0  0  0  0  0  0  0  0  0
   -2.0056   -3.0762    0.2800 C   0  0  0  0  0  0  0  0  0  0  0  0
   -1.1297   -3.4405    1.0436 O   0  0  0  0  0  0  0  0  0  0  0  0
   -1.7984   -1.9922   -0.5469 N   0  0  0  0  0  0  0  0  0  0  0  0
   -2.5988   -1.6662   -1.0838 H   0  0  0  0  0  0  0  0  0  0  0  0
   -0.6462   -1.0761   -0.4340 C   0  0  1  0  0  0  0  0  0  0  0  0
    0.2712   -1.6699   -0.5144 H   0  0  0  0  0  0  0  0  0  0  0  0
   -0.6409   -0.0467   -1.5878 C   0  0  0  0  0  0  0  0  0  0  0  0
   -0.1152    0.8662   -1.2880 H   0  0  0  0  0  0  0  0  0  0  0  0
   -0.0756   -0.4795   -2.4190 H   0  0  0  0  0  0  0  0  0  0  0  0
   -2.0244    0.2948   -2.0919 C   0  0  0  0  0  0  0  0  0  0  0  0
   -2.6885   -0.3592   -3.1034 C   0  0  0  0  0  0  0  0  0  0  0  0
   -2.2895   -1.1827   -3.6934 H   0  0  0  0  0  0  0  0  0  0  0  0
   -3.9528    0.2126   -3.2151 N   0  0  0  0  0  0  0  0  0  0  0  0
   -4.6540   -0.0371   -3.9112 H   0  0  0  0  0  0  0  0  0  0  0  0
   -4.0960    1.2476   -2.3055 C   0  0  0  0  0  0  0  0  0  0  0  0
   -5.1559    2.1191   -2.0558 C   0  0  0  0  0  0  0  0  0  0  0  0
   -6.0772    2.0375   -2.6222 H   0  0  0  0  0  0  0  0  0  0  0  0
   -5.0113    3.1041   -1.0689 C   0  0  0  0  0  0  0  0  0  0  0  0
   -5.8268    3.7920   -0.8650 H   0  0  0  0  0  0  0  0  0  0  0  0
   -3.8093    3.2111   -0.3528 C   0  0  0  0  0  0  0  0  0  0  0  0
   -3.6953    3.9830    0.4027 H   0  0  0  0  0  0  0  0  0  0  0  0
   -2.7494    2.3319   -0.6161 C   0  0  0  0  0  0  0  0  0  0  0  0
   -1.8130    2.4253   -0.0741 H   0  0  0  0  0  0  0  0  0  0  0  0
   -2.9073    1.3399   -1.5900 C   0  0  0  0  0  0  0  0  0  0  0  0
   -0.5686   -0.3617    0.9330 C   0  0  0  0  0  0  0  0  0  0  0  0
    0.5213   -0.1034    1.4263 O   0  0  0  0  0  0  0  0  0  0  0  0
   -1.7046    0.1878    1.5008 N   0  0  0  0  0  0  0  0  0  0  0  0
   -2.5736    0.0857    0.9841 H   0  0  0  0  0  0  0  0  0  0  0  0
   -1.6889    0.9946    2.7137 C   0  0  0  0  0  0  0  0  0  0  0  0
   -1.0813    1.8938    2.5687 H   0  0  0  0  0  0  0  0  0  0  0  0
   -2.7058    1.3018    2.9756 H   0  0  0  0  0  0  0  0  0  0  0  0
   -1.2751    0.4198    3.5490 H   0  0  0  0  0  0  0  0  0  0  0  0
  1  2  1  0  0  0  0
  2  3  1  0  0  0  0
  2  4  1  0  0  0  0
  2  5  1  0  0  0  0
  5  6  2  0  0  0  0
  5  7  1  0  0  0  0
  7  8  1  0  0  0  0
  7  9  1  0  0  0  0
  9 10  1  0  0  0  0
  9 11  1  0  0  0  0
  9 29  1  0  0  0  0
 11 12  1  0  0  0  0
 11 13  1  0  0  0  0
 11 14  1  0  0  0  0
 14 15  2  0  0  0  0
 14 28  1  0  0  0  0
 15 16  1  0  0  0  0
 15 17  1  0  0  0  0
 17 18  1  0  0  0  0
 17 19  1  0  0  0  0
 19 20  1  0  0  0  0
 19 28  2  0  0  0  0
 20 21  1  0  0  0  0
 20 22  2  0  0  0  0
 22 23  1  0  0  0  0
 22 24  1  0  0  0  0
 24 25  1  0  0  0  0
 24 26  2  0  0  0  0
 26 27  1  0  0  0  0
 26 28  1  0  0  0  0
 29 30  2  0  0  0  0
 29 31  1  0  0  0  0
 31 32  1  0  0  0  0
 31 33  1  0  0  0  0
 33 34  1  0  0  0  0
 33 35  1  0  0  0  0
 33 36  1  0  0  0  0
M  END
$$$$

  -OEChem-03222214083D

 36 37  0     1  0  0  0  0  0999 V2000
   -3.3603   -4.5586    1.0666 H   0  0  0  0  0  0  0  0  0  0  0  0
   -3.3495   -3.7728    0.3057 C   0  0  0  0  0  0  0  0  0  0  0  0
   -4.1478   -3.0602    0.5262 H   0  0  0  0  0  0  0  0  0  0  0  0
   -3.5322   -4.2264   -0.6714 H   0  0  0  0  0  0  0  0  0  0  0  0
   -2.0077   -3.0658    0.3061 C   0  0  0  0  0  0  0  0  0  0  0  0
   -1.1347   -3.4159    1.0793 O   0  0  0  0  0  0  0  0  0  0  0  0
   -1.7817   -2.0277   -0.5740 N   0  0  0  0  0  0  0  0  0  0  0  0
   -2.5907   -1.6946   -1.0916 H   0  0  0  0  0  0  0  0  0  0  0  0
   -0.6317   -1.1080   -0.4672 C   0  0  1  0  0  0  0  0  0  0  0  0
    0.2914   -1.6970   -0.5019 H   0  0  0  0  0  0  0  0  0  0  0  0
   -0.5973   -0.0842   -1.6258 C   0  0  0  0  0  0  0  0  0  0  0  0
   -0.0565    0.8200   -1.3267 H   0  0  0  0  0  0  0  0  0  0  0  0
   -0.0263   -0.5314   -2.4454 H   0  0  0  0  0  0  0  0  0  0  0  0
   -1.9619    0.2775   -2.1681 C   0  0  0  0  0  0  0  0  0  0  0  0
   -2.7580   -0.4958   -2.9824 C   0  0  0  0  0  0  0  0  0  0  0  0
   -2.4711   -1.4484   -3.4249 H   0  0  0  0  0  0  0  0  0  0  0  0
   -3.9780    0.1592   -3.1256 N   0  0  0  0  0  0  0  0  0  0  0  0
   -4.7487   -0.1482   -3.7174 H   0  0  0  0  0  0  0  0  0  0  0  0
   -3.9789    1.3402   -2.4012 C   0  0  0  0  0  0  0  0  0  0  0  0
   -4.9561    2.3191   -2.2243 C   0  0  0  0  0  0  0  0  0  0  0  0
   -5.9207    2.2243   -2.7108 H   0  0  0  0  0  0  0  0  0  0  0  0
   -4.6757    3.4241   -1.4083 C   0  0  0  0  0  0  0  0  0  0  0  0
   -5.4273    4.1944   -1.2611 H   0  0  0  0  0  0  0  0  0  0  0  0
   -3.4245    3.5376   -0.7827 C   0  0  0  0  0  0  0  0  0  0  0  0
   -3.2089    4.3955   -0.1525 H   0  0  0  0  0  0  0  0  0  0  0  0
   -2.4481    2.5496   -0.9716 C   0  0  0  0  0  0  0  0  0  0  0  0
   -1.4786    2.6368   -0.4898 H   0  0  0  0  0  0  0  0  0  0  0  0
   -2.7372    1.4499   -1.7869 C   0  0  0  0  0  0  0  0  0  0  0  0
   -0.6110   -0.3321    0.8685 C   0  0  0  0  0  0  0  0  0  0  0  0
    0.4551   -0.0489    1.3987 O   0  0  0  0  0  0  0  0  0  0  0  0
   -1.7757    0.2371    1.3542 N   0  0  0  0  0  0  0  0  0  0  0  0
   -2.6010    0.1560    0.7673 H   0  0  0  0  0  0  0  0  0  0  0  0
   -1.8091    1.1451    2.4924 C   0  0  0  0  0  0  0  0  0  0  0  0
   -1.2412    2.0553    2.2739 H   0  0  0  0  0  0  0  0  0  0  0  0
   -2.8419    1.4258    2.7201 H   0  0  0  0  0  0  0  0  0  0  0  0
   -1.3791    0.6644    3.3774 H   0  0  0  0  0  0  0  0  0  0  0  0
  1  2  1  0  0  0  0
  2  3  1  0  0  0  0
  2  4  1  0  0  0  0
  2  5  1  0  0  0  0
  5  6  2  0  0  0  0
  5  7  1  0  0  0  0
  7  8  1  0  0  0  0
  7  9  1  0  0  0  0
  9 10  1  0  0  0  0
  9 11  1  0  0  0  0
  9 29  1  0  0  0  0
 11 12  1  0  0  0  0
 11 13  1  0  0  0  0
 11 14  1  0  0  0  0
 14 15  2  0  0  0  0
 14 28  1  0  0  0  0
 15 16  1  0  0  0  0
 15 17  1  0  0  0  0
 17 18  1  0  0  0  0
 17 19  1  0  0  0  0
 19 20  1  0  0  0  0
 19 28  2  0  0  0  0
 20 21  1  0  0  0  0
 20 22  2  0  0  0  0
 22 23  1  0  0  0  0
 22 24  1  0  0  0  0
 24 25  1  0  0  0  0
 24 26  2  0  0  0  0
 26 27  1  0  0  0  0
 26 28  1  0  0  0  0
 29 30  2  0  0  0  0
 29 31  1  0  0  0  0
 31 32  1  0  0  0  0
 31 33  1  0  0  0  0
 33 34  1  0  0  0  0
 33 35  1  0  0  0  0
 33 36  1  0  0  0  0
M  END
$$$$

  -OEChem-03222214083D

 36 37  0     1  0  0  0  0  0999 V2000
   -3.2175   -4.6426    1.1664 H   0  0  0  0  0  0  0  0  0  0  0  0
   -3.2644   -3.8474    0.4167 C   0  0  0  0  0  0  0  0  0  0  0  0
   -4.0645   -3.1550    0.6886 H   0  0  0  0  0  0  0  0  0  0  0  0
   -3.4897   -4.2938   -0.5547 H   0  0  0  0  0  0  0  0  0  0  0  0
   -1.9400   -3.1108    0.3557 C   0  0  0  0  0  0  0  0  0  0  0  0
   -1.0343   -3.4258    1.1058 O   0  0  0  0  0  0  0  0  0  0  0  0
   -1.7664   -2.0893   -0.5563 N   0  0  0  0  0  0  0  0  0  0  0  0
   -2.6074   -1.7746   -1.0290 H   0  0  0  0  0  0  0  0  0  0  0  0
   -0.6456   -1.1322   -0.4858 C   0  0  1  0  0  0  0  0  0  0  0  0
    0.2945   -1.6942   -0.5178 H   0  0  0  0  0  0  0  0  0  0  0  0
   -0.6389   -0.1149   -1.6520 C   0  0  0  0  0  0  0  0  0  0  0  0
   -0.1028    0.7923   -1.3550 H   0  0  0  0  0  0  0  0  0  0  0  0
   -0.0594   -0.5582   -2.4678 H   0  0  0  0  0  0  0  0  0  0  0  0
   -1.9961    0.2452   -2.2243 C   0  0  0  0  0  0  0  0  0  0  0  0
   -2.9236   -0.5868   -2.8136 C   0  0  0  0  0  0  0  0  0  0  0  0
   -2.7620   -1.6331   -3.0672 H   0  0  0  0  0  0  0  0  0  0  0  0
   -4.0797    0.1522   -3.0441 N   0  0  0  0  0  0  0  0  0  0  0  0
   -4.9134   -0.1846   -3.5238 H   0  0  0  0  0  0  0  0  0  0  0  0
   -3.9202    1.4480   -2.5833 C   0  0  0  0  0  0  0  0  0  0  0  0
   -4.7863    2.5412   -2.5726 C   0  0  0  0  0  0  0  0  0  0  0  0
   -5.7838    2.4551   -2.9894 H   0  0  0  0  0  0  0  0  0  0  0  0
   -4.3513    3.7511   -2.0138 C   0  0  0  0  0  0  0  0  0  0  0  0
   -5.0136    4.6118   -1.9986 H   0  0  0  0  0  0  0  0  0  0  0  0
   -3.0607    3.8523   -1.4730 C   0  0  0  0  0  0  0  0  0  0  0  0
   -2.7266    4.7897   -1.0385 H   0  0  0  0  0  0  0  0  0  0  0  0
   -2.1979    2.7479   -1.4927 C   0  0  0  0  0  0  0  0  0  0  0  0
   -1.1999    2.8291   -1.0732 H   0  0  0  0  0  0  0  0  0  0  0  0
   -2.6366    1.5451   -2.0585 C   0  0  0  0  0  0  0  0  0  0  0  0
   -0.6354   -0.3256    0.8324 C   0  0  0  0  0  0  0  0  0  0  0  0
    0.4265   -0.0063    1.3501 O   0  0  0  0  0  0  0  0  0  0  0  0
   -1.8132    0.2175    1.3179 N   0  0  0  0  0  0  0  0  0  0  0  0
   -2.6324    0.1232    0.7255 H   0  0  0  0  0  0  0  0  0  0  0  0
   -1.8573    1.1643    2.4245 C   0  0  0  0  0  0  0  0  0  0  0  0
   -1.3911    2.1120    2.1362 H   0  0  0  0  0  0  0  0  0  0  0  0
   -2.8947    1.3593    2.7126 H   0  0  0  0  0  0  0  0  0  0  0  0
   -1.3297    0.7621    3.2961 H   0  0  0  0  0  0  0  0  0  0  0  0
  1  2  1  0  0  0  0
  2  3  1  0  0  0  0
  2  4  1  0  0  0  0
  2  5  1  0  0  0  0
  5  6  2  0  0  0  0
  5  7  1  0  0  0  0
  7  8  1  0  0  0  0
  7  9  1  0  0  0  0
  9 10  1  0  0  0  0
  9 11  1  0  0  0  0
  9 29  1  0  0  0  0
 11 12  1  0  0  0  0
 11 13  1  0  0  0  0
 11 14  1  0  0  0  0
 14 15  2  0  0  0  0
 14 28  1  0  0  0  0
 15 16  1  0  0  0  0
 15 17  1  0  0  0  0
 17 18  1  0  0  0  0
 17 19  1  0  0  0  0
 19 20  1  0  0  0  0
 19 28  2  0  0  0  0
 20 21  1  0  0  0  0
 20 22  2  0  0  0  0
 22 23  1  0  0  0  0
 22 24  1  0  0  0  0
 24 25  1  0  0  0  0
 24 26  2  0  0  0  0
 26 27  1  0  0  0  0
 26 28  1  0  0  0  0
 29 30  2  0  0  0  0
 29 31  1  0  0  0  0
 31 32  1  0  0  0  0
 31 33  1  0  0  0  0
 33 34  1  0  0  0  0
 33 35  1  0  0  0  0
 33 36  1  0  0  0  0
M  END
$$$$

  -OEChem-03222214083D

 36 37  0     1  0  0  0  0  0999 V2000
   -2.9828   -4.7556    1.3038 H   0  0  0  0  0  0  0  0  0  0  0  0
   -3.1101   -3.9785    0.5446 C   0  0  0  0  0  0  0  0  0  0  0  0
   -3.9282   -3.3216    0.8490 H   0  0  0  0  0  0  0  0  0  0  0  0
   -3.3646   -4.4544   -0.4055 H   0  0  0  0  0  0  0  0  0  0  0  0
   -1.8289   -3.1797    0.3991 C   0  0  0  0  0  0  0  0  0  0  0  0
   -0.8584   -3.4595    1.0785 O   0  0  0  0  0  0  0  0  0  0  0  0
   -1.7698   -2.1399   -0.5076 N   0  0  0  0  0  0  0  0  0  0  0  0
   -2.6593   -1.8549   -0.8988 H   0  0  0  0  0  0  0  0  0  0  0  0
   -0.6958   -1.1293   -0.4919 C   0  0  1  0  0  0  0  0  0  0  0  0
    0.2621   -1.6558   -0.5730 H   0  0  0  0  0  0  0  0  0  0  0  0
   -0.7605   -0.1065   -1.6549 C   0  0  0  0  0  0  0  0  0  0  0  0
   -0.2457    0.8090   -1.3474 H   0  0  0  0  0  0  0  0  0  0  0  0
   -0.1756   -0.5192   -2.4826 H   0  0  0  0  0  0  0  0  0  0  0  0
   -2.1234    0.2464   -2.2303 C   0  0  0  0  0  0  0  0  0  0  0  0
   -3.1759   -0.5746   -2.5805 C   0  0  0  0  0  0  0  0  0  0  0  0
   -3.1552   -1.6612   -2.6103 H   0  0  0  0  0  0  0  0  0  0  0  0
   -4.2506    0.2265   -2.9520 N   0  0  0  0  0  0  0  0  0  0  0  0
   -5.1429   -0.1062   -3.3143 H   0  0  0  0  0  0  0  0  0  0  0  0
   -3.9136    1.5626   -2.8354 C   0  0  0  0  0  0  0  0  0  0  0  0
   -4.6448    2.7236   -3.0863 C   0  0  0  0  0  0  0  0  0  0  0  0
   -5.6679    2.6617   -3.4401 H   0  0  0  0  0  0  0  0  0  0  0  0
   -4.0400    3.9699   -2.8747 C   0  0  0  0  0  0  0  0  0  0  0  0
   -4.5953    4.8835   -3.0662 H   0  0  0  0  0  0  0  0  0  0  0  0
   -2.7165    4.0387   -2.4156 C   0  0  0  0  0  0  0  0  0  0  0  0
   -2.2492    5.0053   -2.2517 H   0  0  0  0  0  0  0  0  0  0  0  0
   -1.9916    2.8640   -2.1692 C   0  0  0  0  0  0  0  0  0  0  0  0
   -0.9670    2.9250   -1.8171 H   0  0  0  0  0  0  0  0  0  0  0  0
   -2.5993    1.6205   -2.3855 C   0  0  0  0  0  0  0  0  0  0  0  0
   -0.6409   -0.3412    0.8364 C   0  0  0  0  0  0  0  0  0  0  0  0
    0.4362    0.0137    1.2961 O   0  0  0  0  0  0  0  0  0  0  0  0
   -1.8080    0.1369    1.4078 N   0  0  0  0  0  0  0  0  0  0  0  0
   -2.6645    0.0010    0.8812 H   0  0  0  0  0  0  0  0  0  0  0  0
   -1.8218    1.0423    2.5493 C   0  0  0  0  0  0  0  0  0  0  0  0
   -1.3626    2.0003    2.2844 H   0  0  0  0  0  0  0  0  0  0  0  0
   -2.8506    1.2275    2.8722 H   0  0  0  0  0  0  0  0  0  0  0  0
   -1.2703    0.6072    3.3896 H   0  0  0  0  0  0  0  0  0  0  0  0
  1  2  1  0  0  0  0
  2  3  1  0  0  0  0
  2  4  1  0  0  0  0
  2  5  1  0  0  0  0
  5  6  2  0  0  0  0
  5  7  1  0  0  0  0
  7  8  1  0  0  0  0
  7  9  1  0  0  0  0
  9 10  1  0  0  0  0
  9 11  1  0  0  0  0
  9 29  1  0  0  0  0
 11 12  1  0  0  0  0
 11 13  1  0  0  0  0
 11 14  1  0  0  0  0
 14 15  2  0  0  0  0
 14 28  1  0  0  0  0
 15 16  1  0  0  0  0
 15 17  1  0  0  0  0
 17 18  1  0  0  0  0
 17 19  1  0  0  0  0
 19 20  1  0  0  0  0
 19 28  2  0  0  0  0
 20 21  1  0  0  0  0
 20 22  2  0  0  0  0
 22 23  1  0  0  0  0
 22 24  1  0  0  0  0
 24 25  1  0  0  0  0
 24 26  2  0  0  0  0
 26 27  1  0  0  0  0
 26 28  1  0  0  0  0
 29 30  2  0  0  0  0
 29 31  1  0  0  0  0
 31 32  1  0  0  0  0
 31 33  1  0  0  0  0
 33 34  1  0  0  0  0
 33 35  1  0  0  0  0
 33 36  1  0  0  0  0
M  END
$$$$

  -OEChem-03222214083D

 36 37  0     1  0  0  0  0  0999 V2000
   -2.7344   -5.0144    1.1824 H   0  0  0  0  0  0  0  0  0  0  0  0
   -2.8579   -4.2809    0.3802 C   0  0  0  0  0  0  0  0  0  0  0  0
   -3.8787   -3.8931    0.4143 H   0  0  0  0  0  0  0  0  0  0  0  0
   -2.6940   -4.7793   -0.5783 H   0  0  0  0  0  0  0  0  0  0  0  0
   -1.8645   -3.1474    0.5550 C   0  0  0  0  0  0  0  0  0  0  0  0
   -1.0948   -3.1624    1.4970 O   0  0  0  0  0  0  0  0  0  0  0  0
   -1.8309   -2.1226   -0.3711 N   0  0  0  0  0  0  0  0  0  0  0  0
   -2.3324   -2.3027   -1.2323 H   0  0  0  0  0  0  0  0  0  0  0  0
   -0.7625   -1.1075   -0.4314 C   0  0  1  0  0  0  0  0  0  0  0  0
    0.1961   -1.6202   -0.5671 H   0  0  0  0  0  0  0  0  0  0  0  0
   -0.9409   -0.0889   -1.5901 C   0  0  0  0  0  0  0  0  0  0  0  0
   -0.4148    0.8312   -1.3155 H   0  0  0  0  0  0  0  0  0  0  0  0
   -0.4119   -0.4924   -2.4588 H   0  0  0  0  0  0  0  0  0  0  0  0
   -2.3389    0.2816   -2.0780 C   0  0  0  0  0  0  0  0  0  0  0  0
   -3.5349   -0.4114   -2.1193 C   0  0  0  0  0  0  0  0  0  0  0  0
   -3.7188   -1.4268   -1.7895 H   0  0  0  0  0  0  0  0  0  0  0  0
   -4.5059    0.4179   -2.6710 N   0  0  0  0  0  0  0  0  0  0  0  0
   -5.4816    0.1700   -2.8247 H   0  0  0  0  0  0  0  0  0  0  0  0
   -3.9607    1.6441   -2.9965 C   0  0  0  0  0  0  0  0  0  0  0  0
   -4.5286    2.7822   -3.5685 C   0  0  0  0  0  0  0  0  0  0  0  0
   -5.5795    2.7958   -3.8355 H   0  0  0  0  0  0  0  0  0  0  0  0
   -3.7228    3.9061   -3.7938 C   0  0  0  0  0  0  0  0  0  0  0  0
   -4.1491    4.8001   -4.2392 H   0  0  0  0  0  0  0  0  0  0  0  0
   -2.3650    3.8769   -3.4441 C   0  0  0  0  0  0  0  0  0  0  0  0
   -1.7415    4.7488   -3.6179 H   0  0  0  0  0  0  0  0  0  0  0  0
   -1.8076    2.7255   -2.8695 C   0  0  0  0  0  0  0  0  0  0  0  0
   -0.7564    2.7099   -2.6014 H   0  0  0  0  0  0  0  0  0  0  0  0
   -2.6168    1.6033   -2.6463 C   0  0  0  0  0  0  0  0  0  0  0  0
   -0.6387   -0.2783    0.8692 C   0  0  0  0  0  0  0  0  0  0  0  0
    0.4630    0.1058    1.2416 O   0  0  0  0  0  0  0  0  0  0  0  0
   -1.7716    0.2166    1.4894 N   0  0  0  0  0  0  0  0  0  0  0  0
   -2.6669   -0.0709    1.1087 H   0  0  0  0  0  0  0  0  0  0  0  0
   -1.7366    1.0935    2.6513 C   0  0  0  0  0  0  0  0  0  0  0  0
   -1.1789    2.0082    2.4246 H   0  0  0  0  0  0  0  0  0  0  0  0
   -2.7531    1.3727    2.9444 H   0  0  0  0  0  0  0  0  0  0  0  0
   -1.2580    0.5874    3.4961 H   0  0  0  0  0  0  0  0  0  0  0  0
  1  2  1  0  0  0  0
  2  3  1  0  0  0  0
  2  4  1  0  0  0  0
  2  5  1  0  0  0  0
  5  6  2  0  0  0  0
  5  7  1  0  0  0  0
  7  8  1  0  0  0  0
  7  9  1  0  0  0  0
  9 10  1  0  0  0  0
  9 11  1  0  0  0  0
  9 29  1  0  0  0  0
 11 12  1  0  0  0  0
 11 13  1  0  0  0  0
 11 14  1  0  0  0  0
 14 15  2  0  0  0  0
 14 28  1  0  0  0  0
 15 16  1  0  0  0  0
 15 17  1  0  0  0  0
 17 18  1  0  0  0  0
 17 19  1  0  0  0  0
 19 20  1  0  0  0  0
 19 28  2  0  0  0  0
 20 21  1  0  0  0  0
 20 22  2  0  0  0  0
 22 23  1  0  0  0  0
 22 24  1  0  0  0  0
 24 25  1  0  0  0  0
 24 26  2  0  0  0  0
 26 27  1  0  0  0  0
 26 28  1  0  0  0  0
 29 30  2  0  0  0  0
 29 31  1  0  0  0  0
 31 32  1  0  0  0  0
 31 33  1  0  0  0  0
 33 34  1  0  0  0  0
 33 35  1  0  0  0  0
 33 36  1  0  0  0  0
M  END
$$$$

  -OEChem-03222214083D

 36 37  0     1  0  0  0  0  0999 V2000
   -2.7550   -5.0215    1.1123 H   0  0  0  0  0  0  0  0  0  0  0  0
   -2.8940   -4.2622    0.3372 C   0  0  0  0  0  0  0  0  0  0  0  0
   -3.9118   -3.8715    0.4073 H   0  0  0  0  0  0  0  0  0  0  0  0
   -2.7554   -4.7300   -0.6405 H   0  0  0  0  0  0  0  0  0  0  0  0
   -1.8910   -3.1392    0.5227 C   0  0  0  0  0  0  0  0  0  0  0  0
   -1.1042   -3.1798    1.4496 O   0  0  0  0  0  0  0  0  0  0  0  0
   -1.8731   -2.0887   -0.3741 N   0  0  0  0  0  0  0  0  0  0  0  0
   -2.4088   -2.2344   -1.2238 H   0  0  0  0  0  0  0  0  0  0  0  0
   -0.7906   -1.0897   -0.4476 C   0  0  1  0  0  0  0  0  0  0  0  0
    0.1515   -1.6179   -0.6312 H   0  0  0  0  0  0  0  0  0  0  0  0
   -0.9962   -0.0576   -1.5879 C   0  0  0  0  0  0  0  0  0  0  0  0
   -0.4565    0.8582   -1.3223 H   0  0  0  0  0  0  0  0  0  0  0  0
   -0.4985   -0.4608   -2.4755 H   0  0  0  0  0  0  0  0  0  0  0  0
   -2.4009    0.3382   -2.0309 C   0  0  0  0  0  0  0  0  0  0  0  0
   -3.6547   -0.2052   -1.8184 C   0  0  0  0  0  0  0  0  0  0  0  0
   -3.9023   -1.0676   -1.2097 H   0  0  0  0  0  0  0  0  0  0  0  0
   -4.5882    0.5640   -2.5070 N   0  0  0  0  0  0  0  0  0  0  0  0
   -5.5941    0.4056   -2.5208 H   0  0  0  0  0  0  0  0  0  0  0  0
   -3.9613    1.6002   -3.1717 C   0  0  0  0  0  0  0  0  0  0  0  0
   -4.4617    2.6186   -3.9831 C   0  0  0  0  0  0  0  0  0  0  0  0
   -5.5253    2.6882   -4.1815 H   0  0  0  0  0  0  0  0  0  0  0  0
   -3.5716    3.5487   -4.5375 C   0  0  0  0  0  0  0  0  0  0  0  0
   -3.9447    4.3476   -5.1715 H   0  0  0  0  0  0  0  0  0  0  0  0
   -2.1974    3.4488   -4.2729 C   0  0  0  0  0  0  0  0  0  0  0  0
   -1.5085    4.1708   -4.7010 H   0  0  0  0  0  0  0  0  0  0  0  0
   -1.7085    2.4202   -3.4546 C   0  0  0  0  0  0  0  0  0  0  0  0
   -0.6455    2.3453   -3.2495 H   0  0  0  0  0  0  0  0  0  0  0  0
   -2.6030    1.4944   -2.9036 C   0  0  0  0  0  0  0  0  0  0  0  0
   -0.5933   -0.2933    0.8642 C   0  0  0  0  0  0  0  0  0  0  0  0
    0.5317    0.0630    1.1920 O   0  0  0  0  0  0  0  0  0  0  0  0
   -1.6859    0.2094    1.5476 N   0  0  0  0  0  0  0  0  0  0  0  0
   -2.6013   -0.0996    1.2390 H   0  0  0  0  0  0  0  0  0  0  0  0
   -1.5750    1.0233    2.7507 C   0  0  0  0  0  0  0  0  0  0  0  0
   -1.0031    1.9346    2.5464 H   0  0  0  0  0  0  0  0  0  0  0  0
   -2.5694    1.3128    3.1036 H   0  0  0  0  0  0  0  0  0  0  0  0
   -1.0732    0.4626    3.5464 H   0  0  0  0  0  0  0  0  0  0  0  0
  1  2  1  0  0  0  0
  2  3  1  0  0  0  0
  2  4  1  0  0  0  0
  2  5  1  0  0  0  0
  5  6  2  0  0  0  0
  5  7  1  0  0  0  0
  7  8  1  0  0  0  0
  7  9  1  0  0  0  0
  9 10  1  0  0  0  0
  9 11  1  0  0  0  0
  9 29  1  0  0  0  0
 11 12  1  0  0  0  0
 11 13  1  0  0  0  0
 11 14  1  0  0  0  0
 14 15  2  0  0  0  0
 14 28  1  0  0  0  0
 15 16  1  0  0  0  0
 15 17  1  0  0  0  0
 17 18  1  0  0  0  0
 17 19  1  0  0  0  0
 19 20  1  0  0  0  0
 19 28  2  0  0  0  0
 20 21  1  0  0  0  0
 20 22  2  0  0  0  0
 22 23  1  0  0  0  0
 22 24  1  0  0  0  0
 24 25  1  0  0  0  0
 24 26  2  0  0  0  0
 26 27  1  0  0  0  0
 26 28  1  0  0  0  0
 29 30  2  0  0  0  0
 29 31  1  0  0  0  0
 31 32  1  0  0  0  0
 31 33  1  0  0  0  0
 33 34  1  0  0  0  0
 33 35  1  0  0  0  0
 33 36  1  0  0  0  0
M  END
$$$$

  -OEChem-03222214083D

 36 37  0     1  0  0  0  0  0999 V2000
   -2.8815   -4.9688    1.0583 H   0  0  0  0  0  0  0  0  0  0  0  0
   -2.9953   -4.1952    0.2930 C   0  0  0  0  0  0  0  0  0  0  0  0
   -3.9973   -3.7672    0.3720 H   0  0  0  0  0  0  0  0  0  0  0  0
   -2.8782   -4.6559   -0.6909 H   0  0  0  0  0  0  0  0  0  0  0  0
   -1.9504   -3.1127    0.4868 C   0  0  0  0  0  0  0  0  0  0  0  0
   -1.1601   -3.1936    1.4083 O   0  0  0  0  0  0  0  0  0  0  0  0
   -1.9028   -2.0459   -0.3888 N   0  0  0  0  0  0  0  0  0  0  0  0
   -2.4763   -2.1328   -1.2234 H   0  0  0  0  0  0  0  0  0  0  0  0
   -0.7920   -1.0758   -0.4502 C   0  0  1  0  0  0  0  0  0  0  0  0
    0.1327   -1.6304   -0.6434 H   0  0  0  0  0  0  0  0  0  0  0  0
   -0.9737   -0.0385   -1.5881 C   0  0  0  0  0  0  0  0  0  0  0  0
   -0.4133    0.8685   -1.3347 H   0  0  0  0  0  0  0  0  0  0  0  0
   -0.4927   -0.4625   -2.4750 H   0  0  0  0  0  0  0  0  0  0  0  0
   -2.3732    0.3784   -2.0203 C   0  0  0  0  0  0  0  0  0  0  0  0
   -3.6343    0.0135   -1.5895 C   0  0  0  0  0  0  0  0  0  0  0  0
   -3.8716   -0.6487   -0.7629 H   0  0  0  0  0  0  0  0  0  0  0  0
   -4.5728    0.6754   -2.3762 N   0  0  0  0  0  0  0  0  0  0  0  0
   -5.5839    0.6186   -2.2684 H   0  0  0  0  0  0  0  0  0  0  0  0
   -3.9393    1.4671   -3.3160 C   0  0  0  0  0  0  0  0  0  0  0  0
   -4.4386    2.3080   -4.3108 C   0  0  0  0  0  0  0  0  0  0  0  0
   -5.5085    2.4238   -4.4442 H   0  0  0  0  0  0  0  0  0  0  0  0
   -3.5392    3.0009   -5.1332 C   0  0  0  0  0  0  0  0  0  0  0  0
   -3.9124    3.6593   -5.9122 H   0  0  0  0  0  0  0  0  0  0  0  0
   -2.1568    2.8467   -4.9490 C   0  0  0  0  0  0  0  0  0  0  0  0
   -1.4616    3.3864   -5.5850 H   0  0  0  0  0  0  0  0  0  0  0  0
   -1.6681    1.9996   -3.9439 C   0  0  0  0  0  0  0  0  0  0  0  0
   -0.5991    1.8826   -3.7983 H   0  0  0  0  0  0  0  0  0  0  0  0
   -2.5723    1.3095   -3.1281 C   0  0  0  0  0  0  0  0  0  0  0  0
   -0.5576   -0.3037    0.8692 C   0  0  0  0  0  0  0  0  0  0  0  0
    0.5800    0.0220    1.1845 O   0  0  0  0  0  0  0  0  0  0  0  0
   -1.6268    0.2228    1.5715 N   0  0  0  0  0  0  0  0  0  0  0  0
   -2.5496   -0.0980    1.3025 H   0  0  0  0  0  0  0  0  0  0  0  0
   -1.4736    0.9941    2.7976 C   0  0  0  0  0  0  0  0  0  0  0  0
   -0.8623    1.8844    2.6168 H   0  0  0  0  0  0  0  0  0  0  0  0
   -2.4523    1.3172    3.1649 H   0  0  0  0  0  0  0  0  0  0  0  0
   -0.9942    0.3875    3.5731 H   0  0  0  0  0  0  0  0  0  0  0  0
  1  2  1  0  0  0  0
  2  3  1  0  0  0  0
  2  4  1  0  0  0  0
  2  5  1  0  0  0  0
  5  6  2  0  0  0  0
  5  7  1  0  0  0  0
  7  8  1  0  0  0  0
  7  9  1  0  0  0  0
  9 10  1  0  0  0  0
  9 11  1  0  0  0  0
  9 29  1  0  0  0  0
 11 12  1  0  0  0  0
 11 13  1  0  0  0  0
 11 14  1  0  0  0  0
 14 15  2  0  0  0  0
 14 28  1  0  0  0  0
 15 16  1  0  0  0  0
 15 17  1  0  0  0  0
 17 18  1  0  0  0  0
 17 19  1  0  0  0  0
 19 20  1  0  0  0  0
 19 28  2  0  0  0  0
 20 21  1  0  0  0  0
 20 22  2  0  0  0  0
 22 23  1  0  0  0  0
 22 24  1  0  0  0  0
 24 25  1  0  0  0  0
 24 26  2  0  0  0  0
 26 27  1  0  0  0  0
 26 28  1  0  0  0  0
 29 30  2  0  0  0  0
 29 31  1  0  0  0  0
 31 32  1  0  0  0  0
 31 33  1  0  0  0  0
 33 34  1  0  0  0  0
 33 35  1  0  0  0  0
 33 36  1  0  0  0  0
M  END
$$$$

  -OEChem-03222214083D

 36 37  0     1  0  0  0  0  0999 V2000
   -3.0373   -4.8960    0.9825 H   0  0  0  0  0  0  0  0  0  0  0  0
   -3.1162   -4.1046    0.2315 C   0  0  0  0  0  0  0  0  0  0  0  0
   -4.0979   -3.6334    0.3188 H   0  0  0  0  0  0  0  0  0  0  0  0
   -3.0203   -4.5528   -0.7605 H   0  0  0  0  0  0  0  0  0  0  0  0
   -2.0238   -3.0738    0.4442 C   0  0  0  0  0  0  0  0  0  0  0  0
   -1.2533   -3.1910    1.3787 O   0  0  0  0  0  0  0  0  0  0  0  0
   -1.9225   -1.9962   -0.4122 N   0  0  0  0  0  0  0  0  0  0  0  0
   -2.5123   -2.0234   -1.2408 H   0  0  0  0  0  0  0  0  0  0  0  0
   -0.7815   -1.0587   -0.4410 C   0  0  1  0  0  0  0  0  0  0  0  0
    0.1278   -1.6429   -0.6210 H   0  0  0  0  0  0  0  0  0  0  0  0
   -0.9129   -0.0278   -1.5898 C   0  0  0  0  0  0  0  0  0  0  0  0
   -0.3394    0.8727   -1.3436 H   0  0  0  0  0  0  0  0  0  0  0  0
   -0.4289   -0.4771   -2.4625 H   0  0  0  0  0  0  0  0  0  0  0  0
   -2.3044    0.3941   -2.0360 C   0  0  0  0  0  0  0  0  0  0  0  0
   -3.5353    0.2382   -1.4319 C   0  0  0  0  0  0  0  0  0  0  0  0
   -3.7177   -0.2030   -0.4562 H   0  0  0  0  0  0  0  0  0  0  0  0
   -4.5050    0.7707   -2.2768 N   0  0  0  0  0  0  0  0  0  0  0  0
   -5.5014    0.8298   -2.0740 H   0  0  0  0  0  0  0  0  0  0  0  0
   -3.9171    1.2766   -3.4221 C   0  0  0  0  0  0  0  0  0  0  0  0
   -4.4584    1.9077   -4.5420 C   0  0  0  0  0  0  0  0  0  0  0  0
   -5.5279    2.0722   -4.6147 H   0  0  0  0  0  0  0  0  0  0  0  0
   -3.6020    2.3280   -5.5690 C   0  0  0  0  0  0  0  0  0  0  0  0
   -4.0087    2.8221   -6.4465 H   0  0  0  0  0  0  0  0  0  0  0  0
   -2.2191    2.1144   -5.4629 C   0  0  0  0  0  0  0  0  0  0  0  0
   -1.5574    2.4440   -6.2585 H   0  0  0  0  0  0  0  0  0  0  0  0
   -1.6869    1.4806   -4.3306 C   0  0  0  0  0  0  0  0  0  0  0  0
   -0.6171    1.3206   -4.2441 H   0  0  0  0  0  0  0  0  0  0  0  0
   -2.5490    1.0619   -3.3106 C   0  0  0  0  0  0  0  0  0  0  0  0
   -0.5360   -0.3053    0.8872 C   0  0  0  0  0  0  0  0  0  0  0  0
    0.6080   -0.0053    1.2042 O   0  0  0  0  0  0  0  0  0  0  0  0
   -1.5926    0.2513    1.5865 N   0  0  0  0  0  0  0  0  0  0  0  0
   -2.5122   -0.1096    1.3632 H   0  0  0  0  0  0  0  0  0  0  0  0
   -1.4147    0.9829    2.8344 C   0  0  0  0  0  0  0  0  0  0  0  0
   -0.7376    1.8317    2.6903 H   0  0  0  0  0  0  0  0  0  0  0  0
   -2.3761    1.3682    3.1865 H   0  0  0  0  0  0  0  0  0  0  0  0
   -0.9987    0.3267    3.6060 H   0  0  0  0  0  0  0  0  0  0  0  0
  1  2  1  0  0  0  0
  2  3  1  0  0  0  0
  2  4  1  0  0  0  0
  2  5  1  0  0  0  0
  5  6  2  0  0  0  0
  5  7  1  0  0  0  0
  7  8  1  0  0  0  0
  7  9  1  0  0  0  0
  9 10  1  0  0  0  0
  9 11  1  0  0  0  0
  9 29  1  0  0  0  0
 11 12  1  0  0  0  0
 11 13  1  0  0  0  0
 11 14  1  0  0  0  0
 14 15  2  0  0  0  0
 14 28  1  0  0  0  0
 15 16  1  0  0  0  0
 15 17  1  0  0  0  0
 17 18  1  0  0  0  0
 17 19  1  0  0  0  0
 19 20  1  0  0  0  0
 19 28  2  0  0  0  0
 20 21  1  0  0  0  0
 20 22  2  0  0  0  0
 22 23  1  0  0  0  0
 22 24  1  0  0  0  0
 24 25  1  0  0  0  0
 24 26  2  0  0  0  0
 26 27  1  0  0  0  0
 26 28  1  0  0  0  0
 29 30  2  0  0  0  0
 29 31  1  0  0  0  0
 31 32  1  0  0  0  0
 31 33  1  0  0  0  0
 33 34  1  0  0  0  0
 33 35  1  0  0  0  0
 33 36  1  0  0  0  0
M  END
$$$$

  -OEChem-03222214083D

 36 37  0     1  0  0  0  0  0999 V2000
   -3.1903   -4.8199    0.8860 H   0  0  0  0  0  0  0  0  0  0  0  0
   -3.2253   -4.0139    0.1474 C   0  0  0  0  0  0  0  0  0  0  0  0
   -4.1849   -3.4992    0.2331 H   0  0  0  0  0  0  0  0  0  0  0  0
   -3.1402   -4.4495   -0.8511 H   0  0  0  0  0  0  0  0  0  0  0  0
   -2.0895   -3.0376    0.3869 C   0  0  0  0  0  0  0  0  0  0  0  0
   -1.3268   -3.2076    1.3201 O   0  0  0  0  0  0  0  0  0  0  0  0
   -1.9418   -1.9421   -0.4379 N   0  0  0  0  0  0  0  0  0  0  0  0
   -2.5557   -1.8942   -1.2486 H   0  0  0  0  0  0  0  0  0  0  0  0
   -0.7776   -1.0336   -0.4255 C   0  0  1  0  0  0  0  0  0  0  0  0
    0.1157   -1.6463   -0.5906 H   0  0  0  0  0  0  0  0  0  0  0  0
   -0.8482   -0.0084   -1.5825 C   0  0  0  0  0  0  0  0  0  0  0  0
   -0.2734    0.8877   -1.3251 H   0  0  0  0  0  0  0  0  0  0  0  0
   -0.3431   -0.4703   -2.4360 H   0  0  0  0  0  0  0  0  0  0  0  0
   -2.2290    0.4138   -2.0528 C   0  0  0  0  0  0  0  0  0  0  0  0
   -3.4029    0.5004   -1.3361 C   0  0  0  0  0  0  0  0  0  0  0  0
   -3.5123    0.3074   -0.2730 H   0  0  0  0  0  0  0  0  0  0  0  0
   -4.4143    0.8929   -2.2084 N   0  0  0  0  0  0  0  0  0  0  0  0
   -5.3807    1.0813   -1.9480 H   0  0  0  0  0  0  0  0  0  0  0  0
   -3.9064    1.0688   -3.4836 C   0  0  0  0  0  0  0  0  0  0  0  0
   -4.5136    1.4582   -4.6775 C   0  0  0  0  0  0  0  0  0  0  0  0
   -5.5744    1.6814   -4.7051 H   0  0  0  0  0  0  0  0  0  0  0  0
   -3.7351    1.5570   -5.8389 C   0  0  0  0  0  0  0  0  0  0  0  0
   -4.1938    1.8589   -6.7759 H   0  0  0  0  0  0  0  0  0  0  0  0
   -2.3627    1.2693   -5.7916 C   0  0  0  0  0  0  0  0  0  0  0  0
   -1.7608    1.3503   -6.6917 H   0  0  0  0  0  0  0  0  0  0  0  0
   -1.7633    0.8814   -4.5847 C   0  0  0  0  0  0  0  0  0  0  0  0
   -0.7004    0.6659   -4.5467 H   0  0  0  0  0  0  0  0  0  0  0  0
   -2.5475    0.7811   -3.4295 C   0  0  0  0  0  0  0  0  0  0  0  0
   -0.5277   -0.3145    0.9201 C   0  0  0  0  0  0  0  0  0  0  0  0
    0.6181   -0.0191    1.2346 O   0  0  0  0  0  0  0  0  0  0  0  0
   -1.5779    0.2546    1.6188 N   0  0  0  0  0  0  0  0  0  0  0  0
   -2.4864   -0.1579    1.4429 H   0  0  0  0  0  0  0  0  0  0  0  0
   -1.3813    0.9771    2.8696 C   0  0  0  0  0  0  0  0  0  0  0  0
   -0.7026    1.8238    2.7219 H   0  0  0  0  0  0  0  0  0  0  0  0
   -2.3366    1.3640    3.2362 H   0  0  0  0  0  0  0  0  0  0  0  0
   -0.9572    0.3147    3.6315 H   0  0  0  0  0  0  0  0  0  0  0  0
  1  2  1  0  0  0  0
  2  3  1  0  0  0  0
  2  4  1  0  0  0  0
  2  5  1  0  0  0  0
  5  6  2  0  0  0  0
  5  7  1  0  0  0  0
  7  8  1  0  0  0  0
  7  9  1  0  0  0  0
  9 10  1  0  0  0  0
  9 11  1  0  0  0  0
  9 29  1  0  0  0  0
 11 12  1  0  0  0  0
 11 13  1  0  0  0  0
 11 14  1  0  0  0  0
 14 15  2  0  0  0  0
 14 28  1  0  0  0  0
 15 16  1  0  0  0  0
 15 17  1  0  0  0  0
 17 18  1  0  0  0  0
 17 19  1  0  0  0  0
 19 20  1  0  0  0  0
 19 28  2  0  0  0  0
 20 21  1  0  0  0  0
 20 22  2  0  0  0  0
 22 23  1  0  0  0  0
 22 24  1  0  0  0  0
 24 25  1  0  0  0  0
 24 26  2  0  0  0  0
 26 27  1  0  0  0  0
 26 28  1  0  0  0  0
 29 30  2  0  0  0  0
 29 31  1  0  0  0  0
 31 32  1  0  0  0  0
 31 33  1  0  0  0  0
 33 34  1  0  0  0  0
 33 35  1  0  0  0  0
 33 36  1  0  0  0  0
M  END
$$$$

  -OEChem-03222214083D

 36 37  0     1  0  0  0  0  0999 V2000
   -3.3246   -4.7354    0.7758 H   0  0  0  0  0  0  0  0  0  0  0  0
   -3.3189   -3.9143    0.0532 C   0  0  0  0  0  0  0  0  0  0  0  0
   -4.2551   -3.3586    0.1440 H   0  0  0  0  0  0  0  0  0  0  0  0
   -3.2479   -4.3336   -0.9537 H   0  0  0  0  0  0  0  0  0  0  0  0
   -2.1411   -2.9954    0.3170 C   0  0  0  0  0  0  0  0  0  0  0  0
   -1.3865   -3.2212    1.2455 O   0  0  0  0  0  0  0  0  0  0  0  0
   -1.9434   -1.8878   -0.4798 N   0  0  0  0  0  0  0  0  0  0  0  0
   -2.5743   -1.7668   -1.2705 H   0  0  0  0  0  0  0  0  0  0  0  0
   -0.7590   -1.0077   -0.4232 C   0  0  1  0  0  0  0  0  0  0  0  0
    0.1222   -1.6420   -0.5712 H   0  0  0  0  0  0  0  0  0  0  0  0
   -0.7736    0.0162   -1.5820 C   0  0  0  0  0  0  0  0  0  0  0  0
   -0.2025    0.9083   -1.3027 H   0  0  0  0  0  0  0  0  0  0  0  0
   -0.2450   -0.4444   -2.4214 H   0  0  0  0  0  0  0  0  0  0  0  0
   -2.1457    0.4397   -2.0694 C   0  0  0  0  0  0  0  0  0  0  0  0
   -3.2372    0.7919   -1.3076 C   0  0  0  0  0  0  0  0  0  0  0  0
   -3.2549    0.8756   -0.2247 H   0  0  0  0  0  0  0  0  0  0  0  0
   -4.3005    1.0404   -2.1705 N   0  0  0  0  0  0  0  0  0  0  0  0
   -5.2234    1.3691   -1.8915 H   0  0  0  0  0  0  0  0  0  0  0  0
   -3.9069    0.8547   -3.4844 C   0  0  0  0  0  0  0  0  0  0  0  0
   -4.6034    0.9887   -4.6854 C   0  0  0  0  0  0  0  0  0  0  0  0
   -5.6456    1.2885   -4.6844 H   0  0  0  0  0  0  0  0  0  0  0  0
   -3.9384    0.7328   -5.8922 C   0  0  0  0  0  0  0  0  0  0  0  0
   -4.4673    0.8346   -6.8354 H   0  0  0  0  0  0  0  0  0  0  0  0
   -2.5890    0.3491   -5.8830 C   0  0  0  0  0  0  0  0  0  0  0  0
   -2.0753    0.1547   -6.8198 H   0  0  0  0  0  0  0  0  0  0  0  0
   -1.8984    0.2213   -4.6691 C   0  0  0  0  0  0  0  0  0  0  0  0
   -0.8524   -0.0673   -4.6655 H   0  0  0  0  0  0  0  0  0  0  0  0
   -2.5688    0.4770   -3.4668 C   0  0  0  0  0  0  0  0  0  0  0  0
   -0.5235   -0.3201    0.9407 C   0  0  0  0  0  0  0  0  0  0  0  0
    0.6197   -0.0404    1.2777 O   0  0  0  0  0  0  0  0  0  0  0  0
   -1.5772    0.2595    1.6251 N   0  0  0  0  0  0  0  0  0  0  0  0
   -2.4846   -0.1522    1.4364 H   0  0  0  0  0  0  0  0  0  0  0  0
   -1.3906    0.9561    2.8924 C   0  0  0  0  0  0  0  0  0  0  0  0
   -0.7102    1.8051    2.7674 H   0  0  0  0  0  0  0  0  0  0  0  0
   -2.3485    1.3359    3.2599 H   0  0  0  0  0  0  0  0  0  0  0  0
   -0.9730    0.2783    3.6444 H   0  0  0  0  0  0  0  0  0  0  0  0
  1  2  1  0  0  0  0
  2  3  1  0  0  0  0
  2  4  1  0  0  0  0
  2  5  1  0  0  0  0
  5  6  2  0  0  0  0
  5  7  1  0  0  0  0
  7  8  1  0  0  0  0
  7  9  1  0  0  0  0
  9 10  1  0  0  0  0
  9 11  1  0  0  0  0
  9 29  1  0  0  0  0
 11 12  1  0  0  0  0
 11 13  1  0  0  0  0
 11 14  1  0  0  0  0
 14 15  2  0  0  0  0
 14 28  1  0  0  0  0
 15 16  1  0  0  0  0
 15 17  1  0  0  0  0
 17 18  1  0  0  0  0
 17 19  1  0  0  0  0
 19 20  1  0  0  0  0
 19 28  2  0  0  0  0
 20 21  1  0  0  0  0
 20 22  2  0  0  0  0
 22 23  1  0  0  0  0
 22 24  1  0  0  0  0
 24 25  1  0  0  0  0
 24 26  2  0  0  0  0
 26 27  1  0  0  0  0
 26 28  1  0  0  0  0
 29 30  2  0  0  0  0
 29 31  1  0  0  0  0
 31 32  1  0  0  0  0
 31 33  1  0  0  0  0
 33 34  1  0  0  0  0
 33 35  1  0  0  0  0
 33 36  1  0  0  0  0
M  END
$$$$

  -OEChem-03222214083D

 36 37  0     1  0  0  0  0  0999 V2000
   -3.4578   -4.6328    0.6401 H   0  0  0  0  0  0  0  0  0  0  0  0
   -3.3987   -3.8043   -0.0715 C   0  0  0  0  0  0  0  0  0  0  0  0
   -4.3073   -3.2033    0.0109 H   0  0  0  0  0  0  0  0  0  0  0  0
   -3.3300   -4.2134   -1.0825 H   0  0  0  0  0  0  0  0  0  0  0  0
   -2.1811   -2.9493    0.2237 C   0  0  0  0  0  0  0  0  0  0  0  0
   -1.4508   -3.2275    1.1574 O   0  0  0  0  0  0  0  0  0  0  0  0
   -1.9143   -1.8449   -0.5563 N   0  0  0  0  0  0  0  0  0  0  0  0
   -2.5413   -1.6639   -1.3393 H   0  0  0  0  0  0  0  0  0  0  0  0
   -0.7097   -0.9981   -0.4464 C   0  0  1  0  0  0  0  0  0  0  0  0
    0.1638   -1.6483   -0.5666 H   0  0  0  0  0  0  0  0  0  0  0  0
   -0.6693    0.0377   -1.5929 C   0  0  0  0  0  0  0  0  0  0  0  0
   -0.1027    0.9204   -1.2779 H   0  0  0  0  0  0  0  0  0  0  0  0
   -0.1208   -0.4038   -2.4294 H   0  0  0  0  0  0  0  0  0  0  0  0
   -2.0338    0.4710   -2.0850 C   0  0  0  0  0  0  0  0  0  0  0  0
   -3.0161    1.0847   -1.3426 C   0  0  0  0  0  0  0  0  0  0  0  0
   -2.9137    1.4269   -0.3156 H   0  0  0  0  0  0  0  0  0  0  0  0
   -4.1475    1.1996   -2.1453 N   0  0  0  0  0  0  0  0  0  0  0  0
   -5.0168    1.6587   -1.8776 H   0  0  0  0  0  0  0  0  0  0  0  0
   -3.9087    0.6528   -3.3947 C   0  0  0  0  0  0  0  0  0  0  0  0
   -4.7227    0.5257   -4.5200 C   0  0  0  0  0  0  0  0  0  0  0  0
   -5.7404    0.9000   -4.5054 H   0  0  0  0  0  0  0  0  0  0  0  0
   -4.2088   -0.0930   -5.6678 C   0  0  0  0  0  0  0  0  0  0  0  0
   -4.8305   -0.1990   -6.5520 H   0  0  0  0  0  0  0  0  0  0  0  0
   -2.8907   -0.5738   -5.6768 C   0  0  0  0  0  0  0  0  0  0  0  0
   -2.4940   -1.0499   -6.5685 H   0  0  0  0  0  0  0  0  0  0  0  0
   -2.0806   -0.4371   -4.5406 C   0  0  0  0  0  0  0  0  0  0  0  0
   -1.0596   -0.8042   -4.5515 H   0  0  0  0  0  0  0  0  0  0  0  0
   -2.6002    0.1823   -3.3982 C   0  0  0  0  0  0  0  0  0  0  0  0
   -0.5272   -0.3283    0.9332 C   0  0  0  0  0  0  0  0  0  0  0  0
    0.6015   -0.0768    1.3350 O   0  0  0  0  0  0  0  0  0  0  0  0
   -1.6050    0.2692    1.5625 N   0  0  0  0  0  0  0  0  0  0  0  0
   -2.5125   -0.0998    1.2976 H   0  0  0  0  0  0  0  0  0  0  0  0
   -1.4810    0.9393    2.8509 C   0  0  0  0  0  0  0  0  0  0  0  0
   -0.8075    1.7993    2.7721 H   0  0  0  0  0  0  0  0  0  0  0  0
   -2.4588    1.2976    3.1869 H   0  0  0  0  0  0  0  0  0  0  0  0
   -1.0854    0.2498    3.6043 H   0  0  0  0  0  0  0  0  0  0  0  0
  1  2  1  0  0  0  0
  2  3  1  0  0  0  0
  2  4  1  0  0  0  0
  2  5  1  0  0  0  0
  5  6  2  0  0  0  0
  5  7  1  0  0  0  0
  7  8  1  0  0  0  0
  7  9  1  0  0  0  0
  9 10  1  0  0  0  0
  9 11  1  0  0  0  0
  9 29  1  0  0  0  0
 11 12  1  0  0  0  0
 11 13  1  0  0  0  0
 11 14  1  0  0  0  0
 14 15  2  0  0  0  0
 14 28  1  0  0  0  0
 15 16  1  0  0  0  0
 15 17  1  0  0  0  0
 17 18  1  0  0  0  0
 17 19  1  0  0  0  0
 19 20  1  0  0  0  0
 19 28  2  0  0  0  0
 20 21  1  0  0  0  0
 20 22  2  0  0  0  0
 22 23  1  0  0  0  0
 22 24  1  0  0  0  0
 24 25  1  0  0  0  0
 24 26  2  0  0  0  0
 26 27  1  0  0  0  0
 26 28  1  0  0  0  0
 29 30  2  0  0  0  0
 29 31  1  0  0  0  0
 31 32  1  0  0  0  0
 31 33  1  0  0  0  0
 33 34  1  0  0  0  0
 33 35  1  0  0  0  0
 33 36  1  0  0  0  0
M  END
$$$$

  -OEChem-03222214083D

 36 37  0     1  0  0  0  0  0999 V2000
   -3.5103   -4.5788    0.6489 H   0  0  0  0  0  0  0  0  0  0  0  0
   -3.4251   -3.7618   -0.0732 C   0  0  0  0  0  0  0  0  0  0  0  0
   -4.3071   -3.1226    0.0118 H   0  0  0  0  0  0  0  0  0  0  0  0
   -3.3849   -4.1851   -1.0798 H   0  0  0  0  0  0  0  0  0  0  0  0
   -2.1701   -2.9546    0.1983 C   0  0  0  0  0  0  0  0  0  0  0  0
   -1.4386   -3.2545    1.1246 O   0  0  0  0  0  0  0  0  0  0  0  0
   -1.8661   -1.8736   -0.6005 N   0  0  0  0  0  0  0  0  0  0  0  0
   -2.5070   -1.6588   -1.3638 H   0  0  0  0  0  0  0  0  0  0  0  0
   -0.6601   -1.0312   -0.4709 C   0  0  1  0  0  0  0  0  0  0  0  0
    0.2200   -1.6778   -0.5577 H   0  0  0  0  0  0  0  0  0  0  0  0
   -0.6020    0.0062   -1.6149 C   0  0  0  0  0  0  0  0  0  0  0  0
   -0.0435    0.8893   -1.2862 H   0  0  0  0  0  0  0  0  0  0  0  0
   -0.0462   -0.4240   -2.4531 H   0  0  0  0  0  0  0  0  0  0  0  0
   -1.9683    0.4276   -2.1052 C   0  0  0  0  0  0  0  0  0  0  0  0
   -2.8289    1.2765   -1.4515 C   0  0  0  0  0  0  0  0  0  0  0  0
   -2.6066    1.8170   -0.5332 H   0  0  0  0  0  0  0  0  0  0  0  0
   -4.0174    1.3120   -2.1759 N   0  0  0  0  0  0  0  0  0  0  0  0
   -4.8241    1.8941   -1.9555 H   0  0  0  0  0  0  0  0  0  0  0  0
   -3.9342    0.4817   -3.2817 C   0  0  0  0  0  0  0  0  0  0  0  0
   -4.8535    0.1793   -4.2859 C   0  0  0  0  0  0  0  0  0  0  0  0
   -5.8365    0.6377   -4.2847 H   0  0  0  0  0  0  0  0  0  0  0  0
   -4.4904   -0.7235   -5.2949 C   0  0  0  0  0  0  0  0  0  0  0  0
   -5.1954   -0.9666   -6.0847 H   0  0  0  0  0  0  0  0  0  0  0  0
   -3.2160   -1.3110   -5.2875 C   0  0  0  0  0  0  0  0  0  0  0  0
   -2.9372   -2.0076   -6.0725 H   0  0  0  0  0  0  0  0  0  0  0  0
   -2.2984   -0.9973   -4.2745 C   0  0  0  0  0  0  0  0  0  0  0  0
   -1.3101   -1.4463   -4.2716 H   0  0  0  0  0  0  0  0  0  0  0  0
   -2.6685   -0.0935   -3.2729 C   0  0  0  0  0  0  0  0  0  0  0  0
   -0.5405   -0.3333    0.9015 C   0  0  0  0  0  0  0  0  0  0  0  0
    0.5660   -0.0921    1.3664 O   0  0  0  0  0  0  0  0  0  0  0  0
   -1.6484    0.2784    1.4621 N   0  0  0  0  0  0  0  0  0  0  0  0
   -2.5454   -0.0436    1.1125 H   0  0  0  0  0  0  0  0  0  0  0  0
   -1.6034    0.9554    2.7518 C   0  0  0  0  0  0  0  0  0  0  0  0
   -0.9051    1.7983    2.7194 H   0  0  0  0  0  0  0  0  0  0  0  0
   -2.5943    1.3394    3.0117 H   0  0  0  0  0  0  0  0  0  0  0  0
   -1.2820    0.2624    3.5363 H   0  0  0  0  0  0  0  0  0  0  0  0
  1  2  1  0  0  0  0
  2  3  1  0  0  0  0
  2  4  1  0  0  0  0
  2  5  1  0  0  0  0
  5  6  2  0  0  0  0
  5  7  1  0  0  0  0
  7  8  1  0  0  0  0
  7  9  1  0  0  0  0
  9 10  1  0  0  0  0
  9 11  1  0  0  0  0
  9 29  1  0  0  0  0
 11 12  1  0  0  0  0
 11 13  1  0  0  0  0
 11 14  1  0  0  0  0
 14 15  2  0  0  0  0
 14 28  1  0  0  0  0
 15 16  1  0  0  0  0
 15 17  1  0  0  0  0
 17 18  1  0  0  0  0
 17 19  1  0  0  0  0
 19 20  1  0  0  0  0
 19 28  2  0  0  0  0
 20 21  1  0  0  0  0
 20 22  2  0  0  0  0
 22 23  1  0  0  0  0
 22 24  1  0  0  0  0
 24 25  1  0  0  0  0
 24 26  2  0  0  0  0
 26 27  1  0  0  0  0
 26 28  1  0  0  0  0
 29 30  2  0  0  0  0
 29 31  1  0  0  0  0
 31 32  1  0  0  0  0
 31 33  1  0  0  0  0
 33 34  1  0  0  0  0
 33 35  1  0  0  0  0
 33 36  1  0  0  0  0
M  END
$$$$

  -OEChem-03222214083D

 36 37  0     1  0  0  0  0  0999 V2000
   -3.5106   -4.5832    0.7604 H   0  0  0  0  0  0  0  0  0  0  0  0
   -3.4288   -3.7783    0.0244 C   0  0  0  0  0  0  0  0  0  0  0  0
   -4.2932   -3.1177    0.1269 H   0  0  0  0  0  0  0  0  0  0  0  0
   -3.4299   -4.2157   -0.9769 H   0  0  0  0  0  0  0  0  0  0  0  0
   -2.1483   -2.9957    0.2452 C   0  0  0  0  0  0  0  0  0  0  0  0
   -1.3976   -3.2929    1.1568 O   0  0  0  0  0  0  0  0  0  0  0  0
   -1.8468   -1.9357   -0.5819 N   0  0  0  0  0  0  0  0  0  0  0  0
   -2.5148   -1.7131   -1.3192 H   0  0  0  0  0  0  0  0  0  0  0  0
   -0.6481   -1.0802   -0.4718 C   0  0  1  0  0  0  0  0  0  0  0  0
    0.2418   -1.7141   -0.5492 H   0  0  0  0  0  0  0  0  0  0  0  0
   -0.6091   -0.0463   -1.6207 C   0  0  0  0  0  0  0  0  0  0  0  0
   -0.0532    0.8424   -1.3024 H   0  0  0  0  0  0  0  0  0  0  0  0
   -0.0621   -0.4737   -2.4662 H   0  0  0  0  0  0  0  0  0  0  0  0
   -1.9857    0.3572   -2.0952 C   0  0  0  0  0  0  0  0  0  0  0  0
   -2.7317    1.4007   -1.6043 C   0  0  0  0  0  0  0  0  0  0  0  0
   -2.4123    2.0958   -0.8292 H   0  0  0  0  0  0  0  0  0  0  0  0
   -3.9563    1.3886   -2.2690 N   0  0  0  0  0  0  0  0  0  0  0  0
   -4.7029    2.0691   -2.1369 H   0  0  0  0  0  0  0  0  0  0  0  0
   -4.0021    0.3494   -3.1849 C   0  0  0  0  0  0  0  0  0  0  0  0
   -4.9932   -0.0692   -4.0731 C   0  0  0  0  0  0  0  0  0  0  0  0
   -5.9383    0.4603   -4.1291 H   0  0  0  0  0  0  0  0  0  0  0  0
   -4.7499   -1.1797   -4.8943 C   0  0  0  0  0  0  0  0  0  0  0  0
   -5.5107   -1.5142   -5.5936 H   0  0  0  0  0  0  0  0  0  0  0  0
   -3.5226   -1.8563   -4.8194 C   0  0  0  0  0  0  0  0  0  0  0  0
   -3.3360   -2.7122   -5.4616 H   0  0  0  0  0  0  0  0  0  0  0  0
   -2.5328   -1.4263   -3.9246 C   0  0  0  0  0  0  0  0  0  0  0  0
   -1.5790   -1.9426   -3.8695 H   0  0  0  0  0  0  0  0  0  0  0  0
   -2.7855   -0.3182   -3.1092 C   0  0  0  0  0  0  0  0  0  0  0  0
   -0.5450   -0.3442    0.8813 C   0  0  0  0  0  0  0  0  0  0  0  0
    0.5549   -0.0863    1.3529 O   0  0  0  0  0  0  0  0  0  0  0  0
   -1.6629    0.2725    1.4153 N   0  0  0  0  0  0  0  0  0  0  0  0
   -2.5564   -0.0297    1.0392 H   0  0  0  0  0  0  0  0  0  0  0  0
   -1.6376    0.9925    2.6819 C   0  0  0  0  0  0  0  0  0  0  0  0
   -0.9221    1.8207    2.6393 H   0  0  0  0  0  0  0  0  0  0  0  0
   -2.6267    1.4043    2.9025 H   0  0  0  0  0  0  0  0  0  0  0  0
   -1.3505    0.3207    3.4978 H   0  0  0  0  0  0  0  0  0  0  0  0
  1  2  1  0  0  0  0
  2  3  1  0  0  0  0
  2  4  1  0  0  0  0
  2  5  1  0  0  0  0
  5  6  2  0  0  0  0
  5  7  1  0  0  0  0
  7  8  1  0  0  0  0
  7  9  1  0  0  0  0
  9 10  1  0  0  0  0
  9 11  1  0  0  0  0
  9 29  1  0  0  0  0
 11 12  1  0  0  0  0
 11 13  1  0  0  0  0
 11 14  1  0  0  0  0
 14 15  2  0  0  0  0
 14 28  1  0  0  0  0
 15 16  1  0  0  0  0
 15 17  1  0  0  0  0
 17 18  1  0  0  0  0
 17 19  1  0  0  0  0
 19 20  1  0  0  0  0
 19 28  2  0  0  0  0
 20 21  1  0  0  0  0
 20 22  2  0  0  0  0
 22 23  1  0  0  0  0
 22 24  1  0  0  0  0
 24 25  1  0  0  0  0
 24 26  2  0  0  0  0
 26 27  1  0  0  0  0
 26 28  1  0  0  0  0
 29 30  2  0  0  0  0
 29 31  1  0  0  0  0
 31 32  1  0  0  0  0
 31 33  1  0  0  0  0
 33 34  1  0  0  0  0
 33 35  1  0  0  0  0
 33 36  1  0  0  0  0
M  END
$$$$

  -OEChem-03222214083D

 36 37  0     1  0  0  0  0  0999 V2000
   -3.4411   -4.6031    0.9617 H   0  0  0  0  0  0  0  0  0  0  0  0
   -3.3900   -3.8170    0.2031 C   0  0  0  0  0  0  0  0  0  0  0  0
   -4.2475   -3.1511    0.3261 H   0  0  0  0  0  0  0  0  0  0  0  0
   -3.4346   -4.2788   -0.7862 H   0  0  0  0  0  0  0  0  0  0  0  0
   -2.1000   -3.0335    0.3512 C   0  0  0  0  0  0  0  0  0  0  0  0
   -1.3076   -3.3173    1.2312 O   0  0  0  0  0  0  0  0  0  0  0  0
   -1.8325   -1.9950   -0.5137 N   0  0  0  0  0  0  0  0  0  0  0  0
   -2.5449   -1.7721   -1.2076 H   0  0  0  0  0  0  0  0  0  0  0  0
   -0.6477   -1.1176   -0.4518 C   0  0  1  0  0  0  0  0  0  0  0  0
    0.2527   -1.7368   -0.5279 H   0  0  0  0  0  0  0  0  0  0  0  0
   -0.6427   -0.0993   -1.6173 C   0  0  0  0  0  0  0  0  0  0  0  0
   -0.0819    0.7959   -1.3274 H   0  0  0  0  0  0  0  0  0  0  0  0
   -0.1132   -0.5412   -2.4670 H   0  0  0  0  0  0  0  0  0  0  0  0
   -2.0282    0.2900   -2.0816 C   0  0  0  0  0  0  0  0  0  0  0  0
   -2.6483    1.4850   -1.8106 C   0  0  0  0  0  0  0  0  0  0  0  0
   -2.2257    2.2952   -1.2185 H   0  0  0  0  0  0  0  0  0  0  0  0
   -3.9055    1.4515   -2.4101 N   0  0  0  0  0  0  0  0  0  0  0  0
   -4.5858    2.2097   -2.3899 H   0  0  0  0  0  0  0  0  0  0  0  0
   -4.0837    0.2623   -3.0987 C   0  0  0  0  0  0  0  0  0  0  0  0
   -5.1480   -0.2244   -3.8573 C   0  0  0  0  0  0  0  0  0  0  0  0
   -6.0487    0.3676   -3.9795 H   0  0  0  0  0  0  0  0  0  0  0  0
   -5.0361   -1.4842   -4.4628 C   0  0  0  0  0  0  0  0  0  0  0  0
   -5.8567   -1.8741   -5.0583 H   0  0  0  0  0  0  0  0  0  0  0  0
   -3.8616   -2.2371   -4.3103 C   0  0  0  0  0  0  0  0  0  0  0  0
   -3.7742   -3.2071   -4.7915 H   0  0  0  0  0  0  0  0  0  0  0  0
   -2.7969   -1.7372   -3.5478 C   0  0  0  0  0  0  0  0  0  0  0  0
   -1.8816   -2.3119   -3.4383 H   0  0  0  0  0  0  0  0  0  0  0  0
   -2.9244   -0.4858   -2.9339 C   0  0  0  0  0  0  0  0  0  0  0  0
   -0.5433   -0.3437    0.8803 C   0  0  0  0  0  0  0  0  0  0  0  0
    0.5554   -0.0726    1.3470 O   0  0  0  0  0  0  0  0  0  0  0  0
   -1.6668    0.2660    1.4115 N   0  0  0  0  0  0  0  0  0  0  0  0
   -2.5586   -0.0119    1.0133 H   0  0  0  0  0  0  0  0  0  0  0  0
   -1.6514    1.0122    2.6628 C   0  0  0  0  0  0  0  0  0  0  0  0
   -0.9311    1.8354    2.6114 H   0  0  0  0  0  0  0  0  0  0  0  0
   -2.6410    1.4337    2.8638 H   0  0  0  0  0  0  0  0  0  0  0  0
   -1.3773    0.3555    3.4950 H   0  0  0  0  0  0  0  0  0  0  0  0
  1  2  1  0  0  0  0
  2  3  1  0  0  0  0
  2  4  1  0  0  0  0
  2  5  1  0  0  0  0
  5  6  2  0  0  0  0
  5  7  1  0  0  0  0
  7  8  1  0  0  0  0
  7  9  1  0  0  0  0
  9 10  1  0  0  0  0
  9 11  1  0  0  0  0
  9 29  1  0  0  0  0
 11 12  1  0  0  0  0
 11 13  1  0  0  0  0
 11 14  1  0  0  0  0
 14 15  2  0  0  0  0
 14 28  1  0  0  0  0
 15 16  1  0  0  0  0
 15 17  1  0  0  0  0
 17 18  1  0  0  0  0
 17 19  1  0  0  0  0
 19 20  1  0  0  0  0
 19 28  2  0  0  0  0
 20 21  1  0  0  0  0
 20 22  2  0  0  0  0
 22 23  1  0  0  0  0
 22 24  1  0  0  0  0
 24 25  1  0  0  0  0
 24 26  2  0  0  0  0
 26 27  1  0  0  0  0
 26 28  1  0  0  0  0
 29 30  2  0  0  0  0
 29 31  1  0  0  0  0
 31 32  1  0  0  0  0
 31 33  1  0  0  0  0
 33 34  1  0  0  0  0
 33 35  1  0  0  0  0
 33 36  1  0  0  0  0
M  END
$$$$

  -OEChem-03222214083D

 36 37  0     1  0  0  0  0  0999 V2000
   -3.3135   -4.6238    1.2770 H   0  0  0  0  0  0  0  0  0  0  0  0
   -3.3149   -3.8748    0.4801 C   0  0  0  0  0  0  0  0  0  0  0  0
   -4.1659   -3.2057    0.6280 H   0  0  0  0  0  0  0  0  0  0  0  0
   -3.4217   -4.3824   -0.4816 H   0  0  0  0  0  0  0  0  0  0  0  0
   -2.0214   -3.0834    0.5063 C   0  0  0  0  0  0  0  0  0  0  0  0
   -1.1545   -3.3536    1.3174 O   0  0  0  0  0  0  0  0  0  0  0  0
   -1.8334   -2.0552   -0.3920 N   0  0  0  0  0  0  0  0  0  0  0  0
   -2.6140   -1.8272   -1.0056 H   0  0  0  0  0  0  0  0  0  0  0  0
   -0.6733   -1.1464   -0.4078 C   0  0  1  0  0  0  0  0  0  0  0  0
    0.2365   -1.7475   -0.5133 H   0  0  0  0  0  0  0  0  0  0  0  0
   -0.7299   -0.1441   -1.5868 C   0  0  0  0  0  0  0  0  0  0  0  0
   -0.1605    0.7584   -1.3370 H   0  0  0  0  0  0  0  0  0  0  0  0
   -0.2297   -0.6036   -2.4447 H   0  0  0  0  0  0  0  0  0  0  0  0
   -2.1287    0.2324   -2.0274 C   0  0  0  0  0  0  0  0  0  0  0  0
   -2.6232    1.5141   -2.0084 C   0  0  0  0  0  0  0  0  0  0  0  0
   -2.1027    2.3844   -1.6128 H   0  0  0  0  0  0  0  0  0  0  0  0
   -3.9004    1.4877   -2.5613 N   0  0  0  0  0  0  0  0  0  0  0  0
   -4.5045    2.2990   -2.6823 H   0  0  0  0  0  0  0  0  0  0  0  0
   -4.1994    0.2176   -3.0232 C   0  0  0  0  0  0  0  0  0  0  0  0
   -5.3179   -0.2828   -3.6897 C   0  0  0  0  0  0  0  0  0  0  0  0
   -6.1645    0.3624   -3.8989 H   0  0  0  0  0  0  0  0  0  0  0  0
   -5.3265   -1.6235   -4.0980 C   0  0  0  0  0  0  0  0  0  0  0  0
   -6.1898   -2.0255   -4.6209 H   0  0  0  0  0  0  0  0  0  0  0  0
   -4.2122   -2.4394   -3.8522 C   0  0  0  0  0  0  0  0  0  0  0  0
   -4.2125   -3.4713   -4.1916 H   0  0  0  0  0  0  0  0  0  0  0  0
   -3.0930   -1.9237   -3.1846 C   0  0  0  0  0  0  0  0  0  0  0  0
   -2.2206   -2.5501   -3.0228 H   0  0  0  0  0  0  0  0  0  0  0  0
   -3.1053   -0.5936   -2.7427 C   0  0  0  0  0  0  0  0  0  0  0  0
   -0.5226   -0.3462    0.9042 C   0  0  0  0  0  0  0  0  0  0  0  0
    0.5908   -0.0330    1.3053 O   0  0  0  0  0  0  0  0  0  0  0  0
   -1.6330    0.2424    1.4837 N   0  0  0  0  0  0  0  0  0  0  0  0
   -2.5387   -0.0411    1.1234 H   0  0  0  0  0  0  0  0  0  0  0  0
   -1.5699    1.0547    2.6911 C   0  0  0  0  0  0  0  0  0  0  0  0
   -0.9028    1.9106    2.5432 H   0  0  0  0  0  0  0  0  0  0  0  0
   -2.5645    1.4335    2.9445 H   0  0  0  0  0  0  0  0  0  0  0  0
   -1.1996    0.4596    3.5326 H   0  0  0  0  0  0  0  0  0  0  0  0
  1  2  1  0  0  0  0
  2  3  1  0  0  0  0
  2  4  1  0  0  0  0
  2  5  1  0  0  0  0
  5  6  2  0  0  0  0
  5  7  1  0  0  0  0
  7  8  1  0  0  0  0
  7  9  1  0  0  0  0
  9 10  1  0  0  0  0
  9 11  1  0  0  0  0
  9 29  1  0  0  0  0
 11 12  1  0  0  0  0
 11 13  1  0  0  0  0
 11 14  1  0  0  0  0
 14 15  2  0  0  0  0
 14 28  1  0  0  0  0
 15 16  1  0  0  0  0
 15 17  1  0  0  0  0
 17 18  1  0  0  0  0
 17 19  1  0  0  0  0
 19 20  1  0  0  0  0
 19 28  2  0  0  0  0
 20 21  1  0  0  0  0
 20 22  2  0  0  0  0
 22 23  1  0  0  0  0
 22 24  1  0  0  0  0
 24 25  1  0  0  0  0
 24 26  2  0  0  0  0
 26 27  1  0  0  0  0
 26 28  1  0  0  0  0
 29 30  2  0  0  0  0
 29 31  1  0  0  0  0
 31 32  1  0  0  0  0
 31 33  1  0  0  0  0
 33 34  1  0  0  0  0
 33 35  1  0  0  0  0
 33 36  1  0  0  0  0
M  END
$$$$

  -OEChem-03222214083D

 36 37  0     1  0  0  0  0  0999 V2000
   -3.1451   -4.6152    1.5789 H   0  0  0  0  0  0  0  0  0  0  0  0
   -3.2003   -3.9149    0.7405 C   0  0  0  0  0  0  0  0  0  0  0  0
   -4.0525   -3.2484    0.8940 H   0  0  0  0  0  0  0  0  0  0  0  0
   -3.3504   -4.4808   -0.1822 H   0  0  0  0  0  0  0  0  0  0  0  0
   -1.9187   -3.1087    0.6502 C   0  0  0  0  0  0  0  0  0  0  0  0
   -0.9819   -3.3658    1.3844 O   0  0  0  0  0  0  0  0  0  0  0  0
   -1.8179   -2.0896   -0.2730 N   0  0  0  0  0  0  0  0  0  0  0  0
   -2.6596   -1.8577   -0.7971 H   0  0  0  0  0  0  0  0  0  0  0  0
   -0.6874   -1.1531   -0.3697 C   0  0  1  0  0  0  0  0  0  0  0  0
    0.2286   -1.7360   -0.5155 H   0  0  0  0  0  0  0  0  0  0  0  0
   -0.8159   -0.1603   -1.5527 C   0  0  0  0  0  0  0  0  0  0  0  0
   -0.2350    0.7449   -1.3434 H   0  0  0  0  0  0  0  0  0  0  0  0
   -0.3508   -0.6342   -2.4229 H   0  0  0  0  0  0  0  0  0  0  0  0
   -2.2282    0.2144   -1.9631 C   0  0  0  0  0  0  0  0  0  0  0  0
   -2.5956    1.5162   -2.2123 C   0  0  0  0  0  0  0  0  0  0  0  0
   -1.9732    2.3902   -2.0287 H   0  0  0  0  0  0  0  0  0  0  0  0
   -3.8992    1.5179   -2.6953 N   0  0  0  0  0  0  0  0  0  0  0  0
   -4.4286    2.3486   -2.9551 H   0  0  0  0  0  0  0  0  0  0  0  0
   -4.3280    0.2222   -2.9095 C   0  0  0  0  0  0  0  0  0  0  0  0
   -5.5135   -0.2603   -3.4631 C   0  0  0  0  0  0  0  0  0  0  0  0
   -6.3066    0.4245   -3.7434 H   0  0  0  0  0  0  0  0  0  0  0  0
   -5.6544   -1.6366   -3.6773 C   0  0  0  0  0  0  0  0  0  0  0  0
   -6.5692   -2.0277   -4.1134 H   0  0  0  0  0  0  0  0  0  0  0  0
   -4.5984   -2.5035   -3.3656 C   0  0  0  0  0  0  0  0  0  0  0  0
   -4.6934   -3.5655   -3.5730 H   0  0  0  0  0  0  0  0  0  0  0  0
   -3.4132   -2.0024   -2.8097 C   0  0  0  0  0  0  0  0  0  0  0  0
   -2.5865   -2.6815   -2.6267 H   0  0  0  0  0  0  0  0  0  0  0  0
   -3.2960   -0.6312   -2.5273 C   0  0  0  0  0  0  0  0  0  0  0  0
   -0.4819   -0.3321    0.9224 C   0  0  0  0  0  0  0  0  0  0  0  0
    0.6454    0.0005    1.2645 O   0  0  0  0  0  0  0  0  0  0  0  0
   -1.5703    0.2359    1.5613 N   0  0  0  0  0  0  0  0  0  0  0  0
   -2.4906   -0.0233    1.2209 H   0  0  0  0  0  0  0  0  0  0  0  0
   -1.4582    1.0812    2.7423 C   0  0  0  0  0  0  0  0  0  0  0  0
   -0.8432    1.9613    2.5277 H   0  0  0  0  0  0  0  0  0  0  0  0
   -2.4486    1.4217    3.0593 H   0  0  0  0  0  0  0  0  0  0  0  0
   -1.0016    0.5247    3.5675 H   0  0  0  0  0  0  0  0  0  0  0  0
  1  2  1  0  0  0  0
  2  3  1  0  0  0  0
  2  4  1  0  0  0  0
  2  5  1  0  0  0  0
  5  6  2  0  0  0  0
  5  7  1  0  0  0  0
  7  8  1  0  0  0  0
  7  9  1  0  0  0  0
  9 10  1  0  0  0  0
  9 11  1  0  0  0  0
  9 29  1  0  0  0  0
 11 12  1  0  0  0  0
 11 13  1  0  0  0  0
 11 14  1  0  0  0  0
 14 15  2  0  0  0  0
 14 28  1  0  0  0  0
 15 16  1  0  0  0  0
 15 17  1  0  0  0  0
 17 18  1  0  0  0  0
 17 19  1  0  0  0  0
 19 20  1  0  0  0  0
 19 28  2  0  0  0  0
 20 21  1  0  0  0  0
 20 22  2  0  0  0  0
 22 23  1  0  0  0  0
 22 24  1  0  0  0  0
 24 25  1  0  0  0  0
 24 26  2  0  0  0  0
 26 27  1  0  0  0  0
 26 28  1  0  0  0  0
 29 30  2  0  0  0  0
 29 31  1  0  0  0  0
 31 32  1  0  0  0  0
 31 33  1  0  0  0  0
 33 34  1  0  0  0  0
 33 35  1  0  0  0  0
 33 36  1  0  0  0  0
M  END
$$$$

  -OEChem-03222214083D

 36 37  0     1  0  0  0  0  0999 V2000
   -2.8729   -4.6494    1.7894 H   0  0  0  0  0  0  0  0  0  0  0  0
   -3.0118   -3.9666    0.9464 C   0  0  0  0  0  0  0  0  0  0  0  0
   -3.8594   -3.3114    1.1613 H   0  0  0  0  0  0  0  0  0  0  0  0
   -3.2303   -4.5527    0.0506 H   0  0  0  0  0  0  0  0  0  0  0  0
   -1.7564   -3.1426    0.7320 C   0  0  0  0  0  0  0  0  0  0  0  0
   -0.7488   -3.3891    1.3697 O   0  0  0  0  0  0  0  0  0  0  0  0
   -1.7621   -2.1177   -0.1914 N   0  0  0  0  0  0  0  0  0  0  0  0
   -2.6623   -1.8743   -0.5972 H   0  0  0  0  0  0  0  0  0  0  0  0
   -0.6807   -1.1398   -0.3504 C   0  0  1  0  0  0  0  0  0  0  0  0
    0.2455   -1.6909   -0.5480 H   0  0  0  0  0  0  0  0  0  0  0  0
   -0.8933   -0.1450   -1.5190 C   0  0  0  0  0  0  0  0  0  0  0  0
   -0.3142    0.7663   -1.3315 H   0  0  0  0  0  0  0  0  0  0  0  0
   -0.4517   -0.6140   -2.4042 H   0  0  0  0  0  0  0  0  0  0  0  0
   -2.3163    0.2281   -1.9122 C   0  0  0  0  0  0  0  0  0  0  0  0
   -2.5562    1.4813   -2.4296 C   0  0  0  0  0  0  0  0  0  0  0  0
   -1.8330    2.2944   -2.4571 H   0  0  0  0  0  0  0  0  0  0  0  0
   -3.8793    1.5515   -2.8395 N   0  0  0  0  0  0  0  0  0  0  0  0
   -4.3308    2.3737   -3.2365 H   0  0  0  0  0  0  0  0  0  0  0  0
   -4.4527    0.3000   -2.7791 C   0  0  0  0  0  0  0  0  0  0  0  0
   -5.7165   -0.1097   -3.2009 C   0  0  0  0  0  0  0  0  0  0  0  0
   -6.4375    0.6163   -3.5609 H   0  0  0  0  0  0  0  0  0  0  0  0
   -6.0275   -1.4723   -3.1881 C   0  0  0  0  0  0  0  0  0  0  0  0
   -7.0046   -1.8112   -3.5201 H   0  0  0  0  0  0  0  0  0  0  0  0
   -5.0555   -2.4005   -2.7989 C   0  0  0  0  0  0  0  0  0  0  0  0
   -5.2768   -3.4627   -2.8478 H   0  0  0  0  0  0  0  0  0  0  0  0
   -3.7899   -1.9669   -2.3799 C   0  0  0  0  0  0  0  0  0  0  0  0
   -3.0413   -2.7228   -2.1756 H   0  0  0  0  0  0  0  0  0  0  0  0
   -3.4961   -0.5916   -2.2911 C   0  0  0  0  0  0  0  0  0  0  0  0
   -0.4273   -0.3181    0.9333 C   0  0  0  0  0  0  0  0  0  0  0  0
    0.7055    0.0588    1.2043 O   0  0  0  0  0  0  0  0  0  0  0  0
   -1.4929    0.2043    1.6455 N   0  0  0  0  0  0  0  0  0  0  0  0
   -2.4252   -0.0612    1.3453 H   0  0  0  0  0  0  0  0  0  0  0  0
   -1.3366    1.0913    2.7905 C   0  0  0  0  0  0  0  0  0  0  0  0
   -0.8232    2.0119    2.4943 H   0  0  0  0  0  0  0  0  0  0  0  0
   -2.3159    1.3576    3.1997 H   0  0  0  0  0  0  0  0  0  0  0  0
   -0.7541    0.5997    3.5770 H   0  0  0  0  0  0  0  0  0  0  0  0
  1  2  1  0  0  0  0
  2  3  1  0  0  0  0
  2  4  1  0  0  0  0
  2  5  1  0  0  0  0
  5  6  2  0  0  0  0
  5  7  1  0  0  0  0
  7  8  1  0  0  0  0
  7  9  1  0  0  0  0
  9 10  1  0  0  0  0
  9 11  1  0  0  0  0
  9 29  1  0  0  0  0
 11 12  1  0  0  0  0
 11 13  1  0  0  0  0
 11 14  1  0  0  0  0
 14 15  2  0  0  0  0
 14 28  1  0  0  0  0
 15 16  1  0  0  0  0
 15 17  1  0  0  0  0
 17 18  1  0  0  0  0
 17 19  1  0  0  0  0
 19 20  1  0  0  0  0
 19 28  2  0  0  0  0
 20 21  1  0  0  0  0
 20 22  2  0  0  0  0
 22 23  1  0  0  0  0
 22 24  1  0  0  0  0
 24 25  1  0  0  0  0
 24 26  2  0  0  0  0
 26 27  1  0  0  0  0
 26 28  1  0  0  0  0
 29 30  2  0  0  0  0
 29 31  1  0  0  0  0
 31 32  1  0  0  0  0
 31 33  1  0  0  0  0
 33 34  1  0  0  0  0
 33 35  1  0  0  0  0
 33 36  1  0  0  0  0
M  END
$$$$

  -OEChem-03222214083D

 36 37  0     1  0  0  0  0  0999 V2000
   -2.1439   -5.2481    1.1218 H   0  0  0  0  0  0  0  0  0  0  0  0
   -2.4619   -4.4167    0.4862 C   0  0  0  0  0  0  0  0  0  0  0  0
   -3.4528   -4.0878    0.8075 H   0  0  0  0  0  0  0  0  0  0  0  0
   -2.5178   -4.7675   -0.5471 H   0  0  0  0  0  0  0  0  0  0  0  0
   -1.4718   -3.2721    0.5961 C   0  0  0  0  0  0  0  0  0  0  0  0
   -0.6380   -3.2794    1.4827 O   0  0  0  0  0  0  0  0  0  0  0  0
   -1.5068   -2.2405   -0.3216 N   0  0  0  0  0  0  0  0  0  0  0  0
   -2.1629   -2.3222   -1.0948 H   0  0  0  0  0  0  0  0  0  0  0  0
   -0.5432   -1.1382   -0.3731 C   0  0  1  0  0  0  0  0  0  0  0  0
    0.4602   -1.5599   -0.4979 H   0  0  0  0  0  0  0  0  0  0  0  0
   -0.8201   -0.1791   -1.5490 C   0  0  0  0  0  0  0  0  0  0  0  0
   -0.3577    0.7873   -1.3155 H   0  0  0  0  0  0  0  0  0  0  0  0
   -0.2548   -0.5899   -2.3919 H   0  0  0  0  0  0  0  0  0  0  0  0
   -2.2225    0.0827   -2.1046 C   0  0  0  0  0  0  0  0  0  0  0  0
   -2.3033    1.1884   -2.9235 C   0  0  0  0  0  0  0  0  0  0  0  0
   -1.4595    1.8074   -3.2228 H   0  0  0  0  0  0  0  0  0  0  0  0
   -3.6132    1.3574   -3.3305 N   0  0  0  0  0  0  0  0  0  0  0  0
   -3.9513    2.0920   -3.9497 H   0  0  0  0  0  0  0  0  0  0  0  0
   -4.4139    0.4243   -2.7132 C   0  0  0  0  0  0  0  0  0  0  0  0
   -5.7975    0.2982   -2.8242 C   0  0  0  0  0  0  0  0  0  0  0  0
   -6.3577    0.9489   -3.4870 H   0  0  0  0  0  0  0  0  0  0  0  0
   -6.4531   -0.6661   -2.0588 C   0  0  0  0  0  0  0  0  0  0  0  0
   -7.5311   -0.7806   -2.1295 H   0  0  0  0  0  0  0  0  0  0  0  0
   -5.7143   -1.4630   -1.1810 C   0  0  0  0  0  0  0  0  0  0  0  0
   -6.2266   -2.1927   -0.5604 H   0  0  0  0  0  0  0  0  0  0  0  0
   -4.3231   -1.3159   -1.0834 C   0  0  0  0  0  0  0  0  0  0  0  0
   -3.8450   -1.9320   -0.3419 H   0  0  0  0  0  0  0  0  0  0  0  0
   -3.6254   -0.3863   -1.8857 C   0  0  0  0  0  0  0  0  0  0  0  0
   -0.5098   -0.2997    0.9245 C   0  0  0  0  0  0  0  0  0  0  0  0
    0.5426    0.2011    1.3009 O   0  0  0  0  0  0  0  0  0  0  0  0
   -1.6940    0.0858    1.5271 N   0  0  0  0  0  0  0  0  0  0  0  0
   -2.5538   -0.2659    1.1179 H   0  0  0  0  0  0  0  0  0  0  0  0
   -1.7617    0.9758    2.6776 C   0  0  0  0  0  0  0  0  0  0  0  0
   -1.3793    1.9683    2.4173 H   0  0  0  0  0  0  0  0  0  0  0  0
   -2.7979    1.0798    3.0133 H   0  0  0  0  0  0  0  0  0  0  0  0
   -1.1689    0.5741    3.5062 H   0  0  0  0  0  0  0  0  0  0  0  0
  1  2  1  0  0  0  0
  2  3  1  0  0  0  0
  2  4  1  0  0  0  0
  2  5  1  0  0  0  0
  5  6  2  0  0  0  0
  5  7  1  0  0  0  0
  7  8  1  0  0  0  0
  7  9  1  0  0  0  0
  9 10  1  0  0  0  0
  9 11  1  0  0  0  0
  9 29  1  0  0  0  0
 11 12  1  0  0  0  0
 11 13  1  0  0  0  0
 11 14  1  0  0  0  0
 14 15  2  0  0  0  0
 14 28  1  0  0  0  0
 15 16  1  0  0  0  0
 15 17  1  0  0  0  0
 17 18  1  0  0  0  0
 17 19  1  0  0  0  0
 19 20  1  0  0  0  0
 19 28  2  0  0  0  0
 20 21  1  0  0  0  0
 20 22  2  0  0  0  0
 22 23  1  0  0  0  0
 22 24  1  0  0  0  0
 24 25  1  0  0  0  0
 24 26  2  0  0  0  0
 26 27  1  0  0  0  0
 26 28  1  0  0  0  0
 29 30  2  0  0  0  0
 29 31  1  0  0  0  0
 31 32  1  0  0  0  0
 31 33  1  0  0  0  0
 33 34  1  0  0  0  0
 33 35  1  0  0  0  0
 33 36  1  0  0  0  0
M  END
$$$$

  -OEChem-03222214083D

 36 37  0     1  0  0  0  0  0999 V2000
   -2.8103   -5.0194    0.9383 H   0  0  0  0  0  0  0  0  0  0  0  0
   -2.9094   -4.2017    0.2184 C   0  0  0  0  0  0  0  0  0  0  0  0
   -3.8454   -3.6734    0.4136 H   0  0  0  0  0  0  0  0  0  0  0  0
   -2.9391   -4.6227   -0.7897 H   0  0  0  0  0  0  0  0  0  0  0  0
   -1.7358   -3.2490    0.3478 C   0  0  0  0  0  0  0  0  0  0  0  0
   -0.8548   -3.4754    1.1569 O   0  0  0  0  0  0  0  0  0  0  0  0
   -1.6724   -2.1257   -0.4501 N   0  0  0  0  0  0  0  0  0  0  0  0
   -2.4422   -1.9611   -1.0953 H   0  0  0  0  0  0  0  0  0  0  0  0
   -0.6041   -1.1177   -0.3848 C   0  0  1  0  0  0  0  0  0  0  0  0
    0.3457   -1.6304   -0.5743 H   0  0  0  0  0  0  0  0  0  0  0  0
   -0.8132   -0.0866   -1.5045 C   0  0  0  0  0  0  0  0  0  0  0  0
   -0.1269    0.7503   -1.3322 H   0  0  0  0  0  0  0  0  0  0  0  0
   -0.4929   -0.5668   -2.4349 H   0  0  0  0  0  0  0  0  0  0  0  0
   -2.2054    0.4844   -1.7619 C   0  0  0  0  0  0  0  0  0  0  0  0
   -2.3156    1.4017   -2.7819 C   0  0  0  0  0  0  0  0  0  0  0  0
   -1.4960    1.7355   -3.4156 H   0  0  0  0  0  0  0  0  0  0  0  0
   -3.6336    1.8191   -2.8636 N   0  0  0  0  0  0  0  0  0  0  0  0
   -3.9975    2.5026   -3.5253 H   0  0  0  0  0  0  0  0  0  0  0  0
   -4.3848    1.2000   -1.8877 C   0  0  0  0  0  0  0  0  0  0  0  0
   -5.7436    1.3554   -1.6183 C   0  0  0  0  0  0  0  0  0  0  0  0
   -6.3491    2.0252   -2.2193 H   0  0  0  0  0  0  0  0  0  0  0  0
   -6.3121    0.6425   -0.5607 C   0  0  0  0  0  0  0  0  0  0  0  0
   -7.3687    0.7536   -0.3335 H   0  0  0  0  0  0  0  0  0  0  0  0
   -5.5115   -0.2078    0.2083 C   0  0  0  0  0  0  0  0  0  0  0  0
   -5.9510   -0.7561    1.0365 H   0  0  0  0  0  0  0  0  0  0  0  0
   -4.1471   -0.3515   -0.0780 C   0  0  0  0  0  0  0  0  0  0  0  0
   -3.5870   -1.0151    0.5647 H   0  0  0  0  0  0  0  0  0  0  0  0
   -3.5544    0.3522   -1.1471 C   0  0  0  0  0  0  0  0  0  0  0  0
   -0.4144   -0.3782    0.9610 C   0  0  0  0  0  0  0  0  0  0  0  0
    0.7181   -0.1003    1.3350 O   0  0  0  0  0  0  0  0  0  0  0  0
   -1.4892    0.1182    1.6761 N   0  0  0  0  0  0  0  0  0  0  0  0
   -2.3835    0.1180    1.1971 H   0  0  0  0  0  0  0  0  0  0  0  0
   -1.3373    0.9544    2.8596 C   0  0  0  0  0  0  0  0  0  0  0  0
   -0.8376    1.8944    2.6035 H   0  0  0  0  0  0  0  0  0  0  0  0
   -2.3180    1.1864    3.2859 H   0  0  0  0  0  0  0  0  0  0  0  0
   -0.7454    0.4358    3.6212 H   0  0  0  0  0  0  0  0  0  0  0  0
  1  2  1  0  0  0  0
  2  3  1  0  0  0  0
  2  4  1  0  0  0  0
  2  5  1  0  0  0  0
  5  6  2  0  0  0  0
  5  7  1  0  0  0  0
  7  8  1  0  0  0  0
  7  9  1  0  0  0  0
  9 10  1  0  0  0  0
  9 11  1  0  0  0  0
  9 29  1  0  0  0  0
 11 12  1  0  0  0  0
 11 13  1  0  0  0  0
 11 14  1  0  0  0  0
 14 15  2  0  0  0  0
 14 28  1  0  0  0  0
 15 16  1  0  0  0  0
 15 17  1  0  0  0  0
 17 18  1  0  0  0  0
 17 19  1  0  0  0  0
 19 20  1  0  0  0  0
 19 28  2  0  0  0  0
 20 21  1  0  0  0  0
 20 22  2  0  0  0  0
 22 23  1  0  0  0  0
 22 24  1  0  0  0  0
 24 25  1  0  0  0  0
 24 26  2  0  0  0  0
 26 27  1  0  0  0  0
 26 28  1  0  0  0  0
 29 30  2  0  0  0  0
 29 31  1  0  0  0  0
 31 32  1  0  0  0  0
 31 33  1  0  0  0  0
 33 34  1  0  0  0  0
 33 35  1  0  0  0  0
 33 36  1  0  0  0  0
M  END
$$$$

  -OEChem-03222214083D

 36 37  0     1  0  0  0  0  0999 V2000
   -2.6969   -4.8332    1.0505 H   0  0  0  0  0  0  0  0  0  0  0  0
   -2.8079   -4.0402    0.3055 C   0  0  0  0  0  0  0  0  0  0  0  0
   -3.7411   -3.5051    0.4978 H   0  0  0  0  0  0  0  0  0  0  0  0
   -2.8531   -4.4932   -0.6878 H   0  0  0  0  0  0  0  0  0  0  0  0
   -1.6339   -3.0827    0.3845 C   0  0  0  0  0  0  0  0  0  0  0  0
   -0.7127   -3.3050    1.1491 O   0  0  0  0  0  0  0  0  0  0  0  0
   -1.6284   -1.9458   -0.3945 N   0  0  0  0  0  0  0  0  0  0  0  0
   -2.4434   -1.7739   -0.9799 H   0  0  0  0  0  0  0  0  0  0  0  0
   -0.5845   -0.9107   -0.3557 C   0  0  1  0  0  0  0  0  0  0  0  0
    0.3625   -1.4126   -0.5850 H   0  0  0  0  0  0  0  0  0  0  0  0
   -0.8500    0.0941   -1.4874 C   0  0  0  0  0  0  0  0  0  0  0  0
   -0.2052    0.9660   -1.3314 H   0  0  0  0  0  0  0  0  0  0  0  0
   -0.5185   -0.3767   -2.4186 H   0  0  0  0  0  0  0  0  0  0  0  0
   -2.2732    0.5973   -1.7126 C   0  0  0  0  0  0  0  0  0  0  0  0
   -2.5304    1.2365   -2.9040 C   0  0  0  0  0  0  0  0  0  0  0  0
   -1.7902    1.4518   -3.6724 H   0  0  0  0  0  0  0  0  0  0  0  0
   -3.8733    1.5736   -2.9458 N   0  0  0  0  0  0  0  0  0  0  0  0
   -4.3332    2.0770   -3.7026 H   0  0  0  0  0  0  0  0  0  0  0  0
   -4.5095    1.1171   -1.8109 C   0  0  0  0  0  0  0  0  0  0  0  0
   -5.8579    1.2197   -1.4729 C   0  0  0  0  0  0  0  0  0  0  0  0
   -6.5507    1.7337   -2.1302 H   0  0  0  0  0  0  0  0  0  0  0  0
   -6.3059    0.6448   -0.2813 C   0  0  0  0  0  0  0  0  0  0  0  0
   -7.3529    0.7160   -0.0006 H   0  0  0  0  0  0  0  0  0  0  0  0
   -5.4017   -0.0343    0.5410 C   0  0  0  0  0  0  0  0  0  0  0  0
   -5.7522   -0.4956    1.4600 H   0  0  0  0  0  0  0  0  0  0  0  0
   -4.0499   -0.1288    0.1836 C   0  0  0  0  0  0  0  0  0  0  0  0
   -3.4109   -0.6948    0.8461 H   0  0  0  0  0  0  0  0  0  0  0  0
   -3.5721    0.4713   -0.9992 C   0  0  0  0  0  0  0  0  0  0  0  0
   -0.3109   -0.1506    0.9665 C   0  0  0  0  0  0  0  0  0  0  0  0
    0.8469    0.1291    1.2515 O   0  0  0  0  0  0  0  0  0  0  0  0
   -1.3182    0.3512    1.7698 N   0  0  0  0  0  0  0  0  0  0  0  0
   -2.2446    0.3734    1.3592 H   0  0  0  0  0  0  0  0  0  0  0  0
   -1.0600    1.1976    2.9283 C   0  0  0  0  0  0  0  0  0  0  0  0
   -0.6072    2.1449    2.6179 H   0  0  0  0  0  0  0  0  0  0  0  0
   -1.9951    1.4139    3.4533 H   0  0  0  0  0  0  0  0  0  0  0  0
   -0.3829    0.6950    3.6273 H   0  0  0  0  0  0  0  0  0  0  0  0
  1  2  1  0  0  0  0
  2  3  1  0  0  0  0
  2  4  1  0  0  0  0
  2  5  1  0  0  0  0
  5  6  2  0  0  0  0
  5  7  1  0  0  0  0
  7  8  1  0  0  0  0
  7  9  1  0  0  0  0
  9 10  1  0  0  0  0
  9 11  1  0  0  0  0
  9 29  1  0  0  0  0
 11 12  1  0  0  0  0
 11 13  1  0  0  0  0
 11 14  1  0  0  0  0
 14 15  2  0  0  0  0
 14 28  1  0  0  0  0
 15 16  1  0  0  0  0
 15 17  1  0  0  0  0
 17 18  1  0  0  0  0
 17 19  1  0  0  0  0
 19 20  1  0  0  0  0
 19 28  2  0  0  0  0
 20 21  1  0  0  0  0
 20 22  2  0  0  0  0
 22 23  1  0  0  0  0
 22 24  1  0  0  0  0
 24 25  1  0  0  0  0
 24 26  2  0  0  0  0
 26 27  1  0  0  0  0
 26 28  1  0  0  0  0
 29 30  2  0  0  0  0
 29 31  1  0  0  0  0
 31 32  1  0  0  0  0
 31 33  1  0  0  0  0
 33 34  1  0  0  0  0
 33 35  1  0  0  0  0
 33 36  1  0  0  0  0
M  END
$$$$

  -OEChem-03222214083D

 36 37  0     1  0  0  0  0  0999 V2000
   -3.3803   -4.9439    0.3539 H   0  0  0  0  0  0  0  0  0  0  0  0
   -3.4428   -3.9662   -0.1319 C   0  0  0  0  0  0  0  0  0  0  0  0
   -4.2971   -3.4222    0.2784 H   0  0  0  0  0  0  0  0  0  0  0  0
   -3.5951   -4.1155   -1.2036 H   0  0  0  0  0  0  0  0  0  0  0  0
   -2.1661   -3.1826    0.1059 C   0  0  0  0  0  0  0  0  0  0  0  0
   -1.2758   -3.6531    0.7909 O   0  0  0  0  0  0  0  0  0  0  0  0
   -2.0318   -1.9176   -0.4228 N   0  0  0  0  0  0  0  0  0  0  0  0
   -2.8153   -1.5448   -0.9558 H   0  0  0  0  0  0  0  0  0  0  0  0
   -0.8352   -1.0710   -0.2939 C   0  0  1  0  0  0  0  0  0  0  0  0
   -0.0217   -1.7351   -0.6092 H   0  0  0  0  0  0  0  0  0  0  0  0
   -0.8156    0.0350   -1.3656 C   0  0  0  0  0  0  0  0  0  0  0  0
   -0.0408    0.7568   -1.0855 H   0  0  0  0  0  0  0  0  0  0  0  0
   -0.4865   -0.4292   -2.3011 H   0  0  0  0  0  0  0  0  0  0  0  0
   -2.0851    0.8225   -1.6616 C   0  0  0  0  0  0  0  0  0  0  0  0
   -2.2549    1.3107   -2.9386 C   0  0  0  0  0  0  0  0  0  0  0  0
   -1.5218    1.2370   -3.7397 H   0  0  0  0  0  0  0  0  0  0  0  0
   -3.5013    1.9123   -3.0259 N   0  0  0  0  0  0  0  0  0  0  0  0
   -3.8768    2.3802   -3.8488 H   0  0  0  0  0  0  0  0  0  0  0  0
   -4.1721    1.7786   -1.8289 C   0  0  0  0  0  0  0  0  0  0  0  0
   -5.4564    2.1985   -1.4846 C   0  0  0  0  0  0  0  0  0  0  0  0
   -6.0691    2.7343   -2.2014 H   0  0  0  0  0  0  0  0  0  0  0  0
   -5.9447    1.9120   -0.2061 C   0  0  0  0  0  0  0  0  0  0  0  0
   -6.9427    2.2310    0.0809 H   0  0  0  0  0  0  0  0  0  0  0  0
   -5.1445    1.2049    0.6987 C   0  0  0  0  0  0  0  0  0  0  0  0
   -5.5253    0.9746    1.6894 H   0  0  0  0  0  0  0  0  0  0  0  0
   -3.8557    0.7941    0.3306 C   0  0  0  0  0  0  0  0  0  0  0  0
   -3.2729    0.2386    1.0406 H   0  0  0  0  0  0  0  0  0  0  0  0
   -3.3451    1.0900   -0.9391 C   0  0  0  0  0  0  0  0  0  0  0  0
   -0.3262   -0.6490    1.1077 C   0  0  0  0  0  0  0  0  0  0  0  0
    0.8774   -0.4712    1.2521 O   0  0  0  0  0  0  0  0  0  0  0  0
   -1.1609   -0.1954    2.1107 N   0  0  0  0  0  0  0  0  0  0  0  0
   -2.1234   -0.5053    2.0526 H   0  0  0  0  0  0  0  0  0  0  0  0
   -0.6686    0.2829    3.3974 C   0  0  0  0  0  0  0  0  0  0  0  0
   -0.0139    1.1499    3.2587 H   0  0  0  0  0  0  0  0  0  0  0  0
   -1.5060    0.5844    4.0337 H   0  0  0  0  0  0  0  0  0  0  0  0
   -0.1072   -0.5049    3.9108 H   0  0  0  0  0  0  0  0  0  0  0  0
  1  2  1  0  0  0  0
  2  3  1  0  0  0  0
  2  4  1  0  0  0  0
  2  5  1  0  0  0  0
  5  6  2  0  0  0  0
  5  7  1  0  0  0  0
  7  8  1  0  0  0  0
  7  9  1  0  0  0  0
  9 10  1  0  0  0  0
  9 11  1  0  0  0  0
  9 29  1  0  0  0  0
 11 12  1  0  0  0  0
 11 13  1  0  0  0  0
 11 14  1  0  0  0  0
 14 15  2  0  0  0  0
 14 28  1  0  0  0  0
 15 16  1  0  0  0  0
 15 17  1  0  0  0  0
 17 18  1  0  0  0  0
 17 19  1  0  0  0  0
 19 20  1  0  0  0  0
 19 28  2  0  0  0  0
 20 21  1  0  0  0  0
 20 22  2  0  0  0  0
 22 23  1  0  0  0  0
 22 24  1  0  0  0  0
 24 25  1  0  0  0  0
 24 26  2  0  0  0  0
 26 27  1  0  0  0  0
 26 28  1  0  0  0  0
 29 30  2  0  0  0  0
 29 31  1  0  0  0  0
 31 32  1  0  0  0  0
 31 33  1  0  0  0  0
 33 34  1  0  0  0  0
 33 35  1  0  0  0  0
 33 36  1  0  0  0  0
M  END
$$$$

  -OEChem-03222214083D

 36 37  0     1  0  0  0  0  0999 V2000
   -2.7625   -5.0681    0.7056 H   0  0  0  0  0  0  0  0  0  0  0  0
   -2.9607   -4.1604    0.1285 C   0  0  0  0  0  0  0  0  0  0  0  0
   -3.8425   -3.6661    0.5431 H   0  0  0  0  0  0  0  0  0  0  0  0
   -3.1610   -4.4398   -0.9086 H   0  0  0  0  0  0  0  0  0  0  0  0
   -1.7642   -3.2301    0.1937 C   0  0  0  0  0  0  0  0  0  0  0  0
   -0.7675   -3.5618    0.8099 O   0  0  0  0  0  0  0  0  0  0  0  0
   -1.8128   -2.0043   -0.4366 N   0  0  0  0  0  0  0  0  0  0  0  0
   -2.6834   -1.7484   -0.8966 H   0  0  0  0  0  0  0  0  0  0  0  0
   -0.7473   -0.9876   -0.3853 C   0  0  1  0  0  0  0  0  0  0  0  0
    0.1722   -1.5219   -0.6517 H   0  0  0  0  0  0  0  0  0  0  0  0
   -0.9238    0.0204   -1.5437 C   0  0  0  0  0  0  0  0  0  0  0  0
   -0.2723    0.8782   -1.3473 H   0  0  0  0  0  0  0  0  0  0  0  0
   -0.5578   -0.4542   -2.4600 H   0  0  0  0  0  0  0  0  0  0  0  0
   -2.3278    0.5403   -1.7970 C   0  0  0  0  0  0  0  0  0  0  0  0
   -2.8307    0.6017   -3.0773 C   0  0  0  0  0  0  0  0  0  0  0  0
   -2.3286    0.2268   -3.9672 H   0  0  0  0  0  0  0  0  0  0  0  0
   -4.1030    1.1569   -3.0250 N   0  0  0  0  0  0  0  0  0  0  0  0
   -4.7103    1.3184   -3.8268 H   0  0  0  0  0  0  0  0  0  0  0  0
   -4.3660    1.6067   -1.7469 C   0  0  0  0  0  0  0  0  0  0  0  0
   -5.4624    2.3110   -1.2507 C   0  0  0  0  0  0  0  0  0  0  0  0
   -6.3171    2.5156   -1.8857 H   0  0  0  0  0  0  0  0  0  0  0  0
   -5.4296    2.7780    0.0679 C   0  0  0  0  0  0  0  0  0  0  0  0
   -6.2720    3.3323    0.4714 H   0  0  0  0  0  0  0  0  0  0  0  0
   -4.2846    2.5738    0.8481 C   0  0  0  0  0  0  0  0  0  0  0  0
   -4.2323    2.9857    1.8516 H   0  0  0  0  0  0  0  0  0  0  0  0
   -3.1919    1.8679    0.3259 C   0  0  0  0  0  0  0  0  0  0  0  0
   -2.2819    1.8098    0.9036 H   0  0  0  0  0  0  0  0  0  0  0  0
   -3.2555    1.3133   -0.9575 C   0  0  0  0  0  0  0  0  0  0  0  0
   -0.4038   -0.4700    1.0290 C   0  0  0  0  0  0  0  0  0  0  0  0
    0.7460   -0.1319    1.2791 O   0  0  0  0  0  0  0  0  0  0  0  0
   -1.3933   -0.1394    1.9351 N   0  0  0  0  0  0  0  0  0  0  0  0
   -2.3384   -0.4287    1.7019 H   0  0  0  0  0  0  0  0  0  0  0  0
   -1.1203    0.3899    3.2653 C   0  0  0  0  0  0  0  0  0  0  0  0
   -0.5721    1.3355    3.1964 H   0  0  0  0  0  0  0  0  0  0  0  0
   -2.0578    0.5734    3.7988 H   0  0  0  0  0  0  0  0  0  0  0  0
   -0.5238   -0.3229    3.8446 H   0  0  0  0  0  0  0  0  0  0  0  0
  1  2  1  0  0  0  0
  2  3  1  0  0  0  0
  2  4  1  0  0  0  0
  2  5  1  0  0  0  0
  5  6  2  0  0  0  0
  5  7  1  0  0  0  0
  7  8  1  0  0  0  0
  7  9  1  0  0  0  0
  9 10  1  0  0  0  0
  9 11  1  0  0  0  0
  9 29  1  0  0  0  0
 11 12  1  0  0  0  0
 11 13  1  0  0  0  0
 11 14  1  0  0  0  0
 14 15  2  0  0  0  0
 14 28  1  0  0  0  0
 15 16  1  0  0  0  0
 15 17  1  0  0  0  0
 17 18  1  0  0  0  0
 17 19  1  0  0  0  0
 19 20  1  0  0  0  0
 19 28  2  0  0  0  0
 20 21  1  0  0  0  0
 20 22  2  0  0  0  0
 22 23  1  0  0  0  0
 22 24  1  0  0  0  0
 24 25  1  0  0  0  0
 24 26  2  0  0  0  0
 26 27  1  0  0  0  0
 26 28  1  0  0  0  0
 29 30  2  0  0  0  0
 29 31  1  0  0  0  0
 31 32  1  0  0  0  0
 31 33  1  0  0  0  0
 33 34  1  0  0  0  0
 33 35  1  0  0  0  0
 33 36  1  0  0  0  0
M  END
$$$$

  -OEChem-03222214083D

 36 37  0     1  0  0  0  0  0999 V2000
   -3.0283   -4.9229    0.7871 H   0  0  0  0  0  0  0  0  0  0  0  0
   -3.1236   -4.0485    0.1371 C   0  0  0  0  0  0  0  0  0  0  0  0
   -3.9932   -3.4681    0.4546 H   0  0  0  0  0  0  0  0  0  0  0  0
   -3.2751   -4.3882   -0.8902 H   0  0  0  0  0  0  0  0  0  0  0  0
   -1.8708   -3.1972    0.2219 C   0  0  0  0  0  0  0  0  0  0  0  0
   -0.9320   -3.5608    0.9071 O   0  0  0  0  0  0  0  0  0  0  0  0
   -1.8014   -2.0100   -0.4766 N   0  0  0  0  0  0  0  0  0  0  0  0
   -2.6406   -1.7111   -0.9669 H   0  0  0  0  0  0  0  0  0  0  0  0
   -0.6993   -1.0367   -0.3633 C   0  0  1  0  0  0  0  0  0  0  0  0
    0.2285   -1.5900   -0.5479 H   0  0  0  0  0  0  0  0  0  0  0  0
   -0.7983   -0.0101   -1.5130 C   0  0  0  0  0  0  0  0  0  0  0  0
   -0.1258    0.8275   -1.2997 H   0  0  0  0  0  0  0  0  0  0  0  0
   -0.4348   -0.4882   -2.4284 H   0  0  0  0  0  0  0  0  0  0  0  0
   -2.1901    0.5299   -1.7665 C   0  0  0  0  0  0  0  0  0  0  0  0
   -2.8431    0.3724   -2.9673 C   0  0  0  0  0  0  0  0  0  0  0  0
   -2.4762   -0.2071   -3.8125 H   0  0  0  0  0  0  0  0  0  0  0  0
   -4.0559    1.0483   -2.8933 N   0  0  0  0  0  0  0  0  0  0  0  0
   -4.7388    1.1183   -3.6461 H   0  0  0  0  0  0  0  0  0  0  0  0
   -4.1311    1.7571   -1.7086 C   0  0  0  0  0  0  0  0  0  0  0  0
   -5.1017    2.6403   -1.2366 C   0  0  0  0  0  0  0  0  0  0  0  0
   -6.0087    2.8129   -1.8055 H   0  0  0  0  0  0  0  0  0  0  0  0
   -4.8763    3.3203   -0.0331 C   0  0  0  0  0  0  0  0  0  0  0  0
   -5.6195    4.0153    0.3470 H   0  0  0  0  0  0  0  0  0  0  0  0
   -3.6720    3.1333    0.6593 C   0  0  0  0  0  0  0  0  0  0  0  0
   -3.4770    3.6922    1.5699 H   0  0  0  0  0  0  0  0  0  0  0  0
   -2.7060    2.2443    0.1680 C   0  0  0  0  0  0  0  0  0  0  0  0
   -1.7531    2.1543    0.6776 H   0  0  0  0  0  0  0  0  0  0  0  0
   -2.9614    1.5088   -0.9957 C   0  0  0  0  0  0  0  0  0  0  0  0
   -0.5073   -0.4717    1.0607 C   0  0  0  0  0  0  0  0  0  0  0  0
    0.6172   -0.1894    1.4535 O   0  0  0  0  0  0  0  0  0  0  0  0
   -1.5909   -0.0639    1.8163 N   0  0  0  0  0  0  0  0  0  0  0  0
   -2.5139   -0.2248    1.4239 H   0  0  0  0  0  0  0  0  0  0  0  0
   -1.4732    0.5258    3.1434 C   0  0  0  0  0  0  0  0  0  0  0  0
   -0.8845    1.4480    3.1030 H   0  0  0  0  0  0  0  0  0  0  0  0
   -2.4647    0.7662    3.5387 H   0  0  0  0  0  0  0  0  0  0  0  0
   -0.9854   -0.1744    3.8296 H   0  0  0  0  0  0  0  0  0  0  0  0
  1  2  1  0  0  0  0
  2  3  1  0  0  0  0
  2  4  1  0  0  0  0
  2  5  1  0  0  0  0
  5  6  2  0  0  0  0
  5  7  1  0  0  0  0
  7  8  1  0  0  0  0
  7  9  1  0  0  0  0
  9 10  1  0  0  0  0
  9 11  1  0  0  0  0
  9 29  1  0  0  0  0
 11 12  1  0  0  0  0
 11 13  1  0  0  0  0
 11 14  1  0  0  0  0
 14 15  2  0  0  0  0
 14 28  1  0  0  0  0
 15 16  1  0  0  0  0
 15 17  1  0  0  0  0
 17 18  1  0  0  0  0
 17 19  1  0  0  0  0
 19 20  1  0  0  0  0
 19 28  2  0  0  0  0
 20 21  1  0  0  0  0
 20 22  2  0  0  0  0
 22 23  1  0  0  0  0
 22 24  1  0  0  0  0
 24 25  1  0  0  0  0
 24 26  2  0  0  0  0
 26 27  1  0  0  0  0
 26 28  1  0  0  0  0
 29 30  2  0  0  0  0
 29 31  1  0  0  0  0
 31 32  1  0  0  0  0
 31 33  1  0  0  0  0
 33 34  1  0  0  0  0
 33 35  1  0  0  0  0
 33 36  1  0  0  0  0
M  END
$$$$

  -OEChem-03222214083D

 36 37  0     1  0  0  0  0  0999 V2000
   -3.2194   -4.7395    0.8799 H   0  0  0  0  0  0  0  0  0  0  0  0
   -3.2466   -3.9073    0.1707 C   0  0  0  0  0  0  0  0  0  0  0  0
   -4.0856   -3.2558    0.4261 H   0  0  0  0  0  0  0  0  0  0  0  0
   -3.3951   -4.3065   -0.8354 H   0  0  0  0  0  0  0  0  0  0  0  0
   -1.9463   -3.1291    0.2317 C   0  0  0  0  0  0  0  0  0  0  0  0
   -1.0379   -3.5167    0.9439 O   0  0  0  0  0  0  0  0  0  0  0  0
   -1.7986   -1.9840   -0.5230 N   0  0  0  0  0  0  0  0  0  0  0  0
   -2.6233   -1.6499   -1.0144 H   0  0  0  0  0  0  0  0  0  0  0  0
   -0.6656   -1.0487   -0.3913 C   0  0  1  0  0  0  0  0  0  0  0  0
    0.2553   -1.6274   -0.5250 H   0  0  0  0  0  0  0  0  0  0  0  0
   -0.7054   -0.0183   -1.5391 C   0  0  0  0  0  0  0  0  0  0  0  0
   -0.0038    0.7957   -1.3285 H   0  0  0  0  0  0  0  0  0  0  0  0
   -0.3587   -0.5121   -2.4522 H   0  0  0  0  0  0  0  0  0  0  0  0
   -2.0822    0.5535   -1.7931 C   0  0  0  0  0  0  0  0  0  0  0  0
   -2.8852    0.2056   -2.8541 C   0  0  0  0  0  0  0  0  0  0  0  0
   -2.6431   -0.5361   -3.6130 H   0  0  0  0  0  0  0  0  0  0  0  0
   -4.0527    0.9586   -2.7697 N   0  0  0  0  0  0  0  0  0  0  0  0
   -4.8180    0.9385   -3.4422 H   0  0  0  0  0  0  0  0  0  0  0  0
   -3.9721    1.8502   -1.7135 C   0  0  0  0  0  0  0  0  0  0  0  0
   -4.8547    2.8347   -1.2699 C   0  0  0  0  0  0  0  0  0  0  0  0
   -5.8120    2.9745   -1.7598 H   0  0  0  0  0  0  0  0  0  0  0  0
   -4.4822    3.6498   -0.1925 C   0  0  0  0  0  0  0  0  0  0  0  0
   -5.1582    4.4213    0.1642 H   0  0  0  0  0  0  0  0  0  0  0  0
   -3.2269    3.4840    0.4113 C   0  0  0  0  0  0  0  0  0  0  0  0
   -2.9290    4.1307    1.2313 H   0  0  0  0  0  0  0  0  0  0  0  0
   -2.3484    2.4930   -0.0478 C   0  0  0  0  0  0  0  0  0  0  0  0
   -1.3668    2.3828    0.4029 H   0  0  0  0  0  0  0  0  0  0  0  0
   -2.7423    1.6529   -1.0949 C   0  0  0  0  0  0  0  0  0  0  0  0
   -0.5372   -0.4236    1.0158 C   0  0  0  0  0  0  0  0  0  0  0  0
    0.5717   -0.1845    1.4756 O   0  0  0  0  0  0  0  0  0  0  0  0
   -1.6488    0.0614    1.6811 N   0  0  0  0  0  0  0  0  0  0  0  0
   -2.5381    0.0058    1.1934 H   0  0  0  0  0  0  0  0  0  0  0  0
   -1.5852    0.7473    2.9652 C   0  0  0  0  0  0  0  0  0  0  0  0
   -0.9513    1.6373    2.8958 H   0  0  0  0  0  0  0  0  0  0  0  0
   -2.5865    1.0606    3.2758 H   0  0  0  0  0  0  0  0  0  0  0  0
   -1.1766    0.0814    3.7325 H   0  0  0  0  0  0  0  0  0  0  0  0
  1  2  1  0  0  0  0
  2  3  1  0  0  0  0
  2  4  1  0  0  0  0
  2  5  1  0  0  0  0
  5  6  2  0  0  0  0
  5  7  1  0  0  0  0
  7  8  1  0  0  0  0
  7  9  1  0  0  0  0
  9 10  1  0  0  0  0
  9 11  1  0  0  0  0
  9 29  1  0  0  0  0
 11 12  1  0  0  0  0
 11 13  1  0  0  0  0
 11 14  1  0  0  0  0
 14 15  2  0  0  0  0
 14 28  1  0  0  0  0
 15 16  1  0  0  0  0
 15 17  1  0  0  0  0
 17 18  1  0  0  0  0
 17 19  1  0  0  0  0
 19 20  1  0  0  0  0
 19 28  2  0  0  0  0
 20 21  1  0  0  0  0
 20 22  2  0  0  0  0
 22 23  1  0  0  0  0
 22 24  1  0  0  0  0
 24 25  1  0  0  0  0
 24 26  2  0  0  0  0
 26 27  1  0  0  0  0
 26 28  1  0  0  0  0
 29 30  2  0  0  0  0
 29 31  1  0  0  0  0
 31 32  1  0  0  0  0
 31 33  1  0  0  0  0
 33 34  1  0  0  0  0
 33 35  1  0  0  0  0
 33 36  1  0  0  0  0
M  END
$$$$

  -OEChem-03222214083D

 36 37  0     1  0  0  0  0  0999 V2000
   -3.3263   -4.6099    0.9616 H   0  0  0  0  0  0  0  0  0  0  0  0
   -3.3243   -3.8008    0.2258 C   0  0  0  0  0  0  0  0  0  0  0  0
   -4.1331   -3.1067    0.4661 H   0  0  0  0  0  0  0  0  0  0  0  0
   -3.4977   -4.2259   -0.7657 H   0  0  0  0  0  0  0  0  0  0  0  0
   -1.9918   -3.0763    0.2531 C   0  0  0  0  0  0  0  0  0  0  0  0
   -1.1028   -3.4654    0.9886 O   0  0  0  0  0  0  0  0  0  0  0  0
   -1.7923   -1.9798   -0.5603 N   0  0  0  0  0  0  0  0  0  0  0  0
   -2.6103   -1.6251   -1.0469 H   0  0  0  0  0  0  0  0  0  0  0  0
   -0.6423   -1.0653   -0.4255 C   0  0  1  0  0  0  0  0  0  0  0  0
    0.2738   -1.6607   -0.5099 H   0  0  0  0  0  0  0  0  0  0  0  0
   -0.6322   -0.0419   -1.5790 C   0  0  0  0  0  0  0  0  0  0  0  0
    0.0920    0.7528   -1.3709 H   0  0  0  0  0  0  0  0  0  0  0  0
   -0.2920   -0.5557   -2.4837 H   0  0  0  0  0  0  0  0  0  0  0  0
   -1.9915    0.5582   -1.8562 C   0  0  0  0  0  0  0  0  0  0  0  0
   -2.9253    0.0578   -2.7334 C   0  0  0  0  0  0  0  0  0  0  0  0
   -2.7949   -0.8207   -3.3626 H   0  0  0  0  0  0  0  0  0  0  0  0
   -4.0497    0.8760   -2.6662 N   0  0  0  0  0  0  0  0  0  0  0  0
   -4.8869    0.7785   -3.2393 H   0  0  0  0  0  0  0  0  0  0  0  0
   -3.8355    1.9168   -1.7768 C   0  0  0  0  0  0  0  0  0  0  0  0
   -4.6420    2.9869   -1.3893 C   0  0  0  0  0  0  0  0  0  0  0  0
   -5.6382    3.1010   -1.8026 H   0  0  0  0  0  0  0  0  0  0  0  0
   -4.1466    3.9150   -0.4624 C   0  0  0  0  0  0  0  0  0  0  0  0
   -4.7636    4.7524   -0.1497 H   0  0  0  0  0  0  0  0  0  0  0  0
   -2.8510    3.7684    0.0562 C   0  0  0  0  0  0  0  0  0  0  0  0
   -2.4657    4.4920    0.7686 H   0  0  0  0  0  0  0  0  0  0  0  0
   -2.0473    2.6929   -0.3463 C   0  0  0  0  0  0  0  0  0  0  0  0
   -1.0415    2.5806    0.0482 H   0  0  0  0  0  0  0  0  0  0  0  0
   -2.5557    1.7607   -1.2571 C   0  0  0  0  0  0  0  0  0  0  0  0
   -0.5629   -0.3690    0.9515 C   0  0  0  0  0  0  0  0  0  0  0  0
    0.5279   -0.1402    1.4578 O   0  0  0  0  0  0  0  0  0  0  0  0
   -1.6955    0.1760    1.5303 N   0  0  0  0  0  0  0  0  0  0  0  0
   -2.5393    0.1765    0.9641 H   0  0  0  0  0  0  0  0  0  0  0  0
   -1.6668    0.9735    2.7491 C   0  0  0  0  0  0  0  0  0  0  0  0
   -1.0555    1.8708    2.6082 H   0  0  0  0  0  0  0  0  0  0  0  0
   -2.6804    1.2834    3.0204 H   0  0  0  0  0  0  0  0  0  0  0  0
   -1.2507    0.3899    3.5770 H   0  0  0  0  0  0  0  0  0  0  0  0
  1  2  1  0  0  0  0
  2  3  1  0  0  0  0
  2  4  1  0  0  0  0
  2  5  1  0  0  0  0
  5  6  2  0  0  0  0
  5  7  1  0  0  0  0
  7  8  1  0  0  0  0
  7  9  1  0  0  0  0
  9 10  1  0  0  0  0
  9 11  1  0  0  0  0
  9 29  1  0  0  0  0
 11 12  1  0  0  0  0
 11 13  1  0  0  0  0
 11 14  1  0  0  0  0
 14 15  2  0  0  0  0
 14 28  1  0  0  0  0
 15 16  1  0  0  0  0
 15 17  1  0  0  0  0
 17 18  1  0  0  0  0
 17 19  1  0  0  0  0
 19 20  1  0  0  0  0
 19 28  2  0  0  0  0
 20 21  1  0  0  0  0
 20 22  2  0  0  0  0
 22 23  1  0  0  0  0
 22 24  1  0  0  0  0
 24 25  1  0  0  0  0
 24 26  2  0  0  0  0
 26 27  1  0  0  0  0
 26 28  1  0  0  0  0
 29 30  2  0  0  0  0
 29 31  1  0  0  0  0
 31 32  1  0  0  0  0
 31 33  1  0  0  0  0
 33 34  1  0  0  0  0
 33 35  1  0  0  0  0
 33 36  1  0  0  0  0
M  END
$$$$

  -OEChem-03222214083D

 36 37  0     1  0  0  0  0  0999 V2000
   -3.3311   -4.5579    1.0667 H   0  0  0  0  0  0  0  0  0  0  0  0
   -3.3357   -3.7673    0.3108 C   0  0  0  0  0  0  0  0  0  0  0  0
   -4.1256   -3.0533    0.5557 H   0  0  0  0  0  0  0  0  0  0  0  0
   -3.5434   -4.2145   -0.6641 H   0  0  0  0  0  0  0  0  0  0  0  0
   -1.9909   -3.0663    0.2846 C   0  0  0  0  0  0  0  0  0  0  0  0
   -1.1001   -3.4338    1.0289 O   0  0  0  0  0  0  0  0  0  0  0  0
   -1.7821   -2.0154   -0.5855 N   0  0  0  0  0  0  0  0  0  0  0  0
   -2.6070   -1.6650   -1.0607 H   0  0  0  0  0  0  0  0  0  0  0  0
   -0.6366   -1.0931   -0.4653 C   0  0  1  0  0  0  0  0  0  0  0  0
    0.2844   -1.6854   -0.5082 H   0  0  0  0  0  0  0  0  0  0  0  0
   -0.5972   -0.0777   -1.6258 C   0  0  0  0  0  0  0  0  0  0  0  0
    0.1377    0.7065   -1.4155 H   0  0  0  0  0  0  0  0  0  0  0  0
   -0.2502   -0.6035   -2.5207 H   0  0  0  0  0  0  0  0  0  0  0  0
   -1.9418    0.5395   -1.9418 C   0  0  0  0  0  0  0  0  0  0  0  0
   -2.9916   -0.0564   -2.6031 C   0  0  0  0  0  0  0  0  0  0  0  0
   -2.9665   -1.0359   -3.0767 H   0  0  0  0  0  0  0  0  0  0  0  0
   -4.0700    0.8233   -2.5688 N   0  0  0  0  0  0  0  0  0  0  0  0
   -4.9687    0.6779   -3.0269 H   0  0  0  0  0  0  0  0  0  0  0  0
   -3.7287    1.9767   -1.8819 C   0  0  0  0  0  0  0  0  0  0  0  0
   -4.4575    3.1269   -1.5791 C   0  0  0  0  0  0  0  0  0  0  0  0
   -5.4865    3.2264   -1.9070 H   0  0  0  0  0  0  0  0  0  0  0  0
   -3.8436    4.1504   -0.8434 C   0  0  0  0  0  0  0  0  0  0  0  0
   -4.3992    5.0516   -0.6000 H   0  0  0  0  0  0  0  0  0  0  0  0
   -2.5123    4.0123   -0.4216 C   0  0  0  0  0  0  0  0  0  0  0  0
   -2.0386    4.8060    0.1487 H   0  0  0  0  0  0  0  0  0  0  0  0
   -1.7881    2.8539   -0.7366 C   0  0  0  0  0  0  0  0  0  0  0  0
   -0.7584    2.7447   -0.4093 H   0  0  0  0  0  0  0  0  0  0  0  0
   -2.4081    1.8378   -1.4719 C   0  0  0  0  0  0  0  0  0  0  0  0
   -0.5991   -0.3292    0.8777 C   0  0  0  0  0  0  0  0  0  0  0  0
    0.4752   -0.0654    1.4020 O   0  0  0  0  0  0  0  0  0  0  0  0
   -1.7542    0.2390    1.3872 N   0  0  0  0  0  0  0  0  0  0  0  0
   -2.5634    0.2307    0.7732 H   0  0  0  0  0  0  0  0  0  0  0  0
   -1.7527    1.1595    2.5163 C   0  0  0  0  0  0  0  0  0  0  0  0
   -1.1902    2.0662    2.2709 H   0  0  0  0  0  0  0  0  0  0  0  0
   -2.7778    1.4441    2.7715 H   0  0  0  0  0  0  0  0  0  0  0  0
   -1.2975    0.6884    3.3937 H   0  0  0  0  0  0  0  0  0  0  0  0
  1  2  1  0  0  0  0
  2  3  1  0  0  0  0
  2  4  1  0  0  0  0
  2  5  1  0  0  0  0
  5  6  2  0  0  0  0
  5  7  1  0  0  0  0
  7  8  1  0  0  0  0
  7  9  1  0  0  0  0
  9 10  1  0  0  0  0
  9 11  1  0  0  0  0
  9 29  1  0  0  0  0
 11 12  1  0  0  0  0
 11 13  1  0  0  0  0
 11 14  1  0  0  0  0
 14 15  2  0  0  0  0
 14 28  1  0  0  0  0
 15 16  1  0  0  0  0
 15 17  1  0  0  0  0
 17 18  1  0  0  0  0
 17 19  1  0  0  0  0
 19 20  1  0  0  0  0
 19 28  2  0  0  0  0
 20 21  1  0  0  0  0
 20 22  2  0  0  0  0
 22 23  1  0  0  0  0
 22 24  1  0  0  0  0
 24 25  1  0  0  0  0
 24 26  2  0  0  0  0
 26 27  1  0  0  0  0
 26 28  1  0  0  0  0
 29 30  2  0  0  0  0
 29 31  1  0  0  0  0
 31 32  1  0  0  0  0
 31 33  1  0  0  0  0
 33 34  1  0  0  0  0
 33 35  1  0  0  0  0
 33 36  1  0  0  0  0
M  END
$$$$

  -OEChem-03222214083D

 36 37  0     1  0  0  0  0  0999 V2000
   -3.2157   -4.6320    1.1413 H   0  0  0  0  0  0  0  0  0  0  0  0
   -3.2667   -3.8312    0.3981 C   0  0  0  0  0  0  0  0  0  0  0  0
   -4.0649   -3.1405    0.6804 H   0  0  0  0  0  0  0  0  0  0  0  0
   -3.4982   -4.2704   -0.5750 H   0  0  0  0  0  0  0  0  0  0  0  0
   -1.9416   -3.0955    0.3346 C   0  0  0  0  0  0  0  0  0  0  0  0
   -1.0342   -3.4137    1.0812 O   0  0  0  0  0  0  0  0  0  0  0  0
   -1.7703   -2.0714   -0.5751 N   0  0  0  0  0  0  0  0  0  0  0  0
   -2.6130   -1.7558   -1.0386 H   0  0  0  0  0  0  0  0  0  0  0  0
   -0.6503   -1.1150   -0.4947 C   0  0  1  0  0  0  0  0  0  0  0  0
    0.2858   -1.6836   -0.5267 H   0  0  0  0  0  0  0  0  0  0  0  0
   -0.6318   -0.1093   -1.6654 C   0  0  0  0  0  0  0  0  0  0  0  0
    0.1002    0.6780   -1.4591 H   0  0  0  0  0  0  0  0  0  0  0  0
   -0.2759   -0.6381   -2.5549 H   0  0  0  0  0  0  0  0  0  0  0  0
   -1.9743    0.5048   -2.0114 C   0  0  0  0  0  0  0  0  0  0  0  0
   -3.1284   -0.1271   -2.4214 C   0  0  0  0  0  0  0  0  0  0  0  0
   -3.2147   -1.1756   -2.6980 H   0  0  0  0  0  0  0  0  0  0  0  0
   -4.1485    0.8181   -2.4574 N   0  0  0  0  0  0  0  0  0  0  0  0
   -5.1009    0.6527   -2.7798 H   0  0  0  0  0  0  0  0  0  0  0  0
   -3.6748    2.0507   -2.0433 C   0  0  0  0  0  0  0  0  0  0  0  0
   -4.3096    3.2831   -1.8911 C   0  0  0  0  0  0  0  0  0  0  0  0
   -5.3627    3.3905   -2.1265 H   0  0  0  0  0  0  0  0  0  0  0  0
   -3.5701    4.3785   -1.4245 C   0  0  0  0  0  0  0  0  0  0  0  0
   -4.0499    5.3450   -1.3005 H   0  0  0  0  0  0  0  0  0  0  0  0
   -2.2103    4.2274   -1.1138 C   0  0  0  0  0  0  0  0  0  0  0  0
   -1.6390    5.0756   -0.7482 H   0  0  0  0  0  0  0  0  0  0  0  0
   -1.5829    2.9842   -1.2736 C   0  0  0  0  0  0  0  0  0  0  0  0
   -0.5316    2.8693   -1.0281 H   0  0  0  0  0  0  0  0  0  0  0  0
   -2.3253    1.8969   -1.7492 C   0  0  0  0  0  0  0  0  0  0  0  0
   -0.6280   -0.3045    0.8215 C   0  0  0  0  0  0  0  0  0  0  0  0
    0.4409   -0.0002    1.3348 O   0  0  0  0  0  0  0  0  0  0  0  0
   -1.7975    0.2487    1.3155 N   0  0  0  0  0  0  0  0  0  0  0  0
   -2.6023    0.2082    0.6977 H   0  0  0  0  0  0  0  0  0  0  0  0
   -1.8130    1.2217    2.3998 C   0  0  0  0  0  0  0  0  0  0  0  0
   -1.3579    2.1631    2.0753 H   0  0  0  0  0  0  0  0  0  0  0  0
   -2.8423    1.4210    2.7127 H   0  0  0  0  0  0  0  0  0  0  0  0
   -1.2601    0.8424    3.2659 H   0  0  0  0  0  0  0  0  0  0  0  0
  1  2  1  0  0  0  0
  2  3  1  0  0  0  0
  2  4  1  0  0  0  0
  2  5  1  0  0  0  0
  5  6  2  0  0  0  0
  5  7  1  0  0  0  0
  7  8  1  0  0  0  0
  7  9  1  0  0  0  0
  9 10  1  0  0  0  0
  9 11  1  0  0  0  0
  9 29  1  0  0  0  0
 11 12  1  0  0  0  0
 11 13  1  0  0  0  0
 11 14  1  0  0  0  0
 14 15  2  0  0  0  0
 14 28  1  0  0  0  0
 15 16  1  0  0  0  0
 15 17  1  0  0  0  0
 17 18  1  0  0  0  0
 17 19  1  0  0  0  0
 19 20  1  0  0  0  0
 19 28  2  0  0  0  0
 20 21  1  0  0  0  0
 20 22  2  0  0  0  0
 22 23  1  0  0  0  0
 22 24  1  0  0  0  0
 24 25  1  0  0  0  0
 24 26  2  0  0  0  0
 26 27  1  0  0  0  0
 26 28  1  0  0  0  0
 29 30  2  0  0  0  0
 29 31  1  0  0  0  0
 31 32  1  0  0  0  0
 31 33  1  0  0  0  0
 33 34  1  0  0  0  0
 33 35  1  0  0  0  0
 33 36  1  0  0  0  0
M  END
$$$$

  -OEChem-03222214083D

 36 37  0     1  0  0  0  0  0999 V2000
   -2.9965   -4.9362    1.0134 H   0  0  0  0  0  0  0  0  0  0  0  0
   -3.0369   -4.1829    0.2210 C   0  0  0  0  0  0  0  0  0  0  0  0
   -4.0266   -3.7203    0.2276 H   0  0  0  0  0  0  0  0  0  0  0  0
   -2.8767   -4.6763   -0.7407 H   0  0  0  0  0  0  0  0  0  0  0  0
   -1.9694   -3.1291    0.4482 C   0  0  0  0  0  0  0  0  0  0  0  0
   -1.2211   -3.2237    1.4029 O   0  0  0  0  0  0  0  0  0  0  0  0
   -1.8391   -2.0893   -0.4515 N   0  0  0  0  0  0  0  0  0  0  0  0
   -2.3507   -2.1905   -1.3196 H   0  0  0  0  0  0  0  0  0  0  0  0
   -0.7275   -1.1194   -0.4318 C   0  0  1  0  0  0  0  0  0  0  0  0
    0.2138   -1.6698   -0.5365 H   0  0  0  0  0  0  0  0  0  0  0  0
   -0.8232   -0.0908   -1.5826 C   0  0  0  0  0  0  0  0  0  0  0  0
   -0.0857    0.6960   -1.3967 H   0  0  0  0  0  0  0  0  0  0  0  0
   -0.5164   -0.5892   -2.5069 H   0  0  0  0  0  0  0  0  0  0  0  0
   -2.1832    0.5425   -1.8468 C   0  0  0  0  0  0  0  0  0  0  0  0
   -3.4421   -0.0196   -1.9250 C   0  0  0  0  0  0  0  0  0  0  0  0
   -3.6901   -1.0718   -1.8395 H   0  0  0  0  0  0  0  0  0  0  0  0
   -4.3628    0.9994   -2.1469 N   0  0  0  0  0  0  0  0  0  0  0  0
   -5.3676    0.8784   -2.2610 H   0  0  0  0  0  0  0  0  0  0  0  0
   -3.7199    2.2210   -2.2095 C   0  0  0  0  0  0  0  0  0  0  0  0
   -4.2112    3.5110   -2.4094 C   0  0  0  0  0  0  0  0  0  0  0  0
   -5.2734    3.6774   -2.5514 H   0  0  0  0  0  0  0  0  0  0  0  0
   -3.3143    4.5874   -2.4240 C   0  0  0  0  0  0  0  0  0  0  0  0
   -3.6802    5.5982   -2.5786 H   0  0  0  0  0  0  0  0  0  0  0  0
   -1.9428    4.3601   -2.2379 C   0  0  0  0  0  0  0  0  0  0  0  0
   -1.2484    5.1949   -2.2475 H   0  0  0  0  0  0  0  0  0  0  0  0
   -1.4628    3.0579   -2.0377 C   0  0  0  0  0  0  0  0  0  0  0  0
   -0.4008    2.8907   -1.8912 H   0  0  0  0  0  0  0  0  0  0  0  0
   -2.3627    1.9840   -2.0269 C   0  0  0  0  0  0  0  0  0  0  0  0
   -0.6253   -0.3099    0.8826 C   0  0  0  0  0  0  0  0  0  0  0  0
    0.4761    0.0131    1.3105 O   0  0  0  0  0  0  0  0  0  0  0  0
   -1.7601    0.2337    1.4580 N   0  0  0  0  0  0  0  0  0  0  0  0
   -2.6331    0.0919    0.9602 H   0  0  0  0  0  0  0  0  0  0  0  0
   -1.7214    1.1831    2.5616 C   0  0  0  0  0  0  0  0  0  0  0  0
   -1.2087    2.1016    2.2579 H   0  0  0  0  0  0  0  0  0  0  0  0
   -2.7379    1.4397    2.8748 H   0  0  0  0  0  0  0  0  0  0  0  0
   -1.1951    0.7514    3.4195 H   0  0  0  0  0  0  0  0  0  0  0  0
  1  2  1  0  0  0  0
  2  3  1  0  0  0  0
  2  4  1  0  0  0  0
  2  5  1  0  0  0  0
  5  6  2  0  0  0  0
  5  7  1  0  0  0  0
  7  8  1  0  0  0  0
  7  9  1  0  0  0  0
  9 10  1  0  0  0  0
  9 11  1  0  0  0  0
  9 29  1  0  0  0  0
 11 12  1  0  0  0  0
 11 13  1  0  0  0  0
 11 14  1  0  0  0  0
 14 15  2  0  0  0  0
 14 28  1  0  0  0  0
 15 16  1  0  0  0  0
 15 17  1  0  0  0  0
 17 18  1  0  0  0  0
 17 19  1  0  0  0  0
 19 20  1  0  0  0  0
 19 28  2  0  0  0  0
 20 21  1  0  0  0  0
 20 22  2  0  0  0  0
 22 23  1  0  0  0  0
 22 24  1  0  0  0  0
 24 25  1  0  0  0  0
 24 26  2  0  0  0  0
 26 27  1  0  0  0  0
 26 28  1  0  0  0  0
 29 30  2  0  0  0  0
 29 31  1  0  0  0  0
 31 32  1  0  0  0  0
 31 33  1  0  0  0  0
 33 34  1  0  0  0  0
 33 35  1  0  0  0  0
 33 36  1  0  0  0  0
M  END
$$$$

  -OEChem-03222214083D

 36 37  0     1  0  0  0  0  0999 V2000
   -2.9314   -4.9806    0.9562 H   0  0  0  0  0  0  0  0  0  0  0  0
   -3.0044   -4.2035    0.1898 C   0  0  0  0  0  0  0  0  0  0  0  0
   -4.0017   -3.7598    0.2341 H   0  0  0  0  0  0  0  0  0  0  0  0
   -2.8585   -4.6635   -0.7906 H   0  0  0  0  0  0  0  0  0  0  0  0
   -1.9506   -3.1381    0.4270 C   0  0  0  0  0  0  0  0  0  0  0  0
   -1.1911   -3.2408    1.3717 O   0  0  0  0  0  0  0  0  0  0  0  0
   -1.8549   -2.0693   -0.4425 N   0  0  0  0  0  0  0  0  0  0  0  0
   -2.3754   -2.1589   -1.3089 H   0  0  0  0  0  0  0  0  0  0  0  0
   -0.7459   -1.0960   -0.4284 C   0  0  1  0  0  0  0  0  0  0  0  0
    0.1926   -1.6399   -0.5820 H   0  0  0  0  0  0  0  0  0  0  0  0
   -0.8892   -0.0451   -1.5536 C   0  0  0  0  0  0  0  0  0  0  0  0
   -0.1582    0.7472   -1.3603 H   0  0  0  0  0  0  0  0  0  0  0  0
   -0.5966   -0.5167   -2.4966 H   0  0  0  0  0  0  0  0  0  0  0  0
   -2.2534    0.5961   -1.7783 C   0  0  0  0  0  0  0  0  0  0  0  0
   -3.5387    0.1285   -1.5804 C   0  0  0  0  0  0  0  0  0  0  0  0
   -3.8284   -0.8402   -1.1881 H   0  0  0  0  0  0  0  0  0  0  0  0
   -4.4306    1.1247   -1.9654 N   0  0  0  0  0  0  0  0  0  0  0  0
   -5.4463    1.0599   -1.9270 H   0  0  0  0  0  0  0  0  0  0  0  0
   -3.7439    2.2345   -2.4197 C   0  0  0  0  0  0  0  0  0  0  0  0
   -4.1911    3.4616   -2.9099 C   0  0  0  0  0  0  0  0  0  0  0  0
   -5.2529    3.6695   -2.9808 H   0  0  0  0  0  0  0  0  0  0  0  0
   -3.2503    4.4203   -3.3092 C   0  0  0  0  0  0  0  0  0  0  0  0
   -3.5820    5.3802   -3.6932 H   0  0  0  0  0  0  0  0  0  0  0  0
   -1.8791    4.1403   -3.2127 C   0  0  0  0  0  0  0  0  0  0  0  0
   -1.1507    4.8844   -3.5207 H   0  0  0  0  0  0  0  0  0  0  0  0
   -1.4436    2.9025   -2.7184 C   0  0  0  0  0  0  0  0  0  0  0  0
   -0.3821    2.6905   -2.6446 H   0  0  0  0  0  0  0  0  0  0  0  0
   -2.3882    1.9479   -2.3211 C   0  0  0  0  0  0  0  0  0  0  0  0
   -0.5946   -0.3249    0.9044 C   0  0  0  0  0  0  0  0  0  0  0  0
    0.5225   -0.0197    1.3027 O   0  0  0  0  0  0  0  0  0  0  0  0
   -1.7044    0.2009    1.5415 N   0  0  0  0  0  0  0  0  0  0  0  0
   -2.6039    0.0423    1.1007 H   0  0  0  0  0  0  0  0  0  0  0  0
   -1.6252    1.0774    2.7018 C   0  0  0  0  0  0  0  0  0  0  0  0
   -1.0835    1.9956    2.4519 H   0  0  0  0  0  0  0  0  0  0  0  0
   -2.6298    1.3485    3.0396 H   0  0  0  0  0  0  0  0  0  0  0  0
   -1.1077    0.5747    3.5256 H   0  0  0  0  0  0  0  0  0  0  0  0
  1  2  1  0  0  0  0
  2  3  1  0  0  0  0
  2  4  1  0  0  0  0
  2  5  1  0  0  0  0
  5  6  2  0  0  0  0
  5  7  1  0  0  0  0
  7  8  1  0  0  0  0
  7  9  1  0  0  0  0
  9 10  1  0  0  0  0
  9 11  1  0  0  0  0
  9 29  1  0  0  0  0
 11 12  1  0  0  0  0
 11 13  1  0  0  0  0
 11 14  1  0  0  0  0
 14 15  2  0  0  0  0
 14 28  1  0  0  0  0
 15 16  1  0  0  0  0
 15 17  1  0  0  0  0
 17 18  1  0  0  0  0
 17 19  1  0  0  0  0
 19 20  1  0  0  0  0
 19 28  2  0  0  0  0
 20 21  1  0  0  0  0
 20 22  2  0  0  0  0
 22 23  1  0  0  0  0
 22 24  1  0  0  0  0
 24 25  1  0  0  0  0
 24 26  2  0  0  0  0
 26 27  1  0  0  0  0
 26 28  1  0  0  0  0
 29 30  2  0  0  0  0
 29 31  1  0  0  0  0
 31 32  1  0  0  0  0
 31 33  1  0  0  0  0
 33 34  1  0  0  0  0
 33 35  1  0  0  0  0
 33 36  1  0  0  0  0
M  END
$$$$

  -OEChem-03222214083D

 36 37  0     1  0  0  0  0  0999 V2000
   -2.9537   -4.9674    0.9034 H   0  0  0  0  0  0  0  0  0  0  0  0
   -3.0404   -4.1674    0.1625 C   0  0  0  0  0  0  0  0  0  0  0  0
   -4.0341   -3.7209    0.2430 H   0  0  0  0  0  0  0  0  0  0  0  0
   -2.9197   -4.5984   -0.8344 H   0  0  0  0  0  0  0  0  0  0  0  0
   -1.9750   -3.1152    0.4059 C   0  0  0  0  0  0  0  0  0  0  0  0
   -1.2077   -3.2383    1.3418 O   0  0  0  0  0  0  0  0  0  0  0  0
   -1.8814   -2.0280   -0.4401 N   0  0  0  0  0  0  0  0  0  0  0  0
   -2.4391   -2.0731   -1.2880 H   0  0  0  0  0  0  0  0  0  0  0  0
   -0.7613   -1.0667   -0.4258 C   0  0  1  0  0  0  0  0  0  0  0  0
    0.1653   -1.6242   -0.6014 H   0  0  0  0  0  0  0  0  0  0  0  0
   -0.9078   -0.0173   -1.5505 C   0  0  0  0  0  0  0  0  0  0  0  0
   -0.1751    0.7766   -1.3677 H   0  0  0  0  0  0  0  0  0  0  0  0
   -0.6251   -0.4963   -2.4927 H   0  0  0  0  0  0  0  0  0  0  0  0
   -2.2679    0.6314   -1.7679 C   0  0  0  0  0  0  0  0  0  0  0  0
   -3.5339    0.2992   -1.3256 C   0  0  0  0  0  0  0  0  0  0  0  0
   -3.7990   -0.5280   -0.6753 H   0  0  0  0  0  0  0  0  0  0  0  0
   -4.4336    1.2279   -1.8412 N   0  0  0  0  0  0  0  0  0  0  0  0
   -5.4373    1.2422   -1.6684 H   0  0  0  0  0  0  0  0  0  0  0  0
   -3.7700    2.1592   -2.6182 C   0  0  0  0  0  0  0  0  0  0  0  0
   -4.2273    3.2665   -3.3330 C   0  0  0  0  0  0  0  0  0  0  0  0
   -5.2814    3.5210   -3.3334 H   0  0  0  0  0  0  0  0  0  0  0  0
   -3.3068    4.0455   -4.0476 C   0  0  0  0  0  0  0  0  0  0  0  0
   -3.6473    4.9118   -4.6071 H   0  0  0  0  0  0  0  0  0  0  0  0
   -1.9452    3.7080   -4.0396 C   0  0  0  0  0  0  0  0  0  0  0  0
   -1.2335    4.3127   -4.5939 H   0  0  0  0  0  0  0  0  0  0  0  0
   -1.4980    2.5938   -3.3148 C   0  0  0  0  0  0  0  0  0  0  0  0
   -0.4441    2.3348   -3.3056 H   0  0  0  0  0  0  0  0  0  0  0  0
   -2.4227    1.8213   -2.6016 C   0  0  0  0  0  0  0  0  0  0  0  0
   -0.5632   -0.3189    0.9136 C   0  0  0  0  0  0  0  0  0  0  0  0
    0.5693   -0.0362    1.2838 O   0  0  0  0  0  0  0  0  0  0  0  0
   -1.6434    0.2144    1.5934 N   0  0  0  0  0  0  0  0  0  0  0  0
   -2.5656    0.0189    1.2223 H   0  0  0  0  0  0  0  0  0  0  0  0
   -1.5151    1.0149    2.8033 C   0  0  0  0  0  0  0  0  0  0  0  0
   -0.9069    1.9049    2.6111 H   0  0  0  0  0  0  0  0  0  0  0  0
   -2.5013    1.3387    3.1488 H   0  0  0  0  0  0  0  0  0  0  0  0
   -1.0435    0.4294    3.5995 H   0  0  0  0  0  0  0  0  0  0  0  0
  1  2  1  0  0  0  0
  2  3  1  0  0  0  0
  2  4  1  0  0  0  0
  2  5  1  0  0  0  0
  5  6  2  0  0  0  0
  5  7  1  0  0  0  0
  7  8  1  0  0  0  0
  7  9  1  0  0  0  0
  9 10  1  0  0  0  0
  9 11  1  0  0  0  0
  9 29  1  0  0  0  0
 11 12  1  0  0  0  0
 11 13  1  0  0  0  0
 11 14  1  0  0  0  0
 14 15  2  0  0  0  0
 14 28  1  0  0  0  0
 15 16  1  0  0  0  0
 15 17  1  0  0  0  0
 17 18  1  0  0  0  0
 17 19  1  0  0  0  0
 19 20  1  0  0  0  0
 19 28  2  0  0  0  0
 20 21  1  0  0  0  0
 20 22  2  0  0  0  0
 22 23  1  0  0  0  0
 22 24  1  0  0  0  0
 24 25  1  0  0  0  0
 24 26  2  0  0  0  0
 26 27  1  0  0  0  0
 26 28  1  0  0  0  0
 29 30  2  0  0  0  0
 29 31  1  0  0  0  0
 31 32  1  0  0  0  0
 31 33  1  0  0  0  0
 33 34  1  0  0  0  0
 33 35  1  0  0  0  0
 33 36  1  0  0  0  0
M  END
$$$$

  -OEChem-03222214083D

 36 37  0     1  0  0  0  0  0999 V2000
   -3.0357   -4.9195    0.8552 H   0  0  0  0  0  0  0  0  0  0  0  0
   -3.1074   -4.1072    0.1264 C   0  0  0  0  0  0  0  0  0  0  0  0
   -4.0923   -3.6425    0.2137 H   0  0  0  0  0  0  0  0  0  0  0  0
   -2.9959   -4.5259   -0.8769 H   0  0  0  0  0  0  0  0  0  0  0  0
   -2.0220   -3.0792    0.3839 C   0  0  0  0  0  0  0  0  0  0  0  0
   -1.2587   -3.2236    1.3204 O   0  0  0  0  0  0  0  0  0  0  0  0
   -1.9164   -1.9749   -0.4371 N   0  0  0  0  0  0  0  0  0  0  0  0
   -2.5039   -1.9717   -1.2671 H   0  0  0  0  0  0  0  0  0  0  0  0
   -0.7806   -1.0316   -0.4157 C   0  0  1  0  0  0  0  0  0  0  0  0
    0.1306   -1.6120   -0.5989 H   0  0  0  0  0  0  0  0  0  0  0  0
   -0.9022    0.0045   -1.5540 C   0  0  0  0  0  0  0  0  0  0  0  0
   -0.1626    0.7954   -1.3868 H   0  0  0  0  0  0  0  0  0  0  0  0
   -0.6242   -0.4985   -2.4853 H   0  0  0  0  0  0  0  0  0  0  0  0
   -2.2551    0.6569   -1.7843 C   0  0  0  0  0  0  0  0  0  0  0  0
   -3.4650    0.4988   -1.1399 C   0  0  0  0  0  0  0  0  0  0  0  0
   -3.6609   -0.1475   -0.2900 H   0  0  0  0  0  0  0  0  0  0  0  0
   -4.3972    1.3286   -1.7573 N   0  0  0  0  0  0  0  0  0  0  0  0
   -5.3683    1.4438   -1.4736 H   0  0  0  0  0  0  0  0  0  0  0  0
   -3.8064    2.0259   -2.7957 C   0  0  0  0  0  0  0  0  0  0  0  0
   -4.3134    2.9671   -3.6919 C   0  0  0  0  0  0  0  0  0  0  0  0
   -5.3535    3.2696   -3.6395 H   0  0  0  0  0  0  0  0  0  0  0  0
   -3.4598    3.5174   -4.6583 C   0  0  0  0  0  0  0  0  0  0  0  0
   -3.8392    4.2517   -5.3625 H   0  0  0  0  0  0  0  0  0  0  0  0
   -2.1147    3.1221   -4.7157 C   0  0  0  0  0  0  0  0  0  0  0  0
   -1.4548    3.5510   -5.4637 H   0  0  0  0  0  0  0  0  0  0  0  0
   -1.6168    2.1771   -3.8075 C   0  0  0  0  0  0  0  0  0  0  0  0
   -0.5758    1.8734   -3.8456 H   0  0  0  0  0  0  0  0  0  0  0  0
   -2.4749    1.6329   -2.8460 C   0  0  0  0  0  0  0  0  0  0  0  0
   -0.5395   -0.3066    0.9294 C   0  0  0  0  0  0  0  0  0  0  0  0
    0.6054   -0.0200    1.2555 O   0  0  0  0  0  0  0  0  0  0  0  0
   -1.5910    0.2385    1.6447 N   0  0  0  0  0  0  0  0  0  0  0  0
   -2.5178   -0.0893    1.4037 H   0  0  0  0  0  0  0  0  0  0  0  0
   -1.4086    0.9736    2.8897 C   0  0  0  0  0  0  0  0  0  0  0  0
   -0.7517    1.8359    2.7338 H   0  0  0  0  0  0  0  0  0  0  0  0
   -2.3719    1.3384    3.2581 H   0  0  0  0  0  0  0  0  0  0  0  0
   -0.9656    0.3265    3.6537 H   0  0  0  0  0  0  0  0  0  0  0  0
  1  2  1  0  0  0  0
  2  3  1  0  0  0  0
  2  4  1  0  0  0  0
  2  5  1  0  0  0  0
  5  6  2  0  0  0  0
  5  7  1  0  0  0  0
  7  8  1  0  0  0  0
  7  9  1  0  0  0  0
  9 10  1  0  0  0  0
  9 11  1  0  0  0  0
  9 29  1  0  0  0  0
 11 12  1  0  0  0  0
 11 13  1  0  0  0  0
 11 14  1  0  0  0  0
 14 15  2  0  0  0  0
 14 28  1  0  0  0  0
 15 16  1  0  0  0  0
 15 17  1  0  0  0  0
 17 18  1  0  0  0  0
 17 19  1  0  0  0  0
 19 20  1  0  0  0  0
 19 28  2  0  0  0  0
 20 21  1  0  0  0  0
 20 22  2  0  0  0  0
 22 23  1  0  0  0  0
 22 24  1  0  0  0  0
 24 25  1  0  0  0  0
 24 26  2  0  0  0  0
 26 27  1  0  0  0  0
 26 28  1  0  0  0  0
 29 30  2  0  0  0  0
 29 31  1  0  0  0  0
 31 32  1  0  0  0  0
 31 33  1  0  0  0  0
 33 34  1  0  0  0  0
 33 35  1  0  0  0  0
 33 36  1  0  0  0  0
M  END
$$$$

  -OEChem-03222214083D

 36 37  0     1  0  0  0  0  0999 V2000
   -3.1268   -4.8702    0.8025 H   0  0  0  0  0  0  0  0  0  0  0  0
   -3.1809   -4.0454    0.0861 C   0  0  0  0  0  0  0  0  0  0  0  0
   -4.1515   -3.5545    0.1879 H   0  0  0  0  0  0  0  0  0  0  0  0
   -3.0891   -4.4517   -0.9242 H   0  0  0  0  0  0  0  0  0  0  0  0
   -2.0648   -3.0521    0.3496 C   0  0  0  0  0  0  0  0  0  0  0  0
   -1.2845   -3.2404    1.2647 O   0  0  0  0  0  0  0  0  0  0  0  0
   -1.9522   -1.9224   -0.4340 N   0  0  0  0  0  0  0  0  0  0  0  0
   -2.5818   -1.8519   -1.2300 H   0  0  0  0  0  0  0  0  0  0  0  0
   -0.8052   -0.9943   -0.3969 C   0  0  1  0  0  0  0  0  0  0  0  0
    0.0907   -1.5961   -0.5869 H   0  0  0  0  0  0  0  0  0  0  0  0
   -0.8923    0.0298   -1.5476 C   0  0  0  0  0  0  0  0  0  0  0  0
   -0.1466    0.8159   -1.3868 H   0  0  0  0  0  0  0  0  0  0  0  0
   -0.6092   -0.4954   -2.4649 H   0  0  0  0  0  0  0  0  0  0  0  0
   -2.2374    0.6834   -1.8021 C   0  0  0  0  0  0  0  0  0  0  0  0
   -3.3679    0.7372   -1.0160 C   0  0  0  0  0  0  0  0  0  0  0  0
   -3.4788    0.3075   -0.0261 H   0  0  0  0  0  0  0  0  0  0  0  0
   -4.3440    1.4471   -1.7100 N   0  0  0  0  0  0  0  0  0  0  0  0
   -5.2719    1.6758   -1.3586 H   0  0  0  0  0  0  0  0  0  0  0  0
   -3.8559    1.8612   -2.9368 C   0  0  0  0  0  0  0  0  0  0  0  0
   -4.4376    2.5984   -3.9686 C   0  0  0  0  0  0  0  0  0  0  0  0
   -5.4579    2.9550   -3.8798 H   0  0  0  0  0  0  0  0  0  0  0  0
   -3.6852    2.8743   -5.1190 C   0  0  0  0  0  0  0  0  0  0  0  0
   -4.1238    3.4478   -5.9302 H   0  0  0  0  0  0  0  0  0  0  0  0
   -2.3641    2.4128   -5.2224 C   0  0  0  0  0  0  0  0  0  0  0  0
   -1.7823    2.6303   -6.1132 H   0  0  0  0  0  0  0  0  0  0  0  0
   -1.7896    1.6755   -4.1771 C   0  0  0  0  0  0  0  0  0  0  0  0
   -0.7662    1.3226   -4.2527 H   0  0  0  0  0  0  0  0  0  0  0  0
   -2.5477    1.4033   -3.0328 C   0  0  0  0  0  0  0  0  0  0  0  0
   -0.5243   -0.3082    0.9608 C   0  0  0  0  0  0  0  0  0  0  0  0
    0.6292   -0.0124    1.2457 O   0  0  0  0  0  0  0  0  0  0  0  0
   -1.5504    0.2329    1.7154 N   0  0  0  0  0  0  0  0  0  0  0  0
   -2.4635   -0.1788    1.5646 H   0  0  0  0  0  0  0  0  0  0  0  0
   -1.3127    0.9385    2.9691 C   0  0  0  0  0  0  0  0  0  0  0  0
   -0.6624    1.8045    2.8053 H   0  0  0  0  0  0  0  0  0  0  0  0
   -2.2585    1.2952    3.3875 H   0  0  0  0  0  0  0  0  0  0  0  0
   -0.8371    0.2744    3.6985 H   0  0  0  0  0  0  0  0  0  0  0  0
  1  2  1  0  0  0  0
  2  3  1  0  0  0  0
  2  4  1  0  0  0  0
  2  5  1  0  0  0  0
  5  6  2  0  0  0  0
  5  7  1  0  0  0  0
  7  8  1  0  0  0  0
  7  9  1  0  0  0  0
  9 10  1  0  0  0  0
  9 11  1  0  0  0  0
  9 29  1  0  0  0  0
 11 12  1  0  0  0  0
 11 13  1  0  0  0  0
 11 14  1  0  0  0  0
 14 15  2  0  0  0  0
 14 28  1  0  0  0  0
 15 16  1  0  0  0  0
 15 17  1  0  0  0  0
 17 18  1  0  0  0  0
 17 19  1  0  0  0  0
 19 20  1  0  0  0  0
 19 28  2  0  0  0  0
 20 21  1  0  0  0  0
 20 22  2  0  0  0  0
 22 23  1  0  0  0  0
 22 24  1  0  0  0  0
 24 25  1  0  0  0  0
 24 26  2  0  0  0  0
 26 27  1  0  0  0  0
 26 28  1  0  0  0  0
 29 30  2  0  0  0  0
 29 31  1  0  0  0  0
 31 32  1  0  0  0  0
 31 33  1  0  0  0  0
 33 34  1  0  0  0  0
 33 35  1  0  0  0  0
 33 36  1  0  0  0  0
M  END
$$$$

  -OEChem-03222214083D

 36 37  0     1  0  0  0  0  0999 V2000
   -3.2306   -4.7997    0.7577 H   0  0  0  0  0  0  0  0  0  0  0  0
   -3.2680   -3.9593    0.0589 C   0  0  0  0  0  0  0  0  0  0  0  0
   -4.2154   -3.4319    0.1933 H   0  0  0  0  0  0  0  0  0  0  0  0
   -3.2156   -4.3485   -0.9608 H   0  0  0  0  0  0  0  0  0  0  0  0
   -2.1072   -3.0171    0.3139 C   0  0  0  0  0  0  0  0  0  0  0  0
   -1.3089   -3.2580    1.2010 O   0  0  0  0  0  0  0  0  0  0  0  0
   -1.9761   -1.8694   -0.4389 N   0  0  0  0  0  0  0  0  0  0  0  0
   -2.6428   -1.7327   -1.1956 H   0  0  0  0  0  0  0  0  0  0  0  0
   -0.8128   -0.9642   -0.3893 C   0  0  1  0  0  0  0  0  0  0  0  0
    0.0672   -1.5881   -0.5824 H   0  0  0  0  0  0  0  0  0  0  0  0
   -0.8677    0.0495   -1.5502 C   0  0  0  0  0  0  0  0  0  0  0  0
   -0.1134    0.8273   -1.3915 H   0  0  0  0  0  0  0  0  0  0  0  0
   -0.5800   -0.4930   -2.4556 H   0  0  0  0  0  0  0  0  0  0  0  0
   -2.2043    0.7139   -1.8198 C   0  0  0  0  0  0  0  0  0  0  0  0
   -3.2291    1.0190   -0.9517 C   0  0  0  0  0  0  0  0  0  0  0  0
   -3.2340    0.8508    0.1188 H   0  0  0  0  0  0  0  0  0  0  0  0
   -4.2601    1.5984   -1.6859 N   0  0  0  0  0  0  0  0  0  0  0  0
   -5.1277    1.9647   -1.2984 H   0  0  0  0  0  0  0  0  0  0  0  0
   -3.9111    1.6818   -3.0217 C   0  0  0  0  0  0  0  0  0  0  0  0
   -4.5935    2.1878   -4.1280 C   0  0  0  0  0  0  0  0  0  0  0  0
   -5.5855    2.6106   -4.0135 H   0  0  0  0  0  0  0  0  0  0  0  0
   -3.9784    2.1454   -5.3868 C   0  0  0  0  0  0  0  0  0  0  0  0
   -4.4960    2.5365   -6.2579 H   0  0  0  0  0  0  0  0  0  0  0  0
   -2.6920    1.6016   -5.5223 C   0  0  0  0  0  0  0  0  0  0  0  0
   -2.2158    1.5731   -6.4979 H   0  0  0  0  0  0  0  0  0  0  0  0
   -2.0157    1.0990   -4.4016 C   0  0  0  0  0  0  0  0  0  0  0  0
   -1.0179    0.6861   -4.5060 H   0  0  0  0  0  0  0  0  0  0  0  0
   -2.6369    1.1415   -3.1479 C   0  0  0  0  0  0  0  0  0  0  0  0
   -0.5055   -0.3180    0.9816 C   0  0  0  0  0  0  0  0  0  0  0  0
    0.6544   -0.0362    1.2537 O   0  0  0  0  0  0  0  0  0  0  0  0
   -1.5134    0.2214    1.7610 N   0  0  0  0  0  0  0  0  0  0  0  0
   -2.4250   -0.2029    1.6302 H   0  0  0  0  0  0  0  0  0  0  0  0
   -1.2445    0.8838    3.0319 C   0  0  0  0  0  0  0  0  0  0  0  0
   -0.5819    1.7433    2.8853 H   0  0  0  0  0  0  0  0  0  0  0  0
   -2.1776    1.2434    3.4753 H   0  0  0  0  0  0  0  0  0  0  0  0
   -0.7695    0.1890    3.7328 H   0  0  0  0  0  0  0  0  0  0  0  0
  1  2  1  0  0  0  0
  2  3  1  0  0  0  0
  2  4  1  0  0  0  0
  2  5  1  0  0  0  0
  5  6  2  0  0  0  0
  5  7  1  0  0  0  0
  7  8  1  0  0  0  0
  7  9  1  0  0  0  0
  9 10  1  0  0  0  0
  9 11  1  0  0  0  0
  9 29  1  0  0  0  0
 11 12  1  0  0  0  0
 11 13  1  0  0  0  0
 11 14  1  0  0  0  0
 14 15  2  0  0  0  0
 14 28  1  0  0  0  0
 15 16  1  0  0  0  0
 15 17  1  0  0  0  0
 17 18  1  0  0  0  0
 17 19  1  0  0  0  0
 19 20  1  0  0  0  0
 19 28  2  0  0  0  0
 20 21  1  0  0  0  0
 20 22  2  0  0  0  0
 22 23  1  0  0  0  0
 22 24  1  0  0  0  0
 24 25  1  0  0  0  0
 24 26  2  0  0  0  0
 26 27  1  0  0  0  0
 26 28  1  0  0  0  0
 29 30  2  0  0  0  0
 29 31  1  0  0  0  0
 31 32  1  0  0  0  0
 31 33  1  0  0  0  0
 33 34  1  0  0  0  0
 33 35  1  0  0  0  0
 33 36  1  0  0  0  0
M  END
$$$$

  -OEChem-03222214083D

 36 37  0     1  0  0  0  0  0999 V2000
   -3.3730   -4.6909    0.6861 H   0  0  0  0  0  0  0  0  0  0  0  0
   -3.3705   -3.8395   -0.0008 C   0  0  0  0  0  0  0  0  0  0  0  0
   -4.2882   -3.2653    0.1465 H   0  0  0  0  0  0  0  0  0  0  0  0
   -3.3445   -4.2164   -1.0263 H   0  0  0  0  0  0  0  0  0  0  0  0
   -2.1604   -2.9625    0.2594 C   0  0  0  0  0  0  0  0  0  0  0  0
   -1.3654   -3.2626    1.1316 O   0  0  0  0  0  0  0  0  0  0  0  0
   -1.9748   -1.8117   -0.4770 N   0  0  0  0  0  0  0  0  0  0  0  0
   -2.6549   -1.6091   -1.2073 H   0  0  0  0  0  0  0  0  0  0  0  0
   -0.7859   -0.9432   -0.3962 C   0  0  1  0  0  0  0  0  0  0  0  0
    0.0792   -1.5922   -0.5734 H   0  0  0  0  0  0  0  0  0  0  0  0
   -0.7894    0.0686   -1.5596 C   0  0  0  0  0  0  0  0  0  0  0  0
   -0.0262    0.8328   -1.3791 H   0  0  0  0  0  0  0  0  0  0  0  0
   -0.4869   -0.4750   -2.4588 H   0  0  0  0  0  0  0  0  0  0  0  0
   -2.1113    0.7561   -1.8408 C   0  0  0  0  0  0  0  0  0  0  0  0
   -2.9992    1.3196   -0.9523 C   0  0  0  0  0  0  0  0  0  0  0  0
   -2.8535    1.4296    0.1169 H   0  0  0  0  0  0  0  0  0  0  0  0
   -4.1077    1.7587   -1.6705 N   0  0  0  0  0  0  0  0  0  0  0  0
   -4.9021    2.2620   -1.2793 H   0  0  0  0  0  0  0  0  0  0  0  0
   -3.9477    1.4865   -3.0172 C   0  0  0  0  0  0  0  0  0  0  0  0
   -4.7706    1.7363   -4.1156 C   0  0  0  0  0  0  0  0  0  0  0  0
   -5.7282    2.2278   -3.9826 H   0  0  0  0  0  0  0  0  0  0  0  0
   -4.3423    1.3464   -5.3919 C   0  0  0  0  0  0  0  0  0  0  0  0
   -4.9708    1.5356   -6.2574 H   0  0  0  0  0  0  0  0  0  0  0  0
   -3.0997    0.7160   -5.5534 C   0  0  0  0  0  0  0  0  0  0  0  0
   -2.7674    0.4196   -6.5439 H   0  0  0  0  0  0  0  0  0  0  0  0
   -2.2810    0.4727   -4.4413 C   0  0  0  0  0  0  0  0  0  0  0  0
   -1.3167   -0.0067   -4.5726 H   0  0  0  0  0  0  0  0  0  0  0  0
   -2.7151    0.8616   -3.1678 C   0  0  0  0  0  0  0  0  0  0  0  0
   -0.4955   -0.3250    0.9900 C   0  0  0  0  0  0  0  0  0  0  0  0
    0.6636   -0.0792    1.2982 O   0  0  0  0  0  0  0  0  0  0  0  0
   -1.5098    0.2315    1.7485 N   0  0  0  0  0  0  0  0  0  0  0  0
   -2.4350   -0.1420    1.5627 H   0  0  0  0  0  0  0  0  0  0  0  0
   -1.2625    0.8379    3.0513 C   0  0  0  0  0  0  0  0  0  0  0  0
   -0.5857    1.6934    2.9549 H   0  0  0  0  0  0  0  0  0  0  0  0
   -2.2011    1.1896    3.4896 H   0  0  0  0  0  0  0  0  0  0  0  0
   -0.8122    0.1092    3.7334 H   0  0  0  0  0  0  0  0  0  0  0  0
  1  2  1  0  0  0  0
  2  3  1  0  0  0  0
  2  4  1  0  0  0  0
  2  5  1  0  0  0  0
  5  6  2  0  0  0  0
  5  7  1  0  0  0  0
  7  8  1  0  0  0  0
  7  9  1  0  0  0  0
  9 10  1  0  0  0  0
  9 11  1  0  0  0  0
  9 29  1  0  0  0  0
 11 12  1  0  0  0  0
 11 13  1  0  0  0  0
 11 14  1  0  0  0  0
 14 15  2  0  0  0  0
 14 28  1  0  0  0  0
 15 16  1  0  0  0  0
 15 17  1  0  0  0  0
 17 18  1  0  0  0  0
 17 19  1  0  0  0  0
 19 20  1  0  0  0  0
 19 28  2  0  0  0  0
 20 21  1  0  0  0  0
 20 22  2  0  0  0  0
 22 23  1  0  0  0  0
 22 24  1  0  0  0  0
 24 25  1  0  0  0  0
 24 26  2  0  0  0  0
 26 27  1  0  0  0  0
 26 28  1  0  0  0  0
 29 30  2  0  0  0  0
 29 31  1  0  0  0  0
 31 32  1  0  0  0  0
 31 33  1  0  0  0  0
 33 34  1  0  0  0  0
 33 35  1  0  0  0  0
 33 36  1  0  0  0  0
M  END
$$$$

  -OEChem-03222214083D

 36 37  0     1  0  0  0  0  0999 V2000
   -3.5355   -4.5525    0.5761 H   0  0  0  0  0  0  0  0  0  0  0  0
   -3.4690   -3.6976   -0.1029 C   0  0  0  0  0  0  0  0  0  0  0  0
   -4.3438   -3.0602    0.0458 H   0  0  0  0  0  0  0  0  0  0  0  0
   -3.4649   -4.0656   -1.1318 H   0  0  0  0  0  0  0  0  0  0  0  0
   -2.2013   -2.9108    0.1698 C   0  0  0  0  0  0  0  0  0  0  0  0
   -1.4392   -3.2642    1.0514 O   0  0  0  0  0  0  0  0  0  0  0  0
   -1.9261   -1.7798   -0.5680 N   0  0  0  0  0  0  0  0  0  0  0  0
   -2.6000   -1.5098   -1.2827 H   0  0  0  0  0  0  0  0  0  0  0  0
   -0.7143   -0.9509   -0.4297 C   0  0  1  0  0  0  0  0  0  0  0  0
    0.1458   -1.6169   -0.5610 H   0  0  0  0  0  0  0  0  0  0  0  0
   -0.6557    0.0648   -1.5875 C   0  0  0  0  0  0  0  0  0  0  0  0
    0.1079    0.8183   -1.3671 H   0  0  0  0  0  0  0  0  0  0  0  0
   -0.3294   -0.4602   -2.4893 H   0  0  0  0  0  0  0  0  0  0  0  0
   -1.9682    0.7630   -1.8724 C   0  0  0  0  0  0  0  0  0  0  0  0
   -2.6993    1.5561   -1.0188 C   0  0  0  0  0  0  0  0  0  0  0  0
   -2.3821    1.8905   -0.0341 H   0  0  0  0  0  0  0  0  0  0  0  0
   -3.8971    1.8758   -1.6516 N   0  0  0  0  0  0  0  0  0  0  0  0
   -4.6153    2.4931   -1.2762 H   0  0  0  0  0  0  0  0  0  0  0  0
   -3.9573    1.2786   -2.8985 C   0  0  0  0  0  0  0  0  0  0  0  0
   -4.9435    1.2919   -3.8844 C   0  0  0  0  0  0  0  0  0  0  0  0
   -5.8598    1.8520   -3.7346 H   0  0  0  0  0  0  0  0  0  0  0  0
   -4.7347    0.5726   -5.0689 C   0  0  0  0  0  0  0  0  0  0  0  0
   -5.4938    0.5747   -5.8458 H   0  0  0  0  0  0  0  0  0  0  0  0
   -3.5445   -0.1474   -5.2528 C   0  0  0  0  0  0  0  0  0  0  0  0
   -3.3833   -0.7012   -6.1728 H   0  0  0  0  0  0  0  0  0  0  0  0
   -2.5583   -0.1499   -4.2557 C   0  0  0  0  0  0  0  0  0  0  0  0
   -1.6358   -0.7016   -4.4038 H   0  0  0  0  0  0  0  0  0  0  0  0
   -2.7737    0.5712   -3.0752 C   0  0  0  0  0  0  0  0  0  0  0  0
   -0.5071   -0.3298    0.9692 C   0  0  0  0  0  0  0  0  0  0  0  0
    0.6307   -0.1179    1.3678 O   0  0  0  0  0  0  0  0  0  0  0  0
   -1.5616    0.2623    1.6413 N   0  0  0  0  0  0  0  0  0  0  0  0
   -2.4855   -0.0429    1.3508 H   0  0  0  0  0  0  0  0  0  0  0  0
   -1.4103    0.8603    2.9622 C   0  0  0  0  0  0  0  0  0  0  0  0
   -0.7243    1.7131    2.9208 H   0  0  0  0  0  0  0  0  0  0  0  0
   -2.3779    1.2142    3.3302 H   0  0  0  0  0  0  0  0  0  0  0  0
   -1.0163    0.1252    3.6723 H   0  0  0  0  0  0  0  0  0  0  0  0
  1  2  1  0  0  0  0
  2  3  1  0  0  0  0
  2  4  1  0  0  0  0
  2  5  1  0  0  0  0
  5  6  2  0  0  0  0
  5  7  1  0  0  0  0
  7  8  1  0  0  0  0
  7  9  1  0  0  0  0
  9 10  1  0  0  0  0
  9 11  1  0  0  0  0
  9 29  1  0  0  0  0
 11 12  1  0  0  0  0
 11 13  1  0  0  0  0
 11 14  1  0  0  0  0
 14 15  2  0  0  0  0
 14 28  1  0  0  0  0
 15 16  1  0  0  0  0
 15 17  1  0  0  0  0
 17 18  1  0  0  0  0
 17 19  1  0  0  0  0
 19 20  1  0  0  0  0
 19 28  2  0  0  0  0
 20 21  1  0  0  0  0
 20 22  2  0  0  0  0
 22 23  1  0  0  0  0
 22 24  1  0  0  0  0
 24 25  1  0  0  0  0
 24 26  2  0  0  0  0
 26 27  1  0  0  0  0
 26 28  1  0  0  0  0
 29 30  2  0  0  0  0
 29 31  1  0  0  0  0
 31 32  1  0  0  0  0
 31 33  1  0  0  0  0
 33 34  1  0  0  0  0
 33 35  1  0  0  0  0
 33 36  1  0  0  0  0
M  END
$$$$

  -OEChem-03222214083D

 36 37  0     1  0  0  0  0  0999 V2000
   -3.5920   -4.4990    0.6350 H   0  0  0  0  0  0  0  0  0  0  0  0
   -3.4989   -3.6717   -0.0744 C   0  0  0  0  0  0  0  0  0  0  0  0
   -4.3474   -2.9963    0.0589 H   0  0  0  0  0  0  0  0  0  0  0  0
   -3.5184   -4.0752   -1.0898 H   0  0  0  0  0  0  0  0  0  0  0  0
   -2.1988   -2.9269    0.1622 C   0  0  0  0  0  0  0  0  0  0  0  0
   -1.4373   -3.2906    1.0401 O   0  0  0  0  0  0  0  0  0  0  0  0
   -1.8879   -1.8286   -0.6102 N   0  0  0  0  0  0  0  0  0  0  0  0
   -2.5754   -1.5308   -1.3009 H   0  0  0  0  0  0  0  0  0  0  0  0
   -0.6752   -1.0024   -0.4575 C   0  0  1  0  0  0  0  0  0  0  0  0
    0.1928   -1.6643   -0.5514 H   0  0  0  0  0  0  0  0  0  0  0  0
   -0.6015    0.0115   -1.6155 C   0  0  0  0  0  0  0  0  0  0  0  0
    0.1546    0.7693   -1.3837 H   0  0  0  0  0  0  0  0  0  0  0  0
   -0.2694   -0.5020   -2.5225 H   0  0  0  0  0  0  0  0  0  0  0  0
   -1.9233    0.6913   -1.8876 C   0  0  0  0  0  0  0  0  0  0  0  0
   -2.5075    1.6837   -1.1377 C   0  0  0  0  0  0  0  0  0  0  0  0
   -2.0564    2.1728   -0.2759 H   0  0  0  0  0  0  0  0  0  0  0  0
   -3.7653    1.9372   -1.6788 N   0  0  0  0  0  0  0  0  0  0  0  0
   -4.4128    2.6523   -1.3515 H   0  0  0  0  0  0  0  0  0  0  0  0
   -4.0017    1.1079   -2.7629 C   0  0  0  0  0  0  0  0  0  0  0  0
   -5.0999    0.9791   -3.6135 C   0  0  0  0  0  0  0  0  0  0  0  0
   -5.9727    1.6092   -3.4804 H   0  0  0  0  0  0  0  0  0  0  0  0
   -5.0596    0.0269   -4.6417 C   0  0  0  0  0  0  0  0  0  0  0  0
   -5.9063   -0.0820   -5.3134 H   0  0  0  0  0  0  0  0  0  0  0  0
   -3.9257   -0.7830   -4.8070 C   0  0  0  0  0  0  0  0  0  0  0  0
   -3.8969   -1.5165   -5.6073 H   0  0  0  0  0  0  0  0  0  0  0  0
   -2.8263   -0.6428   -3.9484 C   0  0  0  0  0  0  0  0  0  0  0  0
   -1.9453   -1.2625   -4.0822 H   0  0  0  0  0  0  0  0  0  0  0  0
   -2.8742    0.3112   -2.9257 C   0  0  0  0  0  0  0  0  0  0  0  0
   -0.5290   -0.3318    0.9263 C   0  0  0  0  0  0  0  0  0  0  0  0
    0.5879   -0.1295    1.3846 O   0  0  0  0  0  0  0  0  0  0  0  0
   -1.6117    0.2892    1.5238 N   0  0  0  0  0  0  0  0  0  0  0  0
   -2.5243    0.0412    1.1533 H   0  0  0  0  0  0  0  0  0  0  0  0
   -1.5320    0.9339    2.8285 C   0  0  0  0  0  0  0  0  0  0  0  0
   -0.8237    1.7686    2.8016 H   0  0  0  0  0  0  0  0  0  0  0  0
   -2.5123    1.3230    3.1191 H   0  0  0  0  0  0  0  0  0  0  0  0
   -1.2032    0.2177    3.5891 H   0  0  0  0  0  0  0  0  0  0  0  0
  1  2  1  0  0  0  0
  2  3  1  0  0  0  0
  2  4  1  0  0  0  0
  2  5  1  0  0  0  0
  5  6  2  0  0  0  0
  5  7  1  0  0  0  0
  7  8  1  0  0  0  0
  7  9  1  0  0  0  0
  9 10  1  0  0  0  0
  9 11  1  0  0  0  0
  9 29  1  0  0  0  0
 11 12  1  0  0  0  0
 11 13  1  0  0  0  0
 11 14  1  0  0  0  0
 14 15  2  0  0  0  0
 14 28  1  0  0  0  0
 15 16  1  0  0  0  0
 15 17  1  0  0  0  0
 17 18  1  0  0  0  0
 17 19  1  0  0  0  0
 19 20  1  0  0  0  0
 19 28  2  0  0  0  0
 20 21  1  0  0  0  0
 20 22  2  0  0  0  0
 22 23  1  0  0  0  0
 22 24  1  0  0  0  0
 24 25  1  0  0  0  0
 24 26  2  0  0  0  0
 26 27  1  0  0  0  0
 26 28  1  0  0  0  0
 29 30  2  0  0  0  0
 29 31  1  0  0  0  0
 31 32  1  0  0  0  0
 31 33  1  0  0  0  0
 33 34  1  0  0  0  0
 33 35  1  0  0  0  0
 33 36  1  0  0  0  0
M  END
$$$$

  -OEChem-03222214083D

 36 37  0     1  0  0  0  0  0999 V2000
   -3.5767   -4.5007    0.7674 H   0  0  0  0  0  0  0  0  0  0  0  0
   -3.4856   -3.6961    0.0322 C   0  0  0  0  0  0  0  0  0  0  0  0
   -4.3129   -2.9962    0.1712 H   0  0  0  0  0  0  0  0  0  0  0  0
   -3.5465   -4.1267   -0.9701 H   0  0  0  0  0  0  0  0  0  0  0  0
   -2.1614   -2.9773    0.2078 C   0  0  0  0  0  0  0  0  0  0  0  0
   -1.3776   -3.3389    1.0669 O   0  0  0  0  0  0  0  0  0  0  0  0
   -1.8535   -1.9067   -0.6033 N   0  0  0  0  0  0  0  0  0  0  0  0
   -2.5737   -1.5931   -1.2523 H   0  0  0  0  0  0  0  0  0  0  0  0
   -0.6517   -1.0623   -0.4666 C   0  0  1  0  0  0  0  0  0  0  0  0
    0.2311   -1.7066   -0.5416 H   0  0  0  0  0  0  0  0  0  0  0  0
   -0.5956   -0.0461   -1.6244 C   0  0  0  0  0  0  0  0  0  0  0  0
    0.1555    0.7184   -1.3979 H   0  0  0  0  0  0  0  0  0  0  0  0
   -0.2715   -0.5528   -2.5384 H   0  0  0  0  0  0  0  0  0  0  0  0
   -1.9309    0.6128   -1.8767 C   0  0  0  0  0  0  0  0  0  0  0  0
   -2.3826    1.7713   -1.2932 C   0  0  0  0  0  0  0  0  0  0  0  0
   -1.8202    2.3850   -0.5907 H   0  0  0  0  0  0  0  0  0  0  0  0
   -3.6804    1.9915   -1.7489 N   0  0  0  0  0  0  0  0  0  0  0  0
   -4.2593    2.7941   -1.5065 H   0  0  0  0  0  0  0  0  0  0  0  0
   -4.0644    0.9878   -2.6239 C   0  0  0  0  0  0  0  0  0  0  0  0
   -5.2485    0.7671   -3.3272 C   0  0  0  0  0  0  0  0  0  0  0  0
   -6.0778    1.4600   -3.2341 H   0  0  0  0  0  0  0  0  0  0  0  0
   -5.3514   -0.3589   -4.1567 C   0  0  0  0  0  0  0  0  0  0  0  0
   -6.2669   -0.5410   -4.7124 H   0  0  0  0  0  0  0  0  0  0  0  0
   -4.2713   -1.2467   -4.2764 C   0  0  0  0  0  0  0  0  0  0  0  0
   -4.3530   -2.1130   -4.9265 H   0  0  0  0  0  0  0  0  0  0  0  0
   -3.0846   -1.0141   -3.5676 C   0  0  0  0  0  0  0  0  0  0  0  0
   -2.2437   -1.6939   -3.6678 H   0  0  0  0  0  0  0  0  0  0  0  0
   -2.9942    0.1087   -2.7371 C   0  0  0  0  0  0  0  0  0  0  0  0
   -0.5450   -0.3443    0.8967 C   0  0  0  0  0  0  0  0  0  0  0  0
    0.5559   -0.1191    1.3820 O   0  0  0  0  0  0  0  0  0  0  0  0
   -1.6517    0.2801    1.4450 N   0  0  0  0  0  0  0  0  0  0  0  0
   -2.5483    0.0692    1.0168 H   0  0  0  0  0  0  0  0  0  0  0  0
   -1.6190    0.9949    2.7140 C   0  0  0  0  0  0  0  0  0  0  0  0
   -0.9136    1.8311    2.6646 H   0  0  0  0  0  0  0  0  0  0  0  0
   -2.6105    1.3932    2.9499 H   0  0  0  0  0  0  0  0  0  0  0  0
   -1.3137    0.3227    3.5230 H   0  0  0  0  0  0  0  0  0  0  0  0
  1  2  1  0  0  0  0
  2  3  1  0  0  0  0
  2  4  1  0  0  0  0
  2  5  1  0  0  0  0
  5  6  2  0  0  0  0
  5  7  1  0  0  0  0
  7  8  1  0  0  0  0
  7  9  1  0  0  0  0
  9 10  1  0  0  0  0
  9 11  1  0  0  0  0
  9 29  1  0  0  0  0
 11 12  1  0  0  0  0
 11 13  1  0  0  0  0
 11 14  1  0  0  0  0
 14 15  2  0  0  0  0
 14 28  1  0  0  0  0
 15 16  1  0  0  0  0
 15 17  1  0  0  0  0
 17 18  1  0  0  0  0
 17 19  1  0  0  0  0
 19 20  1  0  0  0  0
 19 28  2  0  0  0  0
 20 21  1  0  0  0  0
 20 22  2  0  0  0  0
 22 23  1  0  0  0  0
 22 24  1  0  0  0  0
 24 25  1  0  0  0  0
 24 26  2  0  0  0  0
 26 27  1  0  0  0  0
 26 28  1  0  0  0  0
 29 30  2  0  0  0  0
 29 31  1  0  0  0  0
 31 32  1  0  0  0  0
 31 33  1  0  0  0  0
 33 34  1  0  0  0  0
 33 35  1  0  0  0  0
 33 36  1  0  0  0  0
M  END
$$$$

  -OEChem-03222214083D

 36 37  0     1  0  0  0  0  0999 V2000
   -3.4767   -4.5268    1.0231 H   0  0  0  0  0  0  0  0  0  0  0  0
   -3.4189   -3.7572    0.2483 C   0  0  0  0  0  0  0  0  0  0  0  0
   -4.2336   -3.0449    0.3985 H   0  0  0  0  0  0  0  0  0  0  0  0
   -3.5346   -4.2318   -0.7288 H   0  0  0  0  0  0  0  0  0  0  0  0
   -2.0831   -3.0418    0.3210 C   0  0  0  0  0  0  0  0  0  0  0  0
   -1.2447   -3.3895    1.1328 O   0  0  0  0  0  0  0  0  0  0  0  0
   -1.8279   -1.9903   -0.5325 N   0  0  0  0  0  0  0  0  0  0  0  0
   -2.6009   -1.6752   -1.1155 H   0  0  0  0  0  0  0  0  0  0  0  0
   -0.6468   -1.1123   -0.4507 C   0  0  1  0  0  0  0  0  0  0  0  0
    0.2528   -1.7314   -0.5350 H   0  0  0  0  0  0  0  0  0  0  0  0
   -0.6437   -0.0970   -1.6127 C   0  0  0  0  0  0  0  0  0  0  0  0
    0.1059    0.6776   -1.4174 H   0  0  0  0  0  0  0  0  0  0  0  0
   -0.3448   -0.6080   -2.5331 H   0  0  0  0  0  0  0  0  0  0  0  0
   -1.9968    0.5398   -1.8344 C   0  0  0  0  0  0  0  0  0  0  0  0
   -2.3338    1.8214   -1.4729 C   0  0  0  0  0  0  0  0  0  0  0  0
   -1.6785    2.5260   -0.9629 H   0  0  0  0  0  0  0  0  0  0  0  0
   -3.6583    2.0305   -1.8491 N   0  0  0  0  0  0  0  0  0  0  0  0
   -4.1745    2.8992   -1.7187 H   0  0  0  0  0  0  0  0  0  0  0  0
   -4.1595    0.9146   -2.4992 C   0  0  0  0  0  0  0  0  0  0  0  0
   -5.4040    0.6571   -3.0736 C   0  0  0  0  0  0  0  0  0  0  0  0
   -6.1891    1.4046   -3.0367 H   0  0  0  0  0  0  0  0  0  0  0  0
   -5.6224   -0.5741   -3.7070 C   0  0  0  0  0  0  0  0  0  0  0  0
   -6.5860   -0.7866   -4.1611 H   0  0  0  0  0  0  0  0  0  0  0  0
   -4.5930   -1.5253   -3.7708 C   0  0  0  0  0  0  0  0  0  0  0  0
   -4.7611   -2.4701   -4.2798 H   0  0  0  0  0  0  0  0  0  0  0  0
   -3.3453   -1.2546   -3.1921 C   0  0  0  0  0  0  0  0  0  0  0  0
   -2.5416   -1.9819   -3.2625 H   0  0  0  0  0  0  0  0  0  0  0  0
   -3.1435   -0.0337   -2.5358 C   0  0  0  0  0  0  0  0  0  0  0  0
   -0.5359   -0.3542    0.8902 C   0  0  0  0  0  0  0  0  0  0  0  0
    0.5646   -0.1011    1.3624 O   0  0  0  0  0  0  0  0  0  0  0  0
   -1.6525    0.2531    1.4378 N   0  0  0  0  0  0  0  0  0  0  0  0
   -2.5427    0.0680    0.9849 H   0  0  0  0  0  0  0  0  0  0  0  0
   -1.6248    1.0288    2.6704 C   0  0  0  0  0  0  0  0  0  0  0  0
   -0.9123    1.8563    2.5887 H   0  0  0  0  0  0  0  0  0  0  0  0
   -2.6153    1.4456    2.8764 H   0  0  0  0  0  0  0  0  0  0  0  0
   -1.3328    0.3938    3.5134 H   0  0  0  0  0  0  0  0  0  0  0  0
  1  2  1  0  0  0  0
  2  3  1  0  0  0  0
  2  4  1  0  0  0  0
  2  5  1  0  0  0  0
  5  6  2  0  0  0  0
  5  7  1  0  0  0  0
  7  8  1  0  0  0  0
  7  9  1  0  0  0  0
  9 10  1  0  0  0  0
  9 11  1  0  0  0  0
  9 29  1  0  0  0  0
 11 12  1  0  0  0  0
 11 13  1  0  0  0  0
 11 14  1  0  0  0  0
 14 15  2  0  0  0  0
 14 28  1  0  0  0  0
 15 16  1  0  0  0  0
 15 17  1  0  0  0  0
 17 18  1  0  0  0  0
 17 19  1  0  0  0  0
 19 20  1  0  0  0  0
 19 28  2  0  0  0  0
 20 21  1  0  0  0  0
 20 22  2  0  0  0  0
 22 23  1  0  0  0  0
 22 24  1  0  0  0  0
 24 25  1  0  0  0  0
 24 26  2  0  0  0  0
 26 27  1  0  0  0  0
 26 28  1  0  0  0  0
 29 30  2  0  0  0  0
 29 31  1  0  0  0  0
 31 32  1  0  0  0  0
 31 33  1  0  0  0  0
 33 34  1  0  0  0  0
 33 35  1  0  0  0  0
 33 36  1  0  0  0  0
M  END
$$$$

  -OEChem-03222214083D

 36 37  0     1  0  0  0  0  0999 V2000
   -3.2945   -4.5942    1.2910 H   0  0  0  0  0  0  0  0  0  0  0  0
   -3.3099   -3.8381    0.5009 C   0  0  0  0  0  0  0  0  0  0  0  0
   -4.1187   -3.1324    0.7053 H   0  0  0  0  0  0  0  0  0  0  0  0
   -3.4987   -4.3315   -0.4555 H   0  0  0  0  0  0  0  0  0  0  0  0
   -1.9820   -3.1064    0.4516 C   0  0  0  0  0  0  0  0  0  0  0  0
   -1.0691   -3.4443    1.1831 O   0  0  0  0  0  0  0  0  0  0  0  0
   -1.8160   -2.0578   -0.4277 N   0  0  0  0  0  0  0  0  0  0  0  0
   -2.6514   -1.7387   -0.9130 H   0  0  0  0  0  0  0  0  0  0  0  0
   -0.6620   -1.1444   -0.4201 C   0  0  1  0  0  0  0  0  0  0  0  0
    0.2486   -1.7408   -0.5453 H   0  0  0  0  0  0  0  0  0  0  0  0
   -0.7282   -0.1243   -1.5777 C   0  0  0  0  0  0  0  0  0  0  0  0
    0.0258    0.6551   -1.4213 H   0  0  0  0  0  0  0  0  0  0  0  0
   -0.4668   -0.6401   -2.5070 H   0  0  0  0  0  0  0  0  0  0  0  0
   -2.0936    0.5045   -1.7620 C   0  0  0  0  0  0  0  0  0  0  0  0
   -2.3318    1.8543   -1.6596 C   0  0  0  0  0  0  0  0  0  0  0  0
   -1.5997    2.6016   -1.3576 H   0  0  0  0  0  0  0  0  0  0  0  0
   -3.6694    2.0775   -1.9716 N   0  0  0  0  0  0  0  0  0  0  0  0
   -4.1268    2.9879   -1.9776 H   0  0  0  0  0  0  0  0  0  0  0  0
   -4.2693    0.9010   -2.3837 C   0  0  0  0  0  0  0  0  0  0  0  0
   -5.5583    0.6440   -2.8494 C   0  0  0  0  0  0  0  0  0  0  0  0
   -6.2940    1.4398   -2.8902 H   0  0  0  0  0  0  0  0  0  0  0  0
   -5.8833   -0.6485   -3.2811 C   0  0  0  0  0  0  0  0  0  0  0  0
   -6.8828   -0.8624   -3.6490 H   0  0  0  0  0  0  0  0  0  0  0  0
   -4.9098   -1.6574   -3.2671 C   0  0  0  0  0  0  0  0  0  0  0  0
   -5.1558   -2.6499   -3.6342 H   0  0  0  0  0  0  0  0  0  0  0  0
   -3.6169   -1.3842   -2.7999 C   0  0  0  0  0  0  0  0  0  0  0  0
   -2.8585   -2.1603   -2.8353 H   0  0  0  0  0  0  0  0  0  0  0  0
   -3.3096   -0.1042   -2.3146 C   0  0  0  0  0  0  0  0  0  0  0  0
   -0.5040   -0.3720    0.9081 C   0  0  0  0  0  0  0  0  0  0  0  0
    0.6118   -0.0827    1.3202 O   0  0  0  0  0  0  0  0  0  0  0  0
   -1.6090    0.2041    1.5107 N   0  0  0  0  0  0  0  0  0  0  0  0
   -2.5102    0.0393    1.0724 H   0  0  0  0  0  0  0  0  0  0  0  0
   -1.5328    1.0535    2.6917 C   0  0  0  0  0  0  0  0  0  0  0  0
   -0.9259    1.9419    2.4871 H   0  0  0  0  0  0  0  0  0  0  0  0
   -2.5347    1.3788    2.9876 H   0  0  0  0  0  0  0  0  0  0  0  0
   -1.0860    0.5055    3.5281 H   0  0  0  0  0  0  0  0  0  0  0  0
  1  2  1  0  0  0  0
  2  3  1  0  0  0  0
  2  4  1  0  0  0  0
  2  5  1  0  0  0  0
  5  6  2  0  0  0  0
  5  7  1  0  0  0  0
  7  8  1  0  0  0  0
  7  9  1  0  0  0  0
  9 10  1  0  0  0  0
  9 11  1  0  0  0  0
  9 29  1  0  0  0  0
 11 12  1  0  0  0  0
 11 13  1  0  0  0  0
 11 14  1  0  0  0  0
 14 15  2  0  0  0  0
 14 28  1  0  0  0  0
 15 16  1  0  0  0  0
 15 17  1  0  0  0  0
 17 18  1  0  0  0  0
 17 19  1  0  0  0  0
 19 20  1  0  0  0  0
 19 28  2  0  0  0  0
 20 21  1  0  0  0  0
 20 22  2  0  0  0  0
 22 23  1  0  0  0  0
 22 24  1  0  0  0  0
 24 25  1  0  0  0  0
 24 26  2  0  0  0  0
 26 27  1  0  0  0  0
 26 28  1  0  0  0  0
 29 30  2  0  0  0  0
 29 31  1  0  0  0  0
 31 32  1  0  0  0  0
 31 33  1  0  0  0  0
 33 34  1  0  0  0  0
 33 35  1  0  0  0  0
 33 36  1  0  0  0  0
M  END
$$$$

  -OEChem-03222214083D

 36 37  0     1  0  0  0  0  0999 V2000
   -3.0599   -4.6311    1.5400 H   0  0  0  0  0  0  0  0  0  0  0  0
   -3.1556   -3.8951    0.7367 C   0  0  0  0  0  0  0  0  0  0  0  0
   -3.9551   -3.1963    0.9943 H   0  0  0  0  0  0  0  0  0  0  0  0
   -3.4181   -4.4145   -0.1879 H   0  0  0  0  0  0  0  0  0  0  0  0
   -1.8484   -3.1471    0.5561 C   0  0  0  0  0  0  0  0  0  0  0  0
   -0.8661   -3.4692    1.1996 O   0  0  0  0  0  0  0  0  0  0  0  0
   -1.7808   -2.1031   -0.3425 N   0  0  0  0  0  0  0  0  0  0  0  0
   -2.6682   -1.7831   -0.7204 H   0  0  0  0  0  0  0  0  0  0  0  0
   -0.6592   -1.1583   -0.4155 C   0  0  1  0  0  0  0  0  0  0  0  0
    0.2572   -1.7329   -0.5901 H   0  0  0  0  0  0  0  0  0  0  0  0
   -0.8017   -0.1355   -1.5656 C   0  0  0  0  0  0  0  0  0  0  0  0
   -0.0412    0.6450   -1.4531 H   0  0  0  0  0  0  0  0  0  0  0  0
   -0.5816   -0.6594   -2.5009 H   0  0  0  0  0  0  0  0  0  0  0  0
   -2.1739    0.4969   -1.7152 C   0  0  0  0  0  0  0  0  0  0  0  0
   -2.3197    1.8514   -1.9034 C   0  0  0  0  0  0  0  0  0  0  0  0
   -1.5153    2.5826   -1.8447 H   0  0  0  0  0  0  0  0  0  0  0  0
   -3.6660    2.1216   -2.1147 N   0  0  0  0  0  0  0  0  0  0  0  0
   -4.0633    3.0470   -2.2685 H   0  0  0  0  0  0  0  0  0  0  0  0
   -4.3723    0.9414   -2.2329 C   0  0  0  0  0  0  0  0  0  0  0  0
   -5.7157    0.7276   -2.5378 C   0  0  0  0  0  0  0  0  0  0  0  0
   -6.3940    1.5672   -2.6449 H   0  0  0  0  0  0  0  0  0  0  0  0
   -6.1696   -0.5814   -2.7326 C   0  0  0  0  0  0  0  0  0  0  0  0
   -7.2126   -0.7648   -2.9751 H   0  0  0  0  0  0  0  0  0  0  0  0
   -5.2660   -1.6489   -2.6604 C   0  0  0  0  0  0  0  0  0  0  0  0
   -5.6100   -2.6588   -2.8642 H   0  0  0  0  0  0  0  0  0  0  0  0
   -3.9184   -1.4147   -2.3538 C   0  0  0  0  0  0  0  0  0  0  0  0
   -3.2295   -2.2519   -2.3785 H   0  0  0  0  0  0  0  0  0  0  0  0
   -3.4736   -0.1110   -2.0687 C   0  0  0  0  0  0  0  0  0  0  0  0
   -0.4433   -0.3748    0.8982 C   0  0  0  0  0  0  0  0  0  0  0  0
    0.6873   -0.0617    1.2477 O   0  0  0  0  0  0  0  0  0  0  0  0
   -1.5265    0.1699    1.5660 N   0  0  0  0  0  0  0  0  0  0  0  0
   -2.4418    0.0254    1.1512 H   0  0  0  0  0  0  0  0  0  0  0  0
   -1.3997    1.0509    2.7190 C   0  0  0  0  0  0  0  0  0  0  0  0
   -0.8626    1.9649    2.4453 H   0  0  0  0  0  0  0  0  0  0  0  0
   -2.3898    1.3285    3.0927 H   0  0  0  0  0  0  0  0  0  0  0  0
   -0.8550    0.5491    3.5258 H   0  0  0  0  0  0  0  0  0  0  0  0
  1  2  1  0  0  0  0
  2  3  1  0  0  0  0
  2  4  1  0  0  0  0
  2  5  1  0  0  0  0
  5  6  2  0  0  0  0
  5  7  1  0  0  0  0
  7  8  1  0  0  0  0
  7  9  1  0  0  0  0
  9 10  1  0  0  0  0
  9 11  1  0  0  0  0
  9 29  1  0  0  0  0
 11 12  1  0  0  0  0
 11 13  1  0  0  0  0
 11 14  1  0  0  0  0
 14 15  2  0  0  0  0
 14 28  1  0  0  0  0
 15 16  1  0  0  0  0
 15 17  1  0  0  0  0
 17 18  1  0  0  0  0
 17 19  1  0  0  0  0
 19 20  1  0  0  0  0
 19 28  2  0  0  0  0
 20 21  1  0  0  0  0
 20 22  2  0  0  0  0
 22 23  1  0  0  0  0
 22 24  1  0  0  0  0
 24 25  1  0  0  0  0
 24 26  2  0  0  0  0
 26 27  1  0  0  0  0
 26 28  1  0  0  0  0
 29 30  2  0  0  0  0
 29 31  1  0  0  0  0
 31 32  1  0  0  0  0
 31 33  1  0  0  0  0
 33 34  1  0  0  0  0
 33 35  1  0  0  0  0
 33 36  1  0  0  0  0
M  END
$$$$

  -OEChem-03222214083D

 36 37  0     1  0  0  0  0  0999 V2000
   -2.4010   -5.1692    1.0782 H   0  0  0  0  0  0  0  0  0  0  0  0
   -2.6462   -4.3345    0.4153 C   0  0  0  0  0  0  0  0  0  0  0  0
   -3.6330   -3.9508    0.6842 H   0  0  0  0  0  0  0  0  0  0  0  0
   -2.6709   -4.7013   -0.6136 H   0  0  0  0  0  0  0  0  0  0  0  0
   -1.6070   -3.2376    0.5547 C   0  0  0  0  0  0  0  0  0  0  0  0
   -0.7776   -3.3030    1.4431 O   0  0  0  0  0  0  0  0  0  0  0  0
   -1.5885   -2.1892   -0.3444 N   0  0  0  0  0  0  0  0  0  0  0  0
   -2.2201   -2.2426   -1.1371 H   0  0  0  0  0  0  0  0  0  0  0  0
   -0.5717   -1.1363   -0.3716 C   0  0  1  0  0  0  0  0  0  0  0  0
    0.4085   -1.6051   -0.5107 H   0  0  0  0  0  0  0  0  0  0  0  0
   -0.8025   -0.1344   -1.5188 C   0  0  0  0  0  0  0  0  0  0  0  0
   -0.0954    0.6932   -1.3871 H   0  0  0  0  0  0  0  0  0  0  0  0
   -0.5017   -0.6540   -2.4339 H   0  0  0  0  0  0  0  0  0  0  0  0
   -2.1924    0.4375   -1.8089 C   0  0  0  0  0  0  0  0  0  0  0  0
   -2.1970    1.7070   -2.3452 C   0  0  0  0  0  0  0  0  0  0  0  0
   -1.3102    2.3018   -2.5563 H   0  0  0  0  0  0  0  0  0  0  0  0
   -3.5044    2.1019   -2.5597 N   0  0  0  0  0  0  0  0  0  0  0  0
   -3.7973    3.0002   -2.9397 H   0  0  0  0  0  0  0  0  0  0  0  0
   -4.3628    1.0972   -2.1763 C   0  0  0  0  0  0  0  0  0  0  0  0
   -5.7550    1.1076   -2.2364 C   0  0  0  0  0  0  0  0  0  0  0  0
   -6.2822    1.9771   -2.6133 H   0  0  0  0  0  0  0  0  0  0  0  0
   -6.4606   -0.0162   -1.8063 C   0  0  0  0  0  0  0  0  0  0  0  0
   -7.5462   -0.0279   -1.8448 H   0  0  0  0  0  0  0  0  0  0  0  0
   -5.7591   -1.1260   -1.3290 C   0  0  0  0  0  0  0  0  0  0  0  0
   -6.3076   -2.0026   -0.9969 H   0  0  0  0  0  0  0  0  0  0  0  0
   -4.3575   -1.1156   -1.2773 C   0  0  0  0  0  0  0  0  0  0  0  0
   -3.9004   -2.0135   -0.9013 H   0  0  0  0  0  0  0  0  0  0  0  0
   -3.6185    0.0105   -1.6991 C   0  0  0  0  0  0  0  0  0  0  0  0
   -0.4958   -0.3209    0.9389 C   0  0  0  0  0  0  0  0  0  0  0  0
    0.5835    0.1092    1.3268 O   0  0  0  0  0  0  0  0  0  0  0  0
   -1.6568    0.1177    1.5501 N   0  0  0  0  0  0  0  0  0  0  0  0
   -2.5341   -0.1490    1.1128 H   0  0  0  0  0  0  0  0  0  0  0  0
   -1.6743    1.0038    2.7054 C   0  0  0  0  0  0  0  0  0  0  0  0
   -1.1728    1.9488    2.4722 H   0  0  0  0  0  0  0  0  0  0  0  0
   -2.7057    1.2221    2.9978 H   0  0  0  0  0  0  0  0  0  0  0  0
   -1.1657    0.5339    3.5538 H   0  0  0  0  0  0  0  0  0  0  0  0
  1  2  1  0  0  0  0
  2  3  1  0  0  0  0
  2  4  1  0  0  0  0
  2  5  1  0  0  0  0
  5  6  2  0  0  0  0
  5  7  1  0  0  0  0
  7  8  1  0  0  0  0
  7  9  1  0  0  0  0
  9 10  1  0  0  0  0
  9 11  1  0  0  0  0
  9 29  1  0  0  0  0
 11 12  1  0  0  0  0
 11 13  1  0  0  0  0
 11 14  1  0  0  0  0
 14 15  2  0  0  0  0
 14 28  1  0  0  0  0
 15 16  1  0  0  0  0
 15 17  1  0  0  0  0
 17 18  1  0  0  0  0
 17 19  1  0  0  0  0
 19 20  1  0  0  0  0
 19 28  2  0  0  0  0
 20 21  1  0  0  0  0
 20 22  2  0  0  0  0
 22 23  1  0  0  0  0
 22 24  1  0  0  0  0
 24 25  1  0  0  0  0
 24 26  2  0  0  0  0
 26 27  1  0  0  0  0
 26 28  1  0  0  0  0
 29 30  2  0  0  0  0
 29 31  1  0  0  0  0
 31 32  1  0  0  0  0
 31 33  1  0  0  0  0
 33 34  1  0  0  0  0
 33 35  1  0  0  0  0
 33 36  1  0  0  0  0
M  END
$$$$

  -OEChem-03222214083D

 36 37  0     1  0  0  0  0  0999 V2000
   -2.5329   -5.1761    0.8820 H   0  0  0  0  0  0  0  0  0  0  0  0
   -2.7268   -4.3202    0.2291 C   0  0  0  0  0  0  0  0  0  0  0  0
   -3.6898   -3.8820    0.5012 H   0  0  0  0  0  0  0  0  0  0  0  0
   -2.7719   -4.6717   -0.8045 H   0  0  0  0  0  0  0  0  0  0  0  0
   -1.6233   -3.2901    0.3809 C   0  0  0  0  0  0  0  0  0  0  0  0
   -0.7730   -3.4363    1.2396 O   0  0  0  0  0  0  0  0  0  0  0  0
   -1.5813   -2.1972   -0.4613 N   0  0  0  0  0  0  0  0  0  0  0  0
   -2.3025   -2.1220   -1.1751 H   0  0  0  0  0  0  0  0  0  0  0  0
   -0.5630   -1.1408   -0.4024 C   0  0  1  0  0  0  0  0  0  0  0  0
    0.4207   -1.6023   -0.5419 H   0  0  0  0  0  0  0  0  0  0  0  0
   -0.7886   -0.1256   -1.5340 C   0  0  0  0  0  0  0  0  0  0  0  0
   -0.1173    0.7238   -1.3635 H   0  0  0  0  0  0  0  0  0  0  0  0
   -0.4460   -0.6136   -2.4523 H   0  0  0  0  0  0  0  0  0  0  0  0
   -2.1852    0.4147   -1.8394 C   0  0  0  0  0  0  0  0  0  0  0  0
   -2.2283    1.5325   -2.6430 C   0  0  0  0  0  0  0  0  0  0  0  0
   -1.3633    2.0080   -3.1018 H   0  0  0  0  0  0  0  0  0  0  0  0
   -3.5459    1.9283   -2.7911 N   0  0  0  0  0  0  0  0  0  0  0  0
   -3.8671    2.7232   -3.3412 H   0  0  0  0  0  0  0  0  0  0  0  0
   -4.3628    1.1260   -2.0259 C   0  0  0  0  0  0  0  0  0  0  0  0
   -5.7433    1.2236   -1.8620 C   0  0  0  0  0  0  0  0  0  0  0  0
   -6.3078    1.9767   -2.4009 H   0  0  0  0  0  0  0  0  0  0  0  0
   -6.3861    0.3483   -0.9851 C   0  0  0  0  0  0  0  0  0  0  0  0
   -7.4610    0.4085   -0.8411 H   0  0  0  0  0  0  0  0  0  0  0  0
   -5.6334   -0.5914   -0.2759 C   0  0  0  0  0  0  0  0  0  0  0  0
   -6.1293   -1.2552    0.4266 H   0  0  0  0  0  0  0  0  0  0  0  0
   -4.2455   -0.6724   -0.4540 C   0  0  0  0  0  0  0  0  0  0  0  0
   -3.7320   -1.3928    0.1624 H   0  0  0  0  0  0  0  0  0  0  0  0
   -3.5782    0.1729   -1.3661 C   0  0  0  0  0  0  0  0  0  0  0  0
   -0.5017   -0.3746    0.9385 C   0  0  0  0  0  0  0  0  0  0  0  0
    0.5795    0.0014    1.3731 O   0  0  0  0  0  0  0  0  0  0  0  0
   -1.6620    0.0560    1.5572 N   0  0  0  0  0  0  0  0  0  0  0  0
   -2.5244   -0.0698    1.0362 H   0  0  0  0  0  0  0  0  0  0  0  0
   -1.6685    0.9262    2.7249 C   0  0  0  0  0  0  0  0  0  0  0  0
   -1.1910    1.8837    2.4926 H   0  0  0  0  0  0  0  0  0  0  0  0
   -2.6967    1.1187    3.0454 H   0  0  0  0  0  0  0  0  0  0  0  0
   -1.1308    0.4550    3.5545 H   0  0  0  0  0  0  0  0  0  0  0  0
  1  2  1  0  0  0  0
  2  3  1  0  0  0  0
  2  4  1  0  0  0  0
  2  5  1  0  0  0  0
  5  6  2  0  0  0  0
  5  7  1  0  0  0  0
  7  8  1  0  0  0  0
  7  9  1  0  0  0  0
  9 10  1  0  0  0  0
  9 11  1  0  0  0  0
  9 29  1  0  0  0  0
 11 12  1  0  0  0  0
 11 13  1  0  0  0  0
 11 14  1  0  0  0  0
 14 15  2  0  0  0  0
 14 28  1  0  0  0  0
 15 16  1  0  0  0  0
 15 17  1  0  0  0  0
 17 18  1  0  0  0  0
 17 19  1  0  0  0  0
 19 20  1  0  0  0  0
 19 28  2  0  0  0  0
 20 21  1  0  0  0  0
 20 22  2  0  0  0  0
 22 23  1  0  0  0  0
 22 24  1  0  0  0  0
 24 25  1  0  0  0  0
 24 26  2  0  0  0  0
 26 27  1  0  0  0  0
 26 28  1  0  0  0  0
 29 30  2  0  0  0  0
 29 31  1  0  0  0  0
 31 32  1  0  0  0  0
 31 33  1  0  0  0  0
 33 34  1  0  0  0  0
 33 35  1  0  0  0  0
 33 36  1  0  0  0  0
M  END
$$$$

  -OEChem-03222214083D

 36 37  0     1  0  0  0  0  0999 V2000
   -3.0844   -4.8674    0.8706 H   0  0  0  0  0  0  0  0  0  0  0  0
   -3.1304   -4.0264    0.1728 C   0  0  0  0  0  0  0  0  0  0  0  0
   -4.0171   -3.4298    0.4001 H   0  0  0  0  0  0  0  0  0  0  0  0
   -3.2123   -4.4168   -0.8444 H   0  0  0  0  0  0  0  0  0  0  0  0
   -1.8820   -3.1741    0.3002 C   0  0  0  0  0  0  0  0  0  0  0  0
   -0.9872   -3.5109    1.0539 O   0  0  0  0  0  0  0  0  0  0  0  0
   -1.7730   -2.0091   -0.4290 N   0  0  0  0  0  0  0  0  0  0  0  0
   -2.5634   -1.7435   -1.0117 H   0  0  0  0  0  0  0  0  0  0  0  0
   -0.6402   -1.0758   -0.3391 C   0  0  1  0  0  0  0  0  0  0  0  0
    0.2543   -1.6615   -0.5803 H   0  0  0  0  0  0  0  0  0  0  0  0
   -0.7866   -0.0220   -1.4430 C   0  0  0  0  0  0  0  0  0  0  0  0
    0.0891    0.6350   -1.3960 H   0  0  0  0  0  0  0  0  0  0  0  0
   -0.7383   -0.5451   -2.4037 H   0  0  0  0  0  0  0  0  0  0  0  0
   -2.0320    0.8567   -1.4609 C   0  0  0  0  0  0  0  0  0  0  0  0
   -2.1235    1.7942   -2.4641 C   0  0  0  0  0  0  0  0  0  0  0  0
   -1.3487    2.0026   -3.1995 H   0  0  0  0  0  0  0  0  0  0  0  0
   -3.3514    2.4283   -2.3683 N   0  0  0  0  0  0  0  0  0  0  0  0
   -3.6768    3.1815   -2.9718 H   0  0  0  0  0  0  0  0  0  0  0  0
   -4.0917    1.8694   -1.3484 C   0  0  0  0  0  0  0  0  0  0  0  0
   -5.3872    2.1879   -0.9446 C   0  0  0  0  0  0  0  0  0  0  0  0
   -5.9341    2.9861   -1.4345 H   0  0  0  0  0  0  0  0  0  0  0  0
   -5.9741    1.4596    0.0928 C   0  0  0  0  0  0  0  0  0  0  0  0
   -6.9829    1.6932    0.4209 H   0  0  0  0  0  0  0  0  0  0  0  0
   -5.2599    0.4216    0.6989 C   0  0  0  0  0  0  0  0  0  0  0  0
   -5.7193   -0.1518    1.4991 H   0  0  0  0  0  0  0  0  0  0  0  0
   -3.9580    0.1168    0.2797 C   0  0  0  0  0  0  0  0  0  0  0  0
   -3.4654   -0.7034    0.7825 H   0  0  0  0  0  0  0  0  0  0  0  0
   -3.3378    0.8561   -0.7486 C   0  0  0  0  0  0  0  0  0  0  0  0
   -0.3047   -0.4010    1.0146 C   0  0  0  0  0  0  0  0  0  0  0  0
    0.8725   -0.2458    1.3150 O   0  0  0  0  0  0  0  0  0  0  0  0
   -1.2669    0.1554    1.8370 N   0  0  0  0  0  0  0  0  0  0  0  0
   -2.1835    0.2831    1.4224 H   0  0  0  0  0  0  0  0  0  0  0  0
   -0.9402    0.9319    3.0261 C   0  0  0  0  0  0  0  0  0  0  0  0
   -0.3898    1.8382    2.7538 H   0  0  0  0  0  0  0  0  0  0  0  0
   -1.8561    1.2244    3.5479 H   0  0  0  0  0  0  0  0  0  0  0  0
   -0.3273    0.3394    3.7134 H   0  0  0  0  0  0  0  0  0  0  0  0
  1  2  1  0  0  0  0
  2  3  1  0  0  0  0
  2  4  1  0  0  0  0
  2  5  1  0  0  0  0
  5  6  2  0  0  0  0
  5  7  1  0  0  0  0
  7  8  1  0  0  0  0
  7  9  1  0  0  0  0
  9 10  1  0  0  0  0
  9 11  1  0  0  0  0
  9 29  1  0  0  0  0
 11 12  1  0  0  0  0
 11 13  1  0  0  0  0
 11 14  1  0  0  0  0
 14 15  2  0  0  0  0
 14 28  1  0  0  0  0
 15 16  1  0  0  0  0
 15 17  1  0  0  0  0
 17 18  1  0  0  0  0
 17 19  1  0  0  0  0
 19 20  1  0  0  0  0
 19 28  2  0  0  0  0
 20 21  1  0  0  0  0
 20 22  2  0  0  0  0
 22 23  1  0  0  0  0
 22 24  1  0  0  0  0
 24 25  1  0  0  0  0
 24 26  2  0  0  0  0
 26 27  1  0  0  0  0
 26 28  1  0  0  0  0
 29 30  2  0  0  0  0
 29 31  1  0  0  0  0
 31 32  1  0  0  0  0
 31 33  1  0  0  0  0
 33 34  1  0  0  0  0
 33 35  1  0  0  0  0
 33 36  1  0  0  0  0
M  END
$$$$

  -OEChem-03222214083D

 36 37  0     1  0  0  0  0  0999 V2000
   -2.7003   -4.6892    1.3704 H   0  0  0  0  0  0  0  0  0  0  0  0
   -2.8845   -3.9009    0.6350 C   0  0  0  0  0  0  0  0  0  0  0  0
   -3.7529   -3.3192    0.9536 H   0  0  0  0  0  0  0  0  0  0  0  0
   -3.0980   -4.3637   -0.3313 H   0  0  0  0  0  0  0  0  0  0  0  0
   -1.6683   -3.0019    0.5190 C   0  0  0  0  0  0  0  0  0  0  0  0
   -0.6556   -3.2609    1.1433 O   0  0  0  0  0  0  0  0  0  0  0  0
   -1.7212   -1.8807   -0.2809 N   0  0  0  0  0  0  0  0  0  0  0  0
   -2.6057   -1.6707   -0.7373 H   0  0  0  0  0  0  0  0  0  0  0  0
   -0.6323   -0.9003   -0.4101 C   0  0  1  0  0  0  0  0  0  0  0  0
    0.2382   -1.4895   -0.7213 H   0  0  0  0  0  0  0  0  0  0  0  0
   -0.9399    0.0293   -1.5890 C   0  0  0  0  0  0  0  0  0  0  0  0
   -0.1024    0.7283   -1.6902 H   0  0  0  0  0  0  0  0  0  0  0  0
   -0.9514   -0.5822   -2.4975 H   0  0  0  0  0  0  0  0  0  0  0  0
   -2.2246    0.8478   -1.5561 C   0  0  0  0  0  0  0  0  0  0  0  0
   -2.6267    1.4294   -2.7376 C   0  0  0  0  0  0  0  0  0  0  0  0
   -2.0407    1.4504   -3.6547 H   0  0  0  0  0  0  0  0  0  0  0  0
   -3.8671    2.0166   -2.5495 N   0  0  0  0  0  0  0  0  0  0  0  0
   -4.3823    2.5489   -3.2486 H   0  0  0  0  0  0  0  0  0  0  0  0
   -4.3434    1.7100   -1.2938 C   0  0  0  0  0  0  0  0  0  0  0  0
   -5.5772    2.0344   -0.7323 C   0  0  0  0  0  0  0  0  0  0  0  0
   -6.2792    2.6598   -1.2730 H   0  0  0  0  0  0  0  0  0  0  0  0
   -5.9045    1.5267    0.5269 C   0  0  0  0  0  0  0  0  0  0  0  0
   -6.8610    1.7692    0.9814 H   0  0  0  0  0  0  0  0  0  0  0  0
   -5.0074    0.6779    1.1830 C   0  0  0  0  0  0  0  0  0  0  0  0
   -5.2756    0.2524    2.1459 H   0  0  0  0  0  0  0  0  0  0  0  0
   -3.7728    0.3628    0.5990 C   0  0  0  0  0  0  0  0  0  0  0  0
   -3.1504   -0.3450    1.1277 H   0  0  0  0  0  0  0  0  0  0  0  0
   -3.3928    0.9232   -0.6372 C   0  0  0  0  0  0  0  0  0  0  0  0
   -0.0961   -0.1019    0.8087 C   0  0  0  0  0  0  0  0  0  0  0  0
    1.1117    0.0883    0.8839 O   0  0  0  0  0  0  0  0  0  0  0  0
   -0.8984    0.5065    1.7561 N   0  0  0  0  0  0  0  0  0  0  0  0
   -1.8748    0.6135    1.5093 H   0  0  0  0  0  0  0  0  0  0  0  0
   -0.3687    1.3527    2.8186 C   0  0  0  0  0  0  0  0  0  0  0  0
    0.1103    2.2428    2.3980 H   0  0  0  0  0  0  0  0  0  0  0  0
   -1.1772    1.6725    3.4826 H   0  0  0  0  0  0  0  0  0  0  0  0
    0.3679    0.8039    3.4150 H   0  0  0  0  0  0  0  0  0  0  0  0
  1  2  1  0  0  0  0
  2  3  1  0  0  0  0
  2  4  1  0  0  0  0
  2  5  1  0  0  0  0
  5  6  2  0  0  0  0
  5  7  1  0  0  0  0
  7  8  1  0  0  0  0
  7  9  1  0  0  0  0
  9 10  1  0  0  0  0
  9 11  1  0  0  0  0
  9 29  1  0  0  0  0
 11 12  1  0  0  0  0
 11 13  1  0  0  0  0
 11 14  1  0  0  0  0
 14 15  2  0  0  0  0
 14 28  1  0  0  0  0
 15 16  1  0  0  0  0
 15 17  1  0  0  0  0
 17 18  1  0  0  0  0
 17 19  1  0  0  0  0
 19 20  1  0  0  0  0
 19 28  2  0  0  0  0
 20 21  1  0  0  0  0
 20 22  2  0  0  0  0
 22 23  1  0  0  0  0
 22 24  1  0  0  0  0
 24 25  1  0  0  0  0
 24 26  2  0  0  0  0
 26 27  1  0  0  0  0
 26 28  1  0  0  0  0
 29 30  2  0  0  0  0
 29 31  1  0  0  0  0
 31 32  1  0  0  0  0
 31 33  1  0  0  0  0
 33 34  1  0  0  0  0
 33 35  1  0  0  0  0
 33 36  1  0  0  0  0
M  END
$$$$

  -OEChem-03222214083D

 36 37  0     1  0  0  0  0  0999 V2000
   -2.7264   -5.1528    0.5531 H   0  0  0  0  0  0  0  0  0  0  0  0
   -2.9481   -4.2271    0.0144 C   0  0  0  0  0  0  0  0  0  0  0  0
   -3.8332   -3.7659    0.4590 H   0  0  0  0  0  0  0  0  0  0  0  0
   -3.1560   -4.4687   -1.0305 H   0  0  0  0  0  0  0  0  0  0  0  0
   -1.7670   -3.2793    0.1004 C   0  0  0  0  0  0  0  0  0  0  0  0
   -0.7289   -3.6473    0.6197 O   0  0  0  0  0  0  0  0  0  0  0  0
   -1.8774   -1.9974   -0.3973 N   0  0  0  0  0  0  0  0  0  0  0  0
   -2.7746   -1.7237   -0.7901 H   0  0  0  0  0  0  0  0  0  0  0  0
   -0.8111   -0.9820   -0.3533 C   0  0  1  0  0  0  0  0  0  0  0  0
    0.0703   -1.5213   -0.7206 H   0  0  0  0  0  0  0  0  0  0  0  0
   -1.0151    0.0624   -1.4731 C   0  0  0  0  0  0  0  0  0  0  0  0
   -0.1765    0.7630   -1.3989 H   0  0  0  0  0  0  0  0  0  0  0  0
   -0.9018   -0.4643   -2.4264 H   0  0  0  0  0  0  0  0  0  0  0  0
   -2.2797    0.9073   -1.5515 C   0  0  0  0  0  0  0  0  0  0  0  0
   -2.6968    1.3002   -2.8053 C   0  0  0  0  0  0  0  0  0  0  0  0
   -2.2229    1.0123   -3.7416 H   0  0  0  0  0  0  0  0  0  0  0  0
   -3.8500    2.0586   -2.6788 N   0  0  0  0  0  0  0  0  0  0  0  0
   -4.3740    2.4729   -3.4472 H   0  0  0  0  0  0  0  0  0  0  0  0
   -4.1148    2.2816   -1.3454 C   0  0  0  0  0  0  0  0  0  0  0  0
   -5.1227    3.0530   -0.7687 C   0  0  0  0  0  0  0  0  0  0  0  0
   -5.8814    3.5172   -1.3890 H   0  0  0  0  0  0  0  0  0  0  0  0
   -5.1231    3.2420    0.6161 C   0  0  0  0  0  0  0  0  0  0  0  0
   -5.8956    3.8442    1.0855 H   0  0  0  0  0  0  0  0  0  0  0  0
   -4.0933    2.6917    1.3873 C   0  0  0  0  0  0  0  0  0  0  0  0
   -4.0558    2.8846    2.4553 H   0  0  0  0  0  0  0  0  0  0  0  0
   -3.0906    1.9207    0.7814 C   0  0  0  0  0  0  0  0  0  0  0  0
   -2.2627    1.5971    1.3852 H   0  0  0  0  0  0  0  0  0  0  0  0
   -3.1242    1.6483   -0.5917 C   0  0  0  0  0  0  0  0  0  0  0  0
   -0.3052   -0.5841    1.0507 C   0  0  0  0  0  0  0  0  0  0  0  0
    0.8686   -0.2658    1.1932 O   0  0  0  0  0  0  0  0  0  0  0  0
   -1.1774   -0.3404    2.0936 N   0  0  0  0  0  0  0  0  0  0  0  0
   -2.1328   -0.6583    1.9637 H   0  0  0  0  0  0  0  0  0  0  0  0
   -0.7341    0.0301    3.4320 C   0  0  0  0  0  0  0  0  0  0  0  0
   -0.1757    0.9717    3.4046 H   0  0  0  0  0  0  0  0  0  0  0  0
   -1.5960    0.1596    4.0933 H   0  0  0  0  0  0  0  0  0  0  0  0
   -0.0894   -0.7503    3.8501 H   0  0  0  0  0  0  0  0  0  0  0  0
  1  2  1  0  0  0  0
  2  3  1  0  0  0  0
  2  4  1  0  0  0  0
  2  5  1  0  0  0  0
  5  6  2  0  0  0  0
  5  7  1  0  0  0  0
  7  8  1  0  0  0  0
  7  9  1  0  0  0  0
  9 10  1  0  0  0  0
  9 11  1  0  0  0  0
  9 29  1  0  0  0  0
 11 12  1  0  0  0  0
 11 13  1  0  0  0  0
 11 14  1  0  0  0  0
 14 15  2  0  0  0  0
 14 28  1  0  0  0  0
 15 16  1  0  0  0  0
 15 17  1  0  0  0  0
 17 18  1  0  0  0  0
 17 19  1  0  0  0  0
 19 20  1  0  0  0  0
 19 28  2  0  0  0  0
 20 21  1  0  0  0  0
 20 22  2  0  0  0  0
 22 23  1  0  0  0  0
 22 24  1  0  0  0  0
 24 25  1  0  0  0  0
 24 26  2  0  0  0  0
 26 27  1  0  0  0  0
 26 28  1  0  0  0  0
 29 30  2  0  0  0  0
 29 31  1  0  0  0  0
 31 32  1  0  0  0  0
 31 33  1  0  0  0  0
 33 34  1  0  0  0  0
 33 35  1  0  0  0  0
 33 36  1  0  0  0  0
M  END
$$$$

  -OEChem-03222214083D

 36 37  0     1  0  0  0  0  0999 V2000
   -3.0557   -5.0706    0.4672 H   0  0  0  0  0  0  0  0  0  0  0  0
   -3.1489   -4.1498   -0.1156 C   0  0  0  0  0  0  0  0  0  0  0  0
   -4.0341   -3.6075    0.2250 H   0  0  0  0  0  0  0  0  0  0  0  0
   -3.2717   -4.4114   -1.1693 H   0  0  0  0  0  0  0  0  0  0  0  0
   -1.9108   -3.2920    0.0647 C   0  0  0  0  0  0  0  0  0  0  0  0
   -0.9753   -3.7065    0.7246 O   0  0  0  0  0  0  0  0  0  0  0  0
   -1.8485   -2.0448   -0.5227 N   0  0  0  0  0  0  0  0  0  0  0  0
   -2.6808   -1.7184   -1.0058 H   0  0  0  0  0  0  0  0  0  0  0  0
   -0.7540   -1.0779   -0.3168 C   0  0  1  0  0  0  0  0  0  0  0  0
    0.1766   -1.6173   -0.5277 H   0  0  0  0  0  0  0  0  0  0  0  0
   -0.8348    0.0012   -1.4206 C   0  0  0  0  0  0  0  0  0  0  0  0
   -0.0019    0.6948   -1.2637 H   0  0  0  0  0  0  0  0  0  0  0  0
   -0.6667   -0.4861   -2.3864 H   0  0  0  0  0  0  0  0  0  0  0  0
   -2.1059    0.8235   -1.4987 C   0  0  0  0  0  0  0  0  0  0  0  0
   -2.7320    1.0629   -2.7021 C   0  0  0  0  0  0  0  0  0  0  0  0
   -2.4680    0.5978   -3.6500 H   0  0  0  0  0  0  0  0  0  0  0  0
   -3.7763    1.9545   -2.4905 N   0  0  0  0  0  0  0  0  0  0  0  0
   -4.4039    2.3104   -3.2094 H   0  0  0  0  0  0  0  0  0  0  0  0
   -3.7151    2.4466   -1.2028 C   0  0  0  0  0  0  0  0  0  0  0  0
   -4.4681    3.4435   -0.5829 C   0  0  0  0  0  0  0  0  0  0  0  0
   -5.3062    3.8996   -1.0984 H   0  0  0  0  0  0  0  0  0  0  0  0
   -4.1045    3.8711    0.6992 C   0  0  0  0  0  0  0  0  0  0  0  0
   -4.6762    4.6485    1.1973 H   0  0  0  0  0  0  0  0  0  0  0  0
   -2.9695    3.3296    1.3163 C   0  0  0  0  0  0  0  0  0  0  0  0
   -2.6518    3.6971    2.2875 H   0  0  0  0  0  0  0  0  0  0  0  0
   -2.2241    2.3324    0.6723 C   0  0  0  0  0  0  0  0  0  0  0  0
   -1.3057    1.9825    1.1290 H   0  0  0  0  0  0  0  0  0  0  0  0
   -2.6406    1.8290   -0.5671 C   0  0  0  0  0  0  0  0  0  0  0  0
   -0.5854   -0.6554    1.1589 C   0  0  0  0  0  0  0  0  0  0  0  0
    0.5315   -0.4140    1.5983 O   0  0  0  0  0  0  0  0  0  0  0  0
   -1.6847   -0.3359    1.9358 N   0  0  0  0  0  0  0  0  0  0  0  0
   -2.5989   -0.4426    1.5071 H   0  0  0  0  0  0  0  0  0  0  0  0
   -1.5961    0.0844    3.3287 C   0  0  0  0  0  0  0  0  0  0  0  0
   -0.9661    0.9750    3.4239 H   0  0  0  0  0  0  0  0  0  0  0  0
   -2.5918    0.3243    3.7135 H   0  0  0  0  0  0  0  0  0  0  0  0
   -1.1696   -0.7165    3.9417 H   0  0  0  0  0  0  0  0  0  0  0  0
  1  2  1  0  0  0  0
  2  3  1  0  0  0  0
  2  4  1  0  0  0  0
  2  5  1  0  0  0  0
  5  6  2  0  0  0  0
  5  7  1  0  0  0  0
  7  8  1  0  0  0  0
  7  9  1  0  0  0  0
  9 10  1  0  0  0  0
  9 11  1  0  0  0  0
  9 29  1  0  0  0  0
 11 12  1  0  0  0  0
 11 13  1  0  0  0  0
 11 14  1  0  0  0  0
 14 15  2  0  0  0  0
 14 28  1  0  0  0  0
 15 16  1  0  0  0  0
 15 17  1  0  0  0  0
 17 18  1  0  0  0  0
 17 19  1  0  0  0  0
 19 20  1  0  0  0  0
 19 28  2  0  0  0  0
 20 21  1  0  0  0  0
 20 22  2  0  0  0  0
 22 23  1  0  0  0  0
 22 24  1  0  0  0  0
 24 25  1  0  0  0  0
 24 26  2  0  0  0  0
 26 27  1  0  0  0  0
 26 28  1  0  0  0  0
 29 30  2  0  0  0  0
 29 31  1  0  0  0  0
 31 32  1  0  0  0  0
 31 33  1  0  0  0  0
 33 34  1  0  0  0  0
 33 35  1  0  0  0  0
 33 36  1  0  0  0  0
M  END
$$$$

  -OEChem-03222214083D

 36 37  0     1  0  0  0  0  0999 V2000
   -3.0967   -4.9178    0.6974 H   0  0  0  0  0  0  0  0  0  0  0  0
   -3.1711   -4.0294    0.0638 C   0  0  0  0  0  0  0  0  0  0  0  0
   -4.0273   -3.4353    0.3920 H   0  0  0  0  0  0  0  0  0  0  0  0
   -3.3288   -4.3464   -0.9699 H   0  0  0  0  0  0  0  0  0  0  0  0
   -1.8990   -3.2093    0.1653 C   0  0  0  0  0  0  0  0  0  0  0  0
   -0.9669   -3.6137    0.8363 O   0  0  0  0  0  0  0  0  0  0  0  0
   -1.8013   -2.0105   -0.5111 N   0  0  0  0  0  0  0  0  0  0  0  0
   -2.6403   -1.6781   -0.9773 H   0  0  0  0  0  0  0  0  0  0  0  0
   -0.6920   -1.0537   -0.3419 C   0  0  1  0  0  0  0  0  0  0  0  0
    0.2366   -1.6082   -0.5190 H   0  0  0  0  0  0  0  0  0  0  0  0
   -0.7732   -0.0055   -1.4707 C   0  0  0  0  0  0  0  0  0  0  0  0
    0.0668    0.6880   -1.3593 H   0  0  0  0  0  0  0  0  0  0  0  0
   -0.6415   -0.5172   -2.4294 H   0  0  0  0  0  0  0  0  0  0  0  0
   -2.0531    0.7993   -1.5103 C   0  0  0  0  0  0  0  0  0  0  0  0
   -2.9087    0.8006   -2.5881 C   0  0  0  0  0  0  0  0  0  0  0  0
   -2.8175    0.1637   -3.4658 H   0  0  0  0  0  0  0  0  0  0  0  0
   -3.9061    1.7402   -2.3508 N   0  0  0  0  0  0  0  0  0  0  0  0
   -4.6649    1.9700   -2.9904 H   0  0  0  0  0  0  0  0  0  0  0  0
   -3.6253    2.4463   -1.1960 C   0  0  0  0  0  0  0  0  0  0  0  0
   -4.2735    3.5344   -0.6124 C   0  0  0  0  0  0  0  0  0  0  0  0
   -5.1896    3.9236   -1.0430 H   0  0  0  0  0  0  0  0  0  0  0  0
   -3.7116    4.1330    0.5225 C   0  0  0  0  0  0  0  0  0  0  0  0
   -4.2013    4.9833    0.9880 H   0  0  0  0  0  0  0  0  0  0  0  0
   -2.4989    3.6543    1.0377 C   0  0  0  0  0  0  0  0  0  0  0  0
   -2.0460    4.1366    1.8988 H   0  0  0  0  0  0  0  0  0  0  0  0
   -1.8577    2.5628    0.4358 C   0  0  0  0  0  0  0  0  0  0  0  0
   -0.8999    2.2230    0.8177 H   0  0  0  0  0  0  0  0  0  0  0  0
   -2.4510    1.9251   -0.6611 C   0  0  0  0  0  0  0  0  0  0  0  0
   -0.5477   -0.5246    1.1021 C   0  0  0  0  0  0  0  0  0  0  0  0
    0.5647   -0.2930    1.5574 O   0  0  0  0  0  0  0  0  0  0  0  0
   -1.6567   -0.1216    1.8248 N   0  0  0  0  0  0  0  0  0  0  0  0
   -2.5529   -0.1540    1.3486 H   0  0  0  0  0  0  0  0  0  0  0  0
   -1.5850    0.4444    3.1659 C   0  0  0  0  0  0  0  0  0  0  0  0
   -0.9601    1.3433    3.1739 H   0  0  0  0  0  0  0  0  0  0  0  0
   -2.5859    0.7172    3.5133 H   0  0  0  0  0  0  0  0  0  0  0  0
   -1.1616   -0.2849    3.8642 H   0  0  0  0  0  0  0  0  0  0  0  0
  1  2  1  0  0  0  0
  2  3  1  0  0  0  0
  2  4  1  0  0  0  0
  2  5  1  0  0  0  0
  5  6  2  0  0  0  0
  5  7  1  0  0  0  0
  7  8  1  0  0  0  0
  7  9  1  0  0  0  0
  9 10  1  0  0  0  0
  9 11  1  0  0  0  0
  9 29  1  0  0  0  0
 11 12  1  0  0  0  0
 11 13  1  0  0  0  0
 11 14  1  0  0  0  0
 14 15  2  0  0  0  0
 14 28  1  0  0  0  0
 15 16  1  0  0  0  0
 15 17  1  0  0  0  0
 17 18  1  0  0  0  0
 17 19  1  0  0  0  0
 19 20  1  0  0  0  0
 19 28  2  0  0  0  0
 20 21  1  0  0  0  0
 20 22  2  0  0  0  0
 22 23  1  0  0  0  0
 22 24  1  0  0  0  0
 24 25  1  0  0  0  0
 24 26  2  0  0  0  0
 26 27  1  0  0  0  0
 26 28  1  0  0  0  0
 29 30  2  0  0  0  0
 29 31  1  0  0  0  0
 31 32  1  0  0  0  0
 31 33  1  0  0  0  0
 33 34  1  0  0  0  0
 33 35  1  0  0  0  0
 33 36  1  0  0  0  0
M  END
$$$$

  -OEChem-03222214083D

 36 37  0     1  0  0  0  0  0999 V2000
   -3.2388   -4.7606    0.7958 H   0  0  0  0  0  0  0  0  0  0  0  0
   -3.2714   -3.8973    0.1250 C   0  0  0  0  0  0  0  0  0  0  0  0
   -4.1001   -3.2513    0.4240 H   0  0  0  0  0  0  0  0  0  0  0  0
   -3.4407   -4.2509   -0.8947 H   0  0  0  0  0  0  0  0  0  0  0  0
   -1.9635   -3.1323    0.1987 C   0  0  0  0  0  0  0  0  0  0  0  0
   -1.0591   -3.5423    0.9036 O   0  0  0  0  0  0  0  0  0  0  0  0
   -1.8025   -1.9770   -0.5388 N   0  0  0  0  0  0  0  0  0  0  0  0
   -2.6267   -1.6241   -1.0149 H   0  0  0  0  0  0  0  0  0  0  0  0
   -0.6648   -1.0533   -0.3716 C   0  0  1  0  0  0  0  0  0  0  0  0
    0.2510   -1.6405   -0.5038 H   0  0  0  0  0  0  0  0  0  0  0  0
   -0.6837   -0.0190   -1.5125 C   0  0  0  0  0  0  0  0  0  0  0  0
    0.1796    0.6463   -1.4077 H   0  0  0  0  0  0  0  0  0  0  0  0
   -0.5684   -0.5488   -2.4633 H   0  0  0  0  0  0  0  0  0  0  0  0
   -1.9425    0.8143   -1.5598 C   0  0  0  0  0  0  0  0  0  0  0  0
   -2.9556    0.6514   -2.4754 C   0  0  0  0  0  0  0  0  0  0  0  0
   -2.9954   -0.1173   -3.2445 H   0  0  0  0  0  0  0  0  0  0  0  0
   -3.9049    1.6422   -2.2416 N   0  0  0  0  0  0  0  0  0  0  0  0
   -4.7522    1.7891   -2.7880 H   0  0  0  0  0  0  0  0  0  0  0  0
   -3.4735    2.4921   -1.2370 C   0  0  0  0  0  0  0  0  0  0  0  0
   -4.0425    3.6448   -0.6955 C   0  0  0  0  0  0  0  0  0  0  0  0
   -5.0060    3.9973   -1.0465 H   0  0  0  0  0  0  0  0  0  0  0  0
   -3.3472    4.3470    0.2985 C   0  0  0  0  0  0  0  0  0  0  0  0
   -3.7767    5.2460    0.7311 H   0  0  0  0  0  0  0  0  0  0  0  0
   -2.0884    3.8981    0.7246 C   0  0  0  0  0  0  0  0  0  0  0  0
   -1.5431    4.4496    1.4848 H   0  0  0  0  0  0  0  0  0  0  0  0
   -1.5253    2.7414    0.1681 C   0  0  0  0  0  0  0  0  0  0  0  0
   -0.5448    2.4019    0.4899 H   0  0  0  0  0  0  0  0  0  0  0  0
   -2.2390    2.0250   -0.7995 C   0  0  0  0  0  0  0  0  0  0  0  0
   -0.5482   -0.4483    1.0456 C   0  0  0  0  0  0  0  0  0  0  0  0
    0.5571   -0.2439    1.5312 O   0  0  0  0  0  0  0  0  0  0  0  0
   -1.6651    0.0386    1.7016 N   0  0  0  0  0  0  0  0  0  0  0  0
   -2.5277    0.0741    1.1667 H   0  0  0  0  0  0  0  0  0  0  0  0
   -1.6070    0.7194    2.9885 C   0  0  0  0  0  0  0  0  0  0  0  0
   -0.9742    1.6106    2.9262 H   0  0  0  0  0  0  0  0  0  0  0  0
   -2.6102    1.0283    3.2965 H   0  0  0  0  0  0  0  0  0  0  0  0
   -1.2003    0.0509    3.7545 H   0  0  0  0  0  0  0  0  0  0  0  0
  1  2  1  0  0  0  0
  2  3  1  0  0  0  0
  2  4  1  0  0  0  0
  2  5  1  0  0  0  0
  5  6  2  0  0  0  0
  5  7  1  0  0  0  0
  7  8  1  0  0  0  0
  7  9  1  0  0  0  0
  9 10  1  0  0  0  0
  9 11  1  0  0  0  0
  9 29  1  0  0  0  0
 11 12  1  0  0  0  0
 11 13  1  0  0  0  0
 11 14  1  0  0  0  0
 14 15  2  0  0  0  0
 14 28  1  0  0  0  0
 15 16  1  0  0  0  0
 15 17  1  0  0  0  0
 17 18  1  0  0  0  0
 17 19  1  0  0  0  0
 19 20  1  0  0  0  0
 19 28  2  0  0  0  0
 20 21  1  0  0  0  0
 20 22  2  0  0  0  0
 22 23  1  0  0  0  0
 22 24  1  0  0  0  0
 24 25  1  0  0  0  0
 24 26  2  0  0  0  0
 26 27  1  0  0  0  0
 26 28  1  0  0  0  0
 29 30  2  0  0  0  0
 29 31  1  0  0  0  0
 31 32  1  0  0  0  0
 31 33  1  0  0  0  0
 33 34  1  0  0  0  0
 33 35  1  0  0  0  0
 33 36  1  0  0  0  0
M  END
$$$$

  -OEChem-03222214083D

 36 37  0     1  0  0  0  0  0999 V2000
   -3.3371   -4.6162    0.9129 H   0  0  0  0  0  0  0  0  0  0  0  0
   -3.3303   -3.7983    0.1868 C   0  0  0  0  0  0  0  0  0  0  0  0
   -4.1445   -3.1104    0.4262 H   0  0  0  0  0  0  0  0  0  0  0  0
   -3.4909   -4.2131   -0.8112 H   0  0  0  0  0  0  0  0  0  0  0  0
   -2.0015   -3.0687    0.2367 C   0  0  0  0  0  0  0  0  0  0  0  0
   -1.1168   -3.4670    0.9722 O   0  0  0  0  0  0  0  0  0  0  0  0
   -1.7980   -1.9622   -0.5625 N   0  0  0  0  0  0  0  0  0  0  0  0
   -2.6140   -1.6022   -1.0455 H   0  0  0  0  0  0  0  0  0  0  0  0
   -0.6462   -1.0541   -0.4090 C   0  0  1  0  0  0  0  0  0  0  0  0
    0.2618   -1.6619   -0.4938 H   0  0  0  0  0  0  0  0  0  0  0  0
   -0.6182   -0.0469   -1.5731 C   0  0  0  0  0  0  0  0  0  0  0  0
    0.2603    0.5995   -1.4787 H   0  0  0  0  0  0  0  0  0  0  0  0
   -0.5106   -0.6017   -2.5106 H   0  0  0  0  0  0  0  0  0  0  0  0
   -1.8627    0.8050   -1.6489 C   0  0  0  0  0  0  0  0  0  0  0  0
   -3.0055    0.5086   -2.3548 C   0  0  0  0  0  0  0  0  0  0  0  0
   -3.1557   -0.3693   -2.9800 H   0  0  0  0  0  0  0  0  0  0  0  0
   -3.9162    1.5388   -2.1350 N   0  0  0  0  0  0  0  0  0  0  0  0
   -4.8367    1.6163   -2.5649 H   0  0  0  0  0  0  0  0  0  0  0  0
   -3.3601    2.5083   -1.3161 C   0  0  0  0  0  0  0  0  0  0  0  0
   -3.8639    3.7154   -0.8313 C   0  0  0  0  0  0  0  0  0  0  0  0
   -4.8694    4.0317   -1.0858 H   0  0  0  0  0  0  0  0  0  0  0  0
   -3.0528    4.5146   -0.0132 C   0  0  0  0  0  0  0  0  0  0  0  0
   -3.4304    5.4568    0.3728 H   0  0  0  0  0  0  0  0  0  0  0  0
   -1.7503    4.1011    0.3048 C   0  0  0  0  0  0  0  0  0  0  0  0
   -1.1215    4.7218    0.9362 H   0  0  0  0  0  0  0  0  0  0  0  0
   -1.2538    2.8876   -0.1906 C   0  0  0  0  0  0  0  0  0  0  0  0
   -0.2469    2.5639    0.0573 H   0  0  0  0  0  0  0  0  0  0  0  0
   -2.0731    2.0916   -0.9981 C   0  0  0  0  0  0  0  0  0  0  0  0
   -0.5533   -0.3665    0.9730 C   0  0  0  0  0  0  0  0  0  0  0  0
    0.5436   -0.1600    1.4763 O   0  0  0  0  0  0  0  0  0  0  0  0
   -1.6759    0.1860    1.5655 N   0  0  0  0  0  0  0  0  0  0  0  0
   -2.5057    0.2468    0.9829 H   0  0  0  0  0  0  0  0  0  0  0  0
   -1.6206    0.9882    2.7808 C   0  0  0  0  0  0  0  0  0  0  0  0
   -0.9806    1.8648    2.6367 H   0  0  0  0  0  0  0  0  0  0  0  0
   -2.6235    1.3325    3.0507 H   0  0  0  0  0  0  0  0  0  0  0  0
   -1.2239    0.3947    3.6113 H   0  0  0  0  0  0  0  0  0  0  0  0
  1  2  1  0  0  0  0
  2  3  1  0  0  0  0
  2  4  1  0  0  0  0
  2  5  1  0  0  0  0
  5  6  2  0  0  0  0
  5  7  1  0  0  0  0
  7  8  1  0  0  0  0
  7  9  1  0  0  0  0
  9 10  1  0  0  0  0
  9 11  1  0  0  0  0
  9 29  1  0  0  0  0
 11 12  1  0  0  0  0
 11 13  1  0  0  0  0
 11 14  1  0  0  0  0
 14 15  2  0  0  0  0
 14 28  1  0  0  0  0
 15 16  1  0  0  0  0
 15 17  1  0  0  0  0
 17 18  1  0  0  0  0
 17 19  1  0  0  0  0
 19 20  1  0  0  0  0
 19 28  2  0  0  0  0
 20 21  1  0  0  0  0
 20 22  2  0  0  0  0
 22 23  1  0  0  0  0
 22 24  1  0  0  0  0
 24 25  1  0  0  0  0
 24 26  2  0  0  0  0
 26 27  1  0  0  0  0
 26 28  1  0  0  0  0
 29 30  2  0  0  0  0
 29 31  1  0  0  0  0
 31 32  1  0  0  0  0
 31 33  1  0  0  0  0
 33 34  1  0  0  0  0
 33 35  1  0  0  0  0
 33 36  1  0  0  0  0
M  END
$$$$

  -OEChem-03222214083D

 36 37  0     1  0  0  0  0  0999 V2000
   -3.3315   -4.6004    0.9822 H   0  0  0  0  0  0  0  0  0  0  0  0
   -3.3311   -3.7956    0.2414 C   0  0  0  0  0  0  0  0  0  0  0  0
   -4.1528   -3.1117    0.4660 H   0  0  0  0  0  0  0  0  0  0  0  0
   -3.4849   -4.2302   -0.7491 H   0  0  0  0  0  0  0  0  0  0  0  0
   -2.0089   -3.0532    0.2823 C   0  0  0  0  0  0  0  0  0  0  0  0
   -1.1382   -3.4066    1.0562 O   0  0  0  0  0  0  0  0  0  0  0  0
   -1.7936   -1.9893   -0.5703 N   0  0  0  0  0  0  0  0  0  0  0  0
   -2.5968   -1.6666   -1.0956 H   0  0  0  0  0  0  0  0  0  0  0  0
   -0.6459   -1.0721   -0.4431 C   0  0  1  0  0  0  0  0  0  0  0  0
    0.2654   -1.6784   -0.4944 H   0  0  0  0  0  0  0  0  0  0  0  0
   -0.6033   -0.0825   -1.6222 C   0  0  0  0  0  0  0  0  0  0  0  0
    0.2821    0.5551   -1.5333 H   0  0  0  0  0  0  0  0  0  0  0  0
   -0.4940   -0.6523   -2.5504 H   0  0  0  0  0  0  0  0  0  0  0  0
   -1.8425    0.7781   -1.7264 C   0  0  0  0  0  0  0  0  0  0  0  0
   -3.0839    0.3998   -2.1853 C   0  0  0  0  0  0  0  0  0  0  0  0
   -3.3335   -0.5622   -2.6266 H   0  0  0  0  0  0  0  0  0  0  0  0
   -3.9494    1.4752   -2.0047 N   0  0  0  0  0  0  0  0  0  0  0  0
   -4.9259    1.5059   -2.2941 H   0  0  0  0  0  0  0  0  0  0  0  0
   -3.2806    2.5401   -1.4238 C   0  0  0  0  0  0  0  0  0  0  0  0
   -3.7111    3.8118   -1.0448 C   0  0  0  0  0  0  0  0  0  0  0  0
   -4.7404    4.1133   -1.2046 H   0  0  0  0  0  0  0  0  0  0  0  0
   -2.7964    4.6937   -0.4522 C   0  0  0  0  0  0  0  0  0  0  0  0
   -3.1162    5.6870   -0.1508 H   0  0  0  0  0  0  0  0  0  0  0  0
   -1.4672    4.2942   -0.2452 C   0  0  0  0  0  0  0  0  0  0  0  0
   -0.7607    4.9765    0.2188 H   0  0  0  0  0  0  0  0  0  0  0  0
   -1.0449    3.0154   -0.6348 C   0  0  0  0  0  0  0  0  0  0  0  0
   -0.0184    2.7029   -0.4677 H   0  0  0  0  0  0  0  0  0  0  0  0
   -1.9629    2.1439   -1.2311 C   0  0  0  0  0  0  0  0  0  0  0  0
   -0.5737   -0.3107    0.9012 C   0  0  0  0  0  0  0  0  0  0  0  0
    0.5165   -0.0719    1.4051 O   0  0  0  0  0  0  0  0  0  0  0  0
   -1.7078    0.2719    1.4413 N   0  0  0  0  0  0  0  0  0  0  0  0
   -2.5158    0.3105    0.8270 H   0  0  0  0  0  0  0  0  0  0  0  0
   -1.6564    1.2001    2.5633 C   0  0  0  0  0  0  0  0  0  0  0  0
   -1.0957    2.1004    2.2913 H   0  0  0  0  0  0  0  0  0  0  0  0
   -2.6688    1.4959    2.8539 H   0  0  0  0  0  0  0  0  0  0  0  0
   -1.1736    0.7313    3.4274 H   0  0  0  0  0  0  0  0  0  0  0  0
  1  2  1  0  0  0  0
  2  3  1  0  0  0  0
  2  4  1  0  0  0  0
  2  5  1  0  0  0  0
  5  6  2  0  0  0  0
  5  7  1  0  0  0  0
  7  8  1  0  0  0  0
  7  9  1  0  0  0  0
  9 10  1  0  0  0  0
  9 11  1  0  0  0  0
  9 29  1  0  0  0  0
 11 12  1  0  0  0  0
 11 13  1  0  0  0  0
 11 14  1  0  0  0  0
 14 15  2  0  0  0  0
 14 28  1  0  0  0  0
 15 16  1  0  0  0  0
 15 17  1  0  0  0  0
 17 18  1  0  0  0  0
 17 19  1  0  0  0  0
 19 20  1  0  0  0  0
 19 28  2  0  0  0  0
 20 21  1  0  0  0  0
 20 22  2  0  0  0  0
 22 23  1  0  0  0  0
 22 24  1  0  0  0  0
 24 25  1  0  0  0  0
 24 26  2  0  0  0  0
 26 27  1  0  0  0  0
 26 28  1  0  0  0  0
 29 30  2  0  0  0  0
 29 31  1  0  0  0  0
 31 32  1  0  0  0  0
 31 33  1  0  0  0  0
 33 34  1  0  0  0  0
 33 35  1  0  0  0  0
 33 36  1  0  0  0  0
M  END
$$$$

  -OEChem-03222214083D

 36 37  0     1  0  0  0  0  0999 V2000
   -3.2385   -4.7872    0.9193 H   0  0  0  0  0  0  0  0  0  0  0  0
   -3.2159   -4.0252    0.1349 C   0  0  0  0  0  0  0  0  0  0  0  0
   -4.1671   -3.4880    0.1408 H   0  0  0  0  0  0  0  0  0  0  0  0
   -3.0876   -4.5198   -0.8307 H   0  0  0  0  0  0  0  0  0  0  0  0
   -2.0716   -3.0596    0.3812 C   0  0  0  0  0  0  0  0  0  0  0  0
   -1.3410   -3.2203    1.3410 O   0  0  0  0  0  0  0  0  0  0  0  0
   -1.8500   -2.0228   -0.5031 N   0  0  0  0  0  0  0  0  0  0  0  0
   -2.3919   -2.0326   -1.3583 H   0  0  0  0  0  0  0  0  0  0  0  0
   -0.7010   -1.1006   -0.4202 C   0  0  1  0  0  0  0  0  0  0  0  0
    0.2141   -1.7002   -0.4802 H   0  0  0  0  0  0  0  0  0  0  0  0
   -0.7030   -0.1116   -1.6030 C   0  0  0  0  0  0  0  0  0  0  0  0
    0.1891    0.5189   -1.5351 H   0  0  0  0  0  0  0  0  0  0  0  0
   -0.6192   -0.6772   -2.5360 H   0  0  0  0  0  0  0  0  0  0  0  0
   -1.9404    0.7624   -1.6832 C   0  0  0  0  0  0  0  0  0  0  0  0
   -3.2572    0.3810   -1.8263 C   0  0  0  0  0  0  0  0  0  0  0  0
   -3.6190   -0.6313   -1.9788 H   0  0  0  0  0  0  0  0  0  0  0  0
   -4.0472    1.5237   -1.7463 N   0  0  0  0  0  0  0  0  0  0  0  0
   -5.0610    1.5530   -1.8410 H   0  0  0  0  0  0  0  0  0  0  0  0
   -3.2580    2.6395   -1.5307 C   0  0  0  0  0  0  0  0  0  0  0  0
   -3.5856    3.9853   -1.3666 C   0  0  0  0  0  0  0  0  0  0  0  0
   -4.6201    4.3073   -1.4113 H   0  0  0  0  0  0  0  0  0  0  0  0
   -2.5612    4.9140   -1.1382 C   0  0  0  0  0  0  0  0  0  0  0  0
   -2.7997    5.9655   -1.0073 H   0  0  0  0  0  0  0  0  0  0  0  0
   -1.2270    4.4857   -1.0737 C   0  0  0  0  0  0  0  0  0  0  0  0
   -0.4345    5.2053   -0.8908 H   0  0  0  0  0  0  0  0  0  0  0  0
   -0.9107    3.1302   -1.2416 C   0  0  0  0  0  0  0  0  0  0  0  0
    0.1222    2.8024   -1.1814 H   0  0  0  0  0  0  0  0  0  0  0  0
   -1.9378    2.2087   -1.4792 C   0  0  0  0  0  0  0  0  0  0  0  0
   -0.6047   -0.2849    0.8915 C   0  0  0  0  0  0  0  0  0  0  0  0
    0.4991   -0.0134    1.3489 O   0  0  0  0  0  0  0  0  0  0  0  0
   -1.7271    0.3234    1.4265 N   0  0  0  0  0  0  0  0  0  0  0  0
   -2.5604    0.2906    0.8469 H   0  0  0  0  0  0  0  0  0  0  0  0
   -1.6501    1.3444    2.4622 C   0  0  0  0  0  0  0  0  0  0  0  0
   -1.1524    2.2408    2.0776 H   0  0  0  0  0  0  0  0  0  0  0  0
   -2.6550    1.6200    2.7958 H   0  0  0  0  0  0  0  0  0  0  0  0
   -1.0913    0.9727    3.3277 H   0  0  0  0  0  0  0  0  0  0  0  0
  1  2  1  0  0  0  0
  2  3  1  0  0  0  0
  2  4  1  0  0  0  0
  2  5  1  0  0  0  0
  5  6  2  0  0  0  0
  5  7  1  0  0  0  0
  7  8  1  0  0  0  0
  7  9  1  0  0  0  0
  9 10  1  0  0  0  0
  9 11  1  0  0  0  0
  9 29  1  0  0  0  0
 11 12  1  0  0  0  0
 11 13  1  0  0  0  0
 11 14  1  0  0  0  0
 14 15  2  0  0  0  0
 14 28  1  0  0  0  0
 15 16  1  0  0  0  0
 15 17  1  0  0  0  0
 17 18  1  0  0  0  0
 17 19  1  0  0  0  0
 19 20  1  0  0  0  0
 19 28  2  0  0  0  0
 20 21  1  0  0  0  0
 20 22  2  0  0  0  0
 22 23  1  0  0  0  0
 22 24  1  0  0  0  0
 24 25  1  0  0  0  0
 24 26  2  0  0  0  0
 26 27  1  0  0  0  0
 26 28  1  0  0  0  0
 29 30  2  0  0  0  0
 29 31  1  0  0  0  0
 31 32  1  0  0  0  0
 31 33  1  0  0  0  0
 33 34  1  0  0  0  0
 33 35  1  0  0  0  0
 33 36  1  0  0  0  0
M  END
$$$$

  -OEChem-03222214083D

 36 37  0     1  0  0  0  0  0999 V2000
   -3.1451   -4.8895    0.8412 H   0  0  0  0  0  0  0  0  0  0  0  0
   -3.1501   -4.1020    0.0820 C   0  0  0  0  0  0  0  0  0  0  0  0
   -4.1243   -3.6078    0.0961 H   0  0  0  0  0  0  0  0  0  0  0  0
   -2.9922   -4.5588   -0.8981 H   0  0  0  0  0  0  0  0  0  0  0  0
   -2.0520   -3.0953    0.3688 C   0  0  0  0  0  0  0  0  0  0  0  0
   -1.3260   -3.2516    1.3323 O   0  0  0  0  0  0  0  0  0  0  0  0
   -1.8704   -2.0241   -0.4833 N   0  0  0  0  0  0  0  0  0  0  0  0
   -2.3836   -2.0578   -1.3573 H   0  0  0  0  0  0  0  0  0  0  0  0
   -0.7279   -1.0933   -0.3992 C   0  0  1  0  0  0  0  0  0  0  0  0
    0.1899   -1.6817   -0.5076 H   0  0  0  0  0  0  0  0  0  0  0  0
   -0.7761   -0.0705   -1.5526 C   0  0  0  0  0  0  0  0  0  0  0  0
    0.1111    0.5648   -1.4695 H   0  0  0  0  0  0  0  0  0  0  0  0
   -0.6958   -0.6034   -2.5049 H   0  0  0  0  0  0  0  0  0  0  0  0
   -2.0145    0.8104   -1.6041 C   0  0  0  0  0  0  0  0  0  0  0  0
   -3.3435    0.4687   -1.4580 C   0  0  0  0  0  0  0  0  0  0  0  0
   -3.7400   -0.5291   -1.2994 H   0  0  0  0  0  0  0  0  0  0  0  0
   -4.1025    1.6312   -1.5481 N   0  0  0  0  0  0  0  0  0  0  0  0
   -5.1178    1.6845   -1.4871 H   0  0  0  0  0  0  0  0  0  0  0  0
   -3.2816    2.7257   -1.7501 C   0  0  0  0  0  0  0  0  0  0  0  0
   -3.5720    4.0816   -1.9010 C   0  0  0  0  0  0  0  0  0  0  0  0
   -4.5982    4.4301   -1.8697 H   0  0  0  0  0  0  0  0  0  0  0  0
   -2.5202    4.9875   -2.0914 C   0  0  0  0  0  0  0  0  0  0  0  0
   -2.7304    6.0465   -2.2090 H   0  0  0  0  0  0  0  0  0  0  0  0
   -1.1955    4.5273   -2.1264 C   0  0  0  0  0  0  0  0  0  0  0  0
   -0.3803    5.2304   -2.2701 H   0  0  0  0  0  0  0  0  0  0  0  0
   -0.9174    3.1613   -1.9744 C   0  0  0  0  0  0  0  0  0  0  0  0
    0.1091    2.8105   -1.9991 H   0  0  0  0  0  0  0  0  0  0  0  0
   -1.9727    2.2598   -1.7886 C   0  0  0  0  0  0  0  0  0  0  0  0
   -0.5919   -0.3232    0.9363 C   0  0  0  0  0  0  0  0  0  0  0  0
    0.5248   -0.0774    1.3756 O   0  0  0  0  0  0  0  0  0  0  0  0
   -1.6958    0.2584    1.5348 N   0  0  0  0  0  0  0  0  0  0  0  0
   -2.5598    0.2261    1.0041 H   0  0  0  0  0  0  0  0  0  0  0  0
   -1.5936    1.1948    2.6456 C   0  0  0  0  0  0  0  0  0  0  0  0
   -1.0664    2.1022    2.3332 H   0  0  0  0  0  0  0  0  0  0  0  0
   -2.5914    1.4745    2.9964 H   0  0  0  0  0  0  0  0  0  0  0  0
   -1.0507    0.7407    3.4813 H   0  0  0  0  0  0  0  0  0  0  0  0
  1  2  1  0  0  0  0
  2  3  1  0  0  0  0
  2  4  1  0  0  0  0
  2  5  1  0  0  0  0
  5  6  2  0  0  0  0
  5  7  1  0  0  0  0
  7  8  1  0  0  0  0
  7  9  1  0  0  0  0
  9 10  1  0  0  0  0
  9 11  1  0  0  0  0
  9 29  1  0  0  0  0
 11 12  1  0  0  0  0
 11 13  1  0  0  0  0
 11 14  1  0  0  0  0
 14 15  2  0  0  0  0
 14 28  1  0  0  0  0
 15 16  1  0  0  0  0
 15 17  1  0  0  0  0
 17 18  1  0  0  0  0
 17 19  1  0  0  0  0
 19 20  1  0  0  0  0
 19 28  2  0  0  0  0
 20 21  1  0  0  0  0
 20 22  2  0  0  0  0
 22 23  1  0  0  0  0
 22 24  1  0  0  0  0
 24 25  1  0  0  0  0
 24 26  2  0  0  0  0
 26 27  1  0  0  0  0
 26 28  1  0  0  0  0
 29 30  2  0  0  0  0
 29 31  1  0  0  0  0
 31 32  1  0  0  0  0
 31 33  1  0  0  0  0
 33 34  1  0  0  0  0
 33 35  1  0  0  0  0
 33 36  1  0  0  0  0
M  END
$$$$

  -OEChem-03222214083D

 36 37  0     1  0  0  0  0  0999 V2000
   -3.0898   -4.9332    0.7571 H   0  0  0  0  0  0  0  0  0  0  0  0
   -3.1308   -4.1117    0.0359 C   0  0  0  0  0  0  0  0  0  0  0  0
   -4.1138   -3.6390    0.0973 H   0  0  0  0  0  0  0  0  0  0  0  0
   -2.9900   -4.5196   -0.9679 H   0  0  0  0  0  0  0  0  0  0  0  0
   -2.0449   -3.0973    0.3418 C   0  0  0  0  0  0  0  0  0  0  0  0
   -1.3103   -3.2677    1.2965 O   0  0  0  0  0  0  0  0  0  0  0  0
   -1.8912   -1.9937   -0.4736 N   0  0  0  0  0  0  0  0  0  0  0  0
   -2.4227   -1.9988   -1.3389 H   0  0  0  0  0  0  0  0  0  0  0  0
   -0.7503   -1.0613   -0.3831 C   0  0  1  0  0  0  0  0  0  0  0  0
    0.1634   -1.6483   -0.5290 H   0  0  0  0  0  0  0  0  0  0  0  0
   -0.8217   -0.0224   -1.5197 C   0  0  0  0  0  0  0  0  0  0  0  0
    0.0592    0.6210   -1.4265 H   0  0  0  0  0  0  0  0  0  0  0  0
   -0.7393   -0.5392   -2.4809 H   0  0  0  0  0  0  0  0  0  0  0  0
   -2.0578    0.8614   -1.5611 C   0  0  0  0  0  0  0  0  0  0  0  0
   -3.3520    0.6092   -1.1523 C   0  0  0  0  0  0  0  0  0  0  0  0
   -3.7218   -0.3100   -0.7082 H   0  0  0  0  0  0  0  0  0  0  0  0
   -4.1148    1.7461   -1.4025 N   0  0  0  0  0  0  0  0  0  0  0  0
   -5.1077    1.8514   -1.2017 H   0  0  0  0  0  0  0  0  0  0  0  0
   -3.3327    2.7331   -1.9749 C   0  0  0  0  0  0  0  0  0  0  0  0
   -3.6374    4.0264   -2.3999 C   0  0  0  0  0  0  0  0  0  0  0  0
   -4.6452    4.4134   -2.2992 H   0  0  0  0  0  0  0  0  0  0  0  0
   -2.6237    4.8180   -2.9579 C   0  0  0  0  0  0  0  0  0  0  0  0
   -2.8438    5.8271   -3.2938 H   0  0  0  0  0  0  0  0  0  0  0  0
   -1.3226    4.3080   -3.0823 C   0  0  0  0  0  0  0  0  0  0  0  0
   -0.5381    4.9226   -3.5137 H   0  0  0  0  0  0  0  0  0  0  0  0
   -1.0292    3.0070   -2.6492 C   0  0  0  0  0  0  0  0  0  0  0  0
   -0.0216    2.6152   -2.7436 H   0  0  0  0  0  0  0  0  0  0  0  0
   -2.0462    2.2217   -2.0934 C   0  0  0  0  0  0  0  0  0  0  0  0
   -0.5695   -0.3350    0.9717 C   0  0  0  0  0  0  0  0  0  0  0  0
    0.5620   -0.1109    1.3832 O   0  0  0  0  0  0  0  0  0  0  0  0
   -1.6462    0.2281    1.6336 N   0  0  0  0  0  0  0  0  0  0  0  0
   -2.5460    0.1724    1.1713 H   0  0  0  0  0  0  0  0  0  0  0  0
   -1.5060    1.0791    2.8075 C   0  0  0  0  0  0  0  0  0  0  0  0
   -0.9178    1.9707    2.5658 H   0  0  0  0  0  0  0  0  0  0  0  0
   -2.4905    1.3982    3.1624 H   0  0  0  0  0  0  0  0  0  0  0  0
   -1.0071    0.5348    3.6164 H   0  0  0  0  0  0  0  0  0  0  0  0
  1  2  1  0  0  0  0
  2  3  1  0  0  0  0
  2  4  1  0  0  0  0
  2  5  1  0  0  0  0
  5  6  2  0  0  0  0
  5  7  1  0  0  0  0
  7  8  1  0  0  0  0
  7  9  1  0  0  0  0
  9 10  1  0  0  0  0
  9 11  1  0  0  0  0
  9 29  1  0  0  0  0
 11 12  1  0  0  0  0
 11 13  1  0  0  0  0
 11 14  1  0  0  0  0
 14 15  2  0  0  0  0
 14 28  1  0  0  0  0
 15 16  1  0  0  0  0
 15 17  1  0  0  0  0
 17 18  1  0  0  0  0
 17 19  1  0  0  0  0
 19 20  1  0  0  0  0
 19 28  2  0  0  0  0
 20 21  1  0  0  0  0
 20 22  2  0  0  0  0
 22 23  1  0  0  0  0
 22 24  1  0  0  0  0
 24 25  1  0  0  0  0
 24 26  2  0  0  0  0
 26 27  1  0  0  0  0
 26 28  1  0  0  0  0
 29 30  2  0  0  0  0
 29 31  1  0  0  0  0
 31 32  1  0  0  0  0
 31 33  1  0  0  0  0
 33 34  1  0  0  0  0
 33 35  1  0  0  0  0
 33 36  1  0  0  0  0
M  END
$$$$

  -OEChem-03222214083D

 36 37  0     1  0  0  0  0  0999 V2000
   -3.1051   -4.9049    0.7201 H   0  0  0  0  0  0  0  0  0  0  0  0
   -3.1434   -4.0776    0.0054 C   0  0  0  0  0  0  0  0  0  0  0  0
   -4.1253   -3.6028    0.0701 H   0  0  0  0  0  0  0  0  0  0  0  0
   -3.0037   -4.4777   -1.0019 H   0  0  0  0  0  0  0  0  0  0  0  0
   -2.0546   -3.0687    0.3194 C   0  0  0  0  0  0  0  0  0  0  0  0
   -1.3053   -3.2577    1.2592 O   0  0  0  0  0  0  0  0  0  0  0  0
   -1.9264   -1.9340   -0.4556 N   0  0  0  0  0  0  0  0  0  0  0  0
   -2.4994   -1.8931   -1.2938 H   0  0  0  0  0  0  0  0  0  0  0  0
   -0.7843   -1.0024   -0.3692 C   0  0  1  0  0  0  0  0  0  0  0  0
    0.1179   -1.5993   -0.5444 H   0  0  0  0  0  0  0  0  0  0  0  0
   -0.8530    0.0321   -1.5092 C   0  0  0  0  0  0  0  0  0  0  0  0
    0.0270    0.6787   -1.4228 H   0  0  0  0  0  0  0  0  0  0  0  0
   -0.7717   -0.4939   -2.4652 H   0  0  0  0  0  0  0  0  0  0  0  0
   -2.0826    0.9190   -1.5647 C   0  0  0  0  0  0  0  0  0  0  0  0
   -3.3023    0.8006   -0.9326 C   0  0  0  0  0  0  0  0  0  0  0  0
   -3.5942    0.0122   -0.2458 H   0  0  0  0  0  0  0  0  0  0  0  0
   -4.0998    1.8712   -1.3276 N   0  0  0  0  0  0  0  0  0  0  0  0
   -5.0474    2.0562   -1.0043 H   0  0  0  0  0  0  0  0  0  0  0  0
   -3.4113    2.6821   -2.2125 C   0  0  0  0  0  0  0  0  0  0  0  0
   -3.7758    3.8542   -2.8755 C   0  0  0  0  0  0  0  0  0  0  0  0
   -4.7614    4.2825   -2.7294 H   0  0  0  0  0  0  0  0  0  0  0  0
   -2.8516    4.4700   -3.7313 C   0  0  0  0  0  0  0  0  0  0  0  0
   -3.1204    5.3828   -4.2547 H   0  0  0  0  0  0  0  0  0  0  0  0
   -1.5774    3.9097   -3.9102 C   0  0  0  0  0  0  0  0  0  0  0  0
   -0.8619    4.3904   -4.5703 H   0  0  0  0  0  0  0  0  0  0  0  0
   -1.2226    2.7321   -3.2367 C   0  0  0  0  0  0  0  0  0  0  0  0
   -0.2365    2.2992   -3.3706 H   0  0  0  0  0  0  0  0  0  0  0  0
   -2.1518    2.1221   -2.3867 C   0  0  0  0  0  0  0  0  0  0  0  0
   -0.5431   -0.3188    0.9983 C   0  0  0  0  0  0  0  0  0  0  0  0
    0.6058   -0.0716    1.3419 O   0  0  0  0  0  0  0  0  0  0  0  0
   -1.5835    0.2243    1.7308 N   0  0  0  0  0  0  0  0  0  0  0  0
   -2.5218   -0.0364    1.4557 H   0  0  0  0  0  0  0  0  0  0  0  0
   -1.3886    0.9491    2.9794 C   0  0  0  0  0  0  0  0  0  0  0  0
   -0.7724    1.8389    2.8124 H   0  0  0  0  0  0  0  0  0  0  0  0
   -2.3526    1.2693    3.3854 H   0  0  0  0  0  0  0  0  0  0  0  0
   -0.8951    0.3108    3.7198 H   0  0  0  0  0  0  0  0  0  0  0  0
  1  2  1  0  0  0  0
  2  3  1  0  0  0  0
  2  4  1  0  0  0  0
  2  5  1  0  0  0  0
  5  6  2  0  0  0  0
  5  7  1  0  0  0  0
  7  8  1  0  0  0  0
  7  9  1  0  0  0  0
  9 10  1  0  0  0  0
  9 11  1  0  0  0  0
  9 29  1  0  0  0  0
 11 12  1  0  0  0  0
 11 13  1  0  0  0  0
 11 14  1  0  0  0  0
 14 15  2  0  0  0  0
 14 28  1  0  0  0  0
 15 16  1  0  0  0  0
 15 17  1  0  0  0  0
 17 18  1  0  0  0  0
 17 19  1  0  0  0  0
 19 20  1  0  0  0  0
 19 28  2  0  0  0  0
 20 21  1  0  0  0  0
 20 22  2  0  0  0  0
 22 23  1  0  0  0  0
 22 24  1  0  0  0  0
 24 25  1  0  0  0  0
 24 26  2  0  0  0  0
 26 27  1  0  0  0  0
 26 28  1  0  0  0  0
 29 30  2  0  0  0  0
 29 31  1  0  0  0  0
 31 32  1  0  0  0  0
 31 33  1  0  0  0  0
 33 34  1  0  0  0  0
 33 35  1  0  0  0  0
 33 36  1  0  0  0  0
M  END
$$$$

  -OEChem-03222214083D

 36 37  0     1  0  0  0  0  0999 V2000
   -3.0927   -4.8966    0.6900 H   0  0  0  0  0  0  0  0  0  0  0  0
   -3.1528   -4.0510   -0.0013 C   0  0  0  0  0  0  0  0  0  0  0  0
   -4.1312   -3.5772    0.1077 H   0  0  0  0  0  0  0  0  0  0  0  0
   -3.0471   -4.4250   -1.0224 H   0  0  0  0  0  0  0  0  0  0  0  0
   -2.0522   -3.0518    0.3018 C   0  0  0  0  0  0  0  0  0  0  0  0
   -1.2698   -3.2646    1.2094 O   0  0  0  0  0  0  0  0  0  0  0  0
   -1.9558   -1.8890   -0.4343 N   0  0  0  0  0  0  0  0  0  0  0  0
   -2.5862   -1.7955   -1.2265 H   0  0  0  0  0  0  0  0  0  0  0  0
   -0.8190   -0.9513   -0.3559 C   0  0  1  0  0  0  0  0  0  0  0  0
    0.0747   -1.5541   -0.5532 H   0  0  0  0  0  0  0  0  0  0  0  0
   -0.8848    0.0717   -1.5061 C   0  0  0  0  0  0  0  0  0  0  0  0
   -0.0056    0.7215   -1.4351 H   0  0  0  0  0  0  0  0  0  0  0  0
   -0.8054   -0.4739   -2.4515 H   0  0  0  0  0  0  0  0  0  0  0  0
   -2.1137    0.9542   -1.5833 C   0  0  0  0  0  0  0  0  0  0  0  0
   -3.2301    1.0099   -0.7786 C   0  0  0  0  0  0  0  0  0  0  0  0
   -3.4221    0.3922    0.0918 H   0  0  0  0  0  0  0  0  0  0  0  0
   -4.0782    1.9922   -1.2834 N   0  0  0  0  0  0  0  0  0  0  0  0
   -4.9678    2.2729   -0.8756 H   0  0  0  0  0  0  0  0  0  0  0  0
   -3.5190    2.5803   -2.4041 C   0  0  0  0  0  0  0  0  0  0  0  0
   -3.9693    3.6001   -3.2427 C   0  0  0  0  0  0  0  0  0  0  0  0
   -4.9253    4.0776   -3.0584 H   0  0  0  0  0  0  0  0  0  0  0  0
   -3.1696    3.9985   -4.3232 C   0  0  0  0  0  0  0  0  0  0  0  0
   -3.5066    4.7913   -4.9848 H   0  0  0  0  0  0  0  0  0  0  0  0
   -1.9324    3.3757   -4.5498 C   0  0  0  0  0  0  0  0  0  0  0  0
   -1.3138    3.6881   -5.3858 H   0  0  0  0  0  0  0  0  0  0  0  0
   -1.4899    2.3532   -3.6980 C   0  0  0  0  0  0  0  0  0  0  0  0
   -0.5308    1.8742   -3.8664 H   0  0  0  0  0  0  0  0  0  0  0  0
   -2.2954    1.9604   -2.6234 C   0  0  0  0  0  0  0  0  0  0  0  0
   -0.5243   -0.3076    1.0203 C   0  0  0  0  0  0  0  0  0  0  0  0
    0.6334   -0.0220    1.2993 O   0  0  0  0  0  0  0  0  0  0  0  0
   -1.5368    0.2038    1.8124 N   0  0  0  0  0  0  0  0  0  0  0  0
   -2.4531   -0.2016    1.6646 H   0  0  0  0  0  0  0  0  0  0  0  0
   -1.2774    0.8787    3.0780 C   0  0  0  0  0  0  0  0  0  0  0  0
   -0.6607    1.7693    2.9177 H   0  0  0  0  0  0  0  0  0  0  0  0
   -2.2187    1.1922    3.5392 H   0  0  0  0  0  0  0  0  0  0  0  0
   -0.7566    0.2086    3.7703 H   0  0  0  0  0  0  0  0  0  0  0  0
  1  2  1  0  0  0  0
  2  3  1  0  0  0  0
  2  4  1  0  0  0  0
  2  5  1  0  0  0  0
  5  6  2  0  0  0  0
  5  7  1  0  0  0  0
  7  8  1  0  0  0  0
  7  9  1  0  0  0  0
  9 10  1  0  0  0  0
  9 11  1  0  0  0  0
  9 29  1  0  0  0  0
 11 12  1  0  0  0  0
 11 13  1  0  0  0  0
 11 14  1  0  0  0  0
 14 15  2  0  0  0  0
 14 28  1  0  0  0  0
 15 16  1  0  0  0  0
 15 17  1  0  0  0  0
 17 18  1  0  0  0  0
 17 19  1  0  0  0  0
 19 20  1  0  0  0  0
 19 28  2  0  0  0  0
 20 21  1  0  0  0  0
 20 22  2  0  0  0  0
 22 23  1  0  0  0  0
 22 24  1  0  0  0  0
 24 25  1  0  0  0  0
 24 26  2  0  0  0  0
 26 27  1  0  0  0  0
 26 28  1  0  0  0  0
 29 30  2  0  0  0  0
 29 31  1  0  0  0  0
 31 32  1  0  0  0  0
 31 33  1  0  0  0  0
 33 34  1  0  0  0  0
 33 35  1  0  0  0  0
 33 36  1  0  0  0  0
M  END
$$$$

  -OEChem-03222214083D

 36 37  0     1  0  0  0  0  0999 V2000
   -3.1212   -4.8707    0.6967 H   0  0  0  0  0  0  0  0  0  0  0  0
   -3.1999   -4.0077    0.0292 C   0  0  0  0  0  0  0  0  0  0  0  0
   -4.1625   -3.5193    0.1981 H   0  0  0  0  0  0  0  0  0  0  0  0
   -3.1522   -4.3581   -1.0046 H   0  0  0  0  0  0  0  0  0  0  0  0
   -2.0672   -3.0356    0.2986 C   0  0  0  0  0  0  0  0  0  0  0  0
   -1.2388   -3.2859    1.1551 O   0  0  0  0  0  0  0  0  0  0  0  0
   -1.9947   -1.8519   -0.4058 N   0  0  0  0  0  0  0  0  0  0  0  0
   -2.6824   -1.7092   -1.1414 H   0  0  0  0  0  0  0  0  0  0  0  0
   -0.8536   -0.9201   -0.3503 C   0  0  1  0  0  0  0  0  0  0  0  0
    0.0254   -1.5338   -0.5783 H   0  0  0  0  0  0  0  0  0  0  0  0
   -0.9264    0.0947   -1.5072 C   0  0  0  0  0  0  0  0  0  0  0  0
   -0.0390    0.7348   -1.4620 H   0  0  0  0  0  0  0  0  0  0  0  0
   -0.8655   -0.4721   -2.4415 H   0  0  0  0  0  0  0  0  0  0  0  0
   -2.1450    0.9917   -1.5930 C   0  0  0  0  0  0  0  0  0  0  0  0
   -3.1266    1.2788   -0.6704 C   0  0  0  0  0  0  0  0  0  0  0  0
   -3.1996    0.8875    0.3367 H   0  0  0  0  0  0  0  0  0  0  0  0
   -4.0250    2.1671   -1.2560 N   0  0  0  0  0  0  0  0  0  0  0  0
   -4.8340    2.5787   -0.7948 H   0  0  0  0  0  0  0  0  0  0  0  0
   -3.6307    2.4701   -2.5466 C   0  0  0  0  0  0  0  0  0  0  0  0
   -4.1837    3.3068   -3.5161 C   0  0  0  0  0  0  0  0  0  0  0  0
   -5.0924    3.8606   -3.3077 H   0  0  0  0  0  0  0  0  0  0  0  0
   -3.5479    3.4233   -4.7601 C   0  0  0  0  0  0  0  0  0  0  0  0
   -3.9656    4.0714   -5.5248 H   0  0  0  0  0  0  0  0  0  0  0  0
   -2.3697    2.7061   -5.0174 C   0  0  0  0  0  0  0  0  0  0  0  0
   -1.8773    2.8006   -5.9805 H   0  0  0  0  0  0  0  0  0  0  0  0
   -1.8227    1.8705   -4.0330 C   0  0  0  0  0  0  0  0  0  0  0  0
   -0.9079    1.3208   -4.2279 H   0  0  0  0  0  0  0  0  0  0  0  0
   -2.4647    1.7574   -2.7945 C   0  0  0  0  0  0  0  0  0  0  0  0
   -0.4959   -0.3154    1.0281 C   0  0  0  0  0  0  0  0  0  0  0  0
    0.6712   -0.0220    1.2543 O   0  0  0  0  0  0  0  0  0  0  0  0
   -1.4709    0.1748    1.8780 N   0  0  0  0  0  0  0  0  0  0  0  0
   -2.3806   -0.2624    1.7798 H   0  0  0  0  0  0  0  0  0  0  0  0
   -1.1479    0.8031    3.1533 C   0  0  0  0  0  0  0  0  0  0  0  0
   -0.5196    1.6865    2.9976 H   0  0  0  0  0  0  0  0  0  0  0  0
   -2.0636    1.1195    3.6614 H   0  0  0  0  0  0  0  0  0  0  0  0
   -0.6136    0.1009    3.8021 H   0  0  0  0  0  0  0  0  0  0  0  0
  1  2  1  0  0  0  0
  2  3  1  0  0  0  0
  2  4  1  0  0  0  0
  2  5  1  0  0  0  0
  5  6  2  0  0  0  0
  5  7  1  0  0  0  0
  7  8  1  0  0  0  0
  7  9  1  0  0  0  0
  9 10  1  0  0  0  0
  9 11  1  0  0  0  0
  9 29  1  0  0  0  0
 11 12  1  0  0  0  0
 11 13  1  0  0  0  0
 11 14  1  0  0  0  0
 14 15  2  0  0  0  0
 14 28  1  0  0  0  0
 15 16  1  0  0  0  0
 15 17  1  0  0  0  0
 17 18  1  0  0  0  0
 17 19  1  0  0  0  0
 19 20  1  0  0  0  0
 19 28  2  0  0  0  0
 20 21  1  0  0  0  0
 20 22  2  0  0  0  0
 22 23  1  0  0  0  0
 22 24  1  0  0  0  0
 24 25  1  0  0  0  0
 24 26  2  0  0  0  0
 26 27  1  0  0  0  0
 26 28  1  0  0  0  0
 29 30  2  0  0  0  0
 29 31  1  0  0  0  0
 31 32  1  0  0  0  0
 31 33  1  0  0  0  0
 33 34  1  0  0  0  0
 33 35  1  0  0  0  0
 33 36  1  0  0  0  0
M  END
$$$$

  -OEChem-03222214083D

 36 37  0     1  0  0  0  0  0999 V2000
   -3.2670   -4.7733    0.6737 H   0  0  0  0  0  0  0  0  0  0  0  0
   -3.3114   -3.9050    0.0101 C   0  0  0  0  0  0  0  0  0  0  0  0
   -4.2385   -3.3607    0.2049 H   0  0  0  0  0  0  0  0  0  0  0  0
   -3.3114   -4.2532   -1.0256 H   0  0  0  0  0  0  0  0  0  0  0  0
   -2.1162   -3.0030    0.2529 C   0  0  0  0  0  0  0  0  0  0  0  0
   -1.2639   -3.3230    1.0615 O   0  0  0  0  0  0  0  0  0  0  0  0
   -2.0110   -1.8050   -0.4221 N   0  0  0  0  0  0  0  0  0  0  0  0
   -2.7356   -1.5886   -1.1025 H   0  0  0  0  0  0  0  0  0  0  0  0
   -0.8450   -0.9062   -0.3547 C   0  0  1  0  0  0  0  0  0  0  0  0
    0.0157   -1.5425   -0.5908 H   0  0  0  0  0  0  0  0  0  0  0  0
   -0.8882    0.1130   -1.5104 C   0  0  0  0  0  0  0  0  0  0  0  0
    0.0160    0.7291   -1.4672 H   0  0  0  0  0  0  0  0  0  0  0  0
   -0.8385   -0.4620   -2.4398 H   0  0  0  0  0  0  0  0  0  0  0  0
   -2.0832    1.0428   -1.6004 C   0  0  0  0  0  0  0  0  0  0  0  0
   -2.8971    1.5638   -0.6188 C   0  0  0  0  0  0  0  0  0  0  0  0
   -2.7932    1.4269    0.4496 H   0  0  0  0  0  0  0  0  0  0  0  0
   -3.8802    2.3346   -1.2324 N   0  0  0  0  0  0  0  0  0  0  0  0
   -4.5942    2.8745   -0.7471 H   0  0  0  0  0  0  0  0  0  0  0  0
   -3.7089    2.3300   -2.6039 C   0  0  0  0  0  0  0  0  0  0  0  0
   -4.4217    2.9533   -3.6278 C   0  0  0  0  0  0  0  0  0  0  0  0
   -5.2837    3.5698   -3.3982 H   0  0  0  0  0  0  0  0  0  0  0  0
   -4.0065    2.7751   -4.9544 C   0  0  0  0  0  0  0  0  0  0  0  0
   -4.5506    3.2550   -5.7626 H   0  0  0  0  0  0  0  0  0  0  0  0
   -2.8846    1.9823   -5.2387 C   0  0  0  0  0  0  0  0  0  0  0  0
   -2.5606    1.8510   -6.2668 H   0  0  0  0  0  0  0  0  0  0  0  0
   -2.1755    1.3636   -4.1990 C   0  0  0  0  0  0  0  0  0  0  0  0
   -1.3020    0.7598   -4.4207 H   0  0  0  0  0  0  0  0  0  0  0  0
   -2.5989    1.5397   -2.8758 C   0  0  0  0  0  0  0  0  0  0  0  0
   -0.4739   -0.3520    1.0403 C   0  0  0  0  0  0  0  0  0  0  0  0
    0.6987   -0.0950    1.2804 O   0  0  0  0  0  0  0  0  0  0  0  0
   -1.4400    0.1360    1.9017 N   0  0  0  0  0  0  0  0  0  0  0  0
   -2.3690   -0.2484    1.7644 H   0  0  0  0  0  0  0  0  0  0  0  0
   -1.1127    0.6924    3.2091 C   0  0  0  0  0  0  0  0  0  0  0  0
   -0.4379    1.5487    3.1052 H   0  0  0  0  0  0  0  0  0  0  0  0
   -2.0222    1.0321    3.7133 H   0  0  0  0  0  0  0  0  0  0  0  0
   -0.6280   -0.0635    3.8359 H   0  0  0  0  0  0  0  0  0  0  0  0
  1  2  1  0  0  0  0
  2  3  1  0  0  0  0
  2  4  1  0  0  0  0
  2  5  1  0  0  0  0
  5  6  2  0  0  0  0
  5  7  1  0  0  0  0
  7  8  1  0  0  0  0
  7  9  1  0  0  0  0
  9 10  1  0  0  0  0
  9 11  1  0  0  0  0
  9 29  1  0  0  0  0
 11 12  1  0  0  0  0
 11 13  1  0  0  0  0
 11 14  1  0  0  0  0
 14 15  2  0  0  0  0
 14 28  1  0  0  0  0
 15 16  1  0  0  0  0
 15 17  1  0  0  0  0
 17 18  1  0  0  0  0
 17 19  1  0  0  0  0
 19 20  1  0  0  0  0
 19 28  2  0  0  0  0
 20 21  1  0  0  0  0
 20 22  2  0  0  0  0
 22 23  1  0  0  0  0
 22 24  1  0  0  0  0
 24 25  1  0  0  0  0
 24 26  2  0  0  0  0
 26 27  1  0  0  0  0
 26 28  1  0  0  0  0
 29 30  2  0  0  0  0
 29 31  1  0  0  0  0
 31 32  1  0  0  0  0
 31 33  1  0  0  0  0
 33 34  1  0  0  0  0
 33 35  1  0  0  0  0
 33 36  1  0  0  0  0
M  END
$$$$

  -OEChem-03222214083D

 36 37  0     1  0  0  0  0  0999 V2000
   -3.4301   -4.6321    0.6398 H   0  0  0  0  0  0  0  0  0  0  0  0
   -3.4219   -3.7616   -0.0223 C   0  0  0  0  0  0  0  0  0  0  0  0
   -4.3094   -3.1576    0.1809 H   0  0  0  0  0  0  0  0  0  0  0  0
   -3.4531   -4.1076   -1.0583 H   0  0  0  0  0  0  0  0  0  0  0  0
   -2.1678   -2.9412    0.2118 C   0  0  0  0  0  0  0  0  0  0  0  0
   -1.3379   -3.3142    1.0209 O   0  0  0  0  0  0  0  0  0  0  0  0
   -1.9780   -1.7610   -0.4760 N   0  0  0  0  0  0  0  0  0  0  0  0
   -2.6973   -1.4846   -1.1405 H   0  0  0  0  0  0  0  0  0  0  0  0
   -0.7785   -0.9108   -0.3736 C   0  0  1  0  0  0  0  0  0  0  0  0
    0.0719   -1.5735   -0.5711 H   0  0  0  0  0  0  0  0  0  0  0  0
   -0.7656    0.0988   -1.5382 C   0  0  0  0  0  0  0  0  0  0  0  0
    0.1522    0.6924   -1.4735 H   0  0  0  0  0  0  0  0  0  0  0  0
   -0.7042   -0.4772   -2.4652 H   0  0  0  0  0  0  0  0  0  0  0  0
   -1.9372    1.0567   -1.6379 C   0  0  0  0  0  0  0  0  0  0  0  0
   -2.5505    1.7974   -0.6525 C   0  0  0  0  0  0  0  0  0  0  0  0
   -2.2207    1.8958    0.3761 H   0  0  0  0  0  0  0  0  0  0  0  0
   -3.6428    2.4506   -1.2154 N   0  0  0  0  0  0  0  0  0  0  0  0
   -4.2508    3.1073   -0.7294 H   0  0  0  0  0  0  0  0  0  0  0  0
   -3.7501    2.1379   -2.5576 C   0  0  0  0  0  0  0  0  0  0  0  0
   -4.6667    2.5402   -3.5286 C   0  0  0  0  0  0  0  0  0  0  0  0
   -5.4726    3.2192   -3.2729 H   0  0  0  0  0  0  0  0  0  0  0  0
   -4.5309    2.0569   -4.8368 C   0  0  0  0  0  0  0  0  0  0  0  0
   -5.2363    2.3611   -5.6045 H   0  0  0  0  0  0  0  0  0  0  0  0
   -3.4808    1.1837   -5.1567 C   0  0  0  0  0  0  0  0  0  0  0  0
   -3.3744    0.8144   -6.1725 H   0  0  0  0  0  0  0  0  0  0  0  0
   -2.5635    0.7902   -4.1716 C   0  0  0  0  0  0  0  0  0  0  0  0
   -1.7473    0.1234   -4.4280 H   0  0  0  0  0  0  0  0  0  0  0  0
   -2.7065    1.2720   -2.8640 C   0  0  0  0  0  0  0  0  0  0  0  0
   -0.4690   -0.3608    1.0369 C   0  0  0  0  0  0  0  0  0  0  0  0
    0.6944   -0.1500    1.3535 O   0  0  0  0  0  0  0  0  0  0  0  0
   -1.4702    0.1694    1.8308 N   0  0  0  0  0  0  0  0  0  0  0  0
   -2.4122   -0.1317    1.6006 H   0  0  0  0  0  0  0  0  0  0  0  0
   -1.2164    0.6995    3.1650 C   0  0  0  0  0  0  0  0  0  0  0  0
   -0.5190    1.5424    3.1169 H   0  0  0  0  0  0  0  0  0  0  0  0
   -2.1493    1.0506    3.6162 H   0  0  0  0  0  0  0  0  0  0  0  0
   -0.7888   -0.0756    3.8097 H   0  0  0  0  0  0  0  0  0  0  0  0
  1  2  1  0  0  0  0
  2  3  1  0  0  0  0
  2  4  1  0  0  0  0
  2  5  1  0  0  0  0
  5  6  2  0  0  0  0
  5  7  1  0  0  0  0
  7  8  1  0  0  0  0
  7  9  1  0  0  0  0
  9 10  1  0  0  0  0
  9 11  1  0  0  0  0
  9 29  1  0  0  0  0
 11 12  1  0  0  0  0
 11 13  1  0  0  0  0
 11 14  1  0  0  0  0
 14 15  2  0  0  0  0
 14 28  1  0  0  0  0
 15 16  1  0  0  0  0
 15 17  1  0  0  0  0
 17 18  1  0  0  0  0
 17 19  1  0  0  0  0
 19 20  1  0  0  0  0
 19 28  2  0  0  0  0
 20 21  1  0  0  0  0
 20 22  2  0  0  0  0
 22 23  1  0  0  0  0
 22 24  1  0  0  0  0
 24 25  1  0  0  0  0
 24 26  2  0  0  0  0
 26 27  1  0  0  0  0
 26 28  1  0  0  0  0
 29 30  2  0  0  0  0
 29 31  1  0  0  0  0
 31 32  1  0  0  0  0
 31 33  1  0  0  0  0
 33 34  1  0  0  0  0
 33 35  1  0  0  0  0
 33 36  1  0  0  0  0
M  END
$$$$

  -OEChem-03222214083D

 36 37  0     1  0  0  0  0  0999 V2000
   -3.5439   -4.5225    0.6368 H   0  0  0  0  0  0  0  0  0  0  0  0
   -3.4874   -3.6659   -0.0408 C   0  0  0  0  0  0  0  0  0  0  0  0
   -4.3400   -3.0095    0.1491 H   0  0  0  0  0  0  0  0  0  0  0  0
   -3.5364   -4.0278   -1.0705 H   0  0  0  0  0  0  0  0  0  0  0  0
   -2.1905   -2.9114    0.1813 C   0  0  0  0  0  0  0  0  0  0  0  0
   -1.3878   -3.3064    1.0076 O   0  0  0  0  0  0  0  0  0  0  0  0
   -1.9290   -1.7690   -0.5450 N   0  0  0  0  0  0  0  0  0  0  0  0
   -2.6463   -1.4508   -1.1933 H   0  0  0  0  0  0  0  0  0  0  0  0
   -0.7156   -0.9440   -0.4075 C   0  0  1  0  0  0  0  0  0  0  0  0
    0.1365   -1.6190   -0.5472 H   0  0  0  0  0  0  0  0  0  0  0  0
   -0.6561    0.0497   -1.5826 C   0  0  0  0  0  0  0  0  0  0  0  0
    0.2595    0.6429   -1.4886 H   0  0  0  0  0  0  0  0  0  0  0  0
   -0.5700   -0.5177   -2.5133 H   0  0  0  0  0  0  0  0  0  0  0  0
   -1.8288    1.0007   -1.6814 C   0  0  0  0  0  0  0  0  0  0  0  0
   -2.2482    1.9263   -0.7543 C   0  0  0  0  0  0  0  0  0  0  0  0
   -1.7276    2.1827    0.1660 H   0  0  0  0  0  0  0  0  0  0  0  0
   -3.4325    2.4921   -1.2174 N   0  0  0  0  0  0  0  0  0  0  0  0
   -3.9464    3.2412   -0.7567 H   0  0  0  0  0  0  0  0  0  0  0  0
   -3.7913    1.9310   -2.4303 C   0  0  0  0  0  0  0  0  0  0  0  0
   -4.8814    2.1614   -3.2692 C   0  0  0  0  0  0  0  0  0  0  0  0
   -5.6305    2.8992   -3.0030 H   0  0  0  0  0  0  0  0  0  0  0  0
   -4.9939    1.4291   -4.4587 C   0  0  0  0  0  0  0  0  0  0  0  0
   -5.8369    1.5990   -5.1222 H   0  0  0  0  0  0  0  0  0  0  0  0
   -4.0164    0.4804   -4.7948 C   0  0  0  0  0  0  0  0  0  0  0  0
   -4.1026   -0.0801   -5.7208 H   0  0  0  0  0  0  0  0  0  0  0  0
   -2.9244    0.2589   -3.9438 C   0  0  0  0  0  0  0  0  0  0  0  0
   -2.1664   -0.4697   -4.2110 H   0  0  0  0  0  0  0  0  0  0  0  0
   -2.8181    0.9930   -2.7562 C   0  0  0  0  0  0  0  0  0  0  0  0
   -0.4907   -0.3452    0.9988 C   0  0  0  0  0  0  0  0  0  0  0  0
    0.6514   -0.1552    1.3958 O   0  0  0  0  0  0  0  0  0  0  0  0
   -1.5337    0.2379    1.6967 N   0  0  0  0  0  0  0  0  0  0  0  0
   -2.4678    0.0087    1.3706 H   0  0  0  0  0  0  0  0  0  0  0  0
   -1.3743    0.8029    3.0305 C   0  0  0  0  0  0  0  0  0  0  0  0
   -0.6628    1.6352    3.0121 H   0  0  0  0  0  0  0  0  0  0  0  0
   -2.3336    1.1775    3.3998 H   0  0  0  0  0  0  0  0  0  0  0  0
   -1.0079    0.0412    3.7266 H   0  0  0  0  0  0  0  0  0  0  0  0
  1  2  1  0  0  0  0
  2  3  1  0  0  0  0
  2  4  1  0  0  0  0
  2  5  1  0  0  0  0
  5  6  2  0  0  0  0
  5  7  1  0  0  0  0
  7  8  1  0  0  0  0
  7  9  1  0  0  0  0
  9 10  1  0  0  0  0
  9 11  1  0  0  0  0
  9 29  1  0  0  0  0
 11 12  1  0  0  0  0
 11 13  1  0  0  0  0
 11 14  1  0  0  0  0
 14 15  2  0  0  0  0
 14 28  1  0  0  0  0
 15 16  1  0  0  0  0
 15 17  1  0  0  0  0
 17 18  1  0  0  0  0
 17 19  1  0  0  0  0
 19 20  1  0  0  0  0
 19 28  2  0  0  0  0
 20 21  1  0  0  0  0
 20 22  2  0  0  0  0
 22 23  1  0  0  0  0
 22 24  1  0  0  0  0
 24 25  1  0  0  0  0
 24 26  2  0  0  0  0
 26 27  1  0  0  0  0
 26 28  1  0  0  0  0
 29 30  2  0  0  0  0
 29 31  1  0  0  0  0
 31 32  1  0  0  0  0
 31 33  1  0  0  0  0
 33 34  1  0  0  0  0
 33 35  1  0  0  0  0
 33 36  1  0  0  0  0
M  END
$$$$

  -OEChem-03222214083D

 36 37  0     1  0  0  0  0  0999 V2000
   -3.6163   -4.4534    0.6578 H   0  0  0  0  0  0  0  0  0  0  0  0
   -3.5281   -3.6126   -0.0363 C   0  0  0  0  0  0  0  0  0  0  0  0
   -4.3463   -2.9134    0.1513 H   0  0  0  0  0  0  0  0  0  0  0  0
   -3.6074   -3.9906   -1.0583 H   0  0  0  0  0  0  0  0  0  0  0  0
   -2.1949   -2.9155    0.1560 C   0  0  0  0  0  0  0  0  0  0  0  0
   -1.4056   -3.3249    0.9881 O   0  0  0  0  0  0  0  0  0  0  0  0
   -1.8856   -1.8086   -0.6054 N   0  0  0  0  0  0  0  0  0  0  0  0
   -2.6091   -1.4535   -1.2273 H   0  0  0  0  0  0  0  0  0  0  0  0
   -0.6705   -0.9914   -0.4397 C   0  0  1  0  0  0  0  0  0  0  0  0
    0.1893   -1.6641   -0.5333 H   0  0  0  0  0  0  0  0  0  0  0  0
   -0.5873   -0.0029   -1.6159 C   0  0  0  0  0  0  0  0  0  0  0  0
    0.3226    0.5955   -1.5022 H   0  0  0  0  0  0  0  0  0  0  0  0
   -0.4904   -0.5575   -2.5540 H   0  0  0  0  0  0  0  0  0  0  0  0
   -1.7733    0.9280   -1.6992 C   0  0  0  0  0  0  0  0  0  0  0  0
   -2.0290    2.0140   -0.8961 C   0  0  0  0  0  0  0  0  0  0  0  0
   -1.3661    2.3954   -0.1205 H   0  0  0  0  0  0  0  0  0  0  0  0
   -3.2798    2.5152   -1.2468 N   0  0  0  0  0  0  0  0  0  0  0  0
   -3.7173    3.3404   -0.8400 H   0  0  0  0  0  0  0  0  0  0  0  0
   -3.8385    1.7531   -2.2593 C   0  0  0  0  0  0  0  0  0  0  0  0
   -5.0585    1.8493   -2.9281 C   0  0  0  0  0  0  0  0  0  0  0  0
   -5.7575    2.6404   -2.6798 H   0  0  0  0  0  0  0  0  0  0  0  0
   -5.3675    0.9122   -3.9240 C   0  0  0  0  0  0  0  0  0  0  0  0
   -6.3134    0.9769   -4.4543 H   0  0  0  0  0  0  0  0  0  0  0  0
   -4.4543   -0.1053   -4.2403 C   0  0  0  0  0  0  0  0  0  0  0  0
   -4.6956   -0.8255   -5.0166 H   0  0  0  0  0  0  0  0  0  0  0  0
   -3.2281   -0.1894   -3.5652 C   0  0  0  0  0  0  0  0  0  0  0  0
   -2.5171   -0.9693   -3.8188 H   0  0  0  0  0  0  0  0  0  0  0  0
   -2.9287    0.7490   -2.5709 C   0  0  0  0  0  0  0  0  0  0  0  0
   -0.5190   -0.3390    0.9532 C   0  0  0  0  0  0  0  0  0  0  0  0
    0.5979   -0.1599    1.4208 O   0  0  0  0  0  0  0  0  0  0  0  0
   -1.5950    0.2814    1.5640 N   0  0  0  0  0  0  0  0  0  0  0  0
   -2.5059    0.1266    1.1415 H   0  0  0  0  0  0  0  0  0  0  0  0
   -1.5176    0.9197    2.8714 C   0  0  0  0  0  0  0  0  0  0  0  0
   -0.8220    1.7648    2.8463 H   0  0  0  0  0  0  0  0  0  0  0  0
   -2.5030    1.2914    3.1680 H   0  0  0  0  0  0  0  0  0  0  0  0
   -1.1758    0.2042    3.6267 H   0  0  0  0  0  0  0  0  0  0  0  0
  1  2  1  0  0  0  0
  2  3  1  0  0  0  0
  2  4  1  0  0  0  0
  2  5  1  0  0  0  0
  5  6  2  0  0  0  0
  5  7  1  0  0  0  0
  7  8  1  0  0  0  0
  7  9  1  0  0  0  0
  9 10  1  0  0  0  0
  9 11  1  0  0  0  0
  9 29  1  0  0  0  0
 11 12  1  0  0  0  0
 11 13  1  0  0  0  0
 11 14  1  0  0  0  0
 14 15  2  0  0  0  0
 14 28  1  0  0  0  0
 15 16  1  0  0  0  0
 15 17  1  0  0  0  0
 17 18  1  0  0  0  0
 17 19  1  0  0  0  0
 19 20  1  0  0  0  0
 19 28  2  0  0  0  0
 20 21  1  0  0  0  0
 20 22  2  0  0  0  0
 22 23  1  0  0  0  0
 22 24  1  0  0  0  0
 24 25  1  0  0  0  0
 24 26  2  0  0  0  0
 26 27  1  0  0  0  0
 26 28  1  0  0  0  0
 29 30  2  0  0  0  0
 29 31  1  0  0  0  0
 31 32  1  0  0  0  0
 31 33  1  0  0  0  0
 33 34  1  0  0  0  0
 33 35  1  0  0  0  0
 33 36  1  0  0  0  0
M  END
$$$$

  -OEChem-03222214083D

 36 37  0     1  0  0  0  0  0999 V2000
   -3.6022   -4.4493    0.8259 H   0  0  0  0  0  0  0  0  0  0  0  0
   -3.5139   -3.6546    0.0796 C   0  0  0  0  0  0  0  0  0  0  0  0
   -4.3118   -2.9269    0.2448 H   0  0  0  0  0  0  0  0  0  0  0  0
   -3.6279   -4.0912   -0.9155 H   0  0  0  0  0  0  0  0  0  0  0  0
   -2.1612   -2.9781    0.1953 C   0  0  0  0  0  0  0  0  0  0  0  0
   -1.3363   -3.3931    0.9894 O   0  0  0  0  0  0  0  0  0  0  0  0
   -1.8711   -1.8897   -0.6000 N   0  0  0  0  0  0  0  0  0  0  0  0
   -2.6350   -1.5113   -1.1560 H   0  0  0  0  0  0  0  0  0  0  0  0
   -0.6690   -1.0509   -0.4476 C   0  0  1  0  0  0  0  0  0  0  0  0
    0.2043   -1.7069   -0.5323 H   0  0  0  0  0  0  0  0  0  0  0  0
   -0.6038   -0.0523   -1.6164 C   0  0  0  0  0  0  0  0  0  0  0  0
    0.2981    0.5592   -1.5048 H   0  0  0  0  0  0  0  0  0  0  0  0
   -0.5125   -0.5932   -2.5634 H   0  0  0  0  0  0  0  0  0  0  0  0
   -1.8120    0.8508   -1.6644 C   0  0  0  0  0  0  0  0  0  0  0  0
   -1.9447    2.0675   -1.0399 C   0  0  0  0  0  0  0  0  0  0  0  0
   -1.1789    2.5552   -0.4385 H   0  0  0  0  0  0  0  0  0  0  0  0
   -3.2333    2.5310   -1.2948 N   0  0  0  0  0  0  0  0  0  0  0  0
   -3.6091    3.4241   -0.9799 H   0  0  0  0  0  0  0  0  0  0  0  0
   -3.9237    1.6306   -2.0902 C   0  0  0  0  0  0  0  0  0  0  0  0
   -5.2180    1.6508   -2.6095 C   0  0  0  0  0  0  0  0  0  0  0  0
   -5.8791    2.4845   -2.3985 H   0  0  0  0  0  0  0  0  0  0  0  0
   -5.6495    0.5850   -3.4117 C   0  0  0  0  0  0  0  0  0  0  0  0
   -6.6536    0.5913   -3.8260 H   0  0  0  0  0  0  0  0  0  0  0  0
   -4.7824   -0.4824   -3.6907 C   0  0  0  0  0  0  0  0  0  0  0  0
   -5.1169   -1.2978   -4.3255 H   0  0  0  0  0  0  0  0  0  0  0  0
   -3.4828   -0.4925   -3.1650 C   0  0  0  0  0  0  0  0  0  0  0  0
   -2.8046   -1.3080   -3.3978 H   0  0  0  0  0  0  0  0  0  0  0  0
   -3.0655    0.5695   -2.3538 C   0  0  0  0  0  0  0  0  0  0  0  0
   -0.5370   -0.3574    0.9273 C   0  0  0  0  0  0  0  0  0  0  0  0
    0.5728   -0.1612    1.4051 O   0  0  0  0  0  0  0  0  0  0  0  0
   -1.6262    0.2660    1.5108 N   0  0  0  0  0  0  0  0  0  0  0  0
   -2.5168    0.1814    1.0295 H   0  0  0  0  0  0  0  0  0  0  0  0
   -1.5544    1.0170    2.7570 C   0  0  0  0  0  0  0  0  0  0  0  0
   -0.8459    1.8467    2.6651 H   0  0  0  0  0  0  0  0  0  0  0  0
   -2.5368    1.4276    3.0086 H   0  0  0  0  0  0  0  0  0  0  0  0
   -1.2306    0.3660    3.5760 H   0  0  0  0  0  0  0  0  0  0  0  0
  1  2  1  0  0  0  0
  2  3  1  0  0  0  0
  2  4  1  0  0  0  0
  2  5  1  0  0  0  0
  5  6  2  0  0  0  0
  5  7  1  0  0  0  0
  7  8  1  0  0  0  0
  7  9  1  0  0  0  0
  9 10  1  0  0  0  0
  9 11  1  0  0  0  0
  9 29  1  0  0  0  0
 11 12  1  0  0  0  0
 11 13  1  0  0  0  0
 11 14  1  0  0  0  0
 14 15  2  0  0  0  0
 14 28  1  0  0  0  0
 15 16  1  0  0  0  0
 15 17  1  0  0  0  0
 17 18  1  0  0  0  0
 17 19  1  0  0  0  0
 19 20  1  0  0  0  0
 19 28  2  0  0  0  0
 20 21  1  0  0  0  0
 20 22  2  0  0  0  0
 22 23  1  0  0  0  0
 22 24  1  0  0  0  0
 24 25  1  0  0  0  0
 24 26  2  0  0  0  0
 26 27  1  0  0  0  0
 26 28  1  0  0  0  0
 29 30  2  0  0  0  0
 29 31  1  0  0  0  0
 31 32  1  0  0  0  0
 31 33  1  0  0  0  0
 33 34  1  0  0  0  0
 33 35  1  0  0  0  0
 33 36  1  0  0  0  0
M  END
$$$$

  -OEChem-03222214083D

 36 37  0     1  0  0  0  0  0999 V2000
   -3.4870   -4.5113    1.0166 H   0  0  0  0  0  0  0  0  0  0  0  0
   -3.4487   -3.7200    0.2626 C   0  0  0  0  0  0  0  0  0  0  0  0
   -4.2291   -2.9873    0.4818 H   0  0  0  0  0  0  0  0  0  0  0  0
   -3.6359   -4.1599   -0.7200 H   0  0  0  0  0  0  0  0  0  0  0  0
   -2.0879   -3.0502    0.2791 C   0  0  0  0  0  0  0  0  0  0  0  0
   -1.2146   -3.4577    1.0238 O   0  0  0  0  0  0  0  0  0  0  0  0
   -1.8484   -1.9753   -0.5507 N   0  0  0  0  0  0  0  0  0  0  0  0
   -2.6587   -1.5905   -1.0291 H   0  0  0  0  0  0  0  0  0  0  0  0
   -0.6657   -1.1046   -0.4409 C   0  0  1  0  0  0  0  0  0  0  0  0
    0.2240   -1.7368   -0.5372 H   0  0  0  0  0  0  0  0  0  0  0  0
   -0.6420   -0.0902   -1.6003 C   0  0  0  0  0  0  0  0  0  0  0  0
    0.2565    0.5298   -1.5103 H   0  0  0  0  0  0  0  0  0  0  0  0
   -0.5747   -0.6235   -2.5534 H   0  0  0  0  0  0  0  0  0  0  0  0
   -1.8670    0.7937   -1.6088 C   0  0  0  0  0  0  0  0  0  0  0  0
   -1.9002    2.1084   -1.2106 C   0  0  0  0  0  0  0  0  0  0  0  0
   -1.0546    2.6699   -0.8162 H   0  0  0  0  0  0  0  0  0  0  0  0
   -3.2081    2.5616   -1.3643 N   0  0  0  0  0  0  0  0  0  0  0  0
   -3.5303    3.5051   -1.1540 H   0  0  0  0  0  0  0  0  0  0  0  0
   -4.0017    1.5710   -1.9184 C   0  0  0  0  0  0  0  0  0  0  0  0
   -5.3474    1.5597   -2.2849 C   0  0  0  0  0  0  0  0  0  0  0  0
   -5.9673    2.4344   -2.1200 H   0  0  0  0  0  0  0  0  0  0  0  0
   -5.8837    0.4096   -2.8802 C   0  0  0  0  0  0  0  0  0  0  0  0
   -6.9296    0.3883   -3.1729 H   0  0  0  0  0  0  0  0  0  0  0  0
   -5.0663   -0.7052   -3.1190 C   0  0  0  0  0  0  0  0  0  0  0  0
   -5.4797   -1.5840   -3.6055 H   0  0  0  0  0  0  0  0  0  0  0  0
   -3.7151   -0.6813   -2.7478 C   0  0  0  0  0  0  0  0  0  0  0  0
   -3.0770   -1.5318   -2.9670 H   0  0  0  0  0  0  0  0  0  0  0  0
   -3.1944    0.4564   -2.1177 C   0  0  0  0  0  0  0  0  0  0  0  0
   -0.5348   -0.3819    0.9187 C   0  0  0  0  0  0  0  0  0  0  0  0
    0.5740   -0.1534    1.3848 O   0  0  0  0  0  0  0  0  0  0  0  0
   -1.6384    0.2209    1.4972 N   0  0  0  0  0  0  0  0  0  0  0  0
   -2.5078    0.1780    0.9727 H   0  0  0  0  0  0  0  0  0  0  0  0
   -1.5653    1.0653    2.6815 C   0  0  0  0  0  0  0  0  0  0  0  0
   -0.9455    1.9468    2.4870 H   0  0  0  0  0  0  0  0  0  0  0  0
   -2.5667    1.4001    2.9679 H   0  0  0  0  0  0  0  0  0  0  0  0
   -1.1345    0.5089    3.5208 H   0  0  0  0  0  0  0  0  0  0  0  0
  1  2  1  0  0  0  0
  2  3  1  0  0  0  0
  2  4  1  0  0  0  0
  2  5  1  0  0  0  0
  5  6  2  0  0  0  0
  5  7  1  0  0  0  0
  7  8  1  0  0  0  0
  7  9  1  0  0  0  0
  9 10  1  0  0  0  0
  9 11  1  0  0  0  0
  9 29  1  0  0  0  0
 11 12  1  0  0  0  0
 11 13  1  0  0  0  0
 11 14  1  0  0  0  0
 14 15  2  0  0  0  0
 14 28  1  0  0  0  0
 15 16  1  0  0  0  0
 15 17  1  0  0  0  0
 17 18  1  0  0  0  0
 17 19  1  0  0  0  0
 19 20  1  0  0  0  0
 19 28  2  0  0  0  0
 20 21  1  0  0  0  0
 20 22  2  0  0  0  0
 22 23  1  0  0  0  0
 22 24  1  0  0  0  0
 24 25  1  0  0  0  0
 24 26  2  0  0  0  0
 26 27  1  0  0  0  0
 26 28  1  0  0  0  0
 29 30  2  0  0  0  0
 29 31  1  0  0  0  0
 31 32  1  0  0  0  0
 31 33  1  0  0  0  0
 33 34  1  0  0  0  0
 33 35  1  0  0  0  0
 33 36  1  0  0  0  0
M  END
$$$$

  -OEChem-03222214083D

 36 37  0     1  0  0  0  0  0999 V2000
   -3.2832   -4.5868    1.2353 H   0  0  0  0  0  0  0  0  0  0  0  0
   -3.3139   -3.8099    0.4662 C   0  0  0  0  0  0  0  0  0  0  0  0
   -4.0949   -3.0904    0.7240 H   0  0  0  0  0  0  0  0  0  0  0  0
   -3.5561   -4.2735   -0.4930 H   0  0  0  0  0  0  0  0  0  0  0  0
   -1.9703   -3.1112    0.3784 C   0  0  0  0  0  0  0  0  0  0  0  0
   -1.0340   -3.4992    1.0536 O   0  0  0  0  0  0  0  0  0  0  0  0
   -1.8167   -2.0385   -0.4746 N   0  0  0  0  0  0  0  0  0  0  0  0
   -2.6750   -1.6622   -0.8652 H   0  0  0  0  0  0  0  0  0  0  0  0
   -0.6632   -1.1277   -0.4298 C   0  0  1  0  0  0  0  0  0  0  0  0
    0.2412   -1.7317   -0.5628 H   0  0  0  0  0  0  0  0  0  0  0  0
   -0.7050   -0.0999   -1.5785 C   0  0  0  0  0  0  0  0  0  0  0  0
    0.1907    0.5285   -1.5262 H   0  0  0  0  0  0  0  0  0  0  0  0
   -0.6717   -0.6319   -2.5341 H   0  0  0  0  0  0  0  0  0  0  0  0
   -1.9417    0.7715   -1.5513 C   0  0  0  0  0  0  0  0  0  0  0  0
   -1.9005    2.1393   -1.4267 C   0  0  0  0  0  0  0  0  0  0  0  0
   -1.0005    2.7301   -1.2638 H   0  0  0  0  0  0  0  0  0  0  0  0
   -3.2069    2.6124   -1.4861 N   0  0  0  0  0  0  0  0  0  0  0  0
   -3.4807    3.5909   -1.4119 H   0  0  0  0  0  0  0  0  0  0  0  0
   -4.0794    1.5771   -1.7665 C   0  0  0  0  0  0  0  0  0  0  0  0
   -5.4570    1.5809   -1.9800 C   0  0  0  0  0  0  0  0  0  0  0  0
   -6.0240    2.5000   -1.8787 H   0  0  0  0  0  0  0  0  0  0  0  0
   -6.0930    0.3888   -2.3479 C   0  0  0  0  0  0  0  0  0  0  0  0
   -7.1652    0.3778   -2.5226 H   0  0  0  0  0  0  0  0  0  0  0  0
   -5.3400   -0.7801   -2.5266 C   0  0  0  0  0  0  0  0  0  0  0  0
   -5.8302   -1.6927   -2.8535 H   0  0  0  0  0  0  0  0  0  0  0  0
   -3.9555   -0.7680   -2.3085 C   0  0  0  0  0  0  0  0  0  0  0  0
   -3.3802   -1.6654   -2.5106 H   0  0  0  0  0  0  0  0  0  0  0  0
   -3.3281    0.4102   -1.8743 C   0  0  0  0  0  0  0  0  0  0  0  0
   -0.4991   -0.3916    0.9188 C   0  0  0  0  0  0  0  0  0  0  0  0
    0.6196   -0.1329    1.3438 O   0  0  0  0  0  0  0  0  0  0  0  0
   -1.5999    0.1738    1.5398 N   0  0  0  0  0  0  0  0  0  0  0  0
   -2.4786    0.1301    1.0315 H   0  0  0  0  0  0  0  0  0  0  0  0
   -1.5022    1.0457    2.7021 C   0  0  0  0  0  0  0  0  0  0  0  0
   -0.9347    1.9494    2.4570 H   0  0  0  0  0  0  0  0  0  0  0  0
   -2.5010    1.3420    3.0362 H   0  0  0  0  0  0  0  0  0  0  0  0
   -1.0027    0.5272    3.5274 H   0  0  0  0  0  0  0  0  0  0  0  0
  1  2  1  0  0  0  0
  2  3  1  0  0  0  0
  2  4  1  0  0  0  0
  2  5  1  0  0  0  0
  5  6  2  0  0  0  0
  5  7  1  0  0  0  0
  7  8  1  0  0  0  0
  7  9  1  0  0  0  0
  9 10  1  0  0  0  0
  9 11  1  0  0  0  0
  9 29  1  0  0  0  0
 11 12  1  0  0  0  0
 11 13  1  0  0  0  0
 11 14  1  0  0  0  0
 14 15  2  0  0  0  0
 14 28  1  0  0  0  0
 15 16  1  0  0  0  0
 15 17  1  0  0  0  0
 17 18  1  0  0  0  0
 17 19  1  0  0  0  0
 19 20  1  0  0  0  0
 19 28  2  0  0  0  0
 20 21  1  0  0  0  0
 20 22  2  0  0  0  0
 22 23  1  0  0  0  0
 22 24  1  0  0  0  0
 24 25  1  0  0  0  0
 24 26  2  0  0  0  0
 26 27  1  0  0  0  0
 26 28  1  0  0  0  0
 29 30  2  0  0  0  0
 29 31  1  0  0  0  0
 31 32  1  0  0  0  0
 31 33  1  0  0  0  0
 33 34  1  0  0  0  0
 33 35  1  0  0  0  0
 33 36  1  0  0  0  0
M  END
$$$$

  -OEChem-03222214083D

 36 37  0     1  0  0  0  0  0999 V2000
   -2.8724   -4.9833    1.0252 H   0  0  0  0  0  0  0  0  0  0  0  0
   -2.9678   -4.1656    0.3051 C   0  0  0  0  0  0  0  0  0  0  0  0
   -3.9173   -3.6537    0.4787 H   0  0  0  0  0  0  0  0  0  0  0  0
   -2.9641   -4.5844   -0.7040 H   0  0  0  0  0  0  0  0  0  0  0  0
   -1.8166   -3.1913    0.4689 C   0  0  0  0  0  0  0  0  0  0  0  0
   -0.9956   -3.3641    1.3509 O   0  0  0  0  0  0  0  0  0  0  0  0
   -1.6985   -2.1241   -0.3978 N   0  0  0  0  0  0  0  0  0  0  0  0
   -2.3404   -2.0860   -1.1795 H   0  0  0  0  0  0  0  0  0  0  0  0
   -0.6113   -1.1414   -0.3689 C   0  0  1  0  0  0  0  0  0  0  0  0
    0.3335   -1.6808   -0.4957 H   0  0  0  0  0  0  0  0  0  0  0  0
   -0.7380   -0.1203   -1.5155 C   0  0  0  0  0  0  0  0  0  0  0  0
    0.1402    0.5338   -1.4825 H   0  0  0  0  0  0  0  0  0  0  0  0
   -0.6842   -0.6725   -2.4587 H   0  0  0  0  0  0  0  0  0  0  0  0
   -2.0005    0.7327   -1.5606 C   0  0  0  0  0  0  0  0  0  0  0  0
   -1.8584    2.0820   -1.7941 C   0  0  0  0  0  0  0  0  0  0  0  0
   -0.9097    2.6031   -1.9085 H   0  0  0  0  0  0  0  0  0  0  0  0
   -3.1156    2.6628   -1.8147 N   0  0  0  0  0  0  0  0  0  0  0  0
   -3.3061    3.6544   -1.9477 H   0  0  0  0  0  0  0  0  0  0  0  0
   -4.0834    1.6937   -1.6610 C   0  0  0  0  0  0  0  0  0  0  0  0
   -5.4686    1.8470   -1.6567 C   0  0  0  0  0  0  0  0  0  0  0  0
   -5.9122    2.8317   -1.7542 H   0  0  0  0  0  0  0  0  0  0  0  0
   -6.2764    0.7142   -1.5379 C   0  0  0  0  0  0  0  0  0  0  0  0
   -7.3580    0.8144   -1.5338 H   0  0  0  0  0  0  0  0  0  0  0  0
   -5.6850   -0.5498   -1.4456 C   0  0  0  0  0  0  0  0  0  0  0  0
   -6.3145   -1.4323   -1.3765 H   0  0  0  0  0  0  0  0  0  0  0  0
   -4.2891   -0.6844   -1.4550 C   0  0  0  0  0  0  0  0  0  0  0  0
   -3.9000   -1.6888   -1.4223 H   0  0  0  0  0  0  0  0  0  0  0  0
   -3.4574    0.4500   -1.5323 C   0  0  0  0  0  0  0  0  0  0  0  0
   -0.5043   -0.3583    0.9595 C   0  0  0  0  0  0  0  0  0  0  0  0
    0.5958   -0.0106    1.3714 O   0  0  0  0  0  0  0  0  0  0  0  0
   -1.6417    0.1525    1.5600 N   0  0  0  0  0  0  0  0  0  0  0  0
   -2.5168    0.0115    1.0622 H   0  0  0  0  0  0  0  0  0  0  0  0
   -1.6088    1.0785    2.6831 C   0  0  0  0  0  0  0  0  0  0  0  0
   -1.0909    2.0016    2.4033 H   0  0  0  0  0  0  0  0  0  0  0  0
   -2.6269    1.3321    2.9934 H   0  0  0  0  0  0  0  0  0  0  0  0
   -1.0905    0.6268    3.5354 H   0  0  0  0  0  0  0  0  0  0  0  0
  1  2  1  0  0  0  0
  2  3  1  0  0  0  0
  2  4  1  0  0  0  0
  2  5  1  0  0  0  0
  5  6  2  0  0  0  0
  5  7  1  0  0  0  0
  7  8  1  0  0  0  0
  7  9  1  0  0  0  0
  9 10  1  0  0  0  0
  9 11  1  0  0  0  0
  9 29  1  0  0  0  0
 11 12  1  0  0  0  0
 11 13  1  0  0  0  0
 11 14  1  0  0  0  0
 14 15  2  0  0  0  0
 14 28  1  0  0  0  0
 15 16  1  0  0  0  0
 15 17  1  0  0  0  0
 17 18  1  0  0  0  0
 17 19  1  0  0  0  0
 19 20  1  0  0  0  0
 19 28  2  0  0  0  0
 20 21  1  0  0  0  0
 20 22  2  0  0  0  0
 22 23  1  0  0  0  0
 22 24  1  0  0  0  0
 24 25  1  0  0  0  0
 24 26  2  0  0  0  0
 26 27  1  0  0  0  0
 26 28  1  0  0  0  0
 29 30  2  0  0  0  0
 29 31  1  0  0  0  0
 31 32  1  0  0  0  0
 31 33  1  0  0  0  0
 33 34  1  0  0  0  0
 33 35  1  0  0  0  0
 33 36  1  0  0  0  0
M  END
$$$$

  -OEChem-03222214083D

 36 37  0     1  0  0  0  0  0999 V2000
   -2.6825   -5.1391    0.8077 H   0  0  0  0  0  0  0  0  0  0  0  0
   -2.8607   -4.2577    0.1849 C   0  0  0  0  0  0  0  0  0  0  0  0
   -3.8164   -3.8124    0.4710 H   0  0  0  0  0  0  0  0  0  0  0  0
   -2.9090   -4.5721   -0.8604 H   0  0  0  0  0  0  0  0  0  0  0  0
   -1.7400   -3.2529    0.3753 C   0  0  0  0  0  0  0  0  0  0  0  0
   -0.9112   -3.4302    1.2489 O   0  0  0  0  0  0  0  0  0  0  0  0
   -1.6541   -2.1538   -0.4558 N   0  0  0  0  0  0  0  0  0  0  0  0
   -2.3358   -2.0761   -1.2053 H   0  0  0  0  0  0  0  0  0  0  0  0
   -0.5967   -1.1382   -0.3817 C   0  0  1  0  0  0  0  0  0  0  0  0
    0.3642   -1.6460   -0.5196 H   0  0  0  0  0  0  0  0  0  0  0  0
   -0.7595   -0.1095   -1.5112 C   0  0  0  0  0  0  0  0  0  0  0  0
    0.0988    0.5701   -1.4616 H   0  0  0  0  0  0  0  0  0  0  0  0
   -0.6726   -0.6564   -2.4553 H   0  0  0  0  0  0  0  0  0  0  0  0
   -2.0371    0.7222   -1.6005 C   0  0  0  0  0  0  0  0  0  0  0  0
   -1.9120    1.9794   -2.1488 C   0  0  0  0  0  0  0  0  0  0  0  0
   -0.9856    2.4114   -2.5228 H   0  0  0  0  0  0  0  0  0  0  0  0
   -3.1517    2.5951   -2.1426 N   0  0  0  0  0  0  0  0  0  0  0  0
   -3.3472    3.5356   -2.4811 H   0  0  0  0  0  0  0  0  0  0  0  0
   -4.0875    1.7574   -1.5768 C   0  0  0  0  0  0  0  0  0  0  0  0
   -5.4431    2.0041   -1.3679 C   0  0  0  0  0  0  0  0  0  0  0  0
   -5.8828    2.9470   -1.6740 H   0  0  0  0  0  0  0  0  0  0  0  0
   -6.2251    1.0230   -0.7557 C   0  0  0  0  0  0  0  0  0  0  0  0
   -7.2832    1.1969   -0.5824 H   0  0  0  0  0  0  0  0  0  0  0  0
   -5.6354   -0.1817   -0.3621 C   0  0  0  0  0  0  0  0  0  0  0  0
   -6.2419   -0.9425    0.1206 H   0  0  0  0  0  0  0  0  0  0  0  0
   -4.2697   -0.4110   -0.5812 C   0  0  0  0  0  0  0  0  0  0  0  0
   -3.8852   -1.3557   -0.2372 H   0  0  0  0  0  0  0  0  0  0  0  0
   -3.4626    0.5616   -1.2051 C   0  0  0  0  0  0  0  0  0  0  0  0
   -0.5071   -0.3867    0.9660 C   0  0  0  0  0  0  0  0  0  0  0  0
    0.5880   -0.0473    1.3970 O   0  0  0  0  0  0  0  0  0  0  0  0
   -1.6515    0.0831    1.5865 N   0  0  0  0  0  0  0  0  0  0  0  0
   -2.5158   -0.0057    1.0592 H   0  0  0  0  0  0  0  0  0  0  0  0
   -1.6249    0.9746    2.7377 C   0  0  0  0  0  0  0  0  0  0  0  0
   -1.1853    1.9392    2.4640 H   0  0  0  0  0  0  0  0  0  0  0  0
   -2.6410    1.1455    3.1056 H   0  0  0  0  0  0  0  0  0  0  0  0
   -1.0356    0.5349    3.5494 H   0  0  0  0  0  0  0  0  0  0  0  0
  1  2  1  0  0  0  0
  2  3  1  0  0  0  0
  2  4  1  0  0  0  0
  2  5  1  0  0  0  0
  5  6  2  0  0  0  0
  5  7  1  0  0  0  0
  7  8  1  0  0  0  0
  7  9  1  0  0  0  0
  9 10  1  0  0  0  0
  9 11  1  0  0  0  0
  9 29  1  0  0  0  0
 11 12  1  0  0  0  0
 11 13  1  0  0  0  0
 11 14  1  0  0  0  0
 14 15  2  0  0  0  0
 14 28  1  0  0  0  0
 15 16  1  0  0  0  0
 15 17  1  0  0  0  0
 17 18  1  0  0  0  0
 17 19  1  0  0  0  0
 19 20  1  0  0  0  0
 19 28  2  0  0  0  0
 20 21  1  0  0  0  0
 20 22  2  0  0  0  0
 22 23  1  0  0  0  0
 22 24  1  0  0  0  0
 24 25  1  0  0  0  0
 24 26  2  0  0  0  0
 26 27  1  0  0  0  0
 26 28  1  0  0  0  0
 29 30  2  0  0  0  0
 29 31  1  0  0  0  0
 31 32  1  0  0  0  0
 31 33  1  0  0  0  0
 33 34  1  0  0  0  0
 33 35  1  0  0  0  0
 33 36  1  0  0  0  0
M  END
$$$$

  -OEChem-03222214083D

 36 37  0     1  0  0  0  0  0999 V2000
   -2.8948   -5.0052    0.8490 H   0  0  0  0  0  0  0  0  0  0  0  0
   -2.9765   -4.1680    0.1497 C   0  0  0  0  0  0  0  0  0  0  0  0
   -3.9085   -3.6339    0.3490 H   0  0  0  0  0  0  0  0  0  0  0  0
   -2.9997   -4.5624   -0.8690 H   0  0  0  0  0  0  0  0  0  0  0  0
   -1.7935   -3.2326    0.3154 C   0  0  0  0  0  0  0  0  0  0  0  0
   -0.9257   -3.4881    1.1299 O   0  0  0  0  0  0  0  0  0  0  0  0
   -1.7059   -2.0952   -0.4605 N   0  0  0  0  0  0  0  0  0  0  0  0
   -2.4558   -1.9192   -1.1244 H   0  0  0  0  0  0  0  0  0  0  0  0
   -0.6175   -1.1109   -0.3726 C   0  0  1  0  0  0  0  0  0  0  0  0
    0.3175   -1.6485   -0.5665 H   0  0  0  0  0  0  0  0  0  0  0  0
   -0.7905   -0.0718   -1.4880 C   0  0  0  0  0  0  0  0  0  0  0  0
    0.0687    0.6072   -1.4458 H   0  0  0  0  0  0  0  0  0  0  0  0
   -0.7220   -0.6078   -2.4400 H   0  0  0  0  0  0  0  0  0  0  0  0
   -2.0618    0.7698   -1.5392 C   0  0  0  0  0  0  0  0  0  0  0  0
   -2.0364    1.8858   -2.3441 C   0  0  0  0  0  0  0  0  0  0  0  0
   -1.1792    2.2202   -2.9257 H   0  0  0  0  0  0  0  0  0  0  0  0
   -3.2776    2.4982   -2.2933 N   0  0  0  0  0  0  0  0  0  0  0  0
   -3.5372    3.3502   -2.7875 H   0  0  0  0  0  0  0  0  0  0  0  0
   -4.1172    1.7919   -1.4587 C   0  0  0  0  0  0  0  0  0  0  0  0
   -5.4434    2.0702   -1.1328 C   0  0  0  0  0  0  0  0  0  0  0  0
   -5.9433    2.9340   -1.5573 H   0  0  0  0  0  0  0  0  0  0  0  0
   -6.1178    1.2242   -0.2500 C   0  0  0  0  0  0  0  0  0  0  0  0
   -7.1511    1.4270    0.0173 H   0  0  0  0  0  0  0  0  0  0  0  0
   -5.4526    0.1204    0.2930 C   0  0  0  0  0  0  0  0  0  0  0  0
   -5.9739   -0.5322    0.9876 H   0  0  0  0  0  0  0  0  0  0  0  0
   -4.1183   -0.1431   -0.0461 C   0  0  0  0  0  0  0  0  0  0  0  0
   -3.6597   -0.9977    0.4276 H   0  0  0  0  0  0  0  0  0  0  0  0
   -3.4219    0.6933   -0.9425 C   0  0  0  0  0  0  0  0  0  0  0  0
   -0.4114   -0.3988    0.9852 C   0  0  0  0  0  0  0  0  0  0  0  0
    0.7274   -0.1520    1.3621 O   0  0  0  0  0  0  0  0  0  0  0  0
   -1.4755    0.1076    1.7091 N   0  0  0  0  0  0  0  0  0  0  0  0
   -2.3687    0.1355    1.2277 H   0  0  0  0  0  0  0  0  0  0  0  0
   -1.3055    0.9309    2.8987 C   0  0  0  0  0  0  0  0  0  0  0  0
   -0.7783    1.8582    2.6516 H   0  0  0  0  0  0  0  0  0  0  0  0
   -2.2814    1.1869    3.3219 H   0  0  0  0  0  0  0  0  0  0  0  0
   -0.7318    0.3901    3.6589 H   0  0  0  0  0  0  0  0  0  0  0  0
  1  2  1  0  0  0  0
  2  3  1  0  0  0  0
  2  4  1  0  0  0  0
  2  5  1  0  0  0  0
  5  6  2  0  0  0  0
  5  7  1  0  0  0  0
  7  8  1  0  0  0  0
  7  9  1  0  0  0  0
  9 10  1  0  0  0  0
  9 11  1  0  0  0  0
  9 29  1  0  0  0  0
 11 12  1  0  0  0  0
 11 13  1  0  0  0  0
 11 14  1  0  0  0  0
 14 15  2  0  0  0  0
 14 28  1  0  0  0  0
 15 16  1  0  0  0  0
 15 17  1  0  0  0  0
 17 18  1  0  0  0  0
 17 19  1  0  0  0  0
 19 20  1  0  0  0  0
 19 28  2  0  0  0  0
 20 21  1  0  0  0  0
 20 22  2  0  0  0  0
 22 23  1  0  0  0  0
 22 24  1  0  0  0  0
 24 25  1  0  0  0  0
 24 26  2  0  0  0  0
 26 27  1  0  0  0  0
 26 28  1  0  0  0  0
 29 30  2  0  0  0  0
 29 31  1  0  0  0  0
 31 32  1  0  0  0  0
 31 33  1  0  0  0  0
 33 34  1  0  0  0  0
 33 35  1  0  0  0  0
 33 36  1  0  0  0  0
M  END
$$$$

  -OEChem-03222214083D

 36 37  0     1  0  0  0  0  0999 V2000
   -2.5570   -4.8712    1.1475 H   0  0  0  0  0  0  0  0  0  0  0  0
   -2.7866   -4.0078    0.5165 C   0  0  0  0  0  0  0  0  0  0  0  0
   -3.6699   -3.5046    0.9171 H   0  0  0  0  0  0  0  0  0  0  0  0
   -3.0024   -4.3601   -0.4949 H   0  0  0  0  0  0  0  0  0  0  0  0
   -1.6090   -3.0519    0.4928 C   0  0  0  0  0  0  0  0  0  0  0  0
   -0.6064   -3.3045    1.1354 O   0  0  0  0  0  0  0  0  0  0  0  0
   -1.6842   -1.8905   -0.2469 N   0  0  0  0  0  0  0  0  0  0  0  0
   -2.5477   -1.7098   -0.7518 H   0  0  0  0  0  0  0  0  0  0  0  0
   -0.6114   -0.8858   -0.3258 C   0  0  1  0  0  0  0  0  0  0  0  0
    0.2650   -1.4664   -0.6367 H   0  0  0  0  0  0  0  0  0  0  0  0
   -0.8714    0.0702   -1.4973 C   0  0  0  0  0  0  0  0  0  0  0  0
    0.0657    0.6005   -1.6997 H   0  0  0  0  0  0  0  0  0  0  0  0
   -1.0941   -0.5310   -2.3848 H   0  0  0  0  0  0  0  0  0  0  0  0
   -1.9627    1.1171   -1.3499 C   0  0  0  0  0  0  0  0  0  0  0  0
   -2.1776    1.9763   -2.4035 C   0  0  0  0  0  0  0  0  0  0  0  0
   -1.5405    2.0591   -3.2819 H   0  0  0  0  0  0  0  0  0  0  0  0
   -3.3095    2.7319   -2.1410 N   0  0  0  0  0  0  0  0  0  0  0  0
   -3.6779    3.4721   -2.7358 H   0  0  0  0  0  0  0  0  0  0  0  0
   -3.9178    2.2781   -0.9905 C   0  0  0  0  0  0  0  0  0  0  0  0
   -5.1155    2.6953   -0.4123 C   0  0  0  0  0  0  0  0  0  0  0  0
   -5.6701    3.5250   -0.8366 H   0  0  0  0  0  0  0  0  0  0  0  0
   -5.6011    2.0170    0.7085 C   0  0  0  0  0  0  0  0  0  0  0  0
   -6.5329    2.3284    1.1719 H   0  0  0  0  0  0  0  0  0  0  0  0
   -4.8967    0.9175    1.2109 C   0  0  0  0  0  0  0  0  0  0  0  0
   -5.2905    0.3705    2.0628 H   0  0  0  0  0  0  0  0  0  0  0  0
   -3.6943    0.5135    0.6145 C   0  0  0  0  0  0  0  0  0  0  0  0
   -3.2119   -0.3664    1.0157 H   0  0  0  0  0  0  0  0  0  0  0  0
   -3.1574    1.2254   -0.4753 C   0  0  0  0  0  0  0  0  0  0  0  0
   -0.0939   -0.1519    0.9399 C   0  0  0  0  0  0  0  0  0  0  0  0
    1.1075    0.0734    1.0226 O   0  0  0  0  0  0  0  0  0  0  0  0
   -0.9155    0.3814    1.9160 N   0  0  0  0  0  0  0  0  0  0  0  0
   -1.9014    0.4341    1.6931 H   0  0  0  0  0  0  0  0  0  0  0  0
   -0.4189    1.2027    3.0129 C   0  0  0  0  0  0  0  0  0  0  0  0
   -0.0176    2.1477    2.6325 H   0  0  0  0  0  0  0  0  0  0  0  0
   -1.2296    1.4245    3.7134 H   0  0  0  0  0  0  0  0  0  0  0  0
    0.3717    0.6779    3.5597 H   0  0  0  0  0  0  0  0  0  0  0  0
  1  2  1  0  0  0  0
  2  3  1  0  0  0  0
  2  4  1  0  0  0  0
  2  5  1  0  0  0  0
  5  6  2  0  0  0  0
  5  7  1  0  0  0  0
  7  8  1  0  0  0  0
  7  9  1  0  0  0  0
  9 10  1  0  0  0  0
  9 11  1  0  0  0  0
  9 29  1  0  0  0  0
 11 12  1  0  0  0  0
 11 13  1  0  0  0  0
 11 14  1  0  0  0  0
 14 15  2  0  0  0  0
 14 28  1  0  0  0  0
 15 16  1  0  0  0  0
 15 17  1  0  0  0  0
 17 18  1  0  0  0  0
 17 19  1  0  0  0  0
 19 20  1  0  0  0  0
 19 28  2  0  0  0  0
 20 21  1  0  0  0  0
 20 22  2  0  0  0  0
 22 23  1  0  0  0  0
 22 24  1  0  0  0  0
 24 25  1  0  0  0  0
 24 26  2  0  0  0  0
 26 27  1  0  0  0  0
 26 28  1  0  0  0  0
 29 30  2  0  0  0  0
 29 31  1  0  0  0  0
 31 32  1  0  0  0  0
 31 33  1  0  0  0  0
 33 34  1  0  0  0  0
 33 35  1  0  0  0  0
 33 36  1  0  0  0  0
M  END
$$$$

  -OEChem-03222214083D

 36 37  0     1  0  0  0  0  0999 V2000
   -3.0747   -4.9004    0.6493 H   0  0  0  0  0  0  0  0  0  0  0  0
   -3.2225   -3.9549    0.1199 C   0  0  0  0  0  0  0  0  0  0  0  0
   -4.0716   -3.4314    0.5660 H   0  0  0  0  0  0  0  0  0  0  0  0
   -3.4445   -4.1697   -0.9282 H   0  0  0  0  0  0  0  0  0  0  0  0
   -1.9731   -3.1005    0.2196 C   0  0  0  0  0  0  0  0  0  0  0  0
   -0.9837   -3.5282    0.7861 O   0  0  0  0  0  0  0  0  0  0  0  0
   -1.9716   -1.8241   -0.3021 N   0  0  0  0  0  0  0  0  0  0  0  0
   -2.8224   -1.5045   -0.7579 H   0  0  0  0  0  0  0  0  0  0  0  0
   -0.8004   -0.9322   -0.3296 C   0  0  1  0  0  0  0  0  0  0  0  0
   -0.0325   -1.6023   -0.7352 H   0  0  0  0  0  0  0  0  0  0  0  0
   -0.8882    0.1276   -1.4408 C   0  0  0  0  0  0  0  0  0  0  0  0
    0.1190    0.5393   -1.5679 H   0  0  0  0  0  0  0  0  0  0  0  0
   -1.1362   -0.3905   -2.3729 H   0  0  0  0  0  0  0  0  0  0  0  0
   -1.8270    1.3139   -1.3013 C   0  0  0  0  0  0  0  0  0  0  0  0
   -2.0923    2.0591   -2.4293 C   0  0  0  0  0  0  0  0  0  0  0  0
   -1.5742    1.9548   -3.3803 H   0  0  0  0  0  0  0  0  0  0  0  0
   -3.0743    2.9925   -2.1344 N   0  0  0  0  0  0  0  0  0  0  0  0
   -3.4222    3.7084   -2.7692 H   0  0  0  0  0  0  0  0  0  0  0  0
   -3.5770    2.7547   -0.8740 C   0  0  0  0  0  0  0  0  0  0  0  0
   -4.6360    3.3776   -0.2148 C   0  0  0  0  0  0  0  0  0  0  0  0
   -5.1366    4.2292   -0.6621 H   0  0  0  0  0  0  0  0  0  0  0  0
   -5.0599    2.8706    1.0170 C   0  0  0  0  0  0  0  0  0  0  0  0
   -5.8844    3.3407    1.5452 H   0  0  0  0  0  0  0  0  0  0  0  0
   -4.4433    1.7301    1.5446 C   0  0  0  0  0  0  0  0  0  0  0  0
   -4.8013    1.3082    2.4790 H   0  0  0  0  0  0  0  0  0  0  0  0
   -3.3802    1.1226    0.8612 C   0  0  0  0  0  0  0  0  0  0  0  0
   -2.9788    0.2037    1.2504 H   0  0  0  0  0  0  0  0  0  0  0  0
   -2.8879    1.6684   -0.3323 C   0  0  0  0  0  0  0  0  0  0  0  0
   -0.0795   -0.4829    0.9703 C   0  0  0  0  0  0  0  0  0  0  0  0
    1.1316   -0.3024    0.9160 O   0  0  0  0  0  0  0  0  0  0  0  0
   -0.7288   -0.0520    2.1118 N   0  0  0  0  0  0  0  0  0  0  0  0
   -1.7037   -0.3075    2.2027 H   0  0  0  0  0  0  0  0  0  0  0  0
   -0.0305    0.4487    3.2892 C   0  0  0  0  0  0  0  0  0  0  0  0
    0.5525    1.3411    3.0382 H   0  0  0  0  0  0  0  0  0  0  0  0
    0.6457   -0.3152    3.6873 H   0  0  0  0  0  0  0  0  0  0  0  0
   -0.7497    0.7166    4.0687 H   0  0  0  0  0  0  0  0  0  0  0  0
  1  2  1  0  0  0  0
  2  3  1  0  0  0  0
  2  4  1  0  0  0  0
  2  5  1  0  0  0  0
  5  6  2  0  0  0  0
  5  7  1  0  0  0  0
  7  8  1  0  0  0  0
  7  9  1  0  0  0  0
  9 10  1  0  0  0  0
  9 11  1  0  0  0  0
  9 29  1  0  0  0  0
 11 12  1  0  0  0  0
 11 13  1  0  0  0  0
 11 14  1  0  0  0  0
 14 15  2  0  0  0  0
 14 28  1  0  0  0  0
 15 16  1  0  0  0  0
 15 17  1  0  0  0  0
 17 18  1  0  0  0  0
 17 19  1  0  0  0  0
 19 20  1  0  0  0  0
 19 28  2  0  0  0  0
 20 21  1  0  0  0  0
 20 22  2  0  0  0  0
 22 23  1  0  0  0  0
 22 24  1  0  0  0  0
 24 25  1  0  0  0  0
 24 26  2  0  0  0  0
 26 27  1  0  0  0  0
 26 28  1  0  0  0  0
 29 30  2  0  0  0  0
 29 31  1  0  0  0  0
 31 32  1  0  0  0  0
 31 33  1  0  0  0  0
 33 34  1  0  0  0  0
 33 35  1  0  0  0  0
 33 36  1  0  0  0  0
M  END
$$$$

  -OEChem-03222214083D

 36 37  0     1  0  0  0  0  0999 V2000
   -3.1911   -5.1012    0.1757 H   0  0  0  0  0  0  0  0  0  0  0  0
   -3.2336   -4.1459   -0.3554 C   0  0  0  0  0  0  0  0  0  0  0  0
   -4.1260   -3.6046   -0.0329 H   0  0  0  0  0  0  0  0  0  0  0  0
   -3.3015   -4.3424   -1.4280 H   0  0  0  0  0  0  0  0  0  0  0  0
   -1.9917   -3.3277   -0.0567 C   0  0  0  0  0  0  0  0  0  0  0  0
   -1.0971   -3.8045    0.6174 O   0  0  0  0  0  0  0  0  0  0  0  0
   -1.8809   -2.0460   -0.5568 N   0  0  0  0  0  0  0  0  0  0  0  0
   -2.6789   -1.6806   -1.0684 H   0  0  0  0  0  0  0  0  0  0  0  0
   -0.7826   -1.1136   -0.2377 C   0  0  1  0  0  0  0  0  0  0  0  0
    0.1472   -1.6609   -0.4324 H   0  0  0  0  0  0  0  0  0  0  0  0
   -0.7948    0.0094   -1.3031 C   0  0  0  0  0  0  0  0  0  0  0  0
    0.1702    0.5195   -1.2138 H   0  0  0  0  0  0  0  0  0  0  0  0
   -0.8101   -0.4628   -2.2907 H   0  0  0  0  0  0  0  0  0  0  0  0
   -1.8478    1.1038   -1.2674 C   0  0  0  0  0  0  0  0  0  0  0  0
   -2.2590    1.6689   -2.4557 C   0  0  0  0  0  0  0  0  0  0  0  0
   -1.9980    1.3001   -3.4456 H   0  0  0  0  0  0  0  0  0  0  0  0
   -3.1070    2.7326   -2.1831 N   0  0  0  0  0  0  0  0  0  0  0  0
   -3.5612    3.3208   -2.8792 H   0  0  0  0  0  0  0  0  0  0  0  0
   -3.0768    3.0102   -0.8342 C   0  0  0  0  0  0  0  0  0  0  0  0
   -3.6573    4.0684   -0.1357 C   0  0  0  0  0  0  0  0  0  0  0  0
   -4.3229    4.7606   -0.6395 H   0  0  0  0  0  0  0  0  0  0  0  0
   -3.3352    4.2474    1.2132 C   0  0  0  0  0  0  0  0  0  0  0  0
   -3.7712    5.0681    1.7753 H   0  0  0  0  0  0  0  0  0  0  0  0
   -2.4003    3.3993    1.8180 C   0  0  0  0  0  0  0  0  0  0  0  0
   -2.0960    3.5720    2.8460 H   0  0  0  0  0  0  0  0  0  0  0  0
   -1.8287    2.3449    1.0918 C   0  0  0  0  0  0  0  0  0  0  0  0
   -1.0402    1.7687    1.5570 H   0  0  0  0  0  0  0  0  0  0  0  0
   -2.2293    2.0835   -0.2271 C   0  0  0  0  0  0  0  0  0  0  0  0
   -0.6966   -0.8041    1.2719 C   0  0  0  0  0  0  0  0  0  0  0  0
    0.3943   -0.6404    1.8024 O   0  0  0  0  0  0  0  0  0  0  0  0
   -1.8396   -0.5253    2.0019 N   0  0  0  0  0  0  0  0  0  0  0  0
   -2.7261   -0.5928    1.5128 H   0  0  0  0  0  0  0  0  0  0  0  0
   -1.8373   -0.2790    3.4389 C   0  0  0  0  0  0  0  0  0  0  0  0
   -1.1770    0.5583    3.6877 H   0  0  0  0  0  0  0  0  0  0  0  0
   -2.8471   -0.0329    3.7808 H   0  0  0  0  0  0  0  0  0  0  0  0
   -1.4945   -1.1688    3.9773 H   0  0  0  0  0  0  0  0  0  0  0  0
  1  2  1  0  0  0  0
  2  3  1  0  0  0  0
  2  4  1  0  0  0  0
  2  5  1  0  0  0  0
  5  6  2  0  0  0  0
  5  7  1  0  0  0  0
  7  8  1  0  0  0  0
  7  9  1  0  0  0  0
  9 10  1  0  0  0  0
  9 11  1  0  0  0  0
  9 29  1  0  0  0  0
 11 12  1  0  0  0  0
 11 13  1  0  0  0  0
 11 14  1  0  0  0  0
 14 15  2  0  0  0  0
 14 28  1  0  0  0  0
 15 16  1  0  0  0  0
 15 17  1  0  0  0  0
 17 18  1  0  0  0  0
 17 19  1  0  0  0  0
 19 20  1  0  0  0  0
 19 28  2  0  0  0  0
 20 21  1  0  0  0  0
 20 22  2  0  0  0  0
 22 23  1  0  0  0  0
 22 24  1  0  0  0  0
 24 25  1  0  0  0  0
 24 26  2  0  0  0  0
 26 27  1  0  0  0  0
 26 28  1  0  0  0  0
 29 30  2  0  0  0  0
 29 31  1  0  0  0  0
 31 32  1  0  0  0  0
 31 33  1  0  0  0  0
 33 34  1  0  0  0  0
 33 35  1  0  0  0  0
 33 36  1  0  0  0  0
M  END
$$$$

  -OEChem-03222214083D

 36 37  0     1  0  0  0  0  0999 V2000
   -3.0806   -5.0246    0.5044 H   0  0  0  0  0  0  0  0  0  0  0  0
   -3.1633   -4.1004   -0.0748 C   0  0  0  0  0  0  0  0  0  0  0  0
   -4.0367   -3.5446    0.2744 H   0  0  0  0  0  0  0  0  0  0  0  0
   -3.2980   -4.3562   -1.1284 H   0  0  0  0  0  0  0  0  0  0  0  0
   -1.9100   -3.2633    0.0985 C   0  0  0  0  0  0  0  0  0  0  0  0
   -0.9840   -3.6878    0.7650 O   0  0  0  0  0  0  0  0  0  0  0  0
   -1.8208   -2.0290   -0.5132 N   0  0  0  0  0  0  0  0  0  0  0  0
   -2.6493   -1.6960   -0.9965 H   0  0  0  0  0  0  0  0  0  0  0  0
   -0.7166   -1.0734   -0.3009 C   0  0  1  0  0  0  0  0  0  0  0  0
    0.2130   -1.6173   -0.5046 H   0  0  0  0  0  0  0  0  0  0  0  0
   -0.8139    0.0013   -1.4078 C   0  0  0  0  0  0  0  0  0  0  0  0
    0.1399    0.5390   -1.4146 H   0  0  0  0  0  0  0  0  0  0  0  0
   -0.8993   -0.5012   -2.3766 H   0  0  0  0  0  0  0  0  0  0  0  0
   -1.9032    1.0478   -1.2836 C   0  0  0  0  0  0  0  0  0  0  0  0
   -2.6864    1.3919   -2.3630 C   0  0  0  0  0  0  0  0  0  0  0  0
   -2.6956    0.8771   -3.3213 H   0  0  0  0  0  0  0  0  0  0  0  0
   -3.4757    2.4795   -2.0120 N   0  0  0  0  0  0  0  0  0  0  0  0
   -4.1430    2.9478   -2.6224 H   0  0  0  0  0  0  0  0  0  0  0  0
   -3.0869    2.9592   -0.7778 C   0  0  0  0  0  0  0  0  0  0  0  0
   -3.5111    4.0898   -0.0799 C   0  0  0  0  0  0  0  0  0  0  0  0
   -4.3180    4.7029   -0.4655 H   0  0  0  0  0  0  0  0  0  0  0  0
   -2.8605    4.4381    1.1091 C   0  0  0  0  0  0  0  0  0  0  0  0
   -3.1739    5.3162    1.6664 H   0  0  0  0  0  0  0  0  0  0  0  0
   -1.7756    3.6737    1.5573 C   0  0  0  0  0  0  0  0  0  0  0  0
   -1.2411    3.9637    2.4571 H   0  0  0  0  0  0  0  0  0  0  0  0
   -1.3622    2.5431    0.8390 C   0  0  0  0  0  0  0  0  0  0  0  0
   -0.4880    1.9977    1.1763 H   0  0  0  0  0  0  0  0  0  0  0  0
   -2.0615    2.1410   -0.3085 C   0  0  0  0  0  0  0  0  0  0  0  0
   -0.5788   -0.6282    1.1710 C   0  0  0  0  0  0  0  0  0  0  0  0
    0.5317   -0.4488    1.6546 O   0  0  0  0  0  0  0  0  0  0  0  0
   -1.6952   -0.2785    1.9111 N   0  0  0  0  0  0  0  0  0  0  0  0
   -2.5888   -0.2891    1.4301 H   0  0  0  0  0  0  0  0  0  0  0  0
   -1.6423    0.1491    3.3034 C   0  0  0  0  0  0  0  0  0  0  0  0
   -0.9677    1.0030    3.4234 H   0  0  0  0  0  0  0  0  0  0  0  0
   -2.6381    0.4485    3.6429 H   0  0  0  0  0  0  0  0  0  0  0  0
   -1.2896   -0.6699    3.9387 H   0  0  0  0  0  0  0  0  0  0  0  0
  1  2  1  0  0  0  0
  2  3  1  0  0  0  0
  2  4  1  0  0  0  0
  2  5  1  0  0  0  0
  5  6  2  0  0  0  0
  5  7  1  0  0  0  0
  7  8  1  0  0  0  0
  7  9  1  0  0  0  0
  9 10  1  0  0  0  0
  9 11  1  0  0  0  0
  9 29  1  0  0  0  0
 11 12  1  0  0  0  0
 11 13  1  0  0  0  0
 11 14  1  0  0  0  0
 14 15  2  0  0  0  0
 14 28  1  0  0  0  0
 15 16  1  0  0  0  0
 15 17  1  0  0  0  0
 17 18  1  0  0  0  0
 17 19  1  0  0  0  0
 19 20  1  0  0  0  0
 19 28  2  0  0  0  0
 20 21  1  0  0  0  0
 20 22  2  0  0  0  0
 22 23  1  0  0  0  0
 22 24  1  0  0  0  0
 24 25  1  0  0  0  0
 24 26  2  0  0  0  0
 26 27  1  0  0  0  0
 26 28  1  0  0  0  0
 29 30  2  0  0  0  0
 29 31  1  0  0  0  0
 31 32  1  0  0  0  0
 31 33  1  0  0  0  0
 33 34  1  0  0  0  0
 33 35  1  0  0  0  0
 33 36  1  0  0  0  0
M  END
$$$$

  -OEChem-03222214083D

 36 37  0     1  0  0  0  0  0999 V2000
   -3.2251   -4.8790    0.6019 H   0  0  0  0  0  0  0  0  0  0  0  0
   -3.2617   -3.9730   -0.0094 C   0  0  0  0  0  0  0  0  0  0  0  0
   -4.1080   -3.3639    0.3166 H   0  0  0  0  0  0  0  0  0  0  0  0
   -3.4061   -4.2594   -1.0538 H   0  0  0  0  0  0  0  0  0  0  0  0
   -1.9701   -3.1914    0.1401 C   0  0  0  0  0  0  0  0  0  0  0  0
   -1.0723   -3.6285    0.8365 O   0  0  0  0  0  0  0  0  0  0  0  0
   -1.8153   -1.9930   -0.5269 N   0  0  0  0  0  0  0  0  0  0  0  0
   -2.6289   -1.6376   -1.0182 H   0  0  0  0  0  0  0  0  0  0  0  0
   -0.6845   -1.0704   -0.3132 C   0  0  1  0  0  0  0  0  0  0  0  0
    0.2317   -1.6505   -0.4734 H   0  0  0  0  0  0  0  0  0  0  0  0
   -0.7198   -0.0142   -1.4378 C   0  0  0  0  0  0  0  0  0  0  0  0
    0.2493    0.4956   -1.4502 H   0  0  0  0  0  0  0  0  0  0  0  0
   -0.8233   -0.5238   -2.4011 H   0  0  0  0  0  0  0  0  0  0  0  0
   -1.7907    1.0452   -1.3064 C   0  0  0  0  0  0  0  0  0  0  0  0
   -2.7783    1.2394   -2.2446 C   0  0  0  0  0  0  0  0  0  0  0  0
   -2.9553    0.6090   -3.1134 H   0  0  0  0  0  0  0  0  0  0  0  0
   -3.5015    2.3719   -1.8865 N   0  0  0  0  0  0  0  0  0  0  0  0
   -4.2801    2.7666   -2.4112 H   0  0  0  0  0  0  0  0  0  0  0  0
   -2.9138    2.9845   -0.7952 C   0  0  0  0  0  0  0  0  0  0  0  0
   -3.2264    4.1752   -0.1397 C   0  0  0  0  0  0  0  0  0  0  0  0
   -4.0865    4.7602   -0.4461 H   0  0  0  0  0  0  0  0  0  0  0  0
   -2.4021    4.6146    0.9042 C   0  0  0  0  0  0  0  0  0  0  0  0
   -2.6284    5.5409    1.4242 H   0  0  0  0  0  0  0  0  0  0  0  0
   -1.2694    3.8698    1.2618 C   0  0  0  0  0  0  0  0  0  0  0  0
   -0.6160    4.2186    2.0561 H   0  0  0  0  0  0  0  0  0  0  0  0
   -0.9676    2.6762    0.5918 C   0  0  0  0  0  0  0  0  0  0  0  0
   -0.0756    2.1197    0.8622 H   0  0  0  0  0  0  0  0  0  0  0  0
   -1.8180    2.2128   -0.4207 C   0  0  0  0  0  0  0  0  0  0  0  0
   -0.5689   -0.5483    1.1365 C   0  0  0  0  0  0  0  0  0  0  0  0
    0.5354   -0.3974    1.6438 O   0  0  0  0  0  0  0  0  0  0  0  0
   -1.6877   -0.1104    1.8243 N   0  0  0  0  0  0  0  0  0  0  0  0
   -2.5510   -0.0413    1.2950 H   0  0  0  0  0  0  0  0  0  0  0  0
   -1.6357    0.4553    3.1663 C   0  0  0  0  0  0  0  0  0  0  0  0
   -0.9608    1.3166    3.1988 H   0  0  0  0  0  0  0  0  0  0  0  0
   -2.6317    0.7860    3.4747 H   0  0  0  0  0  0  0  0  0  0  0  0
   -1.2828   -0.2953    3.8811 H   0  0  0  0  0  0  0  0  0  0  0  0
  1  2  1  0  0  0  0
  2  3  1  0  0  0  0
  2  4  1  0  0  0  0
  2  5  1  0  0  0  0
  5  6  2  0  0  0  0
  5  7  1  0  0  0  0
  7  8  1  0  0  0  0
  7  9  1  0  0  0  0
  9 10  1  0  0  0  0
  9 11  1  0  0  0  0
  9 29  1  0  0  0  0
 11 12  1  0  0  0  0
 11 13  1  0  0  0  0
 11 14  1  0  0  0  0
 14 15  2  0  0  0  0
 14 28  1  0  0  0  0
 15 16  1  0  0  0  0
 15 17  1  0  0  0  0
 17 18  1  0  0  0  0
 17 19  1  0  0  0  0
 19 20  1  0  0  0  0
 19 28  2  0  0  0  0
 20 21  1  0  0  0  0
 20 22  2  0  0  0  0
 22 23  1  0  0  0  0
 22 24  1  0  0  0  0
 24 25  1  0  0  0  0
 24 26  2  0  0  0  0
 26 27  1  0  0  0  0
 26 28  1  0  0  0  0
 29 30  2  0  0  0  0
 29 31  1  0  0  0  0
 31 32  1  0  0  0  0
 31 33  1  0  0  0  0
 33 34  1  0  0  0  0
 33 35  1  0  0  0  0
 33 36  1  0  0  0  0
M  END
$$$$

  -OEChem-03222214083D

 36 37  0     1  0  0  0  0  0999 V2000
   -3.3104   -4.7428    0.7361 H   0  0  0  0  0  0  0  0  0  0  0  0
   -3.3193   -3.8720    0.0743 C   0  0  0  0  0  0  0  0  0  0  0  0
   -4.1510   -3.2235    0.3596 H   0  0  0  0  0  0  0  0  0  0  0  0
   -3.4649   -4.2131   -0.9534 H   0  0  0  0  0  0  0  0  0  0  0  0
   -2.0078   -3.1182    0.1899 C   0  0  0  0  0  0  0  0  0  0  0  0
   -1.1286   -3.5401    0.9188 O   0  0  0  0  0  0  0  0  0  0  0  0
   -1.8142   -1.9627   -0.5400 N   0  0  0  0  0  0  0  0  0  0  0  0
   -2.6152   -1.6099   -1.0523 H   0  0  0  0  0  0  0  0  0  0  0  0
   -0.6649   -1.0583   -0.3484 C   0  0  1  0  0  0  0  0  0  0  0  0
    0.2380   -1.6676   -0.4678 H   0  0  0  0  0  0  0  0  0  0  0  0
   -0.6459   -0.0341   -1.5002 C   0  0  0  0  0  0  0  0  0  0  0  0
    0.3365    0.4492   -1.5220 H   0  0  0  0  0  0  0  0  0  0  0  0
   -0.7635   -0.5633   -2.4513 H   0  0  0  0  0  0  0  0  0  0  0  0
   -1.6980    1.0427   -1.3856 C   0  0  0  0  0  0  0  0  0  0  0  0
   -2.8491    1.1033   -2.1355 C   0  0  0  0  0  0  0  0  0  0  0  0
   -3.1624    0.3703   -2.8758 H   0  0  0  0  0  0  0  0  0  0  0  0
   -3.5249    2.2690   -1.7853 N   0  0  0  0  0  0  0  0  0  0  0  0
   -4.3961    2.5950   -2.2005 H   0  0  0  0  0  0  0  0  0  0  0  0
   -2.7867    2.9938   -0.8648 C   0  0  0  0  0  0  0  0  0  0  0  0
   -3.0222    4.2271   -0.2575 C   0  0  0  0  0  0  0  0  0  0  0  0
   -3.9305    4.7795   -0.4714 H   0  0  0  0  0  0  0  0  0  0  0  0
   -2.0657    4.7470    0.6254 C   0  0  0  0  0  0  0  0  0  0  0  0
   -2.2341    5.7061    1.1064 H   0  0  0  0  0  0  0  0  0  0  0  0
   -0.8851    4.0339    0.8809 C   0  0  0  0  0  0  0  0  0  0  0  0
   -0.1406    4.4385    1.5599 H   0  0  0  0  0  0  0  0  0  0  0  0
   -0.6589    2.7966    0.2620 C   0  0  0  0  0  0  0  0  0  0  0  0
    0.2567    2.2462    0.4598 H   0  0  0  0  0  0  0  0  0  0  0  0
   -1.6277    2.2728   -0.6020 C   0  0  0  0  0  0  0  0  0  0  0  0
   -0.5512   -0.4518    1.0694 C   0  0  0  0  0  0  0  0  0  0  0  0
    0.5529   -0.2957    1.5760 O   0  0  0  0  0  0  0  0  0  0  0  0
   -1.6642    0.0598    1.7145 N   0  0  0  0  0  0  0  0  0  0  0  0
   -2.5030    0.1604    1.1517 H   0  0  0  0  0  0  0  0  0  0  0  0
   -1.5918    0.7597    2.9906 C   0  0  0  0  0  0  0  0  0  0  0  0
   -0.9346    1.6319    2.9166 H   0  0  0  0  0  0  0  0  0  0  0  0
   -2.5870    1.1007    3.2908 H   0  0  0  0  0  0  0  0  0  0  0  0
   -1.2052    0.0931    3.7687 H   0  0  0  0  0  0  0  0  0  0  0  0
  1  2  1  0  0  0  0
  2  3  1  0  0  0  0
  2  4  1  0  0  0  0
  2  5  1  0  0  0  0
  5  6  2  0  0  0  0
  5  7  1  0  0  0  0
  7  8  1  0  0  0  0
  7  9  1  0  0  0  0
  9 10  1  0  0  0  0
  9 11  1  0  0  0  0
  9 29  1  0  0  0  0
 11 12  1  0  0  0  0
 11 13  1  0  0  0  0
 11 14  1  0  0  0  0
 14 15  2  0  0  0  0
 14 28  1  0  0  0  0
 15 16  1  0  0  0  0
 15 17  1  0  0  0  0
 17 18  1  0  0  0  0
 17 19  1  0  0  0  0
 19 20  1  0  0  0  0
 19 28  2  0  0  0  0
 20 21  1  0  0  0  0
 20 22  2  0  0  0  0
 22 23  1  0  0  0  0
 22 24  1  0  0  0  0
 24 25  1  0  0  0  0
 24 26  2  0  0  0  0
 26 27  1  0  0  0  0
 26 28  1  0  0  0  0
 29 30  2  0  0  0  0
 29 31  1  0  0  0  0
 31 32  1  0  0  0  0
 31 33  1  0  0  0  0
 33 34  1  0  0  0  0
 33 35  1  0  0  0  0
 33 36  1  0  0  0  0
M  END
$$$$

  -OEChem-03222214083D

 36 37  0     1  0  0  0  0  0999 V2000
   -3.3564   -4.6441    0.8529 H   0  0  0  0  0  0  0  0  0  0  0  0
   -3.3373   -3.8209    0.1329 C   0  0  0  0  0  0  0  0  0  0  0  0
   -4.1778   -3.1545    0.3404 H   0  0  0  0  0  0  0  0  0  0  0  0
   -3.4437   -4.2321   -0.8738 H   0  0  0  0  0  0  0  0  0  0  0  0
   -2.0294   -3.0603    0.2450 C   0  0  0  0  0  0  0  0  0  0  0  0
   -1.1705   -3.4403    1.0196 O   0  0  0  0  0  0  0  0  0  0  0  0
   -1.8129   -1.9501   -0.5459 N   0  0  0  0  0  0  0  0  0  0  0  0
   -2.5954   -1.6281   -1.1033 H   0  0  0  0  0  0  0  0  0  0  0  0
   -0.6550   -1.0507   -0.3897 C   0  0  1  0  0  0  0  0  0  0  0  0
    0.2409   -1.6759   -0.4750 H   0  0  0  0  0  0  0  0  0  0  0  0
   -0.6119   -0.0644   -1.5717 C   0  0  0  0  0  0  0  0  0  0  0  0
    0.3787    0.4000   -1.6156 H   0  0  0  0  0  0  0  0  0  0  0  0
   -0.7476   -0.6196   -2.5051 H   0  0  0  0  0  0  0  0  0  0  0  0
   -1.6544    1.0228   -1.4783 C   0  0  0  0  0  0  0  0  0  0  0  0
   -2.9303    0.9706   -1.9882 C   0  0  0  0  0  0  0  0  0  0  0  0
   -3.3548    0.1460   -2.5562 H   0  0  0  0  0  0  0  0  0  0  0  0
   -3.5660    2.1649   -1.6585 N   0  0  0  0  0  0  0  0  0  0  0  0
   -4.5109    2.4284   -1.9333 H   0  0  0  0  0  0  0  0  0  0  0  0
   -2.7053    2.9917   -0.9545 C   0  0  0  0  0  0  0  0  0  0  0  0
   -2.8734    4.2692   -0.4200 C   0  0  0  0  0  0  0  0  0  0  0  0
   -3.8195    4.7881   -0.5279 H   0  0  0  0  0  0  0  0  0  0  0  0
   -1.8042    4.8718    0.2578 C   0  0  0  0  0  0  0  0  0  0  0  0
   -1.9191    5.8656    0.6801 H   0  0  0  0  0  0  0  0  0  0  0  0
   -0.5838    4.1926    0.3921 C   0  0  0  0  0  0  0  0  0  0  0  0
    0.2429    4.6578    0.9208 H   0  0  0  0  0  0  0  0  0  0  0  0
   -0.4255    2.9102   -0.1511 C   0  0  0  0  0  0  0  0  0  0  0  0
    0.5147    2.3780   -0.0379 H   0  0  0  0  0  0  0  0  0  0  0  0
   -1.4978    2.3165   -0.8256 C   0  0  0  0  0  0  0  0  0  0  0  0
   -0.5372   -0.3593    0.9896 C   0  0  0  0  0  0  0  0  0  0  0  0
    0.5694   -0.1766    1.4822 O   0  0  0  0  0  0  0  0  0  0  0  0
   -1.6456    0.2089    1.5945 N   0  0  0  0  0  0  0  0  0  0  0  0
   -2.4718    0.2939    1.0111 H   0  0  0  0  0  0  0  0  0  0  0  0
   -1.5537    1.0453    2.7842 C   0  0  0  0  0  0  0  0  0  0  0  0
   -0.9169    1.9158    2.5966 H   0  0  0  0  0  0  0  0  0  0  0  0
   -2.5476    1.3998    3.0730 H   0  0  0  0  0  0  0  0  0  0  0  0
   -1.1340    0.4751    3.6195 H   0  0  0  0  0  0  0  0  0  0  0  0
  1  2  1  0  0  0  0
  2  3  1  0  0  0  0
  2  4  1  0  0  0  0
  2  5  1  0  0  0  0
  5  6  2  0  0  0  0
  5  7  1  0  0  0  0
  7  8  1  0  0  0  0
  7  9  1  0  0  0  0
  9 10  1  0  0  0  0
  9 11  1  0  0  0  0
  9 29  1  0  0  0  0
 11 12  1  0  0  0  0
 11 13  1  0  0  0  0
 11 14  1  0  0  0  0
 14 15  2  0  0  0  0
 14 28  1  0  0  0  0
 15 16  1  0  0  0  0
 15 17  1  0  0  0  0
 17 18  1  0  0  0  0
 17 19  1  0  0  0  0
 19 20  1  0  0  0  0
 19 28  2  0  0  0  0
 20 21  1  0  0  0  0
 20 22  2  0  0  0  0
 22 23  1  0  0  0  0
 22 24  1  0  0  0  0
 24 25  1  0  0  0  0
 24 26  2  0  0  0  0
 26 27  1  0  0  0  0
 26 28  1  0  0  0  0
 29 30  2  0  0  0  0
 29 31  1  0  0  0  0
 31 32  1  0  0  0  0
 31 33  1  0  0  0  0
 33 34  1  0  0  0  0
 33 35  1  0  0  0  0
 33 36  1  0  0  0  0
M  END
$$$$

  -OEChem-03222214083D

 36 37  0     1  0  0  0  0  0999 V2000
   -3.3375   -4.6955    0.8417 H   0  0  0  0  0  0  0  0  0  0  0  0
   -3.3216   -3.8766    0.1166 C   0  0  0  0  0  0  0  0  0  0  0  0
   -4.2129   -3.2618    0.2625 H   0  0  0  0  0  0  0  0  0  0  0  0
   -3.3365   -4.2992   -0.8910 H   0  0  0  0  0  0  0  0  0  0  0  0
   -2.0738   -3.0360    0.3097 C   0  0  0  0  0  0  0  0  0  0  0  0
   -1.2832   -3.3169    1.1914 O   0  0  0  0  0  0  0  0  0  0  0  0
   -1.8379   -1.9612   -0.5231 N   0  0  0  0  0  0  0  0  0  0  0  0
   -2.5058   -1.7950   -1.2660 H   0  0  0  0  0  0  0  0  0  0  0  0
   -0.6756   -1.0615   -0.4024 C   0  0  1  0  0  0  0  0  0  0  0  0
    0.2178   -1.6921   -0.4698 H   0  0  0  0  0  0  0  0  0  0  0  0
   -0.6350   -0.0987   -1.6039 C   0  0  0  0  0  0  0  0  0  0  0  0
    0.3595    0.3547   -1.6632 H   0  0  0  0  0  0  0  0  0  0  0  0
   -0.7819   -0.6668   -2.5277 H   0  0  0  0  0  0  0  0  0  0  0  0
   -1.6724    0.9974   -1.5210 C   0  0  0  0  0  0  0  0  0  0  0  0
   -3.0240    0.8745   -1.7489 C   0  0  0  0  0  0  0  0  0  0  0  0
   -3.5349   -0.0232   -2.0868 H   0  0  0  0  0  0  0  0  0  0  0  0
   -3.6141    2.1069   -1.4819 N   0  0  0  0  0  0  0  0  0  0  0  0
   -4.6016    2.3292   -1.5951 H   0  0  0  0  0  0  0  0  0  0  0  0
   -2.6586    3.0183   -1.0641 C   0  0  0  0  0  0  0  0  0  0  0  0
   -2.7589    4.3532   -0.6721 C   0  0  0  0  0  0  0  0  0  0  0  0
   -3.7197    4.8557   -0.6748 H   0  0  0  0  0  0  0  0  0  0  0  0
   -1.6021    5.0349   -0.2694 C   0  0  0  0  0  0  0  0  0  0  0  0
   -1.6649    6.0739    0.0408 H   0  0  0  0  0  0  0  0  0  0  0  0
   -0.3642    4.3743   -0.2596 C   0  0  0  0  0  0  0  0  0  0  0  0
    0.5300    4.8999    0.0620 H   0  0  0  0  0  0  0  0  0  0  0  0
   -0.2754    3.0333   -0.6587 C   0  0  0  0  0  0  0  0  0  0  0  0
    0.6800    2.5178   -0.6375 H   0  0  0  0  0  0  0  0  0  0  0  0
   -1.4328    2.3633   -1.0699 C   0  0  0  0  0  0  0  0  0  0  0  0
   -0.5442   -0.3019    0.9399 C   0  0  0  0  0  0  0  0  0  0  0  0
    0.5709   -0.0867    1.3996 O   0  0  0  0  0  0  0  0  0  0  0  0
   -1.6431    0.3072    1.5211 N   0  0  0  0  0  0  0  0  0  0  0  0
   -2.4785    0.3419    0.9460 H   0  0  0  0  0  0  0  0  0  0  0  0
   -1.5225    1.2625    2.6138 C   0  0  0  0  0  0  0  0  0  0  0  0
   -0.9641    2.1468    2.2893 H   0  0  0  0  0  0  0  0  0  0  0  0
   -2.5145    1.5807    2.9475 H   0  0  0  0  0  0  0  0  0  0  0  0
   -1.0027    0.8081    3.4638 H   0  0  0  0  0  0  0  0  0  0  0  0
  1  2  1  0  0  0  0
  2  3  1  0  0  0  0
  2  4  1  0  0  0  0
  2  5  1  0  0  0  0
  5  6  2  0  0  0  0
  5  7  1  0  0  0  0
  7  8  1  0  0  0  0
  7  9  1  0  0  0  0
  9 10  1  0  0  0  0
  9 11  1  0  0  0  0
  9 29  1  0  0  0  0
 11 12  1  0  0  0  0
 11 13  1  0  0  0  0
 11 14  1  0  0  0  0
 14 15  2  0  0  0  0
 14 28  1  0  0  0  0
 15 16  1  0  0  0  0
 15 17  1  0  0  0  0
 17 18  1  0  0  0  0
 17 19  1  0  0  0  0
 19 20  1  0  0  0  0
 19 28  2  0  0  0  0
 20 21  1  0  0  0  0
 20 22  2  0  0  0  0
 22 23  1  0  0  0  0
 22 24  1  0  0  0  0
 24 25  1  0  0  0  0
 24 26  2  0  0  0  0
 26 27  1  0  0  0  0
 26 28  1  0  0  0  0
 29 30  2  0  0  0  0
 29 31  1  0  0  0  0
 31 32  1  0  0  0  0
 31 33  1  0  0  0  0
 33 34  1  0  0  0  0
 33 35  1  0  0  0  0
 33 36  1  0  0  0  0
M  END
$$$$

  -OEChem-03222214083D

 36 37  0     1  0  0  0  0  0999 V2000
   -3.2991   -4.7735    0.8156 H   0  0  0  0  0  0  0  0  0  0  0  0
   -3.2673   -3.9872    0.0556 C   0  0  0  0  0  0  0  0  0  0  0  0
   -4.2155   -3.4449    0.0725 H   0  0  0  0  0  0  0  0  0  0  0  0
   -3.1354   -4.4519   -0.9244 H   0  0  0  0  0  0  0  0  0  0  0  0
   -2.1195   -3.0366    0.3394 C   0  0  0  0  0  0  0  0  0  0  0  0
   -1.3969   -3.2313    1.2987 O   0  0  0  0  0  0  0  0  0  0  0  0
   -1.8905   -1.9686   -0.5051 N   0  0  0  0  0  0  0  0  0  0  0  0
   -2.4270   -1.9490   -1.3652 H   0  0  0  0  0  0  0  0  0  0  0  0
   -0.7235   -1.0713   -0.3924 C   0  0  1  0  0  0  0  0  0  0  0  0
    0.1676   -1.7042   -0.4689 H   0  0  0  0  0  0  0  0  0  0  0  0
   -0.6962   -0.1047   -1.5911 C   0  0  0  0  0  0  0  0  0  0  0  0
    0.3008    0.3430   -1.6478 H   0  0  0  0  0  0  0  0  0  0  0  0
   -0.8474   -0.6645   -2.5191 H   0  0  0  0  0  0  0  0  0  0  0  0
   -1.7281    0.9993   -1.5028 C   0  0  0  0  0  0  0  0  0  0  0  0
   -3.0963    0.8570   -1.4343 C   0  0  0  0  0  0  0  0  0  0  0  0
   -3.6438   -0.0797   -1.4913 H   0  0  0  0  0  0  0  0  0  0  0  0
   -3.6508    2.1237   -1.2771 N   0  0  0  0  0  0  0  0  0  0  0  0
   -4.6457    2.3338   -1.2189 H   0  0  0  0  0  0  0  0  0  0  0  0
   -2.6524    3.0811   -1.2192 C   0  0  0  0  0  0  0  0  0  0  0  0
   -2.7067    4.4653   -1.0550 C   0  0  0  0  0  0  0  0  0  0  0  0
   -3.6617    4.9692   -0.9573 H   0  0  0  0  0  0  0  0  0  0  0  0
   -1.5107    5.1949   -1.0128 C   0  0  0  0  0  0  0  0  0  0  0  0
   -1.5357    6.2729   -0.8844 H   0  0  0  0  0  0  0  0  0  0  0  0
   -0.2794    4.5330   -1.1300 C   0  0  0  0  0  0  0  0  0  0  0  0
    0.6470    5.0979   -1.0881 H   0  0  0  0  0  0  0  0  0  0  0  0
   -0.2378    3.1416   -1.2966 C   0  0  0  0  0  0  0  0  0  0  0  0
    0.7161    2.6304   -1.3763 H   0  0  0  0  0  0  0  0  0  0  0  0
   -1.4361    2.4205   -1.3494 C   0  0  0  0  0  0  0  0  0  0  0  0
   -0.5659   -0.2950    0.9386 C   0  0  0  0  0  0  0  0  0  0  0  0
    0.5594   -0.0933    1.3794 O   0  0  0  0  0  0  0  0  0  0  0  0
   -1.6462    0.3345    1.5327 N   0  0  0  0  0  0  0  0  0  0  0  0
   -2.4938    0.3666    0.9760 H   0  0  0  0  0  0  0  0  0  0  0  0
   -1.4940    1.3046    2.6083 C   0  0  0  0  0  0  0  0  0  0  0  0
   -0.9723    2.1968    2.2461 H   0  0  0  0  0  0  0  0  0  0  0  0
   -2.4753    1.6040    2.9879 H   0  0  0  0  0  0  0  0  0  0  0  0
   -0.9231    0.8726    3.4371 H   0  0  0  0  0  0  0  0  0  0  0  0
  1  2  1  0  0  0  0
  2  3  1  0  0  0  0
  2  4  1  0  0  0  0
  2  5  1  0  0  0  0
  5  6  2  0  0  0  0
  5  7  1  0  0  0  0
  7  8  1  0  0  0  0
  7  9  1  0  0  0  0
  9 10  1  0  0  0  0
  9 11  1  0  0  0  0
  9 29  1  0  0  0  0
 11 12  1  0  0  0  0
 11 13  1  0  0  0  0
 11 14  1  0  0  0  0
 14 15  2  0  0  0  0
 14 28  1  0  0  0  0
 15 16  1  0  0  0  0
 15 17  1  0  0  0  0
 17 18  1  0  0  0  0
 17 19  1  0  0  0  0
 19 20  1  0  0  0  0
 19 28  2  0  0  0  0
 20 21  1  0  0  0  0
 20 22  2  0  0  0  0
 22 23  1  0  0  0  0
 22 24  1  0  0  0  0
 24 25  1  0  0  0  0
 24 26  2  0  0  0  0
 26 27  1  0  0  0  0
 26 28  1  0  0  0  0
 29 30  2  0  0  0  0
 29 31  1  0  0  0  0
 31 32  1  0  0  0  0
 31 33  1  0  0  0  0
 33 34  1  0  0  0  0
 33 35  1  0  0  0  0
 33 36  1  0  0  0  0
M  END
$$$$

  -OEChem-03222214083D

 36 37  0     1  0  0  0  0  0999 V2000
   -3.2351   -4.8626    0.6813 H   0  0  0  0  0  0  0  0  0  0  0  0
   -3.2348   -4.0283   -0.0261 C   0  0  0  0  0  0  0  0  0  0  0  0
   -4.1985   -3.5172    0.0332 H   0  0  0  0  0  0  0  0  0  0  0  0
   -3.0996   -4.4246   -1.0353 H   0  0  0  0  0  0  0  0  0  0  0  0
   -2.1131   -3.0631    0.3086 C   0  0  0  0  0  0  0  0  0  0  0  0
   -1.3973   -3.2761    1.2691 O   0  0  0  0  0  0  0  0  0  0  0  0
   -1.9068   -1.9538   -0.4869 N   0  0  0  0  0  0  0  0  0  0  0  0
   -2.4346   -1.9177   -1.3529 H   0  0  0  0  0  0  0  0  0  0  0  0
   -0.7456   -1.0525   -0.3510 C   0  0  1  0  0  0  0  0  0  0  0  0
    0.1460   -1.6796   -0.4636 H   0  0  0  0  0  0  0  0  0  0  0  0
   -0.7350   -0.0537   -1.5234 C   0  0  0  0  0  0  0  0  0  0  0  0
    0.2590    0.4031   -1.5503 H   0  0  0  0  0  0  0  0  0  0  0  0
   -0.8666   -0.5875   -2.4693 H   0  0  0  0  0  0  0  0  0  0  0  0
   -1.7667    1.0525   -1.4300 C   0  0  0  0  0  0  0  0  0  0  0  0
   -3.0981    0.9431   -1.0900 C   0  0  0  0  0  0  0  0  0  0  0  0
   -3.6225    0.0219   -0.8515 H   0  0  0  0  0  0  0  0  0  0  0  0
   -3.6520    2.2197   -1.1054 N   0  0  0  0  0  0  0  0  0  0  0  0
   -4.6232    2.4491   -0.9023 H   0  0  0  0  0  0  0  0  0  0  0  0
   -2.6916    3.1548   -1.4509 C   0  0  0  0  0  0  0  0  0  0  0  0
   -2.7617    4.5403   -1.5963 C   0  0  0  0  0  0  0  0  0  0  0  0
   -3.6972    5.0620   -1.4284 H   0  0  0  0  0  0  0  0  0  0  0  0
   -1.6076    5.2475   -1.9610 C   0  0  0  0  0  0  0  0  0  0  0  0
   -1.6447    6.3266   -2.0770 H   0  0  0  0  0  0  0  0  0  0  0  0
   -0.4019    4.5624   -2.1735 C   0  0  0  0  0  0  0  0  0  0  0  0
    0.4918    5.1121   -2.4534 H   0  0  0  0  0  0  0  0  0  0  0  0
   -0.3445    3.1695   -2.0235 C   0  0  0  0  0  0  0  0  0  0  0  0
    0.5899    2.6423   -2.1845 H   0  0  0  0  0  0  0  0  0  0  0  0
   -1.5011    2.4688   -1.6620 C   0  0  0  0  0  0  0  0  0  0  0  0
   -0.5603   -0.3337    1.0081 C   0  0  0  0  0  0  0  0  0  0  0  0
    0.5735   -0.1565    1.4360 O   0  0  0  0  0  0  0  0  0  0  0  0
   -1.6228    0.2650    1.6620 N   0  0  0  0  0  0  0  0  0  0  0  0
   -2.5070    0.2770    1.1675 H   0  0  0  0  0  0  0  0  0  0  0  0
   -1.4538    1.1404    2.8140 C   0  0  0  0  0  0  0  0  0  0  0  0
   -0.8561    2.0171    2.5432 H   0  0  0  0  0  0  0  0  0  0  0  0
   -2.4283    1.4821    3.1752 H   0  0  0  0  0  0  0  0  0  0  0  0
   -0.9519    0.6082    3.6290 H   0  0  0  0  0  0  0  0  0  0  0  0
  1  2  1  0  0  0  0
  2  3  1  0  0  0  0
  2  4  1  0  0  0  0
  2  5  1  0  0  0  0
  5  6  2  0  0  0  0
  5  7  1  0  0  0  0
  7  8  1  0  0  0  0
  7  9  1  0  0  0  0
  9 10  1  0  0  0  0
  9 11  1  0  0  0  0
  9 29  1  0  0  0  0
 11 12  1  0  0  0  0
 11 13  1  0  0  0  0
 11 14  1  0  0  0  0
 14 15  2  0  0  0  0
 14 28  1  0  0  0  0
 15 16  1  0  0  0  0
 15 17  1  0  0  0  0
 17 18  1  0  0  0  0
 17 19  1  0  0  0  0
 19 20  1  0  0  0  0
 19 28  2  0  0  0  0
 20 21  1  0  0  0  0
 20 22  2  0  0  0  0
 22 23  1  0  0  0  0
 22 24  1  0  0  0  0
 24 25  1  0  0  0  0
 24 26  2  0  0  0  0
 26 27  1  0  0  0  0
 26 28  1  0  0  0  0
 29 30  2  0  0  0  0
 29 31  1  0  0  0  0
 31 32  1  0  0  0  0
 31 33  1  0  0  0  0
 33 34  1  0  0  0  0
 33 35  1  0  0  0  0
 33 36  1  0  0  0  0
M  END
$$$$

  -OEChem-03222214083D

 36 37  0     1  0  0  0  0  0999 V2000
   -3.1796   -4.8868    0.6307 H   0  0  0  0  0  0  0  0  0  0  0  0
   -3.1968   -4.0422   -0.0640 C   0  0  0  0  0  0  0  0  0  0  0  0
   -4.1714   -3.5532    0.0025 H   0  0  0  0  0  0  0  0  0  0  0  0
   -3.0535   -4.4206   -1.0790 H   0  0  0  0  0  0  0  0  0  0  0  0
   -2.0954   -3.0590    0.2851 C   0  0  0  0  0  0  0  0  0  0  0  0
   -1.3600   -3.2825    1.2283 O   0  0  0  0  0  0  0  0  0  0  0  0
   -1.9378   -1.9099   -0.4632 N   0  0  0  0  0  0  0  0  0  0  0  0
   -2.5017   -1.8389   -1.3049 H   0  0  0  0  0  0  0  0  0  0  0  0
   -0.7867   -0.9953   -0.3310 C   0  0  1  0  0  0  0  0  0  0  0  0
    0.1011   -1.6202   -0.4800 H   0  0  0  0  0  0  0  0  0  0  0  0
   -0.7826    0.0173   -1.4920 C   0  0  0  0  0  0  0  0  0  0  0  0
    0.2090    0.4816   -1.5044 H   0  0  0  0  0  0  0  0  0  0  0  0
   -0.9019   -0.5105   -2.4430 H   0  0  0  0  0  0  0  0  0  0  0  0
   -1.8098    1.1271   -1.4155 C   0  0  0  0  0  0  0  0  0  0  0  0
   -3.0592    1.1075   -0.8362 C   0  0  0  0  0  0  0  0  0  0  0  0
   -3.5135    0.2591   -0.3332 H   0  0  0  0  0  0  0  0  0  0  0  0
   -3.6377    2.3608   -1.0158 N   0  0  0  0  0  0  0  0  0  0  0  0
   -4.5563    2.6442   -0.6808 H   0  0  0  0  0  0  0  0  0  0  0  0
   -2.7747    3.1922   -1.7083 C   0  0  0  0  0  0  0  0  0  0  0  0
   -2.8985    4.5188   -2.1215 C   0  0  0  0  0  0  0  0  0  0  0  0
   -3.8005    5.0791   -1.9021 H   0  0  0  0  0  0  0  0  0  0  0  0
   -1.8416    5.1175   -2.8211 C   0  0  0  0  0  0  0  0  0  0  0  0
   -1.9225    6.1500   -3.1480 H   0  0  0  0  0  0  0  0  0  0  0  0
   -0.6773    4.3848   -3.0975 C   0  0  0  0  0  0  0  0  0  0  0  0
    0.1415    4.8510   -3.6374 H   0  0  0  0  0  0  0  0  0  0  0  0
   -0.5645    3.0520   -2.6756 C   0  0  0  0  0  0  0  0  0  0  0  0
    0.3372    2.4858   -2.8848 H   0  0  0  0  0  0  0  0  0  0  0  0
   -1.6241    2.4606   -1.9783 C   0  0  0  0  0  0  0  0  0  0  0  0
   -0.5503   -0.3334    1.0490 C   0  0  0  0  0  0  0  0  0  0  0  0
    0.5994   -0.1166    1.4108 O   0  0  0  0  0  0  0  0  0  0  0  0
   -1.5869    0.2181    1.7807 N   0  0  0  0  0  0  0  0  0  0  0  0
   -2.5286    0.0071    1.4763 H   0  0  0  0  0  0  0  0  0  0  0  0
   -1.3899    0.9614    3.0179 C   0  0  0  0  0  0  0  0  0  0  0  0
   -0.7740    1.8484    2.8359 H   0  0  0  0  0  0  0  0  0  0  0  0
   -2.3535    1.2874    3.4204 H   0  0  0  0  0  0  0  0  0  0  0  0
   -0.8952    0.3346    3.7672 H   0  0  0  0  0  0  0  0  0  0  0  0
  1  2  1  0  0  0  0
  2  3  1  0  0  0  0
  2  4  1  0  0  0  0
  2  5  1  0  0  0  0
  5  6  2  0  0  0  0
  5  7  1  0  0  0  0
  7  8  1  0  0  0  0
  7  9  1  0  0  0  0
  9 10  1  0  0  0  0
  9 11  1  0  0  0  0
  9 29  1  0  0  0  0
 11 12  1  0  0  0  0
 11 13  1  0  0  0  0
 11 14  1  0  0  0  0
 14 15  2  0  0  0  0
 14 28  1  0  0  0  0
 15 16  1  0  0  0  0
 15 17  1  0  0  0  0
 17 18  1  0  0  0  0
 17 19  1  0  0  0  0
 19 20  1  0  0  0  0
 19 28  2  0  0  0  0
 20 21  1  0  0  0  0
 20 22  2  0  0  0  0
 22 23  1  0  0  0  0
 22 24  1  0  0  0  0
 24 25  1  0  0  0  0
 24 26  2  0  0  0  0
 26 27  1  0  0  0  0
 26 28  1  0  0  0  0
 29 30  2  0  0  0  0
 29 31  1  0  0  0  0
 31 32  1  0  0  0  0
 31 33  1  0  0  0  0
 33 34  1  0  0  0  0
 33 35  1  0  0  0  0
 33 36  1  0  0  0  0
M  END
$$$$

  -OEChem-03222214083D

 36 37  0     1  0  0  0  0  0999 V2000
   -3.1049   -4.9126    0.5747 H   0  0  0  0  0  0  0  0  0  0  0  0
   -3.1599   -4.0443   -0.0883 C   0  0  0  0  0  0  0  0  0  0  0  0
   -4.1416   -3.5786    0.0238 H   0  0  0  0  0  0  0  0  0  0  0  0
   -3.0395   -4.3832   -1.1201 H   0  0  0  0  0  0  0  0  0  0  0  0
   -2.0680   -3.0513    0.2629 C   0  0  0  0  0  0  0  0  0  0  0  0
   -1.2965   -3.2925    1.1728 O   0  0  0  0  0  0  0  0  0  0  0  0
   -1.9650   -1.8654   -0.4350 N   0  0  0  0  0  0  0  0  0  0  0  0
   -2.5851   -1.7512   -1.2319 H   0  0  0  0  0  0  0  0  0  0  0  0
   -0.8284   -0.9321   -0.3134 C   0  0  1  0  0  0  0  0  0  0  0  0
    0.0582   -1.5483   -0.5027 H   0  0  0  0  0  0  0  0  0  0  0  0
   -0.8425    0.0896   -1.4668 C   0  0  0  0  0  0  0  0  0  0  0  0
    0.1453    0.5621   -1.4859 H   0  0  0  0  0  0  0  0  0  0  0  0
   -0.9626   -0.4427   -2.4151 H   0  0  0  0  0  0  0  0  0  0  0  0
   -1.8704    1.1988   -1.4076 C   0  0  0  0  0  0  0  0  0  0  0  0
   -2.9995    1.3171   -0.6290 C   0  0  0  0  0  0  0  0  0  0  0  0
   -3.3506    0.5929    0.0984 H   0  0  0  0  0  0  0  0  0  0  0  0
   -3.6216    2.5208   -0.9504 N   0  0  0  0  0  0  0  0  0  0  0  0
   -4.4658    2.8856   -0.5142 H   0  0  0  0  0  0  0  0  0  0  0  0
   -2.9050    3.1852   -1.9303 C   0  0  0  0  0  0  0  0  0  0  0  0
   -3.1170    4.4066   -2.5702 C   0  0  0  0  0  0  0  0  0  0  0  0
   -3.9771    5.0158   -2.3158 H   0  0  0  0  0  0  0  0  0  0  0  0
   -2.2039    4.8348   -3.5440 C   0  0  0  0  0  0  0  0  0  0  0  0
   -2.3554    5.7836   -4.0503 H   0  0  0  0  0  0  0  0  0  0  0  0
   -1.0923    4.0401   -3.8632 C   0  0  0  0  0  0  0  0  0  0  0  0
   -0.3843    4.3757   -4.6149 H   0  0  0  0  0  0  0  0  0  0  0  0
   -0.8897    2.8146   -3.2123 C   0  0  0  0  0  0  0  0  0  0  0  0
   -0.0288    2.1999   -3.4545 H   0  0  0  0  0  0  0  0  0  0  0  0
   -1.8070    2.3934   -2.2431 C   0  0  0  0  0  0  0  0  0  0  0  0
   -0.5384   -0.3273    1.0820 C   0  0  0  0  0  0  0  0  0  0  0  0
    0.6199   -0.0614    1.3769 O   0  0  0  0  0  0  0  0  0  0  0  0
   -1.5515    0.1651    1.8856 N   0  0  0  0  0  0  0  0  0  0  0  0
   -2.4713   -0.2253    1.7189 H   0  0  0  0  0  0  0  0  0  0  0  0
   -1.2947    0.8073    3.1687 C   0  0  0  0  0  0  0  0  0  0  0  0
   -0.6891    1.7093    3.0305 H   0  0  0  0  0  0  0  0  0  0  0  0
   -2.2378    1.0962    3.6421 H   0  0  0  0  0  0  0  0  0  0  0  0
   -0.7633    0.1246    3.8401 H   0  0  0  0  0  0  0  0  0  0  0  0
  1  2  1  0  0  0  0
  2  3  1  0  0  0  0
  2  4  1  0  0  0  0
  2  5  1  0  0  0  0
  5  6  2  0  0  0  0
  5  7  1  0  0  0  0
  7  8  1  0  0  0  0
  7  9  1  0  0  0  0
  9 10  1  0  0  0  0
  9 11  1  0  0  0  0
  9 29  1  0  0  0  0
 11 12  1  0  0  0  0
 11 13  1  0  0  0  0
 11 14  1  0  0  0  0
 14 15  2  0  0  0  0
 14 28  1  0  0  0  0
 15 16  1  0  0  0  0
 15 17  1  0  0  0  0
 17 18  1  0  0  0  0
 17 19  1  0  0  0  0
 19 20  1  0  0  0  0
 19 28  2  0  0  0  0
 20 21  1  0  0  0  0
 20 22  2  0  0  0  0
 22 23  1  0  0  0  0
 22 24  1  0  0  0  0
 24 25  1  0  0  0  0
 24 26  2  0  0  0  0
 26 27  1  0  0  0  0
 26 28  1  0  0  0  0
 29 30  2  0  0  0  0
 29 31  1  0  0  0  0
 31 32  1  0  0  0  0
 31 33  1  0  0  0  0
 33 34  1  0  0  0  0
 33 35  1  0  0  0  0
 33 36  1  0  0  0  0
M  END
$$$$

  -OEChem-03222214083D

 36 37  0     1  0  0  0  0  0999 V2000
   -3.0828   -4.9152    0.5752 H   0  0  0  0  0  0  0  0  0  0  0  0
   -3.1766   -4.0271   -0.0565 C   0  0  0  0  0  0  0  0  0  0  0  0
   -4.1455   -3.5603    0.1355 H   0  0  0  0  0  0  0  0  0  0  0  0
   -3.1282   -4.3348   -1.1038 H   0  0  0  0  0  0  0  0  0  0  0  0
   -2.0573   -3.0496    0.2496 C   0  0  0  0  0  0  0  0  0  0  0  0
   -1.2218   -3.3251    1.0911 O   0  0  0  0  0  0  0  0  0  0  0  0
   -2.0033   -1.8359   -0.4048 N   0  0  0  0  0  0  0  0  0  0  0  0
   -2.6918   -1.6778   -1.1357 H   0  0  0  0  0  0  0  0  0  0  0  0
   -0.8718   -0.8941   -0.3138 C   0  0  1  0  0  0  0  0  0  0  0  0
    0.0050   -1.5071   -0.5534 H   0  0  0  0  0  0  0  0  0  0  0  0
   -0.9199    0.1339   -1.4619 C   0  0  0  0  0  0  0  0  0  0  0  0
    0.0675    0.6053   -1.5162 H   0  0  0  0  0  0  0  0  0  0  0  0
   -1.0684   -0.4091   -2.4006 H   0  0  0  0  0  0  0  0  0  0  0  0
   -1.9410    1.2508   -1.4026 C   0  0  0  0  0  0  0  0  0  0  0  0
   -2.9046    1.5568   -0.4677 C   0  0  0  0  0  0  0  0  0  0  0  0
   -3.1220    1.0039    0.4378 H   0  0  0  0  0  0  0  0  0  0  0  0
   -3.5728    2.7025   -0.8930 N   0  0  0  0  0  0  0  0  0  0  0  0
   -4.3161    3.1756   -0.3832 H   0  0  0  0  0  0  0  0  0  0  0  0
   -3.0498    3.1475   -2.0937 C   0  0  0  0  0  0  0  0  0  0  0  0
   -3.3691    4.2389   -2.9017 C   0  0  0  0  0  0  0  0  0  0  0  0
   -4.1612    4.9209   -2.6131 H   0  0  0  0  0  0  0  0  0  0  0  0
   -2.6506    4.4430   -4.0881 C   0  0  0  0  0  0  0  0  0  0  0  0
   -2.8866    5.2891   -4.7266 H   0  0  0  0  0  0  0  0  0  0  0  0
   -1.6246    3.5570   -4.4502 C   0  0  0  0  0  0  0  0  0  0  0  0
   -1.0685    3.7183   -5.3688 H   0  0  0  0  0  0  0  0  0  0  0  0
   -1.3110    2.4658   -3.6273 C   0  0  0  0  0  0  0  0  0  0  0  0
   -0.5135    1.7831   -3.9012 H   0  0  0  0  0  0  0  0  0  0  0  0
   -2.0336    2.2682   -2.4453 C   0  0  0  0  0  0  0  0  0  0  0  0
   -0.5070   -0.3396    1.0844 C   0  0  0  0  0  0  0  0  0  0  0  0
    0.6609   -0.0541    1.3159 O   0  0  0  0  0  0  0  0  0  0  0  0
   -1.4770    0.1074    1.9638 N   0  0  0  0  0  0  0  0  0  0  0  0
   -2.3894   -0.3205    1.8507 H   0  0  0  0  0  0  0  0  0  0  0  0
   -1.1485    0.6923    3.2582 C   0  0  0  0  0  0  0  0  0  0  0  0
   -0.5462    1.5976    3.1278 H   0  0  0  0  0  0  0  0  0  0  0  0
   -2.0633    0.9632    3.7939 H   0  0  0  0  0  0  0  0  0  0  0  0
   -0.5851   -0.0208    3.8693 H   0  0  0  0  0  0  0  0  0  0  0  0
  1  2  1  0  0  0  0
  2  3  1  0  0  0  0
  2  4  1  0  0  0  0
  2  5  1  0  0  0  0
  5  6  2  0  0  0  0
  5  7  1  0  0  0  0
  7  8  1  0  0  0  0
  7  9  1  0  0  0  0
  9 10  1  0  0  0  0
  9 11  1  0  0  0  0
  9 29  1  0  0  0  0
 11 12  1  0  0  0  0
 11 13  1  0  0  0  0
 11 14  1  0  0  0  0
 14 15  2  0  0  0  0
 14 28  1  0  0  0  0
 15 16  1  0  0  0  0
 15 17  1  0  0  0  0
 17 18  1  0  0  0  0
 17 19  1  0  0  0  0
 19 20  1  0  0  0  0
 19 28  2  0  0  0  0
 20 21  1  0  0  0  0
 20 22  2  0  0  0  0
 22 23  1  0  0  0  0
 22 24  1  0  0  0  0
 24 25  1  0  0  0  0
 24 26  2  0  0  0  0
 26 27  1  0  0  0  0
 26 28  1  0  0  0  0
 29 30  2  0  0  0  0
 29 31  1  0  0  0  0
 31 32  1  0  0  0  0
 31 33  1  0  0  0  0
 33 34  1  0  0  0  0
 33 35  1  0  0  0  0
 33 36  1  0  0  0  0
M  END
$$$$

  -OEChem-03222214083D

 36 37  0     1  0  0  0  0  0999 V2000
   -3.1753   -4.8624    0.4971 H   0  0  0  0  0  0  0  0  0  0  0  0
   -3.2651   -3.9439   -0.0901 C   0  0  0  0  0  0  0  0  0  0  0  0
   -4.2024   -3.4480    0.1737 H   0  0  0  0  0  0  0  0  0  0  0  0
   -3.2844   -4.2060   -1.1507 H   0  0  0  0  0  0  0  0  0  0  0  0
   -2.0918   -3.0257    0.1952 C   0  0  0  0  0  0  0  0  0  0  0  0
   -1.2237   -3.3697    0.9763 O   0  0  0  0  0  0  0  0  0  0  0  0
   -2.0258   -1.7873   -0.4090 N   0  0  0  0  0  0  0  0  0  0  0  0
   -2.7591   -1.5580   -1.0746 H   0  0  0  0  0  0  0  0  0  0  0  0
   -0.8784   -0.8670   -0.3068 C   0  0  1  0  0  0  0  0  0  0  0  0
   -0.0171   -1.4908   -0.5728 H   0  0  0  0  0  0  0  0  0  0  0  0
   -0.9160    0.1787   -1.4406 C   0  0  0  0  0  0  0  0  0  0  0  0
    0.0804    0.6283   -1.5083 H   0  0  0  0  0  0  0  0  0  0  0  0
   -1.0850   -0.3627   -2.3766 H   0  0  0  0  0  0  0  0  0  0  0  0
   -1.9122    1.3202   -1.3803 C   0  0  0  0  0  0  0  0  0  0  0  0
   -2.6871    1.8189   -0.3562 C   0  0  0  0  0  0  0  0  0  0  0  0
   -2.7128    1.4748    0.6684 H   0  0  0  0  0  0  0  0  0  0  0  0
   -3.4494    2.8700   -0.8587 N   0  0  0  0  0  0  0  0  0  0  0  0
   -4.0879    3.4471   -0.3151 H   0  0  0  0  0  0  0  0  0  0  0  0
   -3.1729    3.0684   -2.1980 C   0  0  0  0  0  0  0  0  0  0  0  0
   -3.6657    3.9898   -3.1219 C   0  0  0  0  0  0  0  0  0  0  0  0
   -4.4091    4.7206   -2.8234 H   0  0  0  0  0  0  0  0  0  0  0  0
   -3.1855    3.9595   -4.4383 C   0  0  0  0  0  0  0  0  0  0  0  0
   -3.5586    4.6710   -5.1689 H   0  0  0  0  0  0  0  0  0  0  0  0
   -2.2191    3.0134   -4.8116 C   0  0  0  0  0  0  0  0  0  0  0  0
   -1.8444    2.9957   -5.8305 H   0  0  0  0  0  0  0  0  0  0  0  0
   -1.7312    2.0936   -3.8724 C   0  0  0  0  0  0  0  0  0  0  0  0
   -0.9778    1.3674   -4.1595 H   0  0  0  0  0  0  0  0  0  0  0  0
   -2.2191    2.1261   -2.5606 C   0  0  0  0  0  0  0  0  0  0  0  0
   -0.4874   -0.3830    1.1092 C   0  0  0  0  0  0  0  0  0  0  0  0
    0.6859   -0.1215    1.3408 O   0  0  0  0  0  0  0  0  0  0  0  0
   -1.4419    0.0346    2.0194 N   0  0  0  0  0  0  0  0  0  0  0  0
   -2.3689   -0.3542    1.8794 H   0  0  0  0  0  0  0  0  0  0  0  0
   -1.0940    0.5234    3.3483 C   0  0  0  0  0  0  0  0  0  0  0  0
   -0.4832    1.4295    3.2756 H   0  0  0  0  0  0  0  0  0  0  0  0
   -2.0003    0.7643    3.9122 H   0  0  0  0  0  0  0  0  0  0  0  0
   -0.5319   -0.2365    3.9016 H   0  0  0  0  0  0  0  0  0  0  0  0
  1  2  1  0  0  0  0
  2  3  1  0  0  0  0
  2  4  1  0  0  0  0
  2  5  1  0  0  0  0
  5  6  2  0  0  0  0
  5  7  1  0  0  0  0
  7  8  1  0  0  0  0
  7  9  1  0  0  0  0
  9 10  1  0  0  0  0
  9 11  1  0  0  0  0
  9 29  1  0  0  0  0
 11 12  1  0  0  0  0
 11 13  1  0  0  0  0
 11 14  1  0  0  0  0
 14 15  2  0  0  0  0
 14 28  1  0  0  0  0
 15 16  1  0  0  0  0
 15 17  1  0  0  0  0
 17 18  1  0  0  0  0
 17 19  1  0  0  0  0
 19 20  1  0  0  0  0
 19 28  2  0  0  0  0
 20 21  1  0  0  0  0
 20 22  2  0  0  0  0
 22 23  1  0  0  0  0
 22 24  1  0  0  0  0
 24 25  1  0  0  0  0
 24 26  2  0  0  0  0
 26 27  1  0  0  0  0
 26 28  1  0  0  0  0
 29 30  2  0  0  0  0
 29 31  1  0  0  0  0
 31 32  1  0  0  0  0
 31 33  1  0  0  0  0
 33 34  1  0  0  0  0
 33 35  1  0  0  0  0
 33 36  1  0  0  0  0
M  END
$$$$

  -OEChem-03222214083D

 36 37  0     1  0  0  0  0  0999 V2000
   -3.3661   -4.7118    0.5558 H   0  0  0  0  0  0  0  0  0  0  0  0
   -3.3955   -3.8060   -0.0566 C   0  0  0  0  0  0  0  0  0  0  0  0
   -4.2930   -3.2377    0.1988 H   0  0  0  0  0  0  0  0  0  0  0  0
   -3.4424   -4.0954   -1.1092 H   0  0  0  0  0  0  0  0  0  0  0  0
   -2.1576   -2.9661    0.1953 C   0  0  0  0  0  0  0  0  0  0  0  0
   -1.2947   -3.3647    0.9560 O   0  0  0  0  0  0  0  0  0  0  0  0
   -2.0218   -1.7398   -0.4217 N   0  0  0  0  0  0  0  0  0  0  0  0
   -2.7647   -1.4533   -1.0540 H   0  0  0  0  0  0  0  0  0  0  0  0
   -0.8317   -0.8753   -0.3229 C   0  0  1  0  0  0  0  0  0  0  0  0
    0.0067   -1.5332   -0.5794 H   0  0  0  0  0  0  0  0  0  0  0  0
   -0.8411    0.1593   -1.4688 C   0  0  0  0  0  0  0  0  0  0  0  0
    0.1702    0.5703   -1.5547 H   0  0  0  0  0  0  0  0  0  0  0  0
   -1.0379   -0.3919   -2.3929 H   0  0  0  0  0  0  0  0  0  0  0  0
   -1.7920    1.3402   -1.4075 C   0  0  0  0  0  0  0  0  0  0  0  0
   -2.3158    2.0359   -0.3396 C   0  0  0  0  0  0  0  0  0  0  0  0
   -2.0656    1.9053    0.7054 H   0  0  0  0  0  0  0  0  0  0  0  0
   -3.2015    2.9904   -0.8321 N   0  0  0  0  0  0  0  0  0  0  0  0
   -3.7021    3.6747   -0.2685 H   0  0  0  0  0  0  0  0  0  0  0  0
   -3.2600    2.9270   -2.2112 C   0  0  0  0  0  0  0  0  0  0  0  0
   -3.9891    3.6669   -3.1423 C   0  0  0  0  0  0  0  0  0  0  0  0
   -4.6591    4.4537   -2.8134 H   0  0  0  0  0  0  0  0  0  0  0  0
   -3.8437    3.3802   -4.5063 C   0  0  0  0  0  0  0  0  0  0  0  0
   -4.4050    3.9470   -5.2434 H   0  0  0  0  0  0  0  0  0  0  0  0
   -2.9698    2.3643   -4.9206 C   0  0  0  0  0  0  0  0  0  0  0  0
   -2.8534    2.1481   -5.9783 H   0  0  0  0  0  0  0  0  0  0  0  0
   -2.2406    1.6300   -3.9741 C   0  0  0  0  0  0  0  0  0  0  0  0
   -1.5586    0.8517   -4.3000 H   0  0  0  0  0  0  0  0  0  0  0  0
   -2.3949    1.9156   -2.6113 C   0  0  0  0  0  0  0  0  0  0  0  0
   -0.4507   -0.4074    1.0996 C   0  0  0  0  0  0  0  0  0  0  0  0
    0.7265   -0.2033    1.3653 O   0  0  0  0  0  0  0  0  0  0  0  0
   -1.4112    0.0546    1.9816 N   0  0  0  0  0  0  0  0  0  0  0  0
   -2.3606   -0.2473    1.7866 H   0  0  0  0  0  0  0  0  0  0  0  0
   -1.0864    0.4897    3.3347 C   0  0  0  0  0  0  0  0  0  0  0  0
   -0.3980    1.3410    3.3104 H   0  0  0  0  0  0  0  0  0  0  0  0
   -1.9948    0.7975    3.8611 H   0  0  0  0  0  0  0  0  0  0  0  0
   -0.6174   -0.3255    3.8959 H   0  0  0  0  0  0  0  0  0  0  0  0
  1  2  1  0  0  0  0
  2  3  1  0  0  0  0
  2  4  1  0  0  0  0
  2  5  1  0  0  0  0
  5  6  2  0  0  0  0
  5  7  1  0  0  0  0
  7  8  1  0  0  0  0
  7  9  1  0  0  0  0
  9 10  1  0  0  0  0
  9 11  1  0  0  0  0
  9 29  1  0  0  0  0
 11 12  1  0  0  0  0
 11 13  1  0  0  0  0
 11 14  1  0  0  0  0
 14 15  2  0  0  0  0
 14 28  1  0  0  0  0
 15 16  1  0  0  0  0
 15 17  1  0  0  0  0
 17 18  1  0  0  0  0
 17 19  1  0  0  0  0
 19 20  1  0  0  0  0
 19 28  2  0  0  0  0
 20 21  1  0  0  0  0
 20 22  2  0  0  0  0
 22 23  1  0  0  0  0
 22 24  1  0  0  0  0
 24 25  1  0  0  0  0
 24 26  2  0  0  0  0
 26 27  1  0  0  0  0
 26 28  1  0  0  0  0
 29 30  2  0  0  0  0
 29 31  1  0  0  0  0
 31 32  1  0  0  0  0
 31 33  1  0  0  0  0
 33 34  1  0  0  0  0
 33 35  1  0  0  0  0
 33 36  1  0  0  0  0
M  END
$$$$

  -OEChem-03222214083D

 36 37  0     1  0  0  0  0  0999 V2000
   -3.5034   -4.5564    0.6612 H   0  0  0  0  0  0  0  0  0  0  0  0
   -3.4605   -3.7017   -0.0202 C   0  0  0  0  0  0  0  0  0  0  0  0
   -4.3207   -3.0558    0.1720 H   0  0  0  0  0  0  0  0  0  0  0  0
   -3.5106   -4.0684   -1.0483 H   0  0  0  0  0  0  0  0  0  0  0  0
   -2.1715   -2.9308    0.1915 C   0  0  0  0  0  0  0  0  0  0  0  0
   -1.3298   -3.3508    0.9644 O   0  0  0  0  0  0  0  0  0  0  0  0
   -1.9638   -1.7433   -0.4785 N   0  0  0  0  0  0  0  0  0  0  0  0
   -2.7074   -1.4164   -1.0904 H   0  0  0  0  0  0  0  0  0  0  0  0
   -0.7537   -0.9100   -0.3597 C   0  0  1  0  0  0  0  0  0  0  0  0
    0.0860   -1.5861   -0.5577 H   0  0  0  0  0  0  0  0  0  0  0  0
   -0.7211    0.0979   -1.5285 C   0  0  0  0  0  0  0  0  0  0  0  0
    0.2955    0.4990   -1.5952 H   0  0  0  0  0  0  0  0  0  0  0  0
   -0.8990   -0.4580   -2.4530 H   0  0  0  0  0  0  0  0  0  0  0  0
   -1.6634    1.2834   -1.4725 C   0  0  0  0  0  0  0  0  0  0  0  0
   -1.9462    2.1288   -0.4233 C   0  0  0  0  0  0  0  0  0  0  0  0
   -1.4425    2.1445    0.5392 H   0  0  0  0  0  0  0  0  0  0  0  0
   -2.9544    2.9991   -0.8260 N   0  0  0  0  0  0  0  0  0  0  0  0
   -3.3308    3.7617   -0.2660 H   0  0  0  0  0  0  0  0  0  0  0  0
   -3.3346    2.7250   -2.1266 C   0  0  0  0  0  0  0  0  0  0  0  0
   -4.2901    3.3164   -2.9524 C   0  0  0  0  0  0  0  0  0  0  0  0
   -4.8890    4.1446   -2.5904 H   0  0  0  0  0  0  0  0  0  0  0  0
   -4.4627    2.8282   -4.2545 C   0  0  0  0  0  0  0  0  0  0  0  0
   -5.2009    3.2809   -4.9101 H   0  0  0  0  0  0  0  0  0  0  0  0
   -3.6783    1.7597   -4.7131 C   0  0  0  0  0  0  0  0  0  0  0  0
   -3.8098    1.3876   -5.7248 H   0  0  0  0  0  0  0  0  0  0  0  0
   -2.7200    1.1746   -3.8730 C   0  0  0  0  0  0  0  0  0  0  0  0
   -2.1094    0.3553   -4.2371 H   0  0  0  0  0  0  0  0  0  0  0  0
   -2.5535    1.6638   -2.5705 C   0  0  0  0  0  0  0  0  0  0  0  0
   -0.4571   -0.3928    1.0659 C   0  0  0  0  0  0  0  0  0  0  0  0
    0.7028   -0.2049    1.4084 O   0  0  0  0  0  0  0  0  0  0  0  0
   -1.4668    0.1311    1.8551 N   0  0  0  0  0  0  0  0  0  0  0  0
   -2.4139   -0.1029    1.5731 H   0  0  0  0  0  0  0  0  0  0  0  0
   -1.2397    0.6026    3.2158 C   0  0  0  0  0  0  0  0  0  0  0  0
   -0.4856    1.3964    3.2284 H   0  0  0  0  0  0  0  0  0  0  0  0
   -2.1664    1.0034    3.6370 H   0  0  0  0  0  0  0  0  0  0  0  0
   -0.8955   -0.2201    3.8512 H   0  0  0  0  0  0  0  0  0  0  0  0
  1  2  1  0  0  0  0
  2  3  1  0  0  0  0
  2  4  1  0  0  0  0
  2  5  1  0  0  0  0
  5  6  2  0  0  0  0
  5  7  1  0  0  0  0
  7  8  1  0  0  0  0
  7  9  1  0  0  0  0
  9 10  1  0  0  0  0
  9 11  1  0  0  0  0
  9 29  1  0  0  0  0
 11 12  1  0  0  0  0
 11 13  1  0  0  0  0
 11 14  1  0  0  0  0
 14 15  2  0  0  0  0
 14 28  1  0  0  0  0
 15 16  1  0  0  0  0
 15 17  1  0  0  0  0
 17 18  1  0  0  0  0
 17 19  1  0  0  0  0
 19 20  1  0  0  0  0
 19 28  2  0  0  0  0
 20 21  1  0  0  0  0
 20 22  2  0  0  0  0
 22 23  1  0  0  0  0
 22 24  1  0  0  0  0
 24 25  1  0  0  0  0
 24 26  2  0  0  0  0
 26 27  1  0  0  0  0
 26 28  1  0  0  0  0
 29 30  2  0  0  0  0
 29 31  1  0  0  0  0
 31 32  1  0  0  0  0
 31 33  1  0  0  0  0
 33 34  1  0  0  0  0
 33 35  1  0  0  0  0
 33 36  1  0  0  0  0
M  END
$$$$

  -OEChem-03222214083D

 36 37  0     1  0  0  0  0  0999 V2000
   -3.5472   -4.5153    0.7053 H   0  0  0  0  0  0  0  0  0  0  0  0
   -3.4847   -3.6756    0.0074 C   0  0  0  0  0  0  0  0  0  0  0  0
   -4.3244   -3.0013    0.1924 H   0  0  0  0  0  0  0  0  0  0  0  0
   -3.5522   -4.0602   -1.0132 H   0  0  0  0  0  0  0  0  0  0  0  0
   -2.1725   -2.9384    0.1960 C   0  0  0  0  0  0  0  0  0  0  0  0
   -1.3461   -3.3562    0.9869 O   0  0  0  0  0  0  0  0  0  0  0  0
   -1.9219   -1.7904   -0.5264 N   0  0  0  0  0  0  0  0  0  0  0  0
   -2.6660   -1.4458   -1.1280 H   0  0  0  0  0  0  0  0  0  0  0  0
   -0.7104   -0.9629   -0.3889 C   0  0  1  0  0  0  0  0  0  0  0  0
    0.1381   -1.6412   -0.5333 H   0  0  0  0  0  0  0  0  0  0  0  0
   -0.6528    0.0232   -1.5731 C   0  0  0  0  0  0  0  0  0  0  0  0
    0.3608    0.4351   -1.6165 H   0  0  0  0  0  0  0  0  0  0  0  0
   -0.8068   -0.5297   -2.5043 H   0  0  0  0  0  0  0  0  0  0  0  0
   -1.6116    1.1905   -1.5080 C   0  0  0  0  0  0  0  0  0  0  0  0
   -1.6843    2.1698   -0.5446 C   0  0  0  0  0  0  0  0  0  0  0  0
   -0.9985    2.2850    0.2935 H   0  0  0  0  0  0  0  0  0  0  0  0
   -2.7751    2.9819   -0.8393 N   0  0  0  0  0  0  0  0  0  0  0  0
   -3.0498    3.8095   -0.3136 H   0  0  0  0  0  0  0  0  0  0  0  0
   -3.4131    2.5336   -1.9822 C   0  0  0  0  0  0  0  0  0  0  0  0
   -4.5349    3.0098   -2.6595 C   0  0  0  0  0  0  0  0  0  0  0  0
   -5.0638    3.8833   -2.2945 H   0  0  0  0  0  0  0  0  0  0  0  0
   -4.9649    2.3476   -3.8171 C   0  0  0  0  0  0  0  0  0  0  0  0
   -5.8350    2.7097   -4.3570 H   0  0  0  0  0  0  0  0  0  0  0  0
   -4.2693    1.2213   -4.2821 C   0  0  0  0  0  0  0  0  0  0  0  0
   -4.6020    0.7150   -5.1834 H   0  0  0  0  0  0  0  0  0  0  0  0
   -3.1418    0.7521   -3.5924 C   0  0  0  0  0  0  0  0  0  0  0  0
   -2.5998   -0.1121   -3.9621 H   0  0  0  0  0  0  0  0  0  0  0  0
   -2.7183    1.4170   -2.4346 C   0  0  0  0  0  0  0  0  0  0  0  0
   -0.4827   -0.3735    1.0219 C   0  0  0  0  0  0  0  0  0  0  0  0
    0.6592   -0.1811    1.4183 O   0  0  0  0  0  0  0  0  0  0  0  0
   -1.5254    0.2018    1.7282 N   0  0  0  0  0  0  0  0  0  0  0  0
   -2.4607    0.0406    1.3669 H   0  0  0  0  0  0  0  0  0  0  0  0
   -1.3677    0.7984    3.0486 C   0  0  0  0  0  0  0  0  0  0  0  0
   -0.6494    1.6242    3.0147 H   0  0  0  0  0  0  0  0  0  0  0  0
   -2.3258    1.1902    3.4036 H   0  0  0  0  0  0  0  0  0  0  0  0
   -1.0114    0.0504    3.7649 H   0  0  0  0  0  0  0  0  0  0  0  0
  1  2  1  0  0  0  0
  2  3  1  0  0  0  0
  2  4  1  0  0  0  0
  2  5  1  0  0  0  0
  5  6  2  0  0  0  0
  5  7  1  0  0  0  0
  7  8  1  0  0  0  0
  7  9  1  0  0  0  0
  9 10  1  0  0  0  0
  9 11  1  0  0  0  0
  9 29  1  0  0  0  0
 11 12  1  0  0  0  0
 11 13  1  0  0  0  0
 11 14  1  0  0  0  0
 14 15  2  0  0  0  0
 14 28  1  0  0  0  0
 15 16  1  0  0  0  0
 15 17  1  0  0  0  0
 17 18  1  0  0  0  0
 17 19  1  0  0  0  0
 19 20  1  0  0  0  0
 19 28  2  0  0  0  0
 20 21  1  0  0  0  0
 20 22  2  0  0  0  0
 22 23  1  0  0  0  0
 22 24  1  0  0  0  0
 24 25  1  0  0  0  0
 24 26  2  0  0  0  0
 26 27  1  0  0  0  0
 26 28  1  0  0  0  0
 29 30  2  0  0  0  0
 29 31  1  0  0  0  0
 31 32  1  0  0  0  0
 31 33  1  0  0  0  0
 33 34  1  0  0  0  0
 33 35  1  0  0  0  0
 33 36  1  0  0  0  0
M  END
$$$$

  -OEChem-03222214083D

 36 37  0     1  0  0  0  0  0999 V2000
   -3.6014   -4.4661    0.7178 H   0  0  0  0  0  0  0  0  0  0  0  0
   -3.5267   -3.6266    0.0207 C   0  0  0  0  0  0  0  0  0  0  0  0
   -4.3313   -2.9193    0.2352 H   0  0  0  0  0  0  0  0  0  0  0  0
   -3.6423   -4.0039   -0.9982 H   0  0  0  0  0  0  0  0  0  0  0  0
   -2.1800   -2.9446    0.1695 C   0  0  0  0  0  0  0  0  0  0  0  0
   -1.3577   -3.3826    0.9537 O   0  0  0  0  0  0  0  0  0  0  0  0
   -1.8928   -1.8253   -0.5835 N   0  0  0  0  0  0  0  0  0  0  0  0
   -2.6487   -1.4415   -1.1444 H   0  0  0  0  0  0  0  0  0  0  0  0
   -0.6809   -1.0039   -0.4172 C   0  0  1  0  0  0  0  0  0  0  0  0
    0.1739   -1.6816   -0.5214 H   0  0  0  0  0  0  0  0  0  0  0  0
   -0.5975   -0.0226   -1.6004 C   0  0  0  0  0  0  0  0  0  0  0  0
    0.4139    0.3964   -1.6187 H   0  0  0  0  0  0  0  0  0  0  0  0
   -0.7351   -0.5603   -2.5433 H   0  0  0  0  0  0  0  0  0  0  0  0
   -1.5723    1.1249   -1.5117 C   0  0  0  0  0  0  0  0  0  0  0  0
   -1.4852    2.2281   -0.6958 C   0  0  0  0  0  0  0  0  0  0  0  0
   -0.6586    2.4499   -0.0217 H   0  0  0  0  0  0  0  0  0  0  0  0
   -2.6437    2.9798   -0.8766 N   0  0  0  0  0  0  0  0  0  0  0  0
   -2.8450    3.8664   -0.4175 H   0  0  0  0  0  0  0  0  0  0  0  0
   -3.4805    2.3653   -1.7936 C   0  0  0  0  0  0  0  0  0  0  0  0
   -4.7345    2.7192   -2.2913 C   0  0  0  0  0  0  0  0  0  0  0  0
   -5.2188    3.6302   -1.9568 H   0  0  0  0  0  0  0  0  0  0  0  0
   -5.3578    1.8842   -3.2295 C   0  0  0  0  0  0  0  0  0  0  0  0
   -6.3331    2.1496   -3.6276 H   0  0  0  0  0  0  0  0  0  0  0  0
   -4.7208    0.7102   -3.6601 C   0  0  0  0  0  0  0  0  0  0  0  0
   -5.2039    0.0709   -4.3933 H   0  0  0  0  0  0  0  0  0  0  0  0
   -3.4593    0.3653   -3.1548 C   0  0  0  0  0  0  0  0  0  0  0  0
   -2.9607   -0.5351   -3.4982 H   0  0  0  0  0  0  0  0  0  0  0  0
   -2.8461    1.2022   -2.2157 C   0  0  0  0  0  0  0  0  0  0  0  0
   -0.5133   -0.3683    0.9817 C   0  0  0  0  0  0  0  0  0  0  0  0
    0.6091   -0.1939    1.4383 O   0  0  0  0  0  0  0  0  0  0  0  0
   -1.5831    0.2403    1.6148 N   0  0  0  0  0  0  0  0  0  0  0  0
   -2.4813    0.1984    1.1424 H   0  0  0  0  0  0  0  0  0  0  0  0
   -1.4749    0.9506    2.8817 C   0  0  0  0  0  0  0  0  0  0  0  0
   -0.8212    1.8227    2.7777 H   0  0  0  0  0  0  0  0  0  0  0  0
   -2.4613    1.2931    3.2081 H   0  0  0  0  0  0  0  0  0  0  0  0
   -1.0651    0.2918    3.6545 H   0  0  0  0  0  0  0  0  0  0  0  0
  1  2  1  0  0  0  0
  2  3  1  0  0  0  0
  2  4  1  0  0  0  0
  2  5  1  0  0  0  0
  5  6  2  0  0  0  0
  5  7  1  0  0  0  0
  7  8  1  0  0  0  0
  7  9  1  0  0  0  0
  9 10  1  0  0  0  0
  9 11  1  0  0  0  0
  9 29  1  0  0  0  0
 11 12  1  0  0  0  0
 11 13  1  0  0  0  0
 11 14  1  0  0  0  0
 14 15  2  0  0  0  0
 14 28  1  0  0  0  0
 15 16  1  0  0  0  0
 15 17  1  0  0  0  0
 17 18  1  0  0  0  0
 17 19  1  0  0  0  0
 19 20  1  0  0  0  0
 19 28  2  0  0  0  0
 20 21  1  0  0  0  0
 20 22  2  0  0  0  0
 22 23  1  0  0  0  0
 22 24  1  0  0  0  0
 24 25  1  0  0  0  0
 24 26  2  0  0  0  0
 26 27  1  0  0  0  0
 26 28  1  0  0  0  0
 29 30  2  0  0  0  0
 29 31  1  0  0  0  0
 31 32  1  0  0  0  0
 31 33  1  0  0  0  0
 33 34  1  0  0  0  0
 33 35  1  0  0  0  0
 33 36  1  0  0  0  0
M  END
$$$$

  -OEChem-03222214083D

 36 37  0     1  0  0  0  0  0999 V2000
   -3.6055   -4.4488    0.8088 H   0  0  0  0  0  0  0  0  0  0  0  0
   -3.5352   -3.6228    0.0956 C   0  0  0  0  0  0  0  0  0  0  0  0
   -4.3078   -2.8874    0.3326 H   0  0  0  0  0  0  0  0  0  0  0  0
   -3.7063   -4.0117   -0.9109 H   0  0  0  0  0  0  0  0  0  0  0  0
   -2.1636   -2.9798    0.1773 C   0  0  0  0  0  0  0  0  0  0  0  0
   -1.3227   -3.4295    0.9348 O   0  0  0  0  0  0  0  0  0  0  0  0
   -1.8770   -1.8815   -0.6063 N   0  0  0  0  0  0  0  0  0  0  0  0
   -2.6598   -1.4685   -1.1055 H   0  0  0  0  0  0  0  0  0  0  0  0
   -0.6747   -1.0473   -0.4329 C   0  0  1  0  0  0  0  0  0  0  0  0
    0.1902   -1.7154   -0.5124 H   0  0  0  0  0  0  0  0  0  0  0  0
   -0.5809   -0.0609   -1.6107 C   0  0  0  0  0  0  0  0  0  0  0  0
    0.4274    0.3667   -1.6181 H   0  0  0  0  0  0  0  0  0  0  0  0
   -0.7156   -0.5865   -2.5612 H   0  0  0  0  0  0  0  0  0  0  0  0
   -1.5772    1.0635   -1.4936 C   0  0  0  0  0  0  0  0  0  0  0  0
   -1.3748    2.2719   -0.8708 C   0  0  0  0  0  0  0  0  0  0  0  0
   -0.4470    2.5908   -0.3975 H   0  0  0  0  0  0  0  0  0  0  0  0
   -2.5764    2.9747   -0.9228 N   0  0  0  0  0  0  0  0  0  0  0  0
   -2.7242    3.9112   -0.5499 H   0  0  0  0  0  0  0  0  0  0  0  0
   -3.5430    2.2340   -1.5837 C   0  0  0  0  0  0  0  0  0  0  0  0
   -4.8773    2.5055   -1.8843 C   0  0  0  0  0  0  0  0  0  0  0  0
   -5.3265    3.4440   -1.5777 H   0  0  0  0  0  0  0  0  0  0  0  0
   -5.6263    1.5533   -2.5900 C   0  0  0  0  0  0  0  0  0  0  0  0
   -6.6657    1.7541   -2.8328 H   0  0  0  0  0  0  0  0  0  0  0  0
   -5.0319    0.3480   -2.9943 C   0  0  0  0  0  0  0  0  0  0  0  0
   -5.6125   -0.3791   -3.5546 H   0  0  0  0  0  0  0  0  0  0  0  0
   -3.6888    0.0864   -2.6892 C   0  0  0  0  0  0  0  0  0  0  0  0
   -3.2221   -0.8347   -3.0237 H   0  0  0  0  0  0  0  0  0  0  0  0
   -2.9539    1.0353   -1.9689 C   0  0  0  0  0  0  0  0  0  0  0  0
   -0.5457   -0.3717    0.9523 C   0  0  0  0  0  0  0  0  0  0  0  0
    0.5637   -0.1886    1.4371 O   0  0  0  0  0  0  0  0  0  0  0  0
   -1.6365    0.2475    1.5390 N   0  0  0  0  0  0  0  0  0  0  0  0
   -2.4874    0.2847    0.9845 H   0  0  0  0  0  0  0  0  0  0  0  0
   -1.5439    1.0642    2.7415 C   0  0  0  0  0  0  0  0  0  0  0  0
   -0.9339    1.9540    2.5550 H   0  0  0  0  0  0  0  0  0  0  0  0
   -2.5412    1.3847    3.0574 H   0  0  0  0  0  0  0  0  0  0  0  0
   -1.0919    0.4912    3.5581 H   0  0  0  0  0  0  0  0  0  0  0  0
  1  2  1  0  0  0  0
  2  3  1  0  0  0  0
  2  4  1  0  0  0  0
  2  5  1  0  0  0  0
  5  6  2  0  0  0  0
  5  7  1  0  0  0  0
  7  8  1  0  0  0  0
  7  9  1  0  0  0  0
  9 10  1  0  0  0  0
  9 11  1  0  0  0  0
  9 29  1  0  0  0  0
 11 12  1  0  0  0  0
 11 13  1  0  0  0  0
 11 14  1  0  0  0  0
 14 15  2  0  0  0  0
 14 28  1  0  0  0  0
 15 16  1  0  0  0  0
 15 17  1  0  0  0  0
 17 18  1  0  0  0  0
 17 19  1  0  0  0  0
 19 20  1  0  0  0  0
 19 28  2  0  0  0  0
 20 21  1  0  0  0  0
 20 22  2  0  0  0  0
 22 23  1  0  0  0  0
 22 24  1  0  0  0  0
 24 25  1  0  0  0  0
 24 26  2  0  0  0  0
 26 27  1  0  0  0  0
 26 28  1  0  0  0  0
 29 30  2  0  0  0  0
 29 31  1  0  0  0  0
 31 32  1  0  0  0  0
 31 33  1  0  0  0  0
 33 34  1  0  0  0  0
 33 35  1  0  0  0  0
 33 36  1  0  0  0  0
M  END
$$$$

  -OEChem-03222214083D

 36 37  0     1  0  0  0  0  0999 V2000
   -3.4814   -4.5100    0.9836 H   0  0  0  0  0  0  0  0  0  0  0  0
   -3.4547   -3.6987    0.2504 C   0  0  0  0  0  0  0  0  0  0  0  0
   -4.2230   -2.9661    0.5095 H   0  0  0  0  0  0  0  0  0  0  0  0
   -3.6703   -4.1107   -0.7384 H   0  0  0  0  0  0  0  0  0  0  0  0
   -2.0877   -3.0412    0.2500 C   0  0  0  0  0  0  0  0  0  0  0  0
   -1.2015   -3.4756    0.9633 O   0  0  0  0  0  0  0  0  0  0  0  0
   -1.8571   -1.9500   -0.5617 N   0  0  0  0  0  0  0  0  0  0  0  0
   -2.6777   -1.5433   -0.9983 H   0  0  0  0  0  0  0  0  0  0  0  0
   -0.6759   -1.0817   -0.4295 C   0  0  1  0  0  0  0  0  0  0  0  0
    0.2051   -1.7260   -0.5249 H   0  0  0  0  0  0  0  0  0  0  0  0
   -0.6242   -0.0819   -1.6005 C   0  0  0  0  0  0  0  0  0  0  0  0
    0.3774    0.3598   -1.6333 H   0  0  0  0  0  0  0  0  0  0  0  0
   -0.7811   -0.6036   -2.5495 H   0  0  0  0  0  0  0  0  0  0  0  0
   -1.6421    1.0210   -1.4471 C   0  0  0  0  0  0  0  0  0  0  0  0
   -1.3592    2.3123   -1.0728 C   0  0  0  0  0  0  0  0  0  0  0  0
   -0.3711    2.6962   -0.8239 H   0  0  0  0  0  0  0  0  0  0  0  0
   -2.5645    3.0066   -1.0197 N   0  0  0  0  0  0  0  0  0  0  0  0
   -2.6644    3.9885   -0.7672 H   0  0  0  0  0  0  0  0  0  0  0  0
   -3.6113    2.1891   -1.4109 C   0  0  0  0  0  0  0  0  0  0  0  0
   -4.9763    2.4402   -1.5415 C   0  0  0  0  0  0  0  0  0  0  0  0
   -5.3796    3.4150   -1.2897 H   0  0  0  0  0  0  0  0  0  0  0  0
   -5.8157    1.4225   -2.0138 C   0  0  0  0  0  0  0  0  0  0  0  0
   -6.8807    1.6065   -2.1234 H   0  0  0  0  0  0  0  0  0  0  0  0
   -5.2781    0.1761   -2.3675 C   0  0  0  0  0  0  0  0  0  0  0  0
   -5.9298   -0.5987   -2.7608 H   0  0  0  0  0  0  0  0  0  0  0  0
   -3.9034   -0.0641   -2.2329 C   0  0  0  0  0  0  0  0  0  0  0  0
   -3.4885   -1.0144   -2.5509 H   0  0  0  0  0  0  0  0  0  0  0  0
   -3.0754    0.9436   -1.7210 C   0  0  0  0  0  0  0  0  0  0  0  0
   -0.5359   -0.3810    0.9424 C   0  0  0  0  0  0  0  0  0  0  0  0
    0.5772   -0.1778    1.4107 O   0  0  0  0  0  0  0  0  0  0  0  0
   -1.6326    0.2172    1.5405 N   0  0  0  0  0  0  0  0  0  0  0  0
   -2.4783    0.2612    0.9784 H   0  0  0  0  0  0  0  0  0  0  0  0
   -1.5284    1.0803    2.7089 C   0  0  0  0  0  0  0  0  0  0  0  0
   -0.9537    1.9808    2.4693 H   0  0  0  0  0  0  0  0  0  0  0  0
   -2.5251    1.3810    3.0453 H   0  0  0  0  0  0  0  0  0  0  0  0
   -1.0330    0.5536    3.5313 H   0  0  0  0  0  0  0  0  0  0  0  0
  1  2  1  0  0  0  0
  2  3  1  0  0  0  0
  2  4  1  0  0  0  0
  2  5  1  0  0  0  0
  5  6  2  0  0  0  0
  5  7  1  0  0  0  0
  7  8  1  0  0  0  0
  7  9  1  0  0  0  0
  9 10  1  0  0  0  0
  9 11  1  0  0  0  0
  9 29  1  0  0  0  0
 11 12  1  0  0  0  0
 11 13  1  0  0  0  0
 11 14  1  0  0  0  0
 14 15  2  0  0  0  0
 14 28  1  0  0  0  0
 15 16  1  0  0  0  0
 15 17  1  0  0  0  0
 17 18  1  0  0  0  0
 17 19  1  0  0  0  0
 19 20  1  0  0  0  0
 19 28  2  0  0  0  0
 20 21  1  0  0  0  0
 20 22  2  0  0  0  0
 22 23  1  0  0  0  0
 22 24  1  0  0  0  0
 24 25  1  0  0  0  0
 24 26  2  0  0  0  0
 26 27  1  0  0  0  0
 26 28  1  0  0  0  0
 29 30  2  0  0  0  0
 29 31  1  0  0  0  0
 31 32  1  0  0  0  0
 31 33  1  0  0  0  0
 33 34  1  0  0  0  0
 33 35  1  0  0  0  0
 33 36  1  0  0  0  0
M  END
$$$$

  -OEChem-03222214083D

 36 37  0     1  0  0  0  0  0999 V2000
   -3.2624   -4.6272    1.1330 H   0  0  0  0  0  0  0  0  0  0  0  0
   -3.3157   -3.8005    0.4187 C   0  0  0  0  0  0  0  0  0  0  0  0
   -4.0701   -3.0885    0.7617 H   0  0  0  0  0  0  0  0  0  0  0  0
   -3.6115   -4.1960   -0.5558 H   0  0  0  0  0  0  0  0  0  0  0  0
   -1.9661   -3.1160    0.3132 C   0  0  0  0  0  0  0  0  0  0  0  0
   -1.0207   -3.5304    0.9595 O   0  0  0  0  0  0  0  0  0  0  0  0
   -1.8214   -2.0180   -0.5101 N   0  0  0  0  0  0  0  0  0  0  0  0
   -2.6825   -1.6303   -0.8751 H   0  0  0  0  0  0  0  0  0  0  0  0
   -0.6694   -1.1079   -0.4296 C   0  0  1  0  0  0  0  0  0  0  0  0
    0.2279   -1.7224   -0.5652 H   0  0  0  0  0  0  0  0  0  0  0  0
   -0.6793   -0.0785   -1.5779 C   0  0  0  0  0  0  0  0  0  0  0  0
    0.3153    0.3751   -1.6449 H   0  0  0  0  0  0  0  0  0  0  0  0
   -0.8669   -0.5920   -2.5260 H   0  0  0  0  0  0  0  0  0  0  0  0
   -1.7094    1.0134   -1.3883 C   0  0  0  0  0  0  0  0  0  0  0  0
   -1.3870    2.3462   -1.2948 C   0  0  0  0  0  0  0  0  0  0  0  0
   -0.3769    2.7519   -1.2879 H   0  0  0  0  0  0  0  0  0  0  0  0
   -2.5697    3.0605   -1.1401 N   0  0  0  0  0  0  0  0  0  0  0  0
   -2.6345    4.0701   -1.0201 H   0  0  0  0  0  0  0  0  0  0  0  0
   -3.6576    2.2136   -1.2436 C   0  0  0  0  0  0  0  0  0  0  0  0
   -5.0241    2.4873   -1.2119 C   0  0  0  0  0  0  0  0  0  0  0  0
   -5.3755    3.4975   -1.0320 H   0  0  0  0  0  0  0  0  0  0  0  0
   -5.9329    1.4471   -1.4384 C   0  0  0  0  0  0  0  0  0  0  0  0
   -7.0004    1.6471   -1.4245 H   0  0  0  0  0  0  0  0  0  0  0  0
   -5.4625    0.1574   -1.7203 C   0  0  0  0  0  0  0  0  0  0  0  0
   -6.1709   -0.6368   -1.9378 H   0  0  0  0  0  0  0  0  0  0  0  0
   -4.0850   -0.1030   -1.7466 C   0  0  0  0  0  0  0  0  0  0  0  0
   -3.7461   -1.0904   -2.0340 H   0  0  0  0  0  0  0  0  0  0  0  0
   -3.1741    0.9249   -1.4570 C   0  0  0  0  0  0  0  0  0  0  0  0
   -0.4987   -0.4072    0.9385 C   0  0  0  0  0  0  0  0  0  0  0  0
    0.6240   -0.1761    1.3696 O   0  0  0  0  0  0  0  0  0  0  0  0
   -1.5944    0.1454    1.5803 N   0  0  0  0  0  0  0  0  0  0  0  0
   -2.4519    0.1810    1.0363 H   0  0  0  0  0  0  0  0  0  0  0  0
   -1.4731    1.0281    2.7319 C   0  0  0  0  0  0  0  0  0  0  0  0
   -0.9757    1.9609    2.4468 H   0  0  0  0  0  0  0  0  0  0  0  0
   -2.4642    1.2674    3.1283 H   0  0  0  0  0  0  0  0  0  0  0  0
   -0.8927    0.5463    3.5260 H   0  0  0  0  0  0  0  0  0  0  0  0
  1  2  1  0  0  0  0
  2  3  1  0  0  0  0
  2  4  1  0  0  0  0
  2  5  1  0  0  0  0
  5  6  2  0  0  0  0
  5  7  1  0  0  0  0
  7  8  1  0  0  0  0
  7  9  1  0  0  0  0
  9 10  1  0  0  0  0
  9 11  1  0  0  0  0
  9 29  1  0  0  0  0
 11 12  1  0  0  0  0
 11 13  1  0  0  0  0
 11 14  1  0  0  0  0
 14 15  2  0  0  0  0
 14 28  1  0  0  0  0
 15 16  1  0  0  0  0
 15 17  1  0  0  0  0
 17 18  1  0  0  0  0
 17 19  1  0  0  0  0
 19 20  1  0  0  0  0
 19 28  2  0  0  0  0
 20 21  1  0  0  0  0
 20 22  2  0  0  0  0
 22 23  1  0  0  0  0
 22 24  1  0  0  0  0
 24 25  1  0  0  0  0
 24 26  2  0  0  0  0
 26 27  1  0  0  0  0
 26 28  1  0  0  0  0
 29 30  2  0  0  0  0
 29 31  1  0  0  0  0
 31 32  1  0  0  0  0
 31 33  1  0  0  0  0
 33 34  1  0  0  0  0
 33 35  1  0  0  0  0
 33 36  1  0  0  0  0
M  END
$$$$

  -OEChem-03222214083D

 36 37  0     1  0  0  0  0  0999 V2000
   -2.9998   -4.9829    0.8122 H   0  0  0  0  0  0  0  0  0  0  0  0
   -3.0807   -4.1231    0.1407 C   0  0  0  0  0  0  0  0  0  0  0  0
   -4.0250   -3.6104    0.3383 H   0  0  0  0  0  0  0  0  0  0  0  0
   -3.0755   -4.4827   -0.8911 H   0  0  0  0  0  0  0  0  0  0  0  0
   -1.9182   -3.1752    0.3675 C   0  0  0  0  0  0  0  0  0  0  0  0
   -1.1173   -3.3993    1.2561 O   0  0  0  0  0  0  0  0  0  0  0  0
   -1.7666   -2.0730   -0.4488 N   0  0  0  0  0  0  0  0  0  0  0  0
   -2.4063   -1.9834   -1.2313 H   0  0  0  0  0  0  0  0  0  0  0  0
   -0.6511   -1.1200   -0.3593 C   0  0  1  0  0  0  0  0  0  0  0  0
    0.2715   -1.6968   -0.4880 H   0  0  0  0  0  0  0  0  0  0  0  0
   -0.7218   -0.1024   -1.5129 C   0  0  0  0  0  0  0  0  0  0  0  0
    0.2633    0.3697   -1.5966 H   0  0  0  0  0  0  0  0  0  0  0  0
   -0.8911   -0.6494   -2.4456 H   0  0  0  0  0  0  0  0  0  0  0  0
   -1.7766    0.9893   -1.4080 C   0  0  0  0  0  0  0  0  0  0  0  0
   -1.4301    2.2893   -1.6970 C   0  0  0  0  0  0  0  0  0  0  0  0
   -0.4342    2.6267   -1.9780 H   0  0  0  0  0  0  0  0  0  0  0  0
   -2.5538    3.0873   -1.5447 N   0  0  0  0  0  0  0  0  0  0  0  0
   -2.5824    4.0967   -1.6766 H   0  0  0  0  0  0  0  0  0  0  0  0
   -3.6385    2.3137   -1.1861 C   0  0  0  0  0  0  0  0  0  0  0  0
   -4.9540    2.7047   -0.9417 C   0  0  0  0  0  0  0  0  0  0  0  0
   -5.2380    3.7490   -1.0133 H   0  0  0  0  0  0  0  0  0  0  0  0
   -5.9011    1.7329   -0.6069 C   0  0  0  0  0  0  0  0  0  0  0  0
   -6.9308    2.0200   -0.4132 H   0  0  0  0  0  0  0  0  0  0  0  0
   -5.5184    0.3890   -0.5310 C   0  0  0  0  0  0  0  0  0  0  0  0
   -6.2579   -0.3658   -0.2795 H   0  0  0  0  0  0  0  0  0  0  0  0
   -4.1908    0.0136   -0.7809 C   0  0  0  0  0  0  0  0  0  0  0  0
   -3.9521   -1.0361   -0.7223 H   0  0  0  0  0  0  0  0  0  0  0  0
   -3.2240    0.9827   -1.1014 C   0  0  0  0  0  0  0  0  0  0  0  0
   -0.5095   -0.3847    0.9944 C   0  0  0  0  0  0  0  0  0  0  0  0
    0.6083   -0.1136    1.4165 O   0  0  0  0  0  0  0  0  0  0  0  0
   -1.6172    0.1503    1.6283 N   0  0  0  0  0  0  0  0  0  0  0  0
   -2.4889    0.1161    1.1067 H   0  0  0  0  0  0  0  0  0  0  0  0
   -1.5238    1.0487    2.7701 C   0  0  0  0  0  0  0  0  0  0  0  0
   -0.9865    1.9623    2.4955 H   0  0  0  0  0  0  0  0  0  0  0  0
   -2.5249    1.3240    3.1150 H   0  0  0  0  0  0  0  0  0  0  0  0
   -0.9956    0.5623    3.5970 H   0  0  0  0  0  0  0  0  0  0  0  0
  1  2  1  0  0  0  0
  2  3  1  0  0  0  0
  2  4  1  0  0  0  0
  2  5  1  0  0  0  0
  5  6  2  0  0  0  0
  5  7  1  0  0  0  0
  7  8  1  0  0  0  0
  7  9  1  0  0  0  0
  9 10  1  0  0  0  0
  9 11  1  0  0  0  0
  9 29  1  0  0  0  0
 11 12  1  0  0  0  0
 11 13  1  0  0  0  0
 11 14  1  0  0  0  0
 14 15  2  0  0  0  0
 14 28  1  0  0  0  0
 15 16  1  0  0  0  0
 15 17  1  0  0  0  0
 17 18  1  0  0  0  0
 17 19  1  0  0  0  0
 19 20  1  0  0  0  0
 19 28  2  0  0  0  0
 20 21  1  0  0  0  0
 20 22  2  0  0  0  0
 22 23  1  0  0  0  0
 22 24  1  0  0  0  0
 24 25  1  0  0  0  0
 24 26  2  0  0  0  0
 26 27  1  0  0  0  0
 26 28  1  0  0  0  0
 29 30  2  0  0  0  0
 29 31  1  0  0  0  0
 31 32  1  0  0  0  0
 31 33  1  0  0  0  0
 33 34  1  0  0  0  0
 33 35  1  0  0  0  0
 33 36  1  0  0  0  0
M  END
$$$$

  -OEChem-03222214083D

 36 37  0     1  0  0  0  0  0999 V2000
   -3.0110   -4.9751    0.7866 H   0  0  0  0  0  0  0  0  0  0  0  0
   -3.0826   -4.1153    0.1140 C   0  0  0  0  0  0  0  0  0  0  0  0
   -4.0096   -3.5781    0.3278 H   0  0  0  0  0  0  0  0  0  0  0  0
   -3.1064   -4.4772   -0.9166 H   0  0  0  0  0  0  0  0  0  0  0  0
   -1.8914   -3.1973    0.3141 C   0  0  0  0  0  0  0  0  0  0  0  0
   -1.0443   -3.4736    1.1430 O   0  0  0  0  0  0  0  0  0  0  0  0
   -1.7702   -2.0551   -0.4504 N   0  0  0  0  0  0  0  0  0  0  0  0
   -2.4814   -1.8854   -1.1556 H   0  0  0  0  0  0  0  0  0  0  0  0
   -0.6528   -1.1040   -0.3502 C   0  0  1  0  0  0  0  0  0  0  0  0
    0.2598   -1.6824   -0.5325 H   0  0  0  0  0  0  0  0  0  0  0  0
   -0.7577   -0.0695   -1.4821 C   0  0  0  0  0  0  0  0  0  0  0  0
    0.2220    0.4120   -1.5761 H   0  0  0  0  0  0  0  0  0  0  0  0
   -0.9367   -0.6084   -2.4180 H   0  0  0  0  0  0  0  0  0  0  0  0
   -1.8129    1.0212   -1.3642 C   0  0  0  0  0  0  0  0  0  0  0  0
   -1.5624    2.2449   -1.9419 C   0  0  0  0  0  0  0  0  0  0  0  0
   -0.6406    2.5232   -2.4491 H   0  0  0  0  0  0  0  0  0  0  0  0
   -2.6741    3.0532   -1.7621 N   0  0  0  0  0  0  0  0  0  0  0  0
   -2.7575    4.0199   -2.0714 H   0  0  0  0  0  0  0  0  0  0  0  0
   -3.6615    2.3572   -1.0962 C   0  0  0  0  0  0  0  0  0  0  0  0
   -4.9347    2.7855   -0.7241 C   0  0  0  0  0  0  0  0  0  0  0  0
   -5.2613    3.7943   -0.9506 H   0  0  0  0  0  0  0  0  0  0  0  0
   -5.7831    1.8983   -0.0567 C   0  0  0  0  0  0  0  0  0  0  0  0
   -6.7778    2.2161    0.2424 H   0  0  0  0  0  0  0  0  0  0  0  0
   -5.3454    0.5996    0.2230 C   0  0  0  0  0  0  0  0  0  0  0  0
   -6.0049   -0.0893    0.7425 H   0  0  0  0  0  0  0  0  0  0  0  0
   -4.0624    0.1855   -0.1591 C   0  0  0  0  0  0  0  0  0  0  0  0
   -3.7765   -0.8239    0.0911 H   0  0  0  0  0  0  0  0  0  0  0  0
   -3.1926    1.0694   -0.8250 C   0  0  0  0  0  0  0  0  0  0  0  0
   -0.4294   -0.4136    1.0169 C   0  0  0  0  0  0  0  0  0  0  0  0
    0.7158   -0.2013    1.3964 O   0  0  0  0  0  0  0  0  0  0  0  0
   -1.4810    0.1146    1.7445 N   0  0  0  0  0  0  0  0  0  0  0  0
   -2.3767    0.1569    1.2677 H   0  0  0  0  0  0  0  0  0  0  0  0
   -1.2902    0.9406    2.9289 C   0  0  0  0  0  0  0  0  0  0  0  0
   -0.7239    1.8441    2.6798 H   0  0  0  0  0  0  0  0  0  0  0  0
   -2.2593    1.2400    3.3391 H   0  0  0  0  0  0  0  0  0  0  0  0
   -0.7468    0.3837    3.6995 H   0  0  0  0  0  0  0  0  0  0  0  0
  1  2  1  0  0  0  0
  2  3  1  0  0  0  0
  2  4  1  0  0  0  0
  2  5  1  0  0  0  0
  5  6  2  0  0  0  0
  5  7  1  0  0  0  0
  7  8  1  0  0  0  0
  7  9  1  0  0  0  0
  9 10  1  0  0  0  0
  9 11  1  0  0  0  0
  9 29  1  0  0  0  0
 11 12  1  0  0  0  0
 11 13  1  0  0  0  0
 11 14  1  0  0  0  0
 14 15  2  0  0  0  0
 14 28  1  0  0  0  0
 15 16  1  0  0  0  0
 15 17  1  0  0  0  0
 17 18  1  0  0  0  0
 17 19  1  0  0  0  0
 19 20  1  0  0  0  0
 19 28  2  0  0  0  0
 20 21  1  0  0  0  0
 20 22  2  0  0  0  0
 22 23  1  0  0  0  0
 22 24  1  0  0  0  0
 24 25  1  0  0  0  0
 24 26  2  0  0  0  0
 26 27  1  0  0  0  0
 26 28  1  0  0  0  0
 29 30  2  0  0  0  0
 29 31  1  0  0  0  0
 31 32  1  0  0  0  0
 31 33  1  0  0  0  0
 33 34  1  0  0  0  0
 33 35  1  0  0  0  0
 33 36  1  0  0  0  0
M  END
$$$$

  -OEChem-03222214083D

 36 37  0     1  0  0  0  0  0999 V2000
   -2.7465   -4.7630    1.3037 H   0  0  0  0  0  0  0  0  0  0  0  0
   -2.9398   -3.9224    0.6312 C   0  0  0  0  0  0  0  0  0  0  0  0
   -3.8194   -3.3812    0.9876 H   0  0  0  0  0  0  0  0  0  0  0  0
   -3.1404   -4.3125   -0.3695 H   0  0  0  0  0  0  0  0  0  0  0  0
   -1.7388   -2.9963    0.5951 C   0  0  0  0  0  0  0  0  0  0  0  0
   -0.7621   -3.2334    1.2847 O   0  0  0  0  0  0  0  0  0  0  0  0
   -1.7693   -1.8632   -0.1895 N   0  0  0  0  0  0  0  0  0  0  0  0
   -2.6177   -1.6786   -0.7178 H   0  0  0  0  0  0  0  0  0  0  0  0
   -0.6634   -0.8989   -0.3084 C   0  0  1  0  0  0  0  0  0  0  0  0
    0.1977   -1.5238   -0.5702 H   0  0  0  0  0  0  0  0  0  0  0  0
   -0.8448    0.0193   -1.5321 C   0  0  0  0  0  0  0  0  0  0  0  0
    0.1286    0.4737   -1.7466 H   0  0  0  0  0  0  0  0  0  0  0  0
   -1.0883   -0.6186   -2.3874 H   0  0  0  0  0  0  0  0  0  0  0  0
   -1.8718    1.1375   -1.4958 C   0  0  0  0  0  0  0  0  0  0  0  0
   -1.8048    2.1292   -2.4477 C   0  0  0  0  0  0  0  0  0  0  0  0
   -1.0258    2.2207   -3.2019 H   0  0  0  0  0  0  0  0  0  0  0  0
   -2.8860    2.9823   -2.2766 N   0  0  0  0  0  0  0  0  0  0  0  0
   -3.0732    3.8174   -2.8276 H   0  0  0  0  0  0  0  0  0  0  0  0
   -3.6854    2.5293   -1.2467 C   0  0  0  0  0  0  0  0  0  0  0  0
   -4.8787    3.0536   -0.7503 C   0  0  0  0  0  0  0  0  0  0  0  0
   -5.2961    3.9607   -1.1731 H   0  0  0  0  0  0  0  0  0  0  0  0
   -5.5298    2.3916    0.2960 C   0  0  0  0  0  0  0  0  0  0  0  0
   -6.4589    2.7861    0.6972 H   0  0  0  0  0  0  0  0  0  0  0  0
   -4.9807    1.2163    0.8219 C   0  0  0  0  0  0  0  0  0  0  0  0
   -5.4859    0.7001    1.6324 H   0  0  0  0  0  0  0  0  0  0  0  0
   -3.7798    0.7068    0.3091 C   0  0  0  0  0  0  0  0  0  0  0  0
   -3.3781   -0.1980    0.7321 H   0  0  0  0  0  0  0  0  0  0  0  0
   -3.1106    1.3679   -0.7289 C   0  0  0  0  0  0  0  0  0  0  0  0
   -0.1481   -0.1488    0.9497 C   0  0  0  0  0  0  0  0  0  0  0  0
    0.9518    0.3811    0.8865 O   0  0  0  0  0  0  0  0  0  0  0  0
   -0.9213    0.4427    1.9230 N   0  0  0  0  0  0  0  0  0  0  0  0
   -0.4043    1.2126    2.3401 H   0  0  0  0  0  0  0  0  0  0  0  0
   -1.6313   -0.3904    2.8845 C   0  0  0  0  0  0  0  0  0  0  0  0
   -0.9219   -1.0058    3.4481 H   0  0  0  0  0  0  0  0  0  0  0  0
   -2.1780    0.2437    3.5892 H   0  0  0  0  0  0  0  0  0  0  0  0
   -2.3510   -1.0531    2.4020 H   0  0  0  0  0  0  0  0  0  0  0  0
  1  2  1  0  0  0  0
  2  3  1  0  0  0  0
  2  4  1  0  0  0  0
  2  5  1  0  0  0  0
  5  6  2  0  0  0  0
  5  7  1  0  0  0  0
  7  8  1  0  0  0  0
  7  9  1  0  0  0  0
  9 10  1  0  0  0  0
  9 11  1  0  0  0  0
  9 29  1  0  0  0  0
 11 12  1  0  0  0  0
 11 13  1  0  0  0  0
 11 14  1  0  0  0  0
 14 15  2  0  0  0  0
 14 28  1  0  0  0  0
 15 16  1  0  0  0  0
 15 17  1  0  0  0  0
 17 18  1  0  0  0  0
 17 19  1  0  0  0  0
 19 20  1  0  0  0  0
 19 28  2  0  0  0  0
 20 21  1  0  0  0  0
 20 22  2  0  0  0  0
 22 23  1  0  0  0  0
 22 24  1  0  0  0  0
 24 25  1  0  0  0  0
 24 26  2  0  0  0  0
 26 27  1  0  0  0  0
 26 28  1  0  0  0  0
 29 30  2  0  0  0  0
 29 31  1  0  0  0  0
 31 32  1  0  0  0  0
 31 33  1  0  0  0  0
 33 34  1  0  0  0  0
 33 35  1  0  0  0  0
 33 36  1  0  0  0  0
M  END
$$$$

  -OEChem-03222214083D

 36 37  0     1  0  0  0  0  0999 V2000
   -3.2079   -4.8594    0.7909 H   0  0  0  0  0  0  0  0  0  0  0  0
   -3.2978   -3.9329    0.2164 C   0  0  0  0  0  0  0  0  0  0  0  0
   -4.1559   -3.3693    0.5903 H   0  0  0  0  0  0  0  0  0  0  0  0
   -3.4639   -4.1849   -0.8338 H   0  0  0  0  0  0  0  0  0  0  0  0
   -2.0322   -3.1081    0.3567 C   0  0  0  0  0  0  0  0  0  0  0  0
   -1.0886   -3.5426    0.9915 O   0  0  0  0  0  0  0  0  0  0  0  0
   -1.9613   -1.8588   -0.2237 N   0  0  0  0  0  0  0  0  0  0  0  0
   -2.7683   -1.5478   -0.7570 H   0  0  0  0  0  0  0  0  0  0  0  0
   -0.7599   -1.0053   -0.2246 C   0  0  1  0  0  0  0  0  0  0  0  0
    0.0013   -1.7183   -0.5640 H   0  0  0  0  0  0  0  0  0  0  0  0
   -0.7619    0.0123   -1.3794 C   0  0  0  0  0  0  0  0  0  0  0  0
    0.2850    0.1972   -1.6444 H   0  0  0  0  0  0  0  0  0  0  0  0
   -1.2331   -0.4540   -2.2505 H   0  0  0  0  0  0  0  0  0  0  0  0
   -1.4015    1.3695   -1.1603 C   0  0  0  0  0  0  0  0  0  0  0  0
   -1.3925    2.2902   -2.1841 C   0  0  0  0  0  0  0  0  0  0  0  0
   -0.8094    2.1980   -3.0981 H   0  0  0  0  0  0  0  0  0  0  0  0
   -2.1945    3.3660   -1.8301 N   0  0  0  0  0  0  0  0  0  0  0  0
   -2.3255    4.2129   -2.3798 H   0  0  0  0  0  0  0  0  0  0  0  0
   -2.8794    3.0732   -0.6704 C   0  0  0  0  0  0  0  0  0  0  0  0
   -3.8682    3.8037   -0.0124 C   0  0  0  0  0  0  0  0  0  0  0  0
   -4.1362    4.7970   -0.3555 H   0  0  0  0  0  0  0  0  0  0  0  0
   -4.5291    3.2248    1.0758 C   0  0  0  0  0  0  0  0  0  0  0  0
   -5.3022    3.7780    1.6012 H   0  0  0  0  0  0  0  0  0  0  0  0
   -4.2210    1.9130    1.4558 C   0  0  0  0  0  0  0  0  0  0  0  0
   -4.7686    1.4450    2.2687 H   0  0  0  0  0  0  0  0  0  0  0  0
   -3.2233    1.1982    0.7782 C   0  0  0  0  0  0  0  0  0  0  0  0
   -3.0573    0.1654    1.0446 H   0  0  0  0  0  0  0  0  0  0  0  0
   -2.4864    1.8020   -0.2524 C   0  0  0  0  0  0  0  0  0  0  0  0
   -0.0949   -0.5134    1.0903 C   0  0  0  0  0  0  0  0  0  0  0  0
    1.1265   -0.4183    1.1025 O   0  0  0  0  0  0  0  0  0  0  0  0
   -0.7979   -0.0046    2.1686 N   0  0  0  0  0  0  0  0  0  0  0  0
   -1.8065   -0.0532    2.1164 H   0  0  0  0  0  0  0  0  0  0  0  0
   -0.2020    0.6019    3.3562 C   0  0  0  0  0  0  0  0  0  0  0  0
   -0.5661    1.6273    3.4720 H   0  0  0  0  0  0  0  0  0  0  0  0
    0.8907    0.6374    3.3018 H   0  0  0  0  0  0  0  0  0  0  0  0
   -0.4763    0.0265    4.2455 H   0  0  0  0  0  0  0  0  0  0  0  0
  1  2  1  0  0  0  0
  2  3  1  0  0  0  0
  2  4  1  0  0  0  0
  2  5  1  0  0  0  0
  5  6  2  0  0  0  0
  5  7  1  0  0  0  0
  7  8  1  0  0  0  0
  7  9  1  0  0  0  0
  9 10  1  0  0  0  0
  9 11  1  0  0  0  0
  9 29  1  0  0  0  0
 11 12  1  0  0  0  0
 11 13  1  0  0  0  0
 11 14  1  0  0  0  0
 14 15  2  0  0  0  0
 14 28  1  0  0  0  0
 15 16  1  0  0  0  0
 15 17  1  0  0  0  0
 17 18  1  0  0  0  0
 17 19  1  0  0  0  0
 19 20  1  0  0  0  0
 19 28  2  0  0  0  0
 20 21  1  0  0  0  0
 20 22  2  0  0  0  0
 22 23  1  0  0  0  0
 22 24  1  0  0  0  0
 24 25  1  0  0  0  0
 24 26  2  0  0  0  0
 26 27  1  0  0  0  0
 26 28  1  0  0  0  0
 29 30  2  0  0  0  0
 29 31  1  0  0  0  0
 31 32  1  0  0  0  0
 31 33  1  0  0  0  0
 33 34  1  0  0  0  0
 33 35  1  0  0  0  0
 33 36  1  0  0  0  0
M  END
$$$$

  -OEChem-03222214083D

 36 37  0     1  0  0  0  0  0999 V2000
   -3.2769   -5.1124    0.0842 H   0  0  0  0  0  0  0  0  0  0  0  0
   -3.3340   -4.1248   -0.3826 C   0  0  0  0  0  0  0  0  0  0  0  0
   -4.2131   -3.6039    0.0039 H   0  0  0  0  0  0  0  0  0  0  0  0
   -3.4377   -4.2524   -1.4628 H   0  0  0  0  0  0  0  0  0  0  0  0
   -2.0802   -3.3290   -0.0728 C   0  0  0  0  0  0  0  0  0  0  0  0
   -1.1878   -3.8350    0.5823 O   0  0  0  0  0  0  0  0  0  0  0  0
   -1.9532   -2.0376   -0.5455 N   0  0  0  0  0  0  0  0  0  0  0  0
   -2.7456   -1.6538   -1.0516 H   0  0  0  0  0  0  0  0  0  0  0  0
   -0.8268   -1.1336   -0.2336 C   0  0  1  0  0  0  0  0  0  0  0  0
    0.0844   -1.6987   -0.4612 H   0  0  0  0  0  0  0  0  0  0  0  0
   -0.8417    0.0111   -1.2817 C   0  0  0  0  0  0  0  0  0  0  0  0
    0.2072    0.3126   -1.3745 H   0  0  0  0  0  0  0  0  0  0  0  0
   -1.1213   -0.4259   -2.2463 H   0  0  0  0  0  0  0  0  0  0  0  0
   -1.5953    1.3256   -1.1208 C   0  0  0  0  0  0  0  0  0  0  0  0
   -1.7733    2.0685   -2.2694 C   0  0  0  0  0  0  0  0  0  0  0  0
   -1.5292    1.7302   -3.2743 H   0  0  0  0  0  0  0  0  0  0  0  0
   -2.3840    3.2702   -1.9497 N   0  0  0  0  0  0  0  0  0  0  0  0
   -2.6428    3.9990   -2.6119 H   0  0  0  0  0  0  0  0  0  0  0  0
   -2.4110    3.4182   -0.5822 C   0  0  0  0  0  0  0  0  0  0  0  0
   -2.8163    4.5247    0.1637 C   0  0  0  0  0  0  0  0  0  0  0  0
   -3.2745    5.3785   -0.3230 H   0  0  0  0  0  0  0  0  0  0  0  0
   -2.5843    4.5331    1.5413 C   0  0  0  0  0  0  0  0  0  0  0  0
   -2.8860    5.3853    2.1431 H   0  0  0  0  0  0  0  0  0  0  0  0
   -1.9009    3.4633    2.1282 C   0  0  0  0  0  0  0  0  0  0  0  0
   -1.6510    3.4925    3.1845 H   0  0  0  0  0  0  0  0  0  0  0  0
   -1.5018    2.3663    1.3517 C   0  0  0  0  0  0  0  0  0  0  0  0
   -0.8803    1.6219    1.8239 H   0  0  0  0  0  0  0  0  0  0  0  0
   -1.8338    2.2818   -0.0100 C   0  0  0  0  0  0  0  0  0  0  0  0
   -0.7148   -0.8740    1.2827 C   0  0  0  0  0  0  0  0  0  0  0  0
    0.3839   -0.7736    1.8130 O   0  0  0  0  0  0  0  0  0  0  0  0
   -1.8491   -0.5984    2.0294 N   0  0  0  0  0  0  0  0  0  0  0  0
   -2.7397   -0.6692    1.5490 H   0  0  0  0  0  0  0  0  0  0  0  0
   -1.8387   -0.4742    3.4822 C   0  0  0  0  0  0  0  0  0  0  0  0
   -1.1445    0.3102    3.8013 H   0  0  0  0  0  0  0  0  0  0  0  0
   -2.8378   -0.2163    3.8457 H   0  0  0  0  0  0  0  0  0  0  0  0
   -1.5341   -1.4200    3.9424 H   0  0  0  0  0  0  0  0  0  0  0  0
  1  2  1  0  0  0  0
  2  3  1  0  0  0  0
  2  4  1  0  0  0  0
  2  5  1  0  0  0  0
  5  6  2  0  0  0  0
  5  7  1  0  0  0  0
  7  8  1  0  0  0  0
  7  9  1  0  0  0  0
  9 10  1  0  0  0  0
  9 11  1  0  0  0  0
  9 29  1  0  0  0  0
 11 12  1  0  0  0  0
 11 13  1  0  0  0  0
 11 14  1  0  0  0  0
 14 15  2  0  0  0  0
 14 28  1  0  0  0  0
 15 16  1  0  0  0  0
 15 17  1  0  0  0  0
 17 18  1  0  0  0  0
 17 19  1  0  0  0  0
 19 20  1  0  0  0  0
 19 28  2  0  0  0  0
 20 21  1  0  0  0  0
 20 22  2  0  0  0  0
 22 23  1  0  0  0  0
 22 24  1  0  0  0  0
 24 25  1  0  0  0  0
 24 26  2  0  0  0  0
 26 27  1  0  0  0  0
 26 28  1  0  0  0  0
 29 30  2  0  0  0  0
 29 31  1  0  0  0  0
 31 32  1  0  0  0  0
 31 33  1  0  0  0  0
 33 34  1  0  0  0  0
 33 35  1  0  0  0  0
 33 36  1  0  0  0  0
M  END
$$$$

  -OEChem-03222214083D

 36 37  0     1  0  0  0  0  0999 V2000
   -2.6963   -5.1448    0.3068 H   0  0  0  0  0  0  0  0  0  0  0  0
   -2.8717   -4.1905   -0.1985 C   0  0  0  0  0  0  0  0  0  0  0  0
   -3.7554   -3.7196    0.2384 H   0  0  0  0  0  0  0  0  0  0  0  0
   -3.0539   -4.3824   -1.2587 H   0  0  0  0  0  0  0  0  0  0  0  0
   -1.6655   -3.2850   -0.0354 C   0  0  0  0  0  0  0  0  0  0  0  0
   -0.6796   -3.6877    0.5539 O   0  0  0  0  0  0  0  0  0  0  0  0
   -1.6890   -2.0125   -0.5704 N   0  0  0  0  0  0  0  0  0  0  0  0
   -2.5613   -1.7118   -0.9936 H   0  0  0  0  0  0  0  0  0  0  0  0
   -0.6400   -0.9966   -0.3514 C   0  0  1  0  0  0  0  0  0  0  0  0
    0.3109   -1.4637   -0.6320 H   0  0  0  0  0  0  0  0  0  0  0  0
   -0.8800    0.1180   -1.4016 C   0  0  0  0  0  0  0  0  0  0  0  0
    0.1066    0.5520   -1.5957 H   0  0  0  0  0  0  0  0  0  0  0  0
   -1.1993   -0.3483   -2.3394 H   0  0  0  0  0  0  0  0  0  0  0  0
   -1.7793    1.3073   -1.1033 C   0  0  0  0  0  0  0  0  0  0  0  0
   -2.4641    1.8834   -2.1519 C   0  0  0  0  0  0  0  0  0  0  0  0
   -2.5160    1.4809   -3.1614 H   0  0  0  0  0  0  0  0  0  0  0  0
   -3.1101    3.0240   -1.7003 N   0  0  0  0  0  0  0  0  0  0  0  0
   -3.6901    3.6406   -2.2662 H   0  0  0  0  0  0  0  0  0  0  0  0
   -2.7015    3.3065   -0.4156 C   0  0  0  0  0  0  0  0  0  0  0  0
   -3.0025    4.4128    0.3777 C   0  0  0  0  0  0  0  0  0  0  0  0
   -3.7136    5.1566    0.0359 H   0  0  0  0  0  0  0  0  0  0  0  0
   -2.3495    4.5651    1.6041 C   0  0  0  0  0  0  0  0  0  0  0  0
   -2.5656    5.4215    2.2360 H   0  0  0  0  0  0  0  0  0  0  0  0
   -1.3799    3.6328    1.9900 C   0  0  0  0  0  0  0  0  0  0  0  0
   -0.8310    3.7703    2.9168 H   0  0  0  0  0  0  0  0  0  0  0  0
   -1.0928    2.5298    1.1739 C   0  0  0  0  0  0  0  0  0  0  0  0
   -0.2879    1.8734    1.4752 H   0  0  0  0  0  0  0  0  0  0  0  0
   -1.8061    2.3130   -0.0165 C   0  0  0  0  0  0  0  0  0  0  0  0
   -0.4663   -0.6422    1.1394 C   0  0  0  0  0  0  0  0  0  0  0  0
    0.6542   -0.4843    1.6077 O   0  0  0  0  0  0  0  0  0  0  0  0
   -1.5710   -0.4210    1.9447 N   0  0  0  0  0  0  0  0  0  0  0  0
   -2.4824   -0.4630    1.5017 H   0  0  0  0  0  0  0  0  0  0  0  0
   -1.4870   -0.1511    3.3746 C   0  0  0  0  0  0  0  0  0  0  0  0
   -1.0667   -1.0148    3.9003 H   0  0  0  0  0  0  0  0  0  0  0  0
   -0.8543    0.7206    3.5695 H   0  0  0  0  0  0  0  0  0  0  0  0
   -2.4832    0.0512    3.7790 H   0  0  0  0  0  0  0  0  0  0  0  0
  1  2  1  0  0  0  0
  2  3  1  0  0  0  0
  2  4  1  0  0  0  0
  2  5  1  0  0  0  0
  5  6  2  0  0  0  0
  5  7  1  0  0  0  0
  7  8  1  0  0  0  0
  7  9  1  0  0  0  0
  9 10  1  0  0  0  0
  9 11  1  0  0  0  0
  9 29  1  0  0  0  0
 11 12  1  0  0  0  0
 11 13  1  0  0  0  0
 11 14  1  0  0  0  0
 14 15  2  0  0  0  0
 14 28  1  0  0  0  0
 15 16  1  0  0  0  0
 15 17  1  0  0  0  0
 17 18  1  0  0  0  0
 17 19  1  0  0  0  0
 19 20  1  0  0  0  0
 19 28  2  0  0  0  0
 20 21  1  0  0  0  0
 20 22  2  0  0  0  0
 22 23  1  0  0  0  0
 22 24  1  0  0  0  0
 24 25  1  0  0  0  0
 24 26  2  0  0  0  0
 26 27  1  0  0  0  0
 26 28  1  0  0  0  0
 29 30  2  0  0  0  0
 29 31  1  0  0  0  0
 31 32  1  0  0  0  0
 31 33  1  0  0  0  0
 33 34  1  0  0  0  0
 33 35  1  0  0  0  0
 33 36  1  0  0  0  0
M  END
$$$$

  -OEChem-03222214083D

 36 37  0     1  0  0  0  0  0999 V2000
   -3.2874   -4.9445    0.3943 H   0  0  0  0  0  0  0  0  0  0  0  0
   -3.3255   -3.9862   -0.1318 C   0  0  0  0  0  0  0  0  0  0  0  0
   -4.1668   -3.4065    0.2552 H   0  0  0  0  0  0  0  0  0  0  0  0
   -3.4792   -4.1765   -1.1968 H   0  0  0  0  0  0  0  0  0  0  0  0
   -2.0296   -3.2258    0.0781 C   0  0  0  0  0  0  0  0  0  0  0  0
   -1.1503   -3.7063    0.7692 O   0  0  0  0  0  0  0  0  0  0  0  0
   -1.8464   -2.0027   -0.5354 N   0  0  0  0  0  0  0  0  0  0  0  0
   -2.6431   -1.6213   -1.0348 H   0  0  0  0  0  0  0  0  0  0  0  0
   -0.7043   -1.1074   -0.2649 C   0  0  1  0  0  0  0  0  0  0  0  0
    0.2051   -1.6959   -0.4330 H   0  0  0  0  0  0  0  0  0  0  0  0
   -0.7243   -0.0228   -1.3700 C   0  0  0  0  0  0  0  0  0  0  0  0
    0.3139    0.2952   -1.5098 H   0  0  0  0  0  0  0  0  0  0  0  0
   -1.0390   -0.4762   -2.3157 H   0  0  0  0  0  0  0  0  0  0  0  0
   -1.5178    1.2448   -1.1198 C   0  0  0  0  0  0  0  0  0  0  0  0
   -2.3488    1.7611   -2.0891 C   0  0  0  0  0  0  0  0  0  0  0  0
   -2.5970    1.2727   -3.0290 H   0  0  0  0  0  0  0  0  0  0  0  0
   -2.8290    2.9892   -1.6544 N   0  0  0  0  0  0  0  0  0  0  0  0
   -3.4586    3.5966   -2.1755 H   0  0  0  0  0  0  0  0  0  0  0  0
   -2.1976    3.3504   -0.4815 C   0  0  0  0  0  0  0  0  0  0  0  0
   -2.2873    4.5290    0.2585 C   0  0  0  0  0  0  0  0  0  0  0  0
   -2.9829    5.3084   -0.0322 H   0  0  0  0  0  0  0  0  0  0  0  0
   -1.4495    4.7018    1.3658 C   0  0  0  0  0  0  0  0  0  0  0  0
   -1.5024    5.6138    1.9531 H   0  0  0  0  0  0  0  0  0  0  0  0
   -0.5176    3.7091    1.6939 C   0  0  0  0  0  0  0  0  0  0  0  0
    0.1585    3.8528    2.5315 H   0  0  0  0  0  0  0  0  0  0  0  0
   -0.4405    2.5321    0.9364 C   0  0  0  0  0  0  0  0  0  0  0  0
    0.3193    1.8011    1.1859 H   0  0  0  0  0  0  0  0  0  0  0  0
   -1.3237    2.3222   -0.1334 C   0  0  0  0  0  0  0  0  0  0  0  0
   -0.6170   -0.6572    1.2096 C   0  0  0  0  0  0  0  0  0  0  0  0
    0.4671   -0.6336    1.7793 O   0  0  0  0  0  0  0  0  0  0  0  0
   -1.7470   -0.2355    1.8895 N   0  0  0  0  0  0  0  0  0  0  0  0
   -2.5838   -0.0868    1.3356 H   0  0  0  0  0  0  0  0  0  0  0  0
   -1.7256    0.2238    3.2723 C   0  0  0  0  0  0  0  0  0  0  0  0
   -1.1144    1.1261    3.3714 H   0  0  0  0  0  0  0  0  0  0  0  0
   -2.7409    0.4539    3.6086 H   0  0  0  0  0  0  0  0  0  0  0  0
   -1.3139   -0.5526    3.9255 H   0  0  0  0  0  0  0  0  0  0  0  0
  1  2  1  0  0  0  0
  2  3  1  0  0  0  0
  2  4  1  0  0  0  0
  2  5  1  0  0  0  0
  5  6  2  0  0  0  0
  5  7  1  0  0  0  0
  7  8  1  0  0  0  0
  7  9  1  0  0  0  0
  9 10  1  0  0  0  0
  9 11  1  0  0  0  0
  9 29  1  0  0  0  0
 11 12  1  0  0  0  0
 11 13  1  0  0  0  0
 11 14  1  0  0  0  0
 14 15  2  0  0  0  0
 14 28  1  0  0  0  0
 15 16  1  0  0  0  0
 15 17  1  0  0  0  0
 17 18  1  0  0  0  0
 17 19  1  0  0  0  0
 19 20  1  0  0  0  0
 19 28  2  0  0  0  0
 20 21  1  0  0  0  0
 20 22  2  0  0  0  0
 22 23  1  0  0  0  0
 22 24  1  0  0  0  0
 24 25  1  0  0  0  0
 24 26  2  0  0  0  0
 26 27  1  0  0  0  0
 26 28  1  0  0  0  0
 29 30  2  0  0  0  0
 29 31  1  0  0  0  0
 31 32  1  0  0  0  0
 31 33  1  0  0  0  0
 33 34  1  0  0  0  0
 33 35  1  0  0  0  0
 33 36  1  0  0  0  0
M  END
$$$$

  -OEChem-03222214083D

 36 37  0     1  0  0  0  0  0999 V2000
   -3.3656   -4.8106    0.5631 H   0  0  0  0  0  0  0  0  0  0  0  0
   -3.3560   -3.9053   -0.0506 C   0  0  0  0  0  0  0  0  0  0  0  0
   -4.1928   -3.2700    0.2489 H   0  0  0  0  0  0  0  0  0  0  0  0
   -3.4770   -4.1900   -1.0985 H   0  0  0  0  0  0  0  0  0  0  0  0
   -2.0464   -3.1629    0.1369 C   0  0  0  0  0  0  0  0  0  0  0  0
   -1.1861   -3.6252    0.8635 O   0  0  0  0  0  0  0  0  0  0  0  0
   -1.8296   -1.9768   -0.5356 N   0  0  0  0  0  0  0  0  0  0  0  0
   -2.6118   -1.6045   -1.0632 H   0  0  0  0  0  0  0  0  0  0  0  0
   -0.6750   -1.0917   -0.2883 C   0  0  1  0  0  0  0  0  0  0  0  0
    0.2235   -1.7055   -0.4207 H   0  0  0  0  0  0  0  0  0  0  0  0
   -0.6513   -0.0412   -1.4231 C   0  0  0  0  0  0  0  0  0  0  0  0
    0.3921    0.2545   -1.5736 H   0  0  0  0  0  0  0  0  0  0  0  0
   -0.9839   -0.5043   -2.3577 H   0  0  0  0  0  0  0  0  0  0  0  0
   -1.4329    1.2292   -1.1720 C   0  0  0  0  0  0  0  0  0  0  0  0
   -2.4798    1.6379   -1.9659 C   0  0  0  0  0  0  0  0  0  0  0  0
   -2.9034    1.0719   -2.7927 H   0  0  0  0  0  0  0  0  0  0  0  0
   -2.8944    2.8905   -1.5265 N   0  0  0  0  0  0  0  0  0  0  0  0
   -3.6404    3.4463   -1.9412 H   0  0  0  0  0  0  0  0  0  0  0  0
   -2.0572    3.3435   -0.5231 C   0  0  0  0  0  0  0  0  0  0  0  0
   -2.0351    4.5539    0.1699 C   0  0  0  0  0  0  0  0  0  0  0  0
   -2.7871    5.3108   -0.0231 H   0  0  0  0  0  0  0  0  0  0  0  0
   -1.0198    4.7845    1.1070 C   0  0  0  0  0  0  0  0  0  0  0  0
   -0.9875    5.7209    1.6563 H   0  0  0  0  0  0  0  0  0  0  0  0
   -0.0328    3.8126    1.3218 C   0  0  0  0  0  0  0  0  0  0  0  0
    0.7658    3.9964    2.0345 H   0  0  0  0  0  0  0  0  0  0  0  0
   -0.0666    2.6020    0.6159 C   0  0  0  0  0  0  0  0  0  0  0  0
    0.7140    1.8658    0.7779 H   0  0  0  0  0  0  0  0  0  0  0  0
   -1.1058    2.3547   -0.2910 C   0  0  0  0  0  0  0  0  0  0  0  0
   -0.5848   -0.5558    1.1589 C   0  0  0  0  0  0  0  0  0  0  0  0
    0.5004   -0.5055    1.7250 O   0  0  0  0  0  0  0  0  0  0  0  0
   -1.7083   -0.0673    1.8039 N   0  0  0  0  0  0  0  0  0  0  0  0
   -2.5274    0.0863    1.2257 H   0  0  0  0  0  0  0  0  0  0  0  0
   -1.6619    0.5460    3.1247 C   0  0  0  0  0  0  0  0  0  0  0  0
   -1.0231    1.4348    3.1157 H   0  0  0  0  0  0  0  0  0  0  0  0
   -2.6670    0.8447    3.4366 H   0  0  0  0  0  0  0  0  0  0  0  0
   -1.2690   -0.1628    3.8611 H   0  0  0  0  0  0  0  0  0  0  0  0
  1  2  1  0  0  0  0
  2  3  1  0  0  0  0
  2  4  1  0  0  0  0
  2  5  1  0  0  0  0
  5  6  2  0  0  0  0
  5  7  1  0  0  0  0
  7  8  1  0  0  0  0
  7  9  1  0  0  0  0
  9 10  1  0  0  0  0
  9 11  1  0  0  0  0
  9 29  1  0  0  0  0
 11 12  1  0  0  0  0
 11 13  1  0  0  0  0
 11 14  1  0  0  0  0
 14 15  2  0  0  0  0
 14 28  1  0  0  0  0
 15 16  1  0  0  0  0
 15 17  1  0  0  0  0
 17 18  1  0  0  0  0
 17 19  1  0  0  0  0
 19 20  1  0  0  0  0
 19 28  2  0  0  0  0
 20 21  1  0  0  0  0
 20 22  2  0  0  0  0
 22 23  1  0  0  0  0
 22 24  1  0  0  0  0
 24 25  1  0  0  0  0
 24 26  2  0  0  0  0
 26 27  1  0  0  0  0
 26 28  1  0  0  0  0
 29 30  2  0  0  0  0
 29 31  1  0  0  0  0
 31 32  1  0  0  0  0
 31 33  1  0  0  0  0
 33 34  1  0  0  0  0
 33 35  1  0  0  0  0
 33 36  1  0  0  0  0
M  END
$$$$

  -OEChem-03222214083D

 36 37  0     1  0  0  0  0  0999 V2000
   -3.3919   -4.6991    0.7266 H   0  0  0  0  0  0  0  0  0  0  0  0
   -3.3609   -3.8479    0.0403 C   0  0  0  0  0  0  0  0  0  0  0  0
   -4.1996   -3.1851    0.2661 H   0  0  0  0  0  0  0  0  0  0  0  0
   -3.4598   -4.2180   -0.9830 H   0  0  0  0  0  0  0  0  0  0  0  0
   -2.0501   -3.1007    0.1977 C   0  0  0  0  0  0  0  0  0  0  0  0
   -1.2007   -3.5214    0.9614 O   0  0  0  0  0  0  0  0  0  0  0  0
   -1.8229   -1.9539   -0.5364 N   0  0  0  0  0  0  0  0  0  0  0  0
   -2.5907   -1.6169   -1.1063 H   0  0  0  0  0  0  0  0  0  0  0  0
   -0.6598   -1.0688   -0.3349 C   0  0  1  0  0  0  0  0  0  0  0  0
    0.2298   -1.7005   -0.4393 H   0  0  0  0  0  0  0  0  0  0  0  0
   -0.6116   -0.0618   -1.5057 C   0  0  0  0  0  0  0  0  0  0  0  0
    0.4341    0.2126   -1.6784 H   0  0  0  0  0  0  0  0  0  0  0  0
   -0.9658   -0.5458   -2.4216 H   0  0  0  0  0  0  0  0  0  0  0  0
   -1.3832    1.2146   -1.2694 C   0  0  0  0  0  0  0  0  0  0  0  0
   -2.5969    1.5191   -1.8392 C   0  0  0  0  0  0  0  0  0  0  0  0
   -3.1612    0.8765   -2.5110 H   0  0  0  0  0  0  0  0  0  0  0  0
   -2.9610    2.7926   -1.4111 N   0  0  0  0  0  0  0  0  0  0  0  0
   -3.8010    3.2946   -1.6934 H   0  0  0  0  0  0  0  0  0  0  0  0
   -1.9696    3.3317   -0.6085 C   0  0  0  0  0  0  0  0  0  0  0  0
   -1.8647    4.5702    0.0249 C   0  0  0  0  0  0  0  0  0  0  0  0
   -2.6616    5.3005   -0.0619 H   0  0  0  0  0  0  0  0  0  0  0  0
   -0.7140    4.8599    0.7708 C   0  0  0  0  0  0  0  0  0  0  0  0
   -0.6177    5.8186    1.2718 H   0  0  0  0  0  0  0  0  0  0  0  0
    0.3172    3.9139    0.8670 C   0  0  0  0  0  0  0  0  0  0  0  0
    1.2102    4.1381    1.4428 H   0  0  0  0  0  0  0  0  0  0  0  0
    0.2012    2.6742    0.2236 C   0  0  0  0  0  0  0  0  0  0  0  0
    0.9992    1.9416    0.3026 H   0  0  0  0  0  0  0  0  0  0  0  0
   -0.9569    2.3849   -0.5071 C   0  0  0  0  0  0  0  0  0  0  0  0
   -0.5438   -0.4470    1.0774 C   0  0  0  0  0  0  0  0  0  0  0  0
    0.5563   -0.3498    1.6080 O   0  0  0  0  0  0  0  0  0  0  0  0
   -1.6506    0.0970    1.7072 N   0  0  0  0  0  0  0  0  0  0  0  0
   -2.4704    0.2295    1.1248 H   0  0  0  0  0  0  0  0  0  0  0  0
   -1.5555    0.8528    2.9493 C   0  0  0  0  0  0  0  0  0  0  0  0
   -0.9257    1.7381    2.8143 H   0  0  0  0  0  0  0  0  0  0  0  0
   -2.5491    1.1805    3.2688 H   0  0  0  0  0  0  0  0  0  0  0  0
   -1.1257    0.2317    3.7422 H   0  0  0  0  0  0  0  0  0  0  0  0
  1  2  1  0  0  0  0
  2  3  1  0  0  0  0
  2  4  1  0  0  0  0
  2  5  1  0  0  0  0
  5  6  2  0  0  0  0
  5  7  1  0  0  0  0
  7  8  1  0  0  0  0
  7  9  1  0  0  0  0
  9 10  1  0  0  0  0
  9 11  1  0  0  0  0
  9 29  1  0  0  0  0
 11 12  1  0  0  0  0
 11 13  1  0  0  0  0
 11 14  1  0  0  0  0
 14 15  2  0  0  0  0
 14 28  1  0  0  0  0
 15 16  1  0  0  0  0
 15 17  1  0  0  0  0
 17 18  1  0  0  0  0
 17 19  1  0  0  0  0
 19 20  1  0  0  0  0
 19 28  2  0  0  0  0
 20 21  1  0  0  0  0
 20 22  2  0  0  0  0
 22 23  1  0  0  0  0
 22 24  1  0  0  0  0
 24 25  1  0  0  0  0
 24 26  2  0  0  0  0
 26 27  1  0  0  0  0
 26 28  1  0  0  0  0
 29 30  2  0  0  0  0
 29 31  1  0  0  0  0
 31 32  1  0  0  0  0
 31 33  1  0  0  0  0
 33 34  1  0  0  0  0
 33 35  1  0  0  0  0
 33 36  1  0  0  0  0
M  END
$$$$

  -OEChem-03222214083D

 36 37  0     1  0  0  0  0  0999 V2000
   -3.3806   -4.6867    0.7743 H   0  0  0  0  0  0  0  0  0  0  0  0
   -3.3544   -3.8483    0.0725 C   0  0  0  0  0  0  0  0  0  0  0  0
   -4.2212   -3.2098    0.2574 H   0  0  0  0  0  0  0  0  0  0  0  0
   -3.4070   -4.2408   -0.9458 H   0  0  0  0  0  0  0  0  0  0  0  0
   -2.0747   -3.0543    0.2570 C   0  0  0  0  0  0  0  0  0  0  0  0
   -1.2526   -3.4102    1.0811 O   0  0  0  0  0  0  0  0  0  0  0  0
   -1.8419   -1.9409   -0.5248 N   0  0  0  0  0  0  0  0  0  0  0  0
   -2.5706   -1.6745   -1.1767 H   0  0  0  0  0  0  0  0  0  0  0  0
   -0.6730   -1.0546   -0.3710 C   0  0  1  0  0  0  0  0  0  0  0  0
    0.2069   -1.7022   -0.4575 H   0  0  0  0  0  0  0  0  0  0  0  0
   -0.6129   -0.0904   -1.5742 C   0  0  0  0  0  0  0  0  0  0  0  0
    0.4344    0.1655   -1.7654 H   0  0  0  0  0  0  0  0  0  0  0  0
   -0.9843   -0.5962   -2.4710 H   0  0  0  0  0  0  0  0  0  0  0  0
   -1.3762    1.1935   -1.3593 C   0  0  0  0  0  0  0  0  0  0  0  0
   -2.6983    1.4048   -1.6721 C   0  0  0  0  0  0  0  0  0  0  0  0
   -3.3619    0.6854   -2.1455 H   0  0  0  0  0  0  0  0  0  0  0  0
   -3.0233    2.7022   -1.2842 N   0  0  0  0  0  0  0  0  0  0  0  0
   -3.9277    3.1515   -1.4163 H   0  0  0  0  0  0  0  0  0  0  0  0
   -1.9214    3.3277   -0.7235 C   0  0  0  0  0  0  0  0  0  0  0  0
   -1.7518    4.6047   -0.1887 C   0  0  0  0  0  0  0  0  0  0  0  0
   -2.5783    5.3063   -0.1724 H   0  0  0  0  0  0  0  0  0  0  0  0
   -0.5008    4.9661    0.3311 C   0  0  0  0  0  0  0  0  0  0  0  0
   -0.3528    5.9555    0.7536 H   0  0  0  0  0  0  0  0  0  0  0  0
    0.5611    4.0489    0.3117 C   0  0  0  0  0  0  0  0  0  0  0  0
    1.5275    4.3256    0.7223 H   0  0  0  0  0  0  0  0  0  0  0  0
    0.3793    2.7693   -0.2310 C   0  0  0  0  0  0  0  0  0  0  0  0
    1.1950    2.0520   -0.2326 H   0  0  0  0  0  0  0  0  0  0  0  0
   -0.8705    2.4188   -0.7526 C   0  0  0  0  0  0  0  0  0  0  0  0
   -0.5151   -0.3576    1.0022 C   0  0  0  0  0  0  0  0  0  0  0  0
    0.6064   -0.2070    1.4725 O   0  0  0  0  0  0  0  0  0  0  0  0
   -1.5976    0.2348    1.6303 N   0  0  0  0  0  0  0  0  0  0  0  0
   -2.4399    0.3156    1.0714 H   0  0  0  0  0  0  0  0  0  0  0  0
   -1.4451    1.1224    2.7760 C   0  0  0  0  0  0  0  0  0  0  0  0
   -0.8665    2.0097    2.4988 H   0  0  0  0  0  0  0  0  0  0  0  0
   -2.4262    1.4453    3.1360 H   0  0  0  0  0  0  0  0  0  0  0  0
   -0.9311    0.6075    3.5945 H   0  0  0  0  0  0  0  0  0  0  0  0
  1  2  1  0  0  0  0
  2  3  1  0  0  0  0
  2  4  1  0  0  0  0
  2  5  1  0  0  0  0
  5  6  2  0  0  0  0
  5  7  1  0  0  0  0
  7  8  1  0  0  0  0
  7  9  1  0  0  0  0
  9 10  1  0  0  0  0
  9 11  1  0  0  0  0
  9 29  1  0  0  0  0
 11 12  1  0  0  0  0
 11 13  1  0  0  0  0
 11 14  1  0  0  0  0
 14 15  2  0  0  0  0
 14 28  1  0  0  0  0
 15 16  1  0  0  0  0
 15 17  1  0  0  0  0
 17 18  1  0  0  0  0
 17 19  1  0  0  0  0
 19 20  1  0  0  0  0
 19 28  2  0  0  0  0
 20 21  1  0  0  0  0
 20 22  2  0  0  0  0
 22 23  1  0  0  0  0
 22 24  1  0  0  0  0
 24 25  1  0  0  0  0
 24 26  2  0  0  0  0
 26 27  1  0  0  0  0
 26 28  1  0  0  0  0
 29 30  2  0  0  0  0
 29 31  1  0  0  0  0
 31 32  1  0  0  0  0
 31 33  1  0  0  0  0
 33 34  1  0  0  0  0
 33 35  1  0  0  0  0
 33 36  1  0  0  0  0
M  END
$$$$

  -OEChem-03222214083D

 36 37  0     1  0  0  0  0  0999 V2000
   -3.3290   -4.7380    0.7848 H   0  0  0  0  0  0  0  0  0  0  0  0
   -3.3155   -3.9160    0.0634 C   0  0  0  0  0  0  0  0  0  0  0  0
   -4.2322   -3.3332    0.1788 H   0  0  0  0  0  0  0  0  0  0  0  0
   -3.2799   -4.3352   -0.9449 H   0  0  0  0  0  0  0  0  0  0  0  0
   -2.1050   -3.0336    0.3028 C   0  0  0  0  0  0  0  0  0  0  0  0
   -1.3295   -3.3011    1.2019 O   0  0  0  0  0  0  0  0  0  0  0  0
   -1.8815   -1.9405   -0.5102 N   0  0  0  0  0  0  0  0  0  0  0  0
   -2.5123   -1.8113   -1.2932 H   0  0  0  0  0  0  0  0  0  0  0  0
   -0.7107   -1.0508   -0.3895 C   0  0  1  0  0  0  0  0  0  0  0  0
    0.1666   -1.7022   -0.4730 H   0  0  0  0  0  0  0  0  0  0  0  0
   -0.6585   -0.1037   -1.6055 C   0  0  0  0  0  0  0  0  0  0  0  0
    0.3882    0.1415   -1.8110 H   0  0  0  0  0  0  0  0  0  0  0  0
   -1.0432   -0.6151   -2.4930 H   0  0  0  0  0  0  0  0  0  0  0  0
   -1.4170    1.1848   -1.3957 C   0  0  0  0  0  0  0  0  0  0  0  0
   -2.7843    1.3347   -1.4168 C   0  0  0  0  0  0  0  0  0  0  0  0
   -3.5053    0.5536   -1.6432 H   0  0  0  0  0  0  0  0  0  0  0  0
   -3.0706    2.6612   -1.1052 N   0  0  0  0  0  0  0  0  0  0  0  0
   -4.0000    3.0759   -1.0718 H   0  0  0  0  0  0  0  0  0  0  0  0
   -1.9010    3.3600   -0.8539 C   0  0  0  0  0  0  0  0  0  0  0  0
   -1.6731    4.6866   -0.4868 C   0  0  0  0  0  0  0  0  0  0  0  0
   -2.5035    5.3736   -0.3669 H   0  0  0  0  0  0  0  0  0  0  0  0
   -0.3570    5.1175   -0.2679 C   0  0  0  0  0  0  0  0  0  0  0  0
   -0.1628    6.1461    0.0210 H   0  0  0  0  0  0  0  0  0  0  0  0
    0.7108    4.2183   -0.4122 C   0  0  0  0  0  0  0  0  0  0  0  0
    1.7289    4.5493   -0.2297 H   0  0  0  0  0  0  0  0  0  0  0  0
    0.4692    2.8886   -0.7848 C   0  0  0  0  0  0  0  0  0  0  0  0
    1.2925    2.1874   -0.8803 H   0  0  0  0  0  0  0  0  0  0  0  0
   -0.8453    2.4707   -1.0162 C   0  0  0  0  0  0  0  0  0  0  0  0
   -0.5244   -0.3120    0.9591 C   0  0  0  0  0  0  0  0  0  0  0  0
    0.6097   -0.1306    1.3864 O   0  0  0  0  0  0  0  0  0  0  0  0
   -1.5913    0.3049    1.5899 N   0  0  0  0  0  0  0  0  0  0  0  0
   -2.4532    0.3400    1.0576 H   0  0  0  0  0  0  0  0  0  0  0  0
   -1.4064    1.2743    2.6614 C   0  0  0  0  0  0  0  0  0  0  0  0
   -0.8613    2.1499    2.2926 H   0  0  0  0  0  0  0  0  0  0  0  0
   -2.3767    1.6039    3.0439 H   0  0  0  0  0  0  0  0  0  0  0  0
   -0.8433    0.8299    3.4890 H   0  0  0  0  0  0  0  0  0  0  0  0
  1  2  1  0  0  0  0
  2  3  1  0  0  0  0
  2  4  1  0  0  0  0
  2  5  1  0  0  0  0
  5  6  2  0  0  0  0
  5  7  1  0  0  0  0
  7  8  1  0  0  0  0
  7  9  1  0  0  0  0
  9 10  1  0  0  0  0
  9 11  1  0  0  0  0
  9 29  1  0  0  0  0
 11 12  1  0  0  0  0
 11 13  1  0  0  0  0
 11 14  1  0  0  0  0
 14 15  2  0  0  0  0
 14 28  1  0  0  0  0
 15 16  1  0  0  0  0
 15 17  1  0  0  0  0
 17 18  1  0  0  0  0
 17 19  1  0  0  0  0
 19 20  1  0  0  0  0
 19 28  2  0  0  0  0
 20 21  1  0  0  0  0
 20 22  2  0  0  0  0
 22 23  1  0  0  0  0
 22 24  1  0  0  0  0
 24 25  1  0  0  0  0
 24 26  2  0  0  0  0
 26 27  1  0  0  0  0
 26 28  1  0  0  0  0
 29 30  2  0  0  0  0
 29 31  1  0  0  0  0
 31 32  1  0  0  0  0
 31 33  1  0  0  0  0
 33 34  1  0  0  0  0
 33 35  1  0  0  0  0
 33 36  1  0  0  0  0
M  END
$$$$

  -OEChem-03222214083D

 36 37  0     1  0  0  0  0  0999 V2000
   -3.3119   -4.8067    0.6888 H   0  0  0  0  0  0  0  0  0  0  0  0
   -3.2935   -3.9742   -0.0205 C   0  0  0  0  0  0  0  0  0  0  0  0
   -4.2396   -3.4324    0.0496 H   0  0  0  0  0  0  0  0  0  0  0  0
   -3.1835   -4.3761   -1.0308 H   0  0  0  0  0  0  0  0  0  0  0  0
   -2.1376   -3.0445    0.2976 C   0  0  0  0  0  0  0  0  0  0  0  0
   -1.4045   -3.2885    1.2376 O   0  0  0  0  0  0  0  0  0  0  0  0
   -1.9191   -1.9321   -0.4901 N   0  0  0  0  0  0  0  0  0  0  0  0
   -2.4874   -1.8502   -1.3264 H   0  0  0  0  0  0  0  0  0  0  0  0
   -0.7466   -1.0459   -0.3534 C   0  0  1  0  0  0  0  0  0  0  0  0
    0.1262   -1.7015   -0.4509 H   0  0  0  0  0  0  0  0  0  0  0  0
   -0.6893   -0.0841   -1.5574 C   0  0  0  0  0  0  0  0  0  0  0  0
    0.3621    0.1578   -1.7405 H   0  0  0  0  0  0  0  0  0  0  0  0
   -1.0606   -0.5825   -2.4580 H   0  0  0  0  0  0  0  0  0  0  0  0
   -1.4420    1.2096   -1.3526 C   0  0  0  0  0  0  0  0  0  0  0  0
   -2.7888    1.3339   -1.0972 C   0  0  0  0  0  0  0  0  0  0  0  0
   -3.5020    0.5156   -1.0426 H   0  0  0  0  0  0  0  0  0  0  0  0
   -3.0677    2.6868   -0.9266 N   0  0  0  0  0  0  0  0  0  0  0  0
   -3.9854    3.0856   -0.7373 H   0  0  0  0  0  0  0  0  0  0  0  0
   -1.9088    3.4345   -1.0542 C   0  0  0  0  0  0  0  0  0  0  0  0
   -1.6809    4.8072   -0.9582 C   0  0  0  0  0  0  0  0  0  0  0  0
   -2.5017    5.4861   -0.7559 H   0  0  0  0  0  0  0  0  0  0  0  0
   -0.3776    5.2960   -1.1232 C   0  0  0  0  0  0  0  0  0  0  0  0
   -0.1839    6.3620   -1.0495 H   0  0  0  0  0  0  0  0  0  0  0  0
    0.6790    4.4086   -1.3775 C   0  0  0  0  0  0  0  0  0  0  0  0
    1.6893    4.7883   -1.4968 H   0  0  0  0  0  0  0  0  0  0  0  0
    0.4372    3.0305   -1.4729 C   0  0  0  0  0  0  0  0  0  0  0  0
    1.2568    2.3443   -1.6598 H   0  0  0  0  0  0  0  0  0  0  0  0
   -0.8681    2.5501   -1.3158 C   0  0  0  0  0  0  0  0  0  0  0  0
   -0.5409   -0.3351    1.0076 C   0  0  0  0  0  0  0  0  0  0  0  0
    0.5996   -0.1626    1.4201 O   0  0  0  0  0  0  0  0  0  0  0  0
   -1.5931    0.2735    1.6696 N   0  0  0  0  0  0  0  0  0  0  0  0
   -2.4867    0.2676    1.1931 H   0  0  0  0  0  0  0  0  0  0  0  0
   -1.4001    1.1961    2.7799 C   0  0  0  0  0  0  0  0  0  0  0  0
   -0.8622    2.0889    2.4439 H   0  0  0  0  0  0  0  0  0  0  0  0
   -2.3675    1.5047    3.1866 H   0  0  0  0  0  0  0  0  0  0  0  0
   -0.8267    0.7186    3.5814 H   0  0  0  0  0  0  0  0  0  0  0  0
  1  2  1  0  0  0  0
  2  3  1  0  0  0  0
  2  4  1  0  0  0  0
  2  5  1  0  0  0  0
  5  6  2  0  0  0  0
  5  7  1  0  0  0  0
  7  8  1  0  0  0  0
  7  9  1  0  0  0  0
  9 10  1  0  0  0  0
  9 11  1  0  0  0  0
  9 29  1  0  0  0  0
 11 12  1  0  0  0  0
 11 13  1  0  0  0  0
 11 14  1  0  0  0  0
 14 15  2  0  0  0  0
 14 28  1  0  0  0  0
 15 16  1  0  0  0  0
 15 17  1  0  0  0  0
 17 18  1  0  0  0  0
 17 19  1  0  0  0  0
 19 20  1  0  0  0  0
 19 28  2  0  0  0  0
 20 21  1  0  0  0  0
 20 22  2  0  0  0  0
 22 23  1  0  0  0  0
 22 24  1  0  0  0  0
 24 25  1  0  0  0  0
 24 26  2  0  0  0  0
 26 27  1  0  0  0  0
 26 28  1  0  0  0  0
 29 30  2  0  0  0  0
 29 31  1  0  0  0  0
 31 32  1  0  0  0  0
 31 33  1  0  0  0  0
 33 34  1  0  0  0  0
 33 35  1  0  0  0  0
 33 36  1  0  0  0  0
M  END
$$$$

  -OEChem-03222214083D

 36 37  0     1  0  0  0  0  0999 V2000
   -3.2291   -4.8673    0.5915 H   0  0  0  0  0  0  0  0  0  0  0  0
   -3.2412   -4.0072   -0.0844 C   0  0  0  0  0  0  0  0  0  0  0  0
   -4.2092   -3.5077   -0.0005 H   0  0  0  0  0  0  0  0  0  0  0  0
   -3.1087   -4.3648   -1.1084 H   0  0  0  0  0  0  0  0  0  0  0  0
   -2.1272   -3.0435    0.2786 C   0  0  0  0  0  0  0  0  0  0  0  0
   -1.4041   -3.2819    1.2278 O   0  0  0  0  0  0  0  0  0  0  0  0
   -1.9454   -1.8951   -0.4655 N   0  0  0  0  0  0  0  0  0  0  0  0
   -2.5064   -1.8107   -1.3074 H   0  0  0  0  0  0  0  0  0  0  0  0
   -0.7852   -0.9944   -0.3174 C   0  0  1  0  0  0  0  0  0  0  0  0
    0.0888   -1.6445   -0.4390 H   0  0  0  0  0  0  0  0  0  0  0  0
   -0.7262   -0.0140   -1.5068 C   0  0  0  0  0  0  0  0  0  0  0  0
    0.3290    0.2352   -1.6562 H   0  0  0  0  0  0  0  0  0  0  0  0
   -1.0678   -0.5063   -2.4223 H   0  0  0  0  0  0  0  0  0  0  0  0
   -1.4814    1.2835   -1.3269 C   0  0  0  0  0  0  0  0  0  0  0  0
   -2.7521    1.4448   -0.8230 C   0  0  0  0  0  0  0  0  0  0  0  0
   -3.4073    0.6451   -0.4897 H   0  0  0  0  0  0  0  0  0  0  0  0
   -3.0447    2.8057   -0.8231 N   0  0  0  0  0  0  0  0  0  0  0  0
   -3.9111    3.2269   -0.4944 H   0  0  0  0  0  0  0  0  0  0  0  0
   -1.9708    3.5263   -1.3171 C   0  0  0  0  0  0  0  0  0  0  0  0
   -1.7839    4.8962   -1.5032 C   0  0  0  0  0  0  0  0  0  0  0  0
   -2.5686    5.5973   -1.2417 H   0  0  0  0  0  0  0  0  0  0  0  0
   -0.5681    5.3538   -2.0295 C   0  0  0  0  0  0  0  0  0  0  0  0
   -0.4065    6.4174   -2.1785 H   0  0  0  0  0  0  0  0  0  0  0  0
    0.4427    4.4392   -2.3613 C   0  0  0  0  0  0  0  0  0  0  0  0
    1.3853    4.7959   -2.7650 H   0  0  0  0  0  0  0  0  0  0  0  0
    0.2433    3.0647   -2.1683 C   0  0  0  0  0  0  0  0  0  0  0  0
    1.0282    2.3588   -2.4185 H   0  0  0  0  0  0  0  0  0  0  0  0
   -0.9739    2.6141   -1.6447 C   0  0  0  0  0  0  0  0  0  0  0  0
   -0.5532   -0.3342    1.0644 C   0  0  0  0  0  0  0  0  0  0  0  0
    0.5956   -0.1398    1.4421 O   0  0  0  0  0  0  0  0  0  0  0  0
   -1.5910    0.2306    1.7844 N   0  0  0  0  0  0  0  0  0  0  0  0
   -2.5322    0.0365    1.4669 H   0  0  0  0  0  0  0  0  0  0  0  0
   -1.3956    0.9834    3.0159 C   0  0  0  0  0  0  0  0  0  0  0  0
   -0.7715    1.8638    2.8297 H   0  0  0  0  0  0  0  0  0  0  0  0
   -2.3584    1.3203    3.4108 H   0  0  0  0  0  0  0  0  0  0  0  0
   -0.9092    0.3593    3.7727 H   0  0  0  0  0  0  0  0  0  0  0  0
  1  2  1  0  0  0  0
  2  3  1  0  0  0  0
  2  4  1  0  0  0  0
  2  5  1  0  0  0  0
  5  6  2  0  0  0  0
  5  7  1  0  0  0  0
  7  8  1  0  0  0  0
  7  9  1  0  0  0  0
  9 10  1  0  0  0  0
  9 11  1  0  0  0  0
  9 29  1  0  0  0  0
 11 12  1  0  0  0  0
 11 13  1  0  0  0  0
 11 14  1  0  0  0  0
 14 15  2  0  0  0  0
 14 28  1  0  0  0  0
 15 16  1  0  0  0  0
 15 17  1  0  0  0  0
 17 18  1  0  0  0  0
 17 19  1  0  0  0  0
 19 20  1  0  0  0  0
 19 28  2  0  0  0  0
 20 21  1  0  0  0  0
 20 22  2  0  0  0  0
 22 23  1  0  0  0  0
 22 24  1  0  0  0  0
 24 25  1  0  0  0  0
 24 26  2  0  0  0  0
 26 27  1  0  0  0  0
 26 28  1  0  0  0  0
 29 30  2  0  0  0  0
 29 31  1  0  0  0  0
 31 32  1  0  0  0  0
 31 33  1  0  0  0  0
 33 34  1  0  0  0  0
 33 35  1  0  0  0  0
 33 36  1  0  0  0  0
M  END
$$$$

  -OEChem-03222214083D

 36 37  0     1  0  0  0  0  0999 V2000
   -3.1705   -4.8888    0.5217 H   0  0  0  0  0  0  0  0  0  0  0  0
   -3.2030   -4.0099   -0.1287 C   0  0  0  0  0  0  0  0  0  0  0  0
   -4.1740   -3.5227   -0.0125 H   0  0  0  0  0  0  0  0  0  0  0  0
   -3.0871   -4.3368   -1.1649 H   0  0  0  0  0  0  0  0  0  0  0  0
   -2.0901   -3.0469    0.2398 C   0  0  0  0  0  0  0  0  0  0  0  0
   -1.3318   -3.3151    1.1532 O   0  0  0  0  0  0  0  0  0  0  0  0
   -1.9563   -1.8565   -0.4457 N   0  0  0  0  0  0  0  0  0  0  0  0
   -2.5703   -1.7199   -1.2432 H   0  0  0  0  0  0  0  0  0  0  0  0
   -0.8140   -0.9351   -0.2892 C   0  0  1  0  0  0  0  0  0  0  0  0
    0.0652   -1.5706   -0.4479 H   0  0  0  0  0  0  0  0  0  0  0  0
   -0.7658    0.0740   -1.4567 C   0  0  0  0  0  0  0  0  0  0  0  0
    0.2886    0.3395   -1.5860 H   0  0  0  0  0  0  0  0  0  0  0  0
   -1.0866   -0.4111   -2.3833 H   0  0  0  0  0  0  0  0  0  0  0  0
   -1.5261    1.3717   -1.2928 C   0  0  0  0  0  0  0  0  0  0  0  0
   -2.6718    1.6164   -0.5708 C   0  0  0  0  0  0  0  0  0  0  0  0
   -3.2244    0.8844    0.0097 H   0  0  0  0  0  0  0  0  0  0  0  0
   -3.0019    2.9599   -0.7259 N   0  0  0  0  0  0  0  0  0  0  0  0
   -3.7876    3.4314   -0.2832 H   0  0  0  0  0  0  0  0  0  0  0  0
   -2.0814    3.5878   -1.5463 C   0  0  0  0  0  0  0  0  0  0  0  0
   -1.9847    4.9062   -1.9910 C   0  0  0  0  0  0  0  0  0  0  0  0
   -2.7203    5.6419   -1.6853 H   0  0  0  0  0  0  0  0  0  0  0  0
   -0.9245    5.2662   -2.8346 C   0  0  0  0  0  0  0  0  0  0  0  0
   -0.8359    6.2891   -3.1886 H   0  0  0  0  0  0  0  0  0  0  0  0
    0.0236    4.3064   -3.2201 C   0  0  0  0  0  0  0  0  0  0  0  0
    0.8460    4.5879   -3.8708 H   0  0  0  0  0  0  0  0  0  0  0  0
   -0.0842    2.9844   -2.7647 C   0  0  0  0  0  0  0  0  0  0  0  0
    0.6507    2.2428   -3.0591 H   0  0  0  0  0  0  0  0  0  0  0  0
   -1.1457    2.6320   -1.9237 C   0  0  0  0  0  0  0  0  0  0  0  0
   -0.5568   -0.3456    1.1191 C   0  0  0  0  0  0  0  0  0  0  0  0
    0.5953   -0.1074    1.4585 O   0  0  0  0  0  0  0  0  0  0  0  0
   -1.5903    0.1478    1.8962 N   0  0  0  0  0  0  0  0  0  0  0  0
   -2.5124   -0.2158    1.6861 H   0  0  0  0  0  0  0  0  0  0  0  0
   -1.3687    0.7764    3.1923 C   0  0  0  0  0  0  0  0  0  0  0  0
   -0.7364    1.6640    3.0835 H   0  0  0  0  0  0  0  0  0  0  0  0
   -2.3222    1.0859    3.6306 H   0  0  0  0  0  0  0  0  0  0  0  0
   -0.8801    0.0771    3.8790 H   0  0  0  0  0  0  0  0  0  0  0  0
  1  2  1  0  0  0  0
  2  3  1  0  0  0  0
  2  4  1  0  0  0  0
  2  5  1  0  0  0  0
  5  6  2  0  0  0  0
  5  7  1  0  0  0  0
  7  8  1  0  0  0  0
  7  9  1  0  0  0  0
  9 10  1  0  0  0  0
  9 11  1  0  0  0  0
  9 29  1  0  0  0  0
 11 12  1  0  0  0  0
 11 13  1  0  0  0  0
 11 14  1  0  0  0  0
 14 15  2  0  0  0  0
 14 28  1  0  0  0  0
 15 16  1  0  0  0  0
 15 17  1  0  0  0  0
 17 18  1  0  0  0  0
 17 19  1  0  0  0  0
 19 20  1  0  0  0  0
 19 28  2  0  0  0  0
 20 21  1  0  0  0  0
 20 22  2  0  0  0  0
 22 23  1  0  0  0  0
 22 24  1  0  0  0  0
 24 25  1  0  0  0  0
 24 26  2  0  0  0  0
 26 27  1  0  0  0  0
 26 28  1  0  0  0  0
 29 30  2  0  0  0  0
 29 31  1  0  0  0  0
 31 32  1  0  0  0  0
 31 33  1  0  0  0  0
 33 34  1  0  0  0  0
 33 35  1  0  0  0  0
 33 36  1  0  0  0  0
M  END
$$$$

  -OEChem-03222214083D

 36 37  0     1  0  0  0  0  0999 V2000
   -3.1177   -4.9226    0.4111 H   0  0  0  0  0  0  0  0  0  0  0  0
   -3.1921   -4.0100   -0.1876 C   0  0  0  0  0  0  0  0  0  0  0  0
   -4.1641   -3.5467   -0.0023 H   0  0  0  0  0  0  0  0  0  0  0  0
   -3.1175   -4.2771   -1.2446 H   0  0  0  0  0  0  0  0  0  0  0  0
   -2.0779   -3.0498    0.1842 C   0  0  0  0  0  0  0  0  0  0  0  0
   -1.2718   -3.3564    1.0430 O   0  0  0  0  0  0  0  0  0  0  0  0
   -1.9937   -1.8197   -0.4355 N   0  0  0  0  0  0  0  0  0  0  0  0
   -2.6607   -1.6359   -1.1794 H   0  0  0  0  0  0  0  0  0  0  0  0
   -0.8639   -0.8845   -0.2759 C   0  0  1  0  0  0  0  0  0  0  0  0
    0.0137   -1.5087   -0.4821 H   0  0  0  0  0  0  0  0  0  0  0  0
   -0.8366    0.1508   -1.4218 C   0  0  0  0  0  0  0  0  0  0  0  0
    0.2147    0.4265   -1.5578 H   0  0  0  0  0  0  0  0  0  0  0  0
   -1.1614   -0.3304   -2.3494 H   0  0  0  0  0  0  0  0  0  0  0  0
   -1.5978    1.4500   -1.2650 C   0  0  0  0  0  0  0  0  0  0  0  0
   -2.5742    1.8187   -0.3674 C   0  0  0  0  0  0  0  0  0  0  0  0
   -2.9987    1.1962    0.4113 H   0  0  0  0  0  0  0  0  0  0  0  0
   -2.9476    3.1304   -0.6471 N   0  0  0  0  0  0  0  0  0  0  0  0
   -3.6298    3.6743   -0.1233 H   0  0  0  0  0  0  0  0  0  0  0  0
   -2.2233    3.6183   -1.7195 C   0  0  0  0  0  0  0  0  0  0  0  0
   -2.2333    4.8564   -2.3618 C   0  0  0  0  0  0  0  0  0  0  0  0
   -2.8996    5.6424   -2.0239 H   0  0  0  0  0  0  0  0  0  0  0  0
   -1.3710    5.0698   -3.4461 C   0  0  0  0  0  0  0  0  0  0  0  0
   -1.3677    6.0291   -3.9550 H   0  0  0  0  0  0  0  0  0  0  0  0
   -0.5104    4.0464   -3.8720 C   0  0  0  0  0  0  0  0  0  0  0  0
    0.1600    4.2152   -4.7091 H   0  0  0  0  0  0  0  0  0  0  0  0
   -0.5087    2.8068   -3.2162 C   0  0  0  0  0  0  0  0  0  0  0  0
    0.1592    2.0157   -3.5407 H   0  0  0  0  0  0  0  0  0  0  0  0
   -1.3734    2.6011   -2.1351 C   0  0  0  0  0  0  0  0  0  0  0  0
   -0.5546   -0.3686    1.1503 C   0  0  0  0  0  0  0  0  0  0  0  0
    0.6044   -0.1067    1.4459 O   0  0  0  0  0  0  0  0  0  0  0  0
   -1.5616    0.0573    1.9986 N   0  0  0  0  0  0  0  0  0  0  0  0
   -2.4752   -0.3467    1.8230 H   0  0  0  0  0  0  0  0  0  0  0  0
   -1.2907    0.6006    3.3239 C   0  0  0  0  0  0  0  0  0  0  0  0
   -0.6894    1.5128    3.2481 H   0  0  0  0  0  0  0  0  0  0  0  0
   -2.2286    0.8489    3.8294 H   0  0  0  0  0  0  0  0  0  0  0  0
   -0.7487   -0.1294    3.9344 H   0  0  0  0  0  0  0  0  0  0  0  0
  1  2  1  0  0  0  0
  2  3  1  0  0  0  0
  2  4  1  0  0  0  0
  2  5  1  0  0  0  0
  5  6  2  0  0  0  0
  5  7  1  0  0  0  0
  7  8  1  0  0  0  0
  7  9  1  0  0  0  0
  9 10  1  0  0  0  0
  9 11  1  0  0  0  0
  9 29  1  0  0  0  0
 11 12  1  0  0  0  0
 11 13  1  0  0  0  0
 11 14  1  0  0  0  0
 14 15  2  0  0  0  0
 14 28  1  0  0  0  0
 15 16  1  0  0  0  0
 15 17  1  0  0  0  0
 17 18  1  0  0  0  0
 17 19  1  0  0  0  0
 19 20  1  0  0  0  0
 19 28  2  0  0  0  0
 20 21  1  0  0  0  0
 20 22  2  0  0  0  0
 22 23  1  0  0  0  0
 22 24  1  0  0  0  0
 24 25  1  0  0  0  0
 24 26  2  0  0  0  0
 26 27  1  0  0  0  0
 26 28  1  0  0  0  0
 29 30  2  0  0  0  0
 29 31  1  0  0  0  0
 31 32  1  0  0  0  0
 31 33  1  0  0  0  0
 33 34  1  0  0  0  0
 33 35  1  0  0  0  0
 33 36  1  0  0  0  0
M  END
$$$$

  -OEChem-03222214083D

 36 37  0     1  0  0  0  0  0999 V2000
   -3.1318   -4.8982    0.3505 H   0  0  0  0  0  0  0  0  0  0  0  0
   -3.2257   -3.9599   -0.2040 C   0  0  0  0  0  0  0  0  0  0  0  0
   -4.1762   -3.4897    0.0589 H   0  0  0  0  0  0  0  0  0  0  0  0
   -3.2193   -4.1828   -1.2737 H   0  0  0  0  0  0  0  0  0  0  0  0
   -2.0738   -3.0343    0.1400 C   0  0  0  0  0  0  0  0  0  0  0  0
   -1.2163   -3.3951    0.9251 O   0  0  0  0  0  0  0  0  0  0  0  0
   -2.0123   -1.7748   -0.4207 N   0  0  0  0  0  0  0  0  0  0  0  0
   -2.7347   -1.5350   -1.0940 H   0  0  0  0  0  0  0  0  0  0  0  0
   -0.8789   -0.8436   -0.2631 C   0  0  1  0  0  0  0  0  0  0  0  0
   -0.0106   -1.4627   -0.5183 H   0  0  0  0  0  0  0  0  0  0  0  0
   -0.8759    0.2205   -1.3844 C   0  0  0  0  0  0  0  0  0  0  0  0
    0.1725    0.4909   -1.5497 H   0  0  0  0  0  0  0  0  0  0  0  0
   -1.2292   -0.2531   -2.3055 H   0  0  0  0  0  0  0  0  0  0  0  0
   -1.6200    1.5309   -1.2196 C   0  0  0  0  0  0  0  0  0  0  0  0
   -2.3801    2.0488   -0.1939 C   0  0  0  0  0  0  0  0  0  0  0  0
   -2.6014    1.5781    0.7543 H   0  0  0  0  0  0  0  0  0  0  0  0
   -2.8414    3.3034   -0.5845 N   0  0  0  0  0  0  0  0  0  0  0  0
   -3.4020    3.9296   -0.0105 H   0  0  0  0  0  0  0  0  0  0  0  0
   -2.3881    3.6106   -1.8536 C   0  0  0  0  0  0  0  0  0  0  0  0
   -2.5737    4.7321   -2.6621 C   0  0  0  0  0  0  0  0  0  0  0  0
   -3.1703    5.5670   -2.3116 H   0  0  0  0  0  0  0  0  0  0  0  0
   -1.9783    4.7651   -3.9307 C   0  0  0  0  0  0  0  0  0  0  0  0
   -2.1138    5.6316   -4.5712 H   0  0  0  0  0  0  0  0  0  0  0  0
   -1.2050    3.6808   -4.3722 C   0  0  0  0  0  0  0  0  0  0  0  0
   -0.7415    3.7096   -5.3538 H   0  0  0  0  0  0  0  0  0  0  0  0
   -1.0250    2.5601   -3.5484 C   0  0  0  0  0  0  0  0  0  0  0  0
   -0.4230    1.7234   -3.8868 H   0  0  0  0  0  0  0  0  0  0  0  0
   -1.6249    2.5331   -2.2837 C   0  0  0  0  0  0  0  0  0  0  0  0
   -0.5235   -0.4032    1.1762 C   0  0  0  0  0  0  0  0  0  0  0  0
    0.6419   -0.1454    1.4475 O   0  0  0  0  0  0  0  0  0  0  0  0
   -1.5046   -0.0294    2.0776 N   0  0  0  0  0  0  0  0  0  0  0  0
   -2.4268   -0.4129    1.8974 H   0  0  0  0  0  0  0  0  0  0  0  0
   -1.1940    0.4163    3.4308 C   0  0  0  0  0  0  0  0  0  0  0  0
   -0.5909    1.3301    3.4040 H   0  0  0  0  0  0  0  0  0  0  0  0
   -2.1157    0.6291    3.9803 H   0  0  0  0  0  0  0  0  0  0  0  0
   -0.6379   -0.3569    3.9714 H   0  0  0  0  0  0  0  0  0  0  0  0
  1  2  1  0  0  0  0
  2  3  1  0  0  0  0
  2  4  1  0  0  0  0
  2  5  1  0  0  0  0
  5  6  2  0  0  0  0
  5  7  1  0  0  0  0
  7  8  1  0  0  0  0
  7  9  1  0  0  0  0
  9 10  1  0  0  0  0
  9 11  1  0  0  0  0
  9 29  1  0  0  0  0
 11 12  1  0  0  0  0
 11 13  1  0  0  0  0
 11 14  1  0  0  0  0
 14 15  2  0  0  0  0
 14 28  1  0  0  0  0
 15 16  1  0  0  0  0
 15 17  1  0  0  0  0
 17 18  1  0  0  0  0
 17 19  1  0  0  0  0
 19 20  1  0  0  0  0
 19 28  2  0  0  0  0
 20 21  1  0  0  0  0
 20 22  2  0  0  0  0
 22 23  1  0  0  0  0
 22 24  1  0  0  0  0
 24 25  1  0  0  0  0
 24 26  2  0  0  0  0
 26 27  1  0  0  0  0
 26 28  1  0  0  0  0
 29 30  2  0  0  0  0
 29 31  1  0  0  0  0
 31 32  1  0  0  0  0
 31 33  1  0  0  0  0
 33 34  1  0  0  0  0
 33 35  1  0  0  0  0
 33 36  1  0  0  0  0
M  END
$$$$

  -OEChem-03222214083D

 36 37  0     1  0  0  0  0  0999 V2000
   -3.3248   -4.7640    0.4206 H   0  0  0  0  0  0  0  0  0  0  0  0
   -3.3705   -3.8290   -0.1451 C   0  0  0  0  0  0  0  0  0  0  0  0
   -4.2759   -3.2886    0.1419 H   0  0  0  0  0  0  0  0  0  0  0  0
   -3.4171   -4.0652   -1.2110 H   0  0  0  0  0  0  0  0  0  0  0  0
   -2.1443   -2.9838    0.1449 C   0  0  0  0  0  0  0  0  0  0  0  0
   -1.2705   -3.4079    0.8786 O   0  0  0  0  0  0  0  0  0  0  0  0
   -2.0312   -1.7267   -0.4125 N   0  0  0  0  0  0  0  0  0  0  0  0
   -2.7816   -1.4260   -1.0284 H   0  0  0  0  0  0  0  0  0  0  0  0
   -0.8497   -0.8521   -0.2863 C   0  0  1  0  0  0  0  0  0  0  0  0
   -0.0130   -1.5005   -0.5715 H   0  0  0  0  0  0  0  0  0  0  0  0
   -0.8562    0.2178   -1.4047 C   0  0  0  0  0  0  0  0  0  0  0  0
    0.1911    0.4433   -1.6317 H   0  0  0  0  0  0  0  0  0  0  0  0
   -1.2779   -0.2486   -2.3001 H   0  0  0  0  0  0  0  0  0  0  0  0
   -1.5345    1.5620   -1.2173 C   0  0  0  0  0  0  0  0  0  0  0  0
   -1.9933    2.2329   -0.1041 C   0  0  0  0  0  0  0  0  0  0  0  0
   -1.9003    1.9266    0.9287 H   0  0  0  0  0  0  0  0  0  0  0  0
   -2.5824    3.4229   -0.5230 N   0  0  0  0  0  0  0  0  0  0  0  0
   -2.9688    4.1359    0.0923 H   0  0  0  0  0  0  0  0  0  0  0  0
   -2.5121    3.5385   -1.8978 C   0  0  0  0  0  0  0  0  0  0  0  0
   -2.9508    4.5347   -2.7698 C   0  0  0  0  0  0  0  0  0  0  0  0
   -3.4528    5.4156   -2.3852 H   0  0  0  0  0  0  0  0  0  0  0  0
   -2.7322    4.3823   -4.1458 C   0  0  0  0  0  0  0  0  0  0  0  0
   -3.0670    5.1507   -4.8363 H   0  0  0  0  0  0  0  0  0  0  0  0
   -2.0769    3.2404   -4.6302 C   0  0  0  0  0  0  0  0  0  0  0  0
   -1.9035    3.1266   -5.6961 H   0  0  0  0  0  0  0  0  0  0  0  0
   -1.6394    2.2472   -3.7420 C   0  0  0  0  0  0  0  0  0  0  0  0
   -1.1256    1.3686   -4.1171 H   0  0  0  0  0  0  0  0  0  0  0  0
   -1.8651    2.4033   -2.3685 C   0  0  0  0  0  0  0  0  0  0  0  0
   -0.4593   -0.4526    1.1547 C   0  0  0  0  0  0  0  0  0  0  0  0
    0.7178   -0.2520    1.4232 O   0  0  0  0  0  0  0  0  0  0  0  0
   -1.4190   -0.0494    2.0670 N   0  0  0  0  0  0  0  0  0  0  0  0
   -2.3668   -0.3511    1.8637 H   0  0  0  0  0  0  0  0  0  0  0  0
   -1.0882    0.3197    3.4383 C   0  0  0  0  0  0  0  0  0  0  0  0
   -0.4042    1.1747    3.4519 H   0  0  0  0  0  0  0  0  0  0  0  0
   -1.9944    0.5961    3.9850 H   0  0  0  0  0  0  0  0  0  0  0  0
   -0.6120   -0.5196    3.9560 H   0  0  0  0  0  0  0  0  0  0  0  0
  1  2  1  0  0  0  0
  2  3  1  0  0  0  0
  2  4  1  0  0  0  0
  2  5  1  0  0  0  0
  5  6  2  0  0  0  0
  5  7  1  0  0  0  0
  7  8  1  0  0  0  0
  7  9  1  0  0  0  0
  9 10  1  0  0  0  0
  9 11  1  0  0  0  0
  9 29  1  0  0  0  0
 11 12  1  0  0  0  0
 11 13  1  0  0  0  0
 11 14  1  0  0  0  0
 14 15  2  0  0  0  0
 14 28  1  0  0  0  0
 15 16  1  0  0  0  0
 15 17  1  0  0  0  0
 17 18  1  0  0  0  0
 17 19  1  0  0  0  0
 19 20  1  0  0  0  0
 19 28  2  0  0  0  0
 20 21  1  0  0  0  0
 20 22  2  0  0  0  0
 22 23  1  0  0  0  0
 22 24  1  0  0  0  0
 24 25  1  0  0  0  0
 24 26  2  0  0  0  0
 26 27  1  0  0  0  0
 26 28  1  0  0  0  0
 29 30  2  0  0  0  0
 29 31  1  0  0  0  0
 31 32  1  0  0  0  0
 31 33  1  0  0  0  0
 33 34  1  0  0  0  0
 33 35  1  0  0  0  0
 33 36  1  0  0  0  0
M  END
$$$$

  -OEChem-03222214083D

 36 37  0     1  0  0  0  0  0999 V2000
   -3.4637   -4.6378    0.5346 H   0  0  0  0  0  0  0  0  0  0  0  0
   -3.4532   -3.7302   -0.0759 C   0  0  0  0  0  0  0  0  0  0  0  0
   -4.3182   -3.1183    0.1902 H   0  0  0  0  0  0  0  0  0  0  0  0
   -3.5246   -4.0138   -1.1287 H   0  0  0  0  0  0  0  0  0  0  0  0
   -2.1722   -2.9539    0.1640 C   0  0  0  0  0  0  0  0  0  0  0  0
   -1.3177   -3.4023    0.9061 O   0  0  0  0  0  0  0  0  0  0  0  0
   -1.9855   -1.7326   -0.4502 N   0  0  0  0  0  0  0  0  0  0  0  0
   -2.7314   -1.3991   -1.0546 H   0  0  0  0  0  0  0  0  0  0  0  0
   -0.7744   -0.8998   -0.3205 C   0  0  1  0  0  0  0  0  0  0  0  0
    0.0576   -1.5718   -0.5615 H   0  0  0  0  0  0  0  0  0  0  0  0
   -0.7514    0.1499   -1.4595 C   0  0  0  0  0  0  0  0  0  0  0  0
    0.3003    0.3475   -1.6916 H   0  0  0  0  0  0  0  0  0  0  0  0
   -1.1812   -0.3214   -2.3480 H   0  0  0  0  0  0  0  0  0  0  0  0
   -1.3983    1.5108   -1.2741 C   0  0  0  0  0  0  0  0  0  0  0  0
   -1.5773    2.2861   -0.1489 C   0  0  0  0  0  0  0  0  0  0  0  0
   -1.1790    2.0905    0.8407 H   0  0  0  0  0  0  0  0  0  0  0  0
   -2.3083    3.4148   -0.5064 N   0  0  0  0  0  0  0  0  0  0  0  0
   -2.5495    4.1807    0.1194 H   0  0  0  0  0  0  0  0  0  0  0  0
   -2.6102    3.3850   -1.8542 C   0  0  0  0  0  0  0  0  0  0  0  0
   -3.3102    4.2791   -2.6642 C   0  0  0  0  0  0  0  0  0  0  0  0
   -3.7296    5.1858   -2.2425 H   0  0  0  0  0  0  0  0  0  0  0  0
   -3.4625    3.9899   -4.0267 C   0  0  0  0  0  0  0  0  0  0  0  0
   -4.0047    4.6762   -4.6705 H   0  0  0  0  0  0  0  0  0  0  0  0
   -2.9111    2.8158   -4.5602 C   0  0  0  0  0  0  0  0  0  0  0  0
   -3.0272    2.5963   -5.6171 H   0  0  0  0  0  0  0  0  0  0  0  0
   -2.2063    1.9272   -3.7355 C   0  0  0  0  0  0  0  0  0  0  0  0
   -1.7732    1.0263   -4.1563 H   0  0  0  0  0  0  0  0  0  0  0  0
   -2.0611    2.2179   -2.3724 C   0  0  0  0  0  0  0  0  0  0  0  0
   -0.4548   -0.4610    1.1262 C   0  0  0  0  0  0  0  0  0  0  0  0
    0.7090   -0.2847    1.4612 O   0  0  0  0  0  0  0  0  0  0  0  0
   -1.4567    0.0113    1.9578 N   0  0  0  0  0  0  0  0  0  0  0  0
   -2.4067   -0.2114    1.6771 H   0  0  0  0  0  0  0  0  0  0  0  0
   -1.2121    0.4171    3.3365 C   0  0  0  0  0  0  0  0  0  0  0  0
   -0.4837    1.2340    3.3746 H   0  0  0  0  0  0  0  0  0  0  0  0
   -2.1412    0.7644    3.7983 H   0  0  0  0  0  0  0  0  0  0  0  0
   -0.8264   -0.4259    3.9199 H   0  0  0  0  0  0  0  0  0  0  0  0
  1  2  1  0  0  0  0
  2  3  1  0  0  0  0
  2  4  1  0  0  0  0
  2  5  1  0  0  0  0
  5  6  2  0  0  0  0
  5  7  1  0  0  0  0
  7  8  1  0  0  0  0
  7  9  1  0  0  0  0
  9 10  1  0  0  0  0
  9 11  1  0  0  0  0
  9 29  1  0  0  0  0
 11 12  1  0  0  0  0
 11 13  1  0  0  0  0
 11 14  1  0  0  0  0
 14 15  2  0  0  0  0
 14 28  1  0  0  0  0
 15 16  1  0  0  0  0
 15 17  1  0  0  0  0
 17 18  1  0  0  0  0
 17 19  1  0  0  0  0
 19 20  1  0  0  0  0
 19 28  2  0  0  0  0
 20 21  1  0  0  0  0
 20 22  2  0  0  0  0
 22 23  1  0  0  0  0
 22 24  1  0  0  0  0
 24 25  1  0  0  0  0
 24 26  2  0  0  0  0
 26 27  1  0  0  0  0
 26 28  1  0  0  0  0
 29 30  2  0  0  0  0
 29 31  1  0  0  0  0
 31 32  1  0  0  0  0
 31 33  1  0  0  0  0
 33 34  1  0  0  0  0
 33 35  1  0  0  0  0
 33 36  1  0  0  0  0
M  END
$$$$

  -OEChem-03222214083D

 36 37  0     1  0  0  0  0  0999 V2000
   -3.4931   -4.5931    0.6255 H   0  0  0  0  0  0  0  0  0  0  0  0
   -3.4692   -3.7026   -0.0093 C   0  0  0  0  0  0  0  0  0  0  0  0
   -4.3171   -3.0638    0.2491 H   0  0  0  0  0  0  0  0  0  0  0  0
   -3.5593   -4.0132   -1.0530 H   0  0  0  0  0  0  0  0  0  0  0  0
   -2.1678   -2.9506    0.1970 C   0  0  0  0  0  0  0  0  0  0  0  0
   -1.3292   -3.3833    0.9665 O   0  0  0  0  0  0  0  0  0  0  0  0
   -1.9417   -1.7716   -0.4834 N   0  0  0  0  0  0  0  0  0  0  0  0
   -2.6837   -1.4359   -1.0914 H   0  0  0  0  0  0  0  0  0  0  0  0
   -0.7254   -0.9474   -0.3524 C   0  0  1  0  0  0  0  0  0  0  0  0
    0.1128   -1.6282   -0.5403 H   0  0  0  0  0  0  0  0  0  0  0  0
   -0.6857    0.0678   -1.5204 C   0  0  0  0  0  0  0  0  0  0  0  0
    0.3681    0.2691   -1.7385 H   0  0  0  0  0  0  0  0  0  0  0  0
   -1.0973   -0.4160   -2.4103 H   0  0  0  0  0  0  0  0  0  0  0  0
   -1.3425    1.4216   -1.3350 C   0  0  0  0  0  0  0  0  0  0  0  0
   -1.2702    2.2881   -0.2664 C   0  0  0  0  0  0  0  0  0  0  0  0
   -0.6440    2.1641    0.6150 H   0  0  0  0  0  0  0  0  0  0  0  0
   -2.1099    3.3669   -0.5250 N   0  0  0  0  0  0  0  0  0  0  0  0
   -2.2272    4.1773    0.0799 H   0  0  0  0  0  0  0  0  0  0  0  0
   -2.7306    3.2099   -1.7504 C   0  0  0  0  0  0  0  0  0  0  0  0
   -3.6442    4.0141   -2.4310 C   0  0  0  0  0  0  0  0  0  0  0  0
   -3.9837    4.9464   -1.9934 H   0  0  0  0  0  0  0  0  0  0  0  0
   -4.1146    3.6018   -3.6849 C   0  0  0  0  0  0  0  0  0  0  0  0
   -4.8260    4.2182   -4.2268 H   0  0  0  0  0  0  0  0  0  0  0  0
   -3.6629    2.3963   -4.2421 C   0  0  0  0  0  0  0  0  0  0  0  0
   -4.0241    2.0823   -5.2167 H   0  0  0  0  0  0  0  0  0  0  0  0
   -2.7424    1.5975   -3.5480 C   0  0  0  0  0  0  0  0  0  0  0  0
   -2.3903    0.6712   -3.9884 H   0  0  0  0  0  0  0  0  0  0  0  0
   -2.2793    2.0112   -2.2921 C   0  0  0  0  0  0  0  0  0  0  0  0
   -0.4635   -0.4265    1.0786 C   0  0  0  0  0  0  0  0  0  0  0  0
    0.6864   -0.2526    1.4601 O   0  0  0  0  0  0  0  0  0  0  0  0
   -1.4931    0.1083    1.8347 N   0  0  0  0  0  0  0  0  0  0  0  0
   -2.4352   -0.0406    1.4869 H   0  0  0  0  0  0  0  0  0  0  0  0
   -1.3103    0.6133    3.1892 C   0  0  0  0  0  0  0  0  0  0  0  0
   -0.6003    1.4468    3.1962 H   0  0  0  0  0  0  0  0  0  0  0  0
   -2.2635    0.9684    3.5920 H   0  0  0  0  0  0  0  0  0  0  0  0
   -0.9305   -0.1785    3.8432 H   0  0  0  0  0  0  0  0  0  0  0  0
  1  2  1  0  0  0  0
  2  3  1  0  0  0  0
  2  4  1  0  0  0  0
  2  5  1  0  0  0  0
  5  6  2  0  0  0  0
  5  7  1  0  0  0  0
  7  8  1  0  0  0  0
  7  9  1  0  0  0  0
  9 10  1  0  0  0  0
  9 11  1  0  0  0  0
  9 29  1  0  0  0  0
 11 12  1  0  0  0  0
 11 13  1  0  0  0  0
 11 14  1  0  0  0  0
 14 15  2  0  0  0  0
 14 28  1  0  0  0  0
 15 16  1  0  0  0  0
 15 17  1  0  0  0  0
 17 18  1  0  0  0  0
 17 19  1  0  0  0  0
 19 20  1  0  0  0  0
 19 28  2  0  0  0  0
 20 21  1  0  0  0  0
 20 22  2  0  0  0  0
 22 23  1  0  0  0  0
 22 24  1  0  0  0  0
 24 25  1  0  0  0  0
 24 26  2  0  0  0  0
 26 27  1  0  0  0  0
 26 28  1  0  0  0  0
 29 30  2  0  0  0  0
 29 31  1  0  0  0  0
 31 32  1  0  0  0  0
 31 33  1  0  0  0  0
 33 34  1  0  0  0  0
 33 35  1  0  0  0  0
 33 36  1  0  0  0  0
M  END
$$$$

  -OEChem-03222214083D

 36 37  0     1  0  0  0  0  0999 V2000
   -3.5458   -4.5280    0.7095 H   0  0  0  0  0  0  0  0  0  0  0  0
   -3.4882   -3.6777    0.0240 C   0  0  0  0  0  0  0  0  0  0  0  0
   -4.3145   -2.9963    0.2401 H   0  0  0  0  0  0  0  0  0  0  0  0
   -3.5839   -4.0450   -1.0005 H   0  0  0  0  0  0  0  0  0  0  0  0
   -2.1625   -2.9601    0.1947 C   0  0  0  0  0  0  0  0  0  0  0  0
   -1.3323   -3.3912    0.9741 O   0  0  0  0  0  0  0  0  0  0  0  0
   -1.9036   -1.8161   -0.5322 N   0  0  0  0  0  0  0  0  0  0  0  0
   -2.6514   -1.4633   -1.1224 H   0  0  0  0  0  0  0  0  0  0  0  0
   -0.6896   -0.9921   -0.3834 C   0  0  1  0  0  0  0  0  0  0  0  0
    0.1574   -1.6740   -0.5199 H   0  0  0  0  0  0  0  0  0  0  0  0
   -0.6226   -0.0010   -1.5677 C   0  0  0  0  0  0  0  0  0  0  0  0
    0.4356    0.2096   -1.7544 H   0  0  0  0  0  0  0  0  0  0  0  0
   -1.0059   -0.4832   -2.4715 H   0  0  0  0  0  0  0  0  0  0  0  0
   -1.2998    1.3363   -1.3683 C   0  0  0  0  0  0  0  0  0  0  0  0
   -1.0196    2.2895   -0.4156 C   0  0  0  0  0  0  0  0  0  0  0  0
   -0.2127    2.2349    0.3147 H   0  0  0  0  0  0  0  0  0  0  0  0
   -1.9487    3.3170   -0.5515 N   0  0  0  0  0  0  0  0  0  0  0  0
   -1.9691    4.1667    0.0090 H   0  0  0  0  0  0  0  0  0  0  0  0
   -2.8332    3.0332   -1.5776 C   0  0  0  0  0  0  0  0  0  0  0  0
   -3.9252    3.7405   -2.0802 C   0  0  0  0  0  0  0  0  0  0  0  0
   -4.2024    4.6965   -1.6497 H   0  0  0  0  0  0  0  0  0  0  0  0
   -4.6557    3.2007   -3.1478 C   0  0  0  0  0  0  0  0  0  0  0  0
   -5.5067    3.7421   -3.5506 H   0  0  0  0  0  0  0  0  0  0  0  0
   -4.2849    1.9652   -3.6998 C   0  0  0  0  0  0  0  0  0  0  0  0
   -4.8490    1.5536   -4.5315 H   0  0  0  0  0  0  0  0  0  0  0  0
   -3.1849    1.2636   -3.1861 C   0  0  0  0  0  0  0  0  0  0  0  0
   -2.8951    0.3132   -3.6208 H   0  0  0  0  0  0  0  0  0  0  0  0
   -2.4619    1.8063   -2.1171 C   0  0  0  0  0  0  0  0  0  0  0  0
   -0.4870   -0.4032    1.0316 C   0  0  0  0  0  0  0  0  0  0  0  0
    0.6467   -0.2197    1.4562 O   0  0  0  0  0  0  0  0  0  0  0  0
   -1.5452    0.1739    1.7130 N   0  0  0  0  0  0  0  0  0  0  0  0
   -2.4606    0.1113    1.2787 H   0  0  0  0  0  0  0  0  0  0  0  0
   -1.4118    0.8380    3.0026 C   0  0  0  0  0  0  0  0  0  0  0  0
   -0.7469    1.7039    2.9222 H   0  0  0  0  0  0  0  0  0  0  0  0
   -2.3894    1.1837    3.3515 H   0  0  0  0  0  0  0  0  0  0  0  0
   -1.0033    0.1466    3.7472 H   0  0  0  0  0  0  0  0  0  0  0  0
  1  2  1  0  0  0  0
  2  3  1  0  0  0  0
  2  4  1  0  0  0  0
  2  5  1  0  0  0  0
  5  6  2  0  0  0  0
  5  7  1  0  0  0  0
  7  8  1  0  0  0  0
  7  9  1  0  0  0  0
  9 10  1  0  0  0  0
  9 11  1  0  0  0  0
  9 29  1  0  0  0  0
 11 12  1  0  0  0  0
 11 13  1  0  0  0  0
 11 14  1  0  0  0  0
 14 15  2  0  0  0  0
 14 28  1  0  0  0  0
 15 16  1  0  0  0  0
 15 17  1  0  0  0  0
 17 18  1  0  0  0  0
 17 19  1  0  0  0  0
 19 20  1  0  0  0  0
 19 28  2  0  0  0  0
 20 21  1  0  0  0  0
 20 22  2  0  0  0  0
 22 23  1  0  0  0  0
 22 24  1  0  0  0  0
 24 25  1  0  0  0  0
 24 26  2  0  0  0  0
 26 27  1  0  0  0  0
 26 28  1  0  0  0  0
 29 30  2  0  0  0  0
 29 31  1  0  0  0  0
 31 32  1  0  0  0  0
 31 33  1  0  0  0  0
 33 34  1  0  0  0  0
 33 35  1  0  0  0  0
 33 36  1  0  0  0  0
M  END
$$$$

  -OEChem-03222214083D

 36 37  0     1  0  0  0  0  0999 V2000
   -3.5617   -4.5024    0.7646 H   0  0  0  0  0  0  0  0  0  0  0  0
   -3.4999   -3.6678    0.0605 C   0  0  0  0  0  0  0  0  0  0  0  0
   -4.3055   -2.9632    0.2795 H   0  0  0  0  0  0  0  0  0  0  0  0
   -3.6258   -4.0537   -0.9540 H   0  0  0  0  0  0  0  0  0  0  0  0
   -2.1556   -2.9768    0.1899 C   0  0  0  0  0  0  0  0  0  0  0  0
   -1.3193   -3.4122    0.9609 O   0  0  0  0  0  0  0  0  0  0  0  0
   -1.8836   -1.8576   -0.5699 N   0  0  0  0  0  0  0  0  0  0  0  0
   -2.6459   -1.4856   -1.1280 H   0  0  0  0  0  0  0  0  0  0  0  0
   -0.6783   -1.0251   -0.4041 C   0  0  1  0  0  0  0  0  0  0  0  0
    0.1780   -1.7017   -0.5032 H   0  0  0  0  0  0  0  0  0  0  0  0
   -0.5906   -0.0460   -1.5930 C   0  0  0  0  0  0  0  0  0  0  0  0
    0.4690    0.1776   -1.7550 H   0  0  0  0  0  0  0  0  0  0  0  0
   -0.9554   -0.5206   -2.5088 H   0  0  0  0  0  0  0  0  0  0  0  0
   -1.2933    1.2695   -1.3702 C   0  0  0  0  0  0  0  0  0  0  0  0
   -0.8572    2.3128   -0.5869 C   0  0  0  0  0  0  0  0  0  0  0  0
    0.0855    2.3407   -0.0408 H   0  0  0  0  0  0  0  0  0  0  0  0
   -1.8470    3.2922   -0.6012 N   0  0  0  0  0  0  0  0  0  0  0  0
   -1.7933    4.1859   -0.1160 H   0  0  0  0  0  0  0  0  0  0  0  0
   -2.9186    2.8856   -1.3793 C   0  0  0  0  0  0  0  0  0  0  0  0
   -4.1291    3.5056   -1.6886 C   0  0  0  0  0  0  0  0  0  0  0  0
   -4.3562    4.4898   -1.2933 H   0  0  0  0  0  0  0  0  0  0  0  0
   -5.0448    2.8418   -2.5170 C   0  0  0  0  0  0  0  0  0  0  0  0
   -5.9901    3.3145   -2.7673 H   0  0  0  0  0  0  0  0  0  0  0  0
   -4.7387    1.5711   -3.0280 C   0  0  0  0  0  0  0  0  0  0  0  0
   -5.4484    1.0645   -3.6755 H   0  0  0  0  0  0  0  0  0  0  0  0
   -3.5172    0.9587   -2.7129 C   0  0  0  0  0  0  0  0  0  0  0  0
   -3.2747   -0.0165   -3.1208 H   0  0  0  0  0  0  0  0  0  0  0  0
   -2.6111    1.6256   -1.8806 C   0  0  0  0  0  0  0  0  0  0  0  0
   -0.5197   -0.3848    0.9950 C   0  0  0  0  0  0  0  0  0  0  0  0
    0.6010   -0.2003    1.4537 O   0  0  0  0  0  0  0  0  0  0  0  0
   -1.5992    0.2158    1.6211 N   0  0  0  0  0  0  0  0  0  0  0  0
   -2.4681    0.2470    1.0963 H   0  0  0  0  0  0  0  0  0  0  0  0
   -1.4829    1.0061    2.8391 C   0  0  0  0  0  0  0  0  0  0  0  0
   -0.8641    1.8921    2.6639 H   0  0  0  0  0  0  0  0  0  0  0  0
   -2.4725    1.3330    3.1723 H   0  0  0  0  0  0  0  0  0  0  0  0
   -1.0294    0.4107    3.6385 H   0  0  0  0  0  0  0  0  0  0  0  0
  1  2  1  0  0  0  0
  2  3  1  0  0  0  0
  2  4  1  0  0  0  0
  2  5  1  0  0  0  0
  5  6  2  0  0  0  0
  5  7  1  0  0  0  0
  7  8  1  0  0  0  0
  7  9  1  0  0  0  0
  9 10  1  0  0  0  0
  9 11  1  0  0  0  0
  9 29  1  0  0  0  0
 11 12  1  0  0  0  0
 11 13  1  0  0  0  0
 11 14  1  0  0  0  0
 14 15  2  0  0  0  0
 14 28  1  0  0  0  0
 15 16  1  0  0  0  0
 15 17  1  0  0  0  0
 17 18  1  0  0  0  0
 17 19  1  0  0  0  0
 19 20  1  0  0  0  0
 19 28  2  0  0  0  0
 20 21  1  0  0  0  0
 20 22  2  0  0  0  0
 22 23  1  0  0  0  0
 22 24  1  0  0  0  0
 24 25  1  0  0  0  0
 24 26  2  0  0  0  0
 26 27  1  0  0  0  0
 26 28  1  0  0  0  0
 29 30  2  0  0  0  0
 29 31  1  0  0  0  0
 31 32  1  0  0  0  0
 31 33  1  0  0  0  0
 33 34  1  0  0  0  0
 33 35  1  0  0  0  0
 33 36  1  0  0  0  0
M  END
$$$$

  -OEChem-03222214083D

 36 37  0     1  0  0  0  0  0999 V2000
   -3.5635   -4.4901    0.8251 H   0  0  0  0  0  0  0  0  0  0  0  0
   -3.5059   -3.6602    0.1150 C   0  0  0  0  0  0  0  0  0  0  0  0
   -4.2930   -2.9404    0.3520 H   0  0  0  0  0  0  0  0  0  0  0  0
   -3.6658   -4.0484   -0.8938 H   0  0  0  0  0  0  0  0  0  0  0  0
   -2.1471   -2.9918    0.2038 C   0  0  0  0  0  0  0  0  0  0  0  0
   -1.3032   -3.4265    0.9665 O   0  0  0  0  0  0  0  0  0  0  0  0
   -1.8745   -1.8905   -0.5813 N   0  0  0  0  0  0  0  0  0  0  0  0
   -2.6522   -1.5065   -1.1073 H   0  0  0  0  0  0  0  0  0  0  0  0
   -0.6773   -1.0474   -0.4139 C   0  0  1  0  0  0  0  0  0  0  0  0
    0.1857   -1.7185   -0.4923 H   0  0  0  0  0  0  0  0  0  0  0  0
   -0.5806   -0.0734   -1.6061 C   0  0  0  0  0  0  0  0  0  0  0  0
    0.4785    0.1564   -1.7637 H   0  0  0  0  0  0  0  0  0  0  0  0
   -0.9458   -0.5439   -2.5244 H   0  0  0  0  0  0  0  0  0  0  0  0
   -1.3038    1.2253   -1.3600 C   0  0  0  0  0  0  0  0  0  0  0  0
   -0.7673    2.3596   -0.7983 C   0  0  0  0  0  0  0  0  0  0  0  0
    0.2654    2.4750   -0.4714 H   0  0  0  0  0  0  0  0  0  0  0  0
   -1.7932    3.2950   -0.6854 N   0  0  0  0  0  0  0  0  0  0  0  0
   -1.6914    4.2316   -0.2986 H   0  0  0  0  0  0  0  0  0  0  0  0
   -2.9797    2.7748   -1.1757 C   0  0  0  0  0  0  0  0  0  0  0  0
   -4.2603    3.3178   -1.2738 C   0  0  0  0  0  0  0  0  0  0  0  0
   -4.4548    4.3255   -0.9231 H   0  0  0  0  0  0  0  0  0  0  0  0
   -5.2879    2.5468   -1.8346 C   0  0  0  0  0  0  0  0  0  0  0  0
   -6.2895    2.9585   -1.9187 H   0  0  0  0  0  0  0  0  0  0  0  0
   -5.0220    1.2488   -2.2972 C   0  0  0  0  0  0  0  0  0  0  0  0
   -5.8190    0.6613   -2.7436 H   0  0  0  0  0  0  0  0  0  0  0  0
   -3.7301    0.7138   -2.1954 C   0  0  0  0  0  0  0  0  0  0  0  0
   -3.5194   -0.2798   -2.5746 H   0  0  0  0  0  0  0  0  0  0  0  0
   -2.7139    1.4842   -1.6197 C   0  0  0  0  0  0  0  0  0  0  0  0
   -0.5401   -0.3696    0.9707 C   0  0  0  0  0  0  0  0  0  0  0  0
    0.5732   -0.1883    1.4486 O   0  0  0  0  0  0  0  0  0  0  0  0
   -1.6309    0.2436    1.5646 N   0  0  0  0  0  0  0  0  0  0  0  0
   -2.4667    0.3149    0.9915 H   0  0  0  0  0  0  0  0  0  0  0  0
   -1.5184    1.1034    2.7346 C   0  0  0  0  0  0  0  0  0  0  0  0
   -0.9382    2.0005    2.4955 H   0  0  0  0  0  0  0  0  0  0  0  0
   -2.5123    1.4107    3.0732 H   0  0  0  0  0  0  0  0  0  0  0  0
   -1.0254    0.5709    3.5547 H   0  0  0  0  0  0  0  0  0  0  0  0
  1  2  1  0  0  0  0
  2  3  1  0  0  0  0
  2  4  1  0  0  0  0
  2  5  1  0  0  0  0
  5  6  2  0  0  0  0
  5  7  1  0  0  0  0
  7  8  1  0  0  0  0
  7  9  1  0  0  0  0
  9 10  1  0  0  0  0
  9 11  1  0  0  0  0
  9 29  1  0  0  0  0
 11 12  1  0  0  0  0
 11 13  1  0  0  0  0
 11 14  1  0  0  0  0
 14 15  2  0  0  0  0
 14 28  1  0  0  0  0
 15 16  1  0  0  0  0
 15 17  1  0  0  0  0
 17 18  1  0  0  0  0
 17 19  1  0  0  0  0
 19 20  1  0  0  0  0
 19 28  2  0  0  0  0
 20 21  1  0  0  0  0
 20 22  2  0  0  0  0
 22 23  1  0  0  0  0
 22 24  1  0  0  0  0
 24 25  1  0  0  0  0
 24 26  2  0  0  0  0
 26 27  1  0  0  0  0
 26 28  1  0  0  0  0
 29 30  2  0  0  0  0
 29 31  1  0  0  0  0
 31 32  1  0  0  0  0
 31 33  1  0  0  0  0
 33 34  1  0  0  0  0
 33 35  1  0  0  0  0
 33 36  1  0  0  0  0
M  END
$$$$

  -OEChem-03222214083D

 36 37  0     1  0  0  0  0  0999 V2000
   -3.4681   -4.5914    0.8813 H   0  0  0  0  0  0  0  0  0  0  0  0
   -3.4298   -3.7720    0.1579 C   0  0  0  0  0  0  0  0  0  0  0  0
   -4.2519   -3.0826    0.3649 H   0  0  0  0  0  0  0  0  0  0  0  0
   -3.5501   -4.1840   -0.8470 H   0  0  0  0  0  0  0  0  0  0  0  0
   -2.1029   -3.0446    0.2643 C   0  0  0  0  0  0  0  0  0  0  0  0
   -1.2551   -3.4344    1.0465 O   0  0  0  0  0  0  0  0  0  0  0  0
   -1.8604   -1.9462   -0.5346 N   0  0  0  0  0  0  0  0  0  0  0  0
   -2.6258   -1.6244   -1.1144 H   0  0  0  0  0  0  0  0  0  0  0  0
   -0.6829   -1.0729   -0.3939 C   0  0  1  0  0  0  0  0  0  0  0  0
    0.1938   -1.7250   -0.4789 H   0  0  0  0  0  0  0  0  0  0  0  0
   -0.6159   -0.0918   -1.5840 C   0  0  0  0  0  0  0  0  0  0  0  0
    0.4374    0.1491   -1.7622 H   0  0  0  0  0  0  0  0  0  0  0  0
   -0.9951   -0.5666   -2.4940 H   0  0  0  0  0  0  0  0  0  0  0  0
   -1.3592    1.1962   -1.3276 C   0  0  0  0  0  0  0  0  0  0  0  0
   -0.7621    2.4008   -1.0435 C   0  0  0  0  0  0  0  0  0  0  0  0
    0.3101    2.5701   -0.9621 H   0  0  0  0  0  0  0  0  0  0  0  0
   -1.7737    3.3325   -0.8306 N   0  0  0  0  0  0  0  0  0  0  0  0
   -1.6286    4.3094   -0.5817 H   0  0  0  0  0  0  0  0  0  0  0  0
   -3.0149    2.7455   -1.0063 C   0  0  0  0  0  0  0  0  0  0  0  0
   -4.3015    3.2736   -0.9093 C   0  0  0  0  0  0  0  0  0  0  0  0
   -4.4462    4.3144   -0.6407 H   0  0  0  0  0  0  0  0  0  0  0  0
   -5.4004    2.4450   -1.1714 C   0  0  0  0  0  0  0  0  0  0  0  0
   -6.4083    2.8443   -1.1028 H   0  0  0  0  0  0  0  0  0  0  0  0
   -5.1987    1.1060   -1.5374 C   0  0  0  0  0  0  0  0  0  0  0  0
   -6.0537    0.4738   -1.7585 H   0  0  0  0  0  0  0  0  0  0  0  0
   -3.8994    0.5869   -1.6308 C   0  0  0  0  0  0  0  0  0  0  0  0
   -3.7520   -0.4388   -1.9439 H   0  0  0  0  0  0  0  0  0  0  0  0
   -2.8049    1.4117   -1.3433 C   0  0  0  0  0  0  0  0  0  0  0  0
   -0.5383   -0.3698    0.9783 C   0  0  0  0  0  0  0  0  0  0  0  0
    0.5794   -0.1652    1.4366 O   0  0  0  0  0  0  0  0  0  0  0  0
   -1.6322    0.2287    1.5815 N   0  0  0  0  0  0  0  0  0  0  0  0
   -2.4717    0.2827    1.0115 H   0  0  0  0  0  0  0  0  0  0  0  0
   -1.5087    1.1438    2.7078 C   0  0  0  0  0  0  0  0  0  0  0  0
   -0.9596    2.0431    2.4104 H   0  0  0  0  0  0  0  0  0  0  0  0
   -2.5002    1.4417    3.0614 H   0  0  0  0  0  0  0  0  0  0  0  0
   -0.9782    0.6635    3.5370 H   0  0  0  0  0  0  0  0  0  0  0  0
  1  2  1  0  0  0  0
  2  3  1  0  0  0  0
  2  4  1  0  0  0  0
  2  5  1  0  0  0  0
  5  6  2  0  0  0  0
  5  7  1  0  0  0  0
  7  8  1  0  0  0  0
  7  9  1  0  0  0  0
  9 10  1  0  0  0  0
  9 11  1  0  0  0  0
  9 29  1  0  0  0  0
 11 12  1  0  0  0  0
 11 13  1  0  0  0  0
 11 14  1  0  0  0  0
 14 15  2  0  0  0  0
 14 28  1  0  0  0  0
 15 16  1  0  0  0  0
 15 17  1  0  0  0  0
 17 18  1  0  0  0  0
 17 19  1  0  0  0  0
 19 20  1  0  0  0  0
 19 28  2  0  0  0  0
 20 21  1  0  0  0  0
 20 22  2  0  0  0  0
 22 23  1  0  0  0  0
 22 24  1  0  0  0  0
 24 25  1  0  0  0  0
 24 26  2  0  0  0  0
 26 27  1  0  0  0  0
 26 28  1  0  0  0  0
 29 30  2  0  0  0  0
 29 31  1  0  0  0  0
 31 32  1  0  0  0  0
 31 33  1  0  0  0  0
 33 34  1  0  0  0  0
 33 35  1  0  0  0  0
 33 36  1  0  0  0  0
M  END
$$$$

  -OEChem-03222214083D

 36 37  0     1  0  0  0  0  0999 V2000
   -3.3148   -4.7778    0.8163 H   0  0  0  0  0  0  0  0  0  0  0  0
   -3.3039   -3.9484    0.1032 C   0  0  0  0  0  0  0  0  0  0  0  0
   -4.2081   -3.3517    0.2450 H   0  0  0  0  0  0  0  0  0  0  0  0
   -3.2980   -4.3566   -0.9103 H   0  0  0  0  0  0  0  0  0  0  0  0
   -2.0742   -3.0881    0.3246 C   0  0  0  0  0  0  0  0  0  0  0  0
   -1.2754   -3.3832    1.1945 O   0  0  0  0  0  0  0  0  0  0  0  0
   -1.8624   -1.9812   -0.4716 N   0  0  0  0  0  0  0  0  0  0  0  0
   -2.5146   -1.8256   -1.2319 H   0  0  0  0  0  0  0  0  0  0  0  0
   -0.6976   -1.0871   -0.3555 C   0  0  1  0  0  0  0  0  0  0  0  0
    0.1862   -1.7251   -0.4671 H   0  0  0  0  0  0  0  0  0  0  0  0
   -0.6777   -0.0957   -1.5381 C   0  0  0  0  0  0  0  0  0  0  0  0
    0.3688    0.1495   -1.7482 H   0  0  0  0  0  0  0  0  0  0  0  0
   -1.0780   -0.5782   -2.4349 H   0  0  0  0  0  0  0  0  0  0  0  0
   -1.4268    1.1961   -1.2915 C   0  0  0  0  0  0  0  0  0  0  0  0
   -0.8259    2.4318   -1.3338 C   0  0  0  0  0  0  0  0  0  0  0  0
    0.2324    2.6124   -1.5123 H   0  0  0  0  0  0  0  0  0  0  0  0
   -1.7996    3.3904   -1.0780 N   0  0  0  0  0  0  0  0  0  0  0  0
   -1.6363    4.3941   -1.0245 H   0  0  0  0  0  0  0  0  0  0  0  0
   -3.0312    2.7872   -0.9012 C   0  0  0  0  0  0  0  0  0  0  0  0
   -4.2819    3.3420   -0.6342 C   0  0  0  0  0  0  0  0  0  0  0  0
   -4.3913    4.4152   -0.5234 H   0  0  0  0  0  0  0  0  0  0  0  0
   -5.3917    2.4969   -0.5169 C   0  0  0  0  0  0  0  0  0  0  0  0
   -6.3726    2.9153   -0.3105 H   0  0  0  0  0  0  0  0  0  0  0  0
   -5.2364    1.1130   -0.6755 C   0  0  0  0  0  0  0  0  0  0  0  0
   -6.1023    0.4624   -0.5942 H   0  0  0  0  0  0  0  0  0  0  0  0
   -3.9723    0.5690   -0.9444 C   0  0  0  0  0  0  0  0  0  0  0  0
   -3.8776   -0.4994   -1.0781 H   0  0  0  0  0  0  0  0  0  0  0  0
   -2.8574    1.4127   -1.0450 C   0  0  0  0  0  0  0  0  0  0  0  0
   -0.5175   -0.3777    1.0092 C   0  0  0  0  0  0  0  0  0  0  0  0
    0.6142   -0.1768    1.4343 O   0  0  0  0  0  0  0  0  0  0  0  0
   -1.5926    0.2101    1.6535 N   0  0  0  0  0  0  0  0  0  0  0  0
   -2.4563    0.2526    1.1197 H   0  0  0  0  0  0  0  0  0  0  0  0
   -1.4375    1.1120    2.7861 C   0  0  0  0  0  0  0  0  0  0  0  0
   -0.8487    1.9892    2.4989 H   0  0  0  0  0  0  0  0  0  0  0  0
   -2.4177    1.4505    3.1344 H   0  0  0  0  0  0  0  0  0  0  0  0
   -0.9337    0.6027    3.6143 H   0  0  0  0  0  0  0  0  0  0  0  0
  1  2  1  0  0  0  0
  2  3  1  0  0  0  0
  2  4  1  0  0  0  0
  2  5  1  0  0  0  0
  5  6  2  0  0  0  0
  5  7  1  0  0  0  0
  7  8  1  0  0  0  0
  7  9  1  0  0  0  0
  9 10  1  0  0  0  0
  9 11  1  0  0  0  0
  9 29  1  0  0  0  0
 11 12  1  0  0  0  0
 11 13  1  0  0  0  0
 11 14  1  0  0  0  0
 14 15  2  0  0  0  0
 14 28  1  0  0  0  0
 15 16  1  0  0  0  0
 15 17  1  0  0  0  0
 17 18  1  0  0  0  0
 17 19  1  0  0  0  0
 19 20  1  0  0  0  0
 19 28  2  0  0  0  0
 20 21  1  0  0  0  0
 20 22  2  0  0  0  0
 22 23  1  0  0  0  0
 22 24  1  0  0  0  0
 24 25  1  0  0  0  0
 24 26  2  0  0  0  0
 26 27  1  0  0  0  0
 26 28  1  0  0  0  0
 29 30  2  0  0  0  0
 29 31  1  0  0  0  0
 31 32  1  0  0  0  0
 31 33  1  0  0  0  0
 33 34  1  0  0  0  0
 33 35  1  0  0  0  0
 33 36  1  0  0  0  0
M  END
$$$$

  -OEChem-03222214083D

 36 37  0     1  0  0  0  0  0999 V2000
   -3.2190   -4.8614    0.7846 H   0  0  0  0  0  0  0  0  0  0  0  0
   -3.2407   -4.0107    0.0974 C   0  0  0  0  0  0  0  0  0  0  0  0
   -4.1543   -3.4386    0.2756 H   0  0  0  0  0  0  0  0  0  0  0  0
   -3.2468   -4.3873   -0.9283 H   0  0  0  0  0  0  0  0  0  0  0  0
   -2.0250   -3.1313    0.3200 C   0  0  0  0  0  0  0  0  0  0  0  0
   -1.1984   -3.4380    1.1593 O   0  0  0  0  0  0  0  0  0  0  0  0
   -1.8592   -1.9911   -0.4390 N   0  0  0  0  0  0  0  0  0  0  0  0
   -2.5352   -1.8223   -1.1769 H   0  0  0  0  0  0  0  0  0  0  0  0
   -0.7002   -1.0883   -0.3345 C   0  0  1  0  0  0  0  0  0  0  0  0
    0.1793   -1.7207   -0.4999 H   0  0  0  0  0  0  0  0  0  0  0  0
   -0.7223   -0.0723   -1.4942 C   0  0  0  0  0  0  0  0  0  0  0  0
    0.3166    0.1769   -1.7343 H   0  0  0  0  0  0  0  0  0  0  0  0
   -1.1477   -0.5503   -2.3820 H   0  0  0  0  0  0  0  0  0  0  0  0
   -1.4704    1.2210   -1.2355 C   0  0  0  0  0  0  0  0  0  0  0  0
   -0.9454    2.4443   -1.5807 C   0  0  0  0  0  0  0  0  0  0  0  0
    0.0459    2.6087   -1.9985 H   0  0  0  0  0  0  0  0  0  0  0  0
   -1.8897    3.4199   -1.2871 N   0  0  0  0  0  0  0  0  0  0  0  0
   -1.7603    4.4221   -1.4132 H   0  0  0  0  0  0  0  0  0  0  0  0
   -3.0438    2.8356   -0.8022 C   0  0  0  0  0  0  0  0  0  0  0  0
   -4.2461    3.4193   -0.4059 C   0  0  0  0  0  0  0  0  0  0  0  0
   -4.3692    4.4962   -0.4413 H   0  0  0  0  0  0  0  0  0  0  0  0
   -5.2910    2.5971    0.0303 C   0  0  0  0  0  0  0  0  0  0  0  0
   -6.2344    3.0368    0.3415 H   0  0  0  0  0  0  0  0  0  0  0  0
   -5.1209    1.2068    0.0555 C   0  0  0  0  0  0  0  0  0  0  0  0
   -5.9362    0.5709    0.3879 H   0  0  0  0  0  0  0  0  0  0  0  0
   -3.9064    0.6352   -0.3487 C   0  0  0  0  0  0  0  0  0  0  0  0
   -3.8108   -0.4405   -0.3271 H   0  0  0  0  0  0  0  0  0  0  0  0
   -2.8476    1.4559   -0.7689 C   0  0  0  0  0  0  0  0  0  0  0  0
   -0.4477   -0.4186    1.0388 C   0  0  0  0  0  0  0  0  0  0  0  0
    0.7064   -0.2480    1.4136 O   0  0  0  0  0  0  0  0  0  0  0  0
   -1.4783    0.1461    1.7688 N   0  0  0  0  0  0  0  0  0  0  0  0
   -2.3692    0.2256    1.2878 H   0  0  0  0  0  0  0  0  0  0  0  0
   -1.2507    0.9849    2.9369 C   0  0  0  0  0  0  0  0  0  0  0  0
   -0.6843    1.8802    2.6602 H   0  0  0  0  0  0  0  0  0  0  0  0
   -2.2065    1.2971    3.3684 H   0  0  0  0  0  0  0  0  0  0  0  0
   -0.6912    0.4339    3.7003 H   0  0  0  0  0  0  0  0  0  0  0  0
  1  2  1  0  0  0  0
  2  3  1  0  0  0  0
  2  4  1  0  0  0  0
  2  5  1  0  0  0  0
  5  6  2  0  0  0  0
  5  7  1  0  0  0  0
  7  8  1  0  0  0  0
  7  9  1  0  0  0  0
  9 10  1  0  0  0  0
  9 11  1  0  0  0  0
  9 29  1  0  0  0  0
 11 12  1  0  0  0  0
 11 13  1  0  0  0  0
 11 14  1  0  0  0  0
 14 15  2  0  0  0  0
 14 28  1  0  0  0  0
 15 16  1  0  0  0  0
 15 17  1  0  0  0  0
 17 18  1  0  0  0  0
 17 19  1  0  0  0  0
 19 20  1  0  0  0  0
 19 28  2  0  0  0  0
 20 21  1  0  0  0  0
 20 22  2  0  0  0  0
 22 23  1  0  0  0  0
 22 24  1  0  0  0  0
 24 25  1  0  0  0  0
 24 26  2  0  0  0  0
 26 27  1  0  0  0  0
 26 28  1  0  0  0  0
 29 30  2  0  0  0  0
 29 31  1  0  0  0  0
 31 32  1  0  0  0  0
 31 33  1  0  0  0  0
 33 34  1  0  0  0  0
 33 35  1  0  0  0  0
 33 36  1  0  0  0  0
M  END
$$$$

  -OEChem-03222214083D

 36 37  0     1  0  0  0  0  0999 V2000
   -3.2918   -4.8645    0.7137 H   0  0  0  0  0  0  0  0  0  0  0  0
   -3.3106   -3.9812    0.0687 C   0  0  0  0  0  0  0  0  0  0  0  0
   -4.1986   -3.3909    0.3069 H   0  0  0  0  0  0  0  0  0  0  0  0
   -3.3654   -4.3076   -0.9725 H   0  0  0  0  0  0  0  0  0  0  0  0
   -2.0604   -3.1501    0.2866 C   0  0  0  0  0  0  0  0  0  0  0  0
   -1.2069   -3.5273    1.0681 O   0  0  0  0  0  0  0  0  0  0  0  0
   -1.8989   -1.9667   -0.4037 N   0  0  0  0  0  0  0  0  0  0  0  0
   -2.6187   -1.7175   -1.0750 H   0  0  0  0  0  0  0  0  0  0  0  0
   -0.7181   -1.0931   -0.2914 C   0  0  1  0  0  0  0  0  0  0  0  0
    0.1295   -1.7508   -0.5157 H   0  0  0  0  0  0  0  0  0  0  0  0
   -0.7282   -0.0494   -1.4238 C   0  0  0  0  0  0  0  0  0  0  0  0
    0.3145    0.1820   -1.6666 H   0  0  0  0  0  0  0  0  0  0  0  0
   -1.1693   -0.5010   -2.3176 H   0  0  0  0  0  0  0  0  0  0  0  0
   -1.4405    1.2606   -1.1488 C   0  0  0  0  0  0  0  0  0  0  0  0
   -1.0261    2.4280   -1.7467 C   0  0  0  0  0  0  0  0  0  0  0  0
   -0.1295    2.5396   -2.3532 H   0  0  0  0  0  0  0  0  0  0  0  0
   -1.9376    3.4275   -1.4345 N   0  0  0  0  0  0  0  0  0  0  0  0
   -1.8664    4.4014   -1.7228 H   0  0  0  0  0  0  0  0  0  0  0  0
   -2.9890    2.9017   -0.7101 C   0  0  0  0  0  0  0  0  0  0  0  0
   -4.1425    3.5226   -0.2328 C   0  0  0  0  0  0  0  0  0  0  0  0
   -4.2975    4.5844   -0.3885 H   0  0  0  0  0  0  0  0  0  0  0  0
   -5.1008    2.7560    0.4384 C   0  0  0  0  0  0  0  0  0  0  0  0
   -6.0048    3.2248    0.8166 H   0  0  0  0  0  0  0  0  0  0  0  0
   -4.8975    1.3811    0.6086 C   0  0  0  0  0  0  0  0  0  0  0  0
   -5.6486    0.7856    1.1195 H   0  0  0  0  0  0  0  0  0  0  0  0
   -3.7338    0.7719    0.1199 C   0  0  0  0  0  0  0  0  0  0  0  0
   -3.6164   -0.2931    0.2602 H   0  0  0  0  0  0  0  0  0  0  0  0
   -2.7502    1.5398   -0.5266 C   0  0  0  0  0  0  0  0  0  0  0  0
   -0.3551   -0.4925    1.0904 C   0  0  0  0  0  0  0  0  0  0  0  0
    0.8279   -0.3865    1.3916 O   0  0  0  0  0  0  0  0  0  0  0  0
   -1.3003    0.0696    1.9294 N   0  0  0  0  0  0  0  0  0  0  0  0
   -2.2237    0.2060    1.5332 H   0  0  0  0  0  0  0  0  0  0  0  0
   -0.9486    0.8229    3.1258 C   0  0  0  0  0  0  0  0  0  0  0  0
   -0.3537    1.7038    2.8631 H   0  0  0  0  0  0  0  0  0  0  0  0
   -1.8545    1.1566    3.6404 H   0  0  0  0  0  0  0  0  0  0  0  0
   -0.3708    0.1981    3.8153 H   0  0  0  0  0  0  0  0  0  0  0  0
  1  2  1  0  0  0  0
  2  3  1  0  0  0  0
  2  4  1  0  0  0  0
  2  5  1  0  0  0  0
  5  6  2  0  0  0  0
  5  7  1  0  0  0  0
  7  8  1  0  0  0  0
  7  9  1  0  0  0  0
  9 10  1  0  0  0  0
  9 11  1  0  0  0  0
  9 29  1  0  0  0  0
 11 12  1  0  0  0  0
 11 13  1  0  0  0  0
 11 14  1  0  0  0  0
 14 15  2  0  0  0  0
 14 28  1  0  0  0  0
 15 16  1  0  0  0  0
 15 17  1  0  0  0  0
 17 18  1  0  0  0  0
 17 19  1  0  0  0  0
 19 20  1  0  0  0  0
 19 28  2  0  0  0  0
 20 21  1  0  0  0  0
 20 22  2  0  0  0  0
 22 23  1  0  0  0  0
 22 24  1  0  0  0  0
 24 25  1  0  0  0  0
 24 26  2  0  0  0  0
 26 27  1  0  0  0  0
 26 28  1  0  0  0  0
 29 30  2  0  0  0  0
 29 31  1  0  0  0  0
 31 32  1  0  0  0  0
 31 33  1  0  0  0  0
 33 34  1  0  0  0  0
 33 35  1  0  0  0  0
 33 36  1  0  0  0  0
M  END
$$$$

  -OEChem-03222214083D

 36 37  0     1  0  0  0  0  0999 V2000
   -2.9934   -4.8861    0.9653 H   0  0  0  0  0  0  0  0  0  0  0  0
   -3.1275   -4.0058    0.3301 C   0  0  0  0  0  0  0  0  0  0  0  0
   -4.0041   -3.4534    0.6765 H   0  0  0  0  0  0  0  0  0  0  0  0
   -3.2948   -4.3363   -0.6978 H   0  0  0  0  0  0  0  0  0  0  0  0
   -1.8952   -3.1232    0.3957 C   0  0  0  0  0  0  0  0  0  0  0  0
   -0.9277   -3.4757    1.0448 O   0  0  0  0  0  0  0  0  0  0  0  0
   -1.8759   -1.9226   -0.2834 N   0  0  0  0  0  0  0  0  0  0  0  0
   -2.6989   -1.6817   -0.8280 H   0  0  0  0  0  0  0  0  0  0  0  0
   -0.7183   -1.0120   -0.3291 C   0  0  1  0  0  0  0  0  0  0  0  0
    0.0963   -1.6685   -0.6572 H   0  0  0  0  0  0  0  0  0  0  0  0
   -0.8615   -0.0051   -1.4837 C   0  0  0  0  0  0  0  0  0  0  0  0
    0.1486    0.2443   -1.8273 H   0  0  0  0  0  0  0  0  0  0  0  0
   -1.3683   -0.4986   -2.3189 H   0  0  0  0  0  0  0  0  0  0  0  0
   -1.5757    1.3004   -1.1942 C   0  0  0  0  0  0  0  0  0  0  0  0
   -1.4584    2.3573   -2.0676 C   0  0  0  0  0  0  0  0  0  0  0  0
   -0.7645    2.4028   -2.9045 H   0  0  0  0  0  0  0  0  0  0  0  0
   -2.3470    3.3516   -1.6837 N   0  0  0  0  0  0  0  0  0  0  0  0
   -2.4460    4.2606   -2.1319 H   0  0  0  0  0  0  0  0  0  0  0  0
   -3.1442    2.8972   -0.6536 C   0  0  0  0  0  0  0  0  0  0  0  0
   -4.2172    3.5212   -0.0189 C   0  0  0  0  0  0  0  0  0  0  0  0
   -4.4932    4.5372   -0.2792 H   0  0  0  0  0  0  0  0  0  0  0  0
   -4.9440    2.8128    0.9430 C   0  0  0  0  0  0  0  0  0  0  0  0
   -5.7826    3.2842    1.4474 H   0  0  0  0  0  0  0  0  0  0  0  0
   -4.6038    1.4861    1.2330 C   0  0  0  0  0  0  0  0  0  0  0  0
   -5.1869    0.9281    1.9600 H   0  0  0  0  0  0  0  0  0  0  0  0
   -3.5226    0.8752    0.5831 C   0  0  0  0  0  0  0  0  0  0  0  0
   -3.3100   -0.1605    0.8091 H   0  0  0  0  0  0  0  0  0  0  0  0
   -2.7465    1.5971   -0.3403 C   0  0  0  0  0  0  0  0  0  0  0  0
   -0.1344   -0.4005    0.9719 C   0  0  0  0  0  0  0  0  0  0  0  0
    1.0812   -0.2683    1.0533 O   0  0  0  0  0  0  0  0  0  0  0  0
   -0.9122    0.1409    1.9791 N   0  0  0  0  0  0  0  0  0  0  0  0
   -1.9009    0.2368    1.7837 H   0  0  0  0  0  0  0  0  0  0  0  0
   -0.3565    0.8953    3.0950 C   0  0  0  0  0  0  0  0  0  0  0  0
    0.1489    1.7970    2.7335 H   0  0  0  0  0  0  0  0  0  0  0  0
   -1.1541    1.1956    3.7808 H   0  0  0  0  0  0  0  0  0  0  0  0
    0.3633    0.2847    3.6503 H   0  0  0  0  0  0  0  0  0  0  0  0
  1  2  1  0  0  0  0
  2  3  1  0  0  0  0
  2  4  1  0  0  0  0
  2  5  1  0  0  0  0
  5  6  2  0  0  0  0
  5  7  1  0  0  0  0
  7  8  1  0  0  0  0
  7  9  1  0  0  0  0
  9 10  1  0  0  0  0
  9 11  1  0  0  0  0
  9 29  1  0  0  0  0
 11 12  1  0  0  0  0
 11 13  1  0  0  0  0
 11 14  1  0  0  0  0
 14 15  2  0  0  0  0
 14 28  1  0  0  0  0
 15 16  1  0  0  0  0
 15 17  1  0  0  0  0
 17 18  1  0  0  0  0
 17 19  1  0  0  0  0
 19 20  1  0  0  0  0
 19 28  2  0  0  0  0
 20 21  1  0  0  0  0
 20 22  2  0  0  0  0
 22 23  1  0  0  0  0
 22 24  1  0  0  0  0
 24 25  1  0  0  0  0
 24 26  2  0  0  0  0
 26 27  1  0  0  0  0
 26 28  1  0  0  0  0
 29 30  2  0  0  0  0
 29 31  1  0  0  0  0
 31 32  1  0  0  0  0
 31 33  1  0  0  0  0
 33 34  1  0  0  0  0
 33 35  1  0  0  0  0
 33 36  1  0  0  0  0
M  END
$$$$

  -OEChem-03222214083D

 36 37  0     1  0  0  0  0  0999 V2000
   -3.3324   -5.0815   -0.0722 H   0  0  0  0  0  0  0  0  0  0  0  0
   -3.3961   -4.0646   -0.4705 C   0  0  0  0  0  0  0  0  0  0  0  0
   -4.2674   -3.5703   -0.0343 H   0  0  0  0  0  0  0  0  0  0  0  0
   -3.5205   -4.1201   -1.5547 H   0  0  0  0  0  0  0  0  0  0  0  0
   -2.1342   -3.2931   -0.1318 C   0  0  0  0  0  0  0  0  0  0  0  0
   -1.2449   -3.8338    0.4989 O   0  0  0  0  0  0  0  0  0  0  0  0
   -1.9949   -1.9865   -0.5574 N   0  0  0  0  0  0  0  0  0  0  0  0
   -2.7798   -1.5821   -1.0588 H   0  0  0  0  0  0  0  0  0  0  0  0
   -0.8418   -1.1129   -0.2475 C   0  0  1  0  0  0  0  0  0  0  0  0
    0.0485   -1.6948   -0.5143 H   0  0  0  0  0  0  0  0  0  0  0  0
   -0.8423    0.0725   -1.2550 C   0  0  0  0  0  0  0  0  0  0  0  0
    0.2059    0.1485   -1.5656 H   0  0  0  0  0  0  0  0  0  0  0  0
   -1.3949   -0.2569   -2.1412 H   0  0  0  0  0  0  0  0  0  0  0  0
   -1.2460    1.5247   -1.0044 C   0  0  0  0  0  0  0  0  0  0  0  0
   -1.1460    2.3325   -2.1191 C   0  0  0  0  0  0  0  0  0  0  0  0
   -0.8879    1.9870   -3.1178 H   0  0  0  0  0  0  0  0  0  0  0  0
   -1.5050    3.6262   -1.7850 N   0  0  0  0  0  0  0  0  0  0  0  0
   -1.5340    4.4191   -2.4227 H   0  0  0  0  0  0  0  0  0  0  0  0
   -1.6789    3.7147   -0.4240 C   0  0  0  0  0  0  0  0  0  0  0  0
   -1.9514    4.8555    0.3299 C   0  0  0  0  0  0  0  0  0  0  0  0
   -2.1421    5.8050   -0.1576 H   0  0  0  0  0  0  0  0  0  0  0  0
   -1.9415    4.7636    1.7227 C   0  0  0  0  0  0  0  0  0  0  0  0
   -2.1454    5.6392    2.3319 H   0  0  0  0  0  0  0  0  0  0  0  0
   -1.6086    3.5473    2.3251 C   0  0  0  0  0  0  0  0  0  0  0  0
   -1.5325    3.4810    3.4062 H   0  0  0  0  0  0  0  0  0  0  0  0
   -1.3353    2.4182    1.5397 C   0  0  0  0  0  0  0  0  0  0  0  0
   -0.9781    1.5447    2.0529 H   0  0  0  0  0  0  0  0  0  0  0  0
   -1.4414    2.4561    0.1398 C   0  0  0  0  0  0  0  0  0  0  0  0
   -0.6902   -0.9220    1.2749 C   0  0  0  0  0  0  0  0  0  0  0  0
    0.4195   -0.8743    1.7890 O   0  0  0  0  0  0  0  0  0  0  0  0
   -1.8085   -0.6628    2.0516 N   0  0  0  0  0  0  0  0  0  0  0  0
   -2.7057   -0.7380    1.5849 H   0  0  0  0  0  0  0  0  0  0  0  0
   -1.7760   -0.6630    3.5099 C   0  0  0  0  0  0  0  0  0  0  0  0
   -1.5827   -1.6733    3.8852 H   0  0  0  0  0  0  0  0  0  0  0  0
   -2.7353   -0.3195    3.9083 H   0  0  0  0  0  0  0  0  0  0  0  0
   -0.9927    0.0050    3.8835 H   0  0  0  0  0  0  0  0  0  0  0  0
  1  2  1  0  0  0  0
  2  3  1  0  0  0  0
  2  4  1  0  0  0  0
  2  5  1  0  0  0  0
  5  6  2  0  0  0  0
  5  7  1  0  0  0  0
  7  8  1  0  0  0  0
  7  9  1  0  0  0  0
  9 10  1  0  0  0  0
  9 11  1  0  0  0  0
  9 29  1  0  0  0  0
 11 12  1  0  0  0  0
 11 13  1  0  0  0  0
 11 14  1  0  0  0  0
 14 15  2  0  0  0  0
 14 28  1  0  0  0  0
 15 16  1  0  0  0  0
 15 17  1  0  0  0  0
 17 18  1  0  0  0  0
 17 19  1  0  0  0  0
 19 20  1  0  0  0  0
 19 28  2  0  0  0  0
 20 21  1  0  0  0  0
 20 22  2  0  0  0  0
 22 23  1  0  0  0  0
 22 24  1  0  0  0  0
 24 25  1  0  0  0  0
 24 26  2  0  0  0  0
 26 27  1  0  0  0  0
 26 28  1  0  0  0  0
 29 30  2  0  0  0  0
 29 31  1  0  0  0  0
 31 32  1  0  0  0  0
 31 33  1  0  0  0  0
 33 34  1  0  0  0  0
 33 35  1  0  0  0  0
 33 36  1  0  0  0  0
M  END
$$$$

  -OEChem-03222214083D

 36 37  0     1  0  0  0  0  0999 V2000
   -2.9808   -5.0967    0.2536 H   0  0  0  0  0  0  0  0  0  0  0  0
   -3.0677   -4.1403   -0.2700 C   0  0  0  0  0  0  0  0  0  0  0  0
   -3.9533   -3.6179    0.0992 H   0  0  0  0  0  0  0  0  0  0  0  0
   -3.1847   -4.3343   -1.3388 H   0  0  0  0  0  0  0  0  0  0  0  0
   -1.8279   -3.2999   -0.0288 C   0  0  0  0  0  0  0  0  0  0  0  0
   -0.8978   -3.7615    0.6057 O   0  0  0  0  0  0  0  0  0  0  0  0
   -1.7586   -2.0204   -0.5440 N   0  0  0  0  0  0  0  0  0  0  0  0
   -2.5812   -1.6796   -1.0312 H   0  0  0  0  0  0  0  0  0  0  0  0
   -0.6594   -1.0673   -0.2799 C   0  0  1  0  0  0  0  0  0  0  0  0
    0.2737   -1.5817   -0.5387 H   0  0  0  0  0  0  0  0  0  0  0  0
   -0.8143    0.0824   -1.3144 C   0  0  0  0  0  0  0  0  0  0  0  0
    0.2062    0.2668   -1.6672 H   0  0  0  0  0  0  0  0  0  0  0  0
   -1.3637   -0.3046   -2.1794 H   0  0  0  0  0  0  0  0  0  0  0  0
   -1.3482    1.4779   -1.0012 C   0  0  0  0  0  0  0  0  0  0  0  0
   -1.7183    2.2273   -2.0990 C   0  0  0  0  0  0  0  0  0  0  0  0
   -1.7438    1.8634   -3.1239 H   0  0  0  0  0  0  0  0  0  0  0  0
   -2.1040    3.4901   -1.6845 N   0  0  0  0  0  0  0  0  0  0  0  0
   -2.4320    4.2404   -2.2894 H   0  0  0  0  0  0  0  0  0  0  0  0
   -1.8359    3.6338   -0.3429 C   0  0  0  0  0  0  0  0  0  0  0  0
   -1.9826    4.7754    0.4438 C   0  0  0  0  0  0  0  0  0  0  0  0
   -2.4253    5.6752    0.0311 H   0  0  0  0  0  0  0  0  0  0  0  0
   -1.5241    4.7518    1.7623 C   0  0  0  0  0  0  0  0  0  0  0  0
   -1.6235    5.6299    2.3933 H   0  0  0  0  0  0  0  0  0  0  0  0
   -0.8938    3.6031    2.2496 C   0  0  0  0  0  0  0  0  0  0  0  0
   -0.4885    3.5923    3.2570 H   0  0  0  0  0  0  0  0  0  0  0  0
   -0.7566    2.4693    1.4361 C   0  0  0  0  0  0  0  0  0  0  0  0
   -0.1929    1.6446    1.8421 H   0  0  0  0  0  0  0  0  0  0  0  0
   -1.2876    2.4385    0.1338 C   0  0  0  0  0  0  0  0  0  0  0  0
   -0.5284   -0.7565    1.2225 C   0  0  0  0  0  0  0  0  0  0  0  0
    0.5755   -0.7237    1.7517 O   0  0  0  0  0  0  0  0  0  0  0  0
   -1.6559   -0.4921    1.9830 N   0  0  0  0  0  0  0  0  0  0  0  0
   -2.5494   -0.5205    1.5045 H   0  0  0  0  0  0  0  0  0  0  0  0
   -1.6348   -0.3725    3.4354 C   0  0  0  0  0  0  0  0  0  0  0  0
   -1.3957   -1.3387    3.8918 H   0  0  0  0  0  0  0  0  0  0  0  0
   -2.6130   -0.0462    3.8010 H   0  0  0  0  0  0  0  0  0  0  0  0
   -0.8879    0.3613    3.7554 H   0  0  0  0  0  0  0  0  0  0  0  0
  1  2  1  0  0  0  0
  2  3  1  0  0  0  0
  2  4  1  0  0  0  0
  2  5  1  0  0  0  0
  5  6  2  0  0  0  0
  5  7  1  0  0  0  0
  7  8  1  0  0  0  0
  7  9  1  0  0  0  0
  9 10  1  0  0  0  0
  9 11  1  0  0  0  0
  9 29  1  0  0  0  0
 11 12  1  0  0  0  0
 11 13  1  0  0  0  0
 11 14  1  0  0  0  0
 14 15  2  0  0  0  0
 14 28  1  0  0  0  0
 15 16  1  0  0  0  0
 15 17  1  0  0  0  0
 17 18  1  0  0  0  0
 17 19  1  0  0  0  0
 19 20  1  0  0  0  0
 19 28  2  0  0  0  0
 20 21  1  0  0  0  0
 20 22  2  0  0  0  0
 22 23  1  0  0  0  0
 22 24  1  0  0  0  0
 24 25  1  0  0  0  0
 24 26  2  0  0  0  0
 26 27  1  0  0  0  0
 26 28  1  0  0  0  0
 29 30  2  0  0  0  0
 29 31  1  0  0  0  0
 31 32  1  0  0  0  0
 31 33  1  0  0  0  0
 33 34  1  0  0  0  0
 33 35  1  0  0  0  0
 33 36  1  0  0  0  0
M  END
$$$$

  -OEChem-03222214083D

 36 37  0     1  0  0  0  0  0999 V2000
   -2.8863   -5.0733    0.2498 H   0  0  0  0  0  0  0  0  0  0  0  0
   -3.0156   -4.0875   -0.2059 C   0  0  0  0  0  0  0  0  0  0  0  0
   -3.8456   -3.5781    0.2892 H   0  0  0  0  0  0  0  0  0  0  0  0
   -3.2534   -4.2187   -1.2641 H   0  0  0  0  0  0  0  0  0  0  0  0
   -1.7437   -3.2748   -0.0546 C   0  0  0  0  0  0  0  0  0  0  0  0
   -0.7938   -3.7447    0.5438 O   0  0  0  0  0  0  0  0  0  0  0  0
   -1.6637   -2.0158   -0.6169 N   0  0  0  0  0  0  0  0  0  0  0  0
   -2.5130   -1.6588   -1.0418 H   0  0  0  0  0  0  0  0  0  0  0  0
   -0.5761   -1.0570   -0.3287 C   0  0  1  0  0  0  0  0  0  0  0  0
    0.3731   -1.5574   -0.5529 H   0  0  0  0  0  0  0  0  0  0  0  0
   -0.7440    0.0834   -1.3715 C   0  0  0  0  0  0  0  0  0  0  0  0
    0.2703    0.3030   -1.7207 H   0  0  0  0  0  0  0  0  0  0  0  0
   -1.2848   -0.2979   -2.2441 H   0  0  0  0  0  0  0  0  0  0  0  0
   -1.3181    1.4385   -0.9835 C   0  0  0  0  0  0  0  0  0  0  0  0
   -2.0238    2.1425   -1.9358 C   0  0  0  0  0  0  0  0  0  0  0  0
   -2.3026    1.7633   -2.9167 H   0  0  0  0  0  0  0  0  0  0  0  0
   -2.3542    3.3881   -1.4249 N   0  0  0  0  0  0  0  0  0  0  0  0
   -2.8773    4.1110   -1.9155 H   0  0  0  0  0  0  0  0  0  0  0  0
   -1.7316    3.5704   -0.2092 C   0  0  0  0  0  0  0  0  0  0  0  0
   -1.7072    4.7029    0.6039 C   0  0  0  0  0  0  0  0  0  0  0  0
   -2.2902    5.5792    0.3435 H   0  0  0  0  0  0  0  0  0  0  0  0
   -0.8992    4.7019    1.7444 C   0  0  0  0  0  0  0  0  0  0  0  0
   -0.8628    5.5738    2.3908 H   0  0  0  0  0  0  0  0  0  0  0  0
   -0.1039    3.5856    2.0260 C   0  0  0  0  0  0  0  0  0  0  0  0
    0.5601    3.5938    2.8855 H   0  0  0  0  0  0  0  0  0  0  0  0
   -0.1414    2.4597    1.1918 C   0  0  0  0  0  0  0  0  0  0  0  0
    0.5369    1.6477    1.4118 H   0  0  0  0  0  0  0  0  0  0  0  0
   -1.0095    2.4133    0.0882 C   0  0  0  0  0  0  0  0  0  0  0  0
   -0.5087   -0.6895    1.1682 C   0  0  0  0  0  0  0  0  0  0  0  0
    0.5602   -0.7397    1.7643 O   0  0  0  0  0  0  0  0  0  0  0  0
   -1.6625   -0.3882    1.8723 N   0  0  0  0  0  0  0  0  0  0  0  0
   -2.4962   -0.2063    1.3242 H   0  0  0  0  0  0  0  0  0  0  0  0
   -1.6653   -0.0504    3.2896 C   0  0  0  0  0  0  0  0  0  0  0  0
   -2.6816    0.1841    3.6197 H   0  0  0  0  0  0  0  0  0  0  0  0
   -1.0303    0.8207    3.4808 H   0  0  0  0  0  0  0  0  0  0  0  0
   -1.2947   -0.8936    3.8818 H   0  0  0  0  0  0  0  0  0  0  0  0
  1  2  1  0  0  0  0
  2  3  1  0  0  0  0
  2  4  1  0  0  0  0
  2  5  1  0  0  0  0
  5  6  2  0  0  0  0
  5  7  1  0  0  0  0
  7  8  1  0  0  0  0
  7  9  1  0  0  0  0
  9 10  1  0  0  0  0
  9 11  1  0  0  0  0
  9 29  1  0  0  0  0
 11 12  1  0  0  0  0
 11 13  1  0  0  0  0
 11 14  1  0  0  0  0
 14 15  2  0  0  0  0
 14 28  1  0  0  0  0
 15 16  1  0  0  0  0
 15 17  1  0  0  0  0
 17 18  1  0  0  0  0
 17 19  1  0  0  0  0
 19 20  1  0  0  0  0
 19 28  2  0  0  0  0
 20 21  1  0  0  0  0
 20 22  2  0  0  0  0
 22 23  1  0  0  0  0
 22 24  1  0  0  0  0
 24 25  1  0  0  0  0
 24 26  2  0  0  0  0
 26 27  1  0  0  0  0
 26 28  1  0  0  0  0
 29 30  2  0  0  0  0
 29 31  1  0  0  0  0
 31 32  1  0  0  0  0
 31 33  1  0  0  0  0
 33 34  1  0  0  0  0
 33 35  1  0  0  0  0
 33 36  1  0  0  0  0
M  END
$$$$

  -OEChem-03222214083D

 36 37  0     1  0  0  0  0  0999 V2000
   -3.4434   -4.8021    0.4672 H   0  0  0  0  0  0  0  0  0  0  0  0
   -3.3947   -3.8934   -0.1397 C   0  0  0  0  0  0  0  0  0  0  0  0
   -4.2173   -3.2350    0.1485 H   0  0  0  0  0  0  0  0  0  0  0  0
   -3.5042   -4.1670   -1.1917 H   0  0  0  0  0  0  0  0  0  0  0  0
   -2.0673   -3.1924    0.0788 C   0  0  0  0  0  0  0  0  0  0  0  0
   -1.2271   -3.6977    0.7998 O   0  0  0  0  0  0  0  0  0  0  0  0
   -1.8139   -1.9950   -0.5604 N   0  0  0  0  0  0  0  0  0  0  0  0
   -2.5803   -1.5981   -1.0929 H   0  0  0  0  0  0  0  0  0  0  0  0
   -0.6585   -1.1276   -0.2515 C   0  0  1  0  0  0  0  0  0  0  0  0
    0.2476   -1.7325   -0.3726 H   0  0  0  0  0  0  0  0  0  0  0  0
   -0.6371   -0.0441   -1.3653 C   0  0  0  0  0  0  0  0  0  0  0  0
    0.4104    0.0641   -1.6658 H   0  0  0  0  0  0  0  0  0  0  0  0
   -1.1714   -0.4049   -2.2503 H   0  0  0  0  0  0  0  0  0  0  0  0
   -1.1101    1.3554   -1.0217 C   0  0  0  0  0  0  0  0  0  0  0  0
   -1.9626    2.0476   -1.8528 C   0  0  0  0  0  0  0  0  0  0  0  0
   -2.4434    1.6424   -2.7403 H   0  0  0  0  0  0  0  0  0  0  0  0
   -2.1169    3.3352   -1.3552 N   0  0  0  0  0  0  0  0  0  0  0  0
   -2.6873    4.0680   -1.7731 H   0  0  0  0  0  0  0  0  0  0  0  0
   -1.2648    3.5315   -0.2863 C   0  0  0  0  0  0  0  0  0  0  0  0
   -1.0132    4.6791    0.4655 C   0  0  0  0  0  0  0  0  0  0  0  0
   -1.5703    5.5906    0.2797 H   0  0  0  0  0  0  0  0  0  0  0  0
   -0.0165    4.6438    1.4477 C   0  0  0  0  0  0  0  0  0  0  0  0
    0.1949    5.5272    2.0431 H   0  0  0  0  0  0  0  0  0  0  0  0
    0.7298    3.4737    1.6402 C   0  0  0  0  0  0  0  0  0  0  0  0
    1.5249    3.4496    2.3797 H   0  0  0  0  0  0  0  0  0  0  0  0
    0.4653    2.3311    0.8725 C   0  0  0  0  0  0  0  0  0  0  0  0
    1.0837    1.4521    1.0098 H   0  0  0  0  0  0  0  0  0  0  0  0
   -0.5733    2.3415   -0.0697 C   0  0  0  0  0  0  0  0  0  0  0  0
   -0.6450   -0.6398    1.2156 C   0  0  0  0  0  0  0  0  0  0  0  0
    0.3814   -0.7254    1.8788 O   0  0  0  0  0  0  0  0  0  0  0  0
   -1.7999   -0.1630    1.8130 N   0  0  0  0  0  0  0  0  0  0  0  0
   -2.5664    0.0618    1.1885 H   0  0  0  0  0  0  0  0  0  0  0  0
   -1.8161    0.3918    3.1603 C   0  0  0  0  0  0  0  0  0  0  0  0
   -1.1835    1.2839    3.2147 H   0  0  0  0  0  0  0  0  0  0  0  0
   -2.8357    0.6712    3.4419 H   0  0  0  0  0  0  0  0  0  0  0  0
   -1.4502   -0.3453    3.8830 H   0  0  0  0  0  0  0  0  0  0  0  0
  1  2  1  0  0  0  0
  2  3  1  0  0  0  0
  2  4  1  0  0  0  0
  2  5  1  0  0  0  0
  5  6  2  0  0  0  0
  5  7  1  0  0  0  0
  7  8  1  0  0  0  0
  7  9  1  0  0  0  0
  9 10  1  0  0  0  0
  9 11  1  0  0  0  0
  9 29  1  0  0  0  0
 11 12  1  0  0  0  0
 11 13  1  0  0  0  0
 11 14  1  0  0  0  0
 14 15  2  0  0  0  0
 14 28  1  0  0  0  0
 15 16  1  0  0  0  0
 15 17  1  0  0  0  0
 17 18  1  0  0  0  0
 17 19  1  0  0  0  0
 19 20  1  0  0  0  0
 19 28  2  0  0  0  0
 20 21  1  0  0  0  0
 20 22  2  0  0  0  0
 22 23  1  0  0  0  0
 22 24  1  0  0  0  0
 24 25  1  0  0  0  0
 24 26  2  0  0  0  0
 26 27  1  0  0  0  0
 26 28  1  0  0  0  0
 29 30  2  0  0  0  0
 29 31  1  0  0  0  0
 31 32  1  0  0  0  0
 31 33  1  0  0  0  0
 33 34  1  0  0  0  0
 33 35  1  0  0  0  0
 33 36  1  0  0  0  0
M  END
$$$$

  -OEChem-03222214083D

 36 37  0     1  0  0  0  0  0999 V2000
   -3.4698   -4.7130    0.6305 H   0  0  0  0  0  0  0  0  0  0  0  0
   -3.4051   -3.8519   -0.0409 C   0  0  0  0  0  0  0  0  0  0  0  0
   -4.2348   -3.1756    0.1770 H   0  0  0  0  0  0  0  0  0  0  0  0
   -3.4882   -4.2031   -1.0722 H   0  0  0  0  0  0  0  0  0  0  0  0
   -2.0829   -3.1348    0.1578 C   0  0  0  0  0  0  0  0  0  0  0  0
   -1.2522   -3.5974    0.9174 O   0  0  0  0  0  0  0  0  0  0  0  0
   -1.8219   -1.9729   -0.5412 N   0  0  0  0  0  0  0  0  0  0  0  0
   -2.5765   -1.6072   -1.1111 H   0  0  0  0  0  0  0  0  0  0  0  0
   -0.6530   -1.1071   -0.2856 C   0  0  1  0  0  0  0  0  0  0  0  0
    0.2380   -1.7376   -0.3852 H   0  0  0  0  0  0  0  0  0  0  0  0
   -0.5970   -0.0714   -1.4402 C   0  0  0  0  0  0  0  0  0  0  0  0
    0.4483    0.0029   -1.7578 H   0  0  0  0  0  0  0  0  0  0  0  0
   -1.1567   -0.4424   -2.3048 H   0  0  0  0  0  0  0  0  0  0  0  0
   -1.0461    1.3353   -1.1099 C   0  0  0  0  0  0  0  0  0  0  0  0
   -2.0964    1.9631   -1.7389 C   0  0  0  0  0  0  0  0  0  0  0  0
   -2.7482    1.5124   -2.4839 H   0  0  0  0  0  0  0  0  0  0  0  0
   -2.1761    3.2644   -1.2541 N   0  0  0  0  0  0  0  0  0  0  0  0
   -2.8496    3.9675   -1.5526 H   0  0  0  0  0  0  0  0  0  0  0  0
   -1.1357    3.5109   -0.3766 C   0  0  0  0  0  0  0  0  0  0  0  0
   -0.7777    4.6672    0.3160 C   0  0  0  0  0  0  0  0  0  0  0  0
   -1.3786    5.5658    0.2320 H   0  0  0  0  0  0  0  0  0  0  0  0
    0.3738    4.6548    1.1136 C   0  0  0  0  0  0  0  0  0  0  0  0
    0.6665    5.5452    1.6618 H   0  0  0  0  0  0  0  0  0  0  0  0
    1.1581    3.4954    1.1930 C   0  0  0  0  0  0  0  0  0  0  0  0
    2.0577    3.4862    1.8012 H   0  0  0  0  0  0  0  0  0  0  0  0
    0.7872    2.3417    0.4886 C   0  0  0  0  0  0  0  0  0  0  0  0
    1.4071    1.4528    0.5461 H   0  0  0  0  0  0  0  0  0  0  0  0
   -0.3833    2.3446   -0.2801 C   0  0  0  0  0  0  0  0  0  0  0  0
   -0.5915   -0.5345    1.1505 C   0  0  0  0  0  0  0  0  0  0  0  0
    0.4649   -0.5547    1.7706 O   0  0  0  0  0  0  0  0  0  0  0  0
   -1.7210   -0.0022    1.7487 N   0  0  0  0  0  0  0  0  0  0  0  0
   -2.5047    0.1806    1.1324 H   0  0  0  0  0  0  0  0  0  0  0  0
   -1.6713    0.6922    3.0284 C   0  0  0  0  0  0  0  0  0  0  0  0
   -1.0341    1.5801    2.9574 H   0  0  0  0  0  0  0  0  0  0  0  0
   -2.6756    1.0075    3.3259 H   0  0  0  0  0  0  0  0  0  0  0  0
   -1.2733    0.0333    3.8073 H   0  0  0  0  0  0  0  0  0  0  0  0
  1  2  1  0  0  0  0
  2  3  1  0  0  0  0
  2  4  1  0  0  0  0
  2  5  1  0  0  0  0
  5  6  2  0  0  0  0
  5  7  1  0  0  0  0
  7  8  1  0  0  0  0
  7  9  1  0  0  0  0
  9 10  1  0  0  0  0
  9 11  1  0  0  0  0
  9 29  1  0  0  0  0
 11 12  1  0  0  0  0
 11 13  1  0  0  0  0
 11 14  1  0  0  0  0
 14 15  2  0  0  0  0
 14 28  1  0  0  0  0
 15 16  1  0  0  0  0
 15 17  1  0  0  0  0
 17 18  1  0  0  0  0
 17 19  1  0  0  0  0
 19 20  1  0  0  0  0
 19 28  2  0  0  0  0
 20 21  1  0  0  0  0
 20 22  2  0  0  0  0
 22 23  1  0  0  0  0
 22 24  1  0  0  0  0
 24 25  1  0  0  0  0
 24 26  2  0  0  0  0
 26 27  1  0  0  0  0
 26 28  1  0  0  0  0
 29 30  2  0  0  0  0
 29 31  1  0  0  0  0
 31 32  1  0  0  0  0
 31 33  1  0  0  0  0
 33 34  1  0  0  0  0
 33 35  1  0  0  0  0
 33 36  1  0  0  0  0
M  END
$$$$

  -OEChem-03222214083D

 36 37  0     1  0  0  0  0  0999 V2000
   -3.4300   -4.6902    0.7109 H   0  0  0  0  0  0  0  0  0  0  0  0
   -3.3806   -3.8434    0.0201 C   0  0  0  0  0  0  0  0  0  0  0  0
   -4.2300   -3.1840    0.2130 H   0  0  0  0  0  0  0  0  0  0  0  0
   -3.4430   -4.2205   -1.0034 H   0  0  0  0  0  0  0  0  0  0  0  0
   -2.0804   -3.0869    0.2159 C   0  0  0  0  0  0  0  0  0  0  0  0
   -1.2602   -3.4895    1.0197 O   0  0  0  0  0  0  0  0  0  0  0  0
   -1.8305   -1.9525   -0.5299 N   0  0  0  0  0  0  0  0  0  0  0  0
   -2.5636   -1.6469   -1.1599 H   0  0  0  0  0  0  0  0  0  0  0  0
   -0.6564   -1.0797   -0.3337 C   0  0  1  0  0  0  0  0  0  0  0  0
    0.2239   -1.7260   -0.4258 H   0  0  0  0  0  0  0  0  0  0  0  0
   -0.5943   -0.0885   -1.5230 C   0  0  0  0  0  0  0  0  0  0  0  0
    0.4443   -0.0355   -1.8650 H   0  0  0  0  0  0  0  0  0  0  0  0
   -1.1796   -0.4744   -2.3635 H   0  0  0  0  0  0  0  0  0  0  0  0
   -1.0327    1.3220   -1.2071 C   0  0  0  0  0  0  0  0  0  0  0  0
   -2.2328    1.8749   -1.5881 C   0  0  0  0  0  0  0  0  0  0  0  0
   -3.0144    1.3682   -2.1488 H   0  0  0  0  0  0  0  0  0  0  0  0
   -2.2601    3.1909   -1.1352 N   0  0  0  0  0  0  0  0  0  0  0  0
   -3.0180    3.8540   -1.2855 H   0  0  0  0  0  0  0  0  0  0  0  0
   -1.0744    3.5015   -0.4909 C   0  0  0  0  0  0  0  0  0  0  0  0
   -0.6310    4.6796    0.1105 C   0  0  0  0  0  0  0  0  0  0  0  0
   -1.2659    5.5585    0.1277 H   0  0  0  0  0  0  0  0  0  0  0  0
    0.6444    4.7108    0.6917 C   0  0  0  0  0  0  0  0  0  0  0  0
    1.0045    5.6181    1.1678 H   0  0  0  0  0  0  0  0  0  0  0  0
    1.4587    3.5688    0.6591 C   0  0  0  0  0  0  0  0  0  0  0  0
    2.4452    3.5885    1.1125 H   0  0  0  0  0  0  0  0  0  0  0  0
    1.0029    2.3927    0.0478 C   0  0  0  0  0  0  0  0  0  0  0  0
    1.6302    1.5064    0.0320 H   0  0  0  0  0  0  0  0  0  0  0  0
   -0.2741    2.3650   -0.5227 C   0  0  0  0  0  0  0  0  0  0  0  0
   -0.5341   -0.4375    1.0695 C   0  0  0  0  0  0  0  0  0  0  0  0
    0.5617   -0.3796    1.6147 O   0  0  0  0  0  0  0  0  0  0  0  0
   -1.6335    0.1332    1.6881 N   0  0  0  0  0  0  0  0  0  0  0  0
   -2.4575    0.2490    1.1097 H   0  0  0  0  0  0  0  0  0  0  0  0
   -1.5127    0.9469    2.8906 C   0  0  0  0  0  0  0  0  0  0  0  0
   -0.8903    1.8268    2.6947 H   0  0  0  0  0  0  0  0  0  0  0  0
   -2.5002    1.2848    3.2184 H   0  0  0  0  0  0  0  0  0  0  0  0
   -1.0601    0.3674    3.7023 H   0  0  0  0  0  0  0  0  0  0  0  0
  1  2  1  0  0  0  0
  2  3  1  0  0  0  0
  2  4  1  0  0  0  0
  2  5  1  0  0  0  0
  5  6  2  0  0  0  0
  5  7  1  0  0  0  0
  7  8  1  0  0  0  0
  7  9  1  0  0  0  0
  9 10  1  0  0  0  0
  9 11  1  0  0  0  0
  9 29  1  0  0  0  0
 11 12  1  0  0  0  0
 11 13  1  0  0  0  0
 11 14  1  0  0  0  0
 14 15  2  0  0  0  0
 14 28  1  0  0  0  0
 15 16  1  0  0  0  0
 15 17  1  0  0  0  0
 17 18  1  0  0  0  0
 17 19  1  0  0  0  0
 19 20  1  0  0  0  0
 19 28  2  0  0  0  0
 20 21  1  0  0  0  0
 20 22  2  0  0  0  0
 22 23  1  0  0  0  0
 22 24  1  0  0  0  0
 24 25  1  0  0  0  0
 24 26  2  0  0  0  0
 26 27  1  0  0  0  0
 26 28  1  0  0  0  0
 29 30  2  0  0  0  0
 29 31  1  0  0  0  0
 31 32  1  0  0  0  0
 31 33  1  0  0  0  0
 33 34  1  0  0  0  0
 33 35  1  0  0  0  0
 33 36  1  0  0  0  0
M  END
$$$$

  -OEChem-03222214083D

 36 37  0     1  0  0  0  0  0999 V2000
   -3.3642   -4.7226    0.7349 H   0  0  0  0  0  0  0  0  0  0  0  0
   -3.3428   -3.8778    0.0403 C   0  0  0  0  0  0  0  0  0  0  0  0
   -4.2306   -3.2635    0.2076 H   0  0  0  0  0  0  0  0  0  0  0  0
   -3.3594   -4.2634   -0.9819 H   0  0  0  0  0  0  0  0  0  0  0  0
   -2.0899   -3.0520    0.2639 C   0  0  0  0  0  0  0  0  0  0  0  0
   -1.2916   -3.3815    1.1215 O   0  0  0  0  0  0  0  0  0  0  0  0
   -1.8593   -1.9357   -0.5148 N   0  0  0  0  0  0  0  0  0  0  0  0
   -2.5448   -1.7234   -1.2312 H   0  0  0  0  0  0  0  0  0  0  0  0
   -0.6848   -1.0530   -0.3713 C   0  0  1  0  0  0  0  0  0  0  0  0
    0.1898   -1.7071   -0.4636 H   0  0  0  0  0  0  0  0  0  0  0  0
   -0.6289   -0.0953   -1.5851 C   0  0  0  0  0  0  0  0  0  0  0  0
    0.4032   -0.0569   -1.9474 H   0  0  0  0  0  0  0  0  0  0  0  0
   -1.2332   -0.4939   -2.4057 H   0  0  0  0  0  0  0  0  0  0  0  0
   -1.0621    1.3190   -1.2851 C   0  0  0  0  0  0  0  0  0  0  0  0
   -2.3456    1.8016   -1.3886 C   0  0  0  0  0  0  0  0  0  0  0  0
   -3.2108    1.2359   -1.7253 H   0  0  0  0  0  0  0  0  0  0  0  0
   -2.3291    3.1385   -0.9996 N   0  0  0  0  0  0  0  0  0  0  0  0
   -3.1319    3.7645   -0.9925 H   0  0  0  0  0  0  0  0  0  0  0  0
   -1.0478    3.5169   -0.6329 C   0  0  0  0  0  0  0  0  0  0  0  0
   -0.5361    4.7286   -0.1685 C   0  0  0  0  0  0  0  0  0  0  0  0
   -1.1851    5.5892   -0.0516 H   0  0  0  0  0  0  0  0  0  0  0  0
    0.8261    4.8161    0.1517 C   0  0  0  0  0  0  0  0  0  0  0  0
    1.2398    5.7508    0.5185 H   0  0  0  0  0  0  0  0  0  0  0  0
    1.6557    3.6934    0.0080 C   0  0  0  0  0  0  0  0  0  0  0  0
    2.7077    3.7571    0.2693 H   0  0  0  0  0  0  0  0  0  0  0  0
    1.1303    2.4820   -0.4635 C   0  0  0  0  0  0  0  0  0  0  0  0
    1.7654    1.6064   -0.5568 H   0  0  0  0  0  0  0  0  0  0  0  0
   -0.2270    2.4064   -0.7909 C   0  0  0  0  0  0  0  0  0  0  0  0
   -0.5053   -0.3602    1.0020 C   0  0  0  0  0  0  0  0  0  0  0  0
    0.6205   -0.2391    1.4706 O   0  0  0  0  0  0  0  0  0  0  0  0
   -1.5768    0.2349    1.6456 N   0  0  0  0  0  0  0  0  0  0  0  0
   -2.4413    0.2842    1.1199 H   0  0  0  0  0  0  0  0  0  0  0  0
   -1.4051    1.1232    2.7873 C   0  0  0  0  0  0  0  0  0  0  0  0
   -0.8259    2.0071    2.4992 H   0  0  0  0  0  0  0  0  0  0  0  0
   -2.3793    1.4515    3.1608 H   0  0  0  0  0  0  0  0  0  0  0  0
   -0.8818    0.6069    3.5991 H   0  0  0  0  0  0  0  0  0  0  0  0
  1  2  1  0  0  0  0
  2  3  1  0  0  0  0
  2  4  1  0  0  0  0
  2  5  1  0  0  0  0
  5  6  2  0  0  0  0
  5  7  1  0  0  0  0
  7  8  1  0  0  0  0
  7  9  1  0  0  0  0
  9 10  1  0  0  0  0
  9 11  1  0  0  0  0
  9 29  1  0  0  0  0
 11 12  1  0  0  0  0
 11 13  1  0  0  0  0
 11 14  1  0  0  0  0
 14 15  2  0  0  0  0
 14 28  1  0  0  0  0
 15 16  1  0  0  0  0
 15 17  1  0  0  0  0
 17 18  1  0  0  0  0
 17 19  1  0  0  0  0
 19 20  1  0  0  0  0
 19 28  2  0  0  0  0
 20 21  1  0  0  0  0
 20 22  2  0  0  0  0
 22 23  1  0  0  0  0
 22 24  1  0  0  0  0
 24 25  1  0  0  0  0
 24 26  2  0  0  0  0
 26 27  1  0  0  0  0
 26 28  1  0  0  0  0
 29 30  2  0  0  0  0
 29 31  1  0  0  0  0
 31 32  1  0  0  0  0
 31 33  1  0  0  0  0
 33 34  1  0  0  0  0
 33 35  1  0  0  0  0
 33 36  1  0  0  0  0
M  END
$$$$

  -OEChem-03222214083D

 36 37  0     1  0  0  0  0  0999 V2000
   -3.3137   -4.7705    0.7173 H   0  0  0  0  0  0  0  0  0  0  0  0
   -3.3052   -3.9324    0.0145 C   0  0  0  0  0  0  0  0  0  0  0  0
   -4.2299   -3.3635    0.1353 H   0  0  0  0  0  0  0  0  0  0  0  0
   -3.2570   -4.3288   -1.0026 H   0  0  0  0  0  0  0  0  0  0  0  0
   -2.1075   -3.0405    0.2826 C   0  0  0  0  0  0  0  0  0  0  0  0
   -1.3327   -3.3200    1.1783 O   0  0  0  0  0  0  0  0  0  0  0  0
   -1.8977   -1.9226   -0.5000 N   0  0  0  0  0  0  0  0  0  0  0  0
   -2.5334   -1.7815   -1.2777 H   0  0  0  0  0  0  0  0  0  0  0  0
   -0.7259   -1.0332   -0.3749 C   0  0  1  0  0  0  0  0  0  0  0  0
    0.1458   -1.6906   -0.4716 H   0  0  0  0  0  0  0  0  0  0  0  0
   -0.6680   -0.0831   -1.5931 C   0  0  0  0  0  0  0  0  0  0  0  0
    0.3640   -0.0545   -1.9561 H   0  0  0  0  0  0  0  0  0  0  0  0
   -1.2752   -0.4827   -2.4109 H   0  0  0  0  0  0  0  0  0  0  0  0
   -1.0986    1.3342   -1.3048 C   0  0  0  0  0  0  0  0  0  0  0  0
   -2.3931    1.7645   -1.1283 C   0  0  0  0  0  0  0  0  0  0  0  0
   -3.2832    1.1463   -1.2105 H   0  0  0  0  0  0  0  0  0  0  0  0
   -2.3525    3.1259   -0.8396 N   0  0  0  0  0  0  0  0  0  0  0  0
   -3.1606    3.7217   -0.6713 H   0  0  0  0  0  0  0  0  0  0  0  0
   -1.0407    3.5703   -0.8039 C   0  0  0  0  0  0  0  0  0  0  0  0
   -0.4953    4.8281   -0.5454 C   0  0  0  0  0  0  0  0  0  0  0  0
   -1.1411    5.6725   -0.3326 H   0  0  0  0  0  0  0  0  0  0  0  0
    0.8980    4.9838   -0.5578 C   0  0  0  0  0  0  0  0  0  0  0  0
    1.3396    5.9551   -0.3559 H   0  0  0  0  0  0  0  0  0  0  0  0
    1.7261    3.8821   -0.8204 C   0  0  0  0  0  0  0  0  0  0  0  0
    2.8054    4.0014   -0.8161 H   0  0  0  0  0  0  0  0  0  0  0  0
    1.1663    2.6230   -1.0795 C   0  0  0  0  0  0  0  0  0  0  0  0
    1.8057    1.7664   -1.2662 H   0  0  0  0  0  0  0  0  0  0  0  0
   -0.2251    2.4790   -1.0801 C   0  0  0  0  0  0  0  0  0  0  0  0
   -0.5184   -0.3351    0.9919 C   0  0  0  0  0  0  0  0  0  0  0  0
    0.6201   -0.1733    1.4148 O   0  0  0  0  0  0  0  0  0  0  0  0
   -1.5762    0.2578    1.6592 N   0  0  0  0  0  0  0  0  0  0  0  0
   -2.4788    0.2232    1.2019 H   0  0  0  0  0  0  0  0  0  0  0  0
   -1.3924    1.1541    2.7923 C   0  0  0  0  0  0  0  0  0  0  0  0
   -0.8302    2.0433    2.4871 H   0  0  0  0  0  0  0  0  0  0  0  0
   -2.3628    1.4734    3.1832 H   0  0  0  0  0  0  0  0  0  0  0  0
   -0.8465    0.6491    3.5964 H   0  0  0  0  0  0  0  0  0  0  0  0
  1  2  1  0  0  0  0
  2  3  1  0  0  0  0
  2  4  1  0  0  0  0
  2  5  1  0  0  0  0
  5  6  2  0  0  0  0
  5  7  1  0  0  0  0
  7  8  1  0  0  0  0
  7  9  1  0  0  0  0
  9 10  1  0  0  0  0
  9 11  1  0  0  0  0
  9 29  1  0  0  0  0
 11 12  1  0  0  0  0
 11 13  1  0  0  0  0
 11 14  1  0  0  0  0
 14 15  2  0  0  0  0
 14 28  1  0  0  0  0
 15 16  1  0  0  0  0
 15 17  1  0  0  0  0
 17 18  1  0  0  0  0
 17 19  1  0  0  0  0
 19 20  1  0  0  0  0
 19 28  2  0  0  0  0
 20 21  1  0  0  0  0
 20 22  2  0  0  0  0
 22 23  1  0  0  0  0
 22 24  1  0  0  0  0
 24 25  1  0  0  0  0
 24 26  2  0  0  0  0
 26 27  1  0  0  0  0
 26 28  1  0  0  0  0
 29 30  2  0  0  0  0
 29 31  1  0  0  0  0
 31 32  1  0  0  0  0
 31 33  1  0  0  0  0
 33 34  1  0  0  0  0
 33 35  1  0  0  0  0
 33 36  1  0  0  0  0
M  END
$$$$

  -OEChem-03222214083D

 36 37  0     1  0  0  0  0  0999 V2000
   -3.2720   -4.8095    0.6432 H   0  0  0  0  0  0  0  0  0  0  0  0
   -3.2748   -3.9555   -0.0402 C   0  0  0  0  0  0  0  0  0  0  0  0
   -4.2241   -3.4249    0.0642 H   0  0  0  0  0  0  0  0  0  0  0  0
   -3.1812   -4.3257   -1.0639 H   0  0  0  0  0  0  0  0  0  0  0  0
   -2.1204   -3.0256    0.2828 C   0  0  0  0  0  0  0  0  0  0  0  0
   -1.3724   -3.2847    1.2069 O   0  0  0  0  0  0  0  0  0  0  0  0
   -1.9264   -1.8881   -0.4748 N   0  0  0  0  0  0  0  0  0  0  0  0
   -2.5275   -1.7740   -1.2844 H   0  0  0  0  0  0  0  0  0  0  0  0
   -0.7609   -0.9917   -0.3398 C   0  0  1  0  0  0  0  0  0  0  0  0
    0.1092   -1.6504   -0.4409 H   0  0  0  0  0  0  0  0  0  0  0  0
   -0.6837   -0.0384   -1.5547 C   0  0  0  0  0  0  0  0  0  0  0  0
    0.3591   -0.0157   -1.8849 H   0  0  0  0  0  0  0  0  0  0  0  0
   -1.2662   -0.4406   -2.3888 H   0  0  0  0  0  0  0  0  0  0  0  0
   -1.1149    1.3860   -1.2977 C   0  0  0  0  0  0  0  0  0  0  0  0
   -2.3562    1.7981   -0.8707 C   0  0  0  0  0  0  0  0  0  0  0  0
   -3.2057    1.1491   -0.6777 H   0  0  0  0  0  0  0  0  0  0  0  0
   -2.3242    3.1830   -0.7358 N   0  0  0  0  0  0  0  0  0  0  0  0
   -3.0966    3.7667   -0.4223 H   0  0  0  0  0  0  0  0  0  0  0  0
   -1.0663    3.6659   -1.0552 C   0  0  0  0  0  0  0  0  0  0  0  0
   -0.5486    4.9610   -1.0568 C   0  0  0  0  0  0  0  0  0  0  0  0
   -1.1744    5.8003   -0.7752 H   0  0  0  0  0  0  0  0  0  0  0  0
    0.7903    5.1601   -1.4206 C   0  0  0  0  0  0  0  0  0  0  0  0
    1.2085    6.1620   -1.4231 H   0  0  0  0  0  0  0  0  0  0  0  0
    1.5928    4.0650   -1.7741 C   0  0  0  0  0  0  0  0  0  0  0  0
    2.6321    4.2206   -2.0472 H   0  0  0  0  0  0  0  0  0  0  0  0
    1.0608    2.7676   -1.7683 C   0  0  0  0  0  0  0  0  0  0  0  0
    1.6858    1.9209   -2.0314 H   0  0  0  0  0  0  0  0  0  0  0  0
   -0.2786    2.5763   -1.4100 C   0  0  0  0  0  0  0  0  0  0  0  0
   -0.5449   -0.3235    1.0403 C   0  0  0  0  0  0  0  0  0  0  0  0
    0.5967   -0.1399    1.4444 O   0  0  0  0  0  0  0  0  0  0  0  0
   -1.5987    0.2440    1.7351 N   0  0  0  0  0  0  0  0  0  0  0  0
   -2.5327    0.0255    1.4113 H   0  0  0  0  0  0  0  0  0  0  0  0
   -1.4290    0.9768    2.9824 C   0  0  0  0  0  0  0  0  0  0  0  0
   -0.7770    1.8433    2.8290 H   0  0  0  0  0  0  0  0  0  0  0  0
   -2.3967    1.3334    3.3473 H   0  0  0  0  0  0  0  0  0  0  0  0
   -0.9852    0.3317    3.7482 H   0  0  0  0  0  0  0  0  0  0  0  0
  1  2  1  0  0  0  0
  2  3  1  0  0  0  0
  2  4  1  0  0  0  0
  2  5  1  0  0  0  0
  5  6  2  0  0  0  0
  5  7  1  0  0  0  0
  7  8  1  0  0  0  0
  7  9  1  0  0  0  0
  9 10  1  0  0  0  0
  9 11  1  0  0  0  0
  9 29  1  0  0  0  0
 11 12  1  0  0  0  0
 11 13  1  0  0  0  0
 11 14  1  0  0  0  0
 14 15  2  0  0  0  0
 14 28  1  0  0  0  0
 15 16  1  0  0  0  0
 15 17  1  0  0  0  0
 17 18  1  0  0  0  0
 17 19  1  0  0  0  0
 19 20  1  0  0  0  0
 19 28  2  0  0  0  0
 20 21  1  0  0  0  0
 20 22  2  0  0  0  0
 22 23  1  0  0  0  0
 22 24  1  0  0  0  0
 24 25  1  0  0  0  0
 24 26  2  0  0  0  0
 26 27  1  0  0  0  0
 26 28  1  0  0  0  0
 29 30  2  0  0  0  0
 29 31  1  0  0  0  0
 31 32  1  0  0  0  0
 31 33  1  0  0  0  0
 33 34  1  0  0  0  0
 33 35  1  0  0  0  0
 33 36  1  0  0  0  0
M  END
$$$$

  -OEChem-03222214083D

 36 37  0     1  0  0  0  0  0999 V2000
   -3.2144   -4.8597    0.5378 H   0  0  0  0  0  0  0  0  0  0  0  0
   -3.2354   -3.9822   -0.1151 C   0  0  0  0  0  0  0  0  0  0  0  0
   -4.1995   -3.4813    0.0009 H   0  0  0  0  0  0  0  0  0  0  0  0
   -3.1252   -4.3134   -1.1504 H   0  0  0  0  0  0  0  0  0  0  0  0
   -2.1088   -3.0340    0.2498 C   0  0  0  0  0  0  0  0  0  0  0  0
   -1.3642   -3.3040    1.1737 O   0  0  0  0  0  0  0  0  0  0  0  0
   -1.9428   -1.8596   -0.4566 N   0  0  0  0  0  0  0  0  0  0  0  0
   -2.5467   -1.7254   -1.2617 H   0  0  0  0  0  0  0  0  0  0  0  0
   -0.7904   -0.9503   -0.2948 C   0  0  1  0  0  0  0  0  0  0  0  0
    0.0834   -1.6011   -0.4169 H   0  0  0  0  0  0  0  0  0  0  0  0
   -0.7053    0.0323   -1.4880 C   0  0  0  0  0  0  0  0  0  0  0  0
    0.3485    0.0663   -1.7809 H   0  0  0  0  0  0  0  0  0  0  0  0
   -1.2547   -0.3666   -2.3458 H   0  0  0  0  0  0  0  0  0  0  0  0
   -1.1439    1.4611   -1.2512 C   0  0  0  0  0  0  0  0  0  0  0  0
   -2.2706    1.8998   -0.5940 C   0  0  0  0  0  0  0  0  0  0  0  0
   -3.0274    1.2652   -0.1427 H   0  0  0  0  0  0  0  0  0  0  0  0
   -2.2684    3.2915   -0.6140 N   0  0  0  0  0  0  0  0  0  0  0  0
   -2.9665    3.8910   -0.1795 H   0  0  0  0  0  0  0  0  0  0  0  0
   -1.1463    3.7587   -1.2757 C   0  0  0  0  0  0  0  0  0  0  0  0
   -0.7042    5.0547   -1.5420 C   0  0  0  0  0  0  0  0  0  0  0  0
   -1.2815    5.9092   -1.2074 H   0  0  0  0  0  0  0  0  0  0  0  0
    0.4957    5.2362   -2.2432 C   0  0  0  0  0  0  0  0  0  0  0  0
    0.8549    6.2390   -2.4550 H   0  0  0  0  0  0  0  0  0  0  0  0
    1.2360    4.1228   -2.6677 C   0  0  0  0  0  0  0  0  0  0  0  0
    2.1674    4.2649   -3.2073 H   0  0  0  0  0  0  0  0  0  0  0  0
    0.7809    2.8251   -2.3937 C   0  0  0  0  0  0  0  0  0  0  0  0
    1.3577    1.9659   -2.7189 H   0  0  0  0  0  0  0  0  0  0  0  0
   -0.4184    2.6498   -1.6928 C   0  0  0  0  0  0  0  0  0  0  0  0
   -0.5695   -0.3439    1.1125 C   0  0  0  0  0  0  0  0  0  0  0  0
    0.5730   -0.1324    1.4989 O   0  0  0  0  0  0  0  0  0  0  0  0
   -1.6259    0.1701    1.8449 N   0  0  0  0  0  0  0  0  0  0  0  0
   -2.5476   -0.1647    1.5897 H   0  0  0  0  0  0  0  0  0  0  0  0
   -1.4468    0.8130    3.1404 C   0  0  0  0  0  0  0  0  0  0  0  0
   -0.8034    1.6941    3.0438 H   0  0  0  0  0  0  0  0  0  0  0  0
   -2.4129    1.1356    3.5396 H   0  0  0  0  0  0  0  0  0  0  0  0
   -0.9896    0.1187    3.8532 H   0  0  0  0  0  0  0  0  0  0  0  0
  1  2  1  0  0  0  0
  2  3  1  0  0  0  0
  2  4  1  0  0  0  0
  2  5  1  0  0  0  0
  5  6  2  0  0  0  0
  5  7  1  0  0  0  0
  7  8  1  0  0  0  0
  7  9  1  0  0  0  0
  9 10  1  0  0  0  0
  9 11  1  0  0  0  0
  9 29  1  0  0  0  0
 11 12  1  0  0  0  0
 11 13  1  0  0  0  0
 11 14  1  0  0  0  0
 14 15  2  0  0  0  0
 14 28  1  0  0  0  0
 15 16  1  0  0  0  0
 15 17  1  0  0  0  0
 17 18  1  0  0  0  0
 17 19  1  0  0  0  0
 19 20  1  0  0  0  0
 19 28  2  0  0  0  0
 20 21  1  0  0  0  0
 20 22  2  0  0  0  0
 22 23  1  0  0  0  0
 22 24  1  0  0  0  0
 24 25  1  0  0  0  0
 24 26  2  0  0  0  0
 26 27  1  0  0  0  0
 26 28  1  0  0  0  0
 29 30  2  0  0  0  0
 29 31  1  0  0  0  0
 31 32  1  0  0  0  0
 31 33  1  0  0  0  0
 33 34  1  0  0  0  0
 33 35  1  0  0  0  0
 33 36  1  0  0  0  0
M  END
$$$$

  -OEChem-03222214083D

 36 37  0     1  0  0  0  0  0999 V2000
   -3.1507   -4.8934    0.4097 H   0  0  0  0  0  0  0  0  0  0  0  0
   -3.2003   -3.9837   -0.1957 C   0  0  0  0  0  0  0  0  0  0  0  0
   -4.1703   -3.5077   -0.0352 H   0  0  0  0  0  0  0  0  0  0  0  0
   -3.1051   -4.2577   -1.2492 H   0  0  0  0  0  0  0  0  0  0  0  0
   -2.0828   -3.0355    0.1966 C   0  0  0  0  0  0  0  0  0  0  0  0
   -1.3081   -3.3431    1.0836 O   0  0  0  0  0  0  0  0  0  0  0  0
   -1.9593   -1.8175   -0.4413 N   0  0  0  0  0  0  0  0  0  0  0  0
   -2.5982   -1.6394   -1.2105 H   0  0  0  0  0  0  0  0  0  0  0  0
   -0.8228   -0.8934   -0.2562 C   0  0  1  0  0  0  0  0  0  0  0  0
    0.0532   -1.5329   -0.4160 H   0  0  0  0  0  0  0  0  0  0  0  0
   -0.7428    0.1230   -1.4224 C   0  0  0  0  0  0  0  0  0  0  0  0
    0.3165    0.1760   -1.6932 H   0  0  0  0  0  0  0  0  0  0  0  0
   -1.2696   -0.2724   -2.2962 H   0  0  0  0  0  0  0  0  0  0  0  0
   -1.1903    1.5527   -1.1995 C   0  0  0  0  0  0  0  0  0  0  0  0
   -2.1498    2.0559   -0.3502 C   0  0  0  0  0  0  0  0  0  0  0  0
   -2.7770    1.4783    0.3200 H   0  0  0  0  0  0  0  0  0  0  0  0
   -2.1961    3.4372   -0.5167 N   0  0  0  0  0  0  0  0  0  0  0  0
   -2.7934    4.0750    0.0046 H   0  0  0  0  0  0  0  0  0  0  0  0
   -1.2775    3.8370   -1.4701 C   0  0  0  0  0  0  0  0  0  0  0  0
   -0.9557    5.0969   -1.9746 C   0  0  0  0  0  0  0  0  0  0  0  0
   -1.4670    5.9798   -1.6079 H   0  0  0  0  0  0  0  0  0  0  0  0
    0.0357    5.2050   -2.9595 C   0  0  0  0  0  0  0  0  0  0  0  0
    0.2983    6.1791   -3.3613 H   0  0  0  0  0  0  0  0  0  0  0  0
    0.6910    4.0553   -3.4253 C   0  0  0  0  0  0  0  0  0  0  0  0
    1.4600    4.1413   -4.1869 H   0  0  0  0  0  0  0  0  0  0  0  0
    0.3602    2.7947   -2.9074 C   0  0  0  0  0  0  0  0  0  0  0  0
    0.8718    1.9072   -3.2642 H   0  0  0  0  0  0  0  0  0  0  0  0
   -0.6314    2.6931   -1.9239 C   0  0  0  0  0  0  0  0  0  0  0  0
   -0.5753   -0.3664    1.1780 C   0  0  0  0  0  0  0  0  0  0  0  0
    0.5709   -0.1310    1.5384 O   0  0  0  0  0  0  0  0  0  0  0  0
   -1.6225    0.0775    1.9672 N   0  0  0  0  0  0  0  0  0  0  0  0
   -2.5340   -0.3012    1.7339 H   0  0  0  0  0  0  0  0  0  0  0  0
   -1.4191    0.6201    3.3048 C   0  0  0  0  0  0  0  0  0  0  0  0
   -0.7949    1.5189    3.2612 H   0  0  0  0  0  0  0  0  0  0  0  0
   -2.3798    0.8898    3.7534 H   0  0  0  0  0  0  0  0  0  0  0  0
   -0.9296   -0.1184    3.9487 H   0  0  0  0  0  0  0  0  0  0  0  0
  1  2  1  0  0  0  0
  2  3  1  0  0  0  0
  2  4  1  0  0  0  0
  2  5  1  0  0  0  0
  5  6  2  0  0  0  0
  5  7  1  0  0  0  0
  7  8  1  0  0  0  0
  7  9  1  0  0  0  0
  9 10  1  0  0  0  0
  9 11  1  0  0  0  0
  9 29  1  0  0  0  0
 11 12  1  0  0  0  0
 11 13  1  0  0  0  0
 11 14  1  0  0  0  0
 14 15  2  0  0  0  0
 14 28  1  0  0  0  0
 15 16  1  0  0  0  0
 15 17  1  0  0  0  0
 17 18  1  0  0  0  0
 17 19  1  0  0  0  0
 19 20  1  0  0  0  0
 19 28  2  0  0  0  0
 20 21  1  0  0  0  0
 20 22  2  0  0  0  0
 22 23  1  0  0  0  0
 22 24  1  0  0  0  0
 24 25  1  0  0  0  0
 24 26  2  0  0  0  0
 26 27  1  0  0  0  0
 26 28  1  0  0  0  0
 29 30  2  0  0  0  0
 29 31  1  0  0  0  0
 31 32  1  0  0  0  0
 31 33  1  0  0  0  0
 33 34  1  0  0  0  0
 33 35  1  0  0  0  0
 33 36  1  0  0  0  0
M  END
$$$$

  -OEChem-03222214083D

 36 37  0     1  0  0  0  0  0999 V2000
   -3.1799   -4.8754    0.2577 H   0  0  0  0  0  0  0  0  0  0  0  0
   -3.2388   -3.9317   -0.2921 C   0  0  0  0  0  0  0  0  0  0  0  0
   -4.1928   -3.4507   -0.0632 H   0  0  0  0  0  0  0  0  0  0  0  0
   -3.1928   -4.1458   -1.3626 H   0  0  0  0  0  0  0  0  0  0  0  0
   -2.0900   -3.0243    0.1055 C   0  0  0  0  0  0  0  0  0  0  0  0
   -1.2818   -3.3944    0.9368 O   0  0  0  0  0  0  0  0  0  0  0  0
   -1.9805   -1.7688   -0.4574 N   0  0  0  0  0  0  0  0  0  0  0  0
   -2.6591   -1.5277   -1.1738 H   0  0  0  0  0  0  0  0  0  0  0  0
   -0.8467   -0.8493   -0.2386 C   0  0  1  0  0  0  0  0  0  0  0  0
    0.0291   -1.4785   -0.4374 H   0  0  0  0  0  0  0  0  0  0  0  0
   -0.7720    0.2126   -1.3658 C   0  0  0  0  0  0  0  0  0  0  0  0
    0.2869    0.2747   -1.6385 H   0  0  0  0  0  0  0  0  0  0  0  0
   -1.3004   -0.1638   -2.2469 H   0  0  0  0  0  0  0  0  0  0  0  0
   -1.2121    1.6458   -1.1359 C   0  0  0  0  0  0  0  0  0  0  0  0
   -1.9580    2.2371   -0.1396 C   0  0  0  0  0  0  0  0  0  0  0  0
   -2.4049    1.7468    0.7151 H   0  0  0  0  0  0  0  0  0  0  0  0
   -2.0721    3.5947   -0.4267 N   0  0  0  0  0  0  0  0  0  0  0  0
   -2.5455    4.2821    0.1556 H   0  0  0  0  0  0  0  0  0  0  0  0
   -1.4096    3.8957   -1.6015 C   0  0  0  0  0  0  0  0  0  0  0  0
   -1.2390    5.0968   -2.2898 C   0  0  0  0  0  0  0  0  0  0  0  0
   -1.6705    6.0139   -1.9045 H   0  0  0  0  0  0  0  0  0  0  0  0
   -0.5031    5.1009   -3.4826 C   0  0  0  0  0  0  0  0  0  0  0  0
   -0.3599    6.0289   -4.0282 H   0  0  0  0  0  0  0  0  0  0  0  0
    0.0507    3.9076   -3.9704 C   0  0  0  0  0  0  0  0  0  0  0  0
    0.6223    3.9135   -4.8935 H   0  0  0  0  0  0  0  0  0  0  0  0
   -0.1271    2.7072   -3.2672 C   0  0  0  0  0  0  0  0  0  0  0  0
    0.3048    1.7849   -3.6412 H   0  0  0  0  0  0  0  0  0  0  0  0
   -0.8628    2.7103   -2.0760 C   0  0  0  0  0  0  0  0  0  0  0  0
   -0.5857   -0.4148    1.2226 C   0  0  0  0  0  0  0  0  0  0  0  0
    0.5616   -0.1917    1.5861 O   0  0  0  0  0  0  0  0  0  0  0  0
   -1.6267   -0.0329    2.0512 N   0  0  0  0  0  0  0  0  0  0  0  0
   -2.5418   -0.3866    1.7918 H   0  0  0  0  0  0  0  0  0  0  0  0
   -1.4119    0.3887    3.4302 C   0  0  0  0  0  0  0  0  0  0  0  0
   -0.7702    1.2755    3.4636 H   0  0  0  0  0  0  0  0  0  0  0  0
   -2.3665    0.6377    3.9033 H   0  0  0  0  0  0  0  0  0  0  0  0
   -0.9363   -0.4123    4.0061 H   0  0  0  0  0  0  0  0  0  0  0  0
  1  2  1  0  0  0  0
  2  3  1  0  0  0  0
  2  4  1  0  0  0  0
  2  5  1  0  0  0  0
  5  6  2  0  0  0  0
  5  7  1  0  0  0  0
  7  8  1  0  0  0  0
  7  9  1  0  0  0  0
  9 10  1  0  0  0  0
  9 11  1  0  0  0  0
  9 29  1  0  0  0  0
 11 12  1  0  0  0  0
 11 13  1  0  0  0  0
 11 14  1  0  0  0  0
 14 15  2  0  0  0  0
 14 28  1  0  0  0  0
 15 16  1  0  0  0  0
 15 17  1  0  0  0  0
 17 18  1  0  0  0  0
 17 19  1  0  0  0  0
 19 20  1  0  0  0  0
 19 28  2  0  0  0  0
 20 21  1  0  0  0  0
 20 22  2  0  0  0  0
 22 23  1  0  0  0  0
 22 24  1  0  0  0  0
 24 25  1  0  0  0  0
 24 26  2  0  0  0  0
 26 27  1  0  0  0  0
 26 28  1  0  0  0  0
 29 30  2  0  0  0  0
 29 31  1  0  0  0  0
 31 32  1  0  0  0  0
 31 33  1  0  0  0  0
 33 34  1  0  0  0  0
 33 35  1  0  0  0  0
 33 36  1  0  0  0  0
M  END
$$$$

  -OEChem-03222214083D

 36 37  0     1  0  0  0  0  0999 V2000
   -3.2722   -4.7841    0.3170 H   0  0  0  0  0  0  0  0  0  0  0  0
   -3.3199   -3.8353   -0.2253 C   0  0  0  0  0  0  0  0  0  0  0  0
   -4.2376   -3.3146    0.0579 H   0  0  0  0  0  0  0  0  0  0  0  0
   -3.3426   -4.0446   -1.2976 H   0  0  0  0  0  0  0  0  0  0  0  0
   -2.1111   -2.9825    0.1104 C   0  0  0  0  0  0  0  0  0  0  0  0
   -1.2539   -3.4106    0.8608 O   0  0  0  0  0  0  0  0  0  0  0  0
   -1.9917   -1.7179   -0.4297 N   0  0  0  0  0  0  0  0  0  0  0  0
   -2.7230   -1.4204   -1.0688 H   0  0  0  0  0  0  0  0  0  0  0  0
   -0.8165   -0.8397   -0.2619 C   0  0  1  0  0  0  0  0  0  0  0  0
    0.0309   -1.4813   -0.5306 H   0  0  0  0  0  0  0  0  0  0  0  0
   -0.7982    0.2520   -1.3646 C   0  0  0  0  0  0  0  0  0  0  0  0
    0.2334    0.2889   -1.7307 H   0  0  0  0  0  0  0  0  0  0  0  0
   -1.4123   -0.0970   -2.2004 H   0  0  0  0  0  0  0  0  0  0  0  0
   -1.1735    1.6981   -1.0971 C   0  0  0  0  0  0  0  0  0  0  0  0
   -1.5807    2.3810    0.0293 C   0  0  0  0  0  0  0  0  0  0  0  0
   -1.6862    1.9898    1.0316 H   0  0  0  0  0  0  0  0  0  0  0  0
   -1.8272    3.7045   -0.3267 N   0  0  0  0  0  0  0  0  0  0  0  0
   -2.1037    4.4440    0.3156 H   0  0  0  0  0  0  0  0  0  0  0  0
   -1.5877    3.8946   -1.6737 C   0  0  0  0  0  0  0  0  0  0  0  0
   -1.6891    5.0248   -2.4849 C   0  0  0  0  0  0  0  0  0  0  0  0
   -2.0081    5.9719   -2.0645 H   0  0  0  0  0  0  0  0  0  0  0  0
   -1.3729    4.9180   -3.8462 C   0  0  0  0  0  0  0  0  0  0  0  0
   -1.4462    5.7897   -4.4899 H   0  0  0  0  0  0  0  0  0  0  0  0
   -0.9594    3.6865   -4.3766 C   0  0  0  0  0  0  0  0  0  0  0  0
   -0.7131    3.6067   -5.4311 H   0  0  0  0  0  0  0  0  0  0  0  0
   -0.8592    2.5589   -3.5484 C   0  0  0  0  0  0  0  0  0  0  0  0
   -0.5330    1.6085   -3.9574 H   0  0  0  0  0  0  0  0  0  0  0  0
   -1.1790    2.6720   -2.1896 C   0  0  0  0  0  0  0  0  0  0  0  0
   -0.4805   -0.4669    1.1999 C   0  0  0  0  0  0  0  0  0  0  0  0
    0.6847   -0.2787    1.5233 O   0  0  0  0  0  0  0  0  0  0  0  0
   -1.4794   -0.0864    2.0804 N   0  0  0  0  0  0  0  0  0  0  0  0
   -2.4186   -0.3772    1.8275 H   0  0  0  0  0  0  0  0  0  0  0  0
   -1.2071    0.2448    3.4744 C   0  0  0  0  0  0  0  0  0  0  0  0
   -0.5206    1.0958    3.5411 H   0  0  0  0  0  0  0  0  0  0  0  0
   -2.1355    0.5116    3.9880 H   0  0  0  0  0  0  0  0  0  0  0  0
   -0.7583   -0.6112    3.9897 H   0  0  0  0  0  0  0  0  0  0  0  0
  1  2  1  0  0  0  0
  2  3  1  0  0  0  0
  2  4  1  0  0  0  0
  2  5  1  0  0  0  0
  5  6  2  0  0  0  0
  5  7  1  0  0  0  0
  7  8  1  0  0  0  0
  7  9  1  0  0  0  0
  9 10  1  0  0  0  0
  9 11  1  0  0  0  0
  9 29  1  0  0  0  0
 11 12  1  0  0  0  0
 11 13  1  0  0  0  0
 11 14  1  0  0  0  0
 14 15  2  0  0  0  0
 14 28  1  0  0  0  0
 15 16  1  0  0  0  0
 15 17  1  0  0  0  0
 17 18  1  0  0  0  0
 17 19  1  0  0  0  0
 19 20  1  0  0  0  0
 19 28  2  0  0  0  0
 20 21  1  0  0  0  0
 20 22  2  0  0  0  0
 22 23  1  0  0  0  0
 22 24  1  0  0  0  0
 24 25  1  0  0  0  0
 24 26  2  0  0  0  0
 26 27  1  0  0  0  0
 26 28  1  0  0  0  0
 29 30  2  0  0  0  0
 29 31  1  0  0  0  0
 31 32  1  0  0  0  0
 31 33  1  0  0  0  0
 33 34  1  0  0  0  0
 33 35  1  0  0  0  0
 33 36  1  0  0  0  0
M  END
$$$$

  -OEChem-03222214083D

 36 37  0     1  0  0  0  0  0999 V2000
   -3.4526   -4.6653    0.4148 H   0  0  0  0  0  0  0  0  0  0  0  0
   -3.4409   -3.7375   -0.1646 C   0  0  0  0  0  0  0  0  0  0  0  0
   -4.3168   -3.1430    0.1059 H   0  0  0  0  0  0  0  0  0  0  0  0
   -3.4904   -3.9868   -1.2274 H   0  0  0  0  0  0  0  0  0  0  0  0
   -2.1718   -2.9587    0.1251 C   0  0  0  0  0  0  0  0  0  0  0  0
   -1.3316   -3.4219    0.8741 O   0  0  0  0  0  0  0  0  0  0  0  0
   -1.9756   -1.7242   -0.4605 N   0  0  0  0  0  0  0  0  0  0  0  0
   -2.7016   -1.3907   -1.0879 H   0  0  0  0  0  0  0  0  0  0  0  0
   -0.7620   -0.8979   -0.2978 C   0  0  1  0  0  0  0  0  0  0  0  0
    0.0740   -1.5621   -0.5454 H   0  0  0  0  0  0  0  0  0  0  0  0
   -0.7298    0.1953   -1.4019 C   0  0  0  0  0  0  0  0  0  0  0  0
    0.2875    0.1971   -1.8067 H   0  0  0  0  0  0  0  0  0  0  0  0
   -1.3838   -0.1347   -2.2146 H   0  0  0  0  0  0  0  0  0  0  0  0
   -1.0499    1.6539   -1.1201 C   0  0  0  0  0  0  0  0  0  0  0  0
   -1.1477    2.3860    0.0450 C   0  0  0  0  0  0  0  0  0  0  0  0
   -0.9229    2.0474    1.0497 H   0  0  0  0  0  0  0  0  0  0  0  0
   -1.5306    3.6832   -0.2829 N   0  0  0  0  0  0  0  0  0  0  0  0
   -1.6341    4.4491    0.3796 H   0  0  0  0  0  0  0  0  0  0  0  0
   -1.6837    3.8094   -1.6496 C   0  0  0  0  0  0  0  0  0  0  0  0
   -2.0447    4.8964   -2.4452 C   0  0  0  0  0  0  0  0  0  0  0  0
   -2.2670    5.8557   -1.9913 H   0  0  0  0  0  0  0  0  0  0  0  0
   -2.1144    4.7315   -3.8351 C   0  0  0  0  0  0  0  0  0  0  0  0
   -2.3933    5.5693   -4.4673 H   0  0  0  0  0  0  0  0  0  0  0  0
   -1.8187    3.4864   -4.4099 C   0  0  0  0  0  0  0  0  0  0  0  0
   -1.8674    3.3622   -5.4876 H   0  0  0  0  0  0  0  0  0  0  0  0
   -1.4544    2.4024   -3.5981 C   0  0  0  0  0  0  0  0  0  0  0  0
   -1.2174    1.4431   -4.0456 H   0  0  0  0  0  0  0  0  0  0  0  0
   -1.3920    2.5717   -2.2088 C   0  0  0  0  0  0  0  0  0  0  0  0
   -0.4812   -0.5063    1.1698 C   0  0  0  0  0  0  0  0  0  0  0  0
    0.6710   -0.3518    1.5518 O   0  0  0  0  0  0  0  0  0  0  0  0
   -1.5115   -0.0597    1.9815 N   0  0  0  0  0  0  0  0  0  0  0  0
   -2.4513   -0.2636    1.6569 H   0  0  0  0  0  0  0  0  0  0  0  0
   -1.3176    0.2990    3.3813 C   0  0  0  0  0  0  0  0  0  0  0  0
   -0.5880    1.1102    3.4744 H   0  0  0  0  0  0  0  0  0  0  0  0
   -2.2621    0.6357    3.8192 H   0  0  0  0  0  0  0  0  0  0  0  0
   -0.9584   -0.5650    3.9502 H   0  0  0  0  0  0  0  0  0  0  0  0
  1  2  1  0  0  0  0
  2  3  1  0  0  0  0
  2  4  1  0  0  0  0
  2  5  1  0  0  0  0
  5  6  2  0  0  0  0
  5  7  1  0  0  0  0
  7  8  1  0  0  0  0
  7  9  1  0  0  0  0
  9 10  1  0  0  0  0
  9 11  1  0  0  0  0
  9 29  1  0  0  0  0
 11 12  1  0  0  0  0
 11 13  1  0  0  0  0
 11 14  1  0  0  0  0
 14 15  2  0  0  0  0
 14 28  1  0  0  0  0
 15 16  1  0  0  0  0
 15 17  1  0  0  0  0
 17 18  1  0  0  0  0
 17 19  1  0  0  0  0
 19 20  1  0  0  0  0
 19 28  2  0  0  0  0
 20 21  1  0  0  0  0
 20 22  2  0  0  0  0
 22 23  1  0  0  0  0
 22 24  1  0  0  0  0
 24 25  1  0  0  0  0
 24 26  2  0  0  0  0
 26 27  1  0  0  0  0
 26 28  1  0  0  0  0
 29 30  2  0  0  0  0
 29 31  1  0  0  0  0
 31 32  1  0  0  0  0
 31 33  1  0  0  0  0
 33 34  1  0  0  0  0
 33 35  1  0  0  0  0
 33 36  1  0  0  0  0
M  END
$$$$

  -OEChem-03222214083D

 36 37  0     1  0  0  0  0  0999 V2000
   -3.5115   -4.5979    0.5421 H   0  0  0  0  0  0  0  0  0  0  0  0
   -3.4717   -3.6995   -0.0804 C   0  0  0  0  0  0  0  0  0  0  0  0
   -4.3216   -3.0604    0.1703 H   0  0  0  0  0  0  0  0  0  0  0  0
   -3.5430   -3.9958   -1.1297 H   0  0  0  0  0  0  0  0  0  0  0  0
   -2.1715   -2.9563    0.1607 C   0  0  0  0  0  0  0  0  0  0  0  0
   -1.3394   -3.4165    0.9206 O   0  0  0  0  0  0  0  0  0  0  0  0
   -1.9384   -1.7569   -0.4813 N   0  0  0  0  0  0  0  0  0  0  0  0
   -2.6698   -1.4123   -1.0964 H   0  0  0  0  0  0  0  0  0  0  0  0
   -0.7147   -0.9443   -0.3263 C   0  0  1  0  0  0  0  0  0  0  0  0
    0.1211   -1.6215   -0.5363 H   0  0  0  0  0  0  0  0  0  0  0  0
   -0.6771    0.1170   -1.4610 C   0  0  0  0  0  0  0  0  0  0  0  0
    0.3392    0.1110   -1.8679 H   0  0  0  0  0  0  0  0  0  0  0  0
   -1.3311   -0.2287   -2.2661 H   0  0  0  0  0  0  0  0  0  0  0  0
   -0.9963    1.5767   -1.1825 C   0  0  0  0  0  0  0  0  0  0  0  0
   -0.8228    2.3466   -0.0510 C   0  0  0  0  0  0  0  0  0  0  0  0
   -0.3334    2.0410    0.8703 H   0  0  0  0  0  0  0  0  0  0  0  0
   -1.3421    3.6133   -0.3005 N   0  0  0  0  0  0  0  0  0  0  0  0
   -1.3159    4.3958    0.3501 H   0  0  0  0  0  0  0  0  0  0  0  0
   -1.8516    3.6808   -1.5831 C   0  0  0  0  0  0  0  0  0  0  0  0
   -2.4627    4.7220   -2.2815 C   0  0  0  0  0  0  0  0  0  0  0  0
   -2.6074    5.6869   -1.8081 H   0  0  0  0  0  0  0  0  0  0  0  0
   -2.8832    4.5047   -3.6005 C   0  0  0  0  0  0  0  0  0  0  0  0
   -3.3600    5.3062   -4.1573 H   0  0  0  0  0  0  0  0  0  0  0  0
   -2.6836    3.2540   -4.2034 C   0  0  0  0  0  0  0  0  0  0  0  0
   -3.0051    3.0896   -5.2275 H   0  0  0  0  0  0  0  0  0  0  0  0
   -2.0654    2.2165   -3.4905 C   0  0  0  0  0  0  0  0  0  0  0  0
   -1.9043    1.2546   -3.9646 H   0  0  0  0  0  0  0  0  0  0  0  0
   -1.6531    2.4363   -2.1696 C   0  0  0  0  0  0  0  0  0  0  0  0
   -0.4651   -0.4825    1.1260 C   0  0  0  0  0  0  0  0  0  0  0  0
    0.6800   -0.3424    1.5356 O   0  0  0  0  0  0  0  0  0  0  0  0
   -1.5056    0.0255    1.8862 N   0  0  0  0  0  0  0  0  0  0  0  0
   -2.4420   -0.1209    1.5237 H   0  0  0  0  0  0  0  0  0  0  0  0
   -1.3446    0.4658    3.2661 C   0  0  0  0  0  0  0  0  0  0  0  0
   -0.6051    1.2709    3.3300 H   0  0  0  0  0  0  0  0  0  0  0  0
   -2.2953    0.8410    3.6562 H   0  0  0  0  0  0  0  0  0  0  0  0
   -1.0145   -0.3670    3.8960 H   0  0  0  0  0  0  0  0  0  0  0  0
  1  2  1  0  0  0  0
  2  3  1  0  0  0  0
  2  4  1  0  0  0  0
  2  5  1  0  0  0  0
  5  6  2  0  0  0  0
  5  7  1  0  0  0  0
  7  8  1  0  0  0  0
  7  9  1  0  0  0  0
  9 10  1  0  0  0  0
  9 11  1  0  0  0  0
  9 29  1  0  0  0  0
 11 12  1  0  0  0  0
 11 13  1  0  0  0  0
 11 14  1  0  0  0  0
 14 15  2  0  0  0  0
 14 28  1  0  0  0  0
 15 16  1  0  0  0  0
 15 17  1  0  0  0  0
 17 18  1  0  0  0  0
 17 19  1  0  0  0  0
 19 20  1  0  0  0  0
 19 28  2  0  0  0  0
 20 21  1  0  0  0  0
 20 22  2  0  0  0  0
 22 23  1  0  0  0  0
 22 24  1  0  0  0  0
 24 25  1  0  0  0  0
 24 26  2  0  0  0  0
 26 27  1  0  0  0  0
 26 28  1  0  0  0  0
 29 30  2  0  0  0  0
 29 31  1  0  0  0  0
 31 32  1  0  0  0  0
 31 33  1  0  0  0  0
 33 34  1  0  0  0  0
 33 35  1  0  0  0  0
 33 36  1  0  0  0  0
M  END
$$$$

  -OEChem-03222214083D

 36 37  0     1  0  0  0  0  0999 V2000
   -3.5366   -4.5606    0.6386 H   0  0  0  0  0  0  0  0  0  0  0  0
   -3.4827   -3.6855   -0.0156 C   0  0  0  0  0  0  0  0  0  0  0  0
   -4.3136   -3.0174    0.2231 H   0  0  0  0  0  0  0  0  0  0  0  0
   -3.5751   -4.0165   -1.0528 H   0  0  0  0  0  0  0  0  0  0  0  0
   -2.1617   -2.9669    0.1840 C   0  0  0  0  0  0  0  0  0  0  0  0
   -1.3348   -3.4185    0.9547 O   0  0  0  0  0  0  0  0  0  0  0  0
   -1.9004   -1.8039   -0.5119 N   0  0  0  0  0  0  0  0  0  0  0  0
   -2.6383   -1.4504   -1.1135 H   0  0  0  0  0  0  0  0  0  0  0  0
   -0.6771   -0.9924   -0.3540 C   0  0  1  0  0  0  0  0  0  0  0  0
    0.1655   -1.6744   -0.5160 H   0  0  0  0  0  0  0  0  0  0  0  0
   -0.6250    0.0325   -1.5196 C   0  0  0  0  0  0  0  0  0  0  0  0
    0.4004    0.0285   -1.9031 H   0  0  0  0  0  0  0  0  0  0  0  0
   -1.2548   -0.3291   -2.3368 H   0  0  0  0  0  0  0  0  0  0  0  0
   -0.9585    1.4867   -1.2411 C   0  0  0  0  0  0  0  0  0  0  0  0
   -0.5429    2.2955   -0.2048 C   0  0  0  0  0  0  0  0  0  0  0  0
    0.1647    2.0204    0.5758 H   0  0  0  0  0  0  0  0  0  0  0  0
   -1.1695    3.5302   -0.3399 N   0  0  0  0  0  0  0  0  0  0  0  0
   -1.0293    4.3288    0.2757 H   0  0  0  0  0  0  0  0  0  0  0  0
   -1.9926    3.5323   -1.4507 C   0  0  0  0  0  0  0  0  0  0  0  0
   -2.8162    4.5223   -1.9858 C   0  0  0  0  0  0  0  0  0  0  0  0
   -2.8819    5.4947   -1.5102 H   0  0  0  0  0  0  0  0  0  0  0  0
   -3.5543    4.2435   -3.1437 C   0  0  0  0  0  0  0  0  0  0  0  0
   -4.2003    5.0047   -3.5714 H   0  0  0  0  0  0  0  0  0  0  0  0
   -3.4556    2.9838   -3.7527 C   0  0  0  0  0  0  0  0  0  0  0  0
   -4.0242    2.7727   -4.6535 H   0  0  0  0  0  0  0  0  0  0  0  0
   -2.6217    1.9978   -3.2057 C   0  0  0  0  0  0  0  0  0  0  0  0
   -2.5437    1.0286   -3.6855 H   0  0  0  0  0  0  0  0  0  0  0  0
   -1.8901    2.2790   -2.0446 C   0  0  0  0  0  0  0  0  0  0  0  0
   -0.4723   -0.4555    1.0806 C   0  0  0  0  0  0  0  0  0  0  0  0
    0.6601   -0.3203    1.5274 O   0  0  0  0  0  0  0  0  0  0  0  0
   -1.5307    0.1013    1.7785 N   0  0  0  0  0  0  0  0  0  0  0  0
   -2.4464    0.0491    1.3446 H   0  0  0  0  0  0  0  0  0  0  0  0
   -1.4024    0.6993    3.1007 C   0  0  0  0  0  0  0  0  0  0  0  0
   -0.7307    1.5631    3.0682 H   0  0  0  0  0  0  0  0  0  0  0  0
   -2.3799    1.0345    3.4601 H   0  0  0  0  0  0  0  0  0  0  0  0
   -1.0045   -0.0312    3.8128 H   0  0  0  0  0  0  0  0  0  0  0  0
  1  2  1  0  0  0  0
  2  3  1  0  0  0  0
  2  4  1  0  0  0  0
  2  5  1  0  0  0  0
  5  6  2  0  0  0  0
  5  7  1  0  0  0  0
  7  8  1  0  0  0  0
  7  9  1  0  0  0  0
  9 10  1  0  0  0  0
  9 11  1  0  0  0  0
  9 29  1  0  0  0  0
 11 12  1  0  0  0  0
 11 13  1  0  0  0  0
 11 14  1  0  0  0  0
 14 15  2  0  0  0  0
 14 28  1  0  0  0  0
 15 16  1  0  0  0  0
 15 17  1  0  0  0  0
 17 18  1  0  0  0  0
 17 19  1  0  0  0  0
 19 20  1  0  0  0  0
 19 28  2  0  0  0  0
 20 21  1  0  0  0  0
 20 22  2  0  0  0  0
 22 23  1  0  0  0  0
 22 24  1  0  0  0  0
 24 25  1  0  0  0  0
 24 26  2  0  0  0  0
 26 27  1  0  0  0  0
 26 28  1  0  0  0  0
 29 30  2  0  0  0  0
 29 31  1  0  0  0  0
 31 32  1  0  0  0  0
 31 33  1  0  0  0  0
 33 34  1  0  0  0  0
 33 35  1  0  0  0  0
 33 36  1  0  0  0  0
M  END
$$$$

  -OEChem-03222214083D

 36 37  0     1  0  0  0  0  0999 V2000
   -3.5528   -4.5299    0.7213 H   0  0  0  0  0  0  0  0  0  0  0  0
   -3.4851   -3.6844    0.0307 C   0  0  0  0  0  0  0  0  0  0  0  0
   -4.3036   -2.9926    0.2422 H   0  0  0  0  0  0  0  0  0  0  0  0
   -3.5846   -4.0571   -0.9917 H   0  0  0  0  0  0  0  0  0  0  0  0
   -2.1517   -2.9805    0.1985 C   0  0  0  0  0  0  0  0  0  0  0  0
   -1.3273   -3.4171    0.9810 O   0  0  0  0  0  0  0  0  0  0  0  0
   -1.8761   -1.8489   -0.5421 N   0  0  0  0  0  0  0  0  0  0  0  0
   -2.6181   -1.4978   -1.1394 H   0  0  0  0  0  0  0  0  0  0  0  0
   -0.6619   -1.0264   -0.3784 C   0  0  1  0  0  0  0  0  0  0  0  0
    0.1899   -1.7060   -0.4948 H   0  0  0  0  0  0  0  0  0  0  0  0
   -0.5897   -0.0327   -1.5664 C   0  0  0  0  0  0  0  0  0  0  0  0
    0.4473   -0.0263   -1.9169 H   0  0  0  0  0  0  0  0  0  0  0  0
   -1.1911   -0.4021   -2.4017 H   0  0  0  0  0  0  0  0  0  0  0  0
   -0.9479    1.4083   -1.2756 C   0  0  0  0  0  0  0  0  0  0  0  0
   -0.3344    2.2638   -0.3875 C   0  0  0  0  0  0  0  0  0  0  0  0
    0.5427    2.0284    0.2154 H   0  0  0  0  0  0  0  0  0  0  0  0
   -1.0423    3.4621   -0.3904 N   0  0  0  0  0  0  0  0  0  0  0  0
   -0.8068    4.2822    0.1649 H   0  0  0  0  0  0  0  0  0  0  0  0
   -2.1131    3.3875   -1.2639 C   0  0  0  0  0  0  0  0  0  0  0  0
   -3.1011    4.3139   -1.5974 C   0  0  0  0  0  0  0  0  0  0  0  0
   -3.1061    5.2965   -1.1385 H   0  0  0  0  0  0  0  0  0  0  0  0
   -4.0835    3.9583   -2.5317 C   0  0  0  0  0  0  0  0  0  0  0  0
   -4.8581    4.6703   -2.8013 H   0  0  0  0  0  0  0  0  0  0  0  0
   -4.0636    2.6857   -3.1222 C   0  0  0  0  0  0  0  0  0  0  0  0
   -4.8224    2.4163   -3.8507 H   0  0  0  0  0  0  0  0  0  0  0  0
   -3.0643    1.7633   -2.7799 C   0  0  0  0  0  0  0  0  0  0  0  0
   -3.0466    0.7838   -3.2447 H   0  0  0  0  0  0  0  0  0  0  0  0
   -2.0891    2.1225   -1.8417 C   0  0  0  0  0  0  0  0  0  0  0  0
   -0.4973   -0.4203    1.0353 C   0  0  0  0  0  0  0  0  0  0  0  0
    0.6235   -0.2703    1.5074 O   0  0  0  0  0  0  0  0  0  0  0  0
   -1.5744    0.1682    1.6764 N   0  0  0  0  0  0  0  0  0  0  0  0
   -2.4490    0.2002    1.1629 H   0  0  0  0  0  0  0  0  0  0  0  0
   -1.4583    0.9198    2.9187 C   0  0  0  0  0  0  0  0  0  0  0  0
   -0.8348    1.8078    2.7721 H   0  0  0  0  0  0  0  0  0  0  0  0
   -2.4471    1.2422    3.2586 H   0  0  0  0  0  0  0  0  0  0  0  0
   -1.0107    0.2985    3.7016 H   0  0  0  0  0  0  0  0  0  0  0  0
  1  2  1  0  0  0  0
  2  3  1  0  0  0  0
  2  4  1  0  0  0  0
  2  5  1  0  0  0  0
  5  6  2  0  0  0  0
  5  7  1  0  0  0  0
  7  8  1  0  0  0  0
  7  9  1  0  0  0  0
  9 10  1  0  0  0  0
  9 11  1  0  0  0  0
  9 29  1  0  0  0  0
 11 12  1  0  0  0  0
 11 13  1  0  0  0  0
 11 14  1  0  0  0  0
 14 15  2  0  0  0  0
 14 28  1  0  0  0  0
 15 16  1  0  0  0  0
 15 17  1  0  0  0  0
 17 18  1  0  0  0  0
 17 19  1  0  0  0  0
 19 20  1  0  0  0  0
 19 28  2  0  0  0  0
 20 21  1  0  0  0  0
 20 22  2  0  0  0  0
 22 23  1  0  0  0  0
 22 24  1  0  0  0  0
 24 25  1  0  0  0  0
 24 26  2  0  0  0  0
 26 27  1  0  0  0  0
 26 28  1  0  0  0  0
 29 30  2  0  0  0  0
 29 31  1  0  0  0  0
 31 32  1  0  0  0  0
 31 33  1  0  0  0  0
 33 34  1  0  0  0  0
 33 35  1  0  0  0  0
 33 36  1  0  0  0  0
M  END
$$$$

  -OEChem-03222214083D

 36 37  0     1  0  0  0  0  0999 V2000
   -3.5448   -4.5286    0.7805 H   0  0  0  0  0  0  0  0  0  0  0  0
   -3.4761   -3.7052    0.0637 C   0  0  0  0  0  0  0  0  0  0  0  0
   -4.2965   -3.0081    0.2505 H   0  0  0  0  0  0  0  0  0  0  0  0
   -3.5713   -4.1095   -0.9469 H   0  0  0  0  0  0  0  0  0  0  0  0
   -2.1443   -2.9942    0.2138 C   0  0  0  0  0  0  0  0  0  0  0  0
   -1.3174   -3.4120    1.0040 O   0  0  0  0  0  0  0  0  0  0  0  0
   -1.8714   -1.8811   -0.5551 N   0  0  0  0  0  0  0  0  0  0  0  0
   -2.6214   -1.5371   -1.1456 H   0  0  0  0  0  0  0  0  0  0  0  0
   -0.6687   -1.0427   -0.3929 C   0  0  1  0  0  0  0  0  0  0  0  0
    0.1897   -1.7180   -0.4851 H   0  0  0  0  0  0  0  0  0  0  0  0
   -0.5871   -0.0664   -1.5905 C   0  0  0  0  0  0  0  0  0  0  0  0
    0.4554   -0.0490   -1.9245 H   0  0  0  0  0  0  0  0  0  0  0  0
   -1.1773   -0.4350   -2.4346 H   0  0  0  0  0  0  0  0  0  0  0  0
   -0.9707    1.3582   -1.2746 C   0  0  0  0  0  0  0  0  0  0  0  0
   -0.2135    2.2776   -0.5862 C   0  0  0  0  0  0  0  0  0  0  0  0
    0.7852    2.1011   -0.1873 H   0  0  0  0  0  0  0  0  0  0  0  0
   -0.9693    3.4410   -0.4669 N   0  0  0  0  0  0  0  0  0  0  0  0
   -0.6614    4.2931   -0.0021 H   0  0  0  0  0  0  0  0  0  0  0  0
   -2.2078    3.2761   -1.0649 C   0  0  0  0  0  0  0  0  0  0  0  0
   -3.2959    4.1382   -1.1973 C   0  0  0  0  0  0  0  0  0  0  0  0
   -3.2506    5.1418   -0.7886 H   0  0  0  0  0  0  0  0  0  0  0  0
   -4.4434    3.6923   -1.8680 C   0  0  0  0  0  0  0  0  0  0  0  0
   -5.2958    4.3559   -1.9823 H   0  0  0  0  0  0  0  0  0  0  0  0
   -4.4895    2.3933   -2.3967 C   0  0  0  0  0  0  0  0  0  0  0  0
   -5.3785    2.0552   -2.9208 H   0  0  0  0  0  0  0  0  0  0  0  0
   -3.3897    1.5348   -2.2570 C   0  0  0  0  0  0  0  0  0  0  0  0
   -3.4218    0.5348   -2.6748 H   0  0  0  0  0  0  0  0  0  0  0  0
   -2.2485    1.9870   -1.5850 C   0  0  0  0  0  0  0  0  0  0  0  0
   -0.5154   -0.3870    1.0006 C   0  0  0  0  0  0  0  0  0  0  0  0
    0.6037   -0.2160    1.4702 O   0  0  0  0  0  0  0  0  0  0  0  0
   -1.6001    0.2174    1.6133 N   0  0  0  0  0  0  0  0  0  0  0  0
   -2.4516    0.2709    1.0638 H   0  0  0  0  0  0  0  0  0  0  0  0
   -1.4766    1.0669    2.7898 C   0  0  0  0  0  0  0  0  0  0  0  0
   -0.8489    1.9368    2.5705 H   0  0  0  0  0  0  0  0  0  0  0  0
   -2.4629    1.4211    3.1040 H   0  0  0  0  0  0  0  0  0  0  0  0
   -1.0302    0.5085    3.6195 H   0  0  0  0  0  0  0  0  0  0  0  0
  1  2  1  0  0  0  0
  2  3  1  0  0  0  0
  2  4  1  0  0  0  0
  2  5  1  0  0  0  0
  5  6  2  0  0  0  0
  5  7  1  0  0  0  0
  7  8  1  0  0  0  0
  7  9  1  0  0  0  0
  9 10  1  0  0  0  0
  9 11  1  0  0  0  0
  9 29  1  0  0  0  0
 11 12  1  0  0  0  0
 11 13  1  0  0  0  0
 11 14  1  0  0  0  0
 14 15  2  0  0  0  0
 14 28  1  0  0  0  0
 15 16  1  0  0  0  0
 15 17  1  0  0  0  0
 17 18  1  0  0  0  0
 17 19  1  0  0  0  0
 19 20  1  0  0  0  0
 19 28  2  0  0  0  0
 20 21  1  0  0  0  0
 20 22  2  0  0  0  0
 22 23  1  0  0  0  0
 22 24  1  0  0  0  0
 24 25  1  0  0  0  0
 24 26  2  0  0  0  0
 26 27  1  0  0  0  0
 26 28  1  0  0  0  0
 29 30  2  0  0  0  0
 29 31  1  0  0  0  0
 31 32  1  0  0  0  0
 31 33  1  0  0  0  0
 33 34  1  0  0  0  0
 33 35  1  0  0  0  0
 33 36  1  0  0  0  0
M  END
$$$$

  -OEChem-03222214083D

 36 37  0     1  0  0  0  0  0999 V2000
   -3.5310   -4.5502    0.7979 H   0  0  0  0  0  0  0  0  0  0  0  0
   -3.4754   -3.7183    0.0899 C   0  0  0  0  0  0  0  0  0  0  0  0
   -4.2995   -3.0304    0.2924 H   0  0  0  0  0  0  0  0  0  0  0  0
   -3.5769   -4.1127   -0.9240 H   0  0  0  0  0  0  0  0  0  0  0  0
   -2.1484   -2.9977    0.2366 C   0  0  0  0  0  0  0  0  0  0  0  0
   -1.3265   -3.3955    1.0420 O   0  0  0  0  0  0  0  0  0  0  0  0
   -1.8750   -1.8985   -0.5521 N   0  0  0  0  0  0  0  0  0  0  0  0
   -2.6152   -1.5800   -1.1674 H   0  0  0  0  0  0  0  0  0  0  0  0
   -0.6793   -1.0493   -0.3940 C   0  0  1  0  0  0  0  0  0  0  0  0
    0.1831   -1.7219   -0.4663 H   0  0  0  0  0  0  0  0  0  0  0  0
   -0.5840   -0.0876   -1.6017 C   0  0  0  0  0  0  0  0  0  0  0  0
    0.4616   -0.0699   -1.9264 H   0  0  0  0  0  0  0  0  0  0  0  0
   -1.1707   -0.4570   -2.4483 H   0  0  0  0  0  0  0  0  0  0  0  0
   -0.9818    1.3293   -1.2770 C   0  0  0  0  0  0  0  0  0  0  0  0
   -0.1432    2.3241   -0.8342 C   0  0  0  0  0  0  0  0  0  0  0  0
    0.9282    2.2206   -0.6697 H   0  0  0  0  0  0  0  0  0  0  0  0
   -0.9227    3.4536   -0.5968 N   0  0  0  0  0  0  0  0  0  0  0  0
   -0.5723    4.3422   -0.2441 H   0  0  0  0  0  0  0  0  0  0  0  0
   -2.2535    3.1917   -0.8785 C   0  0  0  0  0  0  0  0  0  0  0  0
   -3.3951    3.9872   -0.7863 C   0  0  0  0  0  0  0  0  0  0  0  0
   -3.3195    5.0126   -0.4407 H   0  0  0  0  0  0  0  0  0  0  0  0
   -4.6367    3.4444   -1.1458 C   0  0  0  0  0  0  0  0  0  0  0  0
   -5.5333    4.0541   -1.0800 H   0  0  0  0  0  0  0  0  0  0  0  0
   -4.7215    2.1174   -1.5948 C   0  0  0  0  0  0  0  0  0  0  0  0
   -5.6851    1.7048   -1.8788 H   0  0  0  0  0  0  0  0  0  0  0  0
   -3.5668    1.3270   -1.6832 C   0  0  0  0  0  0  0  0  0  0  0  0
   -3.6296    0.3058   -2.0409 H   0  0  0  0  0  0  0  0  0  0  0  0
   -2.3329    1.8743   -1.3161 C   0  0  0  0  0  0  0  0  0  0  0  0
   -0.5349   -0.3595    0.9856 C   0  0  0  0  0  0  0  0  0  0  0  0
    0.5819   -0.1906    1.4615 O   0  0  0  0  0  0  0  0  0  0  0  0
   -1.6231    0.2563    1.5813 N   0  0  0  0  0  0  0  0  0  0  0  0
   -2.4541    0.3343    1.0036 H   0  0  0  0  0  0  0  0  0  0  0  0
   -1.4919    1.1574    2.7177 C   0  0  0  0  0  0  0  0  0  0  0  0
   -0.9209    2.0480    2.4348 H   0  0  0  0  0  0  0  0  0  0  0  0
   -2.4806    1.4730    3.0638 H   0  0  0  0  0  0  0  0  0  0  0  0
   -0.9806    0.6573    3.5470 H   0  0  0  0  0  0  0  0  0  0  0  0
  1  2  1  0  0  0  0
  2  3  1  0  0  0  0
  2  4  1  0  0  0  0
  2  5  1  0  0  0  0
  5  6  2  0  0  0  0
  5  7  1  0  0  0  0
  7  8  1  0  0  0  0
  7  9  1  0  0  0  0
  9 10  1  0  0  0  0
  9 11  1  0  0  0  0
  9 29  1  0  0  0  0
 11 12  1  0  0  0  0
 11 13  1  0  0  0  0
 11 14  1  0  0  0  0
 14 15  2  0  0  0  0
 14 28  1  0  0  0  0
 15 16  1  0  0  0  0
 15 17  1  0  0  0  0
 17 18  1  0  0  0  0
 17 19  1  0  0  0  0
 19 20  1  0  0  0  0
 19 28  2  0  0  0  0
 20 21  1  0  0  0  0
 20 22  2  0  0  0  0
 22 23  1  0  0  0  0
 22 24  1  0  0  0  0
 24 25  1  0  0  0  0
 24 26  2  0  0  0  0
 26 27  1  0  0  0  0
 26 28  1  0  0  0  0
 29 30  2  0  0  0  0
 29 31  1  0  0  0  0
 31 32  1  0  0  0  0
 31 33  1  0  0  0  0
 33 34  1  0  0  0  0
 33 35  1  0  0  0  0
 33 36  1  0  0  0  0
M  END
$$$$

  -OEChem-03222214083D

 36 37  0     1  0  0  0  0  0999 V2000
   -3.4945   -4.6189    0.7927 H   0  0  0  0  0  0  0  0  0  0  0  0
   -3.4419   -3.7911    0.0794 C   0  0  0  0  0  0  0  0  0  0  0  0
   -4.3039   -3.1382    0.2357 H   0  0  0  0  0  0  0  0  0  0  0  0
   -3.4775   -4.1975   -0.9343 H   0  0  0  0  0  0  0  0  0  0  0  0
   -2.1562   -3.0117    0.2805 C   0  0  0  0  0  0  0  0  0  0  0  0
   -1.3541   -3.3686    1.1239 O   0  0  0  0  0  0  0  0  0  0  0  0
   -1.8989   -1.9059   -0.5037 N   0  0  0  0  0  0  0  0  0  0  0  0
   -2.5916   -1.6630   -1.2028 H   0  0  0  0  0  0  0  0  0  0  0  0
   -0.7041   -1.0522   -0.3671 C   0  0  1  0  0  0  0  0  0  0  0  0
    0.1554   -1.7257   -0.4600 H   0  0  0  0  0  0  0  0  0  0  0  0
   -0.6298   -0.0883   -1.5748 C   0  0  0  0  0  0  0  0  0  0  0  0
    0.4082   -0.0730   -1.9230 H   0  0  0  0  0  0  0  0  0  0  0  0
   -1.2385   -0.4560   -2.4066 H   0  0  0  0  0  0  0  0  0  0  0  0
   -1.0265    1.3282   -1.2435 C   0  0  0  0  0  0  0  0  0  0  0  0
   -0.1725    2.3933   -1.0924 C   0  0  0  0  0  0  0  0  0  0  0  0
    0.9116    2.3513   -1.1779 H   0  0  0  0  0  0  0  0  0  0  0  0
   -0.9447    3.5091   -0.7780 N   0  0  0  0  0  0  0  0  0  0  0  0
   -0.5774    4.4386   -0.5836 H   0  0  0  0  0  0  0  0  0  0  0  0
   -2.2884    3.1737   -0.7387 C   0  0  0  0  0  0  0  0  0  0  0  0
   -3.4278    3.9316   -0.4687 C   0  0  0  0  0  0  0  0  0  0  0  0
   -3.3394    4.9868   -0.2347 H   0  0  0  0  0  0  0  0  0  0  0  0
   -4.6854    3.3133   -0.5074 C   0  0  0  0  0  0  0  0  0  0  0  0
   -5.5808    3.8929   -0.3019 H   0  0  0  0  0  0  0  0  0  0  0  0
   -4.7893    1.9491   -0.8175 C   0  0  0  0  0  0  0  0  0  0  0  0
   -5.7666    1.4770   -0.8543 H   0  0  0  0  0  0  0  0  0  0  0  0
   -3.6372    1.1972   -1.0864 C   0  0  0  0  0  0  0  0  0  0  0  0
   -3.7196    0.1462   -1.3349 H   0  0  0  0  0  0  0  0  0  0  0  0
   -2.3849    1.8195   -1.0382 C   0  0  0  0  0  0  0  0  0  0  0  0
   -0.5158   -0.3617    1.0071 C   0  0  0  0  0  0  0  0  0  0  0  0
    0.6162   -0.2128    1.4529 O   0  0  0  0  0  0  0  0  0  0  0  0
   -1.5782    0.2562    1.6445 N   0  0  0  0  0  0  0  0  0  0  0  0
   -2.4268    0.3480    1.0945 H   0  0  0  0  0  0  0  0  0  0  0  0
   -1.3979    1.1488    2.7807 C   0  0  0  0  0  0  0  0  0  0  0  0
   -0.7724    2.0025    2.5002 H   0  0  0  0  0  0  0  0  0  0  0  0
   -2.3668    1.5251    3.1221 H   0  0  0  0  0  0  0  0  0  0  0  0
   -0.9210    0.6183    3.6115 H   0  0  0  0  0  0  0  0  0  0  0  0
  1  2  1  0  0  0  0
  2  3  1  0  0  0  0
  2  4  1  0  0  0  0
  2  5  1  0  0  0  0
  5  6  2  0  0  0  0
  5  7  1  0  0  0  0
  7  8  1  0  0  0  0
  7  9  1  0  0  0  0
  9 10  1  0  0  0  0
  9 11  1  0  0  0  0
  9 29  1  0  0  0  0
 11 12  1  0  0  0  0
 11 13  1  0  0  0  0
 11 14  1  0  0  0  0
 14 15  2  0  0  0  0
 14 28  1  0  0  0  0
 15 16  1  0  0  0  0
 15 17  1  0  0  0  0
 17 18  1  0  0  0  0
 17 19  1  0  0  0  0
 19 20  1  0  0  0  0
 19 28  2  0  0  0  0
 20 21  1  0  0  0  0
 20 22  2  0  0  0  0
 22 23  1  0  0  0  0
 22 24  1  0  0  0  0
 24 25  1  0  0  0  0
 24 26  2  0  0  0  0
 26 27  1  0  0  0  0
 26 28  1  0  0  0  0
 29 30  2  0  0  0  0
 29 31  1  0  0  0  0
 31 32  1  0  0  0  0
 31 33  1  0  0  0  0
 33 34  1  0  0  0  0
 33 35  1  0  0  0  0
 33 36  1  0  0  0  0
M  END
$$$$

  -OEChem-03222214083D

 36 37  0     1  0  0  0  0  0999 V2000
   -3.4100   -4.7192    0.7715 H   0  0  0  0  0  0  0  0  0  0  0  0
   -3.3866   -3.8748    0.0768 C   0  0  0  0  0  0  0  0  0  0  0  0
   -4.2706   -3.2560    0.2476 H   0  0  0  0  0  0  0  0  0  0  0  0
   -3.4099   -4.2598   -0.9454 H   0  0  0  0  0  0  0  0  0  0  0  0
   -2.1281   -3.0560    0.2946 C   0  0  0  0  0  0  0  0  0  0  0  0
   -1.3077   -3.4125    1.1198 O   0  0  0  0  0  0  0  0  0  0  0  0
   -1.9128   -1.9190   -0.4572 N   0  0  0  0  0  0  0  0  0  0  0  0
   -2.6011   -1.6975   -1.1684 H   0  0  0  0  0  0  0  0  0  0  0  0
   -0.7213   -1.0576   -0.3368 C   0  0  1  0  0  0  0  0  0  0  0  0
    0.1335   -1.7289   -0.4778 H   0  0  0  0  0  0  0  0  0  0  0  0
   -0.6771   -0.0710   -1.5271 C   0  0  0  0  0  0  0  0  0  0  0  0
    0.3499   -0.0531   -1.9068 H   0  0  0  0  0  0  0  0  0  0  0  0
   -1.3103   -0.4316   -2.3433 H   0  0  0  0  0  0  0  0  0  0  0  0
   -1.0709    1.3456   -1.1853 C   0  0  0  0  0  0  0  0  0  0  0  0
   -0.2649    2.4489   -1.3295 C   0  0  0  0  0  0  0  0  0  0  0  0
    0.7738    2.4343   -1.6534 H   0  0  0  0  0  0  0  0  0  0  0  0
   -1.0098    3.5682   -0.9684 N   0  0  0  0  0  0  0  0  0  0  0  0
   -0.6610    4.5246   -0.9520 H   0  0  0  0  0  0  0  0  0  0  0  0
   -2.3003    3.2000   -0.6294 C   0  0  0  0  0  0  0  0  0  0  0  0
   -3.3967    3.9577   -0.2196 C   0  0  0  0  0  0  0  0  0  0  0  0
   -3.3076    5.0331   -0.1114 H   0  0  0  0  0  0  0  0  0  0  0  0
   -4.6124    3.3129    0.0449 C   0  0  0  0  0  0  0  0  0  0  0  0
   -5.4738    3.8916    0.3655 H   0  0  0  0  0  0  0  0  0  0  0  0
   -4.7192    1.9233   -0.1126 C   0  0  0  0  0  0  0  0  0  0  0  0
   -5.6664    1.4301    0.0849 H   0  0  0  0  0  0  0  0  0  0  0  0
   -3.6100    1.1731   -0.5272 C   0  0  0  0  0  0  0  0  0  0  0  0
   -3.7011    0.1018   -0.6544 H   0  0  0  0  0  0  0  0  0  0  0  0
   -2.3917    1.8195   -0.7722 C   0  0  0  0  0  0  0  0  0  0  0  0
   -0.4642   -0.4055    1.0457 C   0  0  0  0  0  0  0  0  0  0  0  0
    0.6890   -0.2841    1.4425 O   0  0  0  0  0  0  0  0  0  0  0  0
   -1.4870    0.1893    1.7639 N   0  0  0  0  0  0  0  0  0  0  0  0
   -2.3651    0.3023    1.2677 H   0  0  0  0  0  0  0  0  0  0  0  0
   -1.2437    1.0354    2.9240 C   0  0  0  0  0  0  0  0  0  0  0  0
   -0.6312    1.8995    2.6454 H   0  0  0  0  0  0  0  0  0  0  0  0
   -2.1924    1.3993    3.3299 H   0  0  0  0  0  0  0  0  0  0  0  0
   -0.7261    0.4720    3.7077 H   0  0  0  0  0  0  0  0  0  0  0  0
  1  2  1  0  0  0  0
  2  3  1  0  0  0  0
  2  4  1  0  0  0  0
  2  5  1  0  0  0  0
  5  6  2  0  0  0  0
  5  7  1  0  0  0  0
  7  8  1  0  0  0  0
  7  9  1  0  0  0  0
  9 10  1  0  0  0  0
  9 11  1  0  0  0  0
  9 29  1  0  0  0  0
 11 12  1  0  0  0  0
 11 13  1  0  0  0  0
 11 14  1  0  0  0  0
 14 15  2  0  0  0  0
 14 28  1  0  0  0  0
 15 16  1  0  0  0  0
 15 17  1  0  0  0  0
 17 18  1  0  0  0  0
 17 19  1  0  0  0  0
 19 20  1  0  0  0  0
 19 28  2  0  0  0  0
 20 21  1  0  0  0  0
 20 22  2  0  0  0  0
 22 23  1  0  0  0  0
 22 24  1  0  0  0  0
 24 25  1  0  0  0  0
 24 26  2  0  0  0  0
 26 27  1  0  0  0  0
 26 28  1  0  0  0  0
 29 30  2  0  0  0  0
 29 31  1  0  0  0  0
 31 32  1  0  0  0  0
 31 33  1  0  0  0  0
 33 34  1  0  0  0  0
 33 35  1  0  0  0  0
 33 36  1  0  0  0  0
M  END
$$$$

  -OEChem-03222214083D

 36 37  0     1  0  0  0  0  0999 V2000
   -3.2868   -4.8117    0.7751 H   0  0  0  0  0  0  0  0  0  0  0  0
   -3.3107   -3.9444    0.1089 C   0  0  0  0  0  0  0  0  0  0  0  0
   -4.2047   -3.3566    0.3298 H   0  0  0  0  0  0  0  0  0  0  0  0
   -3.3581   -4.2964   -0.9246 H   0  0  0  0  0  0  0  0  0  0  0  0
   -2.0692   -3.0969    0.3122 C   0  0  0  0  0  0  0  0  0  0  0  0
   -1.2047   -3.4620    1.0872 O   0  0  0  0  0  0  0  0  0  0  0  0
   -1.9229   -1.9205   -0.3942 N   0  0  0  0  0  0  0  0  0  0  0  0
   -2.6426   -1.6984   -1.0744 H   0  0  0  0  0  0  0  0  0  0  0  0
   -0.7340   -1.0508   -0.3215 C   0  0  1  0  0  0  0  0  0  0  0  0
    0.1031   -1.7239   -0.5408 H   0  0  0  0  0  0  0  0  0  0  0  0
   -0.7441   -0.0407   -1.4923 C   0  0  0  0  0  0  0  0  0  0  0  0
    0.2624   -0.0177   -1.9229 H   0  0  0  0  0  0  0  0  0  0  0  0
   -1.4175   -0.3937   -2.2794 H   0  0  0  0  0  0  0  0  0  0  0  0
   -1.1255    1.3751   -1.1277 C   0  0  0  0  0  0  0  0  0  0  0  0
   -0.4505    2.4906   -1.5629 C   0  0  0  0  0  0  0  0  0  0  0  0
    0.4826    2.4836   -2.1225 H   0  0  0  0  0  0  0  0  0  0  0  0
   -1.1597    3.6124   -1.1458 N   0  0  0  0  0  0  0  0  0  0  0  0
   -0.8752    4.5781   -1.2978 H   0  0  0  0  0  0  0  0  0  0  0  0
   -2.3329    3.2320   -0.5199 C   0  0  0  0  0  0  0  0  0  0  0  0
   -3.3715    3.9925    0.0160 C   0  0  0  0  0  0  0  0  0  0  0  0
   -3.3161    5.0757    0.0072 H   0  0  0  0  0  0  0  0  0  0  0  0
   -4.4881    3.3398    0.5534 C   0  0  0  0  0  0  0  0  0  0  0  0
   -5.3044    3.9198    0.9739 H   0  0  0  0  0  0  0  0  0  0  0  0
   -4.5583    1.9398    0.5342 C   0  0  0  0  0  0  0  0  0  0  0  0
   -5.4328    1.4393    0.9393 H   0  0  0  0  0  0  0  0  0  0  0  0
   -3.5072    1.1880   -0.0095 C   0  0  0  0  0  0  0  0  0  0  0  0
   -3.5775    0.1079   -0.0320 H   0  0  0  0  0  0  0  0  0  0  0  0
   -2.3747    1.8410   -0.5158 C   0  0  0  0  0  0  0  0  0  0  0  0
   -0.3446   -0.4471    1.0526 C   0  0  0  0  0  0  0  0  0  0  0  0
    0.8438   -0.3322    1.3294 O   0  0  0  0  0  0  0  0  0  0  0  0
   -1.2803    0.1175    1.9011 N   0  0  0  0  0  0  0  0  0  0  0  0
   -2.2144    0.2263    1.5220 H   0  0  0  0  0  0  0  0  0  0  0  0
   -0.9102    0.9330    3.0499 C   0  0  0  0  0  0  0  0  0  0  0  0
   -0.3626    1.8240    2.7249 H   0  0  0  0  0  0  0  0  0  0  0  0
   -1.8069    1.2535    3.5885 H   0  0  0  0  0  0  0  0  0  0  0  0
   -0.2796    0.3617    3.7392 H   0  0  0  0  0  0  0  0  0  0  0  0
  1  2  1  0  0  0  0
  2  3  1  0  0  0  0
  2  4  1  0  0  0  0
  2  5  1  0  0  0  0
  5  6  2  0  0  0  0
  5  7  1  0  0  0  0
  7  8  1  0  0  0  0
  7  9  1  0  0  0  0
  9 10  1  0  0  0  0
  9 11  1  0  0  0  0
  9 29  1  0  0  0  0
 11 12  1  0  0  0  0
 11 13  1  0  0  0  0
 11 14  1  0  0  0  0
 14 15  2  0  0  0  0
 14 28  1  0  0  0  0
 15 16  1  0  0  0  0
 15 17  1  0  0  0  0
 17 18  1  0  0  0  0
 17 19  1  0  0  0  0
 19 20  1  0  0  0  0
 19 28  2  0  0  0  0
 20 21  1  0  0  0  0
 20 22  2  0  0  0  0
 22 23  1  0  0  0  0
 22 24  1  0  0  0  0
 24 25  1  0  0  0  0
 24 26  2  0  0  0  0
 26 27  1  0  0  0  0
 26 28  1  0  0  0  0
 29 30  2  0  0  0  0
 29 31  1  0  0  0  0
 31 32  1  0  0  0  0
 31 33  1  0  0  0  0
 33 34  1  0  0  0  0
 33 35  1  0  0  0  0
 33 36  1  0  0  0  0
M  END
$$$$

  -OEChem-03222214083D

 36 37  0     1  0  0  0  0  0999 V2000
   -2.8513   -4.7390    1.2386 H   0  0  0  0  0  0  0  0  0  0  0  0
   -3.0986   -3.8334    0.6773 C   0  0  0  0  0  0  0  0  0  0  0  0
   -3.8613   -3.2764    1.2264 H   0  0  0  0  0  0  0  0  0  0  0  0
   -3.4983   -4.1231   -0.2974 H   0  0  0  0  0  0  0  0  0  0  0  0
   -1.8597   -2.9777    0.4952 C   0  0  0  0  0  0  0  0  0  0  0  0
   -0.7926   -3.3441    0.9552 O   0  0  0  0  0  0  0  0  0  0  0  0
   -1.9499   -1.7722   -0.1696 N   0  0  0  0  0  0  0  0  0  0  0  0
   -2.8622   -1.5017   -0.5238 H   0  0  0  0  0  0  0  0  0  0  0  0
   -0.8024   -0.8906   -0.4546 C   0  0  1  0  0  0  0  0  0  0  0  0
   -0.0857   -1.5932   -0.8950 H   0  0  0  0  0  0  0  0  0  0  0  0
   -1.0768    0.0771   -1.6299 C   0  0  0  0  0  0  0  0  0  0  0  0
   -0.1994    0.0571   -2.2851 H   0  0  0  0  0  0  0  0  0  0  0  0
   -1.9170   -0.3091   -2.2144 H   0  0  0  0  0  0  0  0  0  0  0  0
   -1.3600    1.5267   -1.3012 C   0  0  0  0  0  0  0  0  0  0  0  0
   -1.0220    2.5508   -2.1554 C   0  0  0  0  0  0  0  0  0  0  0  0
   -0.4198    2.4425   -3.0548 H   0  0  0  0  0  0  0  0  0  0  0  0
   -1.5613    3.7329   -1.6605 N   0  0  0  0  0  0  0  0  0  0  0  0
   -1.4375    4.6556   -2.0712 H   0  0  0  0  0  0  0  0  0  0  0  0
   -2.3419    3.4693   -0.5514 C   0  0  0  0  0  0  0  0  0  0  0  0
   -3.1275    4.3141    0.2325 C   0  0  0  0  0  0  0  0  0  0  0  0
   -3.1513    5.3796    0.0330 H   0  0  0  0  0  0  0  0  0  0  0  0
   -3.8949    3.7651    1.2674 C   0  0  0  0  0  0  0  0  0  0  0  0
   -4.5117    4.4097    1.8864 H   0  0  0  0  0  0  0  0  0  0  0  0
   -3.8803    2.3810    1.4892 C   0  0  0  0  0  0  0  0  0  0  0  0
   -4.4903    1.9534    2.2787 H   0  0  0  0  0  0  0  0  0  0  0  0
   -3.0827    1.5483    0.6916 C   0  0  0  0  0  0  0  0  0  0  0  0
   -3.0897    0.4797    0.8481 H   0  0  0  0  0  0  0  0  0  0  0  0
   -2.2811    2.0990   -0.3129 C   0  0  0  0  0  0  0  0  0  0  0  0
    0.0518   -0.3093    0.7054 C   0  0  0  0  0  0  0  0  0  0  0  0
    1.1934    0.0514    0.4577 O   0  0  0  0  0  0  0  0  0  0  0  0
   -0.4093    0.2478    1.8775 N   0  0  0  0  0  0  0  0  0  0  0  0
    0.3204    0.8059    2.3127 H   0  0  0  0  0  0  0  0  0  0  0  0
   -1.2581   -0.5024    2.7923 C   0  0  0  0  0  0  0  0  0  0  0  0
   -1.4981    0.1152    3.6631 H   0  0  0  0  0  0  0  0  0  0  0  0
   -2.1976   -0.8026    2.3252 H   0  0  0  0  0  0  0  0  0  0  0  0
   -0.7386   -1.4025    3.1380 H   0  0  0  0  0  0  0  0  0  0  0  0
  1  2  1  0  0  0  0
  2  3  1  0  0  0  0
  2  4  1  0  0  0  0
  2  5  1  0  0  0  0
  5  6  2  0  0  0  0
  5  7  1  0  0  0  0
  7  8  1  0  0  0  0
  7  9  1  0  0  0  0
  9 10  1  0  0  0  0
  9 11  1  0  0  0  0
  9 29  1  0  0  0  0
 11 12  1  0  0  0  0
 11 13  1  0  0  0  0
 11 14  1  0  0  0  0
 14 15  2  0  0  0  0
 14 28  1  0  0  0  0
 15 16  1  0  0  0  0
 15 17  1  0  0  0  0
 17 18  1  0  0  0  0
 17 19  1  0  0  0  0
 19 20  1  0  0  0  0
 19 28  2  0  0  0  0
 20 21  1  0  0  0  0
 20 22  2  0  0  0  0
 22 23  1  0  0  0  0
 22 24  1  0  0  0  0
 24 25  1  0  0  0  0
 24 26  2  0  0  0  0
 26 27  1  0  0  0  0
 26 28  1  0  0  0  0
 29 30  2  0  0  0  0
 29 31  1  0  0  0  0
 31 32  1  0  0  0  0
 31 33  1  0  0  0  0
 33 34  1  0  0  0  0
 33 35  1  0  0  0  0
 33 36  1  0  0  0  0
M  END
$$$$

  -OEChem-03222214083D

 36 37  0     1  0  0  0  0  0999 V2000
   -2.9281   -4.7644    1.0933 H   0  0  0  0  0  0  0  0  0  0  0  0
   -3.1259   -3.8270    0.5655 C   0  0  0  0  0  0  0  0  0  0  0  0
   -3.8995   -3.2758    1.1053 H   0  0  0  0  0  0  0  0  0  0  0  0
   -3.4865   -4.0594   -0.4395 H   0  0  0  0  0  0  0  0  0  0  0  0
   -1.8582   -2.9983    0.4816 C   0  0  0  0  0  0  0  0  0  0  0  0
   -0.8200   -3.4228    0.9577 O   0  0  0  0  0  0  0  0  0  0  0  0
   -1.8927   -1.7482   -0.1011 N   0  0  0  0  0  0  0  0  0  0  0  0
   -2.7893   -1.4198   -0.4469 H   0  0  0  0  0  0  0  0  0  0  0  0
   -0.7206   -0.8701   -0.2715 C   0  0  1  0  0  0  0  0  0  0  0  0
    0.0047   -1.5847   -0.6776 H   0  0  0  0  0  0  0  0  0  0  0  0
   -0.8592    0.1028   -1.4671 C   0  0  0  0  0  0  0  0  0  0  0  0
    0.0872    0.0730   -2.0182 H   0  0  0  0  0  0  0  0  0  0  0  0
   -1.6289   -0.2871   -2.1401 H   0  0  0  0  0  0  0  0  0  0  0  0
   -1.1659    1.5636   -1.2109 C   0  0  0  0  0  0  0  0  0  0  0  0
   -0.9819    2.5024   -2.2012 C   0  0  0  0  0  0  0  0  0  0  0  0
   -0.4775    2.3197   -3.1475 H   0  0  0  0  0  0  0  0  0  0  0  0
   -1.5153    3.7127   -1.7752 N   0  0  0  0  0  0  0  0  0  0  0  0
   -1.4795    4.5893   -2.2908 H   0  0  0  0  0  0  0  0  0  0  0  0
   -2.1761    3.5370   -0.5764 C   0  0  0  0  0  0  0  0  0  0  0  0
   -2.9318    4.4327    0.1801 C   0  0  0  0  0  0  0  0  0  0  0  0
   -3.0144    5.4707   -0.1218 H   0  0  0  0  0  0  0  0  0  0  0  0
   -3.5979    3.9673    1.3201 C   0  0  0  0  0  0  0  0  0  0  0  0
   -4.1904    4.6508    1.9211 H   0  0  0  0  0  0  0  0  0  0  0  0
   -3.5199    2.6120    1.6672 C   0  0  0  0  0  0  0  0  0  0  0  0
   -4.0578    2.2428    2.5348 H   0  0  0  0  0  0  0  0  0  0  0  0
   -2.7532    1.7302    0.8927 C   0  0  0  0  0  0  0  0  0  0  0  0
   -2.7272    0.6807    1.1404 H   0  0  0  0  0  0  0  0  0  0  0  0
   -2.0348    2.2004   -0.2103 C   0  0  0  0  0  0  0  0  0  0  0  0
    0.0982   -0.3750    0.9528 C   0  0  0  0  0  0  0  0  0  0  0  0
    1.2513   -0.0143    0.7690 O   0  0  0  0  0  0  0  0  0  0  0  0
   -0.3934    0.1162    2.1413 N   0  0  0  0  0  0  0  0  0  0  0  0
    0.3305    0.6335    2.6336 H   0  0  0  0  0  0  0  0  0  0  0  0
   -1.2678   -0.6949    2.9780 C   0  0  0  0  0  0  0  0  0  0  0  0
   -1.5215   -0.1447    3.8893 H   0  0  0  0  0  0  0  0  0  0  0  0
   -0.7636   -1.6243    3.2636 H   0  0  0  0  0  0  0  0  0  0  0  0
   -2.1991   -0.9487    2.4672 H   0  0  0  0  0  0  0  0  0  0  0  0
  1  2  1  0  0  0  0
  2  3  1  0  0  0  0
  2  4  1  0  0  0  0
  2  5  1  0  0  0  0
  5  6  2  0  0  0  0
  5  7  1  0  0  0  0
  7  8  1  0  0  0  0
  7  9  1  0  0  0  0
  9 10  1  0  0  0  0
  9 11  1  0  0  0  0
  9 29  1  0  0  0  0
 11 12  1  0  0  0  0
 11 13  1  0  0  0  0
 11 14  1  0  0  0  0
 14 15  2  0  0  0  0
 14 28  1  0  0  0  0
 15 16  1  0  0  0  0
 15 17  1  0  0  0  0
 17 18  1  0  0  0  0
 17 19  1  0  0  0  0
 19 20  1  0  0  0  0
 19 28  2  0  0  0  0
 20 21  1  0  0  0  0
 20 22  2  0  0  0  0
 22 23  1  0  0  0  0
 22 24  1  0  0  0  0
 24 25  1  0  0  0  0
 24 26  2  0  0  0  0
 26 27  1  0  0  0  0
 26 28  1  0  0  0  0
 29 30  2  0  0  0  0
 29 31  1  0  0  0  0
 31 32  1  0  0  0  0
 31 33  1  0  0  0  0
 33 34  1  0  0  0  0
 33 35  1  0  0  0  0
 33 36  1  0  0  0  0
M  END
$$$$

  -OEChem-03222214083D

 36 37  0     1  0  0  0  0  0999 V2000
   -3.3361   -4.9730    0.1369 H   0  0  0  0  0  0  0  0  0  0  0  0
   -3.3314   -4.0035   -0.3697 C   0  0  0  0  0  0  0  0  0  0  0  0
   -4.1982   -3.4284   -0.0354 H   0  0  0  0  0  0  0  0  0  0  0  0
   -3.4047   -4.1703   -1.4469 H   0  0  0  0  0  0  0  0  0  0  0  0
   -2.0525   -3.2538   -0.0475 C   0  0  0  0  0  0  0  0  0  0  0  0
   -1.1987   -3.7817    0.6399 O   0  0  0  0  0  0  0  0  0  0  0  0
   -1.8603   -1.9829   -0.5533 N   0  0  0  0  0  0  0  0  0  0  0  0
   -2.6169   -1.5945   -1.1068 H   0  0  0  0  0  0  0  0  0  0  0  0
   -0.6992   -1.1168   -0.2451 C   0  0  1  0  0  0  0  0  0  0  0  0
    0.2070   -1.6937   -0.4658 H   0  0  0  0  0  0  0  0  0  0  0  0
   -0.7263    0.0644   -1.2594 C   0  0  0  0  0  0  0  0  0  0  0  0
    0.2154   -0.0336   -1.8105 H   0  0  0  0  0  0  0  0  0  0  0  0
   -1.5192   -0.1406   -1.9860 H   0  0  0  0  0  0  0  0  0  0  0  0
   -0.8304    1.5581   -0.9462 C   0  0  0  0  0  0  0  0  0  0  0  0
   -0.8395    2.3565   -2.0721 C   0  0  0  0  0  0  0  0  0  0  0  0
   -0.8327    1.9909   -3.0968 H   0  0  0  0  0  0  0  0  0  0  0  0
   -0.9112    3.6846   -1.6950 N   0  0  0  0  0  0  0  0  0  0  0  0
   -0.9350    4.4828   -2.3262 H   0  0  0  0  0  0  0  0  0  0  0  0
   -0.8355    3.7765   -0.3252 C   0  0  0  0  0  0  0  0  0  0  0  0
   -0.8107    4.9391    0.4436 C   0  0  0  0  0  0  0  0  0  0  0  0
   -0.9145    5.9112   -0.0251 H   0  0  0  0  0  0  0  0  0  0  0  0
   -0.6277    4.8339    1.8229 C   0  0  0  0  0  0  0  0  0  0  0  0
   -0.5999    5.7253    2.4425 H   0  0  0  0  0  0  0  0  0  0  0  0
   -0.4415    3.5727    2.3942 C   0  0  0  0  0  0  0  0  0  0  0  0
   -0.2540    3.4838    3.4600 H   0  0  0  0  0  0  0  0  0  0  0  0
   -0.4698    2.4191    1.5972 C   0  0  0  0  0  0  0  0  0  0  0  0
   -0.2508    1.4909    2.0948 H   0  0  0  0  0  0  0  0  0  0  0  0
   -0.7200    2.4889    0.2137 C   0  0  0  0  0  0  0  0  0  0  0  0
   -0.6256   -0.8337    1.2661 C   0  0  0  0  0  0  0  0  0  0  0  0
    0.4428   -0.9052    1.8600 O   0  0  0  0  0  0  0  0  0  0  0  0
   -1.7750   -0.4940    1.9629 N   0  0  0  0  0  0  0  0  0  0  0  0
   -2.6403   -0.4981    1.4347 H   0  0  0  0  0  0  0  0  0  0  0  0
   -1.8454   -0.4765    3.4191 C   0  0  0  0  0  0  0  0  0  0  0  0
   -1.7867   -1.4965    3.8130 H   0  0  0  0  0  0  0  0  0  0  0  0
   -2.7896   -0.0296    3.7445 H   0  0  0  0  0  0  0  0  0  0  0  0
   -1.0254    0.1111    3.8448 H   0  0  0  0  0  0  0  0  0  0  0  0
  1  2  1  0  0  0  0
  2  3  1  0  0  0  0
  2  4  1  0  0  0  0
  2  5  1  0  0  0  0
  5  6  2  0  0  0  0
  5  7  1  0  0  0  0
  7  8  1  0  0  0  0
  7  9  1  0  0  0  0
  9 10  1  0  0  0  0
  9 11  1  0  0  0  0
  9 29  1  0  0  0  0
 11 12  1  0  0  0  0
 11 13  1  0  0  0  0
 11 14  1  0  0  0  0
 14 15  2  0  0  0  0
 14 28  1  0  0  0  0
 15 16  1  0  0  0  0
 15 17  1  0  0  0  0
 17 18  1  0  0  0  0
 17 19  1  0  0  0  0
 19 20  1  0  0  0  0
 19 28  2  0  0  0  0
 20 21  1  0  0  0  0
 20 22  2  0  0  0  0
 22 23  1  0  0  0  0
 22 24  1  0  0  0  0
 24 25  1  0  0  0  0
 24 26  2  0  0  0  0
 26 27  1  0  0  0  0
 26 28  1  0  0  0  0
 29 30  2  0  0  0  0
 29 31  1  0  0  0  0
 31 32  1  0  0  0  0
 31 33  1  0  0  0  0
 33 34  1  0  0  0  0
 33 35  1  0  0  0  0
 33 36  1  0  0  0  0
M  END
$$$$

  -OEChem-03222214083D

 36 37  0     1  0  0  0  0  0999 V2000
   -3.4077   -4.9193    0.1389 H   0  0  0  0  0  0  0  0  0  0  0  0
   -3.3874   -3.9251   -0.3167 C   0  0  0  0  0  0  0  0  0  0  0  0
   -4.2043   -3.3313    0.1000 H   0  0  0  0  0  0  0  0  0  0  0  0
   -3.5321   -4.0302   -1.3945 H   0  0  0  0  0  0  0  0  0  0  0  0
   -2.0587   -3.2503   -0.0338 C   0  0  0  0  0  0  0  0  0  0  0  0
   -1.2320   -3.8124    0.6596 O   0  0  0  0  0  0  0  0  0  0  0  0
   -1.7861   -2.0176   -0.5940 N   0  0  0  0  0  0  0  0  0  0  0  0
   -2.5412   -1.5877   -1.1171 H   0  0  0  0  0  0  0  0  0  0  0  0
   -0.6287   -1.1752   -0.2177 C   0  0  1  0  0  0  0  0  0  0  0  0
    0.2860   -1.7643   -0.3527 H   0  0  0  0  0  0  0  0  0  0  0  0
   -0.6050   -0.0221   -1.2657 C   0  0  0  0  0  0  0  0  0  0  0  0
    0.3720   -0.1116   -1.7521 H   0  0  0  0  0  0  0  0  0  0  0  0
   -1.3434   -0.2370   -2.0456 H   0  0  0  0  0  0  0  0  0  0  0  0
   -0.7290    1.4624   -0.9285 C   0  0  0  0  0  0  0  0  0  0  0  0
   -1.0191    2.2885   -1.9948 C   0  0  0  0  0  0  0  0  0  0  0  0
   -1.2336    1.9515   -3.0068 H   0  0  0  0  0  0  0  0  0  0  0  0
   -1.0411    3.6030   -1.5624 N   0  0  0  0  0  0  0  0  0  0  0  0
   -1.2350    4.4172   -2.1421 H   0  0  0  0  0  0  0  0  0  0  0  0
   -0.6346    3.6627   -0.2493 C   0  0  0  0  0  0  0  0  0  0  0  0
   -0.4432    4.7971    0.5383 C   0  0  0  0  0  0  0  0  0  0  0  0
   -0.6828    5.7819    0.1529 H   0  0  0  0  0  0  0  0  0  0  0  0
    0.0845    4.6487    1.8223 C   0  0  0  0  0  0  0  0  0  0  0  0
    0.2457    5.5179    2.4530 H   0  0  0  0  0  0  0  0  0  0  0  0
    0.4404    3.3752    2.2751 C   0  0  0  0  0  0  0  0  0  0  0  0
    0.8916    3.2540    3.2554 H   0  0  0  0  0  0  0  0  0  0  0  0
    0.2402    2.2504    1.4627 C   0  0  0  0  0  0  0  0  0  0  0  0
    0.5972    1.3083    1.8447 H   0  0  0  0  0  0  0  0  0  0  0  0
   -0.3572    2.3654    0.1942 C   0  0  0  0  0  0  0  0  0  0  0  0
   -0.6786   -0.8036    1.2773 C   0  0  0  0  0  0  0  0  0  0  0  0
    0.2885   -1.0270    1.9953 O   0  0  0  0  0  0  0  0  0  0  0  0
   -1.8623   -0.3755    1.8552 N   0  0  0  0  0  0  0  0  0  0  0  0
   -2.6099   -0.1106    1.2238 H   0  0  0  0  0  0  0  0  0  0  0  0
   -1.9944   -0.0627    3.2721 C   0  0  0  0  0  0  0  0  0  0  0  0
   -1.6929   -0.9196    3.8837 H   0  0  0  0  0  0  0  0  0  0  0  0
   -3.0347    0.1790    3.5092 H   0  0  0  0  0  0  0  0  0  0  0  0
   -1.3694    0.7963    3.5361 H   0  0  0  0  0  0  0  0  0  0  0  0
  1  2  1  0  0  0  0
  2  3  1  0  0  0  0
  2  4  1  0  0  0  0
  2  5  1  0  0  0  0
  5  6  2  0  0  0  0
  5  7  1  0  0  0  0
  7  8  1  0  0  0  0
  7  9  1  0  0  0  0
  9 10  1  0  0  0  0
  9 11  1  0  0  0  0
  9 29  1  0  0  0  0
 11 12  1  0  0  0  0
 11 13  1  0  0  0  0
 11 14  1  0  0  0  0
 14 15  2  0  0  0  0
 14 28  1  0  0  0  0
 15 16  1  0  0  0  0
 15 17  1  0  0  0  0
 17 18  1  0  0  0  0
 17 19  1  0  0  0  0
 19 20  1  0  0  0  0
 19 28  2  0  0  0  0
 20 21  1  0  0  0  0
 20 22  2  0  0  0  0
 22 23  1  0  0  0  0
 22 24  1  0  0  0  0
 24 25  1  0  0  0  0
 24 26  2  0  0  0  0
 26 27  1  0  0  0  0
 26 28  1  0  0  0  0
 29 30  2  0  0  0  0
 29 31  1  0  0  0  0
 31 32  1  0  0  0  0
 31 33  1  0  0  0  0
 33 34  1  0  0  0  0
 33 35  1  0  0  0  0
 33 36  1  0  0  0  0
M  END
$$$$

  -OEChem-03222214083D

 36 37  0     1  0  0  0  0  0999 V2000
   -3.4021   -4.8260    0.4371 H   0  0  0  0  0  0  0  0  0  0  0  0
   -3.3585   -3.9051   -0.1516 C   0  0  0  0  0  0  0  0  0  0  0  0
   -4.1767   -3.2513    0.1594 H   0  0  0  0  0  0  0  0  0  0  0  0
   -3.4804   -4.1568   -1.2077 H   0  0  0  0  0  0  0  0  0  0  0  0
   -2.0269   -3.2116    0.0663 C   0  0  0  0  0  0  0  0  0  0  0  0
   -1.1839   -3.7310    0.7734 O   0  0  0  0  0  0  0  0  0  0  0  0
   -1.7692   -2.0136   -0.5710 N   0  0  0  0  0  0  0  0  0  0  0  0
   -2.5377   -1.6170   -1.1003 H   0  0  0  0  0  0  0  0  0  0  0  0
   -0.6208   -1.1392   -0.2457 C   0  0  1  0  0  0  0  0  0  0  0  0
    0.3074   -1.7098   -0.3638 H   0  0  0  0  0  0  0  0  0  0  0  0
   -0.6539   -0.0233   -1.3341 C   0  0  0  0  0  0  0  0  0  0  0  0
    0.3093   -0.0863   -1.8505 H   0  0  0  0  0  0  0  0  0  0  0  0
   -1.4129   -0.2559   -2.0882 H   0  0  0  0  0  0  0  0  0  0  0  0
   -0.8088    1.4364   -0.9412 C   0  0  0  0  0  0  0  0  0  0  0  0
   -1.4477    2.3091   -1.7955 C   0  0  0  0  0  0  0  0  0  0  0  0
   -1.9667    2.0266   -2.7087 H   0  0  0  0  0  0  0  0  0  0  0  0
   -1.3523    3.5932   -1.2782 N   0  0  0  0  0  0  0  0  0  0  0  0
   -1.7423    4.4337   -1.7002 H   0  0  0  0  0  0  0  0  0  0  0  0
   -0.5183    3.5924   -0.1797 C   0  0  0  0  0  0  0  0  0  0  0  0
   -0.0609    4.6610    0.5908 C   0  0  0  0  0  0  0  0  0  0  0  0
   -0.4186    5.6668    0.4012 H   0  0  0  0  0  0  0  0  0  0  0  0
    0.8833    4.4193    1.5941 C   0  0  0  0  0  0  0  0  0  0  0  0
    1.2523    5.2366    2.2066 H   0  0  0  0  0  0  0  0  0  0  0  0
    1.3797    3.1235    1.7808 C   0  0  0  0  0  0  0  0  0  0  0  0
    2.1411    2.9334    2.5316 H   0  0  0  0  0  0  0  0  0  0  0  0
    0.9113    2.0649    0.9906 C   0  0  0  0  0  0  0  0  0  0  0  0
    1.3613    1.0892    1.1186 H   0  0  0  0  0  0  0  0  0  0  0  0
   -0.0943    2.2816    0.0364 C   0  0  0  0  0  0  0  0  0  0  0  0
   -0.6756   -0.6745    1.2292 C   0  0  0  0  0  0  0  0  0  0  0  0
    0.2827   -0.8632    1.9682 O   0  0  0  0  0  0  0  0  0  0  0  0
   -1.8629   -0.2208    1.7797 N   0  0  0  0  0  0  0  0  0  0  0  0
   -2.5842    0.0534    1.1224 H   0  0  0  0  0  0  0  0  0  0  0  0
   -1.9522    0.2658    3.1503 C   0  0  0  0  0  0  0  0  0  0  0  0
   -1.2969    1.1321    3.2916 H   0  0  0  0  0  0  0  0  0  0  0  0
   -2.9791    0.5657    3.3787 H   0  0  0  0  0  0  0  0  0  0  0  0
   -1.6582   -0.5190    3.8555 H   0  0  0  0  0  0  0  0  0  0  0  0
  1  2  1  0  0  0  0
  2  3  1  0  0  0  0
  2  4  1  0  0  0  0
  2  5  1  0  0  0  0
  5  6  2  0  0  0  0
  5  7  1  0  0  0  0
  7  8  1  0  0  0  0
  7  9  1  0  0  0  0
  9 10  1  0  0  0  0
  9 11  1  0  0  0  0
  9 29  1  0  0  0  0
 11 12  1  0  0  0  0
 11 13  1  0  0  0  0
 11 14  1  0  0  0  0
 14 15  2  0  0  0  0
 14 28  1  0  0  0  0
 15 16  1  0  0  0  0
 15 17  1  0  0  0  0
 17 18  1  0  0  0  0
 17 19  1  0  0  0  0
 19 20  1  0  0  0  0
 19 28  2  0  0  0  0
 20 21  1  0  0  0  0
 20 22  2  0  0  0  0
 22 23  1  0  0  0  0
 22 24  1  0  0  0  0
 24 25  1  0  0  0  0
 24 26  2  0  0  0  0
 26 27  1  0  0  0  0
 26 28  1  0  0  0  0
 29 30  2  0  0  0  0
 29 31  1  0  0  0  0
 31 32  1  0  0  0  0
 31 33  1  0  0  0  0
 33 34  1  0  0  0  0
 33 35  1  0  0  0  0
 33 36  1  0  0  0  0
M  END
$$$$

  -OEChem-03222214083D

 36 37  0     1  0  0  0  0  0999 V2000
   -3.5243   -4.7164    0.5430 H   0  0  0  0  0  0  0  0  0  0  0  0
   -3.4356   -3.8342   -0.0976 C   0  0  0  0  0  0  0  0  0  0  0  0
   -4.2594   -3.1529    0.1276 H   0  0  0  0  0  0  0  0  0  0  0  0
   -3.5044   -4.1502   -1.1412 H   0  0  0  0  0  0  0  0  0  0  0  0
   -2.1078   -3.1435    0.1496 C   0  0  0  0  0  0  0  0  0  0  0  0
   -1.3128   -3.6262    0.9341 O   0  0  0  0  0  0  0  0  0  0  0  0
   -1.8001   -1.9874   -0.5403 N   0  0  0  0  0  0  0  0  0  0  0  0
   -2.5250   -1.6167   -1.1446 H   0  0  0  0  0  0  0  0  0  0  0  0
   -0.6350   -1.1308   -0.2331 C   0  0  1  0  0  0  0  0  0  0  0  0
    0.2700   -1.7460   -0.2973 H   0  0  0  0  0  0  0  0  0  0  0  0
   -0.5746   -0.0749   -1.3757 C   0  0  0  0  0  0  0  0  0  0  0  0
    0.4015   -0.1939   -1.8570 H   0  0  0  0  0  0  0  0  0  0  0  0
   -1.3221   -0.3024   -2.1423 H   0  0  0  0  0  0  0  0  0  0  0  0
   -0.6889    1.3906   -1.0093 C   0  0  0  0  0  0  0  0  0  0  0  0
   -1.4982    2.2613   -1.7040 C   0  0  0  0  0  0  0  0  0  0  0  0
   -2.1867    1.9844   -2.4989 H   0  0  0  0  0  0  0  0  0  0  0  0
   -1.2900    3.5434   -1.2098 N   0  0  0  0  0  0  0  0  0  0  0  0
   -1.7525    4.3883   -1.5395 H   0  0  0  0  0  0  0  0  0  0  0  0
   -0.2689    3.5311   -0.2787 C   0  0  0  0  0  0  0  0  0  0  0  0
    0.3305    4.5758    0.4247 C   0  0  0  0  0  0  0  0  0  0  0  0
   -0.0314    5.5917    0.3136 H   0  0  0  0  0  0  0  0  0  0  0  0
    1.4160    4.2965    1.2640 C   0  0  0  0  0  0  0  0  0  0  0  0
    1.8956    5.0961    1.8204 H   0  0  0  0  0  0  0  0  0  0  0  0
    1.8973    2.9845    1.3692 C   0  0  0  0  0  0  0  0  0  0  0  0
    2.7497    2.7652    2.0054 H   0  0  0  0  0  0  0  0  0  0  0  0
    1.2857    1.9471    0.6523 C   0  0  0  0  0  0  0  0  0  0  0  0
    1.6872    0.9422    0.7239 H   0  0  0  0  0  0  0  0  0  0  0  0
    0.1693    2.2158   -0.1501 C   0  0  0  0  0  0  0  0  0  0  0  0
   -0.6771   -0.5727    1.2109 C   0  0  0  0  0  0  0  0  0  0  0  0
    0.2972   -0.6918    1.9434 O   0  0  0  0  0  0  0  0  0  0  0  0
   -1.8469   -0.0441    1.7305 N   0  0  0  0  0  0  0  0  0  0  0  0
   -2.5821    0.1633    1.0648 H   0  0  0  0  0  0  0  0  0  0  0  0
   -1.9067    0.5714    3.0497 C   0  0  0  0  0  0  0  0  0  0  0  0
   -1.2520    1.4486    3.0911 H   0  0  0  0  0  0  0  0  0  0  0  0
   -2.9296    0.8886    3.2723 H   0  0  0  0  0  0  0  0  0  0  0  0
   -1.5923   -0.1409    3.8201 H   0  0  0  0  0  0  0  0  0  0  0  0
  1  2  1  0  0  0  0
  2  3  1  0  0  0  0
  2  4  1  0  0  0  0
  2  5  1  0  0  0  0
  5  6  2  0  0  0  0
  5  7  1  0  0  0  0
  7  8  1  0  0  0  0
  7  9  1  0  0  0  0
  9 10  1  0  0  0  0
  9 11  1  0  0  0  0
  9 29  1  0  0  0  0
 11 12  1  0  0  0  0
 11 13  1  0  0  0  0
 11 14  1  0  0  0  0
 14 15  2  0  0  0  0
 14 28  1  0  0  0  0
 15 16  1  0  0  0  0
 15 17  1  0  0  0  0
 17 18  1  0  0  0  0
 17 19  1  0  0  0  0
 19 20  1  0  0  0  0
 19 28  2  0  0  0  0
 20 21  1  0  0  0  0
 20 22  2  0  0  0  0
 22 23  1  0  0  0  0
 22 24  1  0  0  0  0
 24 25  1  0  0  0  0
 24 26  2  0  0  0  0
 26 27  1  0  0  0  0
 26 28  1  0  0  0  0
 29 30  2  0  0  0  0
 29 31  1  0  0  0  0
 31 32  1  0  0  0  0
 31 33  1  0  0  0  0
 33 34  1  0  0  0  0
 33 35  1  0  0  0  0
 33 36  1  0  0  0  0
M  END
$$$$

  -OEChem-03222214083D

 36 37  0     1  0  0  0  0  0999 V2000
   -3.4767   -4.6953    0.6417 H   0  0  0  0  0  0  0  0  0  0  0  0
   -3.4026   -3.8361   -0.0311 C   0  0  0  0  0  0  0  0  0  0  0  0
   -4.2458   -3.1682    0.1600 H   0  0  0  0  0  0  0  0  0  0  0  0
   -3.4522   -4.1919   -1.0629 H   0  0  0  0  0  0  0  0  0  0  0  0
   -2.0949   -3.1035    0.2031 C   0  0  0  0  0  0  0  0  0  0  0  0
   -1.3001   -3.5305    1.0196 O   0  0  0  0  0  0  0  0  0  0  0  0
   -1.8062   -1.9685   -0.5285 N   0  0  0  0  0  0  0  0  0  0  0  0
   -2.5167   -1.6515   -1.1787 H   0  0  0  0  0  0  0  0  0  0  0  0
   -0.6330   -1.1041   -0.2843 C   0  0  1  0  0  0  0  0  0  0  0  0
    0.2614   -1.7338   -0.3520 H   0  0  0  0  0  0  0  0  0  0  0  0
   -0.5706   -0.0882   -1.4594 C   0  0  0  0  0  0  0  0  0  0  0  0
    0.3903   -0.2302   -1.9644 H   0  0  0  0  0  0  0  0  0  0  0  0
   -1.3440   -0.3186   -2.1988 H   0  0  0  0  0  0  0  0  0  0  0  0
   -0.6672    1.3774   -1.1001 C   0  0  0  0  0  0  0  0  0  0  0  0
   -1.6557    2.2199   -1.5542 C   0  0  0  0  0  0  0  0  0  0  0  0
   -2.5016    1.9282   -2.1720 H   0  0  0  0  0  0  0  0  0  0  0  0
   -1.3755    3.5016   -1.0913 N   0  0  0  0  0  0  0  0  0  0  0  0
   -1.9296    4.3345   -1.2796 H   0  0  0  0  0  0  0  0  0  0  0  0
   -0.1821    3.5065   -0.3908 C   0  0  0  0  0  0  0  0  0  0  0  0
    0.5189    4.5443    0.2233 C   0  0  0  0  0  0  0  0  0  0  0  0
    0.1233    5.5536    0.2134 H   0  0  0  0  0  0  0  0  0  0  0  0
    1.7420    4.2652    0.8475 C   0  0  0  0  0  0  0  0  0  0  0  0
    2.2992    5.0601    1.3340 H   0  0  0  0  0  0  0  0  0  0  0  0
    2.2502    2.9579    0.8404 C   0  0  0  0  0  0  0  0  0  0  0  0
    3.1977    2.7374    1.3227 H   0  0  0  0  0  0  0  0  0  0  0  0
    1.5363    1.9252    0.2172 C   0  0  0  0  0  0  0  0  0  0  0  0
    1.9307    0.9138    0.2189 H   0  0  0  0  0  0  0  0  0  0  0  0
    0.3059    2.2040   -0.3877 C   0  0  0  0  0  0  0  0  0  0  0  0
   -0.5996   -0.4864    1.1356 C   0  0  0  0  0  0  0  0  0  0  0  0
    0.4339   -0.5192    1.7925 O   0  0  0  0  0  0  0  0  0  0  0  0
   -1.7377    0.0724    1.6918 N   0  0  0  0  0  0  0  0  0  0  0  0
   -2.5240    0.2088    1.0678 H   0  0  0  0  0  0  0  0  0  0  0  0
   -1.7103    0.8020    2.9525 C   0  0  0  0  0  0  0  0  0  0  0  0
   -1.0611    1.6804    2.8698 H   0  0  0  0  0  0  0  0  0  0  0  0
   -2.7174    1.1362    3.2186 H   0  0  0  0  0  0  0  0  0  0  0  0
   -1.3360    0.1612    3.7581 H   0  0  0  0  0  0  0  0  0  0  0  0
  1  2  1  0  0  0  0
  2  3  1  0  0  0  0
  2  4  1  0  0  0  0
  2  5  1  0  0  0  0
  5  6  2  0  0  0  0
  5  7  1  0  0  0  0
  7  8  1  0  0  0  0
  7  9  1  0  0  0  0
  9 10  1  0  0  0  0
  9 11  1  0  0  0  0
  9 29  1  0  0  0  0
 11 12  1  0  0  0  0
 11 13  1  0  0  0  0
 11 14  1  0  0  0  0
 14 15  2  0  0  0  0
 14 28  1  0  0  0  0
 15 16  1  0  0  0  0
 15 17  1  0  0  0  0
 17 18  1  0  0  0  0
 17 19  1  0  0  0  0
 19 20  1  0  0  0  0
 19 28  2  0  0  0  0
 20 21  1  0  0  0  0
 20 22  2  0  0  0  0
 22 23  1  0  0  0  0
 22 24  1  0  0  0  0
 24 25  1  0  0  0  0
 24 26  2  0  0  0  0
 26 27  1  0  0  0  0
 26 28  1  0  0  0  0
 29 30  2  0  0  0  0
 29 31  1  0  0  0  0
 31 32  1  0  0  0  0
 31 33  1  0  0  0  0
 33 34  1  0  0  0  0
 33 35  1  0  0  0  0
 33 36  1  0  0  0  0
M  END
$$$$

  -OEChem-03222214083D

 36 37  0     1  0  0  0  0  0999 V2000
   -3.4132   -4.6965    0.7114 H   0  0  0  0  0  0  0  0  0  0  0  0
   -3.3621   -3.8540    0.0156 C   0  0  0  0  0  0  0  0  0  0  0  0
   -4.2319   -3.2126    0.1769 H   0  0  0  0  0  0  0  0  0  0  0  0
   -3.3847   -4.2408   -1.0061 H   0  0  0  0  0  0  0  0  0  0  0  0
   -2.0855   -3.0668    0.2446 C   0  0  0  0  0  0  0  0  0  0  0  0
   -1.2927   -3.4332    1.0918 O   0  0  0  0  0  0  0  0  0  0  0  0
   -1.8271   -1.9461   -0.5194 N   0  0  0  0  0  0  0  0  0  0  0  0
   -2.5202   -1.6955   -1.2158 H   0  0  0  0  0  0  0  0  0  0  0  0
   -0.6496   -1.0716   -0.3411 C   0  0  1  0  0  0  0  0  0  0  0  0
    0.2363   -1.7121   -0.4210 H   0  0  0  0  0  0  0  0  0  0  0  0
   -0.5956   -0.0897   -1.5423 C   0  0  0  0  0  0  0  0  0  0  0  0
    0.3487   -0.2504   -2.0724 H   0  0  0  0  0  0  0  0  0  0  0  0
   -1.3940   -0.3247   -2.2529 H   0  0  0  0  0  0  0  0  0  0  0  0
   -0.6774    1.3777   -1.1962 C   0  0  0  0  0  0  0  0  0  0  0  0
   -1.7835    2.1740   -1.3799 C   0  0  0  0  0  0  0  0  0  0  0  0
   -2.7388    1.8492   -1.7845 H   0  0  0  0  0  0  0  0  0  0  0  0
   -1.4529    3.4630   -0.9716 N   0  0  0  0  0  0  0  0  0  0  0  0
   -2.0708    4.2713   -1.0013 H   0  0  0  0  0  0  0  0  0  0  0  0
   -0.1392    3.5066   -0.5353 C   0  0  0  0  0  0  0  0  0  0  0  0
    0.6362    4.5560   -0.0423 C   0  0  0  0  0  0  0  0  0  0  0  0
    0.2165    5.5514    0.0492 H   0  0  0  0  0  0  0  0  0  0  0  0
    1.9621    4.3046    0.3369 C   0  0  0  0  0  0  0  0  0  0  0  0
    2.5777    5.1087    0.7287 H   0  0  0  0  0  0  0  0  0  0  0  0
    2.4934    3.0113    0.2185 C   0  0  0  0  0  0  0  0  0  0  0  0
    3.5163    2.8128    0.5237 H   0  0  0  0  0  0  0  0  0  0  0  0
    1.7045    1.9658   -0.2820 C   0  0  0  0  0  0  0  0  0  0  0  0
    2.1074    0.9606   -0.3561 H   0  0  0  0  0  0  0  0  0  0  0  0
    0.3831    2.2243   -0.6601 C   0  0  0  0  0  0  0  0  0  0  0  0
   -0.5370   -0.4095    1.0540 C   0  0  0  0  0  0  0  0  0  0  0  0
    0.5490   -0.3603    1.6186 O   0  0  0  0  0  0  0  0  0  0  0  0
   -1.6418    0.1683    1.6555 N   0  0  0  0  0  0  0  0  0  0  0  0
   -2.4913    0.2110    1.1060 H   0  0  0  0  0  0  0  0  0  0  0  0
   -1.5465    0.9622    2.8726 C   0  0  0  0  0  0  0  0  0  0  0  0
   -0.9056    1.8353    2.7083 H   0  0  0  0  0  0  0  0  0  0  0  0
   -2.5383    1.3101    3.1762 H   0  0  0  0  0  0  0  0  0  0  0  0
   -1.1262    0.3634    3.6878 H   0  0  0  0  0  0  0  0  0  0  0  0
  1  2  1  0  0  0  0
  2  3  1  0  0  0  0
  2  4  1  0  0  0  0
  2  5  1  0  0  0  0
  5  6  2  0  0  0  0
  5  7  1  0  0  0  0
  7  8  1  0  0  0  0
  7  9  1  0  0  0  0
  9 10  1  0  0  0  0
  9 11  1  0  0  0  0
  9 29  1  0  0  0  0
 11 12  1  0  0  0  0
 11 13  1  0  0  0  0
 11 14  1  0  0  0  0
 14 15  2  0  0  0  0
 14 28  1  0  0  0  0
 15 16  1  0  0  0  0
 15 17  1  0  0  0  0
 17 18  1  0  0  0  0
 17 19  1  0  0  0  0
 19 20  1  0  0  0  0
 19 28  2  0  0  0  0
 20 21  1  0  0  0  0
 20 22  2  0  0  0  0
 22 23  1  0  0  0  0
 22 24  1  0  0  0  0
 24 25  1  0  0  0  0
 24 26  2  0  0  0  0
 26 27  1  0  0  0  0
 26 28  1  0  0  0  0
 29 30  2  0  0  0  0
 29 31  1  0  0  0  0
 31 32  1  0  0  0  0
 31 33  1  0  0  0  0
 33 34  1  0  0  0  0
 33 35  1  0  0  0  0
 33 36  1  0  0  0  0
M  END
$$$$

  -OEChem-03222214083D

 36 37  0     1  0  0  0  0  0999 V2000
   -3.3275   -4.7125    0.7535 H   0  0  0  0  0  0  0  0  0  0  0  0
   -3.3057   -3.8811    0.0429 C   0  0  0  0  0  0  0  0  0  0  0  0
   -4.2084   -3.2808    0.1781 H   0  0  0  0  0  0  0  0  0  0  0  0
   -3.2921   -4.2867   -0.9716 H   0  0  0  0  0  0  0  0  0  0  0  0
   -2.0735   -3.0277    0.2782 C   0  0  0  0  0  0  0  0  0  0  0  0
   -1.2885   -3.3286    1.1578 O   0  0  0  0  0  0  0  0  0  0  0  0
   -1.8498   -1.9160   -0.5098 N   0  0  0  0  0  0  0  0  0  0  0  0
   -2.5084   -1.7470   -1.2626 H   0  0  0  0  0  0  0  0  0  0  0  0
   -0.6764   -1.0272   -0.3808 C   0  0  1  0  0  0  0  0  0  0  0  0
    0.2072   -1.6698   -0.4665 H   0  0  0  0  0  0  0  0  0  0  0  0
   -0.6340   -0.0700   -1.6004 C   0  0  0  0  0  0  0  0  0  0  0  0
    0.2977   -0.2449   -2.1479 H   0  0  0  0  0  0  0  0  0  0  0  0
   -1.4496   -0.3109   -2.2888 H   0  0  0  0  0  0  0  0  0  0  0  0
   -0.7129    1.4004   -1.2714 C   0  0  0  0  0  0  0  0  0  0  0  0
   -1.8639    2.1463   -1.1705 C   0  0  0  0  0  0  0  0  0  0  0  0
   -2.8738    1.7781   -1.3307 H   0  0  0  0  0  0  0  0  0  0  0  0
   -1.4981    3.4491   -0.8417 N   0  0  0  0  0  0  0  0  0  0  0  0
   -2.1384    4.2275   -0.7020 H   0  0  0  0  0  0  0  0  0  0  0  0
   -0.1222    3.5430   -0.7098 C   0  0  0  0  0  0  0  0  0  0  0  0
    0.7070    4.6157   -0.3818 C   0  0  0  0  0  0  0  0  0  0  0  0
    0.2851    5.5954   -0.1882 H   0  0  0  0  0  0  0  0  0  0  0  0
    2.0910    4.4078   -0.2985 C   0  0  0  0  0  0  0  0  0  0  0  0
    2.7493    5.2312   -0.0381 H   0  0  0  0  0  0  0  0  0  0  0  0
    2.6265    3.1331   -0.5391 C   0  0  0  0  0  0  0  0  0  0  0  0
    3.6968    2.9691   -0.4588 H   0  0  0  0  0  0  0  0  0  0  0  0
    1.7830    2.0634   -0.8714 C   0  0  0  0  0  0  0  0  0  0  0  0
    2.1913    1.0719   -1.0379 H   0  0  0  0  0  0  0  0  0  0  0  0
    0.4050    2.2822   -0.9637 C   0  0  0  0  0  0  0  0  0  0  0  0
   -0.5185   -0.3380    0.9972 C   0  0  0  0  0  0  0  0  0  0  0  0
    0.5942   -0.2235    1.4963 O   0  0  0  0  0  0  0  0  0  0  0  0
   -1.6062    0.2407    1.6280 N   0  0  0  0  0  0  0  0  0  0  0  0
   -2.5076    0.1490    1.1761 H   0  0  0  0  0  0  0  0  0  0  0  0
   -1.4962    1.0050    2.8626 C   0  0  0  0  0  0  0  0  0  0  0  0
   -0.8202    1.8557    2.7248 H   0  0  0  0  0  0  0  0  0  0  0  0
   -2.4771    1.3864    3.1610 H   0  0  0  0  0  0  0  0  0  0  0  0
   -1.1094    0.3733    3.6692 H   0  0  0  0  0  0  0  0  0  0  0  0
  1  2  1  0  0  0  0
  2  3  1  0  0  0  0
  2  4  1  0  0  0  0
  2  5  1  0  0  0  0
  5  6  2  0  0  0  0
  5  7  1  0  0  0  0
  7  8  1  0  0  0  0
  7  9  1  0  0  0  0
  9 10  1  0  0  0  0
  9 11  1  0  0  0  0
  9 29  1  0  0  0  0
 11 12  1  0  0  0  0
 11 13  1  0  0  0  0
 11 14  1  0  0  0  0
 14 15  2  0  0  0  0
 14 28  1  0  0  0  0
 15 16  1  0  0  0  0
 15 17  1  0  0  0  0
 17 18  1  0  0  0  0
 17 19  1  0  0  0  0
 19 20  1  0  0  0  0
 19 28  2  0  0  0  0
 20 21  1  0  0  0  0
 20 22  2  0  0  0  0
 22 23  1  0  0  0  0
 22 24  1  0  0  0  0
 24 25  1  0  0  0  0
 24 26  2  0  0  0  0
 26 27  1  0  0  0  0
 26 28  1  0  0  0  0
 29 30  2  0  0  0  0
 29 31  1  0  0  0  0
 31 32  1  0  0  0  0
 31 33  1  0  0  0  0
 33 34  1  0  0  0  0
 33 35  1  0  0  0  0
 33 36  1  0  0  0  0
M  END
$$$$

  -OEChem-03222214083D

 36 37  0     1  0  0  0  0  0999 V2000
   -3.2894   -4.7405    0.7205 H   0  0  0  0  0  0  0  0  0  0  0  0
   -3.2823   -3.9026    0.0173 C   0  0  0  0  0  0  0  0  0  0  0  0
   -4.2096   -3.3372    0.1351 H   0  0  0  0  0  0  0  0  0  0  0  0
   -3.2294   -4.2988   -0.9995 H   0  0  0  0  0  0  0  0  0  0  0  0
   -2.0892   -3.0057    0.2889 C   0  0  0  0  0  0  0  0  0  0  0  0
   -1.3279   -3.2708    1.2001 O   0  0  0  0  0  0  0  0  0  0  0  0
   -1.8795   -1.8886   -0.4950 N   0  0  0  0  0  0  0  0  0  0  0  0
   -2.5056   -1.7606   -1.2831 H   0  0  0  0  0  0  0  0  0  0  0  0
   -0.7095   -0.9940   -0.3735 C   0  0  1  0  0  0  0  0  0  0  0  0
    0.1719   -1.6399   -0.4585 H   0  0  0  0  0  0  0  0  0  0  0  0
   -0.6544   -0.0470   -1.6000 C   0  0  0  0  0  0  0  0  0  0  0  0
    0.2801   -0.2354   -2.1372 H   0  0  0  0  0  0  0  0  0  0  0  0
   -1.4639   -0.2922   -2.2940 H   0  0  0  0  0  0  0  0  0  0  0  0
   -0.7338    1.4293   -1.2956 C   0  0  0  0  0  0  0  0  0  0  0  0
   -1.8629    2.1270   -0.9341 C   0  0  0  0  0  0  0  0  0  0  0  0
   -2.8612    1.7090   -0.8355 H   0  0  0  0  0  0  0  0  0  0  0  0
   -1.4945    3.4529   -0.7230 N   0  0  0  0  0  0  0  0  0  0  0  0
   -2.1180    4.2014   -0.4293 H   0  0  0  0  0  0  0  0  0  0  0  0
   -0.1324    3.6095   -0.9193 C   0  0  0  0  0  0  0  0  0  0  0  0
    0.6960    4.7261   -0.8070 C   0  0  0  0  0  0  0  0  0  0  0  0
    0.2819    5.6889   -0.5297 H   0  0  0  0  0  0  0  0  0  0  0  0
    2.0696    4.5840   -1.0482 C   0  0  0  0  0  0  0  0  0  0  0  0
    2.7285    5.4424   -0.9580 H   0  0  0  0  0  0  0  0  0  0  0  0
    2.5965    3.3305   -1.3944 C   0  0  0  0  0  0  0  0  0  0  0  0
    3.6623    3.2192   -1.5680 H   0  0  0  0  0  0  0  0  0  0  0  0
    1.7531    2.2158   -1.5064 C   0  0  0  0  0  0  0  0  0  0  0  0
    2.1610    1.2428   -1.7591 H   0  0  0  0  0  0  0  0  0  0  0  0
    0.3821    2.3673   -1.2728 C   0  0  0  0  0  0  0  0  0  0  0  0
   -0.5356   -0.3089    1.0045 C   0  0  0  0  0  0  0  0  0  0  0  0
    0.5871   -0.1582    1.4698 O   0  0  0  0  0  0  0  0  0  0  0  0
   -1.6167    0.2619    1.6540 N   0  0  0  0  0  0  0  0  0  0  0  0
   -2.5366    0.0286    1.3007 H   0  0  0  0  0  0  0  0  0  0  0  0
   -1.4977    0.9474    2.9336 C   0  0  0  0  0  0  0  0  0  0  0  0
   -0.8060    1.7924    2.8505 H   0  0  0  0  0  0  0  0  0  0  0  0
   -2.4721    1.3298    3.2508 H   0  0  0  0  0  0  0  0  0  0  0  0
   -1.1259    0.2613    3.7018 H   0  0  0  0  0  0  0  0  0  0  0  0
  1  2  1  0  0  0  0
  2  3  1  0  0  0  0
  2  4  1  0  0  0  0
  2  5  1  0  0  0  0
  5  6  2  0  0  0  0
  5  7  1  0  0  0  0
  7  8  1  0  0  0  0
  7  9  1  0  0  0  0
  9 10  1  0  0  0  0
  9 11  1  0  0  0  0
  9 29  1  0  0  0  0
 11 12  1  0  0  0  0
 11 13  1  0  0  0  0
 11 14  1  0  0  0  0
 14 15  2  0  0  0  0
 14 28  1  0  0  0  0
 15 16  1  0  0  0  0
 15 17  1  0  0  0  0
 17 18  1  0  0  0  0
 17 19  1  0  0  0  0
 19 20  1  0  0  0  0
 19 28  2  0  0  0  0
 20 21  1  0  0  0  0
 20 22  2  0  0  0  0
 22 23  1  0  0  0  0
 22 24  1  0  0  0  0
 24 25  1  0  0  0  0
 24 26  2  0  0  0  0
 26 27  1  0  0  0  0
 26 28  1  0  0  0  0
 29 30  2  0  0  0  0
 29 31  1  0  0  0  0
 31 32  1  0  0  0  0
 31 33  1  0  0  0  0
 33 34  1  0  0  0  0
 33 35  1  0  0  0  0
 33 36  1  0  0  0  0
M  END
$$$$

  -OEChem-03222214083D

 36 37  0     1  0  0  0  0  0999 V2000
   -3.2640   -4.7914    0.6131 H   0  0  0  0  0  0  0  0  0  0  0  0
   -3.2578   -3.9341   -0.0664 C   0  0  0  0  0  0  0  0  0  0  0  0
   -4.2080   -3.4031    0.0296 H   0  0  0  0  0  0  0  0  0  0  0  0
   -3.1528   -4.2999   -1.0906 H   0  0  0  0  0  0  0  0  0  0  0  0
   -2.1061   -3.0072    0.2750 C   0  0  0  0  0  0  0  0  0  0  0  0
   -1.3757   -3.2692    1.2121 O   0  0  0  0  0  0  0  0  0  0  0  0
   -1.9001   -1.8650   -0.4730 N   0  0  0  0  0  0  0  0  0  0  0  0
   -2.4932   -1.7454   -1.2880 H   0  0  0  0  0  0  0  0  0  0  0  0
   -0.7338   -0.9696   -0.3227 C   0  0  1  0  0  0  0  0  0  0  0  0
    0.1468   -1.6157   -0.4135 H   0  0  0  0  0  0  0  0  0  0  0  0
   -0.6571   -0.0021   -1.5338 C   0  0  0  0  0  0  0  0  0  0  0  0
    0.2898   -0.1952   -2.0458 H   0  0  0  0  0  0  0  0  0  0  0  0
   -1.4479   -0.2432   -2.2501 H   0  0  0  0  0  0  0  0  0  0  0  0
   -0.7373    1.4806   -1.2458 C   0  0  0  0  0  0  0  0  0  0  0  0
   -1.7719    2.1570   -0.6411 C   0  0  0  0  0  0  0  0  0  0  0  0
   -2.6940    1.7104   -0.2802 H   0  0  0  0  0  0  0  0  0  0  0  0
   -1.4254    3.5032   -0.5736 N   0  0  0  0  0  0  0  0  0  0  0  0
   -1.9853    4.2374   -0.1462 H   0  0  0  0  0  0  0  0  0  0  0  0
   -0.1701    3.7022   -1.1213 C   0  0  0  0  0  0  0  0  0  0  0  0
    0.5988    4.8564   -1.2702 C   0  0  0  0  0  0  0  0  0  0  0  0
    0.2211    5.8126   -0.9255 H   0  0  0  0  0  0  0  0  0  0  0  0
    1.8643    4.7617   -1.8653 C   0  0  0  0  0  0  0  0  0  0  0  0
    2.4765    5.6505   -1.9849 H   0  0  0  0  0  0  0  0  0  0  0  0
    2.3443    3.5170   -2.3000 C   0  0  0  0  0  0  0  0  0  0  0  0
    3.3277    3.4429   -2.7543 H   0  0  0  0  0  0  0  0  0  0  0  0
    1.5617    2.3639   -2.1435 C   0  0  0  0  0  0  0  0  0  0  0  0
    1.9388    1.4016   -2.4719 H   0  0  0  0  0  0  0  0  0  0  0  0
    0.2967    2.4654   -1.5527 C   0  0  0  0  0  0  0  0  0  0  0  0
   -0.5690   -0.3309    1.0782 C   0  0  0  0  0  0  0  0  0  0  0  0
    0.5525   -0.1554    1.5370 O   0  0  0  0  0  0  0  0  0  0  0  0
   -1.6587    0.2092    1.7405 N   0  0  0  0  0  0  0  0  0  0  0  0
   -2.5703   -0.0976    1.4211 H   0  0  0  0  0  0  0  0  0  0  0  0
   -1.5483    0.8434    3.0475 C   0  0  0  0  0  0  0  0  0  0  0  0
   -0.8676    1.6999    2.9992 H   0  0  0  0  0  0  0  0  0  0  0  0
   -2.5277    1.2006    3.3787 H   0  0  0  0  0  0  0  0  0  0  0  0
   -1.1681    0.1318    3.7881 H   0  0  0  0  0  0  0  0  0  0  0  0
  1  2  1  0  0  0  0
  2  3  1  0  0  0  0
  2  4  1  0  0  0  0
  2  5  1  0  0  0  0
  5  6  2  0  0  0  0
  5  7  1  0  0  0  0
  7  8  1  0  0  0  0
  7  9  1  0  0  0  0
  9 10  1  0  0  0  0
  9 11  1  0  0  0  0
  9 29  1  0  0  0  0
 11 12  1  0  0  0  0
 11 13  1  0  0  0  0
 11 14  1  0  0  0  0
 14 15  2  0  0  0  0
 14 28  1  0  0  0  0
 15 16  1  0  0  0  0
 15 17  1  0  0  0  0
 17 18  1  0  0  0  0
 17 19  1  0  0  0  0
 19 20  1  0  0  0  0
 19 28  2  0  0  0  0
 20 21  1  0  0  0  0
 20 22  2  0  0  0  0
 22 23  1  0  0  0  0
 22 24  1  0  0  0  0
 24 25  1  0  0  0  0
 24 26  2  0  0  0  0
 26 27  1  0  0  0  0
 26 28  1  0  0  0  0
 29 30  2  0  0  0  0
 29 31  1  0  0  0  0
 31 32  1  0  0  0  0
 31 33  1  0  0  0  0
 33 34  1  0  0  0  0
 33 35  1  0  0  0  0
 33 36  1  0  0  0  0
M  END
$$$$

  -OEChem-03222214083D

 36 37  0     1  0  0  0  0  0999 V2000
   -3.2159   -4.8324    0.4871 H   0  0  0  0  0  0  0  0  0  0  0  0
   -3.2314   -3.9427   -0.1493 C   0  0  0  0  0  0  0  0  0  0  0  0
   -4.1902   -3.4350   -0.0207 H   0  0  0  0  0  0  0  0  0  0  0  0
   -3.1274   -4.2558   -1.1910 H   0  0  0  0  0  0  0  0  0  0  0  0
   -2.0950   -3.0119    0.2299 C   0  0  0  0  0  0  0  0  0  0  0  0
   -1.3553   -3.3027    1.1512 O   0  0  0  0  0  0  0  0  0  0  0  0
   -1.9151   -1.8306   -0.4618 N   0  0  0  0  0  0  0  0  0  0  0  0
   -2.5229   -1.6752   -1.2602 H   0  0  0  0  0  0  0  0  0  0  0  0
   -0.7629   -0.9240   -0.2779 C   0  0  1  0  0  0  0  0  0  0  0  0
    0.1187   -1.5670   -0.3840 H   0  0  0  0  0  0  0  0  0  0  0  0
   -0.6670    0.0648   -1.4721 C   0  0  0  0  0  0  0  0  0  0  0  0
    0.3053   -0.1173   -1.9391 H   0  0  0  0  0  0  0  0  0  0  0  0
   -1.4209   -0.1867   -2.2238 H   0  0  0  0  0  0  0  0  0  0  0  0
   -0.7627    1.5540   -1.2097 C   0  0  0  0  0  0  0  0  0  0  0  0
   -1.6506    2.2356   -0.4082 C   0  0  0  0  0  0  0  0  0  0  0  0
   -2.4559    1.7944    0.1704 H   0  0  0  0  0  0  0  0  0  0  0  0
   -1.3482    3.5920   -0.4803 N   0  0  0  0  0  0  0  0  0  0  0  0
   -1.8178    4.3299    0.0393 H   0  0  0  0  0  0  0  0  0  0  0  0
   -0.2712    3.7986   -1.3223 C   0  0  0  0  0  0  0  0  0  0  0  0
    0.3917    4.9655   -1.7020 C   0  0  0  0  0  0  0  0  0  0  0  0
    0.0719    5.9261   -1.3142 H   0  0  0  0  0  0  0  0  0  0  0  0
    1.4751    4.8779   -2.5865 C   0  0  0  0  0  0  0  0  0  0  0  0
    2.0038    5.7770   -2.8888 H   0  0  0  0  0  0  0  0  0  0  0  0
    1.8797    3.6282   -3.0786 C   0  0  0  0  0  0  0  0  0  0  0  0
    2.7210    3.5614   -3.7616 H   0  0  0  0  0  0  0  0  0  0  0  0
    1.2055    2.4623   -2.6876 C   0  0  0  0  0  0  0  0  0  0  0  0
    1.5259    1.4979   -3.0668 H   0  0  0  0  0  0  0  0  0  0  0  0
    0.1239    2.5551   -1.8025 C   0  0  0  0  0  0  0  0  0  0  0  0
   -0.5901   -0.3503    1.1495 C   0  0  0  0  0  0  0  0  0  0  0  0
    0.5345   -0.1538    1.5913 O   0  0  0  0  0  0  0  0  0  0  0  0
   -1.6783    0.1391    1.8526 N   0  0  0  0  0  0  0  0  0  0  0  0
   -2.5840   -0.2035    1.5511 H   0  0  0  0  0  0  0  0  0  0  0  0
   -1.5554    0.6946    3.1945 C   0  0  0  0  0  0  0  0  0  0  0  0
   -0.8960    1.5690    3.1877 H   0  0  0  0  0  0  0  0  0  0  0  0
   -2.5355    1.0068    3.5666 H   0  0  0  0  0  0  0  0  0  0  0  0
   -1.1435   -0.0517    3.8821 H   0  0  0  0  0  0  0  0  0  0  0  0
  1  2  1  0  0  0  0
  2  3  1  0  0  0  0
  2  4  1  0  0  0  0
  2  5  1  0  0  0  0
  5  6  2  0  0  0  0
  5  7  1  0  0  0  0
  7  8  1  0  0  0  0
  7  9  1  0  0  0  0
  9 10  1  0  0  0  0
  9 11  1  0  0  0  0
  9 29  1  0  0  0  0
 11 12  1  0  0  0  0
 11 13  1  0  0  0  0
 11 14  1  0  0  0  0
 14 15  2  0  0  0  0
 14 28  1  0  0  0  0
 15 16  1  0  0  0  0
 15 17  1  0  0  0  0
 17 18  1  0  0  0  0
 17 19  1  0  0  0  0
 19 20  1  0  0  0  0
 19 28  2  0  0  0  0
 20 21  1  0  0  0  0
 20 22  2  0  0  0  0
 22 23  1  0  0  0  0
 22 24  1  0  0  0  0
 24 25  1  0  0  0  0
 24 26  2  0  0  0  0
 26 27  1  0  0  0  0
 26 28  1  0  0  0  0
 29 30  2  0  0  0  0
 29 31  1  0  0  0  0
 31 32  1  0  0  0  0
 31 33  1  0  0  0  0
 33 34  1  0  0  0  0
 33 35  1  0  0  0  0
 33 36  1  0  0  0  0
M  END
$$$$

  -OEChem-03222214083D

 36 37  0     1  0  0  0  0  0999 V2000
   -3.1928   -4.8431    0.3361 H   0  0  0  0  0  0  0  0  0  0  0  0
   -3.2214   -3.9188   -0.2481 C   0  0  0  0  0  0  0  0  0  0  0  0
   -4.1806   -3.4246   -0.0762 H   0  0  0  0  0  0  0  0  0  0  0  0
   -3.1324   -4.1713   -1.3074 H   0  0  0  0  0  0  0  0  0  0  0  0
   -2.0820   -3.0061    0.1645 C   0  0  0  0  0  0  0  0  0  0  0  0
   -1.3202   -3.3488    1.0493 O   0  0  0  0  0  0  0  0  0  0  0  0
   -1.9211   -1.7843   -0.4583 N   0  0  0  0  0  0  0  0  0  0  0  0
   -2.5557   -1.5766   -1.2235 H   0  0  0  0  0  0  0  0  0  0  0  0
   -0.7764   -0.8763   -0.2378 C   0  0  1  0  0  0  0  0  0  0  0  0
    0.1064   -1.5119   -0.3761 H   0  0  0  0  0  0  0  0  0  0  0  0
   -0.6790    0.1564   -1.3959 C   0  0  0  0  0  0  0  0  0  0  0  0
    0.3040   -0.0082   -1.8474 H   0  0  0  0  0  0  0  0  0  0  0  0
   -1.4166   -0.0888   -2.1655 H   0  0  0  0  0  0  0  0  0  0  0  0
   -0.7781    1.6487   -1.1367 C   0  0  0  0  0  0  0  0  0  0  0  0
   -1.4525    2.3627   -0.1699 C   0  0  0  0  0  0  0  0  0  0  0  0
   -2.0801    1.9574    0.6140 H   0  0  0  0  0  0  0  0  0  0  0  0
   -1.2154    3.7178   -0.3811 N   0  0  0  0  0  0  0  0  0  0  0  0
   -1.5602    4.4741    0.2057 H   0  0  0  0  0  0  0  0  0  0  0  0
   -0.3974    3.8972   -1.4801 C   0  0  0  0  0  0  0  0  0  0  0  0
    0.1127    5.0508   -2.0756 C   0  0  0  0  0  0  0  0  0  0  0  0
   -0.1199    6.0270   -1.6650 H   0  0  0  0  0  0  0  0  0  0  0  0
    0.9295    4.9302   -3.2079 C   0  0  0  0  0  0  0  0  0  0  0  0
    1.3363    5.8190   -3.6810 H   0  0  0  0  0  0  0  0  0  0  0  0
    1.2245    3.6615   -3.7284 C   0  0  0  0  0  0  0  0  0  0  0  0
    1.8583    3.5700   -4.6051 H   0  0  0  0  0  0  0  0  0  0  0  0
    0.7079    2.5097   -3.1176 C   0  0  0  0  0  0  0  0  0  0  0  0
    0.9413    1.5301   -3.5207 H   0  0  0  0  0  0  0  0  0  0  0  0
   -0.1061    2.6354   -1.9845 C   0  0  0  0  0  0  0  0  0  0  0  0
   -0.5976   -0.3886    1.2196 C   0  0  0  0  0  0  0  0  0  0  0  0
    0.5268   -0.1867    1.6589 O   0  0  0  0  0  0  0  0  0  0  0  0
   -1.6863    0.0418    1.9595 N   0  0  0  0  0  0  0  0  0  0  0  0
   -2.5910   -0.2867    1.6378 H   0  0  0  0  0  0  0  0  0  0  0  0
   -1.5618    0.4979    3.3385 C   0  0  0  0  0  0  0  0  0  0  0  0
   -0.9199    1.3840    3.3929 H   0  0  0  0  0  0  0  0  0  0  0  0
   -2.5450    0.7600    3.7405 H   0  0  0  0  0  0  0  0  0  0  0  0
   -1.1286   -0.2897    3.9642 H   0  0  0  0  0  0  0  0  0  0  0  0
  1  2  1  0  0  0  0
  2  3  1  0  0  0  0
  2  4  1  0  0  0  0
  2  5  1  0  0  0  0
  5  6  2  0  0  0  0
  5  7  1  0  0  0  0
  7  8  1  0  0  0  0
  7  9  1  0  0  0  0
  9 10  1  0  0  0  0
  9 11  1  0  0  0  0
  9 29  1  0  0  0  0
 11 12  1  0  0  0  0
 11 13  1  0  0  0  0
 11 14  1  0  0  0  0
 14 15  2  0  0  0  0
 14 28  1  0  0  0  0
 15 16  1  0  0  0  0
 15 17  1  0  0  0  0
 17 18  1  0  0  0  0
 17 19  1  0  0  0  0
 19 20  1  0  0  0  0
 19 28  2  0  0  0  0
 20 21  1  0  0  0  0
 20 22  2  0  0  0  0
 22 23  1  0  0  0  0
 22 24  1  0  0  0  0
 24 25  1  0  0  0  0
 24 26  2  0  0  0  0
 26 27  1  0  0  0  0
 26 28  1  0  0  0  0
 29 30  2  0  0  0  0
 29 31  1  0  0  0  0
 31 32  1  0  0  0  0
 31 33  1  0  0  0  0
 33 34  1  0  0  0  0
 33 35  1  0  0  0  0
 33 36  1  0  0  0  0
M  END
$$$$

  -OEChem-03222214083D

 36 37  0     1  0  0  0  0  0999 V2000
   -3.3247   -4.7363    0.2864 H   0  0  0  0  0  0  0  0  0  0  0  0
   -3.3099   -3.8049   -0.2874 C   0  0  0  0  0  0  0  0  0  0  0  0
   -4.2319   -3.2541   -0.0872 H   0  0  0  0  0  0  0  0  0  0  0  0
   -3.2612   -4.0491   -1.3513 H   0  0  0  0  0  0  0  0  0  0  0  0
   -2.1074   -2.9687    0.1076 C   0  0  0  0  0  0  0  0  0  0  0  0
   -1.3235   -3.3879    0.9387 O   0  0  0  0  0  0  0  0  0  0  0  0
   -1.9136   -1.7302   -0.4716 N   0  0  0  0  0  0  0  0  0  0  0  0
   -2.5761   -1.4539   -1.1900 H   0  0  0  0  0  0  0  0  0  0  0  0
   -0.7350   -0.8680   -0.2406 C   0  0  1  0  0  0  0  0  0  0  0  0
    0.1337   -1.5105   -0.4269 H   0  0  0  0  0  0  0  0  0  0  0  0
   -0.6578    0.2252   -1.3458 C   0  0  0  0  0  0  0  0  0  0  0  0
    0.2994    0.0588   -1.8507 H   0  0  0  0  0  0  0  0  0  0  0  0
   -1.4373    0.0305   -2.0887 H   0  0  0  0  0  0  0  0  0  0  0  0
   -0.7018    1.7149   -1.0472 C   0  0  0  0  0  0  0  0  0  0  0  0
   -1.0612    2.4524    0.0621 C   0  0  0  0  0  0  0  0  0  0  0  0
   -1.3769    2.0771    1.0261 H   0  0  0  0  0  0  0  0  0  0  0  0
   -0.9453    3.8036   -0.2521 N   0  0  0  0  0  0  0  0  0  0  0  0
   -1.1106    4.5726    0.3938 H   0  0  0  0  0  0  0  0  0  0  0  0
   -0.5218    3.9607   -1.5571 C   0  0  0  0  0  0  0  0  0  0  0  0
   -0.2665    5.1007   -2.3192 C   0  0  0  0  0  0  0  0  0  0  0  0
   -0.3975    6.0870   -1.8881 H   0  0  0  0  0  0  0  0  0  0  0  0
    0.1609    4.9529   -3.6458 C   0  0  0  0  0  0  0  0  0  0  0  0
    0.3643    5.8310   -4.2515 H   0  0  0  0  0  0  0  0  0  0  0  0
    0.3278    3.6710   -4.1909 C   0  0  0  0  0  0  0  0  0  0  0  0
    0.6619    3.5588   -5.2179 H   0  0  0  0  0  0  0  0  0  0  0  0
    0.0683    2.5335   -3.4127 C   0  0  0  0  0  0  0  0  0  0  0  0
    0.2026    1.5432   -3.8347 H   0  0  0  0  0  0  0  0  0  0  0  0
   -0.3592    2.6873   -2.0876 C   0  0  0  0  0  0  0  0  0  0  0  0
   -0.5525   -0.4648    1.2405 C   0  0  0  0  0  0  0  0  0  0  0  0
    0.5711   -0.3103    1.6999 O   0  0  0  0  0  0  0  0  0  0  0  0
   -1.6397   -0.0460    1.9903 N   0  0  0  0  0  0  0  0  0  0  0  0
   -2.5503   -0.2995    1.6207 H   0  0  0  0  0  0  0  0  0  0  0  0
   -1.5316    0.2828    3.4065 C   0  0  0  0  0  0  0  0  0  0  0  0
   -0.8198    1.1011    3.5585 H   0  0  0  0  0  0  0  0  0  0  0  0
   -2.5043    0.5965    3.7973 H   0  0  0  0  0  0  0  0  0  0  0  0
   -1.1921   -0.5891    3.9760 H   0  0  0  0  0  0  0  0  0  0  0  0
  1  2  1  0  0  0  0
  2  3  1  0  0  0  0
  2  4  1  0  0  0  0
  2  5  1  0  0  0  0
  5  6  2  0  0  0  0
  5  7  1  0  0  0  0
  7  8  1  0  0  0  0
  7  9  1  0  0  0  0
  9 10  1  0  0  0  0
  9 11  1  0  0  0  0
  9 29  1  0  0  0  0
 11 12  1  0  0  0  0
 11 13  1  0  0  0  0
 11 14  1  0  0  0  0
 14 15  2  0  0  0  0
 14 28  1  0  0  0  0
 15 16  1  0  0  0  0
 15 17  1  0  0  0  0
 17 18  1  0  0  0  0
 17 19  1  0  0  0  0
 19 20  1  0  0  0  0
 19 28  2  0  0  0  0
 20 21  1  0  0  0  0
 20 22  2  0  0  0  0
 22 23  1  0  0  0  0
 22 24  1  0  0  0  0
 24 25  1  0  0  0  0
 24 26  2  0  0  0  0
 26 27  1  0  0  0  0
 26 28  1  0  0  0  0
 29 30  2  0  0  0  0
 29 31  1  0  0  0  0
 31 32  1  0  0  0  0
 31 33  1  0  0  0  0
 33 34  1  0  0  0  0
 33 35  1  0  0  0  0
 33 36  1  0  0  0  0
M  END
$$$$

  -OEChem-03222214083D

 36 37  0     1  0  0  0  0  0999 V2000
   -3.5029   -4.5968    0.3576 H   0  0  0  0  0  0  0  0  0  0  0  0
   -3.4266   -3.6910   -0.2507 C   0  0  0  0  0  0  0  0  0  0  0  0
   -4.2990   -3.0627   -0.0552 H   0  0  0  0  0  0  0  0  0  0  0  0
   -3.4197   -3.9762   -1.3054 H   0  0  0  0  0  0  0  0  0  0  0  0
   -2.1536   -2.9396    0.0921 C   0  0  0  0  0  0  0  0  0  0  0  0
   -1.3689   -3.4092    0.8950 O   0  0  0  0  0  0  0  0  0  0  0  0
   -1.8973   -1.7186   -0.4997 N   0  0  0  0  0  0  0  0  0  0  0  0
   -2.5731   -1.3904   -1.1830 H   0  0  0  0  0  0  0  0  0  0  0  0
   -0.6819   -0.9072   -0.2716 C   0  0  1  0  0  0  0  0  0  0  0  0
    0.1715   -1.5673   -0.4649 H   0  0  0  0  0  0  0  0  0  0  0  0
   -0.6081    0.2026   -1.3616 C   0  0  0  0  0  0  0  0  0  0  0  0
    0.3180    0.0184   -1.9161 H   0  0  0  0  0  0  0  0  0  0  0  0
   -1.4270    0.0435   -2.0696 H   0  0  0  0  0  0  0  0  0  0  0  0
   -0.5998    1.6890   -1.0394 C   0  0  0  0  0  0  0  0  0  0  0  0
   -0.6445    2.4152    0.1342 C   0  0  0  0  0  0  0  0  0  0  0  0
   -0.6267    2.0296    1.1471 H   0  0  0  0  0  0  0  0  0  0  0  0
   -0.6788    3.7689   -0.1887 N   0  0  0  0  0  0  0  0  0  0  0  0
   -0.6778    4.5319    0.4849 H   0  0  0  0  0  0  0  0  0  0  0  0
   -0.6618    3.9391   -1.5590 C   0  0  0  0  0  0  0  0  0  0  0  0
   -0.6854    5.0850   -2.3536 C   0  0  0  0  0  0  0  0  0  0  0  0
   -0.7256    6.0671   -1.8955 H   0  0  0  0  0  0  0  0  0  0  0  0
   -0.6562    4.9493   -3.7482 C   0  0  0  0  0  0  0  0  0  0  0  0
   -0.6739    5.8332   -4.3790 H   0  0  0  0  0  0  0  0  0  0  0  0
   -0.6011    3.6728   -4.3286 C   0  0  0  0  0  0  0  0  0  0  0  0
   -0.5741    3.5698   -5.4094 H   0  0  0  0  0  0  0  0  0  0  0  0
   -0.5767    2.5290   -3.5174 C   0  0  0  0  0  0  0  0  0  0  0  0
   -0.5282    1.5423   -3.9656 H   0  0  0  0  0  0  0  0  0  0  0  0
   -0.6100    2.6718   -2.1244 C   0  0  0  0  0  0  0  0  0  0  0  0
   -0.5147   -0.5068    1.2109 C   0  0  0  0  0  0  0  0  0  0  0  0
    0.6021   -0.3950    1.6985 O   0  0  0  0  0  0  0  0  0  0  0  0
   -1.6024   -0.0387    1.9308 N   0  0  0  0  0  0  0  0  0  0  0  0
   -2.5132   -0.2168    1.5204 H   0  0  0  0  0  0  0  0  0  0  0  0
   -1.5283    0.2770    3.3523 C   0  0  0  0  0  0  0  0  0  0  0  0
   -0.7631    1.0375    3.5408 H   0  0  0  0  0  0  0  0  0  0  0  0
   -2.4896    0.6636    3.7039 H   0  0  0  0  0  0  0  0  0  0  0  0
   -1.2811   -0.6201    3.9296 H   0  0  0  0  0  0  0  0  0  0  0  0
  1  2  1  0  0  0  0
  2  3  1  0  0  0  0
  2  4  1  0  0  0  0
  2  5  1  0  0  0  0
  5  6  2  0  0  0  0
  5  7  1  0  0  0  0
  7  8  1  0  0  0  0
  7  9  1  0  0  0  0
  9 10  1  0  0  0  0
  9 11  1  0  0  0  0
  9 29  1  0  0  0  0
 11 12  1  0  0  0  0
 11 13  1  0  0  0  0
 11 14  1  0  0  0  0
 14 15  2  0  0  0  0
 14 28  1  0  0  0  0
 15 16  1  0  0  0  0
 15 17  1  0  0  0  0
 17 18  1  0  0  0  0
 17 19  1  0  0  0  0
 19 20  1  0  0  0  0
 19 28  2  0  0  0  0
 20 21  1  0  0  0  0
 20 22  2  0  0  0  0
 22 23  1  0  0  0  0
 22 24  1  0  0  0  0
 24 25  1  0  0  0  0
 24 26  2  0  0  0  0
 26 27  1  0  0  0  0
 26 28  1  0  0  0  0
 29 30  2  0  0  0  0
 29 31  1  0  0  0  0
 31 32  1  0  0  0  0
 31 33  1  0  0  0  0
 33 34  1  0  0  0  0
 33 35  1  0  0  0  0
 33 36  1  0  0  0  0
M  END
$$$$

  -OEChem-03222214083D

 36 37  0     1  0  0  0  0  0999 V2000
   -3.5424   -4.5767    0.4350 H   0  0  0  0  0  0  0  0  0  0  0  0
   -3.4665   -3.6746   -0.1788 C   0  0  0  0  0  0  0  0  0  0  0  0
   -4.3226   -3.0306    0.0361 H   0  0  0  0  0  0  0  0  0  0  0  0
   -3.4907   -3.9639   -1.2321 H   0  0  0  0  0  0  0  0  0  0  0  0
   -2.1731   -2.9433    0.1278 C   0  0  0  0  0  0  0  0  0  0  0  0
   -1.3837   -3.4126    0.9265 O   0  0  0  0  0  0  0  0  0  0  0  0
   -1.8984   -1.7466   -0.5032 N   0  0  0  0  0  0  0  0  0  0  0  0
   -2.5866   -1.4105   -1.1698 H   0  0  0  0  0  0  0  0  0  0  0  0
   -0.6681   -0.9514   -0.3014 C   0  0  1  0  0  0  0  0  0  0  0  0
    0.1790   -1.6199   -0.4928 H   0  0  0  0  0  0  0  0  0  0  0  0
   -0.6145    0.1462   -1.4062 C   0  0  0  0  0  0  0  0  0  0  0  0
    0.2856   -0.0474   -1.9984 H   0  0  0  0  0  0  0  0  0  0  0  0
   -1.4627   -0.0116   -2.0788 H   0  0  0  0  0  0  0  0  0  0  0  0
   -0.5892    1.6333   -1.0832 C   0  0  0  0  0  0  0  0  0  0  0  0
   -0.3395    2.3436    0.0751 C   0  0  0  0  0  0  0  0  0  0  0  0
   -0.0387    1.9410    1.0381 H   0  0  0  0  0  0  0  0  0  0  0  0
   -0.4979    3.6988   -0.1994 N   0  0  0  0  0  0  0  0  0  0  0  0
   -0.3426    4.4525    0.4669 H   0  0  0  0  0  0  0  0  0  0  0  0
   -0.8451    3.8859   -1.5231 C   0  0  0  0  0  0  0  0  0  0  0  0
   -1.1032    5.0416   -2.2598 C   0  0  0  0  0  0  0  0  0  0  0  0
   -1.0470    6.0152   -1.7858 H   0  0  0  0  0  0  0  0  0  0  0  0
   -1.4329    4.9264   -3.6170 C   0  0  0  0  0  0  0  0  0  0  0  0
   -1.6358    5.8178   -4.2031 H   0  0  0  0  0  0  0  0  0  0  0  0
   -1.4959    3.6610   -4.2193 C   0  0  0  0  0  0  0  0  0  0  0  0
   -1.7466    3.5742   -5.2723 H   0  0  0  0  0  0  0  0  0  0  0  0
   -1.2315    2.5075   -3.4670 C   0  0  0  0  0  0  0  0  0  0  0  0
   -1.2723    1.5308   -3.9368 H   0  0  0  0  0  0  0  0  0  0  0  0
   -0.9089    2.6281   -2.1093 C   0  0  0  0  0  0  0  0  0  0  0  0
   -0.4899   -0.5079    1.1667 C   0  0  0  0  0  0  0  0  0  0  0  0
    0.6300   -0.4252    1.6549 O   0  0  0  0  0  0  0  0  0  0  0  0
   -1.5637    0.0059    1.8748 N   0  0  0  0  0  0  0  0  0  0  0  0
   -2.4799   -0.1157    1.4558 H   0  0  0  0  0  0  0  0  0  0  0  0
   -1.4766    0.4052    3.2735 C   0  0  0  0  0  0  0  0  0  0  0  0
   -0.7294    1.1950    3.4038 H   0  0  0  0  0  0  0  0  0  0  0  0
   -2.4428    0.7853    3.6181 H   0  0  0  0  0  0  0  0  0  0  0  0
   -1.1967   -0.4504    3.8973 H   0  0  0  0  0  0  0  0  0  0  0  0
  1  2  1  0  0  0  0
  2  3  1  0  0  0  0
  2  4  1  0  0  0  0
  2  5  1  0  0  0  0
  5  6  2  0  0  0  0
  5  7  1  0  0  0  0
  7  8  1  0  0  0  0
  7  9  1  0  0  0  0
  9 10  1  0  0  0  0
  9 11  1  0  0  0  0
  9 29  1  0  0  0  0
 11 12  1  0  0  0  0
 11 13  1  0  0  0  0
 11 14  1  0  0  0  0
 14 15  2  0  0  0  0
 14 28  1  0  0  0  0
 15 16  1  0  0  0  0
 15 17  1  0  0  0  0
 17 18  1  0  0  0  0
 17 19  1  0  0  0  0
 19 20  1  0  0  0  0
 19 28  2  0  0  0  0
 20 21  1  0  0  0  0
 20 22  2  0  0  0  0
 22 23  1  0  0  0  0
 22 24  1  0  0  0  0
 24 25  1  0  0  0  0
 24 26  2  0  0  0  0
 26 27  1  0  0  0  0
 26 28  1  0  0  0  0
 29 30  2  0  0  0  0
 29 31  1  0  0  0  0
 31 32  1  0  0  0  0
 31 33  1  0  0  0  0
 33 34  1  0  0  0  0
 33 35  1  0  0  0  0
 33 36  1  0  0  0  0
M  END
$$$$

  -OEChem-03222214083D

 36 37  0     1  0  0  0  0  0999 V2000
   -3.5647   -4.5559    0.5530 H   0  0  0  0  0  0  0  0  0  0  0  0
   -3.4878   -3.6706   -0.0846 C   0  0  0  0  0  0  0  0  0  0  0  0
   -4.3211   -3.0016    0.1424 H   0  0  0  0  0  0  0  0  0  0  0  0
   -3.5532   -3.9838   -1.1294 H   0  0  0  0  0  0  0  0  0  0  0  0
   -2.1686   -2.9634    0.1631 C   0  0  0  0  0  0  0  0  0  0  0  0
   -1.3667   -3.4322    0.9496 O   0  0  0  0  0  0  0  0  0  0  0  0
   -1.8789   -1.7959   -0.5148 N   0  0  0  0  0  0  0  0  0  0  0  0
   -2.5848   -1.4500   -1.1569 H   0  0  0  0  0  0  0  0  0  0  0  0
   -0.6447   -1.0026   -0.3297 C   0  0  1  0  0  0  0  0  0  0  0  0
    0.2044   -1.6752   -0.4959 H   0  0  0  0  0  0  0  0  0  0  0  0
   -0.5975    0.0663   -1.4635 C   0  0  0  0  0  0  0  0  0  0  0  0
    0.3000   -0.1334   -2.0575 H   0  0  0  0  0  0  0  0  0  0  0  0
   -1.4468   -0.1074   -2.1297 H   0  0  0  0  0  0  0  0  0  0  0  0
   -0.5727    1.5543   -1.1460 C   0  0  0  0  0  0  0  0  0  0  0  0
   -0.0599    2.2484   -0.0679 C   0  0  0  0  0  0  0  0  0  0  0  0
    0.4924    1.8297    0.7701 H   0  0  0  0  0  0  0  0  0  0  0  0
   -0.3378    3.6000   -0.2458 N   0  0  0  0  0  0  0  0  0  0  0  0
   -0.0516    4.3445    0.3867 H   0  0  0  0  0  0  0  0  0  0  0  0
   -1.0221    3.7993   -1.4290 C   0  0  0  0  0  0  0  0  0  0  0  0
   -1.5047    4.9611   -2.0306 C   0  0  0  0  0  0  0  0  0  0  0  0
   -1.3636    5.9236   -1.5514 H   0  0  0  0  0  0  0  0  0  0  0  0
   -2.1701    4.8669   -3.2601 C   0  0  0  0  0  0  0  0  0  0  0  0
   -2.5511    5.7633   -3.7408 H   0  0  0  0  0  0  0  0  0  0  0  0
   -2.3399    3.6159   -3.8715 C   0  0  0  0  0  0  0  0  0  0  0  0
   -2.8513    3.5460   -4.8270 H   0  0  0  0  0  0  0  0  0  0  0  0
   -1.8469    2.4559   -3.2564 C   0  0  0  0  0  0  0  0  0  0  0  0
   -1.9733    1.4928   -3.7386 H   0  0  0  0  0  0  0  0  0  0  0  0
   -1.1874    2.5538   -2.0239 C   0  0  0  0  0  0  0  0  0  0  0  0
   -0.4809   -0.4990    1.1217 C   0  0  0  0  0  0  0  0  0  0  0  0
    0.6302   -0.4482    1.6352 O   0  0  0  0  0  0  0  0  0  0  0  0
   -1.5547    0.0547    1.7974 N   0  0  0  0  0  0  0  0  0  0  0  0
   -2.4540    0.0378    1.3282 H   0  0  0  0  0  0  0  0  0  0  0  0
   -1.4648    0.5958    3.1469 C   0  0  0  0  0  0  0  0  0  0  0  0
   -0.7744    1.4451    3.1739 H   0  0  0  0  0  0  0  0  0  0  0  0
   -2.4479    0.9387    3.4827 H   0  0  0  0  0  0  0  0  0  0  0  0
   -1.1089   -0.1711    3.8432 H   0  0  0  0  0  0  0  0  0  0  0  0
  1  2  1  0  0  0  0
  2  3  1  0  0  0  0
  2  4  1  0  0  0  0
  2  5  1  0  0  0  0
  5  6  2  0  0  0  0
  5  7  1  0  0  0  0
  7  8  1  0  0  0  0
  7  9  1  0  0  0  0
  9 10  1  0  0  0  0
  9 11  1  0  0  0  0
  9 29  1  0  0  0  0
 11 12  1  0  0  0  0
 11 13  1  0  0  0  0
 11 14  1  0  0  0  0
 14 15  2  0  0  0  0
 14 28  1  0  0  0  0
 15 16  1  0  0  0  0
 15 17  1  0  0  0  0
 17 18  1  0  0  0  0
 17 19  1  0  0  0  0
 19 20  1  0  0  0  0
 19 28  2  0  0  0  0
 20 21  1  0  0  0  0
 20 22  2  0  0  0  0
 22 23  1  0  0  0  0
 22 24  1  0  0  0  0
 24 25  1  0  0  0  0
 24 26  2  0  0  0  0
 26 27  1  0  0  0  0
 26 28  1  0  0  0  0
 29 30  2  0  0  0  0
 29 31  1  0  0  0  0
 31 32  1  0  0  0  0
 31 33  1  0  0  0  0
 33 34  1  0  0  0  0
 33 35  1  0  0  0  0
 33 36  1  0  0  0  0
M  END
$$$$

  -OEChem-03222214083D

 36 37  0     1  0  0  0  0  0999 V2000
   -3.5653   -4.5279    0.6747 H   0  0  0  0  0  0  0  0  0  0  0  0
   -3.4842   -3.6719   -0.0014 C   0  0  0  0  0  0  0  0  0  0  0  0
   -4.3023   -2.9795    0.2101 H   0  0  0  0  0  0  0  0  0  0  0  0
   -3.5714   -4.0278   -1.0307 H   0  0  0  0  0  0  0  0  0  0  0  0
   -2.1504   -2.9769    0.1965 C   0  0  0  0  0  0  0  0  0  0  0  0
   -1.3451   -3.4249    0.9916 O   0  0  0  0  0  0  0  0  0  0  0  0
   -1.8511   -1.8453   -0.5357 N   0  0  0  0  0  0  0  0  0  0  0  0
   -2.5675   -1.5050   -1.1691 H   0  0  0  0  0  0  0  0  0  0  0  0
   -0.6235   -1.0413   -0.3603 C   0  0  1  0  0  0  0  0  0  0  0  0
    0.2322   -1.7150   -0.4824 H   0  0  0  0  0  0  0  0  0  0  0  0
   -0.5682   -0.0165   -1.5314 C   0  0  0  0  0  0  0  0  0  0  0  0
    0.3464   -0.2182   -2.0978 H   0  0  0  0  0  0  0  0  0  0  0  0
   -1.3962   -0.2134   -2.2172 H   0  0  0  0  0  0  0  0  0  0  0  0
   -0.5594    1.4680   -1.2140 C   0  0  0  0  0  0  0  0  0  0  0  0
    0.1772    2.1487   -0.2677 C   0  0  0  0  0  0  0  0  0  0  0  0
    0.9283    1.7154    0.3909 H   0  0  0  0  0  0  0  0  0  0  0  0
   -0.1998    3.4870   -0.3061 N   0  0  0  0  0  0  0  0  0  0  0  0
    0.1900    4.2214    0.2814 H   0  0  0  0  0  0  0  0  0  0  0  0
   -1.1744    3.6850   -1.2665 C   0  0  0  0  0  0  0  0  0  0  0  0
   -1.8549    4.8351   -1.6649 C   0  0  0  0  0  0  0  0  0  0  0  0
   -1.6442    5.7868   -1.1897 H   0  0  0  0  0  0  0  0  0  0  0  0
   -2.8104    4.7433   -2.6856 C   0  0  0  0  0  0  0  0  0  0  0  0
   -3.3474    5.6311   -3.0068 H   0  0  0  0  0  0  0  0  0  0  0  0
   -3.0699    3.5069   -3.2953 C   0  0  0  0  0  0  0  0  0  0  0  0
   -3.8075    3.4397   -4.0894 H   0  0  0  0  0  0  0  0  0  0  0  0
   -2.3773    2.3581   -2.8860 C   0  0  0  0  0  0  0  0  0  0  0  0
   -2.5768    1.4066   -3.3660 H   0  0  0  0  0  0  0  0  0  0  0  0
   -1.4268    2.4533   -1.8613 C   0  0  0  0  0  0  0  0  0  0  0  0
   -0.4913   -0.4611    1.0677 C   0  0  0  0  0  0  0  0  0  0  0  0
    0.6075   -0.4002    1.6073 O   0  0  0  0  0  0  0  0  0  0  0  0
   -1.5794    0.1269    1.6896 N   0  0  0  0  0  0  0  0  0  0  0  0
   -2.4387    0.1846    1.1536 H   0  0  0  0  0  0  0  0  0  0  0  0
   -1.4931    0.8254    2.9646 C   0  0  0  0  0  0  0  0  0  0  0  0
   -0.8511    1.7076    2.8743 H   0  0  0  0  0  0  0  0  0  0  0  0
   -2.4873    1.1505    3.2851 H   0  0  0  0  0  0  0  0  0  0  0  0
   -1.0817    0.1656    3.7356 H   0  0  0  0  0  0  0  0  0  0  0  0
  1  2  1  0  0  0  0
  2  3  1  0  0  0  0
  2  4  1  0  0  0  0
  2  5  1  0  0  0  0
  5  6  2  0  0  0  0
  5  7  1  0  0  0  0
  7  8  1  0  0  0  0
  7  9  1  0  0  0  0
  9 10  1  0  0  0  0
  9 11  1  0  0  0  0
  9 29  1  0  0  0  0
 11 12  1  0  0  0  0
 11 13  1  0  0  0  0
 11 14  1  0  0  0  0
 14 15  2  0  0  0  0
 14 28  1  0  0  0  0
 15 16  1  0  0  0  0
 15 17  1  0  0  0  0
 17 18  1  0  0  0  0
 17 19  1  0  0  0  0
 19 20  1  0  0  0  0
 19 28  2  0  0  0  0
 20 21  1  0  0  0  0
 20 22  2  0  0  0  0
 22 23  1  0  0  0  0
 22 24  1  0  0  0  0
 24 25  1  0  0  0  0
 24 26  2  0  0  0  0
 26 27  1  0  0  0  0
 26 28  1  0  0  0  0
 29 30  2  0  0  0  0
 29 31  1  0  0  0  0
 31 32  1  0  0  0  0
 31 33  1  0  0  0  0
 33 34  1  0  0  0  0
 33 35  1  0  0  0  0
 33 36  1  0  0  0  0
M  END
$$$$

  -OEChem-03222214083D

 36 37  0     1  0  0  0  0  0999 V2000
   -3.5452   -4.5283    0.7537 H   0  0  0  0  0  0  0  0  0  0  0  0
   -3.4656   -3.7002    0.0439 C   0  0  0  0  0  0  0  0  0  0  0  0
   -4.2899   -3.0055    0.2217 H   0  0  0  0  0  0  0  0  0  0  0  0
   -3.5437   -4.0982   -0.9706 H   0  0  0  0  0  0  0  0  0  0  0  0
   -2.1376   -2.9885    0.2215 C   0  0  0  0  0  0  0  0  0  0  0  0
   -1.3285   -3.4053    1.0298 O   0  0  0  0  0  0  0  0  0  0  0  0
   -1.8462   -1.8791   -0.5463 N   0  0  0  0  0  0  0  0  0  0  0  0
   -2.5695   -1.5576   -1.1811 H   0  0  0  0  0  0  0  0  0  0  0  0
   -0.6328   -1.0534   -0.3825 C   0  0  1  0  0  0  0  0  0  0  0  0
    0.2307   -1.7220   -0.4747 H   0  0  0  0  0  0  0  0  0  0  0  0
   -0.5698   -0.0638   -1.5786 C   0  0  0  0  0  0  0  0  0  0  0  0
    0.3642   -0.2580   -2.1155 H   0  0  0  0  0  0  0  0  0  0  0  0
   -1.3762   -0.2757   -2.2857 H   0  0  0  0  0  0  0  0  0  0  0  0
   -0.5862    1.4116   -1.2449 C   0  0  0  0  0  0  0  0  0  0  0  0
    0.3257    2.1050   -0.4805 C   0  0  0  0  0  0  0  0  0  0  0  0
    1.2169    1.6814   -0.0179 H   0  0  0  0  0  0  0  0  0  0  0  0
   -0.1111    3.4232   -0.3883 N   0  0  0  0  0  0  0  0  0  0  0  0
    0.3662    4.1622    0.1239 H   0  0  0  0  0  0  0  0  0  0  0  0
   -1.2994    3.5873   -1.0787 C   0  0  0  0  0  0  0  0  0  0  0  0
   -2.1130    4.7043   -1.2658 C   0  0  0  0  0  0  0  0  0  0  0  0
   -1.8406    5.6576   -0.8267 H   0  0  0  0  0  0  0  0  0  0  0  0
   -3.2825    4.5776   -2.0277 C   0  0  0  0  0  0  0  0  0  0  0  0
   -3.9239    5.4402   -2.1839 H   0  0  0  0  0  0  0  0  0  0  0  0
   -3.6233    3.3387   -2.5911 C   0  0  0  0  0  0  0  0  0  0  0  0
   -4.5281    3.2455   -3.1844 H   0  0  0  0  0  0  0  0  0  0  0  0
   -2.7980    2.2223   -2.3946 C   0  0  0  0  0  0  0  0  0  0  0  0
   -3.0618    1.2678   -2.8359 H   0  0  0  0  0  0  0  0  0  0  0  0
   -1.6314    2.3551   -1.6320 C   0  0  0  0  0  0  0  0  0  0  0  0
   -0.5055   -0.4118    1.0208 C   0  0  0  0  0  0  0  0  0  0  0  0
    0.5978   -0.3044    1.5447 O   0  0  0  0  0  0  0  0  0  0  0  0
   -1.5982    0.1929    1.6183 N   0  0  0  0  0  0  0  0  0  0  0  0
   -2.4441    0.2509    1.0619 H   0  0  0  0  0  0  0  0  0  0  0  0
   -1.4972    1.0030    2.8242 C   0  0  0  0  0  0  0  0  0  0  0  0
   -0.8643    1.8783    2.6447 H   0  0  0  0  0  0  0  0  0  0  0  0
   -2.4888    1.3485    3.1309 H   0  0  0  0  0  0  0  0  0  0  0  0
   -1.0677    0.4172    3.6438 H   0  0  0  0  0  0  0  0  0  0  0  0
  1  2  1  0  0  0  0
  2  3  1  0  0  0  0
  2  4  1  0  0  0  0
  2  5  1  0  0  0  0
  5  6  2  0  0  0  0
  5  7  1  0  0  0  0
  7  8  1  0  0  0  0
  7  9  1  0  0  0  0
  9 10  1  0  0  0  0
  9 11  1  0  0  0  0
  9 29  1  0  0  0  0
 11 12  1  0  0  0  0
 11 13  1  0  0  0  0
 11 14  1  0  0  0  0
 14 15  2  0  0  0  0
 14 28  1  0  0  0  0
 15 16  1  0  0  0  0
 15 17  1  0  0  0  0
 17 18  1  0  0  0  0
 17 19  1  0  0  0  0
 19 20  1  0  0  0  0
 19 28  2  0  0  0  0
 20 21  1  0  0  0  0
 20 22  2  0  0  0  0
 22 23  1  0  0  0  0
 22 24  1  0  0  0  0
 24 25  1  0  0  0  0
 24 26  2  0  0  0  0
 26 27  1  0  0  0  0
 26 28  1  0  0  0  0
 29 30  2  0  0  0  0
 29 31  1  0  0  0  0
 31 32  1  0  0  0  0
 31 33  1  0  0  0  0
 33 34  1  0  0  0  0
 33 35  1  0  0  0  0
 33 36  1  0  0  0  0
M  END
$$$$

  -OEChem-03222214083D

 36 37  0     1  0  0  0  0  0999 V2000
   -3.5090   -4.5611    0.7812 H   0  0  0  0  0  0  0  0  0  0  0  0
   -3.4517   -3.7272    0.0756 C   0  0  0  0  0  0  0  0  0  0  0  0
   -4.2866   -3.0485    0.2653 H   0  0  0  0  0  0  0  0  0  0  0  0
   -3.5323   -4.1209   -0.9405 H   0  0  0  0  0  0  0  0  0  0  0  0
   -2.1351   -2.9928    0.2447 C   0  0  0  0  0  0  0  0  0  0  0  0
   -1.3260   -3.3792    1.0682 O   0  0  0  0  0  0  0  0  0  0  0  0
   -1.8530   -1.8991   -0.5490 N   0  0  0  0  0  0  0  0  0  0  0  0
   -2.5746   -1.6032   -1.1977 H   0  0  0  0  0  0  0  0  0  0  0  0
   -0.6511   -1.0562   -0.3949 C   0  0  1  0  0  0  0  0  0  0  0  0
    0.2158   -1.7230   -0.4644 H   0  0  0  0  0  0  0  0  0  0  0  0
   -0.5754   -0.0924   -1.6082 C   0  0  0  0  0  0  0  0  0  0  0  0
    0.3716   -0.2840   -2.1226 H   0  0  0  0  0  0  0  0  0  0  0  0
   -1.3681   -0.3105   -2.3297 H   0  0  0  0  0  0  0  0  0  0  0  0
   -0.6107    1.3750   -1.2577 C   0  0  0  0  0  0  0  0  0  0  0  0
    0.4200    2.1086   -0.7183 C   0  0  0  0  0  0  0  0  0  0  0  0
    1.4100    1.7239   -0.4766 H   0  0  0  0  0  0  0  0  0  0  0  0
   -0.0529    3.3994   -0.4969 N   0  0  0  0  0  0  0  0  0  0  0  0
    0.4856    4.1542   -0.0761 H   0  0  0  0  0  0  0  0  0  0  0  0
   -1.3796    3.5007   -0.8808 C   0  0  0  0  0  0  0  0  0  0  0  0
   -2.2757    4.5681   -0.8406 C   0  0  0  0  0  0  0  0  0  0  0  0
   -1.9591    5.5322   -0.4584 H   0  0  0  0  0  0  0  0  0  0  0  0
   -3.5859    4.3778   -1.3012 C   0  0  0  0  0  0  0  0  0  0  0  0
   -4.2929    5.2020   -1.2773 H   0  0  0  0  0  0  0  0  0  0  0  0
   -3.9829    3.1259   -1.7954 C   0  0  0  0  0  0  0  0  0  0  0  0
   -4.9979    2.9850   -2.1548 H   0  0  0  0  0  0  0  0  0  0  0  0
   -3.0728    2.0594   -1.8305 C   0  0  0  0  0  0  0  0  0  0  0  0
   -3.3775    1.0939   -2.2181 H   0  0  0  0  0  0  0  0  0  0  0  0
   -1.7672    2.2568   -1.3670 C   0  0  0  0  0  0  0  0  0  0  0  0
   -0.5221   -0.3693    0.9876 C   0  0  0  0  0  0  0  0  0  0  0  0
    0.5851   -0.2342    1.4972 O   0  0  0  0  0  0  0  0  0  0  0  0
   -1.6173    0.2470    1.5689 N   0  0  0  0  0  0  0  0  0  0  0  0
   -2.4492    0.3112    0.9925 H   0  0  0  0  0  0  0  0  0  0  0  0
   -1.5020    1.1358    2.7166 C   0  0  0  0  0  0  0  0  0  0  0  0
   -0.9285    2.0299    2.4505 H   0  0  0  0  0  0  0  0  0  0  0  0
   -2.4952    1.4466    3.0540 H   0  0  0  0  0  0  0  0  0  0  0  0
   -1.0004    0.6277    3.5471 H   0  0  0  0  0  0  0  0  0  0  0  0
  1  2  1  0  0  0  0
  2  3  1  0  0  0  0
  2  4  1  0  0  0  0
  2  5  1  0  0  0  0
  5  6  2  0  0  0  0
  5  7  1  0  0  0  0
  7  8  1  0  0  0  0
  7  9  1  0  0  0  0
  9 10  1  0  0  0  0
  9 11  1  0  0  0  0
  9 29  1  0  0  0  0
 11 12  1  0  0  0  0
 11 13  1  0  0  0  0
 11 14  1  0  0  0  0
 14 15  2  0  0  0  0
 14 28  1  0  0  0  0
 15 16  1  0  0  0  0
 15 17  1  0  0  0  0
 17 18  1  0  0  0  0
 17 19  1  0  0  0  0
 19 20  1  0  0  0  0
 19 28  2  0  0  0  0
 20 21  1  0  0  0  0
 20 22  2  0  0  0  0
 22 23  1  0  0  0  0
 22 24  1  0  0  0  0
 24 25  1  0  0  0  0
 24 26  2  0  0  0  0
 26 27  1  0  0  0  0
 26 28  1  0  0  0  0
 29 30  2  0  0  0  0
 29 31  1  0  0  0  0
 31 32  1  0  0  0  0
 31 33  1  0  0  0  0
 33 34  1  0  0  0  0
 33 35  1  0  0  0  0
 33 36  1  0  0  0  0
M  END
$$$$

  -OEChem-03222214083D

 36 37  0     1  0  0  0  0  0999 V2000
   -3.5013   -4.5811    0.7947 H   0  0  0  0  0  0  0  0  0  0  0  0
   -3.4473   -3.7525    0.0829 C   0  0  0  0  0  0  0  0  0  0  0  0
   -4.2946   -3.0853    0.2571 H   0  0  0  0  0  0  0  0  0  0  0  0
   -3.5091   -4.1560   -0.9306 H   0  0  0  0  0  0  0  0  0  0  0  0
   -2.1443   -2.9964    0.2620 C   0  0  0  0  0  0  0  0  0  0  0  0
   -1.3372   -3.3662    1.0948 O   0  0  0  0  0  0  0  0  0  0  0  0
   -1.8736   -1.9004   -0.5324 N   0  0  0  0  0  0  0  0  0  0  0  0
   -2.5819   -1.6335   -1.2073 H   0  0  0  0  0  0  0  0  0  0  0  0
   -0.6757   -1.0504   -0.3880 C   0  0  1  0  0  0  0  0  0  0  0  0
    0.1895   -1.7189   -0.4601 H   0  0  0  0  0  0  0  0  0  0  0  0
   -0.5969   -0.0951   -1.6065 C   0  0  0  0  0  0  0  0  0  0  0  0
    0.3526   -0.2870   -2.1169 H   0  0  0  0  0  0  0  0  0  0  0  0
   -1.3903   -0.3105   -2.3286 H   0  0  0  0  0  0  0  0  0  0  0  0
   -0.6381    1.3677   -1.2466 C   0  0  0  0  0  0  0  0  0  0  0  0
    0.4435    2.1689   -0.9720 C   0  0  0  0  0  0  0  0  0  0  0  0
    1.4840    1.8493   -0.9747 H   0  0  0  0  0  0  0  0  0  0  0  0
   -0.0439    3.4333   -0.6495 N   0  0  0  0  0  0  0  0  0  0  0  0
    0.5290    4.2250   -0.3641 H   0  0  0  0  0  0  0  0  0  0  0  0
   -1.4277    3.4502   -0.7126 C   0  0  0  0  0  0  0  0  0  0  0  0
   -2.3563    4.4607   -0.4655 C   0  0  0  0  0  0  0  0  0  0  0  0
   -2.0215    5.4478   -0.1661 H   0  0  0  0  0  0  0  0  0  0  0  0
   -3.7229    4.1826   -0.6090 C   0  0  0  0  0  0  0  0  0  0  0  0
   -4.4561    4.9616   -0.4207 H   0  0  0  0  0  0  0  0  0  0  0  0
   -4.1439    2.9016   -0.9987 C   0  0  0  0  0  0  0  0  0  0  0  0
   -5.2036    2.6935   -1.1129 H   0  0  0  0  0  0  0  0  0  0  0  0
   -3.2010    1.8930   -1.2438 C   0  0  0  0  0  0  0  0  0  0  0  0
   -3.5226    0.9041   -1.5505 H   0  0  0  0  0  0  0  0  0  0  0  0
   -1.8397    2.1783   -1.0932 C   0  0  0  0  0  0  0  0  0  0  0  0
   -0.5220   -0.3544    0.9887 C   0  0  0  0  0  0  0  0  0  0  0  0
    0.5953   -0.2217    1.4758 O   0  0  0  0  0  0  0  0  0  0  0  0
   -1.6031    0.2655    1.5925 N   0  0  0  0  0  0  0  0  0  0  0  0
   -2.4386    0.3473    1.0236 H   0  0  0  0  0  0  0  0  0  0  0  0
   -1.4517    1.1728    2.7217 C   0  0  0  0  0  0  0  0  0  0  0  0
   -0.8622    2.0484    2.4303 H   0  0  0  0  0  0  0  0  0  0  0  0
   -2.4327    1.5122    3.0671 H   0  0  0  0  0  0  0  0  0  0  0  0
   -0.9494    0.6691    3.5543 H   0  0  0  0  0  0  0  0  0  0  0  0
  1  2  1  0  0  0  0
  2  3  1  0  0  0  0
  2  4  1  0  0  0  0
  2  5  1  0  0  0  0
  5  6  2  0  0  0  0
  5  7  1  0  0  0  0
  7  8  1  0  0  0  0
  7  9  1  0  0  0  0
  9 10  1  0  0  0  0
  9 11  1  0  0  0  0
  9 29  1  0  0  0  0
 11 12  1  0  0  0  0
 11 13  1  0  0  0  0
 11 14  1  0  0  0  0
 14 15  2  0  0  0  0
 14 28  1  0  0  0  0
 15 16  1  0  0  0  0
 15 17  1  0  0  0  0
 17 18  1  0  0  0  0
 17 19  1  0  0  0  0
 19 20  1  0  0  0  0
 19 28  2  0  0  0  0
 20 21  1  0  0  0  0
 20 22  2  0  0  0  0
 22 23  1  0  0  0  0
 22 24  1  0  0  0  0
 24 25  1  0  0  0  0
 24 26  2  0  0  0  0
 26 27  1  0  0  0  0
 26 28  1  0  0  0  0
 29 30  2  0  0  0  0
 29 31  1  0  0  0  0
 31 32  1  0  0  0  0
 31 33  1  0  0  0  0
 33 34  1  0  0  0  0
 33 35  1  0  0  0  0
 33 36  1  0  0  0  0
M  END
$$$$

  -OEChem-03222214083D

 36 37  0     1  0  0  0  0  0999 V2000
   -3.4730   -4.6416    0.7758 H   0  0  0  0  0  0  0  0  0  0  0  0
   -3.4308   -3.8052    0.0720 C   0  0  0  0  0  0  0  0  0  0  0  0
   -4.2946   -3.1588    0.2437 H   0  0  0  0  0  0  0  0  0  0  0  0
   -3.4739   -4.2002   -0.9458 H   0  0  0  0  0  0  0  0  0  0  0  0
   -2.1474   -3.0213    0.2710 C   0  0  0  0  0  0  0  0  0  0  0  0
   -1.3289   -3.3951    1.0905 O   0  0  0  0  0  0  0  0  0  0  0  0
   -1.9075   -1.8961   -0.4917 N   0  0  0  0  0  0  0  0  0  0  0  0
   -2.6116   -1.6438   -1.1768 H   0  0  0  0  0  0  0  0  0  0  0  0
   -0.7066   -1.0482   -0.3620 C   0  0  1  0  0  0  0  0  0  0  0  0
    0.1491   -1.7232   -0.4775 H   0  0  0  0  0  0  0  0  0  0  0  0
   -0.6429   -0.0742   -1.5658 C   0  0  0  0  0  0  0  0  0  0  0  0
    0.2924   -0.2660   -2.1015 H   0  0  0  0  0  0  0  0  0  0  0  0
   -1.4559   -0.2742   -2.2703 H   0  0  0  0  0  0  0  0  0  0  0  0
   -0.6737    1.3843   -1.1885 C   0  0  0  0  0  0  0  0  0  0  0  0
    0.3899    2.2531   -1.1962 C   0  0  0  0  0  0  0  0  0  0  0  0
    1.4183    1.9920   -1.4375 H   0  0  0  0  0  0  0  0  0  0  0  0
   -0.0880    3.5038   -0.8109 N   0  0  0  0  0  0  0  0  0  0  0  0
    0.4840    4.3371   -0.6894 H   0  0  0  0  0  0  0  0  0  0  0  0
   -1.4533    3.4521   -0.5818 C   0  0  0  0  0  0  0  0  0  0  0  0
   -2.3678    4.4290   -0.1892 C   0  0  0  0  0  0  0  0  0  0  0  0
   -2.0347    5.4434    0.0004 H   0  0  0  0  0  0  0  0  0  0  0  0
   -3.7189    4.0827   -0.0470 C   0  0  0  0  0  0  0  0  0  0  0  0
   -4.4412    4.8354    0.2554 H   0  0  0  0  0  0  0  0  0  0  0  0
   -4.1394    2.7680   -0.3007 C   0  0  0  0  0  0  0  0  0  0  0  0
   -5.1882    2.5077   -0.1950 H   0  0  0  0  0  0  0  0  0  0  0  0
   -3.2107    1.7939   -0.6936 C   0  0  0  0  0  0  0  0  0  0  0  0
   -3.5332    0.7793   -0.8967 H   0  0  0  0  0  0  0  0  0  0  0  0
   -1.8627    2.1463   -0.8236 C   0  0  0  0  0  0  0  0  0  0  0  0
   -0.4836   -0.3930    1.0252 C   0  0  0  0  0  0  0  0  0  0  0  0
    0.6572   -0.2861    1.4609 O   0  0  0  0  0  0  0  0  0  0  0  0
   -1.5254    0.2119    1.7071 N   0  0  0  0  0  0  0  0  0  0  0  0
   -2.3926    0.3134    1.1919 H   0  0  0  0  0  0  0  0  0  0  0  0
   -1.3060    1.0776    2.8572 C   0  0  0  0  0  0  0  0  0  0  0  0
   -0.6843    1.9342    2.5762 H   0  0  0  0  0  0  0  0  0  0  0  0
   -2.2620    1.4514    3.2353 H   0  0  0  0  0  0  0  0  0  0  0  0
   -0.8077    0.5266    3.6617 H   0  0  0  0  0  0  0  0  0  0  0  0
  1  2  1  0  0  0  0
  2  3  1  0  0  0  0
  2  4  1  0  0  0  0
  2  5  1  0  0  0  0
  5  6  2  0  0  0  0
  5  7  1  0  0  0  0
  7  8  1  0  0  0  0
  7  9  1  0  0  0  0
  9 10  1  0  0  0  0
  9 11  1  0  0  0  0
  9 29  1  0  0  0  0
 11 12  1  0  0  0  0
 11 13  1  0  0  0  0
 11 14  1  0  0  0  0
 14 15  2  0  0  0  0
 14 28  1  0  0  0  0
 15 16  1  0  0  0  0
 15 17  1  0  0  0  0
 17 18  1  0  0  0  0
 17 19  1  0  0  0  0
 19 20  1  0  0  0  0
 19 28  2  0  0  0  0
 20 21  1  0  0  0  0
 20 22  2  0  0  0  0
 22 23  1  0  0  0  0
 22 24  1  0  0  0  0
 24 25  1  0  0  0  0
 24 26  2  0  0  0  0
 26 27  1  0  0  0  0
 26 28  1  0  0  0  0
 29 30  2  0  0  0  0
 29 31  1  0  0  0  0
 31 32  1  0  0  0  0
 31 33  1  0  0  0  0
 33 34  1  0  0  0  0
 33 35  1  0  0  0  0
 33 36  1  0  0  0  0
M  END
$$$$

  -OEChem-03222214083D

 36 37  0     1  0  0  0  0  0999 V2000
   -3.4396   -4.7210    0.7130 H   0  0  0  0  0  0  0  0  0  0  0  0
   -3.4201   -3.8583    0.0407 C   0  0  0  0  0  0  0  0  0  0  0  0
   -4.2965   -3.2373    0.2413 H   0  0  0  0  0  0  0  0  0  0  0  0
   -3.4612   -4.2165   -0.9908 H   0  0  0  0  0  0  0  0  0  0  0  0
   -2.1512   -3.0561    0.2603 C   0  0  0  0  0  0  0  0  0  0  0  0
   -1.3107   -3.4554    1.0448 O   0  0  0  0  0  0  0  0  0  0  0  0
   -1.9476   -1.8875   -0.4459 N   0  0  0  0  0  0  0  0  0  0  0  0
   -2.6618   -1.6220   -1.1158 H   0  0  0  0  0  0  0  0  0  0  0  0
   -0.7380   -1.0497   -0.3306 C   0  0  1  0  0  0  0  0  0  0  0  0
    0.0962   -1.7382   -0.5083 H   0  0  0  0  0  0  0  0  0  0  0  0
   -0.6808   -0.0450   -1.5092 C   0  0  0  0  0  0  0  0  0  0  0  0
    0.2363   -0.2401   -2.0745 H   0  0  0  0  0  0  0  0  0  0  0  0
   -1.5166   -0.2177   -2.1937 H   0  0  0  0  0  0  0  0  0  0  0  0
   -0.6861    1.4088   -1.1102 C   0  0  0  0  0  0  0  0  0  0  0  0
    0.2999    2.3245   -1.3877 C   0  0  0  0  0  0  0  0  0  0  0  0
    1.2588    2.0998   -1.8503 H   0  0  0  0  0  0  0  0  0  0  0  0
   -0.1438    3.5703   -0.9512 N   0  0  0  0  0  0  0  0  0  0  0  0
    0.3956    4.4326   -0.9919 H   0  0  0  0  0  0  0  0  0  0  0  0
   -1.4351    3.4778   -0.4601 C   0  0  0  0  0  0  0  0  0  0  0  0
   -2.3049    4.4426    0.0472 C   0  0  0  0  0  0  0  0  0  0  0  0
   -1.9854    5.4756    0.1294 H   0  0  0  0  0  0  0  0  0  0  0  0
   -3.5962    4.0615    0.4373 C   0  0  0  0  0  0  0  0  0  0  0  0
   -4.2836    4.8041    0.8317 H   0  0  0  0  0  0  0  0  0  0  0  0
   -4.0049    2.7257    0.3059 C   0  0  0  0  0  0  0  0  0  0  0  0
   -5.0107    2.4389    0.5979 H   0  0  0  0  0  0  0  0  0  0  0  0
   -3.1211    1.7648   -0.2053 C   0  0  0  0  0  0  0  0  0  0  0  0
   -3.4392    0.7349   -0.3190 H   0  0  0  0  0  0  0  0  0  0  0  0
   -1.8240    2.1476   -0.5680 C   0  0  0  0  0  0  0  0  0  0  0  0
   -0.4157   -0.4662    1.0696 C   0  0  0  0  0  0  0  0  0  0  0  0
    0.7535   -0.3935    1.4302 O   0  0  0  0  0  0  0  0  0  0  0  0
   -1.3952    0.1104    1.8588 N   0  0  0  0  0  0  0  0  0  0  0  0
   -2.3048    0.2263    1.4282 H   0  0  0  0  0  0  0  0  0  0  0  0
   -1.0870    0.8999    3.0435 C   0  0  0  0  0  0  0  0  0  0  0  0
   -0.4839    1.7733    2.7738 H   0  0  0  0  0  0  0  0  0  0  0  0
   -2.0103    1.2475    3.5163 H   0  0  0  0  0  0  0  0  0  0  0  0
   -0.5327    0.2985    3.7716 H   0  0  0  0  0  0  0  0  0  0  0  0
  1  2  1  0  0  0  0
  2  3  1  0  0  0  0
  2  4  1  0  0  0  0
  2  5  1  0  0  0  0
  5  6  2  0  0  0  0
  5  7  1  0  0  0  0
  7  8  1  0  0  0  0
  7  9  1  0  0  0  0
  9 10  1  0  0  0  0
  9 11  1  0  0  0  0
  9 29  1  0  0  0  0
 11 12  1  0  0  0  0
 11 13  1  0  0  0  0
 11 14  1  0  0  0  0
 14 15  2  0  0  0  0
 14 28  1  0  0  0  0
 15 16  1  0  0  0  0
 15 17  1  0  0  0  0
 17 18  1  0  0  0  0
 17 19  1  0  0  0  0
 19 20  1  0  0  0  0
 19 28  2  0  0  0  0
 20 21  1  0  0  0  0
 20 22  2  0  0  0  0
 22 23  1  0  0  0  0
 22 24  1  0  0  0  0
 24 25  1  0  0  0  0
 24 26  2  0  0  0  0
 26 27  1  0  0  0  0
 26 28  1  0  0  0  0
 29 30  2  0  0  0  0
 29 31  1  0  0  0  0
 31 32  1  0  0  0  0
 31 33  1  0  0  0  0
 33 34  1  0  0  0  0
 33 35  1  0  0  0  0
 33 36  1  0  0  0  0
M  END
$$$$

  -OEChem-03222214083D

 36 37  0     1  0  0  0  0  0999 V2000
   -3.5140   -4.7571    0.4604 H   0  0  0  0  0  0  0  0  0  0  0  0
   -3.5232   -3.8281   -0.1170 C   0  0  0  0  0  0  0  0  0  0  0  0
   -4.3716   -3.2215    0.2085 H   0  0  0  0  0  0  0  0  0  0  0  0
   -3.6414   -4.0730   -1.1754 H   0  0  0  0  0  0  0  0  0  0  0  0
   -2.2272   -3.0693    0.0968 C   0  0  0  0  0  0  0  0  0  0  0  0
   -1.3396   -3.5620    0.7680 O   0  0  0  0  0  0  0  0  0  0  0  0
   -2.0560   -1.8297   -0.4855 N   0  0  0  0  0  0  0  0  0  0  0  0
   -2.8098   -1.4892   -1.0736 H   0  0  0  0  0  0  0  0  0  0  0  0
   -0.8136   -1.0375   -0.4045 C   0  0  1  0  0  0  0  0  0  0  0  0
   -0.0389   -1.7469   -0.7188 H   0  0  0  0  0  0  0  0  0  0  0  0
   -0.7831    0.0461   -1.5118 C   0  0  0  0  0  0  0  0  0  0  0  0
    0.0839   -0.1468   -2.1523 H   0  0  0  0  0  0  0  0  0  0  0  0
   -1.6712   -0.0520   -2.1435 H   0  0  0  0  0  0  0  0  0  0  0  0
   -0.7058    1.4761   -1.0360 C   0  0  0  0  0  0  0  0  0  0  0  0
    0.1358    2.4314   -1.5548 C   0  0  0  0  0  0  0  0  0  0  0  0
    0.9436    2.2423   -2.2586 H   0  0  0  0  0  0  0  0  0  0  0  0
   -0.2174    3.6619   -1.0083 N   0  0  0  0  0  0  0  0  0  0  0  0
    0.2623    4.5428   -1.1823 H   0  0  0  0  0  0  0  0  0  0  0  0
   -1.3569    3.5317   -0.2356 C   0  0  0  0  0  0  0  0  0  0  0  0
   -2.1215    4.4800    0.4433 C   0  0  0  0  0  0  0  0  0  0  0  0
   -1.8154    5.5203    0.4561 H   0  0  0  0  0  0  0  0  0  0  0  0
   -3.2965    4.0734    1.0892 C   0  0  0  0  0  0  0  0  0  0  0  0
   -3.9026    4.8025    1.6192 H   0  0  0  0  0  0  0  0  0  0  0  0
   -3.7008    2.7313    1.0310 C   0  0  0  0  0  0  0  0  0  0  0  0
   -4.6243    2.4250    1.5132 H   0  0  0  0  0  0  0  0  0  0  0  0
   -2.9208    1.7894    0.3451 C   0  0  0  0  0  0  0  0  0  0  0  0
   -3.2447    0.7574    0.2806 H   0  0  0  0  0  0  0  0  0  0  0  0
   -1.7226    2.1902   -0.2595 C   0  0  0  0  0  0  0  0  0  0  0  0
   -0.3006   -0.6160    0.9971 C   0  0  0  0  0  0  0  0  0  0  0  0
    0.9075   -0.6009    1.2036 O   0  0  0  0  0  0  0  0  0  0  0  0
   -1.1426   -0.1045    1.9680 N   0  0  0  0  0  0  0  0  0  0  0  0
   -2.1086    0.0375    1.7004 H   0  0  0  0  0  0  0  0  0  0  0  0
   -0.6552    0.5448    3.1775 C   0  0  0  0  0  0  0  0  0  0  0  0
   -0.1180    1.4649    2.9246 H   0  0  0  0  0  0  0  0  0  0  0  0
   -1.4930    0.7996    3.8332 H   0  0  0  0  0  0  0  0  0  0  0  0
    0.0205   -0.1202    3.7258 H   0  0  0  0  0  0  0  0  0  0  0  0
  1  2  1  0  0  0  0
  2  3  1  0  0  0  0
  2  4  1  0  0  0  0
  2  5  1  0  0  0  0
  5  6  2  0  0  0  0
  5  7  1  0  0  0  0
  7  8  1  0  0  0  0
  7  9  1  0  0  0  0
  9 10  1  0  0  0  0
  9 11  1  0  0  0  0
  9 29  1  0  0  0  0
 11 12  1  0  0  0  0
 11 13  1  0  0  0  0
 11 14  1  0  0  0  0
 14 15  2  0  0  0  0
 14 28  1  0  0  0  0
 15 16  1  0  0  0  0
 15 17  1  0  0  0  0
 17 18  1  0  0  0  0
 17 19  1  0  0  0  0
 19 20  1  0  0  0  0
 19 28  2  0  0  0  0
 20 21  1  0  0  0  0
 20 22  2  0  0  0  0
 22 23  1  0  0  0  0
 22 24  1  0  0  0  0
 24 25  1  0  0  0  0
 24 26  2  0  0  0  0
 26 27  1  0  0  0  0
 26 28  1  0  0  0  0
 29 30  2  0  0  0  0
 29 31  1  0  0  0  0
 31 32  1  0  0  0  0
 31 33  1  0  0  0  0
 33 34  1  0  0  0  0
 33 35  1  0  0  0  0
 33 36  1  0  0  0  0
M  END
$$$$

  -OEChem-03222214083D

 36 37  0     1  0  0  0  0  0999 V2000
   -3.1857   -4.7118    0.8516 H   0  0  0  0  0  0  0  0  0  0  0  0
   -3.3140   -3.7512    0.3446 C   0  0  0  0  0  0  0  0  0  0  0  0
   -4.0752   -3.1737    0.8743 H   0  0  0  0  0  0  0  0  0  0  0  0
   -3.6506   -3.9358   -0.6784 H   0  0  0  0  0  0  0  0  0  0  0  0
   -2.0015   -2.9911    0.3285 C   0  0  0  0  0  0  0  0  0  0  0  0
   -1.0072   -3.4838    0.8311 O   0  0  0  0  0  0  0  0  0  0  0  0
   -1.9473   -1.7262   -0.2207 N   0  0  0  0  0  0  0  0  0  0  0  0
   -2.8107   -1.3438   -0.5936 H   0  0  0  0  0  0  0  0  0  0  0  0
   -0.7264   -0.9016   -0.3005 C   0  0  1  0  0  0  0  0  0  0  0  0
   -0.0041   -1.6244   -0.6974 H   0  0  0  0  0  0  0  0  0  0  0  0
   -0.7846    0.1336   -1.4555 C   0  0  0  0  0  0  0  0  0  0  0  0
    0.0293   -0.0970   -2.1512 H   0  0  0  0  0  0  0  0  0  0  0  0
   -1.7188   -0.0135   -2.0058 H   0  0  0  0  0  0  0  0  0  0  0  0
   -0.6887    1.6060   -1.1172 C   0  0  0  0  0  0  0  0  0  0  0  0
   -0.1296    2.5210   -1.9808 C   0  0  0  0  0  0  0  0  0  0  0  0
    0.4230    2.2716   -2.8840 H   0  0  0  0  0  0  0  0  0  0  0  0
   -0.3673    3.7994   -1.4883 N   0  0  0  0  0  0  0  0  0  0  0  0
   -0.0268    4.6647   -1.9016 H   0  0  0  0  0  0  0  0  0  0  0  0
   -1.1987    3.7327   -0.3876 C   0  0  0  0  0  0  0  0  0  0  0  0
   -1.7775    4.7429    0.3809 C   0  0  0  0  0  0  0  0  0  0  0  0
   -1.5419    5.7829    0.1846 H   0  0  0  0  0  0  0  0  0  0  0  0
   -2.6819    4.3956    1.3924 C   0  0  0  0  0  0  0  0  0  0  0  0
   -3.1428    5.1694    1.9991 H   0  0  0  0  0  0  0  0  0  0  0  0
   -3.0108    3.0493    1.6022 C   0  0  0  0  0  0  0  0  0  0  0  0
   -3.7309    2.7807    2.3688 H   0  0  0  0  0  0  0  0  0  0  0  0
   -2.4159    2.0492    0.8203 C   0  0  0  0  0  0  0  0  0  0  0  0
   -2.6931    1.0145    0.9594 H   0  0  0  0  0  0  0  0  0  0  0  0
   -1.4691    2.3879   -0.1505 C   0  0  0  0  0  0  0  0  0  0  0  0
    0.0209   -0.4944    1.0000 C   0  0  0  0  0  0  0  0  0  0  0  0
    1.2149   -0.2418    0.9358 O   0  0  0  0  0  0  0  0  0  0  0  0
   -0.5375   -0.0227    2.1679 N   0  0  0  0  0  0  0  0  0  0  0  0
    0.1767    0.3764    2.7716 H   0  0  0  0  0  0  0  0  0  0  0  0
   -1.6302   -0.7156    2.8355 C   0  0  0  0  0  0  0  0  0  0  0  0
   -1.8964   -0.1851    3.7548 H   0  0  0  0  0  0  0  0  0  0  0  0
   -2.5218   -0.7676    2.2065 H   0  0  0  0  0  0  0  0  0  0  0  0
   -1.3275   -1.7344    3.0997 H   0  0  0  0  0  0  0  0  0  0  0  0
  1  2  1  0  0  0  0
  2  3  1  0  0  0  0
  2  4  1  0  0  0  0
  2  5  1  0  0  0  0
  5  6  2  0  0  0  0
  5  7  1  0  0  0  0
  7  8  1  0  0  0  0
  7  9  1  0  0  0  0
  9 10  1  0  0  0  0
  9 11  1  0  0  0  0
  9 29  1  0  0  0  0
 11 12  1  0  0  0  0
 11 13  1  0  0  0  0
 11 14  1  0  0  0  0
 14 15  2  0  0  0  0
 14 28  1  0  0  0  0
 15 16  1  0  0  0  0
 15 17  1  0  0  0  0
 17 18  1  0  0  0  0
 17 19  1  0  0  0  0
 19 20  1  0  0  0  0
 19 28  2  0  0  0  0
 20 21  1  0  0  0  0
 20 22  2  0  0  0  0
 22 23  1  0  0  0  0
 22 24  1  0  0  0  0
 24 25  1  0  0  0  0
 24 26  2  0  0  0  0
 26 27  1  0  0  0  0
 26 28  1  0  0  0  0
 29 30  2  0  0  0  0
 29 31  1  0  0  0  0
 31 32  1  0  0  0  0
 31 33  1  0  0  0  0
 33 34  1  0  0  0  0
 33 35  1  0  0  0  0
 33 36  1  0  0  0  0
M  END
$$$$

  -OEChem-03222214083D

 36 37  0     1  0  0  0  0  0999 V2000
   -4.0196   -4.5630   -0.1117 H   0  0  0  0  0  0  0  0  0  0  0  0
   -3.9417   -3.5226   -0.4405 C   0  0  0  0  0  0  0  0  0  0  0  0
   -4.7168   -2.9372    0.0598 H   0  0  0  0  0  0  0  0  0  0  0  0
   -4.1025   -3.4828   -1.5205 H   0  0  0  0  0  0  0  0  0  0  0  0
   -2.5708   -2.9698   -0.0991 C   0  0  0  0  0  0  0  0  0  0  0  0
   -1.7769   -3.6548    0.5191 O   0  0  0  0  0  0  0  0  0  0  0  0
   -2.2397   -1.6816   -0.4685 N   0  0  0  0  0  0  0  0  0  0  0  0
   -2.9379   -1.1581   -0.9875 H   0  0  0  0  0  0  0  0  0  0  0  0
   -0.9211   -1.0567   -0.2477 C   0  0  1  0  0  0  0  0  0  0  0  0
   -0.2680   -1.8751   -0.5749 H   0  0  0  0  0  0  0  0  0  0  0  0
   -0.5549    0.0076   -1.3149 C   0  0  0  0  0  0  0  0  0  0  0  0
    0.3559   -0.3318   -1.8205 H   0  0  0  0  0  0  0  0  0  0  0  0
   -1.3454    0.0232   -2.0709 H   0  0  0  0  0  0  0  0  0  0  0  0
   -0.3101    1.4384   -0.8842 C   0  0  0  0  0  0  0  0  0  0  0  0
    0.3222    2.3293   -1.7232 C   0  0  0  0  0  0  0  0  0  0  0  0
    0.8590    2.0571   -2.6295 H   0  0  0  0  0  0  0  0  0  0  0  0
    0.2078    3.6085   -1.1940 N   0  0  0  0  0  0  0  0  0  0  0  0
    0.6282    4.4499   -1.5828 H   0  0  0  0  0  0  0  0  0  0  0  0
   -0.6693    3.5935   -0.1304 C   0  0  0  0  0  0  0  0  0  0  0  0
   -1.1871    4.6453    0.6248 C   0  0  0  0  0  0  0  0  0  0  0  0
   -0.8277    5.6572    0.4741 H   0  0  0  0  0  0  0  0  0  0  0  0
   -2.1989    4.3798    1.5545 C   0  0  0  0  0  0  0  0  0  0  0  0
   -2.6149    5.1865    2.1510 H   0  0  0  0  0  0  0  0  0  0  0  0
   -2.7045    3.0791    1.6780 C   0  0  0  0  0  0  0  0  0  0  0  0
   -3.5237    2.8810    2.3623 H   0  0  0  0  0  0  0  0  0  0  0  0
   -2.1667    2.0379    0.9079 C   0  0  0  0  0  0  0  0  0  0  0  0
   -2.6101    1.0541    0.9619 H   0  0  0  0  0  0  0  0  0  0  0  0
   -1.0869    2.2767    0.0483 C   0  0  0  0  0  0  0  0  0  0  0  0
   -0.3661   -0.9044    1.1931 C   0  0  0  0  0  0  0  0  0  0  0  0
    0.8408   -1.0193    1.3719 O   0  0  0  0  0  0  0  0  0  0  0  0
   -1.1353   -0.4569    2.2513 N   0  0  0  0  0  0  0  0  0  0  0  0
   -2.1383   -0.4304    2.1132 H   0  0  0  0  0  0  0  0  0  0  0  0
   -0.5984   -0.1901    3.5792 C   0  0  0  0  0  0  0  0  0  0  0  0
   -0.1533   -1.0968    4.0023 H   0  0  0  0  0  0  0  0  0  0  0  0
   -1.3950    0.1501    4.2474 H   0  0  0  0  0  0  0  0  0  0  0  0
    0.1674    0.5912    3.5302 H   0  0  0  0  0  0  0  0  0  0  0  0
  1  2  1  0  0  0  0
  2  3  1  0  0  0  0
  2  4  1  0  0  0  0
  2  5  1  0  0  0  0
  5  6  2  0  0  0  0
  5  7  1  0  0  0  0
  7  8  1  0  0  0  0
  7  9  1  0  0  0  0
  9 10  1  0  0  0  0
  9 11  1  0  0  0  0
  9 29  1  0  0  0  0
 11 12  1  0  0  0  0
 11 13  1  0  0  0  0
 11 14  1  0  0  0  0
 14 15  2  0  0  0  0
 14 28  1  0  0  0  0
 15 16  1  0  0  0  0
 15 17  1  0  0  0  0
 17 18  1  0  0  0  0
 17 19  1  0  0  0  0
 19 20  1  0  0  0  0
 19 28  2  0  0  0  0
 20 21  1  0  0  0  0
 20 22  2  0  0  0  0
 22 23  1  0  0  0  0
 22 24  1  0  0  0  0
 24 25  1  0  0  0  0
 24 26  2  0  0  0  0
 26 27  1  0  0  0  0
 26 28  1  0  0  0  0
 29 30  2  0  0  0  0
 29 31  1  0  0  0  0
 31 32  1  0  0  0  0
 31 33  1  0  0  0  0
 33 34  1  0  0  0  0
 33 35  1  0  0  0  0
 33 36  1  0  0  0  0
M  END
$$$$

  -OEChem-03222214083D

 36 37  0     1  0  0  0  0  0999 V2000
   -3.4031   -4.8905    0.1017 H   0  0  0  0  0  0  0  0  0  0  0  0
   -3.3273   -3.9348   -0.4251 C   0  0  0  0  0  0  0  0  0  0  0  0
   -4.1822   -3.3134   -0.1484 H   0  0  0  0  0  0  0  0  0  0  0  0
   -3.3526   -4.1240   -1.5009 H   0  0  0  0  0  0  0  0  0  0  0  0
   -2.0338   -3.2366   -0.0507 C   0  0  0  0  0  0  0  0  0  0  0  0
   -1.2528   -3.7810    0.7064 O   0  0  0  0  0  0  0  0  0  0  0  0
   -1.7436   -1.9988   -0.5913 N   0  0  0  0  0  0  0  0  0  0  0  0
   -2.4376   -1.6020   -1.2157 H   0  0  0  0  0  0  0  0  0  0  0  0
   -0.5696   -1.1742   -0.2213 C   0  0  1  0  0  0  0  0  0  0  0  0
    0.3388   -1.7700   -0.3684 H   0  0  0  0  0  0  0  0  0  0  0  0
   -0.5275   -0.0032   -1.2478 C   0  0  0  0  0  0  0  0  0  0  0  0
    0.2480   -0.2872   -1.9674 H   0  0  0  0  0  0  0  0  0  0  0  0
   -1.4734   -0.0177   -1.7990 H   0  0  0  0  0  0  0  0  0  0  0  0
   -0.2927    1.4793   -0.9488 C   0  0  0  0  0  0  0  0  0  0  0  0
   -0.3167    2.2764   -2.0753 C   0  0  0  0  0  0  0  0  0  0  0  0
   -0.4906    1.9216   -3.0889 H   0  0  0  0  0  0  0  0  0  0  0  0
   -0.1144    3.5938   -1.7101 N   0  0  0  0  0  0  0  0  0  0  0  0
   -0.0797    4.3897   -2.3436 H   0  0  0  0  0  0  0  0  0  0  0  0
    0.0946    3.6682   -0.3527 C   0  0  0  0  0  0  0  0  0  0  0  0
    0.3594    4.8129    0.3975 C   0  0  0  0  0  0  0  0  0  0  0  0
    0.3919    5.7868   -0.0778 H   0  0  0  0  0  0  0  0  0  0  0  0
    0.5920    4.6854    1.7671 C   0  0  0  0  0  0  0  0  0  0  0  0
    0.8021    5.5620    2.3724 H   0  0  0  0  0  0  0  0  0  0  0  0
    0.5730    3.4157    2.3494 C   0  0  0  0  0  0  0  0  0  0  0  0
    0.7772    3.3026    3.4098 H   0  0  0  0  0  0  0  0  0  0  0  0
    0.3062    2.2794    1.5725 C   0  0  0  0  0  0  0  0  0  0  0  0
    0.3470    1.3366    2.0876 H   0  0  0  0  0  0  0  0  0  0  0  0
    0.0307    2.3801    0.1951 C   0  0  0  0  0  0  0  0  0  0  0  0
   -0.5945   -0.8241    1.2768 C   0  0  0  0  0  0  0  0  0  0  0  0
    0.3912   -1.0413    1.9708 O   0  0  0  0  0  0  0  0  0  0  0  0
   -1.7646   -0.3922    1.8792 N   0  0  0  0  0  0  0  0  0  0  0  0
   -2.5769   -0.2825    1.2831 H   0  0  0  0  0  0  0  0  0  0  0  0
   -1.9200   -0.2558    3.3217 C   0  0  0  0  0  0  0  0  0  0  0  0
   -1.8566   -1.2365    3.8046 H   0  0  0  0  0  0  0  0  0  0  0  0
   -2.8926    0.1867    3.5564 H   0  0  0  0  0  0  0  0  0  0  0  0
   -1.1406    0.3914    3.7369 H   0  0  0  0  0  0  0  0  0  0  0  0
  1  2  1  0  0  0  0
  2  3  1  0  0  0  0
  2  4  1  0  0  0  0
  2  5  1  0  0  0  0
  5  6  2  0  0  0  0
  5  7  1  0  0  0  0
  7  8  1  0  0  0  0
  7  9  1  0  0  0  0
  9 10  1  0  0  0  0
  9 11  1  0  0  0  0
  9 29  1  0  0  0  0
 11 12  1  0  0  0  0
 11 13  1  0  0  0  0
 11 14  1  0  0  0  0
 14 15  2  0  0  0  0
 14 28  1  0  0  0  0
 15 16  1  0  0  0  0
 15 17  1  0  0  0  0
 17 18  1  0  0  0  0
 17 19  1  0  0  0  0
 19 20  1  0  0  0  0
 19 28  2  0  0  0  0
 20 21  1  0  0  0  0
 20 22  2  0  0  0  0
 22 23  1  0  0  0  0
 22 24  1  0  0  0  0
 24 25  1  0  0  0  0
 24 26  2  0  0  0  0
 26 27  1  0  0  0  0
 26 28  1  0  0  0  0
 29 30  2  0  0  0  0
 29 31  1  0  0  0  0
 31 32  1  0  0  0  0
 31 33  1  0  0  0  0
 33 34  1  0  0  0  0
 33 35  1  0  0  0  0
 33 36  1  0  0  0  0
M  END
$$$$

  -OEChem-03222214083D

 36 37  0     1  0  0  0  0  0999 V2000
   -3.3436   -4.8536    0.4292 H   0  0  0  0  0  0  0  0  0  0  0  0
   -3.3102   -3.9177   -0.1361 C   0  0  0  0  0  0  0  0  0  0  0  0
   -4.1351   -3.2806    0.1911 H   0  0  0  0  0  0  0  0  0  0  0  0
   -3.4302   -4.1450   -1.1980 H   0  0  0  0  0  0  0  0  0  0  0  0
   -1.9865   -3.2142    0.0995 C   0  0  0  0  0  0  0  0  0  0  0  0
   -1.1529   -3.7246    0.8237 O   0  0  0  0  0  0  0  0  0  0  0  0
   -1.7225   -2.0234   -0.5498 N   0  0  0  0  0  0  0  0  0  0  0  0
   -2.4756   -1.6503   -1.1166 H   0  0  0  0  0  0  0  0  0  0  0  0
   -0.5798   -1.1368   -0.2269 C   0  0  1  0  0  0  0  0  0  0  0  0
    0.3698   -1.6719   -0.3379 H   0  0  0  0  0  0  0  0  0  0  0  0
   -0.6664   -0.0012   -1.2924 C   0  0  0  0  0  0  0  0  0  0  0  0
    0.1078   -0.2265   -2.0330 H   0  0  0  0  0  0  0  0  0  0  0  0
   -1.6234   -0.0734   -1.8195 H   0  0  0  0  0  0  0  0  0  0  0  0
   -0.5010    1.4675   -0.9331 C   0  0  0  0  0  0  0  0  0  0  0  0
   -0.9115    2.4110   -1.8508 C   0  0  0  0  0  0  0  0  0  0  0  0
   -1.4486    2.1961   -2.7719 H   0  0  0  0  0  0  0  0  0  0  0  0
   -0.5761    3.6723   -1.3833 N   0  0  0  0  0  0  0  0  0  0  0  0
   -0.7745    4.5531   -1.8538 H   0  0  0  0  0  0  0  0  0  0  0  0
    0.2023    3.5551   -0.2523 C   0  0  0  0  0  0  0  0  0  0  0  0
    0.8381    4.5530    0.4856 C   0  0  0  0  0  0  0  0  0  0  0  0
    0.6862    5.5983    0.2413 H   0  0  0  0  0  0  0  0  0  0  0  0
    1.6944    4.1840    1.5271 C   0  0  0  0  0  0  0  0  0  0  0  0
    2.2006    4.9434    2.1157 H   0  0  0  0  0  0  0  0  0  0  0  0
    1.9297    2.8277    1.7796 C   0  0  0  0  0  0  0  0  0  0  0  0
    2.6285    2.5317    2.5565 H   0  0  0  0  0  0  0  0  0  0  0  0
    1.2818    1.8423    1.0216 C   0  0  0  0  0  0  0  0  0  0  0  0
    1.5482    0.8101    1.1981 H   0  0  0  0  0  0  0  0  0  0  0  0
    0.3506    2.1968    0.0330 C   0  0  0  0  0  0  0  0  0  0  0  0
   -0.6937   -0.6747    1.2483 C   0  0  0  0  0  0  0  0  0  0  0  0
    0.2045   -0.9203    2.0434 O   0  0  0  0  0  0  0  0  0  0  0  0
   -1.9084   -0.2384    1.7525 N   0  0  0  0  0  0  0  0  0  0  0  0
   -2.6128    0.0299    1.0752 H   0  0  0  0  0  0  0  0  0  0  0  0
   -2.0923    0.1462    3.1461 C   0  0  0  0  0  0  0  0  0  0  0  0
   -1.4131    0.9638    3.4107 H   0  0  0  0  0  0  0  0  0  0  0  0
   -3.1203    0.4805    3.3142 H   0  0  0  0  0  0  0  0  0  0  0  0
   -1.8939   -0.7047    3.8064 H   0  0  0  0  0  0  0  0  0  0  0  0
  1  2  1  0  0  0  0
  2  3  1  0  0  0  0
  2  4  1  0  0  0  0
  2  5  1  0  0  0  0
  5  6  2  0  0  0  0
  5  7  1  0  0  0  0
  7  8  1  0  0  0  0
  7  9  1  0  0  0  0
  9 10  1  0  0  0  0
  9 11  1  0  0  0  0
  9 29  1  0  0  0  0
 11 12  1  0  0  0  0
 11 13  1  0  0  0  0
 11 14  1  0  0  0  0
 14 15  2  0  0  0  0
 14 28  1  0  0  0  0
 15 16  1  0  0  0  0
 15 17  1  0  0  0  0
 17 18  1  0  0  0  0
 17 19  1  0  0  0  0
 19 20  1  0  0  0  0
 19 28  2  0  0  0  0
 20 21  1  0  0  0  0
 20 22  2  0  0  0  0
 22 23  1  0  0  0  0
 22 24  1  0  0  0  0
 24 25  1  0  0  0  0
 24 26  2  0  0  0  0
 26 27  1  0  0  0  0
 26 28  1  0  0  0  0
 29 30  2  0  0  0  0
 29 31  1  0  0  0  0
 31 32  1  0  0  0  0
 31 33  1  0  0  0  0
 33 34  1  0  0  0  0
 33 35  1  0  0  0  0
 33 36  1  0  0  0  0
M  END
$$$$

  -OEChem-03222214083D

 36 37  0     1  0  0  0  0  0999 V2000
   -3.5775   -4.6874    0.5433 H   0  0  0  0  0  0  0  0  0  0  0  0
   -3.4596   -3.8052   -0.0926 C   0  0  0  0  0  0  0  0  0  0  0  0
   -4.2919   -3.1232    0.0967 H   0  0  0  0  0  0  0  0  0  0  0  0
   -3.4835   -4.1210   -1.1383 H   0  0  0  0  0  0  0  0  0  0  0  0
   -2.1432   -3.1153    0.2135 C   0  0  0  0  0  0  0  0  0  0  0  0
   -1.4038   -3.5760    1.0626 O   0  0  0  0  0  0  0  0  0  0  0  0
   -1.7789   -1.9904   -0.5011 N   0  0  0  0  0  0  0  0  0  0  0  0
   -2.4461   -1.6579   -1.1881 H   0  0  0  0  0  0  0  0  0  0  0  0
   -0.6201   -1.1315   -0.1666 C   0  0  1  0  0  0  0  0  0  0  0  0
    0.3030   -1.7219   -0.1703 H   0  0  0  0  0  0  0  0  0  0  0  0
   -0.5570   -0.0766   -1.3109 C   0  0  0  0  0  0  0  0  0  0  0  0
    0.2654   -0.3779   -1.9677 H   0  0  0  0  0  0  0  0  0  0  0  0
   -1.4694   -0.1283   -1.9135 H   0  0  0  0  0  0  0  0  0  0  0  0
   -0.3346    1.3835   -0.9697 C   0  0  0  0  0  0  0  0  0  0  0  0
   -0.8570    2.3903   -1.7515 C   0  0  0  0  0  0  0  0  0  0  0  0
   -1.5540    2.2500   -2.5744 H   0  0  0  0  0  0  0  0  0  0  0  0
   -0.3568    3.6059   -1.3030 N   0  0  0  0  0  0  0  0  0  0  0  0
   -0.5780    4.5196   -1.6935 H   0  0  0  0  0  0  0  0  0  0  0  0
    0.5955    3.3902   -0.3268 C   0  0  0  0  0  0  0  0  0  0  0  0
    1.4187    4.2947    0.3438 C   0  0  0  0  0  0  0  0  0  0  0  0
    1.3224    5.3601    0.1679 H   0  0  0  0  0  0  0  0  0  0  0  0
    2.3832    3.8061    1.2325 C   0  0  0  0  0  0  0  0  0  0  0  0
    3.0325    4.4937    1.7662 H   0  0  0  0  0  0  0  0  0  0  0  0
    2.5263    2.4241    1.4132 C   0  0  0  0  0  0  0  0  0  0  0  0
    3.2880    2.0372    2.0833 H   0  0  0  0  0  0  0  0  0  0  0  0
    1.6923    1.5301    0.7277 C   0  0  0  0  0  0  0  0  0  0  0  0
    1.8447    0.4646    0.8559 H   0  0  0  0  0  0  0  0  0  0  0  0
    0.6849    2.0156   -0.1173 C   0  0  0  0  0  0  0  0  0  0  0  0
   -0.7840   -0.5385    1.2580 C   0  0  0  0  0  0  0  0  0  0  0  0
    0.0926   -0.6882    2.0995 O   0  0  0  0  0  0  0  0  0  0  0  0
   -1.9972   -0.0026    1.6587 N   0  0  0  0  0  0  0  0  0  0  0  0
   -2.6832    0.1717    0.9341 H   0  0  0  0  0  0  0  0  0  0  0  0
   -2.2139    0.5598    2.9854 C   0  0  0  0  0  0  0  0  0  0  0  0
   -1.5307    1.3974    3.1615 H   0  0  0  0  0  0  0  0  0  0  0  0
   -3.2415    0.9233    3.0790 H   0  0  0  0  0  0  0  0  0  0  0  0
   -2.0460   -0.2003    3.7559 H   0  0  0  0  0  0  0  0  0  0  0  0
  1  2  1  0  0  0  0
  2  3  1  0  0  0  0
  2  4  1  0  0  0  0
  2  5  1  0  0  0  0
  5  6  2  0  0  0  0
  5  7  1  0  0  0  0
  7  8  1  0  0  0  0
  7  9  1  0  0  0  0
  9 10  1  0  0  0  0
  9 11  1  0  0  0  0
  9 29  1  0  0  0  0
 11 12  1  0  0  0  0
 11 13  1  0  0  0  0
 11 14  1  0  0  0  0
 14 15  2  0  0  0  0
 14 28  1  0  0  0  0
 15 16  1  0  0  0  0
 15 17  1  0  0  0  0
 17 18  1  0  0  0  0
 17 19  1  0  0  0  0
 19 20  1  0  0  0  0
 19 28  2  0  0  0  0
 20 21  1  0  0  0  0
 20 22  2  0  0  0  0
 22 23  1  0  0  0  0
 22 24  1  0  0  0  0
 24 25  1  0  0  0  0
 24 26  2  0  0  0  0
 26 27  1  0  0  0  0
 26 28  1  0  0  0  0
 29 30  2  0  0  0  0
 29 31  1  0  0  0  0
 31 32  1  0  0  0  0
 31 33  1  0  0  0  0
 33 34  1  0  0  0  0
 33 35  1  0  0  0  0
 33 36  1  0  0  0  0
M  END
$$$$

  -OEChem-03222214083D

 36 37  0     1  0  0  0  0  0999 V2000
   -3.5031   -4.6911    0.5968 H   0  0  0  0  0  0  0  0  0  0  0  0
   -3.4034   -3.8250   -0.0638 C   0  0  0  0  0  0  0  0  0  0  0  0
   -4.2583   -3.1632    0.0934 H   0  0  0  0  0  0  0  0  0  0  0  0
   -3.4022   -4.1720   -1.0999 H   0  0  0  0  0  0  0  0  0  0  0  0
   -2.1138   -3.0859    0.2389 C   0  0  0  0  0  0  0  0  0  0  0  0
   -1.3754   -3.4934    1.1155 O   0  0  0  0  0  0  0  0  0  0  0  0
   -1.7761   -1.9714   -0.5032 N   0  0  0  0  0  0  0  0  0  0  0  0
   -2.4272   -1.6935   -1.2290 H   0  0  0  0  0  0  0  0  0  0  0  0
   -0.6095   -1.1058   -0.2244 C   0  0  1  0  0  0  0  0  0  0  0  0
    0.3039   -1.7109   -0.2443 H   0  0  0  0  0  0  0  0  0  0  0  0
   -0.5465   -0.0828   -1.3943 C   0  0  0  0  0  0  0  0  0  0  0  0
    0.2634   -0.4004   -2.0589 H   0  0  0  0  0  0  0  0  0  0  0  0
   -1.4691   -0.1315   -1.9810 H   0  0  0  0  0  0  0  0  0  0  0  0
   -0.3048    1.3704   -1.0499 C   0  0  0  0  0  0  0  0  0  0  0  0
   -1.0193    2.4104   -1.6000 C   0  0  0  0  0  0  0  0  0  0  0  0
   -1.8793    2.3075   -2.2572 H   0  0  0  0  0  0  0  0  0  0  0  0
   -0.4445    3.6044   -1.1782 N   0  0  0  0  0  0  0  0  0  0  0  0
   -0.7625    4.5379   -1.4304 H   0  0  0  0  0  0  0  0  0  0  0  0
    0.6887    3.3473   -0.4279 C   0  0  0  0  0  0  0  0  0  0  0  0
    1.6155    4.2122    0.1541 C   0  0  0  0  0  0  0  0  0  0  0  0
    1.4860    5.2858    0.0782 H   0  0  0  0  0  0  0  0  0  0  0  0
    2.7190    3.6747    0.8291 C   0  0  0  0  0  0  0  0  0  0  0  0
    3.4487    4.3324    1.2915 H   0  0  0  0  0  0  0  0  0  0  0  0
    2.8857    2.2844    0.9015 C   0  0  0  0  0  0  0  0  0  0  0  0
    3.7408    1.8638    1.4221 H   0  0  0  0  0  0  0  0  0  0  0  0
    1.9476    1.4278    0.3089 C   0  0  0  0  0  0  0  0  0  0  0  0
    2.0860    0.3532    0.3685 H   0  0  0  0  0  0  0  0  0  0  0  0
    0.8305    1.9657   -0.3415 C   0  0  0  0  0  0  0  0  0  0  0  0
   -0.6876   -0.4728    1.1894 C   0  0  0  0  0  0  0  0  0  0  0  0
    0.2665   -0.5440    1.9532 O   0  0  0  0  0  0  0  0  0  0  0  0
   -1.8698    0.0838    1.6487 N   0  0  0  0  0  0  0  0  0  0  0  0
   -2.6252    0.1795    0.9811 H   0  0  0  0  0  0  0  0  0  0  0  0
   -1.9939    0.7127    2.9570 C   0  0  0  0  0  0  0  0  0  0  0  0
   -1.3342    1.5842    3.0249 H   0  0  0  0  0  0  0  0  0  0  0  0
   -3.0238    1.0418    3.1234 H   0  0  0  0  0  0  0  0  0  0  0  0
   -1.7266    0.0052    3.7493 H   0  0  0  0  0  0  0  0  0  0  0  0
  1  2  1  0  0  0  0
  2  3  1  0  0  0  0
  2  4  1  0  0  0  0
  2  5  1  0  0  0  0
  5  6  2  0  0  0  0
  5  7  1  0  0  0  0
  7  8  1  0  0  0  0
  7  9  1  0  0  0  0
  9 10  1  0  0  0  0
  9 11  1  0  0  0  0
  9 29  1  0  0  0  0
 11 12  1  0  0  0  0
 11 13  1  0  0  0  0
 11 14  1  0  0  0  0
 14 15  2  0  0  0  0
 14 28  1  0  0  0  0
 15 16  1  0  0  0  0
 15 17  1  0  0  0  0
 17 18  1  0  0  0  0
 17 19  1  0  0  0  0
 19 20  1  0  0  0  0
 19 28  2  0  0  0  0
 20 21  1  0  0  0  0
 20 22  2  0  0  0  0
 22 23  1  0  0  0  0
 22 24  1  0  0  0  0
 24 25  1  0  0  0  0
 24 26  2  0  0  0  0
 26 27  1  0  0  0  0
 26 28  1  0  0  0  0
 29 30  2  0  0  0  0
 29 31  1  0  0  0  0
 31 32  1  0  0  0  0
 31 33  1  0  0  0  0
 33 34  1  0  0  0  0
 33 35  1  0  0  0  0
 33 36  1  0  0  0  0
M  END
$$$$

  -OEChem-03222214083D

 36 37  0     1  0  0  0  0  0999 V2000
   -3.4251   -4.7022    0.6608 H   0  0  0  0  0  0  0  0  0  0  0  0
   -3.3527   -3.8510   -0.0224 C   0  0  0  0  0  0  0  0  0  0  0  0
   -4.2396   -3.2252    0.1016 H   0  0  0  0  0  0  0  0  0  0  0  0
   -3.3181   -4.2262   -1.0479 H   0  0  0  0  0  0  0  0  0  0  0  0
   -2.1026   -3.0462    0.2795 C   0  0  0  0  0  0  0  0  0  0  0  0
   -1.3698   -3.3869    1.1888 O   0  0  0  0  0  0  0  0  0  0  0  0
   -1.7967   -1.9453   -0.4959 N   0  0  0  0  0  0  0  0  0  0  0  0
   -2.4201   -1.7438   -1.2701 H   0  0  0  0  0  0  0  0  0  0  0  0
   -0.6194   -1.0758   -0.2863 C   0  0  1  0  0  0  0  0  0  0  0  0
    0.2833   -1.6954   -0.3286 H   0  0  0  0  0  0  0  0  0  0  0  0
   -0.5714   -0.0850   -1.4815 C   0  0  0  0  0  0  0  0  0  0  0  0
    0.2114   -0.4222   -2.1684 H   0  0  0  0  0  0  0  0  0  0  0  0
   -1.5145   -0.1276   -2.0347 H   0  0  0  0  0  0  0  0  0  0  0  0
   -0.3055    1.3642   -1.1485 C   0  0  0  0  0  0  0  0  0  0  0  0
   -1.1551    2.4091   -1.4290 C   0  0  0  0  0  0  0  0  0  0  0  0
   -2.1418    2.3205   -1.8765 H   0  0  0  0  0  0  0  0  0  0  0  0
   -0.5193    3.5898   -1.0560 N   0  0  0  0  0  0  0  0  0  0  0  0
   -0.9079    4.5260   -1.1451 H   0  0  0  0  0  0  0  0  0  0  0  0
    0.7481    3.3190   -0.5688 C   0  0  0  0  0  0  0  0  0  0  0  0
    1.7570    4.1612   -0.1011 C   0  0  0  0  0  0  0  0  0  0  0  0
    1.6050    5.2341   -0.0704 H   0  0  0  0  0  0  0  0  0  0  0  0
    2.9676    3.6014    0.3297 C   0  0  0  0  0  0  0  0  0  0  0  0
    3.7612    4.2423    0.7017 H   0  0  0  0  0  0  0  0  0  0  0  0
    3.1533    2.2115    0.2858 C   0  0  0  0  0  0  0  0  0  0  0  0
    4.0863    1.7758    0.6297 H   0  0  0  0  0  0  0  0  0  0  0  0
    2.1322    1.3765   -0.1895 C   0  0  0  0  0  0  0  0  0  0  0  0
    2.2687    0.3000   -0.2073 H   0  0  0  0  0  0  0  0  0  0  0  0
    0.9249    1.9406   -0.6145 C   0  0  0  0  0  0  0  0  0  0  0  0
   -0.6034   -0.4016    1.1095 C   0  0  0  0  0  0  0  0  0  0  0  0
    0.4227   -0.3931    1.7778 O   0  0  0  0  0  0  0  0  0  0  0  0
   -1.7495    0.1781    1.6266 N   0  0  0  0  0  0  0  0  0  0  0  0
   -2.5776    0.1708    1.0437 H   0  0  0  0  0  0  0  0  0  0  0  0
   -1.7821    0.8678    2.9091 C   0  0  0  0  0  0  0  0  0  0  0  0
   -1.1208    1.7407    2.8891 H   0  0  0  0  0  0  0  0  0  0  0  0
   -2.7984    1.2062    3.1316 H   0  0  0  0  0  0  0  0  0  0  0  0
   -1.4575    0.1976    3.7122 H   0  0  0  0  0  0  0  0  0  0  0  0
  1  2  1  0  0  0  0
  2  3  1  0  0  0  0
  2  4  1  0  0  0  0
  2  5  1  0  0  0  0
  5  6  2  0  0  0  0
  5  7  1  0  0  0  0
  7  8  1  0  0  0  0
  7  9  1  0  0  0  0
  9 10  1  0  0  0  0
  9 11  1  0  0  0  0
  9 29  1  0  0  0  0
 11 12  1  0  0  0  0
 11 13  1  0  0  0  0
 11 14  1  0  0  0  0
 14 15  2  0  0  0  0
 14 28  1  0  0  0  0
 15 16  1  0  0  0  0
 15 17  1  0  0  0  0
 17 18  1  0  0  0  0
 17 19  1  0  0  0  0
 19 20  1  0  0  0  0
 19 28  2  0  0  0  0
 20 21  1  0  0  0  0
 20 22  2  0  0  0  0
 22 23  1  0  0  0  0
 22 24  1  0  0  0  0
 24 25  1  0  0  0  0
 24 26  2  0  0  0  0
 26 27  1  0  0  0  0
 26 28  1  0  0  0  0
 29 30  2  0  0  0  0
 29 31  1  0  0  0  0
 31 32  1  0  0  0  0
 31 33  1  0  0  0  0
 33 34  1  0  0  0  0
 33 35  1  0  0  0  0
 33 36  1  0  0  0  0
M  END
$$$$

  -OEChem-03222214083D

 36 37  0     1  0  0  0  0  0999 V2000
   -3.3523   -4.6875    0.7422 H   0  0  0  0  0  0  0  0  0  0  0  0
   -3.3047   -3.8573    0.0314 C   0  0  0  0  0  0  0  0  0  0  0  0
   -4.2063   -3.2500    0.1399 H   0  0  0  0  0  0  0  0  0  0  0  0
   -3.2660   -4.2646   -0.9816 H   0  0  0  0  0  0  0  0  0  0  0  0
   -2.0739   -3.0120    0.3006 C   0  0  0  0  0  0  0  0  0  0  0  0
   -1.3297   -3.3037    1.2176 O   0  0  0  0  0  0  0  0  0  0  0  0
   -1.8058   -1.9212   -0.5027 N   0  0  0  0  0  0  0  0  0  0  0  0
   -2.4251   -1.7736   -1.2924 H   0  0  0  0  0  0  0  0  0  0  0  0
   -0.6267   -1.0416   -0.3532 C   0  0  1  0  0  0  0  0  0  0  0  0
    0.2726   -1.6646   -0.4135 H   0  0  0  0  0  0  0  0  0  0  0  0
   -0.6035   -0.0761   -1.5685 C   0  0  0  0  0  0  0  0  0  0  0  0
    0.1521   -0.4255   -2.2793 H   0  0  0  0  0  0  0  0  0  0  0  0
   -1.5669   -0.1175   -2.0857 H   0  0  0  0  0  0  0  0  0  0  0  0
   -0.3271    1.3725   -1.2500 C   0  0  0  0  0  0  0  0  0  0  0  0
   -1.2522    2.3900   -1.2409 C   0  0  0  0  0  0  0  0  0  0  0  0
   -2.3130    2.2846   -1.4535 H   0  0  0  0  0  0  0  0  0  0  0  0
   -0.5832    3.5689   -0.9218 N   0  0  0  0  0  0  0  0  0  0  0  0
   -1.0116    4.4876   -0.8329 H   0  0  0  0  0  0  0  0  0  0  0  0
    0.7645    3.3180   -0.7217 C   0  0  0  0  0  0  0  0  0  0  0  0
    1.8239    4.1589   -0.3805 C   0  0  0  0  0  0  0  0  0  0  0  0
    1.6545    5.2187   -0.2264 H   0  0  0  0  0  0  0  0  0  0  0  0
    3.1070    3.6138   -0.2315 C   0  0  0  0  0  0  0  0  0  0  0  0
    3.9407    4.2540    0.0405 H   0  0  0  0  0  0  0  0  0  0  0  0
    3.3135    2.2390   -0.4224 C   0  0  0  0  0  0  0  0  0  0  0  0
    4.3045    1.8153   -0.2933 H   0  0  0  0  0  0  0  0  0  0  0  0
    2.2406    1.4041   -0.7654 C   0  0  0  0  0  0  0  0  0  0  0  0
    2.3924    0.3372   -0.8922 H   0  0  0  0  0  0  0  0  0  0  0  0
    0.9655    1.9569   -0.9180 C   0  0  0  0  0  0  0  0  0  0  0  0
   -0.5442   -0.3387    1.0254 C   0  0  0  0  0  0  0  0  0  0  0  0
    0.5274   -0.2622    1.6132 O   0  0  0  0  0  0  0  0  0  0  0  0
   -1.6666    0.2482    1.5847 N   0  0  0  0  0  0  0  0  0  0  0  0
   -2.5468    0.1201    1.1004 H   0  0  0  0  0  0  0  0  0  0  0  0
   -1.6438    0.9496    2.8609 C   0  0  0  0  0  0  0  0  0  0  0  0
   -0.9507    1.7964    2.8168 H   0  0  0  0  0  0  0  0  0  0  0  0
   -2.6405    1.3300    3.1028 H   0  0  0  0  0  0  0  0  0  0  0  0
   -1.3254    0.2749    3.6625 H   0  0  0  0  0  0  0  0  0  0  0  0
  1  2  1  0  0  0  0
  2  3  1  0  0  0  0
  2  4  1  0  0  0  0
  2  5  1  0  0  0  0
  5  6  2  0  0  0  0
  5  7  1  0  0  0  0
  7  8  1  0  0  0  0
  7  9  1  0  0  0  0
  9 10  1  0  0  0  0
  9 11  1  0  0  0  0
  9 29  1  0  0  0  0
 11 12  1  0  0  0  0
 11 13  1  0  0  0  0
 11 14  1  0  0  0  0
 14 15  2  0  0  0  0
 14 28  1  0  0  0  0
 15 16  1  0  0  0  0
 15 17  1  0  0  0  0
 17 18  1  0  0  0  0
 17 19  1  0  0  0  0
 19 20  1  0  0  0  0
 19 28  2  0  0  0  0
 20 21  1  0  0  0  0
 20 22  2  0  0  0  0
 22 23  1  0  0  0  0
 22 24  1  0  0  0  0
 24 25  1  0  0  0  0
 24 26  2  0  0  0  0
 26 27  1  0  0  0  0
 26 28  1  0  0  0  0
 29 30  2  0  0  0  0
 29 31  1  0  0  0  0
 31 32  1  0  0  0  0
 31 33  1  0  0  0  0
 33 34  1  0  0  0  0
 33 35  1  0  0  0  0
 33 36  1  0  0  0  0
M  END
$$$$

  -OEChem-03222214083D

 36 37  0     1  0  0  0  0  0999 V2000
   -3.2956   -4.6977    0.7540 H   0  0  0  0  0  0  0  0  0  0  0  0
   -3.2672   -3.8718    0.0373 C   0  0  0  0  0  0  0  0  0  0  0  0
   -4.1901   -3.2943    0.1296 H   0  0  0  0  0  0  0  0  0  0  0  0
   -3.2015   -4.2858   -0.9717 H   0  0  0  0  0  0  0  0  0  0  0  0
   -2.0693   -2.9831    0.3147 C   0  0  0  0  0  0  0  0  0  0  0  0
   -1.3353   -3.2341    1.2517 O   0  0  0  0  0  0  0  0  0  0  0  0
   -1.8225   -1.8948   -0.4990 N   0  0  0  0  0  0  0  0  0  0  0  0
   -2.4209   -1.7917   -1.3119 H   0  0  0  0  0  0  0  0  0  0  0  0
   -0.6451   -1.0081   -0.3761 C   0  0  1  0  0  0  0  0  0  0  0  0
    0.2539   -1.6308   -0.4429 H   0  0  0  0  0  0  0  0  0  0  0  0
   -0.6290   -0.0534   -1.5994 C   0  0  0  0  0  0  0  0  0  0  0  0
    0.1107   -0.4123   -2.3217 H   0  0  0  0  0  0  0  0  0  0  0  0
   -1.6013   -0.0918   -2.0997 H   0  0  0  0  0  0  0  0  0  0  0  0
   -0.3489    1.3968   -1.2925 C   0  0  0  0  0  0  0  0  0  0  0  0
   -1.2791    2.3669   -1.0004 C   0  0  0  0  0  0  0  0  0  0  0  0
   -2.3550    2.2205   -0.9541 H   0  0  0  0  0  0  0  0  0  0  0  0
   -0.5931    3.5578   -0.7763 N   0  0  0  0  0  0  0  0  0  0  0  0
   -1.0177    4.4452   -0.5174 H   0  0  0  0  0  0  0  0  0  0  0  0
    0.7721    3.3574   -0.9015 C   0  0  0  0  0  0  0  0  0  0  0  0
    1.8542    4.2249   -0.7532 C   0  0  0  0  0  0  0  0  0  0  0  0
    1.6900    5.2661   -0.4999 H   0  0  0  0  0  0  0  0  0  0  0  0
    3.1544    3.7303   -0.9274 C   0  0  0  0  0  0  0  0  0  0  0  0
    4.0073    4.3918   -0.8090 H   0  0  0  0  0  0  0  0  0  0  0  0
    3.3561    2.3778   -1.2431 C   0  0  0  0  0  0  0  0  0  0  0  0
    4.3642    1.9938   -1.3653 H   0  0  0  0  0  0  0  0  0  0  0  0
    2.2602    1.5152   -1.3889 C   0  0  0  0  0  0  0  0  0  0  0  0
    2.4128    0.4654   -1.6158 H   0  0  0  0  0  0  0  0  0  0  0  0
    0.9664    2.0189   -1.2214 C   0  0  0  0  0  0  0  0  0  0  0  0
   -0.5389   -0.2976    0.9967 C   0  0  0  0  0  0  0  0  0  0  0  0
    0.5496   -0.1762    1.5444 O   0  0  0  0  0  0  0  0  0  0  0  0
   -1.6561    0.2842    1.5723 N   0  0  0  0  0  0  0  0  0  0  0  0
   -2.5520    0.0450    1.1644 H   0  0  0  0  0  0  0  0  0  0  0  0
   -1.6201    0.9382    2.8731 C   0  0  0  0  0  0  0  0  0  0  0  0
   -0.9088    1.7709    2.8614 H   0  0  0  0  0  0  0  0  0  0  0  0
   -2.6084    1.3326    3.1266 H   0  0  0  0  0  0  0  0  0  0  0  0
   -1.3185    0.2277    3.6499 H   0  0  0  0  0  0  0  0  0  0  0  0
  1  2  1  0  0  0  0
  2  3  1  0  0  0  0
  2  4  1  0  0  0  0
  2  5  1  0  0  0  0
  5  6  2  0  0  0  0
  5  7  1  0  0  0  0
  7  8  1  0  0  0  0
  7  9  1  0  0  0  0
  9 10  1  0  0  0  0
  9 11  1  0  0  0  0
  9 29  1  0  0  0  0
 11 12  1  0  0  0  0
 11 13  1  0  0  0  0
 11 14  1  0  0  0  0
 14 15  2  0  0  0  0
 14 28  1  0  0  0  0
 15 16  1  0  0  0  0
 15 17  1  0  0  0  0
 17 18  1  0  0  0  0
 17 19  1  0  0  0  0
 19 20  1  0  0  0  0
 19 28  2  0  0  0  0
 20 21  1  0  0  0  0
 20 22  2  0  0  0  0
 22 23  1  0  0  0  0
 22 24  1  0  0  0  0
 24 25  1  0  0  0  0
 24 26  2  0  0  0  0
 26 27  1  0  0  0  0
 26 28  1  0  0  0  0
 29 30  2  0  0  0  0
 29 31  1  0  0  0  0
 31 32  1  0  0  0  0
 31 33  1  0  0  0  0
 33 34  1  0  0  0  0
 33 35  1  0  0  0  0
 33 36  1  0  0  0  0
M  END
$$$$

  -OEChem-03222214083D

 36 37  0     1  0  0  0  0  0999 V2000
   -3.2832   -4.7225    0.7010 H   0  0  0  0  0  0  0  0  0  0  0  0
   -3.2516   -3.8923   -0.0107 C   0  0  0  0  0  0  0  0  0  0  0  0
   -4.1919   -3.3393    0.0528 H   0  0  0  0  0  0  0  0  0  0  0  0
   -3.1418   -4.2994   -1.0187 H   0  0  0  0  0  0  0  0  0  0  0  0
   -2.0855   -2.9762    0.3096 C   0  0  0  0  0  0  0  0  0  0  0  0
   -1.3743   -3.2161    1.2669 O   0  0  0  0  0  0  0  0  0  0  0  0
   -1.8422   -1.8749   -0.4875 N   0  0  0  0  0  0  0  0  0  0  0  0
   -2.4137   -1.7879   -1.3217 H   0  0  0  0  0  0  0  0  0  0  0  0
   -0.6653   -0.9892   -0.3525 C   0  0  1  0  0  0  0  0  0  0  0  0
    0.2317   -1.6147   -0.4203 H   0  0  0  0  0  0  0  0  0  0  0  0
   -0.6313   -0.0260   -1.5695 C   0  0  0  0  0  0  0  0  0  0  0  0
    0.1084   -0.3949   -2.2860 H   0  0  0  0  0  0  0  0  0  0  0  0
   -1.5999   -0.0579   -2.0778 H   0  0  0  0  0  0  0  0  0  0  0  0
   -0.3498    1.4287   -1.2745 C   0  0  0  0  0  0  0  0  0  0  0  0
   -1.2141    2.3482   -0.7258 C   0  0  0  0  0  0  0  0  0  0  0  0
   -2.2381    2.1504   -0.4200 H   0  0  0  0  0  0  0  0  0  0  0  0
   -0.5399    3.5622   -0.6269 N   0  0  0  0  0  0  0  0  0  0  0  0
   -0.9176    4.4166   -0.2242 H   0  0  0  0  0  0  0  0  0  0  0  0
    0.7573    3.4304   -1.0928 C   0  0  0  0  0  0  0  0  0  0  0  0
    1.8058    4.3461   -1.1821 C   0  0  0  0  0  0  0  0  0  0  0  0
    1.6666    5.3697   -0.8527 H   0  0  0  0  0  0  0  0  0  0  0  0
    3.0391    3.9234   -1.6972 C   0  0  0  0  0  0  0  0  0  0  0  0
    3.8656    4.6239   -1.7703 H   0  0  0  0  0  0  0  0  0  0  0  0
    3.2096    2.5935   -2.1110 C   0  0  0  0  0  0  0  0  0  0  0  0
    4.1684    2.2666   -2.5015 H   0  0  0  0  0  0  0  0  0  0  0  0
    2.1485    1.6817   -2.0134 C   0  0  0  0  0  0  0  0  0  0  0  0
    2.2831    0.6502   -2.3207 H   0  0  0  0  0  0  0  0  0  0  0  0
    0.9179    2.1125   -1.5054 C   0  0  0  0  0  0  0  0  0  0  0  0
   -0.5623   -0.3039    1.0332 C   0  0  0  0  0  0  0  0  0  0  0  0
    0.5294   -0.1544    1.5667 O   0  0  0  0  0  0  0  0  0  0  0  0
   -1.6836    0.2629    1.6171 N   0  0  0  0  0  0  0  0  0  0  0  0
   -2.5769   -0.0305    1.2387 H   0  0  0  0  0  0  0  0  0  0  0  0
   -1.6481    0.8844    2.9343 C   0  0  0  0  0  0  0  0  0  0  0  0
   -0.9349    1.7154    2.9456 H   0  0  0  0  0  0  0  0  0  0  0  0
   -2.6358    1.2753    3.1957 H   0  0  0  0  0  0  0  0  0  0  0  0
   -1.3498    0.1539    3.6936 H   0  0  0  0  0  0  0  0  0  0  0  0
  1  2  1  0  0  0  0
  2  3  1  0  0  0  0
  2  4  1  0  0  0  0
  2  5  1  0  0  0  0
  5  6  2  0  0  0  0
  5  7  1  0  0  0  0
  7  8  1  0  0  0  0
  7  9  1  0  0  0  0
  9 10  1  0  0  0  0
  9 11  1  0  0  0  0
  9 29  1  0  0  0  0
 11 12  1  0  0  0  0
 11 13  1  0  0  0  0
 11 14  1  0  0  0  0
 14 15  2  0  0  0  0
 14 28  1  0  0  0  0
 15 16  1  0  0  0  0
 15 17  1  0  0  0  0
 17 18  1  0  0  0  0
 17 19  1  0  0  0  0
 19 20  1  0  0  0  0
 19 28  2  0  0  0  0
 20 21  1  0  0  0  0
 20 22  2  0  0  0  0
 22 23  1  0  0  0  0
 22 24  1  0  0  0  0
 24 25  1  0  0  0  0
 24 26  2  0  0  0  0
 26 27  1  0  0  0  0
 26 28  1  0  0  0  0
 29 30  2  0  0  0  0
 29 31  1  0  0  0  0
 31 32  1  0  0  0  0
 31 33  1  0  0  0  0
 33 34  1  0  0  0  0
 33 35  1  0  0  0  0
 33 36  1  0  0  0  0
M  END
$$$$

  -OEChem-03222214083D

 36 37  0     1  0  0  0  0  0999 V2000
   -3.2682   -4.7513    0.6148 H   0  0  0  0  0  0  0  0  0  0  0  0
   -3.2456   -3.8973   -0.0685 C   0  0  0  0  0  0  0  0  0  0  0  0
   -4.1912   -3.3562    0.0148 H   0  0  0  0  0  0  0  0  0  0  0  0
   -3.1330   -4.2691   -1.0896 H   0  0  0  0  0  0  0  0  0  0  0  0
   -2.0884   -2.9805    0.2815 C   0  0  0  0  0  0  0  0  0  0  0  0
   -1.3765   -3.2424    1.2325 O   0  0  0  0  0  0  0  0  0  0  0  0
   -1.8546   -1.8512   -0.4787 N   0  0  0  0  0  0  0  0  0  0  0  0
   -2.4292   -1.7395   -1.3081 H   0  0  0  0  0  0  0  0  0  0  0  0
   -0.6840   -0.9614   -0.3170 C   0  0  1  0  0  0  0  0  0  0  0  0
    0.2116   -1.5893   -0.3879 H   0  0  0  0  0  0  0  0  0  0  0  0
   -0.6224    0.0130   -1.5264 C   0  0  0  0  0  0  0  0  0  0  0  0
    0.1379   -0.3641   -2.2160 H   0  0  0  0  0  0  0  0  0  0  0  0
   -1.5737   -0.0258   -2.0652 H   0  0  0  0  0  0  0  0  0  0  0  0
   -0.3506    1.4783   -1.2562 C   0  0  0  0  0  0  0  0  0  0  0  0
   -1.0908    2.3570   -0.4973 C   0  0  0  0  0  0  0  0  0  0  0  0
   -2.0106    2.1225    0.0304 H   0  0  0  0  0  0  0  0  0  0  0  0
   -0.4563    3.5950   -0.5275 N   0  0  0  0  0  0  0  0  0  0  0  0
   -0.7557    4.4236   -0.0186 H   0  0  0  0  0  0  0  0  0  0  0  0
    0.6940    3.5256   -1.2929 C   0  0  0  0  0  0  0  0  0  0  0  0
    1.6540    4.4886   -1.6035 C   0  0  0  0  0  0  0  0  0  0  0  0
    1.5603    5.4979   -1.2188 H   0  0  0  0  0  0  0  0  0  0  0  0
    2.7402    4.1329   -2.4142 C   0  0  0  0  0  0  0  0  0  0  0  0
    3.4965    4.8711   -2.6634 H   0  0  0  0  0  0  0  0  0  0  0  0
    2.8542    2.8218   -2.8996 C   0  0  0  0  0  0  0  0  0  0  0  0
    3.6993    2.5469   -3.5233 H   0  0  0  0  0  0  0  0  0  0  0  0
    1.8842    1.8618   -2.5766 C   0  0  0  0  0  0  0  0  0  0  0  0
    1.9812    0.8470   -2.9464 H   0  0  0  0  0  0  0  0  0  0  0  0
    0.7984    2.2233   -1.7692 C   0  0  0  0  0  0  0  0  0  0  0  0
   -0.5848   -0.3231    1.0909 C   0  0  0  0  0  0  0  0  0  0  0  0
    0.5082   -0.1579    1.6164 O   0  0  0  0  0  0  0  0  0  0  0  0
   -1.7095    0.2136    1.6968 N   0  0  0  0  0  0  0  0  0  0  0  0
   -2.5997   -0.0988    1.3247 H   0  0  0  0  0  0  0  0  0  0  0  0
   -1.6745    0.7819    3.0385 C   0  0  0  0  0  0  0  0  0  0  0  0
   -0.9731    1.6222    3.0804 H   0  0  0  0  0  0  0  0  0  0  0  0
   -2.6661    1.1474    3.3214 H   0  0  0  0  0  0  0  0  0  0  0  0
   -1.3613    0.0255    3.7660 H   0  0  0  0  0  0  0  0  0  0  0  0
  1  2  1  0  0  0  0
  2  3  1  0  0  0  0
  2  4  1  0  0  0  0
  2  5  1  0  0  0  0
  5  6  2  0  0  0  0
  5  7  1  0  0  0  0
  7  8  1  0  0  0  0
  7  9  1  0  0  0  0
  9 10  1  0  0  0  0
  9 11  1  0  0  0  0
  9 29  1  0  0  0  0
 11 12  1  0  0  0  0
 11 13  1  0  0  0  0
 11 14  1  0  0  0  0
 14 15  2  0  0  0  0
 14 28  1  0  0  0  0
 15 16  1  0  0  0  0
 15 17  1  0  0  0  0
 17 18  1  0  0  0  0
 17 19  1  0  0  0  0
 19 20  1  0  0  0  0
 19 28  2  0  0  0  0
 20 21  1  0  0  0  0
 20 22  2  0  0  0  0
 22 23  1  0  0  0  0
 22 24  1  0  0  0  0
 24 25  1  0  0  0  0
 24 26  2  0  0  0  0
 26 27  1  0  0  0  0
 26 28  1  0  0  0  0
 29 30  2  0  0  0  0
 29 31  1  0  0  0  0
 31 32  1  0  0  0  0
 31 33  1  0  0  0  0
 33 34  1  0  0  0  0
 33 35  1  0  0  0  0
 33 36  1  0  0  0  0
M  END
$$$$

  -OEChem-03222214083D

 36 37  0     1  0  0  0  0  0999 V2000
   -3.2590   -4.7651    0.4850 H   0  0  0  0  0  0  0  0  0  0  0  0
   -3.2398   -3.8794   -0.1567 C   0  0  0  0  0  0  0  0  0  0  0  0
   -4.1858   -3.3440   -0.0456 H   0  0  0  0  0  0  0  0  0  0  0  0
   -3.1290   -4.2020   -1.1948 H   0  0  0  0  0  0  0  0  0  0  0  0
   -2.0829   -2.9787    0.2332 C   0  0  0  0  0  0  0  0  0  0  0  0
   -1.3640   -3.2861    1.1654 O   0  0  0  0  0  0  0  0  0  0  0  0
   -1.8544   -1.8137   -0.4724 N   0  0  0  0  0  0  0  0  0  0  0  0
   -2.4437   -1.6537   -1.2836 H   0  0  0  0  0  0  0  0  0  0  0  0
   -0.6899   -0.9245   -0.2698 C   0  0  1  0  0  0  0  0  0  0  0  0
    0.2048   -1.5525   -0.3505 H   0  0  0  0  0  0  0  0  0  0  0  0
   -0.6040    0.0779   -1.4566 C   0  0  0  0  0  0  0  0  0  0  0  0
    0.1832   -0.2960   -2.1169 H   0  0  0  0  0  0  0  0  0  0  0  0
   -1.5345    0.0333   -2.0303 H   0  0  0  0  0  0  0  0  0  0  0  0
   -0.3408    1.5514   -1.2018 C   0  0  0  0  0  0  0  0  0  0  0  0
   -0.8923    2.4054   -0.2712 C   0  0  0  0  0  0  0  0  0  0  0  0
   -1.6512    2.1558    0.4620 H   0  0  0  0  0  0  0  0  0  0  0  0
   -0.3211    3.6628   -0.4391 N   0  0  0  0  0  0  0  0  0  0  0  0
   -0.5107    4.4773    0.1404 H   0  0  0  0  0  0  0  0  0  0  0  0
    0.5989    3.6381   -1.4696 C   0  0  0  0  0  0  0  0  0  0  0  0
    1.4174    4.6368   -1.9968 C   0  0  0  0  0  0  0  0  0  0  0  0
    1.3925    5.6387   -1.5828 H   0  0  0  0  0  0  0  0  0  0  0  0
    2.2714    4.3267   -3.0635 C   0  0  0  0  0  0  0  0  0  0  0  0
    2.9161    5.0928   -3.4837 H   0  0  0  0  0  0  0  0  0  0  0  0
    2.2960    3.0254   -3.5861 C   0  0  0  0  0  0  0  0  0  0  0  0
    2.9608    2.7862   -4.4105 H   0  0  0  0  0  0  0  0  0  0  0  0
    1.4694    2.0302   -3.0444 C   0  0  0  0  0  0  0  0  0  0  0  0
    1.4983    1.0251   -3.4504 H   0  0  0  0  0  0  0  0  0  0  0  0
    0.6167    2.3441   -1.9773 C   0  0  0  0  0  0  0  0  0  0  0  0
   -0.6035   -0.3567    1.1675 C   0  0  0  0  0  0  0  0  0  0  0  0
    0.4859   -0.1807    1.6965 O   0  0  0  0  0  0  0  0  0  0  0  0
   -1.7369    0.1378    1.7926 N   0  0  0  0  0  0  0  0  0  0  0  0
   -2.6210   -0.1664    1.3989 H   0  0  0  0  0  0  0  0  0  0  0  0
   -1.7190    0.6234    3.1670 C   0  0  0  0  0  0  0  0  0  0  0  0
   -1.0326    1.4712    3.2657 H   0  0  0  0  0  0  0  0  0  0  0  0
   -2.7183    0.9540    3.4646 H   0  0  0  0  0  0  0  0  0  0  0  0
   -1.3982   -0.1714    3.8489 H   0  0  0  0  0  0  0  0  0  0  0  0
  1  2  1  0  0  0  0
  2  3  1  0  0  0  0
  2  4  1  0  0  0  0
  2  5  1  0  0  0  0
  5  6  2  0  0  0  0
  5  7  1  0  0  0  0
  7  8  1  0  0  0  0
  7  9  1  0  0  0  0
  9 10  1  0  0  0  0
  9 11  1  0  0  0  0
  9 29  1  0  0  0  0
 11 12  1  0  0  0  0
 11 13  1  0  0  0  0
 11 14  1  0  0  0  0
 14 15  2  0  0  0  0
 14 28  1  0  0  0  0
 15 16  1  0  0  0  0
 15 17  1  0  0  0  0
 17 18  1  0  0  0  0
 17 19  1  0  0  0  0
 19 20  1  0  0  0  0
 19 28  2  0  0  0  0
 20 21  1  0  0  0  0
 20 22  2  0  0  0  0
 22 23  1  0  0  0  0
 22 24  1  0  0  0  0
 24 25  1  0  0  0  0
 24 26  2  0  0  0  0
 26 27  1  0  0  0  0
 26 28  1  0  0  0  0
 29 30  2  0  0  0  0
 29 31  1  0  0  0  0
 31 32  1  0  0  0  0
 31 33  1  0  0  0  0
 33 34  1  0  0  0  0
 33 35  1  0  0  0  0
 33 36  1  0  0  0  0
M  END
$$$$

  -OEChem-03222214083D

 36 37  0     1  0  0  0  0  0999 V2000
   -3.3401   -4.7039    0.3660 H   0  0  0  0  0  0  0  0  0  0  0  0
   -3.2834   -3.8003   -0.2480 C   0  0  0  0  0  0  0  0  0  0  0  0
   -4.2067   -3.2305   -0.1206 H   0  0  0  0  0  0  0  0  0  0  0  0
   -3.1851   -4.0945   -1.2958 H   0  0  0  0  0  0  0  0  0  0  0  0
   -2.0914   -2.9601    0.1702 C   0  0  0  0  0  0  0  0  0  0  0  0
   -1.3786   -3.3319    1.0835 O   0  0  0  0  0  0  0  0  0  0  0  0
   -1.8250   -1.7748   -0.4868 N   0  0  0  0  0  0  0  0  0  0  0  0
   -2.4159   -1.5546   -1.2824 H   0  0  0  0  0  0  0  0  0  0  0  0
   -0.6456   -0.9177   -0.2344 C   0  0  1  0  0  0  0  0  0  0  0  0
    0.2445   -1.5500   -0.3305 H   0  0  0  0  0  0  0  0  0  0  0  0
   -0.5470    0.1384   -1.3738 C   0  0  0  0  0  0  0  0  0  0  0  0
    0.2445   -0.2221   -2.0375 H   0  0  0  0  0  0  0  0  0  0  0  0
   -1.4731    0.1209   -1.9558 H   0  0  0  0  0  0  0  0  0  0  0  0
   -0.2629    1.6069   -1.0980 C   0  0  0  0  0  0  0  0  0  0  0  0
   -0.5478    2.4287   -0.0264 C   0  0  0  0  0  0  0  0  0  0  0  0
   -1.0452    2.1529    0.8956 H   0  0  0  0  0  0  0  0  0  0  0  0
   -0.0824    3.7073   -0.3184 N   0  0  0  0  0  0  0  0  0  0  0  0
   -0.1207    4.5037    0.3139 H   0  0  0  0  0  0  0  0  0  0  0  0
    0.4953    3.7356   -1.5722 C   0  0  0  0  0  0  0  0  0  0  0  0
    1.0915    4.7705   -2.2922 C   0  0  0  0  0  0  0  0  0  0  0  0
    1.1599    5.7648   -1.8653 H   0  0  0  0  0  0  0  0  0  0  0  0
    1.6007    4.5071   -3.5708 C   0  0  0  0  0  0  0  0  0  0  0  0
    2.0692    5.3028   -4.1421 H   0  0  0  0  0  0  0  0  0  0  0  0
    1.5064    3.2161   -4.1108 C   0  0  0  0  0  0  0  0  0  0  0  0
    1.9024    3.0135   -5.1013 H   0  0  0  0  0  0  0  0  0  0  0  0
    0.9060    2.1845   -3.3745 C   0  0  0  0  0  0  0  0  0  0  0  0
    0.8384    1.1874   -3.7957 H   0  0  0  0  0  0  0  0  0  0  0  0
    0.4007    2.4518   -2.0951 C   0  0  0  0  0  0  0  0  0  0  0  0
   -0.5961   -0.4193    1.2286 C   0  0  0  0  0  0  0  0  0  0  0  0
    0.4774   -0.2703    1.7967 O   0  0  0  0  0  0  0  0  0  0  0  0
   -1.7443    0.0631    1.8368 N   0  0  0  0  0  0  0  0  0  0  0  0
   -2.6180   -0.1860    1.3848 H   0  0  0  0  0  0  0  0  0  0  0  0
   -1.7762    0.4645    3.2380 C   0  0  0  0  0  0  0  0  0  0  0  0
   -1.0665    1.2780    3.4224 H   0  0  0  0  0  0  0  0  0  0  0  0
   -2.7772    0.8139    3.5084 H   0  0  0  0  0  0  0  0  0  0  0  0
   -1.5160   -0.3814    3.8832 H   0  0  0  0  0  0  0  0  0  0  0  0
  1  2  1  0  0  0  0
  2  3  1  0  0  0  0
  2  4  1  0  0  0  0
  2  5  1  0  0  0  0
  5  6  2  0  0  0  0
  5  7  1  0  0  0  0
  7  8  1  0  0  0  0
  7  9  1  0  0  0  0
  9 10  1  0  0  0  0
  9 11  1  0  0  0  0
  9 29  1  0  0  0  0
 11 12  1  0  0  0  0
 11 13  1  0  0  0  0
 11 14  1  0  0  0  0
 14 15  2  0  0  0  0
 14 28  1  0  0  0  0
 15 16  1  0  0  0  0
 15 17  1  0  0  0  0
 17 18  1  0  0  0  0
 17 19  1  0  0  0  0
 19 20  1  0  0  0  0
 19 28  2  0  0  0  0
 20 21  1  0  0  0  0
 20 22  2  0  0  0  0
 22 23  1  0  0  0  0
 22 24  1  0  0  0  0
 24 25  1  0  0  0  0
 24 26  2  0  0  0  0
 26 27  1  0  0  0  0
 26 28  1  0  0  0  0
 29 30  2  0  0  0  0
 29 31  1  0  0  0  0
 31 32  1  0  0  0  0
 31 33  1  0  0  0  0
 33 34  1  0  0  0  0
 33 35  1  0  0  0  0
 33 36  1  0  0  0  0
M  END
$$$$

  -OEChem-03222214083D

 36 37  0     1  0  0  0  0  0999 V2000
   -3.4773   -4.6047    0.3247 H   0  0  0  0  0  0  0  0  0  0  0  0
   -3.3731   -3.7038   -0.2871 C   0  0  0  0  0  0  0  0  0  0  0  0
   -4.2627   -3.0838   -0.1534 H   0  0  0  0  0  0  0  0  0  0  0  0
   -3.2957   -3.9995   -1.3361 H   0  0  0  0  0  0  0  0  0  0  0  0
   -2.1343   -2.9325    0.1280 C   0  0  0  0  0  0  0  0  0  0  0  0
   -1.4267   -3.3577    1.0220 O   0  0  0  0  0  0  0  0  0  0  0  0
   -1.8194   -1.7495   -0.5111 N   0  0  0  0  0  0  0  0  0  0  0  0
   -2.4161   -1.4791   -1.2869 H   0  0  0  0  0  0  0  0  0  0  0  0
   -0.6093   -0.9411   -0.2426 C   0  0  1  0  0  0  0  0  0  0  0  0
    0.2655   -1.5910   -0.3594 H   0  0  0  0  0  0  0  0  0  0  0  0
   -0.5111    0.1490   -1.3507 C   0  0  0  0  0  0  0  0  0  0  0  0
    0.2526   -0.2065   -2.0496 H   0  0  0  0  0  0  0  0  0  0  0  0
   -1.4550    0.1707   -1.9037 H   0  0  0  0  0  0  0  0  0  0  0  0
   -0.1856    1.6058   -1.0536 C   0  0  0  0  0  0  0  0  0  0  0  0
   -0.1693    2.3656    0.1003 C   0  0  0  0  0  0  0  0  0  0  0  0
   -0.3630    2.0282    1.1130 H   0  0  0  0  0  0  0  0  0  0  0  0
    0.1623    3.6739   -0.2413 N   0  0  0  0  0  0  0  0  0  0  0  0
    0.2844    4.4381    0.4198 H   0  0  0  0  0  0  0  0  0  0  0  0
    0.3544    3.7841   -1.6045 C   0  0  0  0  0  0  0  0  0  0  0  0
    0.6919    4.8716   -2.4105 C   0  0  0  0  0  0  0  0  0  0  0  0
    0.8535    5.8492   -1.9701 H   0  0  0  0  0  0  0  0  0  0  0  0
    0.8192    4.6829   -3.7935 C   0  0  0  0  0  0  0  0  0  0  0  0
    1.0822    5.5199   -4.4337 H   0  0  0  0  0  0  0  0  0  0  0  0
    0.6094    3.4129   -4.3508 C   0  0  0  0  0  0  0  0  0  0  0  0
    0.7117    3.2682   -5.4221 H   0  0  0  0  0  0  0  0  0  0  0  0
    0.2719    2.3282   -3.5287 C   0  0  0  0  0  0  0  0  0  0  0  0
    0.1132    1.3465   -3.9619 H   0  0  0  0  0  0  0  0  0  0  0  0
    0.1462    2.5225   -2.1470 C   0  0  0  0  0  0  0  0  0  0  0  0
   -0.5580   -0.4709    1.2282 C   0  0  0  0  0  0  0  0  0  0  0  0
    0.5130   -0.3775    1.8136 O   0  0  0  0  0  0  0  0  0  0  0  0
   -1.6938    0.0435    1.8326 N   0  0  0  0  0  0  0  0  0  0  0  0
   -2.5695   -0.1352    1.3523 H   0  0  0  0  0  0  0  0  0  0  0  0
   -1.7355    0.4107    3.2429 C   0  0  0  0  0  0  0  0  0  0  0  0
   -0.9914    1.1833    3.4633 H   0  0  0  0  0  0  0  0  0  0  0  0
   -2.7237    0.8022    3.5022 H   0  0  0  0  0  0  0  0  0  0  0  0
   -1.5314   -0.4634    3.8702 H   0  0  0  0  0  0  0  0  0  0  0  0
  1  2  1  0  0  0  0
  2  3  1  0  0  0  0
  2  4  1  0  0  0  0
  2  5  1  0  0  0  0
  5  6  2  0  0  0  0
  5  7  1  0  0  0  0
  7  8  1  0  0  0  0
  7  9  1  0  0  0  0
  9 10  1  0  0  0  0
  9 11  1  0  0  0  0
  9 29  1  0  0  0  0
 11 12  1  0  0  0  0
 11 13  1  0  0  0  0
 11 14  1  0  0  0  0
 14 15  2  0  0  0  0
 14 28  1  0  0  0  0
 15 16  1  0  0  0  0
 15 17  1  0  0  0  0
 17 18  1  0  0  0  0
 17 19  1  0  0  0  0
 19 20  1  0  0  0  0
 19 28  2  0  0  0  0
 20 21  1  0  0  0  0
 20 22  2  0  0  0  0
 22 23  1  0  0  0  0
 22 24  1  0  0  0  0
 24 25  1  0  0  0  0
 24 26  2  0  0  0  0
 26 27  1  0  0  0  0
 26 28  1  0  0  0  0
 29 30  2  0  0  0  0
 29 31  1  0  0  0  0
 31 32  1  0  0  0  0
 31 33  1  0  0  0  0
 33 34  1  0  0  0  0
 33 35  1  0  0  0  0
 33 36  1  0  0  0  0
M  END
$$$$

  -OEChem-03222214083D

 36 37  0     1  0  0  0  0  0999 V2000
   -3.5683   -4.5445    0.3462 H   0  0  0  0  0  0  0  0  0  0  0  0
   -3.4429   -3.6501   -0.2709 C   0  0  0  0  0  0  0  0  0  0  0  0
   -4.3082   -2.9991   -0.1252 H   0  0  0  0  0  0  0  0  0  0  0  0
   -3.3933   -3.9521   -1.3200 H   0  0  0  0  0  0  0  0  0  0  0  0
   -2.1712   -2.9212    0.1207 C   0  0  0  0  0  0  0  0  0  0  0  0
   -1.4592   -3.3732    0.9978 O   0  0  0  0  0  0  0  0  0  0  0  0
   -1.8269   -1.7502   -0.5253 N   0  0  0  0  0  0  0  0  0  0  0  0
   -2.4351   -1.4506   -1.2808 H   0  0  0  0  0  0  0  0  0  0  0  0
   -0.5945   -0.9733   -0.2654 C   0  0  1  0  0  0  0  0  0  0  0  0
    0.2681   -1.6361   -0.3981 H   0  0  0  0  0  0  0  0  0  0  0  0
   -0.5071    0.1250   -1.3673 C   0  0  0  0  0  0  0  0  0  0  0  0
    0.2225   -0.2303   -2.1022 H   0  0  0  0  0  0  0  0  0  0  0  0
   -1.4723    0.1697   -1.8812 H   0  0  0  0  0  0  0  0  0  0  0  0
   -0.1531    1.5742   -1.0644 C   0  0  0  0  0  0  0  0  0  0  0  0
    0.1552    2.2655    0.0922 C   0  0  0  0  0  0  0  0  0  0  0  0
    0.2500    1.8632    1.0963 H   0  0  0  0  0  0  0  0  0  0  0  0
    0.3524    3.6033   -0.2379 N   0  0  0  0  0  0  0  0  0  0  0  0
    0.6189    4.3339    0.4187 H   0  0  0  0  0  0  0  0  0  0  0  0
    0.1762    3.7987   -1.5936 C   0  0  0  0  0  0  0  0  0  0  0  0
    0.2648    4.9420   -2.3876 C   0  0  0  0  0  0  0  0  0  0  0  0
    0.5122    5.8989   -1.9413 H   0  0  0  0  0  0  0  0  0  0  0  0
    0.0309    4.8359   -3.7654 C   0  0  0  0  0  0  0  0  0  0  0  0
    0.0970    5.7173   -4.3963 H   0  0  0  0  0  0  0  0  0  0  0  0
   -0.2857    3.5912   -4.3299 C   0  0  0  0  0  0  0  0  0  0  0  0
   -0.4634    3.5105   -5.3980 H   0  0  0  0  0  0  0  0  0  0  0  0
   -0.3699    2.4496   -3.5202 C   0  0  0  0  0  0  0  0  0  0  0  0
   -0.6099    1.4869   -3.9586 H   0  0  0  0  0  0  0  0  0  0  0  0
   -0.1374    2.5629   -2.1438 C   0  0  0  0  0  0  0  0  0  0  0  0
   -0.5212   -0.4958    1.2015 C   0  0  0  0  0  0  0  0  0  0  0  0
    0.5512   -0.4728    1.7927 O   0  0  0  0  0  0  0  0  0  0  0  0
   -1.6337    0.0561    1.8136 N   0  0  0  0  0  0  0  0  0  0  0  0
   -2.5143   -0.0388    1.3191 H   0  0  0  0  0  0  0  0  0  0  0  0
   -1.6517    0.4630    3.2127 C   0  0  0  0  0  0  0  0  0  0  0  0
   -0.9200    1.2577    3.3917 H   0  0  0  0  0  0  0  0  0  0  0  0
   -2.6425    0.8400    3.4834 H   0  0  0  0  0  0  0  0  0  0  0  0
   -1.4144   -0.3871    3.8611 H   0  0  0  0  0  0  0  0  0  0  0  0
  1  2  1  0  0  0  0
  2  3  1  0  0  0  0
  2  4  1  0  0  0  0
  2  5  1  0  0  0  0
  5  6  2  0  0  0  0
  5  7  1  0  0  0  0
  7  8  1  0  0  0  0
  7  9  1  0  0  0  0
  9 10  1  0  0  0  0
  9 11  1  0  0  0  0
  9 29  1  0  0  0  0
 11 12  1  0  0  0  0
 11 13  1  0  0  0  0
 11 14  1  0  0  0  0
 14 15  2  0  0  0  0
 14 28  1  0  0  0  0
 15 16  1  0  0  0  0
 15 17  1  0  0  0  0
 17 18  1  0  0  0  0
 17 19  1  0  0  0  0
 19 20  1  0  0  0  0
 19 28  2  0  0  0  0
 20 21  1  0  0  0  0
 20 22  2  0  0  0  0
 22 23  1  0  0  0  0
 22 24  1  0  0  0  0
 24 25  1  0  0  0  0
 24 26  2  0  0  0  0
 26 27  1  0  0  0  0
 26 28  1  0  0  0  0
 29 30  2  0  0  0  0
 29 31  1  0  0  0  0
 31 32  1  0  0  0  0
 31 33  1  0  0  0  0
 33 34  1  0  0  0  0
 33 35  1  0  0  0  0
 33 36  1  0  0  0  0
M  END
$$$$

  -OEChem-03222214083D

 36 37  0     1  0  0  0  0  0999 V2000
   -3.6191   -4.5081    0.4394 H   0  0  0  0  0  0  0  0  0  0  0  0
   -3.4891   -3.6241   -0.1913 C   0  0  0  0  0  0  0  0  0  0  0  0
   -4.3319   -2.9486   -0.0264 H   0  0  0  0  0  0  0  0  0  0  0  0
   -3.4801   -3.9380   -1.2377 H   0  0  0  0  0  0  0  0  0  0  0  0
   -2.1867   -2.9257    0.1517 C   0  0  0  0  0  0  0  0  0  0  0  0
   -1.4589   -3.3868    1.0109 O   0  0  0  0  0  0  0  0  0  0  0  0
   -1.8306   -1.7766   -0.5263 N   0  0  0  0  0  0  0  0  0  0  0  0
   -2.4586   -1.4680   -1.2614 H   0  0  0  0  0  0  0  0  0  0  0  0
   -0.5849   -1.0118   -0.2952 C   0  0  1  0  0  0  0  0  0  0  0  0
    0.2714   -1.6825   -0.4284 H   0  0  0  0  0  0  0  0  0  0  0  0
   -0.5145    0.0735   -1.4123 C   0  0  0  0  0  0  0  0  0  0  0  0
    0.1845   -0.2895   -2.1727 H   0  0  0  0  0  0  0  0  0  0  0  0
   -1.4974    0.1235   -1.8903 H   0  0  0  0  0  0  0  0  0  0  0  0
   -0.1417    1.5193   -1.1179 C   0  0  0  0  0  0  0  0  0  0  0  0
    0.4420    2.1373   -0.0289 C   0  0  0  0  0  0  0  0  0  0  0  0
    0.8096    1.6616    0.8758 H   0  0  0  0  0  0  0  0  0  0  0  0
    0.5165    3.5024   -0.2897 N   0  0  0  0  0  0  0  0  0  0  0  0
    0.9218    4.1954    0.3362 H   0  0  0  0  0  0  0  0  0  0  0  0
   -0.0060    3.7859   -1.5365 C   0  0  0  0  0  0  0  0  0  0  0  0
   -0.1462    4.9861   -2.2328 C   0  0  0  0  0  0  0  0  0  0  0  0
    0.1878    5.9173   -1.7891 H   0  0  0  0  0  0  0  0  0  0  0  0
   -0.7201    4.9708   -3.5111 C   0  0  0  0  0  0  0  0  0  0  0  0
   -0.8343    5.8975   -4.0656 H   0  0  0  0  0  0  0  0  0  0  0  0
   -1.1430    3.7586   -4.0763 C   0  0  0  0  0  0  0  0  0  0  0  0
   -1.5840    3.7499   -5.0684 H   0  0  0  0  0  0  0  0  0  0  0  0
   -0.9943    2.5586   -3.3658 C   0  0  0  0  0  0  0  0  0  0  0  0
   -1.3155    1.6217   -3.8074 H   0  0  0  0  0  0  0  0  0  0  0  0
   -0.4239    2.5806   -2.0866 C   0  0  0  0  0  0  0  0  0  0  0  0
   -0.4969   -0.4999    1.1603 C   0  0  0  0  0  0  0  0  0  0  0  0
    0.5692   -0.5319    1.7633 O   0  0  0  0  0  0  0  0  0  0  0  0
   -1.5942    0.0842    1.7688 N   0  0  0  0  0  0  0  0  0  0  0  0
   -2.4664    0.0773    1.2513 H   0  0  0  0  0  0  0  0  0  0  0  0
   -1.5856    0.5690    3.1424 C   0  0  0  0  0  0  0  0  0  0  0  0
   -0.8646    1.3853    3.2553 H   0  0  0  0  0  0  0  0  0  0  0  0
   -2.5764    0.9418    3.4187 H   0  0  0  0  0  0  0  0  0  0  0  0
   -1.3157   -0.2388    3.8308 H   0  0  0  0  0  0  0  0  0  0  0  0
  1  2  1  0  0  0  0
  2  3  1  0  0  0  0
  2  4  1  0  0  0  0
  2  5  1  0  0  0  0
  5  6  2  0  0  0  0
  5  7  1  0  0  0  0
  7  8  1  0  0  0  0
  7  9  1  0  0  0  0
  9 10  1  0  0  0  0
  9 11  1  0  0  0  0
  9 29  1  0  0  0  0
 11 12  1  0  0  0  0
 11 13  1  0  0  0  0
 11 14  1  0  0  0  0
 14 15  2  0  0  0  0
 14 28  1  0  0  0  0
 15 16  1  0  0  0  0
 15 17  1  0  0  0  0
 17 18  1  0  0  0  0
 17 19  1  0  0  0  0
 19 20  1  0  0  0  0
 19 28  2  0  0  0  0
 20 21  1  0  0  0  0
 20 22  2  0  0  0  0
 22 23  1  0  0  0  0
 22 24  1  0  0  0  0
 24 25  1  0  0  0  0
 24 26  2  0  0  0  0
 26 27  1  0  0  0  0
 26 28  1  0  0  0  0
 29 30  2  0  0  0  0
 29 31  1  0  0  0  0
 31 32  1  0  0  0  0
 31 33  1  0  0  0  0
 33 34  1  0  0  0  0
 33 35  1  0  0  0  0
 33 36  1  0  0  0  0
M  END
$$$$

  -OEChem-03222214083D

 36 37  0     1  0  0  0  0  0999 V2000
   -3.6057   -4.4969    0.6179 H   0  0  0  0  0  0  0  0  0  0  0  0
   -3.4884   -3.6459   -0.0594 C   0  0  0  0  0  0  0  0  0  0  0  0
   -4.3132   -2.9490    0.1073 H   0  0  0  0  0  0  0  0  0  0  0  0
   -3.5269   -4.0091   -1.0893 H   0  0  0  0  0  0  0  0  0  0  0  0
   -2.1627   -2.9549    0.1985 C   0  0  0  0  0  0  0  0  0  0  0  0
   -1.4008   -3.4008    1.0360 O   0  0  0  0  0  0  0  0  0  0  0  0
   -1.8180   -1.8367   -0.5354 N   0  0  0  0  0  0  0  0  0  0  0  0
   -2.4820   -1.5270   -1.2377 H   0  0  0  0  0  0  0  0  0  0  0  0
   -0.5755   -1.0566   -0.3405 C   0  0  1  0  0  0  0  0  0  0  0  0
    0.2876   -1.7224   -0.4523 H   0  0  0  0  0  0  0  0  0  0  0  0
   -0.5249   -0.0044   -1.4896 C   0  0  0  0  0  0  0  0  0  0  0  0
    0.1673   -0.3735   -2.2530 H   0  0  0  0  0  0  0  0  0  0  0  0
   -1.5131    0.0291   -1.9567 H   0  0  0  0  0  0  0  0  0  0  0  0
   -0.1546    1.4407   -1.1983 C   0  0  0  0  0  0  0  0  0  0  0  0
    0.6678    1.9783   -0.2295 C   0  0  0  0  0  0  0  0  0  0  0  0
    1.2539    1.4246    0.5005 H   0  0  0  0  0  0  0  0  0  0  0  0
    0.6456    3.3633   -0.3595 N   0  0  0  0  0  0  0  0  0  0  0  0
    1.1694    4.0132    0.2232 H   0  0  0  0  0  0  0  0  0  0  0  0
   -0.1768    3.7364   -1.4054 C   0  0  0  0  0  0  0  0  0  0  0  0
   -0.5106    4.9905   -1.9163 C   0  0  0  0  0  0  0  0  0  0  0  0
   -0.0977    5.8891   -1.4712 H   0  0  0  0  0  0  0  0  0  0  0  0
   -1.3821    5.0720   -3.0105 C   0  0  0  0  0  0  0  0  0  0  0  0
   -1.6501    6.0419   -3.4191 H   0  0  0  0  0  0  0  0  0  0  0  0
   -1.9049    3.9013   -3.5798 C   0  0  0  0  0  0  0  0  0  0  0  0
   -2.5763    3.9674   -4.4307 H   0  0  0  0  0  0  0  0  0  0  0  0
   -1.5612    2.6464   -3.0561 C   0  0  0  0  0  0  0  0  0  0  0  0
   -1.9636    1.7443   -3.5034 H   0  0  0  0  0  0  0  0  0  0  0  0
   -0.6930    2.5703   -1.9590 C   0  0  0  0  0  0  0  0  0  0  0  0
   -0.4951   -0.4797    1.0940 C   0  0  0  0  0  0  0  0  0  0  0  0
    0.5627   -0.5038    1.7125 O   0  0  0  0  0  0  0  0  0  0  0  0
   -1.5979    0.1252    1.6719 N   0  0  0  0  0  0  0  0  0  0  0  0
   -2.4385    0.1888    1.1084 H   0  0  0  0  0  0  0  0  0  0  0  0
   -1.5709    0.7593    2.9828 C   0  0  0  0  0  0  0  0  0  0  0  0
   -0.8718    1.6019    2.9853 H   0  0  0  0  0  0  0  0  0  0  0  0
   -2.5657    1.1336    3.2419 H   0  0  0  0  0  0  0  0  0  0  0  0
   -1.2622    0.0407    3.7494 H   0  0  0  0  0  0  0  0  0  0  0  0
  1  2  1  0  0  0  0
  2  3  1  0  0  0  0
  2  4  1  0  0  0  0
  2  5  1  0  0  0  0
  5  6  2  0  0  0  0
  5  7  1  0  0  0  0
  7  8  1  0  0  0  0
  7  9  1  0  0  0  0
  9 10  1  0  0  0  0
  9 11  1  0  0  0  0
  9 29  1  0  0  0  0
 11 12  1  0  0  0  0
 11 13  1  0  0  0  0
 11 14  1  0  0  0  0
 14 15  2  0  0  0  0
 14 28  1  0  0  0  0
 15 16  1  0  0  0  0
 15 17  1  0  0  0  0
 17 18  1  0  0  0  0
 17 19  1  0  0  0  0
 19 20  1  0  0  0  0
 19 28  2  0  0  0  0
 20 21  1  0  0  0  0
 20 22  2  0  0  0  0
 22 23  1  0  0  0  0
 22 24  1  0  0  0  0
 24 25  1  0  0  0  0
 24 26  2  0  0  0  0
 26 27  1  0  0  0  0
 26 28  1  0  0  0  0
 29 30  2  0  0  0  0
 29 31  1  0  0  0  0
 31 32  1  0  0  0  0
 31 33  1  0  0  0  0
 33 34  1  0  0  0  0
 33 35  1  0  0  0  0
 33 36  1  0  0  0  0
M  END
$$$$

  -OEChem-03222214083D

 36 37  0     1  0  0  0  0  0999 V2000
   -3.5630   -4.5036    0.7458 H   0  0  0  0  0  0  0  0  0  0  0  0
   -3.4585   -3.6843    0.0288 C   0  0  0  0  0  0  0  0  0  0  0  0
   -4.2875   -2.9868    0.1701 H   0  0  0  0  0  0  0  0  0  0  0  0
   -3.5026   -4.0950   -0.9826 H   0  0  0  0  0  0  0  0  0  0  0  0
   -2.1368   -2.9711    0.2426 C   0  0  0  0  0  0  0  0  0  0  0  0
   -1.3615   -3.3737    1.0900 O   0  0  0  0  0  0  0  0  0  0  0  0
   -1.8131   -1.8792   -0.5382 N   0  0  0  0  0  0  0  0  0  0  0  0
   -2.4906   -1.6003   -1.2399 H   0  0  0  0  0  0  0  0  0  0  0  0
   -0.5860   -1.0708   -0.3747 C   0  0  1  0  0  0  0  0  0  0  0  0
    0.2852   -1.7297   -0.4603 H   0  0  0  0  0  0  0  0  0  0  0  0
   -0.5438   -0.0642   -1.5612 C   0  0  0  0  0  0  0  0  0  0  0  0
    0.1723   -0.4374   -2.3003 H   0  0  0  0  0  0  0  0  0  0  0  0
   -1.5208   -0.0603   -2.0514 H   0  0  0  0  0  0  0  0  0  0  0  0
   -0.1921    1.3804   -1.2651 C   0  0  0  0  0  0  0  0  0  0  0  0
    0.8201    1.8647   -0.4655 C   0  0  0  0  0  0  0  0  0  0  0  0
    1.5529    1.2619    0.0694 H   0  0  0  0  0  0  0  0  0  0  0  0
    0.7318    3.2530   -0.4536 N   0  0  0  0  0  0  0  0  0  0  0  0
    1.3469    3.8722    0.0705 H   0  0  0  0  0  0  0  0  0  0  0  0
   -0.3269    3.6756   -1.2370 C   0  0  0  0  0  0  0  0  0  0  0  0
   -0.8106    4.9517   -1.5249 C   0  0  0  0  0  0  0  0  0  0  0  0
   -0.3306    5.8262   -1.0995 H   0  0  0  0  0  0  0  0  0  0  0  0
   -1.9209    5.0870   -2.3693 C   0  0  0  0  0  0  0  0  0  0  0  0
   -2.3078    6.0746   -2.6028 H   0  0  0  0  0  0  0  0  0  0  0  0
   -2.5304    3.9478   -2.9154 C   0  0  0  0  0  0  0  0  0  0  0  0
   -3.3878    4.0562   -3.5729 H   0  0  0  0  0  0  0  0  0  0  0  0
   -2.0350    2.6700   -2.6173 C   0  0  0  0  0  0  0  0  0  0  0  0
   -2.5071    1.7932   -3.0462 H   0  0  0  0  0  0  0  0  0  0  0  0
   -0.9282    2.5398   -1.7686 C   0  0  0  0  0  0  0  0  0  0  0  0
   -0.5005   -0.4249    1.0309 C   0  0  0  0  0  0  0  0  0  0  0  0
    0.5691   -0.3912    1.6292 O   0  0  0  0  0  0  0  0  0  0  0  0
   -1.6064    0.1919    1.5897 N   0  0  0  0  0  0  0  0  0  0  0  0
   -2.4428    0.2419    1.0188 H   0  0  0  0  0  0  0  0  0  0  0  0
   -1.5580    0.9336    2.8419 C   0  0  0  0  0  0  0  0  0  0  0  0
   -0.8697    1.7811    2.7571 H   0  0  0  0  0  0  0  0  0  0  0  0
   -2.5515    1.3168    3.0926 H   0  0  0  0  0  0  0  0  0  0  0  0
   -1.2221    0.2847    3.6577 H   0  0  0  0  0  0  0  0  0  0  0  0
  1  2  1  0  0  0  0
  2  3  1  0  0  0  0
  2  4  1  0  0  0  0
  2  5  1  0  0  0  0
  5  6  2  0  0  0  0
  5  7  1  0  0  0  0
  7  8  1  0  0  0  0
  7  9  1  0  0  0  0
  9 10  1  0  0  0  0
  9 11  1  0  0  0  0
  9 29  1  0  0  0  0
 11 12  1  0  0  0  0
 11 13  1  0  0  0  0
 11 14  1  0  0  0  0
 14 15  2  0  0  0  0
 14 28  1  0  0  0  0
 15 16  1  0  0  0  0
 15 17  1  0  0  0  0
 17 18  1  0  0  0  0
 17 19  1  0  0  0  0
 19 20  1  0  0  0  0
 19 28  2  0  0  0  0
 20 21  1  0  0  0  0
 20 22  2  0  0  0  0
 22 23  1  0  0  0  0
 22 24  1  0  0  0  0
 24 25  1  0  0  0  0
 24 26  2  0  0  0  0
 26 27  1  0  0  0  0
 26 28  1  0  0  0  0
 29 30  2  0  0  0  0
 29 31  1  0  0  0  0
 31 32  1  0  0  0  0
 31 33  1  0  0  0  0
 33 34  1  0  0  0  0
 33 35  1  0  0  0  0
 33 36  1  0  0  0  0
M  END
$$$$

  -OEChem-03222214083D

 36 37  0     1  0  0  0  0  0999 V2000
   -3.5001   -4.5550    0.7917 H   0  0  0  0  0  0  0  0  0  0  0  0
   -3.4233   -3.7376    0.0691 C   0  0  0  0  0  0  0  0  0  0  0  0
   -4.2673   -3.0594    0.2156 H   0  0  0  0  0  0  0  0  0  0  0  0
   -3.4682   -4.1552   -0.9395 H   0  0  0  0  0  0  0  0  0  0  0  0
   -2.1167   -2.9920    0.2639 C   0  0  0  0  0  0  0  0  0  0  0  0
   -1.3254   -3.3652    1.1100 O   0  0  0  0  0  0  0  0  0  0  0  0
   -1.8217   -1.9080   -0.5384 N   0  0  0  0  0  0  0  0  0  0  0  0
   -2.5142   -1.6489   -1.2329 H   0  0  0  0  0  0  0  0  0  0  0  0
   -0.6135   -1.0704   -0.3927 C   0  0  1  0  0  0  0  0  0  0  0  0
    0.2654   -1.7210   -0.4663 H   0  0  0  0  0  0  0  0  0  0  0  0
   -0.5772   -0.0931   -1.5996 C   0  0  0  0  0  0  0  0  0  0  0  0
    0.1687   -0.4604   -2.3114 H   0  0  0  0  0  0  0  0  0  0  0  0
   -1.5386   -0.1127   -2.1197 H   0  0  0  0  0  0  0  0  0  0  0  0
   -0.2514    1.3487   -1.2832 C   0  0  0  0  0  0  0  0  0  0  0  0
    0.9018    1.8181   -0.6977 C   0  0  0  0  0  0  0  0  0  0  0  0
    1.7412    1.2041   -0.3735 H   0  0  0  0  0  0  0  0  0  0  0  0
    0.7786    3.1976   -0.5625 N   0  0  0  0  0  0  0  0  0  0  0  0
    1.4718    3.8053   -0.1305 H   0  0  0  0  0  0  0  0  0  0  0  0
   -0.4445    3.6235   -1.0514 C   0  0  0  0  0  0  0  0  0  0  0  0
   -1.0182    4.8927   -1.1251 C   0  0  0  0  0  0  0  0  0  0  0  0
   -0.4772    5.7585   -0.7588 H   0  0  0  0  0  0  0  0  0  0  0  0
   -2.2975    5.0329   -1.6803 C   0  0  0  0  0  0  0  0  0  0  0  0
   -2.7544    6.0160   -1.7464 H   0  0  0  0  0  0  0  0  0  0  0  0
   -2.9854    3.9056   -2.1536 C   0  0  0  0  0  0  0  0  0  0  0  0
   -3.9749    4.0196   -2.5860 H   0  0  0  0  0  0  0  0  0  0  0  0
   -2.3985    2.6344   -2.0729 C   0  0  0  0  0  0  0  0  0  0  0  0
   -2.9316    1.7659   -2.4428 H   0  0  0  0  0  0  0  0  0  0  0  0
   -1.1206    2.4999   -1.5160 C   0  0  0  0  0  0  0  0  0  0  0  0
   -0.5101   -0.3831    0.9922 C   0  0  0  0  0  0  0  0  0  0  0  0
    0.5771   -0.3000    1.5534 O   0  0  0  0  0  0  0  0  0  0  0  0
   -1.6138    0.2333    1.5557 N   0  0  0  0  0  0  0  0  0  0  0  0
   -2.4498    0.2809    0.9844 H   0  0  0  0  0  0  0  0  0  0  0  0
   -1.5320    1.0610    2.7508 C   0  0  0  0  0  0  0  0  0  0  0  0
   -0.8812    1.9236    2.5732 H   0  0  0  0  0  0  0  0  0  0  0  0
   -2.5256    1.4260    3.0266 H   0  0  0  0  0  0  0  0  0  0  0  0
   -1.1321    0.4824    3.5902 H   0  0  0  0  0  0  0  0  0  0  0  0
  1  2  1  0  0  0  0
  2  3  1  0  0  0  0
  2  4  1  0  0  0  0
  2  5  1  0  0  0  0
  5  6  2  0  0  0  0
  5  7  1  0  0  0  0
  7  8  1  0  0  0  0
  7  9  1  0  0  0  0
  9 10  1  0  0  0  0
  9 11  1  0  0  0  0
  9 29  1  0  0  0  0
 11 12  1  0  0  0  0
 11 13  1  0  0  0  0
 11 14  1  0  0  0  0
 14 15  2  0  0  0  0
 14 28  1  0  0  0  0
 15 16  1  0  0  0  0
 15 17  1  0  0  0  0
 17 18  1  0  0  0  0
 17 19  1  0  0  0  0
 19 20  1  0  0  0  0
 19 28  2  0  0  0  0
 20 21  1  0  0  0  0
 20 22  2  0  0  0  0
 22 23  1  0  0  0  0
 22 24  1  0  0  0  0
 24 25  1  0  0  0  0
 24 26  2  0  0  0  0
 26 27  1  0  0  0  0
 26 28  1  0  0  0  0
 29 30  2  0  0  0  0
 29 31  1  0  0  0  0
 31 32  1  0  0  0  0
 31 33  1  0  0  0  0
 33 34  1  0  0  0  0
 33 35  1  0  0  0  0
 33 36  1  0  0  0  0
M  END
$$$$

  -OEChem-03222214083D

 36 37  0     1  0  0  0  0  0999 V2000
   -3.4792   -4.5746    0.8079 H   0  0  0  0  0  0  0  0  0  0  0  0
   -3.4178   -3.7553    0.0859 C   0  0  0  0  0  0  0  0  0  0  0  0
   -4.2706   -3.0894    0.2375 H   0  0  0  0  0  0  0  0  0  0  0  0
   -3.4623   -4.1726   -0.9229 H   0  0  0  0  0  0  0  0  0  0  0  0
   -2.1211   -2.9911    0.2756 C   0  0  0  0  0  0  0  0  0  0  0  0
   -1.3304   -3.3416    1.1321 O   0  0  0  0  0  0  0  0  0  0  0  0
   -1.8341   -1.9163   -0.5418 N   0  0  0  0  0  0  0  0  0  0  0  0
   -2.5227   -1.6775   -1.2474 H   0  0  0  0  0  0  0  0  0  0  0  0
   -0.6330   -1.0680   -0.4042 C   0  0  1  0  0  0  0  0  0  0  0  0
    0.2468   -1.7186   -0.4642 H   0  0  0  0  0  0  0  0  0  0  0  0
   -0.5860   -0.1122   -1.6253 C   0  0  0  0  0  0  0  0  0  0  0  0
    0.1778   -0.4823   -2.3165 H   0  0  0  0  0  0  0  0  0  0  0  0
   -1.5358   -0.1353   -2.1668 H   0  0  0  0  0  0  0  0  0  0  0  0
   -0.2682    1.3241   -1.2928 C   0  0  0  0  0  0  0  0  0  0  0  0
    0.9670    1.8237   -0.9554 C   0  0  0  0  0  0  0  0  0  0  0  0
    1.8845    1.2431   -0.8762 H   0  0  0  0  0  0  0  0  0  0  0  0
    0.8128    3.1819   -0.6909 N   0  0  0  0  0  0  0  0  0  0  0  0
    1.5537    3.8013   -0.3694 H   0  0  0  0  0  0  0  0  0  0  0  0
   -0.5111    3.5581   -0.8453 C   0  0  0  0  0  0  0  0  0  0  0  0
   -1.1505    4.7862   -0.6782 C   0  0  0  0  0  0  0  0  0  0  0  0
   -0.5830    5.6600   -0.3775 H   0  0  0  0  0  0  0  0  0  0  0  0
   -2.5312    4.8741   -0.9040 C   0  0  0  0  0  0  0  0  0  0  0  0
   -3.0408    5.8251   -0.7793 H   0  0  0  0  0  0  0  0  0  0  0  0
   -3.2539    3.7359   -1.2923 C   0  0  0  0  0  0  0  0  0  0  0  0
   -4.3227    3.8092   -1.4688 H   0  0  0  0  0  0  0  0  0  0  0  0
   -2.6006    2.5059   -1.4549 C   0  0  0  0  0  0  0  0  0  0  0  0
   -3.1594    1.6277   -1.7574 H   0  0  0  0  0  0  0  0  0  0  0  0
   -1.2221    2.4258   -1.2272 C   0  0  0  0  0  0  0  0  0  0  0  0
   -0.5199   -0.3516    0.9661 C   0  0  0  0  0  0  0  0  0  0  0  0
    0.5766   -0.2380    1.5031 O   0  0  0  0  0  0  0  0  0  0  0  0
   -1.6210    0.2738    1.5262 N   0  0  0  0  0  0  0  0  0  0  0  0
   -2.4556    0.3109    0.9527 H   0  0  0  0  0  0  0  0  0  0  0  0
   -1.5114    1.1918    2.6517 C   0  0  0  0  0  0  0  0  0  0  0  0
   -0.9328    2.0767    2.3655 H   0  0  0  0  0  0  0  0  0  0  0  0
   -2.5058    1.5144    2.9740 H   0  0  0  0  0  0  0  0  0  0  0  0
   -1.0173    0.7048    3.4990 H   0  0  0  0  0  0  0  0  0  0  0  0
  1  2  1  0  0  0  0
  2  3  1  0  0  0  0
  2  4  1  0  0  0  0
  2  5  1  0  0  0  0
  5  6  2  0  0  0  0
  5  7  1  0  0  0  0
  7  8  1  0  0  0  0
  7  9  1  0  0  0  0
  9 10  1  0  0  0  0
  9 11  1  0  0  0  0
  9 29  1  0  0  0  0
 11 12  1  0  0  0  0
 11 13  1  0  0  0  0
 11 14  1  0  0  0  0
 14 15  2  0  0  0  0
 14 28  1  0  0  0  0
 15 16  1  0  0  0  0
 15 17  1  0  0  0  0
 17 18  1  0  0  0  0
 17 19  1  0  0  0  0
 19 20  1  0  0  0  0
 19 28  2  0  0  0  0
 20 21  1  0  0  0  0
 20 22  2  0  0  0  0
 22 23  1  0  0  0  0
 22 24  1  0  0  0  0
 24 25  1  0  0  0  0
 24 26  2  0  0  0  0
 26 27  1  0  0  0  0
 26 28  1  0  0  0  0
 29 30  2  0  0  0  0
 29 31  1  0  0  0  0
 31 32  1  0  0  0  0
 31 33  1  0  0  0  0
 33 34  1  0  0  0  0
 33 35  1  0  0  0  0
 33 36  1  0  0  0  0
M  END
$$$$

  -OEChem-03222214083D

 36 37  0     1  0  0  0  0  0999 V2000
   -3.4649   -4.6068    0.7980 H   0  0  0  0  0  0  0  0  0  0  0  0
   -3.4129   -3.7808    0.0830 C   0  0  0  0  0  0  0  0  0  0  0  0
   -4.2736   -3.1266    0.2395 H   0  0  0  0  0  0  0  0  0  0  0  0
   -3.4522   -4.1898   -0.9294 H   0  0  0  0  0  0  0  0  0  0  0  0
   -2.1262   -3.0017    0.2798 C   0  0  0  0  0  0  0  0  0  0  0  0
   -1.3288   -3.3518    1.1299 O   0  0  0  0  0  0  0  0  0  0  0  0
   -1.8594   -1.9092   -0.5208 N   0  0  0  0  0  0  0  0  0  0  0  0
   -2.5460   -1.6806   -1.2316 H   0  0  0  0  0  0  0  0  0  0  0  0
   -0.6592   -1.0587   -0.3926 C   0  0  1  0  0  0  0  0  0  0  0  0
    0.2161   -1.7130   -0.4729 H   0  0  0  0  0  0  0  0  0  0  0  0
   -0.6157   -0.0980   -1.6096 C   0  0  0  0  0  0  0  0  0  0  0  0
    0.1438   -0.4679   -2.3055 H   0  0  0  0  0  0  0  0  0  0  0  0
   -1.5690   -0.1128   -2.1462 H   0  0  0  0  0  0  0  0  0  0  0  0
   -0.2956    1.3340   -1.2655 C   0  0  0  0  0  0  0  0  0  0  0  0
    0.9563    1.8963   -1.2062 C   0  0  0  0  0  0  0  0  0  0  0  0
    1.8945    1.3725   -1.3773 H   0  0  0  0  0  0  0  0  0  0  0  0
    0.7987    3.2338   -0.8508 N   0  0  0  0  0  0  0  0  0  0  0  0
    1.5605    3.8862   -0.6780 H   0  0  0  0  0  0  0  0  0  0  0  0
   -0.5431    3.5380   -0.6898 C   0  0  0  0  0  0  0  0  0  0  0  0
   -1.1910    4.7210   -0.3355 C   0  0  0  0  0  0  0  0  0  0  0  0
   -0.6165    5.6173   -0.1293 H   0  0  0  0  0  0  0  0  0  0  0  0
   -2.5903    4.7352   -0.2511 C   0  0  0  0  0  0  0  0  0  0  0  0
   -3.1069    5.6506    0.0227 H   0  0  0  0  0  0  0  0  0  0  0  0
   -3.3234    3.5699   -0.5231 C   0  0  0  0  0  0  0  0  0  0  0  0
   -4.4072    3.5876   -0.4603 H   0  0  0  0  0  0  0  0  0  0  0  0
   -2.6610    2.3859   -0.8768 C   0  0  0  0  0  0  0  0  0  0  0  0
   -3.2255    1.4856   -1.0903 H   0  0  0  0  0  0  0  0  0  0  0  0
   -1.2639    2.3790   -0.9524 C   0  0  0  0  0  0  0  0  0  0  0  0
   -0.5066   -0.3631    0.9849 C   0  0  0  0  0  0  0  0  0  0  0  0
    0.6065   -0.2502    1.4861 O   0  0  0  0  0  0  0  0  0  0  0  0
   -1.5889    0.2525    1.5903 N   0  0  0  0  0  0  0  0  0  0  0  0
   -2.4440    0.2896    1.0488 H   0  0  0  0  0  0  0  0  0  0  0  0
   -1.4440    1.1584    2.7218 C   0  0  0  0  0  0  0  0  0  0  0  0
   -0.8599    2.0385    2.4321 H   0  0  0  0  0  0  0  0  0  0  0  0
   -2.4274    1.4914    3.0664 H   0  0  0  0  0  0  0  0  0  0  0  0
   -0.9389    0.6570    3.5542 H   0  0  0  0  0  0  0  0  0  0  0  0
  1  2  1  0  0  0  0
  2  3  1  0  0  0  0
  2  4  1  0  0  0  0
  2  5  1  0  0  0  0
  5  6  2  0  0  0  0
  5  7  1  0  0  0  0
  7  8  1  0  0  0  0
  7  9  1  0  0  0  0
  9 10  1  0  0  0  0
  9 11  1  0  0  0  0
  9 29  1  0  0  0  0
 11 12  1  0  0  0  0
 11 13  1  0  0  0  0
 11 14  1  0  0  0  0
 14 15  2  0  0  0  0
 14 28  1  0  0  0  0
 15 16  1  0  0  0  0
 15 17  1  0  0  0  0
 17 18  1  0  0  0  0
 17 19  1  0  0  0  0
 19 20  1  0  0  0  0
 19 28  2  0  0  0  0
 20 21  1  0  0  0  0
 20 22  2  0  0  0  0
 22 23  1  0  0  0  0
 22 24  1  0  0  0  0
 24 25  1  0  0  0  0
 24 26  2  0  0  0  0
 26 27  1  0  0  0  0
 26 28  1  0  0  0  0
 29 30  2  0  0  0  0
 29 31  1  0  0  0  0
 31 32  1  0  0  0  0
 31 33  1  0  0  0  0
 33 34  1  0  0  0  0
 33 35  1  0  0  0  0
 33 36  1  0  0  0  0
M  END
$$$$

  -OEChem-03222214083D

 36 37  0     1  0  0  0  0  0999 V2000
   -3.4458   -4.6696    0.7416 H   0  0  0  0  0  0  0  0  0  0  0  0
   -3.4061   -3.8260    0.0464 C   0  0  0  0  0  0  0  0  0  0  0  0
   -4.2763   -3.1882    0.2185 H   0  0  0  0  0  0  0  0  0  0  0  0
   -3.4390   -4.2114   -0.9755 H   0  0  0  0  0  0  0  0  0  0  0  0
   -2.1299   -3.0345    0.2613 C   0  0  0  0  0  0  0  0  0  0  0  0
   -1.3139   -3.4118    1.0815 O   0  0  0  0  0  0  0  0  0  0  0  0
   -1.8947   -1.8993   -0.4881 N   0  0  0  0  0  0  0  0  0  0  0  0
   -2.5930   -1.6520   -1.1813 H   0  0  0  0  0  0  0  0  0  0  0  0
   -0.6894   -1.0556   -0.3634 C   0  0  1  0  0  0  0  0  0  0  0  0
    0.1727   -1.7193   -0.4947 H   0  0  0  0  0  0  0  0  0  0  0  0
   -0.6501   -0.0636   -1.5550 C   0  0  0  0  0  0  0  0  0  0  0  0
    0.0918   -0.4268   -2.2733 H   0  0  0  0  0  0  0  0  0  0  0  0
   -1.6143   -0.0561   -2.0723 H   0  0  0  0  0  0  0  0  0  0  0  0
   -0.3157    1.3608   -1.1932 C   0  0  0  0  0  0  0  0  0  0  0  0
    0.8871    1.9863   -1.4139 C   0  0  0  0  0  0  0  0  0  0  0  0
    1.7811    1.5136   -1.8151 H   0  0  0  0  0  0  0  0  0  0  0  0
    0.7549    3.3118   -1.0077 N   0  0  0  0  0  0  0  0  0  0  0  0
    1.5023    4.0026   -1.0084 H   0  0  0  0  0  0  0  0  0  0  0  0
   -0.5360    3.5568   -0.5700 C   0  0  0  0  0  0  0  0  0  0  0  0
   -1.1490    4.7142   -0.0911 C   0  0  0  0  0  0  0  0  0  0  0  0
   -0.5808    5.6330    0.0032 H   0  0  0  0  0  0  0  0  0  0  0  0
   -2.5060    4.6745    0.2586 C   0  0  0  0  0  0  0  0  0  0  0  0
   -2.9947    5.5697    0.6319 H   0  0  0  0  0  0  0  0  0  0  0  0
   -3.2340    3.4834    0.1179 C   0  0  0  0  0  0  0  0  0  0  0  0
   -4.2869    3.4602    0.3820 H   0  0  0  0  0  0  0  0  0  0  0  0
   -2.6061    2.3263   -0.3642 C   0  0  0  0  0  0  0  0  0  0  0  0
   -3.1672    1.4064   -0.4810 H   0  0  0  0  0  0  0  0  0  0  0  0
   -1.2461    2.3682   -0.6916 C   0  0  0  0  0  0  0  0  0  0  0  0
   -0.4666   -0.4303    1.0377 C   0  0  0  0  0  0  0  0  0  0  0  0
    0.6705   -0.3454    1.4874 O   0  0  0  0  0  0  0  0  0  0  0  0
   -1.5106    0.1561    1.7315 N   0  0  0  0  0  0  0  0  0  0  0  0
   -2.4049    0.1959    1.2584 H   0  0  0  0  0  0  0  0  0  0  0  0
   -1.3102    0.9716    2.9216 C   0  0  0  0  0  0  0  0  0  0  0  0
   -0.6779    1.8355    2.6902 H   0  0  0  0  0  0  0  0  0  0  0  0
   -2.2713    1.3359    3.2962 H   0  0  0  0  0  0  0  0  0  0  0  0
   -0.8316    0.3843    3.7123 H   0  0  0  0  0  0  0  0  0  0  0  0
  1  2  1  0  0  0  0
  2  3  1  0  0  0  0
  2  4  1  0  0  0  0
  2  5  1  0  0  0  0
  5  6  2  0  0  0  0
  5  7  1  0  0  0  0
  7  8  1  0  0  0  0
  7  9  1  0  0  0  0
  9 10  1  0  0  0  0
  9 11  1  0  0  0  0
  9 29  1  0  0  0  0
 11 12  1  0  0  0  0
 11 13  1  0  0  0  0
 11 14  1  0  0  0  0
 14 15  2  0  0  0  0
 14 28  1  0  0  0  0
 15 16  1  0  0  0  0
 15 17  1  0  0  0  0
 17 18  1  0  0  0  0
 17 19  1  0  0  0  0
 19 20  1  0  0  0  0
 19 28  2  0  0  0  0
 20 21  1  0  0  0  0
 20 22  2  0  0  0  0
 22 23  1  0  0  0  0
 22 24  1  0  0  0  0
 24 25  1  0  0  0  0
 24 26  2  0  0  0  0
 26 27  1  0  0  0  0
 26 28  1  0  0  0  0
 29 30  2  0  0  0  0
 29 31  1  0  0  0  0
 31 32  1  0  0  0  0
 31 33  1  0  0  0  0
 33 34  1  0  0  0  0
 33 35  1  0  0  0  0
 33 36  1  0  0  0  0
M  END
$$$$

  -OEChem-03222214083D

 36 37  0     1  0  0  0  0  0999 V2000
   -3.4606   -4.7296    0.6266 H   0  0  0  0  0  0  0  0  0  0  0  0
   -3.4294   -3.8537   -0.0279 C   0  0  0  0  0  0  0  0  0  0  0  0
   -4.3010   -3.2288    0.1804 H   0  0  0  0  0  0  0  0  0  0  0  0
   -3.4677   -4.1905   -1.0666 H   0  0  0  0  0  0  0  0  0  0  0  0
   -2.1546   -3.0679    0.2151 C   0  0  0  0  0  0  0  0  0  0  0  0
   -1.3179   -3.4963    0.9878 O   0  0  0  0  0  0  0  0  0  0  0  0
   -1.9426   -1.8800   -0.4558 N   0  0  0  0  0  0  0  0  0  0  0  0
   -2.6532   -1.5940   -1.1213 H   0  0  0  0  0  0  0  0  0  0  0  0
   -0.7231   -1.0572   -0.3265 C   0  0  1  0  0  0  0  0  0  0  0  0
    0.1113   -1.7415   -0.5183 H   0  0  0  0  0  0  0  0  0  0  0  0
   -0.6584   -0.0263   -1.4842 C   0  0  0  0  0  0  0  0  0  0  0  0
    0.0624   -0.3902   -2.2234 H   0  0  0  0  0  0  0  0  0  0  0  0
   -1.6296    0.0185   -1.9859 H   0  0  0  0  0  0  0  0  0  0  0  0
   -0.2912    1.3874   -1.1042 C   0  0  0  0  0  0  0  0  0  0  0  0
    0.8077    2.0658   -1.5764 C   0  0  0  0  0  0  0  0  0  0  0  0
    1.6059    1.6337   -2.1758 H   0  0  0  0  0  0  0  0  0  0  0  0
    0.7208    3.3839   -1.1382 N   0  0  0  0  0  0  0  0  0  0  0  0
    1.4211    4.1047   -1.2987 H   0  0  0  0  0  0  0  0  0  0  0  0
   -0.4714    3.5873   -0.4661 C   0  0  0  0  0  0  0  0  0  0  0  0
   -1.0257    4.7358    0.0988 C   0  0  0  0  0  0  0  0  0  0  0  0
   -0.4770    5.6710    0.0842 H   0  0  0  0  0  0  0  0  0  0  0  0
   -2.3031    4.6670    0.6708 C   0  0  0  0  0  0  0  0  0  0  0  0
   -2.7477    5.5539    1.1126 H   0  0  0  0  0  0  0  0  0  0  0  0
   -3.0132    3.4574    0.6583 C   0  0  0  0  0  0  0  0  0  0  0  0
   -4.0089    3.4121    1.0888 H   0  0  0  0  0  0  0  0  0  0  0  0
   -2.4424    2.3102    0.0884 C   0  0  0  0  0  0  0  0  0  0  0  0
   -2.9967    1.3797    0.0638 H   0  0  0  0  0  0  0  0  0  0  0  0
   -1.1517    2.3743   -0.4501 C   0  0  0  0  0  0  0  0  0  0  0  0
   -0.4090   -0.5341    1.0982 C   0  0  0  0  0  0  0  0  0  0  0  0
    0.7548   -0.4832    1.4785 O   0  0  0  0  0  0  0  0  0  0  0  0
   -1.3963    0.0123    1.8983 N   0  0  0  0  0  0  0  0  0  0  0  0
   -2.3414    0.0078    1.5358 H   0  0  0  0  0  0  0  0  0  0  0  0
   -1.1216    0.6903    3.1578 C   0  0  0  0  0  0  0  0  0  0  0  0
   -0.4918    1.5700    2.9874 H   0  0  0  0  0  0  0  0  0  0  0  0
   -2.0557    1.0185    3.6230 H   0  0  0  0  0  0  0  0  0  0  0  0
   -0.6085    0.0158    3.8513 H   0  0  0  0  0  0  0  0  0  0  0  0
  1  2  1  0  0  0  0
  2  3  1  0  0  0  0
  2  4  1  0  0  0  0
  2  5  1  0  0  0  0
  5  6  2  0  0  0  0
  5  7  1  0  0  0  0
  7  8  1  0  0  0  0
  7  9  1  0  0  0  0
  9 10  1  0  0  0  0
  9 11  1  0  0  0  0
  9 29  1  0  0  0  0
 11 12  1  0  0  0  0
 11 13  1  0  0  0  0
 11 14  1  0  0  0  0
 14 15  2  0  0  0  0
 14 28  1  0  0  0  0
 15 16  1  0  0  0  0
 15 17  1  0  0  0  0
 17 18  1  0  0  0  0
 17 19  1  0  0  0  0
 19 20  1  0  0  0  0
 19 28  2  0  0  0  0
 20 21  1  0  0  0  0
 20 22  2  0  0  0  0
 22 23  1  0  0  0  0
 22 24  1  0  0  0  0
 24 25  1  0  0  0  0
 24 26  2  0  0  0  0
 26 27  1  0  0  0  0
 26 28  1  0  0  0  0
 29 30  2  0  0  0  0
 29 31  1  0  0  0  0
 31 32  1  0  0  0  0
 31 33  1  0  0  0  0
 33 34  1  0  0  0  0
 33 35  1  0  0  0  0
 33 36  1  0  0  0  0
M  END
$$$$

  -OEChem-03222214083D

 36 37  0     1  0  0  0  0  0999 V2000
   -3.3626   -4.8180    0.4947 H   0  0  0  0  0  0  0  0  0  0  0  0
   -3.3902   -3.8851   -0.0760 C   0  0  0  0  0  0  0  0  0  0  0  0
   -4.2464   -3.2949    0.2589 H   0  0  0  0  0  0  0  0  0  0  0  0
   -3.5114   -4.1247   -1.1352 H   0  0  0  0  0  0  0  0  0  0  0  0
   -2.1054   -3.1065    0.1363 C   0  0  0  0  0  0  0  0  0  0  0  0
   -1.2117   -3.5842    0.8101 O   0  0  0  0  0  0  0  0  0  0  0  0
   -1.9580   -1.8590   -0.4365 N   0  0  0  0  0  0  0  0  0  0  0  0
   -2.7211   -1.5277   -1.0178 H   0  0  0  0  0  0  0  0  0  0  0  0
   -0.7351   -1.0364   -0.3443 C   0  0  1  0  0  0  0  0  0  0  0  0
    0.0688   -1.7219   -0.6377 H   0  0  0  0  0  0  0  0  0  0  0  0
   -0.7057    0.0372   -1.4658 C   0  0  0  0  0  0  0  0  0  0  0  0
   -0.0274   -0.3095   -2.2521 H   0  0  0  0  0  0  0  0  0  0  0  0
   -1.7014    0.0999   -1.9145 H   0  0  0  0  0  0  0  0  0  0  0  0
   -0.3178    1.4459   -1.0802 C   0  0  0  0  0  0  0  0  0  0  0  0
    0.5734    2.2068   -1.8013 C   0  0  0  0  0  0  0  0  0  0  0  0
    1.2056    1.8374   -2.6056 H   0  0  0  0  0  0  0  0  0  0  0  0
    0.5413    3.5068   -1.3085 N   0  0  0  0  0  0  0  0  0  0  0  0
    1.1335    4.2721   -1.6236 H   0  0  0  0  0  0  0  0  0  0  0  0
   -0.4649    3.6322   -0.3699 C   0  0  0  0  0  0  0  0  0  0  0  0
   -0.9312    4.7476    0.3255 C   0  0  0  0  0  0  0  0  0  0  0  0
   -0.4406    5.7078    0.2109 H   0  0  0  0  0  0  0  0  0  0  0  0
   -2.0523    4.6135    1.1544 C   0  0  0  0  0  0  0  0  0  0  0  0
   -2.4277    5.4724    1.7028 H   0  0  0  0  0  0  0  0  0  0  0  0
   -2.7048    3.3765    1.2533 C   0  0  0  0  0  0  0  0  0  0  0  0
   -3.5901    3.2810    1.8745 H   0  0  0  0  0  0  0  0  0  0  0  0
   -2.2217    2.2663    0.5462 C   0  0  0  0  0  0  0  0  0  0  0  0
   -2.7477    1.3216    0.5978 H   0  0  0  0  0  0  0  0  0  0  0  0
   -1.0647    2.3839   -0.2332 C   0  0  0  0  0  0  0  0  0  0  0  0
   -0.2727   -0.6312    1.0785 C   0  0  0  0  0  0  0  0  0  0  0  0
    0.9260   -0.5833    1.3277 O   0  0  0  0  0  0  0  0  0  0  0  0
   -1.1626   -0.1655    2.0289 N   0  0  0  0  0  0  0  0  0  0  0  0
   -2.1493   -0.2295    1.8110 H   0  0  0  0  0  0  0  0  0  0  0  0
   -0.7516    0.3730    3.3188 C   0  0  0  0  0  0  0  0  0  0  0  0
   -0.1307    1.2642    3.1784 H   0  0  0  0  0  0  0  0  0  0  0  0
   -1.6294    0.6531    3.9088 H   0  0  0  0  0  0  0  0  0  0  0  0
   -0.1793   -0.3724    3.8811 H   0  0  0  0  0  0  0  0  0  0  0  0
  1  2  1  0  0  0  0
  2  3  1  0  0  0  0
  2  4  1  0  0  0  0
  2  5  1  0  0  0  0
  5  6  2  0  0  0  0
  5  7  1  0  0  0  0
  7  8  1  0  0  0  0
  7  9  1  0  0  0  0
  9 10  1  0  0  0  0
  9 11  1  0  0  0  0
  9 29  1  0  0  0  0
 11 12  1  0  0  0  0
 11 13  1  0  0  0  0
 11 14  1  0  0  0  0
 14 15  2  0  0  0  0
 14 28  1  0  0  0  0
 15 16  1  0  0  0  0
 15 17  1  0  0  0  0
 17 18  1  0  0  0  0
 17 19  1  0  0  0  0
 19 20  1  0  0  0  0
 19 28  2  0  0  0  0
 20 21  1  0  0  0  0
 20 22  2  0  0  0  0
 22 23  1  0  0  0  0
 22 24  1  0  0  0  0
 24 25  1  0  0  0  0
 24 26  2  0  0  0  0
 26 27  1  0  0  0  0
 26 28  1  0  0  0  0
 29 30  2  0  0  0  0
 29 31  1  0  0  0  0
 31 32  1  0  0  0  0
 31 33  1  0  0  0  0
 33 34  1  0  0  0  0
 33 35  1  0  0  0  0
 33 36  1  0  0  0  0
M  END
$$$$

  -OEChem-03222214083D

 36 37  0     1  0  0  0  0  0999 V2000
   -4.7339   -2.8106   -0.2428 H   0  0  0  0  0  0  0  0  0  0  0  0
   -3.9404   -3.5003   -0.5396 C   0  0  0  0  0  0  0  0  0  0  0  0
   -4.1092   -4.4620   -0.0467 H   0  0  0  0  0  0  0  0  0  0  0  0
   -3.9793   -3.6478   -1.6214 H   0  0  0  0  0  0  0  0  0  0  0  0
   -2.5872   -2.9419   -0.1418 C   0  0  0  0  0  0  0  0  0  0  0  0
   -1.8386   -3.6037    0.5529 O   0  0  0  0  0  0  0  0  0  0  0  0
   -2.2159   -1.6800   -0.5608 N   0  0  0  0  0  0  0  0  0  0  0  0
   -2.8702   -1.1838   -1.1577 H   0  0  0  0  0  0  0  0  0  0  0  0
   -0.9003   -1.0632   -0.2984 C   0  0  1  0  0  0  0  0  0  0  0  0
   -0.2064   -1.8681   -0.5695 H   0  0  0  0  0  0  0  0  0  0  0  0
   -0.5407    0.0124   -1.3611 C   0  0  0  0  0  0  0  0  0  0  0  0
    0.1637   -0.4355   -2.0699 H   0  0  0  0  0  0  0  0  0  0  0  0
   -1.4491    0.2408   -1.9262 H   0  0  0  0  0  0  0  0  0  0  0  0
    0.0222    1.3454   -0.9161 C   0  0  0  0  0  0  0  0  0  0  0  0
    0.9014    2.0493   -1.7088 C   0  0  0  0  0  0  0  0  0  0  0  0
    1.4005    1.6534   -2.5905 H   0  0  0  0  0  0  0  0  0  0  0  0
    1.0781    3.3166   -1.1682 N   0  0  0  0  0  0  0  0  0  0  0  0
    1.7156    4.0269   -1.5210 H   0  0  0  0  0  0  0  0  0  0  0  0
    0.1820    3.5135   -0.1384 C   0  0  0  0  0  0  0  0  0  0  0  0
   -0.0879    4.6532    0.6185 C   0  0  0  0  0  0  0  0  0  0  0  0
    0.5120    5.5477    0.4949 H   0  0  0  0  0  0  0  0  0  0  0  0
   -1.1610    4.6341    1.5170 C   0  0  0  0  0  0  0  0  0  0  0  0
   -1.3866    5.5124    2.1145 H   0  0  0  0  0  0  0  0  0  0  0  0
   -1.9670    3.4923    1.6128 C   0  0  0  0  0  0  0  0  0  0  0  0
   -2.8251    3.4903    2.2777 H   0  0  0  0  0  0  0  0  0  0  0  0
   -1.6765    2.3577    0.8421 C   0  0  0  0  0  0  0  0  0  0  0  0
   -2.3401    1.5057    0.8794 H   0  0  0  0  0  0  0  0  0  0  0  0
   -0.5526    2.3390    0.0072 C   0  0  0  0  0  0  0  0  0  0  0  0
   -0.4835   -0.8685    1.1818 C   0  0  0  0  0  0  0  0  0  0  0  0
    0.6925   -1.0084    1.4951 O   0  0  0  0  0  0  0  0  0  0  0  0
   -1.3585   -0.3698    2.1291 N   0  0  0  0  0  0  0  0  0  0  0  0
   -2.3412   -0.3627    1.8826 H   0  0  0  0  0  0  0  0  0  0  0  0
   -0.9732   -0.0884    3.5060 C   0  0  0  0  0  0  0  0  0  0  0  0
   -0.1571    0.6417    3.5322 H   0  0  0  0  0  0  0  0  0  0  0  0
   -1.8218    0.3255    4.0587 H   0  0  0  0  0  0  0  0  0  0  0  0
   -0.6445   -1.0049    4.0070 H   0  0  0  0  0  0  0  0  0  0  0  0
  1  2  1  0  0  0  0
  2  3  1  0  0  0  0
  2  4  1  0  0  0  0
  2  5  1  0  0  0  0
  5  6  2  0  0  0  0
  5  7  1  0  0  0  0
  7  8  1  0  0  0  0
  7  9  1  0  0  0  0
  9 10  1  0  0  0  0
  9 11  1  0  0  0  0
  9 29  1  0  0  0  0
 11 12  1  0  0  0  0
 11 13  1  0  0  0  0
 11 14  1  0  0  0  0
 14 15  2  0  0  0  0
 14 28  1  0  0  0  0
 15 16  1  0  0  0  0
 15 17  1  0  0  0  0
 17 18  1  0  0  0  0
 17 19  1  0  0  0  0
 19 20  1  0  0  0  0
 19 28  2  0  0  0  0
 20 21  1  0  0  0  0
 20 22  2  0  0  0  0
 22 23  1  0  0  0  0
 22 24  1  0  0  0  0
 24 25  1  0  0  0  0
 24 26  2  0  0  0  0
 26 27  1  0  0  0  0
 26 28  1  0  0  0  0
 29 30  2  0  0  0  0
 29 31  1  0  0  0  0
 31 32  1  0  0  0  0
 31 33  1  0  0  0  0
 33 34  1  0  0  0  0
 33 35  1  0  0  0  0
 33 36  1  0  0  0  0
M  END
$$$$

  -OEChem-03222214083D

 36 37  0     1  0  0  0  0  0999 V2000
   -3.5091   -4.8640    0.1083 H   0  0  0  0  0  0  0  0  0  0  0  0
   -3.4433   -3.8994   -0.4032 C   0  0  0  0  0  0  0  0  0  0  0  0
   -4.3084   -3.2941   -0.1225 H   0  0  0  0  0  0  0  0  0  0  0  0
   -3.4600   -4.0728   -1.4819 H   0  0  0  0  0  0  0  0  0  0  0  0
   -2.1615   -3.1887   -0.0110 C   0  0  0  0  0  0  0  0  0  0  0  0
   -1.3854   -3.7250    0.7570 O   0  0  0  0  0  0  0  0  0  0  0  0
   -1.8760   -1.9474   -0.5472 N   0  0  0  0  0  0  0  0  0  0  0  0
   -2.5577   -1.5640   -1.1939 H   0  0  0  0  0  0  0  0  0  0  0  0
   -0.6818   -1.1333   -0.2162 C   0  0  1  0  0  0  0  0  0  0  0  0
    0.2128   -1.7462   -0.3763 H   0  0  0  0  0  0  0  0  0  0  0  0
   -0.6136    0.0348   -1.2438 C   0  0  0  0  0  0  0  0  0  0  0  0
    0.1170   -0.2904   -1.9924 H   0  0  0  0  0  0  0  0  0  0  0  0
   -1.5815    0.0587   -1.7540 H   0  0  0  0  0  0  0  0  0  0  0  0
   -0.3283    1.5141   -0.9689 C   0  0  0  0  0  0  0  0  0  0  0  0
   -0.0197    2.2310   -2.1079 C   0  0  0  0  0  0  0  0  0  0  0  0
    0.0219    1.8194   -3.1140 H   0  0  0  0  0  0  0  0  0  0  0  0
    0.1879    3.5565   -1.7763 N   0  0  0  0  0  0  0  0  0  0  0  0
    0.4343    4.3015   -2.4246 H   0  0  0  0  0  0  0  0  0  0  0  0
    0.0752    3.7129   -0.4147 C   0  0  0  0  0  0  0  0  0  0  0  0
    0.2440    4.8883    0.3162 C   0  0  0  0  0  0  0  0  0  0  0  0
    0.4570    5.8241   -0.1881 H   0  0  0  0  0  0  0  0  0  0  0  0
    0.1493    4.8393    1.7073 C   0  0  0  0  0  0  0  0  0  0  0  0
    0.2817    5.7401    2.2989 H   0  0  0  0  0  0  0  0  0  0  0  0
   -0.0912    3.6140    2.3335 C   0  0  0  0  0  0  0  0  0  0  0  0
   -0.1351    3.5586    3.4170 H   0  0  0  0  0  0  0  0  0  0  0  0
   -0.2573    2.4469    1.5742 C   0  0  0  0  0  0  0  0  0  0  0  0
   -0.3877    1.5362    2.1271 H   0  0  0  0  0  0  0  0  0  0  0  0
   -0.2099    2.4712    0.1685 C   0  0  0  0  0  0  0  0  0  0  0  0
   -0.6832   -0.8177    1.2920 C   0  0  0  0  0  0  0  0  0  0  0  0
    0.3430   -0.9139    1.9525 O   0  0  0  0  0  0  0  0  0  0  0  0
   -1.8564   -0.4050    1.9066 N   0  0  0  0  0  0  0  0  0  0  0  0
   -2.6892   -0.4162    1.3290 H   0  0  0  0  0  0  0  0  0  0  0  0
   -2.0173   -0.3712    3.3558 C   0  0  0  0  0  0  0  0  0  0  0  0
   -2.0089   -1.3880    3.7617 H   0  0  0  0  0  0  0  0  0  0  0  0
   -2.9680    0.1025    3.6180 H   0  0  0  0  0  0  0  0  0  0  0  0
   -1.2110    0.1995    3.8279 H   0  0  0  0  0  0  0  0  0  0  0  0
  1  2  1  0  0  0  0
  2  3  1  0  0  0  0
  2  4  1  0  0  0  0
  2  5  1  0  0  0  0
  5  6  2  0  0  0  0
  5  7  1  0  0  0  0
  7  8  1  0  0  0  0
  7  9  1  0  0  0  0
  9 10  1  0  0  0  0
  9 11  1  0  0  0  0
  9 29  1  0  0  0  0
 11 12  1  0  0  0  0
 11 13  1  0  0  0  0
 11 14  1  0  0  0  0
 14 15  2  0  0  0  0
 14 28  1  0  0  0  0
 15 16  1  0  0  0  0
 15 17  1  0  0  0  0
 17 18  1  0  0  0  0
 17 19  1  0  0  0  0
 19 20  1  0  0  0  0
 19 28  2  0  0  0  0
 20 21  1  0  0  0  0
 20 22  2  0  0  0  0
 22 23  1  0  0  0  0
 22 24  1  0  0  0  0
 24 25  1  0  0  0  0
 24 26  2  0  0  0  0
 26 27  1  0  0  0  0
 26 28  1  0  0  0  0
 29 30  2  0  0  0  0
 29 31  1  0  0  0  0
 31 32  1  0  0  0  0
 31 33  1  0  0  0  0
 33 34  1  0  0  0  0
 33 35  1  0  0  0  0
 33 36  1  0  0  0  0
M  END
$$$$

  -OEChem-03222214083D

 36 37  0     1  0  0  0  0  0999 V2000
   -3.5670   -4.7302    0.4427 H   0  0  0  0  0  0  0  0  0  0  0  0
   -3.3866   -3.8563   -0.1900 C   0  0  0  0  0  0  0  0  0  0  0  0
   -4.2198   -3.1597   -0.0711 H   0  0  0  0  0  0  0  0  0  0  0  0
   -3.3349   -4.1818   -1.2316 H   0  0  0  0  0  0  0  0  0  0  0  0
   -2.0864   -3.1846    0.2101 C   0  0  0  0  0  0  0  0  0  0  0  0
   -1.4107   -3.6643    1.1002 O   0  0  0  0  0  0  0  0  0  0  0  0
   -1.6569   -2.0665   -0.4789 N   0  0  0  0  0  0  0  0  0  0  0  0
   -2.2690   -1.7325   -1.2147 H   0  0  0  0  0  0  0  0  0  0  0  0
   -0.5167   -1.2135   -0.0656 C   0  0  1  0  0  0  0  0  0  0  0  0
    0.4168   -1.7844   -0.0098 H   0  0  0  0  0  0  0  0  0  0  0  0
   -0.4305   -0.1569   -1.2035 C   0  0  0  0  0  0  0  0  0  0  0  0
    0.1728   -0.6137   -1.9951 H   0  0  0  0  0  0  0  0  0  0  0  0
   -1.4383   -0.0260   -1.6117 H   0  0  0  0  0  0  0  0  0  0  0  0
    0.0779    1.2682   -1.0235 C   0  0  0  0  0  0  0  0  0  0  0  0
    0.0671    2.0593   -2.1532 C   0  0  0  0  0  0  0  0  0  0  0  0
   -0.3397    1.7659   -3.1183 H   0  0  0  0  0  0  0  0  0  0  0  0
    0.6046    3.2977   -1.8458 N   0  0  0  0  0  0  0  0  0  0  0  0
    0.7066    4.0793   -2.4900 H   0  0  0  0  0  0  0  0  0  0  0  0
    1.0889    3.2842   -0.5568 C   0  0  0  0  0  0  0  0  0  0  0  0
    1.7682    4.2942    0.1237 C   0  0  0  0  0  0  0  0  0  0  0  0
    1.9172    5.2642   -0.3373 H   0  0  0  0  0  0  0  0  0  0  0  0
    2.2729    4.0304    1.3993 C   0  0  0  0  0  0  0  0  0  0  0  0
    2.8056    4.8007    1.9492 H   0  0  0  0  0  0  0  0  0  0  0  0
    2.1213    2.7532    1.9482 C   0  0  0  0  0  0  0  0  0  0  0  0
    2.5473    2.5249    2.9207 H   0  0  0  0  0  0  0  0  0  0  0  0
    1.4388    1.7531    1.2417 C   0  0  0  0  0  0  0  0  0  0  0  0
    1.4194    0.7686    1.6779 H   0  0  0  0  0  0  0  0  0  0  0  0
    0.8541    2.0203   -0.0071 C   0  0  0  0  0  0  0  0  0  0  0  0
   -0.8151   -0.6293    1.3381 C   0  0  0  0  0  0  0  0  0  0  0  0
   -0.0772   -0.8799    2.2819 O   0  0  0  0  0  0  0  0  0  0  0  0
   -2.0633   -0.0971    1.6199 N   0  0  0  0  0  0  0  0  0  0  0  0
   -2.6626    0.1153    0.8312 H   0  0  0  0  0  0  0  0  0  0  0  0
   -2.4555    0.3586    2.9475 C   0  0  0  0  0  0  0  0  0  0  0  0
   -1.8136    1.1843    3.2725 H   0  0  0  0  0  0  0  0  0  0  0  0
   -3.4923    0.7074    2.9363 H   0  0  0  0  0  0  0  0  0  0  0  0
   -2.3753   -0.4577    3.6735 H   0  0  0  0  0  0  0  0  0  0  0  0
  1  2  1  0  0  0  0
  2  3  1  0  0  0  0
  2  4  1  0  0  0  0
  2  5  1  0  0  0  0
  5  6  2  0  0  0  0
  5  7  1  0  0  0  0
  7  8  1  0  0  0  0
  7  9  1  0  0  0  0
  9 10  1  0  0  0  0
  9 11  1  0  0  0  0
  9 29  1  0  0  0  0
 11 12  1  0  0  0  0
 11 13  1  0  0  0  0
 11 14  1  0  0  0  0
 14 15  2  0  0  0  0
 14 28  1  0  0  0  0
 15 16  1  0  0  0  0
 15 17  1  0  0  0  0
 17 18  1  0  0  0  0
 17 19  1  0  0  0  0
 19 20  1  0  0  0  0
 19 28  2  0  0  0  0
 20 21  1  0  0  0  0
 20 22  2  0  0  0  0
 22 23  1  0  0  0  0
 22 24  1  0  0  0  0
 24 25  1  0  0  0  0
 24 26  2  0  0  0  0
 26 27  1  0  0  0  0
 26 28  1  0  0  0  0
 29 30  2  0  0  0  0
 29 31  1  0  0  0  0
 31 32  1  0  0  0  0
 31 33  1  0  0  0  0
 33 34  1  0  0  0  0
 33 35  1  0  0  0  0
 33 36  1  0  0  0  0
M  END
$$$$

  -OEChem-03222214083D

 36 37  0     1  0  0  0  0  0999 V2000
   -3.6952   -4.5786    0.6515 H   0  0  0  0  0  0  0  0  0  0  0  0
   -3.5222   -3.7381   -0.0269 C   0  0  0  0  0  0  0  0  0  0  0  0
   -4.3644   -3.0466    0.0505 H   0  0  0  0  0  0  0  0  0  0  0  0
   -3.4613   -4.1189   -1.0492 H   0  0  0  0  0  0  0  0  0  0  0  0
   -2.2327   -3.0288    0.3416 C   0  0  0  0  0  0  0  0  0  0  0  0
   -1.5678   -3.4361    1.2750 O   0  0  0  0  0  0  0  0  0  0  0  0
   -1.8058   -1.9542   -0.4149 N   0  0  0  0  0  0  0  0  0  0  0  0
   -2.3841   -1.7010   -1.2085 H   0  0  0  0  0  0  0  0  0  0  0  0
   -0.6311   -1.1109   -0.0940 C   0  0  1  0  0  0  0  0  0  0  0  0
    0.2913   -1.7006   -0.0602 H   0  0  0  0  0  0  0  0  0  0  0  0
   -0.5728   -0.0842   -1.2580 C   0  0  0  0  0  0  0  0  0  0  0  0
    0.0076   -0.5477   -2.0623 H   0  0  0  0  0  0  0  0  0  0  0  0
   -1.5858    0.0709   -1.6434 H   0  0  0  0  0  0  0  0  0  0  0  0
   -0.0020    1.3012   -1.0266 C   0  0  0  0  0  0  0  0  0  0  0  0
   -0.2353    2.3064   -1.9398 C   0  0  0  0  0  0  0  0  0  0  0  0
   -0.9238    2.2432   -2.7794 H   0  0  0  0  0  0  0  0  0  0  0  0
    0.5302    3.4115   -1.5947 N   0  0  0  0  0  0  0  0  0  0  0  0
    0.5430    4.3025   -2.0867 H   0  0  0  0  0  0  0  0  0  0  0  0
    1.3788    3.0854   -0.5570 C   0  0  0  0  0  0  0  0  0  0  0  0
    2.3834    3.8414    0.0464 C   0  0  0  0  0  0  0  0  0  0  0  0
    2.5445    4.8729   -0.2453 H   0  0  0  0  0  0  0  0  0  0  0  0
    3.1934    3.2430    1.0176 C   0  0  0  0  0  0  0  0  0  0  0  0
    3.9802    3.8135    1.5019 H   0  0  0  0  0  0  0  0  0  0  0  0
    3.0051    1.8939    1.3426 C   0  0  0  0  0  0  0  0  0  0  0  0
    3.6474    1.4142    2.0750 H   0  0  0  0  0  0  0  0  0  0  0  0
    1.9930    1.1500    0.7208 C   0  0  0  0  0  0  0  0  0  0  0  0
    1.9037    0.0974    0.9581 H   0  0  0  0  0  0  0  0  0  0  0  0
    1.1310    1.7601   -0.2021 C   0  0  0  0  0  0  0  0  0  0  0  0
   -0.8427   -0.4467    1.2954 C   0  0  0  0  0  0  0  0  0  0  0  0
   -0.0271   -0.5914    2.1963 O   0  0  0  0  0  0  0  0  0  0  0  0
   -2.0619    0.1310    1.6118 N   0  0  0  0  0  0  0  0  0  0  0  0
   -2.7439    0.2144    0.8680 H   0  0  0  0  0  0  0  0  0  0  0  0
   -2.3745    0.6697    2.9293 C   0  0  0  0  0  0  0  0  0  0  0  0
   -1.6787    1.4748    3.1879 H   0  0  0  0  0  0  0  0  0  0  0  0
   -3.3911    1.0736    2.9424 H   0  0  0  0  0  0  0  0  0  0  0  0
   -2.3041   -0.1155    3.6895 H   0  0  0  0  0  0  0  0  0  0  0  0
  1  2  1  0  0  0  0
  2  3  1  0  0  0  0
  2  4  1  0  0  0  0
  2  5  1  0  0  0  0
  5  6  2  0  0  0  0
  5  7  1  0  0  0  0
  7  8  1  0  0  0  0
  7  9  1  0  0  0  0
  9 10  1  0  0  0  0
  9 11  1  0  0  0  0
  9 29  1  0  0  0  0
 11 12  1  0  0  0  0
 11 13  1  0  0  0  0
 11 14  1  0  0  0  0
 14 15  2  0  0  0  0
 14 28  1  0  0  0  0
 15 16  1  0  0  0  0
 15 17  1  0  0  0  0
 17 18  1  0  0  0  0
 17 19  1  0  0  0  0
 19 20  1  0  0  0  0
 19 28  2  0  0  0  0
 20 21  1  0  0  0  0
 20 22  2  0  0  0  0
 22 23  1  0  0  0  0
 22 24  1  0  0  0  0
 24 25  1  0  0  0  0
 24 26  2  0  0  0  0
 26 27  1  0  0  0  0
 26 28  1  0  0  0  0
 29 30  2  0  0  0  0
 29 31  1  0  0  0  0
 31 32  1  0  0  0  0
 31 33  1  0  0  0  0
 33 34  1  0  0  0  0
 33 35  1  0  0  0  0
 33 36  1  0  0  0  0
M  END
$$$$

  -OEChem-03222214083D

 36 37  0     1  0  0  0  0  0999 V2000
   -3.5197   -4.6757    0.5874 H   0  0  0  0  0  0  0  0  0  0  0  0
   -3.3821   -3.8286   -0.0910 C   0  0  0  0  0  0  0  0  0  0  0  0
   -4.2736   -3.1982   -0.0510 H   0  0  0  0  0  0  0  0  0  0  0  0
   -3.2567   -4.2105   -1.1069 H   0  0  0  0  0  0  0  0  0  0  0  0
   -2.1607   -3.0272    0.3180 C   0  0  0  0  0  0  0  0  0  0  0  0
   -1.5248   -3.3580    1.3005 O   0  0  0  0  0  0  0  0  0  0  0  0
   -1.7661   -1.9488   -0.4500 N   0  0  0  0  0  0  0  0  0  0  0  0
   -2.2947   -1.7787   -1.2987 H   0  0  0  0  0  0  0  0  0  0  0  0
   -0.6001   -1.0853   -0.1574 C   0  0  1  0  0  0  0  0  0  0  0  0
    0.3216   -1.6760   -0.1341 H   0  0  0  0  0  0  0  0  0  0  0  0
   -0.5415   -0.0720   -1.3305 C   0  0  0  0  0  0  0  0  0  0  0  0
    0.0530   -0.5305   -2.1271 H   0  0  0  0  0  0  0  0  0  0  0  0
   -1.5507    0.0778   -1.7275 H   0  0  0  0  0  0  0  0  0  0  0  0
    0.0294    1.3044   -1.0644 C   0  0  0  0  0  0  0  0  0  0  0  0
   -0.3908    2.4217   -1.7505 C   0  0  0  0  0  0  0  0  0  0  0  0
   -1.2310    2.4590   -2.4397 H   0  0  0  0  0  0  0  0  0  0  0  0
    0.4414    3.4826   -1.4150 N   0  0  0  0  0  0  0  0  0  0  0  0
    0.3588    4.4349   -1.7640 H   0  0  0  0  0  0  0  0  0  0  0  0
    1.4649    3.0403   -0.5987 C   0  0  0  0  0  0  0  0  0  0  0  0
    2.5629    3.7212   -0.0736 C   0  0  0  0  0  0  0  0  0  0  0  0
    2.6901    4.7819   -0.2579 H   0  0  0  0  0  0  0  0  0  0  0  0
    3.5033    3.0136    0.6850 C   0  0  0  0  0  0  0  0  0  0  0  0
    4.3629    3.5269    1.1050 H   0  0  0  0  0  0  0  0  0  0  0  0
    3.3386    1.6375    0.8940 C   0  0  0  0  0  0  0  0  0  0  0  0
    4.0672    1.0841    1.4786 H   0  0  0  0  0  0  0  0  0  0  0  0
    2.2309    0.9674    0.3560 C   0  0  0  0  0  0  0  0  0  0  0  0
    2.1226   -0.0989    0.5205 H   0  0  0  0  0  0  0  0  0  0  0  0
    1.2704    1.6797   -0.3746 C   0  0  0  0  0  0  0  0  0  0  0  0
   -0.7587   -0.4022    1.2277 C   0  0  0  0  0  0  0  0  0  0  0  0
    0.1367   -0.4506    2.0608 O   0  0  0  0  0  0  0  0  0  0  0  0
   -1.9678    0.1713    1.5849 N   0  0  0  0  0  0  0  0  0  0  0  0
   -2.7249    0.1088    0.9149 H   0  0  0  0  0  0  0  0  0  0  0  0
   -2.2296    0.7222    2.9078 C   0  0  0  0  0  0  0  0  0  0  0  0
   -1.5241    1.5294    3.1319 H   0  0  0  0  0  0  0  0  0  0  0  0
   -3.2446    1.1277    2.9553 H   0  0  0  0  0  0  0  0  0  0  0  0
   -2.1298   -0.0560    3.6720 H   0  0  0  0  0  0  0  0  0  0  0  0
  1  2  1  0  0  0  0
  2  3  1  0  0  0  0
  2  4  1  0  0  0  0
  2  5  1  0  0  0  0
  5  6  2  0  0  0  0
  5  7  1  0  0  0  0
  7  8  1  0  0  0  0
  7  9  1  0  0  0  0
  9 10  1  0  0  0  0
  9 11  1  0  0  0  0
  9 29  1  0  0  0  0
 11 12  1  0  0  0  0
 11 13  1  0  0  0  0
 11 14  1  0  0  0  0
 14 15  2  0  0  0  0
 14 28  1  0  0  0  0
 15 16  1  0  0  0  0
 15 17  1  0  0  0  0
 17 18  1  0  0  0  0
 17 19  1  0  0  0  0
 19 20  1  0  0  0  0
 19 28  2  0  0  0  0
 20 21  1  0  0  0  0
 20 22  2  0  0  0  0
 22 23  1  0  0  0  0
 22 24  1  0  0  0  0
 24 25  1  0  0  0  0
 24 26  2  0  0  0  0
 26 27  1  0  0  0  0
 26 28  1  0  0  0  0
 29 30  2  0  0  0  0
 29 31  1  0  0  0  0
 31 32  1  0  0  0  0
 31 33  1  0  0  0  0
 33 34  1  0  0  0  0
 33 35  1  0  0  0  0
 33 36  1  0  0  0  0
M  END
$$$$

  -OEChem-03222214083D

 36 37  0     1  0  0  0  0  0999 V2000
   -3.4485   -4.6783    0.6630 H   0  0  0  0  0  0  0  0  0  0  0  0
   -3.3479   -3.8388   -0.0311 C   0  0  0  0  0  0  0  0  0  0  0  0
   -4.2516   -3.2272    0.0239 H   0  0  0  0  0  0  0  0  0  0  0  0
   -3.2418   -4.2334   -1.0444 H   0  0  0  0  0  0  0  0  0  0  0  0
   -2.1340   -3.0047    0.3323 C   0  0  0  0  0  0  0  0  0  0  0  0
   -1.4753   -3.2944    1.3129 O   0  0  0  0  0  0  0  0  0  0  0  0
   -1.7795   -1.9347   -0.4660 N   0  0  0  0  0  0  0  0  0  0  0  0
   -2.3162   -1.8072   -1.3174 H   0  0  0  0  0  0  0  0  0  0  0  0
   -0.6001   -1.0710   -0.2392 C   0  0  1  0  0  0  0  0  0  0  0  0
    0.3110   -1.6782   -0.2459 H   0  0  0  0  0  0  0  0  0  0  0  0
   -0.5564   -0.0850   -1.4343 C   0  0  0  0  0  0  0  0  0  0  0  0
    0.0133   -0.5586   -2.2400 H   0  0  0  0  0  0  0  0  0  0  0  0
   -1.5727    0.0751   -1.8079 H   0  0  0  0  0  0  0  0  0  0  0  0
    0.0425    1.2781   -1.1744 C   0  0  0  0  0  0  0  0  0  0  0  0
   -0.5143    2.4626   -1.5988 C   0  0  0  0  0  0  0  0  0  0  0  0
   -1.4767    2.5679   -2.0939 H   0  0  0  0  0  0  0  0  0  0  0  0
    0.3753    3.4891   -1.2978 N   0  0  0  0  0  0  0  0  0  0  0  0
    0.2251    4.4778   -1.4861 H   0  0  0  0  0  0  0  0  0  0  0  0
    1.5270    2.9728   -0.7300 C   0  0  0  0  0  0  0  0  0  0  0  0
    2.6983    3.5974   -0.3009 C   0  0  0  0  0  0  0  0  0  0  0  0
    2.8052    4.6737   -0.3751 H   0  0  0  0  0  0  0  0  0  0  0  0
    3.7345    2.8154    0.2264 C   0  0  0  0  0  0  0  0  0  0  0  0
    4.6508    3.2852    0.5711 H   0  0  0  0  0  0  0  0  0  0  0  0
    3.5875    1.4235    0.3127 C   0  0  0  0  0  0  0  0  0  0  0  0
    4.3855    0.8170    0.7296 H   0  0  0  0  0  0  0  0  0  0  0  0
    2.4064    0.8088   -0.1260 C   0  0  0  0  0  0  0  0  0  0  0  0
    2.2932   -0.2668   -0.0432 H   0  0  0  0  0  0  0  0  0  0  0  0
    1.3686    1.5935   -0.6427 C   0  0  0  0  0  0  0  0  0  0  0  0
   -0.6561   -0.3593    1.1376 C   0  0  0  0  0  0  0  0  0  0  0  0
    0.3200   -0.3531    1.8766 O   0  0  0  0  0  0  0  0  0  0  0  0
   -1.8291    0.2366    1.5693 N   0  0  0  0  0  0  0  0  0  0  0  0
   -2.6457    0.1284    0.9798 H   0  0  0  0  0  0  0  0  0  0  0  0
   -1.9736    0.8413    2.8866 C   0  0  0  0  0  0  0  0  0  0  0  0
   -1.2772    1.6788    3.0005 H   0  0  0  0  0  0  0  0  0  0  0  0
   -2.9921    1.2172    3.0213 H   0  0  0  0  0  0  0  0  0  0  0  0
   -1.7693    0.1037    3.6701 H   0  0  0  0  0  0  0  0  0  0  0  0
  1  2  1  0  0  0  0
  2  3  1  0  0  0  0
  2  4  1  0  0  0  0
  2  5  1  0  0  0  0
  5  6  2  0  0  0  0
  5  7  1  0  0  0  0
  7  8  1  0  0  0  0
  7  9  1  0  0  0  0
  9 10  1  0  0  0  0
  9 11  1  0  0  0  0
  9 29  1  0  0  0  0
 11 12  1  0  0  0  0
 11 13  1  0  0  0  0
 11 14  1  0  0  0  0
 14 15  2  0  0  0  0
 14 28  1  0  0  0  0
 15 16  1  0  0  0  0
 15 17  1  0  0  0  0
 17 18  1  0  0  0  0
 17 19  1  0  0  0  0
 19 20  1  0  0  0  0
 19 28  2  0  0  0  0
 20 21  1  0  0  0  0
 20 22  2  0  0  0  0
 22 23  1  0  0  0  0
 22 24  1  0  0  0  0
 24 25  1  0  0  0  0
 24 26  2  0  0  0  0
 26 27  1  0  0  0  0
 26 28  1  0  0  0  0
 29 30  2  0  0  0  0
 29 31  1  0  0  0  0
 31 32  1  0  0  0  0
 31 33  1  0  0  0  0
 33 34  1  0  0  0  0
 33 35  1  0  0  0  0
 33 36  1  0  0  0  0
M  END
$$$$

  -OEChem-03222214083D

 36 37  0     1  0  0  0  0  0999 V2000
   -3.3750   -4.6676    0.7443 H   0  0  0  0  0  0  0  0  0  0  0  0
   -3.2984   -3.8500    0.0214 C   0  0  0  0  0  0  0  0  0  0  0  0
   -4.2113   -3.2518    0.0701 H   0  0  0  0  0  0  0  0  0  0  0  0
   -3.2008   -4.2754   -0.9802 H   0  0  0  0  0  0  0  0  0  0  0  0
   -2.0934   -2.9847    0.3398 C   0  0  0  0  0  0  0  0  0  0  0  0
   -1.4077   -3.2403    1.3114 O   0  0  0  0  0  0  0  0  0  0  0  0
   -1.7806   -1.9206   -0.4834 N   0  0  0  0  0  0  0  0  0  0  0  0
   -2.3323   -1.8254   -1.3296 H   0  0  0  0  0  0  0  0  0  0  0  0
   -0.5978   -1.0489   -0.3133 C   0  0  1  0  0  0  0  0  0  0  0  0
    0.3107   -1.6596   -0.3454 H   0  0  0  0  0  0  0  0  0  0  0  0
   -0.5838   -0.0831   -1.5240 C   0  0  0  0  0  0  0  0  0  0  0  0
   -0.0435   -0.5621   -2.3462 H   0  0  0  0  0  0  0  0  0  0  0  0
   -1.6109    0.0826   -1.8639 H   0  0  0  0  0  0  0  0  0  0  0  0
    0.0274    1.2732   -1.2719 C   0  0  0  0  0  0  0  0  0  0  0  0
   -0.6172    2.4809   -1.4040 C   0  0  0  0  0  0  0  0  0  0  0  0
   -1.6630    2.6161   -1.6687 H   0  0  0  0  0  0  0  0  0  0  0  0
    0.3102    3.4877   -1.1503 N   0  0  0  0  0  0  0  0  0  0  0  0
    0.1162    4.4864   -1.1580 H   0  0  0  0  0  0  0  0  0  0  0  0
    1.5509    2.9393   -0.8700 C   0  0  0  0  0  0  0  0  0  0  0  0
    2.7760    3.5316   -0.5629 C   0  0  0  0  0  0  0  0  0  0  0  0
    2.8642    4.6107   -0.5094 H   0  0  0  0  0  0  0  0  0  0  0  0
    3.8880    2.7132   -0.3202 C   0  0  0  0  0  0  0  0  0  0  0  0
    4.8474    3.1582   -0.0740 H   0  0  0  0  0  0  0  0  0  0  0  0
    3.7605    1.3174   -0.3857 C   0  0  0  0  0  0  0  0  0  0  0  0
    4.6186    0.6833   -0.1857 H   0  0  0  0  0  0  0  0  0  0  0  0
    2.5235    0.7342   -0.6950 C   0  0  0  0  0  0  0  0  0  0  0  0
    2.4198   -0.3450   -0.7271 H   0  0  0  0  0  0  0  0  0  0  0  0
    1.4188    1.5571   -0.9387 C   0  0  0  0  0  0  0  0  0  0  0  0
   -0.5807   -0.3159    1.0525 C   0  0  0  0  0  0  0  0  0  0  0  0
    0.4488   -0.2571    1.7125 O   0  0  0  0  0  0  0  0  0  0  0  0
   -1.7293    0.2875    1.5369 N   0  0  0  0  0  0  0  0  0  0  0  0
   -2.5868    0.1171    1.0251 H   0  0  0  0  0  0  0  0  0  0  0  0
   -1.7956    0.9258    2.8446 C   0  0  0  0  0  0  0  0  0  0  0  0
   -1.0707    1.7442    2.9067 H   0  0  0  0  0  0  0  0  0  0  0  0
   -2.7951    1.3364    3.0157 H   0  0  0  0  0  0  0  0  0  0  0  0
   -1.5767    0.2006    3.6354 H   0  0  0  0  0  0  0  0  0  0  0  0
  1  2  1  0  0  0  0
  2  3  1  0  0  0  0
  2  4  1  0  0  0  0
  2  5  1  0  0  0  0
  5  6  2  0  0  0  0
  5  7  1  0  0  0  0
  7  8  1  0  0  0  0
  7  9  1  0  0  0  0
  9 10  1  0  0  0  0
  9 11  1  0  0  0  0
  9 29  1  0  0  0  0
 11 12  1  0  0  0  0
 11 13  1  0  0  0  0
 11 14  1  0  0  0  0
 14 15  2  0  0  0  0
 14 28  1  0  0  0  0
 15 16  1  0  0  0  0
 15 17  1  0  0  0  0
 17 18  1  0  0  0  0
 17 19  1  0  0  0  0
 19 20  1  0  0  0  0
 19 28  2  0  0  0  0
 20 21  1  0  0  0  0
 20 22  2  0  0  0  0
 22 23  1  0  0  0  0
 22 24  1  0  0  0  0
 24 25  1  0  0  0  0
 24 26  2  0  0  0  0
 26 27  1  0  0  0  0
 26 28  1  0  0  0  0
 29 30  2  0  0  0  0
 29 31  1  0  0  0  0
 31 32  1  0  0  0  0
 31 33  1  0  0  0  0
 33 34  1  0  0  0  0
 33 35  1  0  0  0  0
 33 36  1  0  0  0  0
M  END
$$$$

  -OEChem-03222214083D

 36 37  0     1  0  0  0  0  0999 V2000
   -3.3044   -4.6683    0.7802 H   0  0  0  0  0  0  0  0  0  0  0  0
   -3.2560   -3.8538    0.0516 C   0  0  0  0  0  0  0  0  0  0  0  0
   -4.1771   -3.2697    0.1161 H   0  0  0  0  0  0  0  0  0  0  0  0
   -3.1727   -4.2837   -0.9494 H   0  0  0  0  0  0  0  0  0  0  0  0
   -2.0587   -2.9677    0.3403 C   0  0  0  0  0  0  0  0  0  0  0  0
   -1.3567   -3.1984    1.3065 O   0  0  0  0  0  0  0  0  0  0  0  0
   -1.7772   -1.9062   -0.4973 N   0  0  0  0  0  0  0  0  0  0  0  0
   -2.3412   -1.8322   -1.3376 H   0  0  0  0  0  0  0  0  0  0  0  0
   -0.5967   -1.0248   -0.3661 C   0  0  1  0  0  0  0  0  0  0  0  0
    0.3144   -1.6307   -0.4166 H   0  0  0  0  0  0  0  0  0  0  0  0
   -0.6113   -0.0682   -1.5833 C   0  0  0  0  0  0  0  0  0  0  0  0
   -0.0983   -0.5470   -2.4234 H   0  0  0  0  0  0  0  0  0  0  0  0
   -1.6479    0.1010   -1.8907 H   0  0  0  0  0  0  0  0  0  0  0  0
    0.0031    1.2860   -1.3364 C   0  0  0  0  0  0  0  0  0  0  0  0
   -0.6708    2.4726   -1.1666 C   0  0  0  0  0  0  0  0  0  0  0  0
   -1.7508    2.5954   -1.1752 H   0  0  0  0  0  0  0  0  0  0  0  0
    0.2783    3.4751   -0.9830 N   0  0  0  0  0  0  0  0  0  0  0  0
    0.0752    4.4561   -0.8060 H   0  0  0  0  0  0  0  0  0  0  0  0
    1.5564    2.9412   -1.0232 C   0  0  0  0  0  0  0  0  0  0  0  0
    2.8134    3.5288   -0.8796 C   0  0  0  0  0  0  0  0  0  0  0  0
    2.9018    4.5949   -0.7036 H   0  0  0  0  0  0  0  0  0  0  0  0
    3.9575    2.7219   -0.9578 C   0  0  0  0  0  0  0  0  0  0  0  0
    4.9424    3.1641   -0.8422 H   0  0  0  0  0  0  0  0  0  0  0  0
    3.8311    1.3411   -1.1751 C   0  0  0  0  0  0  0  0  0  0  0  0
    4.7173    0.7160   -1.2239 H   0  0  0  0  0  0  0  0  0  0  0  0
    2.5622    0.7617   -1.3166 C   0  0  0  0  0  0  0  0  0  0  0  0
    2.4597   -0.3076   -1.4674 H   0  0  0  0  0  0  0  0  0  0  0  0
    1.4271    1.5751   -1.2431 C   0  0  0  0  0  0  0  0  0  0  0  0
   -0.5426   -0.2821    0.9933 C   0  0  0  0  0  0  0  0  0  0  0  0
    0.5142   -0.1768    1.6026 O   0  0  0  0  0  0  0  0  0  0  0  0
   -1.6822    0.3154    1.5055 N   0  0  0  0  0  0  0  0  0  0  0  0
   -2.5576    0.0757    1.0554 H   0  0  0  0  0  0  0  0  0  0  0  0
   -1.7121    0.9560    2.8135 C   0  0  0  0  0  0  0  0  0  0  0  0
   -0.9840    1.7730    2.8555 H   0  0  0  0  0  0  0  0  0  0  0  0
   -2.7056    1.3693    3.0105 H   0  0  0  0  0  0  0  0  0  0  0  0
   -1.4740    0.2312    3.5991 H   0  0  0  0  0  0  0  0  0  0  0  0
  1  2  1  0  0  0  0
  2  3  1  0  0  0  0
  2  4  1  0  0  0  0
  2  5  1  0  0  0  0
  5  6  2  0  0  0  0
  5  7  1  0  0  0  0
  7  8  1  0  0  0  0
  7  9  1  0  0  0  0
  9 10  1  0  0  0  0
  9 11  1  0  0  0  0
  9 29  1  0  0  0  0
 11 12  1  0  0  0  0
 11 13  1  0  0  0  0
 11 14  1  0  0  0  0
 14 15  2  0  0  0  0
 14 28  1  0  0  0  0
 15 16  1  0  0  0  0
 15 17  1  0  0  0  0
 17 18  1  0  0  0  0
 17 19  1  0  0  0  0
 19 20  1  0  0  0  0
 19 28  2  0  0  0  0
 20 21  1  0  0  0  0
 20 22  2  0  0  0  0
 22 23  1  0  0  0  0
 22 24  1  0  0  0  0
 24 25  1  0  0  0  0
 24 26  2  0  0  0  0
 26 27  1  0  0  0  0
 26 28  1  0  0  0  0
 29 30  2  0  0  0  0
 29 31  1  0  0  0  0
 31 32  1  0  0  0  0
 31 33  1  0  0  0  0
 33 34  1  0  0  0  0
 33 35  1  0  0  0  0
 33 36  1  0  0  0  0
M  END
$$$$

  -OEChem-03222214083D

 36 37  0     1  0  0  0  0  0999 V2000
   -3.2818   -4.6809    0.7572 H   0  0  0  0  0  0  0  0  0  0  0  0
   -3.2401   -3.8631    0.0318 C   0  0  0  0  0  0  0  0  0  0  0  0
   -4.1749   -3.3000    0.0830 H   0  0  0  0  0  0  0  0  0  0  0  0
   -3.1314   -4.2884   -0.9687 H   0  0  0  0  0  0  0  0  0  0  0  0
   -2.0676   -2.9512    0.3410 C   0  0  0  0  0  0  0  0  0  0  0  0
   -1.3820   -3.1630    1.3230 O   0  0  0  0  0  0  0  0  0  0  0  0
   -1.7909   -1.8874   -0.4955 N   0  0  0  0  0  0  0  0  0  0  0  0
   -2.3368   -1.8344   -1.3494 H   0  0  0  0  0  0  0  0  0  0  0  0
   -0.6076   -1.0087   -0.3699 C   0  0  1  0  0  0  0  0  0  0  0  0
    0.3018   -1.6171   -0.4245 H   0  0  0  0  0  0  0  0  0  0  0  0
   -0.6195   -0.0520   -1.5875 C   0  0  0  0  0  0  0  0  0  0  0  0
   -0.1232   -0.5354   -2.4345 H   0  0  0  0  0  0  0  0  0  0  0  0
   -1.6576    0.1276   -1.8835 H   0  0  0  0  0  0  0  0  0  0  0  0
    0.0007    1.3013   -1.3470 C   0  0  0  0  0  0  0  0  0  0  0  0
   -0.6386    2.4340   -0.8995 C   0  0  0  0  0  0  0  0  0  0  0  0
   -1.6929    2.5080   -0.6448 H   0  0  0  0  0  0  0  0  0  0  0  0
    0.3084    3.4520   -0.8222 N   0  0  0  0  0  0  0  0  0  0  0  0
    0.1349    4.3940   -0.4797 H   0  0  0  0  0  0  0  0  0  0  0  0
    1.5543    2.9803   -1.2022 C   0  0  0  0  0  0  0  0  0  0  0  0
    2.8000    3.6039   -1.2737 C   0  0  0  0  0  0  0  0  0  0  0  0
    2.9037    4.6490   -1.0049 H   0  0  0  0  0  0  0  0  0  0  0  0
    3.9132    2.8601   -1.6895 C   0  0  0  0  0  0  0  0  0  0  0  0
    4.8900    3.3311   -1.7450 H   0  0  0  0  0  0  0  0  0  0  0  0
    3.7682    1.5052   -2.0256 C   0  0  0  0  0  0  0  0  0  0  0  0
    4.6336    0.9291   -2.3385 H   0  0  0  0  0  0  0  0  0  0  0  0
    2.5108    0.8886   -1.9487 C   0  0  0  0  0  0  0  0  0  0  0  0
    2.3975   -0.1616   -2.1954 H   0  0  0  0  0  0  0  0  0  0  0  0
    1.4048    1.6396   -1.5374 C   0  0  0  0  0  0  0  0  0  0  0  0
   -0.5458   -0.2731    0.9929 C   0  0  0  0  0  0  0  0  0  0  0  0
    0.5187   -0.1460    1.5843 O   0  0  0  0  0  0  0  0  0  0  0  0
   -1.6839    0.3216    1.5131 N   0  0  0  0  0  0  0  0  0  0  0  0
   -2.5623    0.0437    1.0904 H   0  0  0  0  0  0  0  0  0  0  0  0
   -1.7057    0.9366    2.8338 C   0  0  0  0  0  0  0  0  0  0  0  0
   -0.9810    1.7560    2.8859 H   0  0  0  0  0  0  0  0  0  0  0  0
   -2.6994    1.3414    3.0472 H   0  0  0  0  0  0  0  0  0  0  0  0
   -1.4578    0.1976    3.6031 H   0  0  0  0  0  0  0  0  0  0  0  0
  1  2  1  0  0  0  0
  2  3  1  0  0  0  0
  2  4  1  0  0  0  0
  2  5  1  0  0  0  0
  5  6  2  0  0  0  0
  5  7  1  0  0  0  0
  7  8  1  0  0  0  0
  7  9  1  0  0  0  0
  9 10  1  0  0  0  0
  9 11  1  0  0  0  0
  9 29  1  0  0  0  0
 11 12  1  0  0  0  0
 11 13  1  0  0  0  0
 11 14  1  0  0  0  0
 14 15  2  0  0  0  0
 14 28  1  0  0  0  0
 15 16  1  0  0  0  0
 15 17  1  0  0  0  0
 17 18  1  0  0  0  0
 17 19  1  0  0  0  0
 19 20  1  0  0  0  0
 19 28  2  0  0  0  0
 20 21  1  0  0  0  0
 20 22  2  0  0  0  0
 22 23  1  0  0  0  0
 22 24  1  0  0  0  0
 24 25  1  0  0  0  0
 24 26  2  0  0  0  0
 26 27  1  0  0  0  0
 26 28  1  0  0  0  0
 29 30  2  0  0  0  0
 29 31  1  0  0  0  0
 31 32  1  0  0  0  0
 31 33  1  0  0  0  0
 33 34  1  0  0  0  0
 33 35  1  0  0  0  0
 33 36  1  0  0  0  0
M  END
$$$$

  -OEChem-03222214083D

 36 37  0     1  0  0  0  0  0999 V2000
   -3.2960   -4.6865    0.7098 H   0  0  0  0  0  0  0  0  0  0  0  0
   -3.2402   -3.8672   -0.0129 C   0  0  0  0  0  0  0  0  0  0  0  0
   -4.1802   -3.3114    0.0129 H   0  0  0  0  0  0  0  0  0  0  0  0
   -3.1001   -4.2897   -1.0107 H   0  0  0  0  0  0  0  0  0  0  0  0
   -2.0828   -2.9479    0.3296 C   0  0  0  0  0  0  0  0  0  0  0  0
   -1.4096   -3.1689    1.3182 O   0  0  0  0  0  0  0  0  0  0  0  0
   -1.8011   -1.8705   -0.4875 N   0  0  0  0  0  0  0  0  0  0  0  0
   -2.3389   -1.8071   -1.3459 H   0  0  0  0  0  0  0  0  0  0  0  0
   -0.6146   -0.9982   -0.3450 C   0  0  1  0  0  0  0  0  0  0  0  0
    0.2912   -1.6121   -0.3999 H   0  0  0  0  0  0  0  0  0  0  0  0
   -0.6064   -0.0316   -1.5568 C   0  0  0  0  0  0  0  0  0  0  0  0
   -0.1145   -0.5233   -2.4012 H   0  0  0  0  0  0  0  0  0  0  0  0
   -1.6414    0.1564   -1.8586 H   0  0  0  0  0  0  0  0  0  0  0  0
    0.0152    1.3264   -1.3291 C   0  0  0  0  0  0  0  0  0  0  0  0
   -0.5226    2.3896   -0.6403 C   0  0  0  0  0  0  0  0  0  0  0  0
   -1.4886    2.3992   -0.1417 H   0  0  0  0  0  0  0  0  0  0  0  0
    0.3945    3.4358   -0.6861 N   0  0  0  0  0  0  0  0  0  0  0  0
    0.2887    4.3323   -0.2169 H   0  0  0  0  0  0  0  0  0  0  0  0
    1.5248    3.0540   -1.3884 C   0  0  0  0  0  0  0  0  0  0  0  0
    2.7035    3.7377   -1.6865 C   0  0  0  0  0  0  0  0  0  0  0  0
    2.8436    4.7583   -1.3486 H   0  0  0  0  0  0  0  0  0  0  0  0
    3.7033    3.0868   -2.4226 C   0  0  0  0  0  0  0  0  0  0  0  0
    4.6271    3.6060   -2.6602 H   0  0  0  0  0  0  0  0  0  0  0  0
    3.5142    1.7625   -2.8460 C   0  0  0  0  0  0  0  0  0  0  0  0
    4.2933    1.2578   -3.4091 H   0  0  0  0  0  0  0  0  0  0  0  0
    2.3257    1.0848   -2.5374 C   0  0  0  0  0  0  0  0  0  0  0  0
    2.1843    0.0577   -2.8553 H   0  0  0  0  0  0  0  0  0  0  0  0
    1.3293    1.7429   -1.8073 C   0  0  0  0  0  0  0  0  0  0  0  0
   -0.5602   -0.2913    1.0324 C   0  0  0  0  0  0  0  0  0  0  0  0
    0.5045   -0.1468    1.6187 O   0  0  0  0  0  0  0  0  0  0  0  0
   -1.7033    0.2921    1.5549 N   0  0  0  0  0  0  0  0  0  0  0  0
   -2.5776   -0.0036    1.1348 H   0  0  0  0  0  0  0  0  0  0  0  0
   -1.7353    0.8866    2.8849 C   0  0  0  0  0  0  0  0  0  0  0  0
   -1.0076    1.7017    2.9581 H   0  0  0  0  0  0  0  0  0  0  0  0
   -2.7292    1.2928    3.0939 H   0  0  0  0  0  0  0  0  0  0  0  0
   -1.4990    0.1346    3.6452 H   0  0  0  0  0  0  0  0  0  0  0  0
  1  2  1  0  0  0  0
  2  3  1  0  0  0  0
  2  4  1  0  0  0  0
  2  5  1  0  0  0  0
  5  6  2  0  0  0  0
  5  7  1  0  0  0  0
  7  8  1  0  0  0  0
  7  9  1  0  0  0  0
  9 10  1  0  0  0  0
  9 11  1  0  0  0  0
  9 29  1  0  0  0  0
 11 12  1  0  0  0  0
 11 13  1  0  0  0  0
 11 14  1  0  0  0  0
 14 15  2  0  0  0  0
 14 28  1  0  0  0  0
 15 16  1  0  0  0  0
 15 17  1  0  0  0  0
 17 18  1  0  0  0  0
 17 19  1  0  0  0  0
 19 20  1  0  0  0  0
 19 28  2  0  0  0  0
 20 21  1  0  0  0  0
 20 22  2  0  0  0  0
 22 23  1  0  0  0  0
 22 24  1  0  0  0  0
 24 25  1  0  0  0  0
 24 26  2  0  0  0  0
 26 27  1  0  0  0  0
 26 28  1  0  0  0  0
 29 30  2  0  0  0  0
 29 31  1  0  0  0  0
 31 32  1  0  0  0  0
 31 33  1  0  0  0  0
 33 34  1  0  0  0  0
 33 35  1  0  0  0  0
 33 36  1  0  0  0  0
M  END
$$$$

  -OEChem-03222214083D

 36 37  0     1  0  0  0  0  0999 V2000
   -3.3062   -4.6950    0.6268 H   0  0  0  0  0  0  0  0  0  0  0  0
   -3.2480   -3.8533   -0.0695 C   0  0  0  0  0  0  0  0  0  0  0  0
   -4.1861   -3.2952   -0.0251 H   0  0  0  0  0  0  0  0  0  0  0  0
   -3.1100   -4.2444   -1.0804 H   0  0  0  0  0  0  0  0  0  0  0  0
   -2.0871   -2.9496    0.3013 C   0  0  0  0  0  0  0  0  0  0  0  0
   -1.4164   -3.2016    1.2844 O   0  0  0  0  0  0  0  0  0  0  0  0
   -1.8007   -1.8483   -0.4821 N   0  0  0  0  0  0  0  0  0  0  0  0
   -2.3416   -1.7526   -1.3359 H   0  0  0  0  0  0  0  0  0  0  0  0
   -0.6156   -0.9791   -0.3086 C   0  0  1  0  0  0  0  0  0  0  0  0
    0.2881   -1.5966   -0.3610 H   0  0  0  0  0  0  0  0  0  0  0  0
   -0.5772    0.0006   -1.5122 C   0  0  0  0  0  0  0  0  0  0  0  0
   -0.0691   -0.5019   -2.3396 H   0  0  0  0  0  0  0  0  0  0  0  0
   -1.6043    0.1864   -1.8409 H   0  0  0  0  0  0  0  0  0  0  0  0
    0.0376    1.3702   -1.3035 C   0  0  0  0  0  0  0  0  0  0  0  0
   -0.3417    2.3639   -0.4275 C   0  0  0  0  0  0  0  0  0  0  0  0
   -1.1685    2.3158    0.2754 H   0  0  0  0  0  0  0  0  0  0  0  0
    0.5209    3.4423   -0.5974 N   0  0  0  0  0  0  0  0  0  0  0  0
    0.5103    4.2958   -0.0437 H   0  0  0  0  0  0  0  0  0  0  0  0
    1.4605    3.1573   -1.5711 C   0  0  0  0  0  0  0  0  0  0  0  0
    2.5210    3.9095   -2.0760 C   0  0  0  0  0  0  0  0  0  0  0  0
    2.7147    4.9058   -1.6948 H   0  0  0  0  0  0  0  0  0  0  0  0
    3.3319    3.3597   -3.0777 C   0  0  0  0  0  0  0  0  0  0  0  0
    4.1618    3.9334   -3.4792 H   0  0  0  0  0  0  0  0  0  0  0  0
    3.0748    2.0667   -3.5573 C   0  0  0  0  0  0  0  0  0  0  0  0
    3.7079    1.6398   -4.3291 H   0  0  0  0  0  0  0  0  0  0  0  0
    2.0070    1.3198   -3.0388 C   0  0  0  0  0  0  0  0  0  0  0  0
    1.8175    0.3179   -3.4073 H   0  0  0  0  0  0  0  0  0  0  0  0
    1.1966    1.8753   -2.0402 C   0  0  0  0  0  0  0  0  0  0  0  0
   -0.5801   -0.3183    1.0913 C   0  0  0  0  0  0  0  0  0  0  0  0
    0.4802   -0.1628    1.6823 O   0  0  0  0  0  0  0  0  0  0  0  0
   -1.7316    0.2425    1.6209 N   0  0  0  0  0  0  0  0  0  0  0  0
   -2.6001   -0.0498    1.1857 H   0  0  0  0  0  0  0  0  0  0  0  0
   -1.7819    0.7878    2.9717 C   0  0  0  0  0  0  0  0  0  0  0  0
   -1.0611    1.6048    3.0832 H   0  0  0  0  0  0  0  0  0  0  0  0
   -2.7812    1.1790    3.1848 H   0  0  0  0  0  0  0  0  0  0  0  0
   -1.5484    0.0099    3.7064 H   0  0  0  0  0  0  0  0  0  0  0  0
  1  2  1  0  0  0  0
  2  3  1  0  0  0  0
  2  4  1  0  0  0  0
  2  5  1  0  0  0  0
  5  6  2  0  0  0  0
  5  7  1  0  0  0  0
  7  8  1  0  0  0  0
  7  9  1  0  0  0  0
  9 10  1  0  0  0  0
  9 11  1  0  0  0  0
  9 29  1  0  0  0  0
 11 12  1  0  0  0  0
 11 13  1  0  0  0  0
 11 14  1  0  0  0  0
 14 15  2  0  0  0  0
 14 28  1  0  0  0  0
 15 16  1  0  0  0  0
 15 17  1  0  0  0  0
 17 18  1  0  0  0  0
 17 19  1  0  0  0  0
 19 20  1  0  0  0  0
 19 28  2  0  0  0  0
 20 21  1  0  0  0  0
 20 22  2  0  0  0  0
 22 23  1  0  0  0  0
 22 24  1  0  0  0  0
 24 25  1  0  0  0  0
 24 26  2  0  0  0  0
 26 27  1  0  0  0  0
 26 28  1  0  0  0  0
 29 30  2  0  0  0  0
 29 31  1  0  0  0  0
 31 32  1  0  0  0  0
 31 33  1  0  0  0  0
 33 34  1  0  0  0  0
 33 35  1  0  0  0  0
 33 36  1  0  0  0  0
M  END
$$$$

  -OEChem-03222214083D

 36 37  0     1  0  0  0  0  0999 V2000
   -3.3558   -4.6722    0.5213 H   0  0  0  0  0  0  0  0  0  0  0  0
   -3.2764   -3.8084   -0.1453 C   0  0  0  0  0  0  0  0  0  0  0  0
   -4.2016   -3.2307   -0.0835 H   0  0  0  0  0  0  0  0  0  0  0  0
   -3.1448   -4.1676   -1.1688 H   0  0  0  0  0  0  0  0  0  0  0  0
   -2.0960   -2.9448    0.2586 C   0  0  0  0  0  0  0  0  0  0  0  0
   -1.4345   -3.2451    1.2345 O   0  0  0  0  0  0  0  0  0  0  0  0
   -1.7816   -1.8235   -0.4850 N   0  0  0  0  0  0  0  0  0  0  0  0
   -2.3166   -1.6840   -1.3365 H   0  0  0  0  0  0  0  0  0  0  0  0
   -0.5911   -0.9724   -0.2632 C   0  0  1  0  0  0  0  0  0  0  0  0
    0.3077   -1.5972   -0.3118 H   0  0  0  0  0  0  0  0  0  0  0  0
   -0.5191    0.0357   -1.4435 C   0  0  0  0  0  0  0  0  0  0  0  0
    0.0148   -0.4693   -2.2528 H   0  0  0  0  0  0  0  0  0  0  0  0
   -1.5347    0.2239   -1.8050 H   0  0  0  0  0  0  0  0  0  0  0  0
    0.0975    1.4101   -1.2390 C   0  0  0  0  0  0  0  0  0  0  0  0
   -0.0655    2.3266   -0.2206 C   0  0  0  0  0  0  0  0  0  0  0  0
   -0.6859    2.2095    0.6625 H   0  0  0  0  0  0  0  0  0  0  0  0
    0.7079    3.4456   -0.5117 N   0  0  0  0  0  0  0  0  0  0  0  0
    0.8152    4.2572    0.0925 H   0  0  0  0  0  0  0  0  0  0  0  0
    1.3727    3.2724   -1.7101 C   0  0  0  0  0  0  0  0  0  0  0  0
    2.2532    4.1032   -2.4026 C   0  0  0  0  0  0  0  0  0  0  0  0
    2.5189    5.0742   -1.9999 H   0  0  0  0  0  0  0  0  0  0  0  0
    2.7884    3.6652   -3.6211 C   0  0  0  0  0  0  0  0  0  0  0  0
    3.4755    4.3011   -4.1717 H   0  0  0  0  0  0  0  0  0  0  0  0
    2.4385    2.4051   -4.1280 C   0  0  0  0  0  0  0  0  0  0  0  0
    2.8564    2.0670   -5.0714 H   0  0  0  0  0  0  0  0  0  0  0  0
    1.5541    1.5788   -3.4193 C   0  0  0  0  0  0  0  0  0  0  0  0
    1.2922    0.6044   -3.8162 H   0  0  0  0  0  0  0  0  0  0  0  0
    1.0201    2.0202   -2.2010 C   0  0  0  0  0  0  0  0  0  0  0  0
   -0.5904   -0.3619    1.1581 C   0  0  0  0  0  0  0  0  0  0  0  0
    0.4561   -0.2174    1.7761 O   0  0  0  0  0  0  0  0  0  0  0  0
   -1.7527    0.1880    1.6749 N   0  0  0  0  0  0  0  0  0  0  0  0
   -2.6093   -0.0709    1.1969 H   0  0  0  0  0  0  0  0  0  0  0  0
   -1.8432    0.6732    3.0467 C   0  0  0  0  0  0  0  0  0  0  0  0
   -1.1249    1.4820    3.2177 H   0  0  0  0  0  0  0  0  0  0  0  0
   -2.8477    1.0580    3.2461 H   0  0  0  0  0  0  0  0  0  0  0  0
   -1.6344   -0.1379    3.7526 H   0  0  0  0  0  0  0  0  0  0  0  0
  1  2  1  0  0  0  0
  2  3  1  0  0  0  0
  2  4  1  0  0  0  0
  2  5  1  0  0  0  0
  5  6  2  0  0  0  0
  5  7  1  0  0  0  0
  7  8  1  0  0  0  0
  7  9  1  0  0  0  0
  9 10  1  0  0  0  0
  9 11  1  0  0  0  0
  9 29  1  0  0  0  0
 11 12  1  0  0  0  0
 11 13  1  0  0  0  0
 11 14  1  0  0  0  0
 14 15  2  0  0  0  0
 14 28  1  0  0  0  0
 15 16  1  0  0  0  0
 15 17  1  0  0  0  0
 17 18  1  0  0  0  0
 17 19  1  0  0  0  0
 19 20  1  0  0  0  0
 19 28  2  0  0  0  0
 20 21  1  0  0  0  0
 20 22  2  0  0  0  0
 22 23  1  0  0  0  0
 22 24  1  0  0  0  0
 24 25  1  0  0  0  0
 24 26  2  0  0  0  0
 26 27  1  0  0  0  0
 26 28  1  0  0  0  0
 29 30  2  0  0  0  0
 29 31  1  0  0  0  0
 31 32  1  0  0  0  0
 31 33  1  0  0  0  0
 33 34  1  0  0  0  0
 33 35  1  0  0  0  0
 33 36  1  0  0  0  0
M  END
$$$$

  -OEChem-03222214083D

 36 37  0     1  0  0  0  0  0999 V2000
   -3.4451   -4.6158    0.4155 H   0  0  0  0  0  0  0  0  0  0  0  0
   -3.3264   -3.7411   -0.2307 C   0  0  0  0  0  0  0  0  0  0  0  0
   -4.2302   -3.1308   -0.1654 H   0  0  0  0  0  0  0  0  0  0  0  0
   -3.1967   -4.0820   -1.2608 H   0  0  0  0  0  0  0  0  0  0  0  0
   -2.1193   -2.9317    0.2054 C   0  0  0  0  0  0  0  0  0  0  0  0
   -1.4732   -3.2839    1.1742 O   0  0  0  0  0  0  0  0  0  0  0  0
   -1.7611   -1.8015   -0.5037 N   0  0  0  0  0  0  0  0  0  0  0  0
   -2.2915   -1.6114   -1.3482 H   0  0  0  0  0  0  0  0  0  0  0  0
   -0.5554   -0.9856   -0.2370 C   0  0  1  0  0  0  0  0  0  0  0  0
    0.3336   -1.6239   -0.2909 H   0  0  0  0  0  0  0  0  0  0  0  0
   -0.4630    0.0555   -1.3879 C   0  0  0  0  0  0  0  0  0  0  0  0
    0.0798   -0.4404   -2.1980 H   0  0  0  0  0  0  0  0  0  0  0  0
   -1.4727    0.2597   -1.7576 H   0  0  0  0  0  0  0  0  0  0  0  0
    0.1677    1.4243   -1.1746 C   0  0  0  0  0  0  0  0  0  0  0  0
    0.2632    2.2437   -0.0665 C   0  0  0  0  0  0  0  0  0  0  0  0
   -0.1015    2.0365    0.9351 H   0  0  0  0  0  0  0  0  0  0  0  0
    0.9233    3.4103   -0.4401 N   0  0  0  0  0  0  0  0  0  0  0  0
    1.1662    4.1722    0.1895 H   0  0  0  0  0  0  0  0  0  0  0  0
    1.2528    3.3698   -1.7806 C   0  0  0  0  0  0  0  0  0  0  0  0
    1.9081    4.2892   -2.5994 C   0  0  0  0  0  0  0  0  0  0  0  0
    2.2580    5.2311   -2.1921 H   0  0  0  0  0  0  0  0  0  0  0  0
    2.1063    3.9792   -3.9513 C   0  0  0  0  0  0  0  0  0  0  0  0
    2.6152    4.6851   -4.6009 H   0  0  0  0  0  0  0  0  0  0  0  0
    1.6480    2.7572   -4.4650 C   0  0  0  0  0  0  0  0  0  0  0  0
    1.8036    2.5181   -5.5126 H   0  0  0  0  0  0  0  0  0  0  0  0
    0.9928    1.8410   -3.6295 C   0  0  0  0  0  0  0  0  0  0  0  0
    0.6433    0.8963   -4.0307 H   0  0  0  0  0  0  0  0  0  0  0  0
    0.7982    2.1545   -2.2777 C   0  0  0  0  0  0  0  0  0  0  0  0
   -0.5751   -0.4116    1.1977 C   0  0  0  0  0  0  0  0  0  0  0  0
    0.4580   -0.3178    1.8481 O   0  0  0  0  0  0  0  0  0  0  0  0
   -1.7348    0.1539    1.7018 N   0  0  0  0  0  0  0  0  0  0  0  0
   -2.5843   -0.0402    1.1824 H   0  0  0  0  0  0  0  0  0  0  0  0
   -1.8504    0.6138    3.0799 C   0  0  0  0  0  0  0  0  0  0  0  0
   -1.1158    1.3988    3.2872 H   0  0  0  0  0  0  0  0  0  0  0  0
   -2.8495    1.0220    3.2592 H   0  0  0  0  0  0  0  0  0  0  0  0
   -1.6841   -0.2166    3.7744 H   0  0  0  0  0  0  0  0  0  0  0  0
  1  2  1  0  0  0  0
  2  3  1  0  0  0  0
  2  4  1  0  0  0  0
  2  5  1  0  0  0  0
  5  6  2  0  0  0  0
  5  7  1  0  0  0  0
  7  8  1  0  0  0  0
  7  9  1  0  0  0  0
  9 10  1  0  0  0  0
  9 11  1  0  0  0  0
  9 29  1  0  0  0  0
 11 12  1  0  0  0  0
 11 13  1  0  0  0  0
 11 14  1  0  0  0  0
 14 15  2  0  0  0  0
 14 28  1  0  0  0  0
 15 16  1  0  0  0  0
 15 17  1  0  0  0  0
 17 18  1  0  0  0  0
 17 19  1  0  0  0  0
 19 20  1  0  0  0  0
 19 28  2  0  0  0  0
 20 21  1  0  0  0  0
 20 22  2  0  0  0  0
 22 23  1  0  0  0  0
 22 24  1  0  0  0  0
 24 25  1  0  0  0  0
 24 26  2  0  0  0  0
 26 27  1  0  0  0  0
 26 28  1  0  0  0  0
 29 30  2  0  0  0  0
 29 31  1  0  0  0  0
 31 32  1  0  0  0  0
 31 33  1  0  0  0  0
 33 34  1  0  0  0  0
 33 35  1  0  0  0  0
 33 36  1  0  0  0  0
M  END
$$$$

  -OEChem-03222214083D

 36 37  0     1  0  0  0  0  0999 V2000
   -3.5446   -4.5462    0.3632 H   0  0  0  0  0  0  0  0  0  0  0  0
   -3.3920   -3.6707   -0.2746 C   0  0  0  0  0  0  0  0  0  0  0  0
   -4.2695   -3.0244   -0.1991 H   0  0  0  0  0  0  0  0  0  0  0  0
   -3.2804   -4.0056   -1.3088 H   0  0  0  0  0  0  0  0  0  0  0  0
   -2.1514   -2.9160    0.1650 C   0  0  0  0  0  0  0  0  0  0  0  0
   -1.5087   -3.3126    1.1188 O   0  0  0  0  0  0  0  0  0  0  0  0
   -1.7590   -1.7858   -0.5255 N   0  0  0  0  0  0  0  0  0  0  0  0
   -2.2897   -1.5590   -1.3606 H   0  0  0  0  0  0  0  0  0  0  0  0
   -0.5343   -1.0056   -0.2391 C   0  0  1  0  0  0  0  0  0  0  0  0
    0.3425   -1.6595   -0.3055 H   0  0  0  0  0  0  0  0  0  0  0  0
   -0.4320    0.0593   -1.3682 C   0  0  0  0  0  0  0  0  0  0  0  0
    0.0917   -0.4250   -2.1984 H   0  0  0  0  0  0  0  0  0  0  0  0
   -1.4440    0.2881   -1.7172 H   0  0  0  0  0  0  0  0  0  0  0  0
    0.2207    1.4167   -1.1490 C   0  0  0  0  0  0  0  0  0  0  0  0
    0.5883    2.1243   -0.0201 C   0  0  0  0  0  0  0  0  0  0  0  0
    0.4939    1.8113    1.0151 H   0  0  0  0  0  0  0  0  0  0  0  0
    1.1254    3.3433   -0.4242 N   0  0  0  0  0  0  0  0  0  0  0  0
    1.5068    4.0498    0.2014 H   0  0  0  0  0  0  0  0  0  0  0  0
    1.1050    3.4487   -1.8009 C   0  0  0  0  0  0  0  0  0  0  0  0
    1.5226    4.4649   -2.6601 C   0  0  0  0  0  0  0  0  0  0  0  0
    1.9561    5.3746   -2.2595 H   0  0  0  0  0  0  0  0  0  0  0  0
    1.3740    4.2935   -4.0431 C   0  0  0  0  0  0  0  0  0  0  0  0
    1.6953    5.0756   -4.7247 H   0  0  0  0  0  0  0  0  0  0  0  0
    0.8110    3.1117   -4.5473 C   0  0  0  0  0  0  0  0  0  0  0  0
    0.6984    2.9806   -5.6192 H   0  0  0  0  0  0  0  0  0  0  0  0
    0.3957    2.0980   -3.6717 C   0  0  0  0  0  0  0  0  0  0  0  0
   -0.0377    1.1846   -4.0641 H   0  0  0  0  0  0  0  0  0  0  0  0
    0.5486    2.2738   -2.2904 C   0  0  0  0  0  0  0  0  0  0  0  0
   -0.5501   -0.4520    1.2036 C   0  0  0  0  0  0  0  0  0  0  0  0
    0.4729   -0.4425    1.8775 O   0  0  0  0  0  0  0  0  0  0  0  0
   -1.6937    0.1387    1.7134 N   0  0  0  0  0  0  0  0  0  0  0  0
   -2.5402    0.0295    1.1655 H   0  0  0  0  0  0  0  0  0  0  0  0
   -1.8026    0.5991    3.0916 C   0  0  0  0  0  0  0  0  0  0  0  0
   -1.0687    1.3866    3.2923 H   0  0  0  0  0  0  0  0  0  0  0  0
   -2.8021    1.0038    3.2772 H   0  0  0  0  0  0  0  0  0  0  0  0
   -1.6294   -0.2300    3.7859 H   0  0  0  0  0  0  0  0  0  0  0  0
  1  2  1  0  0  0  0
  2  3  1  0  0  0  0
  2  4  1  0  0  0  0
  2  5  1  0  0  0  0
  5  6  2  0  0  0  0
  5  7  1  0  0  0  0
  7  8  1  0  0  0  0
  7  9  1  0  0  0  0
  9 10  1  0  0  0  0
  9 11  1  0  0  0  0
  9 29  1  0  0  0  0
 11 12  1  0  0  0  0
 11 13  1  0  0  0  0
 11 14  1  0  0  0  0
 14 15  2  0  0  0  0
 14 28  1  0  0  0  0
 15 16  1  0  0  0  0
 15 17  1  0  0  0  0
 17 18  1  0  0  0  0
 17 19  1  0  0  0  0
 19 20  1  0  0  0  0
 19 28  2  0  0  0  0
 20 21  1  0  0  0  0
 20 22  2  0  0  0  0
 22 23  1  0  0  0  0
 22 24  1  0  0  0  0
 24 25  1  0  0  0  0
 24 26  2  0  0  0  0
 26 27  1  0  0  0  0
 26 28  1  0  0  0  0
 29 30  2  0  0  0  0
 29 31  1  0  0  0  0
 31 32  1  0  0  0  0
 31 33  1  0  0  0  0
 33 34  1  0  0  0  0
 33 35  1  0  0  0  0
 33 36  1  0  0  0  0
M  END
$$$$

  -OEChem-03222214083D

 36 37  0     1  0  0  0  0  0999 V2000
   -3.6257   -4.4829    0.3908 H   0  0  0  0  0  0  0  0  0  0  0  0
   -3.4544   -3.6149   -0.2525 C   0  0  0  0  0  0  0  0  0  0  0  0
   -4.3124   -2.9432   -0.1726 H   0  0  0  0  0  0  0  0  0  0  0  0
   -3.3616   -3.9575   -1.2860 H   0  0  0  0  0  0  0  0  0  0  0  0
   -2.1886   -2.8940    0.1714 C   0  0  0  0  0  0  0  0  0  0  0  0
   -1.5429   -3.3104    1.1148 O   0  0  0  0  0  0  0  0  0  0  0  0
   -1.7707   -1.7803   -0.5307 N   0  0  0  0  0  0  0  0  0  0  0  0
   -2.3103   -1.5361   -1.3550 H   0  0  0  0  0  0  0  0  0  0  0  0
   -0.5235   -1.0304   -0.2601 C   0  0  1  0  0  0  0  0  0  0  0  0
    0.3401   -1.7001   -0.3392 H   0  0  0  0  0  0  0  0  0  0  0  0
   -0.4276    0.0367   -1.3869 C   0  0  0  0  0  0  0  0  0  0  0  0
    0.0576   -0.4443   -2.2421 H   0  0  0  0  0  0  0  0  0  0  0  0
   -1.4469    0.2894   -1.6962 H   0  0  0  0  0  0  0  0  0  0  0  0
    0.2553    1.3784   -1.1733 C   0  0  0  0  0  0  0  0  0  0  0  0
    0.8933    1.9581   -0.0939 C   0  0  0  0  0  0  0  0  0  0  0  0
    1.0730    1.5155    0.8810 H   0  0  0  0  0  0  0  0  0  0  0  0
    1.3056    3.2346   -0.4662 N   0  0  0  0  0  0  0  0  0  0  0  0
    1.8184    3.8795    0.1314 H   0  0  0  0  0  0  0  0  0  0  0  0
    0.9446    3.4990   -1.7731 C   0  0  0  0  0  0  0  0  0  0  0  0
    1.1322    4.6198   -2.5820 C   0  0  0  0  0  0  0  0  0  0  0  0
    1.6480    5.4919   -2.1958 H   0  0  0  0  0  0  0  0  0  0  0  0
    0.6463    4.6021   -3.8966 C   0  0  0  0  0  0  0  0  0  0  0  0
    0.7854    5.4674   -4.5377 H   0  0  0  0  0  0  0  0  0  0  0  0
   -0.0182    3.4668   -4.3844 C   0  0  0  0  0  0  0  0  0  0  0  0
   -0.3924    3.4561   -5.4036 H   0  0  0  0  0  0  0  0  0  0  0  0
   -0.1982    2.3460   -3.5610 C   0  0  0  0  0  0  0  0  0  0  0  0
   -0.7085    1.4671   -3.9394 H   0  0  0  0  0  0  0  0  0  0  0  0
    0.2888    2.3708   -2.2482 C   0  0  0  0  0  0  0  0  0  0  0  0
   -0.5175   -0.4659    1.1796 C   0  0  0  0  0  0  0  0  0  0  0  0
    0.4934   -0.5329    1.8688 O   0  0  0  0  0  0  0  0  0  0  0  0
   -1.6409    0.1587    1.6926 N   0  0  0  0  0  0  0  0  0  0  0  0
   -2.4825    0.1203    1.1279 H   0  0  0  0  0  0  0  0  0  0  0  0
   -1.7317    0.6336    3.0666 C   0  0  0  0  0  0  0  0  0  0  0  0
   -0.9741    1.4010    3.2567 H   0  0  0  0  0  0  0  0  0  0  0  0
   -2.7183    1.0691    3.2515 H   0  0  0  0  0  0  0  0  0  0  0  0
   -1.5807   -0.1938    3.7681 H   0  0  0  0  0  0  0  0  0  0  0  0
  1  2  1  0  0  0  0
  2  3  1  0  0  0  0
  2  4  1  0  0  0  0
  2  5  1  0  0  0  0
  5  6  2  0  0  0  0
  5  7  1  0  0  0  0
  7  8  1  0  0  0  0
  7  9  1  0  0  0  0
  9 10  1  0  0  0  0
  9 11  1  0  0  0  0
  9 29  1  0  0  0  0
 11 12  1  0  0  0  0
 11 13  1  0  0  0  0
 11 14  1  0  0  0  0
 14 15  2  0  0  0  0
 14 28  1  0  0  0  0
 15 16  1  0  0  0  0
 15 17  1  0  0  0  0
 17 18  1  0  0  0  0
 17 19  1  0  0  0  0
 19 20  1  0  0  0  0
 19 28  2  0  0  0  0
 20 21  1  0  0  0  0
 20 22  2  0  0  0  0
 22 23  1  0  0  0  0
 22 24  1  0  0  0  0
 24 25  1  0  0  0  0
 24 26  2  0  0  0  0
 26 27  1  0  0  0  0
 26 28  1  0  0  0  0
 29 30  2  0  0  0  0
 29 31  1  0  0  0  0
 31 32  1  0  0  0  0
 31 33  1  0  0  0  0
 33 34  1  0  0  0  0
 33 35  1  0  0  0  0
 33 36  1  0  0  0  0
M  END
$$$$

  -OEChem-03222214083D

 36 37  0     1  0  0  0  0  0999 V2000
   -3.6528   -4.4558    0.5330 H   0  0  0  0  0  0  0  0  0  0  0  0
   -3.4866   -3.6141   -0.1456 C   0  0  0  0  0  0  0  0  0  0  0  0
   -4.3276   -2.9222   -0.0583 H   0  0  0  0  0  0  0  0  0  0  0  0
   -3.4378   -3.9927   -1.1694 H   0  0  0  0  0  0  0  0  0  0  0  0
   -2.1919   -2.9073    0.2092 C   0  0  0  0  0  0  0  0  0  0  0  0
   -1.5125   -3.3183    1.1310 O   0  0  0  0  0  0  0  0  0  0  0  0
   -1.7837   -1.8159   -0.5327 N   0  0  0  0  0  0  0  0  0  0  0  0
   -2.3583   -1.5692   -1.3320 H   0  0  0  0  0  0  0  0  0  0  0  0
   -0.5294   -1.0637   -0.3058 C   0  0  1  0  0  0  0  0  0  0  0  0
    0.3326   -1.7350   -0.3868 H   0  0  0  0  0  0  0  0  0  0  0  0
   -0.4587   -0.0162   -1.4521 C   0  0  0  0  0  0  0  0  0  0  0  0
   -0.0058   -0.5004   -2.3229 H   0  0  0  0  0  0  0  0  0  0  0  0
   -1.4872    0.2402   -1.7257 H   0  0  0  0  0  0  0  0  0  0  0  0
    0.2383    1.3176   -1.2470 C   0  0  0  0  0  0  0  0  0  0  0  0
    1.1114    1.7585   -0.2733 C   0  0  0  0  0  0  0  0  0  0  0  0
    1.5137    1.1782    0.5525 H   0  0  0  0  0  0  0  0  0  0  0  0
    1.4234    3.0883   -0.5402 N   0  0  0  0  0  0  0  0  0  0  0  0
    2.0506    3.6639    0.0180 H   0  0  0  0  0  0  0  0  0  0  0  0
    0.7712    3.5187   -1.6799 C   0  0  0  0  0  0  0  0  0  0  0  0
    0.7694    4.7475   -2.3396 C   0  0  0  0  0  0  0  0  0  0  0  0
    1.3572    5.5739   -1.9560 H   0  0  0  0  0  0  0  0  0  0  0  0
    0.0006    4.8968   -3.5019 C   0  0  0  0  0  0  0  0  0  0  0  0
   -0.0096    5.8476   -4.0266 H   0  0  0  0  0  0  0  0  0  0  0  0
   -0.7522    3.8179   -3.9892 C   0  0  0  0  0  0  0  0  0  0  0  0
   -1.3436    3.9353   -4.8921 H   0  0  0  0  0  0  0  0  0  0  0  0
   -0.7413    2.5878   -3.3163 C   0  0  0  0  0  0  0  0  0  0  0  0
   -1.3198    1.7528   -3.6962 H   0  0  0  0  0  0  0  0  0  0  0  0
    0.0256    2.4461   -2.1534 C   0  0  0  0  0  0  0  0  0  0  0  0
   -0.4979   -0.4581    1.1192 C   0  0  0  0  0  0  0  0  0  0  0  0
    0.5166   -0.5316    1.8025 O   0  0  0  0  0  0  0  0  0  0  0  0
   -1.6088    0.1858    1.6355 N   0  0  0  0  0  0  0  0  0  0  0  0
   -2.4449    0.1983    1.0622 H   0  0  0  0  0  0  0  0  0  0  0  0
   -1.6552    0.7498    2.9777 C   0  0  0  0  0  0  0  0  0  0  0  0
   -0.8926    1.5274    3.0917 H   0  0  0  0  0  0  0  0  0  0  0  0
   -2.6355    1.1970    3.1670 H   0  0  0  0  0  0  0  0  0  0  0  0
   -1.4793   -0.0301    3.7262 H   0  0  0  0  0  0  0  0  0  0  0  0
  1  2  1  0  0  0  0
  2  3  1  0  0  0  0
  2  4  1  0  0  0  0
  2  5  1  0  0  0  0
  5  6  2  0  0  0  0
  5  7  1  0  0  0  0
  7  8  1  0  0  0  0
  7  9  1  0  0  0  0
  9 10  1  0  0  0  0
  9 11  1  0  0  0  0
  9 29  1  0  0  0  0
 11 12  1  0  0  0  0
 11 13  1  0  0  0  0
 11 14  1  0  0  0  0
 14 15  2  0  0  0  0
 14 28  1  0  0  0  0
 15 16  1  0  0  0  0
 15 17  1  0  0  0  0
 17 18  1  0  0  0  0
 17 19  1  0  0  0  0
 19 20  1  0  0  0  0
 19 28  2  0  0  0  0
 20 21  1  0  0  0  0
 20 22  2  0  0  0  0
 22 23  1  0  0  0  0
 22 24  1  0  0  0  0
 24 25  1  0  0  0  0
 24 26  2  0  0  0  0
 26 27  1  0  0  0  0
 26 28  1  0  0  0  0
 29 30  2  0  0  0  0
 29 31  1  0  0  0  0
 31 32  1  0  0  0  0
 31 33  1  0  0  0  0
 33 34  1  0  0  0  0
 33 35  1  0  0  0  0
 33 36  1  0  0  0  0
M  END
$$$$

  -OEChem-03222214083D

 36 37  0     1  0  0  0  0  0999 V2000
   -3.6018   -4.4669    0.7057 H   0  0  0  0  0  0  0  0  0  0  0  0
   -3.4656   -3.6509   -0.0100 C   0  0  0  0  0  0  0  0  0  0  0  0
   -4.2990   -2.9517    0.0923 H   0  0  0  0  0  0  0  0  0  0  0  0
   -3.4665   -4.0665   -1.0207 H   0  0  0  0  0  0  0  0  0  0  0  0
   -2.1537   -2.9377    0.2577 C   0  0  0  0  0  0  0  0  0  0  0  0
   -1.4295   -3.3207    1.1573 O   0  0  0  0  0  0  0  0  0  0  0  0
   -1.7817   -1.8699   -0.5355 N   0  0  0  0  0  0  0  0  0  0  0  0
   -2.3986   -1.6363   -1.3065 H   0  0  0  0  0  0  0  0  0  0  0  0
   -0.5395   -1.0866   -0.3589 C   0  0  1  0  0  0  0  0  0  0  0  0
    0.3323   -1.7461   -0.4296 H   0  0  0  0  0  0  0  0  0  0  0  0
   -0.5010   -0.0736   -1.5353 C   0  0  0  0  0  0  0  0  0  0  0  0
   -0.0507   -0.5635   -2.4041 H   0  0  0  0  0  0  0  0  0  0  0  0
   -1.5355    0.1636   -1.8004 H   0  0  0  0  0  0  0  0  0  0  0  0
    0.1885    1.2605   -1.3292 C   0  0  0  0  0  0  0  0  0  0  0  0
    1.2519    1.5776   -0.5117 C   0  0  0  0  0  0  0  0  0  0  0  0
    1.8035    0.8849    0.1213 H   0  0  0  0  0  0  0  0  0  0  0  0
    1.5007    2.9407   -0.6379 N   0  0  0  0  0  0  0  0  0  0  0  0
    2.2205    3.4516   -0.1311 H   0  0  0  0  0  0  0  0  0  0  0  0
    0.6145    3.5127   -1.5322 C   0  0  0  0  0  0  0  0  0  0  0  0
    0.4670    4.8263   -1.9770 C   0  0  0  0  0  0  0  0  0  0  0  0
    1.1227    5.6055   -1.6043 H   0  0  0  0  0  0  0  0  0  0  0  0
   -0.5368    5.1233   -2.9091 C   0  0  0  0  0  0  0  0  0  0  0  0
   -0.6635    6.1419   -3.2639 H   0  0  0  0  0  0  0  0  0  0  0  0
   -1.3759    4.1050   -3.3852 C   0  0  0  0  0  0  0  0  0  0  0  0
   -2.1501    4.3373   -4.1100 H   0  0  0  0  0  0  0  0  0  0  0  0
   -1.2179    2.7883   -2.9291 C   0  0  0  0  0  0  0  0  0  0  0  0
   -1.8654    2.0023   -3.3012 H   0  0  0  0  0  0  0  0  0  0  0  0
   -0.2174    2.4986   -1.9932 C   0  0  0  0  0  0  0  0  0  0  0  0
   -0.4920   -0.4209    1.0402 C   0  0  0  0  0  0  0  0  0  0  0  0
    0.5405   -0.4359    1.7003 O   0  0  0  0  0  0  0  0  0  0  0  0
   -1.6061    0.2241    1.5485 N   0  0  0  0  0  0  0  0  0  0  0  0
   -2.4397    0.2350    0.9720 H   0  0  0  0  0  0  0  0  0  0  0  0
   -1.6234    0.8984    2.8392 C   0  0  0  0  0  0  0  0  0  0  0  0
   -0.8932    1.7144    2.8540 H   0  0  0  0  0  0  0  0  0  0  0  0
   -2.6151    1.3177    3.0334 H   0  0  0  0  0  0  0  0  0  0  0  0
   -1.3826    0.1930    3.6416 H   0  0  0  0  0  0  0  0  0  0  0  0
  1  2  1  0  0  0  0
  2  3  1  0  0  0  0
  2  4  1  0  0  0  0
  2  5  1  0  0  0  0
  5  6  2  0  0  0  0
  5  7  1  0  0  0  0
  7  8  1  0  0  0  0
  7  9  1  0  0  0  0
  9 10  1  0  0  0  0
  9 11  1  0  0  0  0
  9 29  1  0  0  0  0
 11 12  1  0  0  0  0
 11 13  1  0  0  0  0
 11 14  1  0  0  0  0
 14 15  2  0  0  0  0
 14 28  1  0  0  0  0
 15 16  1  0  0  0  0
 15 17  1  0  0  0  0
 17 18  1  0  0  0  0
 17 19  1  0  0  0  0
 19 20  1  0  0  0  0
 19 28  2  0  0  0  0
 20 21  1  0  0  0  0
 20 22  2  0  0  0  0
 22 23  1  0  0  0  0
 22 24  1  0  0  0  0
 24 25  1  0  0  0  0
 24 26  2  0  0  0  0
 26 27  1  0  0  0  0
 26 28  1  0  0  0  0
 29 30  2  0  0  0  0
 29 31  1  0  0  0  0
 31 32  1  0  0  0  0
 31 33  1  0  0  0  0
 33 34  1  0  0  0  0
 33 35  1  0  0  0  0
 33 36  1  0  0  0  0
M  END
$$$$

  -OEChem-03222214083D

 36 37  0     1  0  0  0  0  0999 V2000
   -3.5098   -4.5320    0.7885 H   0  0  0  0  0  0  0  0  0  0  0  0
   -3.4147   -3.7246    0.0565 C   0  0  0  0  0  0  0  0  0  0  0  0
   -4.2697   -3.0528    0.1628 H   0  0  0  0  0  0  0  0  0  0  0  0
   -3.4206   -4.1577   -0.9468 H   0  0  0  0  0  0  0  0  0  0  0  0
   -2.1230   -2.9631    0.2868 C   0  0  0  0  0  0  0  0  0  0  0  0
   -1.3706   -3.3046    1.1800 O   0  0  0  0  0  0  0  0  0  0  0  0
   -1.8009   -1.8974   -0.5303 N   0  0  0  0  0  0  0  0  0  0  0  0
   -2.4401   -1.6935   -1.2916 H   0  0  0  0  0  0  0  0  0  0  0  0
   -0.5796   -1.0762   -0.3901 C   0  0  1  0  0  0  0  0  0  0  0  0
    0.3030   -1.7209   -0.4646 H   0  0  0  0  0  0  0  0  0  0  0  0
   -0.5675   -0.0904   -1.5869 C   0  0  0  0  0  0  0  0  0  0  0  0
   -0.0949   -0.5790   -2.4443 H   0  0  0  0  0  0  0  0  0  0  0  0
   -1.6035    0.1185   -1.8680 H   0  0  0  0  0  0  0  0  0  0  0  0
    0.1020    1.2473   -1.3629 C   0  0  0  0  0  0  0  0  0  0  0  0
    1.3120    1.4821   -0.7501 C   0  0  0  0  0  0  0  0  0  0  0  0
    1.9631    0.7226   -0.3189 H   0  0  0  0  0  0  0  0  0  0  0  0
    1.5337    2.8560   -0.7552 N   0  0  0  0  0  0  0  0  0  0  0  0
    2.3349    3.3189   -0.3312 H   0  0  0  0  0  0  0  0  0  0  0  0
    0.4819    3.5121   -1.3703 C   0  0  0  0  0  0  0  0  0  0  0  0
    0.2513    4.8666   -1.6092 C   0  0  0  0  0  0  0  0  0  0  0  0
    0.9743    5.6083   -1.2884 H   0  0  0  0  0  0  0  0  0  0  0  0
   -0.9234    5.2534   -2.2685 C   0  0  0  0  0  0  0  0  0  0  0  0
   -1.1151    6.3045   -2.4625 H   0  0  0  0  0  0  0  0  0  0  0  0
   -1.8499    4.2836   -2.6799 C   0  0  0  0  0  0  0  0  0  0  0  0
   -2.7576    4.5864   -3.1929 H   0  0  0  0  0  0  0  0  0  0  0  0
   -1.6074    2.9247   -2.4326 C   0  0  0  0  0  0  0  0  0  0  0  0
   -2.3242    2.1776   -2.7543 H   0  0  0  0  0  0  0  0  0  0  0  0
   -0.4335    2.5445   -1.7705 C   0  0  0  0  0  0  0  0  0  0  0  0
   -0.4975   -0.3765    0.9905 C   0  0  0  0  0  0  0  0  0  0  0  0
    0.5669   -0.3340    1.5974 O   0  0  0  0  0  0  0  0  0  0  0  0
   -1.6066    0.2557    1.5244 N   0  0  0  0  0  0  0  0  0  0  0  0
   -2.4624    0.2285    0.9824 H   0  0  0  0  0  0  0  0  0  0  0  0
   -1.5819    0.9881    2.7828 C   0  0  0  0  0  0  0  0  0  0  0  0
   -0.8573    1.8074    2.7331 H   0  0  0  0  0  0  0  0  0  0  0  0
   -2.5684    1.4112    2.9941 H   0  0  0  0  0  0  0  0  0  0  0  0
   -1.3069    0.3221    3.6072 H   0  0  0  0  0  0  0  0  0  0  0  0
  1  2  1  0  0  0  0
  2  3  1  0  0  0  0
  2  4  1  0  0  0  0
  2  5  1  0  0  0  0
  5  6  2  0  0  0  0
  5  7  1  0  0  0  0
  7  8  1  0  0  0  0
  7  9  1  0  0  0  0
  9 10  1  0  0  0  0
  9 11  1  0  0  0  0
  9 29  1  0  0  0  0
 11 12  1  0  0  0  0
 11 13  1  0  0  0  0
 11 14  1  0  0  0  0
 14 15  2  0  0  0  0
 14 28  1  0  0  0  0
 15 16  1  0  0  0  0
 15 17  1  0  0  0  0
 17 18  1  0  0  0  0
 17 19  1  0  0  0  0
 19 20  1  0  0  0  0
 19 28  2  0  0  0  0
 20 21  1  0  0  0  0
 20 22  2  0  0  0  0
 22 23  1  0  0  0  0
 22 24  1  0  0  0  0
 24 25  1  0  0  0  0
 24 26  2  0  0  0  0
 26 27  1  0  0  0  0
 26 28  1  0  0  0  0
 29 30  2  0  0  0  0
 29 31  1  0  0  0  0
 31 32  1  0  0  0  0
 31 33  1  0  0  0  0
 33 34  1  0  0  0  0
 33 35  1  0  0  0  0
 33 36  1  0  0  0  0
M  END
$$$$

  -OEChem-03222214083D

 36 37  0     1  0  0  0  0  0999 V2000
   -3.4637   -4.5743    0.8210 H   0  0  0  0  0  0  0  0  0  0  0  0
   -3.3865   -3.7749    0.0785 C   0  0  0  0  0  0  0  0  0  0  0  0
   -4.2572   -3.1217    0.1742 H   0  0  0  0  0  0  0  0  0  0  0  0
   -3.3804   -4.2216   -0.9186 H   0  0  0  0  0  0  0  0  0  0  0  0
   -2.1130   -2.9805    0.2994 C   0  0  0  0  0  0  0  0  0  0  0  0
   -1.3501   -3.2952    1.1937 O   0  0  0  0  0  0  0  0  0  0  0  0
   -1.8150   -1.9202   -0.5333 N   0  0  0  0  0  0  0  0  0  0  0  0
   -2.4602   -1.7393   -1.2952 H   0  0  0  0  0  0  0  0  0  0  0  0
   -0.6083   -1.0772   -0.4090 C   0  0  1  0  0  0  0  0  0  0  0  0
    0.2790   -1.7160   -0.4764 H   0  0  0  0  0  0  0  0  0  0  0  0
   -0.6017   -0.1149   -1.6222 C   0  0  0  0  0  0  0  0  0  0  0  0
   -0.1003   -0.6072   -2.4613 H   0  0  0  0  0  0  0  0  0  0  0  0
   -1.6320    0.0773   -1.9335 H   0  0  0  0  0  0  0  0  0  0  0  0
    0.0553    1.2216   -1.3774 C   0  0  0  0  0  0  0  0  0  0  0  0
    1.3631    1.4270   -1.0060 C   0  0  0  0  0  0  0  0  0  0  0  0
    2.0964    0.6457   -0.8143 H   0  0  0  0  0  0  0  0  0  0  0  0
    1.5562    2.7996   -0.8792 N   0  0  0  0  0  0  0  0  0  0  0  0
    2.4167    3.2406   -0.5614 H   0  0  0  0  0  0  0  0  0  0  0  0
    0.3850    3.4807   -1.1645 C   0  0  0  0  0  0  0  0  0  0  0  0
    0.0848    4.8426   -1.1655 C   0  0  0  0  0  0  0  0  0  0  0  0
    0.8482    5.5694   -0.9105 H   0  0  0  0  0  0  0  0  0  0  0  0
   -1.2116    5.2562   -1.5007 C   0  0  0  0  0  0  0  0  0  0  0  0
   -1.4581    6.3138   -1.5068 H   0  0  0  0  0  0  0  0  0  0  0  0
   -2.1896    4.3054   -1.8290 C   0  0  0  0  0  0  0  0  0  0  0  0
   -3.1924    4.6297   -2.0895 H   0  0  0  0  0  0  0  0  0  0  0  0
   -1.8766    2.9385   -1.8221 C   0  0  0  0  0  0  0  0  0  0  0  0
   -2.6340    2.2056   -2.0764 H   0  0  0  0  0  0  0  0  0  0  0  0
   -0.5799    2.5318   -1.4856 C   0  0  0  0  0  0  0  0  0  0  0  0
   -0.5052   -0.3460    0.9537 C   0  0  0  0  0  0  0  0  0  0  0  0
    0.5776   -0.2639    1.5230 O   0  0  0  0  0  0  0  0  0  0  0  0
   -1.6082    0.2886    1.4979 N   0  0  0  0  0  0  0  0  0  0  0  0
   -2.4636    0.2747    0.9550 H   0  0  0  0  0  0  0  0  0  0  0  0
   -1.5339    1.1296    2.6844 C   0  0  0  0  0  0  0  0  0  0  0  0
   -0.8806    1.9893    2.5014 H   0  0  0  0  0  0  0  0  0  0  0  0
   -2.5286    1.4994    2.9496 H   0  0  0  0  0  0  0  0  0  0  0  0
   -1.1399    0.5601    3.5329 H   0  0  0  0  0  0  0  0  0  0  0  0
  1  2  1  0  0  0  0
  2  3  1  0  0  0  0
  2  4  1  0  0  0  0
  2  5  1  0  0  0  0
  5  6  2  0  0  0  0
  5  7  1  0  0  0  0
  7  8  1  0  0  0  0
  7  9  1  0  0  0  0
  9 10  1  0  0  0  0
  9 11  1  0  0  0  0
  9 29  1  0  0  0  0
 11 12  1  0  0  0  0
 11 13  1  0  0  0  0
 11 14  1  0  0  0  0
 14 15  2  0  0  0  0
 14 28  1  0  0  0  0
 15 16  1  0  0  0  0
 15 17  1  0  0  0  0
 17 18  1  0  0  0  0
 17 19  1  0  0  0  0
 19 20  1  0  0  0  0
 19 28  2  0  0  0  0
 20 21  1  0  0  0  0
 20 22  2  0  0  0  0
 22 23  1  0  0  0  0
 22 24  1  0  0  0  0
 24 25  1  0  0  0  0
 24 26  2  0  0  0  0
 26 27  1  0  0  0  0
 26 28  1  0  0  0  0
 29 30  2  0  0  0  0
 29 31  1  0  0  0  0
 31 32  1  0  0  0  0
 31 33  1  0  0  0  0
 33 34  1  0  0  0  0
 33 35  1  0  0  0  0
 33 36  1  0  0  0  0
M  END
$$$$

  -OEChem-03222214083D

 36 37  0     1  0  0  0  0  0999 V2000
   -3.4421   -4.5800    0.8470 H   0  0  0  0  0  0  0  0  0  0  0  0
   -3.3749   -3.7844    0.0995 C   0  0  0  0  0  0  0  0  0  0  0  0
   -4.2520   -3.1398    0.1935 H   0  0  0  0  0  0  0  0  0  0  0  0
   -3.3661   -4.2376   -0.8946 H   0  0  0  0  0  0  0  0  0  0  0  0
   -2.1098   -2.9747    0.3124 C   0  0  0  0  0  0  0  0  0  0  0  0
   -1.3447   -3.2719    1.2107 O   0  0  0  0  0  0  0  0  0  0  0  0
   -1.8233   -1.9198   -0.5310 N   0  0  0  0  0  0  0  0  0  0  0  0
   -2.4680   -1.7560   -1.2973 H   0  0  0  0  0  0  0  0  0  0  0  0
   -0.6219   -1.0676   -0.4189 C   0  0  1  0  0  0  0  0  0  0  0  0
    0.2671   -1.7051   -0.4798 H   0  0  0  0  0  0  0  0  0  0  0  0
   -0.6156   -0.1238   -1.6460 C   0  0  0  0  0  0  0  0  0  0  0  0
   -0.0969   -0.6262   -2.4684 H   0  0  0  0  0  0  0  0  0  0  0  0
   -1.6403    0.0622   -1.9801 H   0  0  0  0  0  0  0  0  0  0  0  0
    0.0373    1.2119   -1.3974 C   0  0  0  0  0  0  0  0  0  0  0  0
    1.3877    1.4443   -1.2991 C   0  0  0  0  0  0  0  0  0  0  0  0
    2.1668    0.6889   -1.3756 H   0  0  0  0  0  0  0  0  0  0  0  0
    1.5634    2.8017   -1.0437 N   0  0  0  0  0  0  0  0  0  0  0  0
    2.4580    3.2505   -0.8596 H   0  0  0  0  0  0  0  0  0  0  0  0
    0.3379    3.4433   -0.9731 C   0  0  0  0  0  0  0  0  0  0  0  0
    0.0028    4.7745   -0.7266 C   0  0  0  0  0  0  0  0  0  0  0  0
    0.7807    5.5088   -0.5490 H   0  0  0  0  0  0  0  0  0  0  0  0
   -1.3484    5.1474   -0.7108 C   0  0  0  0  0  0  0  0  0  0  0  0
   -1.6223    6.1808   -0.5204 H   0  0  0  0  0  0  0  0  0  0  0  0
   -2.3455    4.1873   -0.9409 C   0  0  0  0  0  0  0  0  0  0  0  0
   -3.3907    4.4812   -0.9298 H   0  0  0  0  0  0  0  0  0  0  0  0
   -1.9963    2.8511   -1.1843 C   0  0  0  0  0  0  0  0  0  0  0  0
   -2.7665    2.1092   -1.3609 H   0  0  0  0  0  0  0  0  0  0  0  0
   -0.6453    2.4860   -1.1967 C   0  0  0  0  0  0  0  0  0  0  0  0
   -0.5075   -0.3187    0.9338 C   0  0  0  0  0  0  0  0  0  0  0  0
    0.5827   -0.2183    1.4851 O   0  0  0  0  0  0  0  0  0  0  0  0
   -1.6070    0.3188    1.4825 N   0  0  0  0  0  0  0  0  0  0  0  0
   -2.4664    0.2966    0.9468 H   0  0  0  0  0  0  0  0  0  0  0  0
   -1.5136    1.2050    2.6347 C   0  0  0  0  0  0  0  0  0  0  0  0
   -0.8856    2.0708    2.3984 H   0  0  0  0  0  0  0  0  0  0  0  0
   -2.5076    1.5631    2.9185 H   0  0  0  0  0  0  0  0  0  0  0  0
   -1.0805    0.6770    3.4909 H   0  0  0  0  0  0  0  0  0  0  0  0
  1  2  1  0  0  0  0
  2  3  1  0  0  0  0
  2  4  1  0  0  0  0
  2  5  1  0  0  0  0
  5  6  2  0  0  0  0
  5  7  1  0  0  0  0
  7  8  1  0  0  0  0
  7  9  1  0  0  0  0
  9 10  1  0  0  0  0
  9 11  1  0  0  0  0
  9 29  1  0  0  0  0
 11 12  1  0  0  0  0
 11 13  1  0  0  0  0
 11 14  1  0  0  0  0
 14 15  2  0  0  0  0
 14 28  1  0  0  0  0
 15 16  1  0  0  0  0
 15 17  1  0  0  0  0
 17 18  1  0  0  0  0
 17 19  1  0  0  0  0
 19 20  1  0  0  0  0
 19 28  2  0  0  0  0
 20 21  1  0  0  0  0
 20 22  2  0  0  0  0
 22 23  1  0  0  0  0
 22 24  1  0  0  0  0
 24 25  1  0  0  0  0
 24 26  2  0  0  0  0
 26 27  1  0  0  0  0
 26 28  1  0  0  0  0
 29 30  2  0  0  0  0
 29 31  1  0  0  0  0
 31 32  1  0  0  0  0
 31 33  1  0  0  0  0
 33 34  1  0  0  0  0
 33 35  1  0  0  0  0
 33 36  1  0  0  0  0
M  END
$$$$

  -OEChem-03222214083D

 36 37  0     1  0  0  0  0  0999 V2000
   -3.4361   -4.6182    0.7970 H   0  0  0  0  0  0  0  0  0  0  0  0
   -3.3769   -3.8039    0.0691 C   0  0  0  0  0  0  0  0  0  0  0  0
   -4.2583   -3.1685    0.1812 H   0  0  0  0  0  0  0  0  0  0  0  0
   -3.3676   -4.2317   -0.9361 H   0  0  0  0  0  0  0  0  0  0  0  0
   -2.1167   -2.9908    0.2985 C   0  0  0  0  0  0  0  0  0  0  0  0
   -1.3399   -3.3123    1.1781 O   0  0  0  0  0  0  0  0  0  0  0  0
   -1.8470   -1.9055   -0.5111 N   0  0  0  0  0  0  0  0  0  0  0  0
   -2.5006   -1.7221   -1.2651 H   0  0  0  0  0  0  0  0  0  0  0  0
   -0.6429   -1.0579   -0.3955 C   0  0  1  0  0  0  0  0  0  0  0  0
    0.2395   -1.7011   -0.4862 H   0  0  0  0  0  0  0  0  0  0  0  0
   -0.6367   -0.0920   -1.6048 C   0  0  0  0  0  0  0  0  0  0  0  0
   -0.1251   -0.5862   -2.4368 H   0  0  0  0  0  0  0  0  0  0  0  0
   -1.6619    0.1070   -1.9308 H   0  0  0  0  0  0  0  0  0  0  0  0
    0.0220    1.2376   -1.3426 C   0  0  0  0  0  0  0  0  0  0  0  0
    1.3510    1.5297   -1.5304 C   0  0  0  0  0  0  0  0  0  0  0  0
    2.1147    0.8249   -1.8516 H   0  0  0  0  0  0  0  0  0  0  0  0
    1.5359    2.8728   -1.2117 N   0  0  0  0  0  0  0  0  0  0  0  0
    2.4319    3.3549   -1.2018 H   0  0  0  0  0  0  0  0  0  0  0  0
    0.3343    3.4516   -0.8388 C   0  0  0  0  0  0  0  0  0  0  0  0
    0.0145    4.7503   -0.4431 C   0  0  0  0  0  0  0  0  0  0  0  0
    0.7875    5.5085   -0.3838 H   0  0  0  0  0  0  0  0  0  0  0  0
   -1.3156    5.0600   -0.1262 C   0  0  0  0  0  0  0  0  0  0  0  0
   -1.5781    6.0673    0.1832 H   0  0  0  0  0  0  0  0  0  0  0  0
   -2.3073    4.0707   -0.2108 C   0  0  0  0  0  0  0  0  0  0  0  0
   -3.3366    4.3149    0.0334 H   0  0  0  0  0  0  0  0  0  0  0  0
   -1.9729    2.7686   -0.6091 C   0  0  0  0  0  0  0  0  0  0  0  0
   -2.7367    2.0026   -0.6754 H   0  0  0  0  0  0  0  0  0  0  0  0
   -0.6421    2.4653   -0.9169 C   0  0  0  0  0  0  0  0  0  0  0  0
   -0.4929   -0.3571    0.9785 C   0  0  0  0  0  0  0  0  0  0  0  0
    0.6121   -0.2684    1.5008 O   0  0  0  0  0  0  0  0  0  0  0  0
   -1.5761    0.2613    1.5784 N   0  0  0  0  0  0  0  0  0  0  0  0
   -2.4630    0.2165    1.0920 H   0  0  0  0  0  0  0  0  0  0  0  0
   -1.4590    1.0842    2.7743 C   0  0  0  0  0  0  0  0  0  0  0  0
   -0.7795    1.9242    2.5944 H   0  0  0  0  0  0  0  0  0  0  0  0
   -2.4373    1.4846    3.0557 H   0  0  0  0  0  0  0  0  0  0  0  0
   -1.0740    0.4903    3.6098 H   0  0  0  0  0  0  0  0  0  0  0  0
  1  2  1  0  0  0  0
  2  3  1  0  0  0  0
  2  4  1  0  0  0  0
  2  5  1  0  0  0  0
  5  6  2  0  0  0  0
  5  7  1  0  0  0  0
  7  8  1  0  0  0  0
  7  9  1  0  0  0  0
  9 10  1  0  0  0  0
  9 11  1  0  0  0  0
  9 29  1  0  0  0  0
 11 12  1  0  0  0  0
 11 13  1  0  0  0  0
 11 14  1  0  0  0  0
 14 15  2  0  0  0  0
 14 28  1  0  0  0  0
 15 16  1  0  0  0  0
 15 17  1  0  0  0  0
 17 18  1  0  0  0  0
 17 19  1  0  0  0  0
 19 20  1  0  0  0  0
 19 28  2  0  0  0  0
 20 21  1  0  0  0  0
 20 22  2  0  0  0  0
 22 23  1  0  0  0  0
 22 24  1  0  0  0  0
 24 25  1  0  0  0  0
 24 26  2  0  0  0  0
 26 27  1  0  0  0  0
 26 28  1  0  0  0  0
 29 30  2  0  0  0  0
 29 31  1  0  0  0  0
 31 32  1  0  0  0  0
 31 33  1  0  0  0  0
 33 34  1  0  0  0  0
 33 35  1  0  0  0  0
 33 36  1  0  0  0  0
M  END
$$$$

  -OEChem-03222214083D

 36 37  0     1  0  0  0  0  0999 V2000
   -3.4379   -4.6644    0.7143 H   0  0  0  0  0  0  0  0  0  0  0  0
   -3.3889   -3.8207    0.0198 C   0  0  0  0  0  0  0  0  0  0  0  0
   -4.2704   -3.1928    0.1685 H   0  0  0  0  0  0  0  0  0  0  0  0
   -3.3914   -4.2066   -1.0024 H   0  0  0  0  0  0  0  0  0  0  0  0
   -2.1276   -3.0150    0.2679 C   0  0  0  0  0  0  0  0  0  0  0  0
   -1.3403   -3.3719    1.1241 O   0  0  0  0  0  0  0  0  0  0  0  0
   -1.8769   -1.8875   -0.4882 N   0  0  0  0  0  0  0  0  0  0  0  0
   -2.5379   -1.6771   -1.2288 H   0  0  0  0  0  0  0  0  0  0  0  0
   -0.6657   -1.0507   -0.3640 C   0  0  1  0  0  0  0  0  0  0  0  0
    0.2036   -1.7056   -0.4912 H   0  0  0  0  0  0  0  0  0  0  0  0
   -0.6406   -0.0545   -1.5498 C   0  0  0  0  0  0  0  0  0  0  0  0
   -0.1454   -0.5411   -2.3958 H   0  0  0  0  0  0  0  0  0  0  0  0
   -1.6655    0.1673   -1.8622 H   0  0  0  0  0  0  0  0  0  0  0  0
    0.0328    1.2668   -1.2740 C   0  0  0  0  0  0  0  0  0  0  0  0
    1.2795    1.6254   -1.7280 C   0  0  0  0  0  0  0  0  0  0  0  0
    1.9673    0.9755   -2.2641 H   0  0  0  0  0  0  0  0  0  0  0  0
    1.5032    2.9493   -1.3604 N   0  0  0  0  0  0  0  0  0  0  0  0
    2.3667    3.4653   -1.5145 H   0  0  0  0  0  0  0  0  0  0  0  0
    0.3872    3.4669   -0.7261 C   0  0  0  0  0  0  0  0  0  0  0  0
    0.1254    4.7364   -0.2115 C   0  0  0  0  0  0  0  0  0  0  0  0
    0.8847    5.5094   -0.2533 H   0  0  0  0  0  0  0  0  0  0  0  0
   -1.1307    4.9989    0.3519 C   0  0  0  0  0  0  0  0  0  0  0  0
   -1.3479    5.9829    0.7564 H   0  0  0  0  0  0  0  0  0  0  0  0
   -2.1092    3.9943    0.3852 C   0  0  0  0  0  0  0  0  0  0  0  0
   -3.0841    4.2024    0.8151 H   0  0  0  0  0  0  0  0  0  0  0  0
   -1.8308    2.7218   -0.1335 C   0  0  0  0  0  0  0  0  0  0  0  0
   -2.5874    1.9464   -0.1132 H   0  0  0  0  0  0  0  0  0  0  0  0
   -0.5671    2.4571   -0.6730 C   0  0  0  0  0  0  0  0  0  0  0  0
   -0.4710   -0.4280    1.0411 C   0  0  0  0  0  0  0  0  0  0  0  0
    0.6506   -0.3606    1.5293 O   0  0  0  0  0  0  0  0  0  0  0  0
   -1.5323    0.1569    1.7090 N   0  0  0  0  0  0  0  0  0  0  0  0
   -2.4536    0.0424    1.3046 H   0  0  0  0  0  0  0  0  0  0  0  0
   -1.3934    0.8279    2.9941 C   0  0  0  0  0  0  0  0  0  0  0  0
   -0.6899    1.6635    2.9135 H   0  0  0  0  0  0  0  0  0  0  0  0
   -2.3600    1.2215    3.3217 H   0  0  0  0  0  0  0  0  0  0  0  0
   -1.0269    0.1285    3.7530 H   0  0  0  0  0  0  0  0  0  0  0  0
  1  2  1  0  0  0  0
  2  3  1  0  0  0  0
  2  4  1  0  0  0  0
  2  5  1  0  0  0  0
  5  6  2  0  0  0  0
  5  7  1  0  0  0  0
  7  8  1  0  0  0  0
  7  9  1  0  0  0  0
  9 10  1  0  0  0  0
  9 11  1  0  0  0  0
  9 29  1  0  0  0  0
 11 12  1  0  0  0  0
 11 13  1  0  0  0  0
 11 14  1  0  0  0  0
 14 15  2  0  0  0  0
 14 28  1  0  0  0  0
 15 16  1  0  0  0  0
 15 17  1  0  0  0  0
 17 18  1  0  0  0  0
 17 19  1  0  0  0  0
 19 20  1  0  0  0  0
 19 28  2  0  0  0  0
 20 21  1  0  0  0  0
 20 22  2  0  0  0  0
 22 23  1  0  0  0  0
 22 24  1  0  0  0  0
 24 25  1  0  0  0  0
 24 26  2  0  0  0  0
 26 27  1  0  0  0  0
 26 28  1  0  0  0  0
 29 30  2  0  0  0  0
 29 31  1  0  0  0  0
 31 32  1  0  0  0  0
 31 33  1  0  0  0  0
 33 34  1  0  0  0  0
 33 35  1  0  0  0  0
 33 36  1  0  0  0  0
M  END
$$$$

  -OEChem-03222214083D

 36 37  0     1  0  0  0  0  0999 V2000
   -3.4989   -4.7093    0.5515 H   0  0  0  0  0  0  0  0  0  0  0  0
   -3.4478   -3.8220   -0.0864 C   0  0  0  0  0  0  0  0  0  0  0  0
   -4.3216   -3.1969    0.1121 H   0  0  0  0  0  0  0  0  0  0  0  0
   -3.4633   -4.1403   -1.1315 H   0  0  0  0  0  0  0  0  0  0  0  0
   -2.1756   -3.0467    0.2009 C   0  0  0  0  0  0  0  0  0  0  0  0
   -1.3814   -3.4711    1.0191 O   0  0  0  0  0  0  0  0  0  0  0  0
   -1.9231   -1.8683   -0.4734 N   0  0  0  0  0  0  0  0  0  0  0  0
   -2.5958   -1.5937   -1.1820 H   0  0  0  0  0  0  0  0  0  0  0  0
   -0.6932   -1.0633   -0.3196 C   0  0  1  0  0  0  0  0  0  0  0  0
    0.1486   -1.7447   -0.4886 H   0  0  0  0  0  0  0  0  0  0  0  0
   -0.6119   -0.0316   -1.4746 C   0  0  0  0  0  0  0  0  0  0  0  0
   -0.1321   -0.5144   -2.3319 H   0  0  0  0  0  0  0  0  0  0  0  0
   -1.6285    0.2299   -1.7834 H   0  0  0  0  0  0  0  0  0  0  0  0
    0.0921    1.2729   -1.1802 C   0  0  0  0  0  0  0  0  0  0  0  0
    1.2098    1.7005   -1.8590 C   0  0  0  0  0  0  0  0  0  0  0  0
    1.7797    1.1063   -2.5696 H   0  0  0  0  0  0  0  0  0  0  0  0
    1.4888    3.0040   -1.4626 N   0  0  0  0  0  0  0  0  0  0  0  0
    2.2897    3.5544   -1.7641 H   0  0  0  0  0  0  0  0  0  0  0  0
    0.4986    3.4654   -0.6158 C   0  0  0  0  0  0  0  0  0  0  0  0
    0.3126    4.7149   -0.0252 C   0  0  0  0  0  0  0  0  0  0  0  0
    1.0459    5.5009   -0.1668 H   0  0  0  0  0  0  0  0  0  0  0  0
   -0.8397    4.9435    0.7373 C   0  0  0  0  0  0  0  0  0  0  0  0
   -0.9995    5.9116    1.2028 H   0  0  0  0  0  0  0  0  0  0  0  0
   -1.7952    3.9278    0.8822 C   0  0  0  0  0  0  0  0  0  0  0  0
   -2.6970    4.1117    1.4579 H   0  0  0  0  0  0  0  0  0  0  0  0
   -1.5914    2.6766    0.2827 C   0  0  0  0  0  0  0  0  0  0  0  0
   -2.3434    1.9040    0.3779 H   0  0  0  0  0  0  0  0  0  0  0  0
   -0.4187    2.4333   -0.4421 C   0  0  0  0  0  0  0  0  0  0  0  0
   -0.4413   -0.5493    1.1193 C   0  0  0  0  0  0  0  0  0  0  0  0
    0.6984   -0.5260    1.5674 O   0  0  0  0  0  0  0  0  0  0  0  0
   -1.4661    0.0026    1.8668 N   0  0  0  0  0  0  0  0  0  0  0  0
   -2.4079   -0.1277    1.5175 H   0  0  0  0  0  0  0  0  0  0  0  0
   -1.2723    0.5385    3.2077 C   0  0  0  0  0  0  0  0  0  0  0  0
   -0.5317    1.3455    3.1926 H   0  0  0  0  0  0  0  0  0  0  0  0
   -2.2130    0.9425    3.5934 H   0  0  0  0  0  0  0  0  0  0  0  0
   -0.9253   -0.2469    3.8874 H   0  0  0  0  0  0  0  0  0  0  0  0
  1  2  1  0  0  0  0
  2  3  1  0  0  0  0
  2  4  1  0  0  0  0
  2  5  1  0  0  0  0
  5  6  2  0  0  0  0
  5  7  1  0  0  0  0
  7  8  1  0  0  0  0
  7  9  1  0  0  0  0
  9 10  1  0  0  0  0
  9 11  1  0  0  0  0
  9 29  1  0  0  0  0
 11 12  1  0  0  0  0
 11 13  1  0  0  0  0
 11 14  1  0  0  0  0
 14 15  2  0  0  0  0
 14 28  1  0  0  0  0
 15 16  1  0  0  0  0
 15 17  1  0  0  0  0
 17 18  1  0  0  0  0
 17 19  1  0  0  0  0
 19 20  1  0  0  0  0
 19 28  2  0  0  0  0
 20 21  1  0  0  0  0
 20 22  2  0  0  0  0
 22 23  1  0  0  0  0
 22 24  1  0  0  0  0
 24 25  1  0  0  0  0
 24 26  2  0  0  0  0
 26 27  1  0  0  0  0
 26 28  1  0  0  0  0
 29 30  2  0  0  0  0
 29 31  1  0  0  0  0
 31 32  1  0  0  0  0
 31 33  1  0  0  0  0
 33 34  1  0  0  0  0
 33 35  1  0  0  0  0
 33 36  1  0  0  0  0
M  END
$$$$

  -OEChem-03222214083D

 36 37  0     1  0  0  0  0  0999 V2000
   -3.6716   -4.6843    0.1449 H   0  0  0  0  0  0  0  0  0  0  0  0
   -3.5873   -3.7304   -0.3837 C   0  0  0  0  0  0  0  0  0  0  0  0
   -4.4441   -3.1059   -0.1198 H   0  0  0  0  0  0  0  0  0  0  0  0
   -3.6008   -3.9230   -1.4591 H   0  0  0  0  0  0  0  0  0  0  0  0
   -2.2962   -3.0337    0.0019 C   0  0  0  0  0  0  0  0  0  0  0  0
   -1.5341   -3.5629    0.7889 O   0  0  0  0  0  0  0  0  0  0  0  0
   -1.9926   -1.8042   -0.5478 N   0  0  0  0  0  0  0  0  0  0  0  0
   -2.6454   -1.4360   -1.2323 H   0  0  0  0  0  0  0  0  0  0  0  0
   -0.7337   -1.0676   -0.3118 C   0  0  1  0  0  0  0  0  0  0  0  0
    0.0673   -1.7884   -0.5121 H   0  0  0  0  0  0  0  0  0  0  0  0
   -0.5384    0.0053   -1.4170 C   0  0  0  0  0  0  0  0  0  0  0  0
   -0.0635   -0.4763   -2.2779 H   0  0  0  0  0  0  0  0  0  0  0  0
   -1.5310    0.3297   -1.7432 H   0  0  0  0  0  0  0  0  0  0  0  0
    0.2127    1.2768   -1.0822 C   0  0  0  0  0  0  0  0  0  0  0  0
    1.1816    1.7774   -1.9229 C   0  0  0  0  0  0  0  0  0  0  0  0
    1.5999    1.2517   -2.7781 H   0  0  0  0  0  0  0  0  0  0  0  0
    1.5598    3.0349   -1.4703 N   0  0  0  0  0  0  0  0  0  0  0  0
    2.2967    3.6117   -1.8701 H   0  0  0  0  0  0  0  0  0  0  0  0
    0.7365    3.4269   -0.4346 C   0  0  0  0  0  0  0  0  0  0  0  0
    0.6770    4.6329    0.2631 C   0  0  0  0  0  0  0  0  0  0  0  0
    1.4016    5.4153    0.0678 H   0  0  0  0  0  0  0  0  0  0  0  0
   -0.3445    4.8264    1.2000 C   0  0  0  0  0  0  0  0  0  0  0  0
   -0.4060    5.7584    1.7538 H   0  0  0  0  0  0  0  0  0  0  0  0
   -1.3071    3.8274    1.3957 C   0  0  0  0  0  0  0  0  0  0  0  0
   -2.1222    3.9907    2.0940 H   0  0  0  0  0  0  0  0  0  0  0  0
   -1.2284    2.6220    0.6837 C   0  0  0  0  0  0  0  0  0  0  0  0
   -2.0080    1.8836    0.8041 H   0  0  0  0  0  0  0  0  0  0  0  0
   -0.1652    2.3915   -0.1978 C   0  0  0  0  0  0  0  0  0  0  0  0
   -0.4603   -0.7075    1.1695 C   0  0  0  0  0  0  0  0  0  0  0  0
    0.6819   -0.7613    1.6081 O   0  0  0  0  0  0  0  0  0  0  0  0
   -1.4590   -0.1928    1.9765 N   0  0  0  0  0  0  0  0  0  0  0  0
   -2.4084   -0.2837    1.6339 H   0  0  0  0  0  0  0  0  0  0  0  0
   -1.2430    0.1696    3.3714 C   0  0  0  0  0  0  0  0  0  0  0  0
   -0.4638    0.9353    3.4506 H   0  0  0  0  0  0  0  0  0  0  0  0
   -2.1640    0.5702    3.8049 H   0  0  0  0  0  0  0  0  0  0  0  0
   -0.9373   -0.7071    3.9520 H   0  0  0  0  0  0  0  0  0  0  0  0
  1  2  1  0  0  0  0
  2  3  1  0  0  0  0
  2  4  1  0  0  0  0
  2  5  1  0  0  0  0
  5  6  2  0  0  0  0
  5  7  1  0  0  0  0
  7  8  1  0  0  0  0
  7  9  1  0  0  0  0
  9 10  1  0  0  0  0
  9 11  1  0  0  0  0
  9 29  1  0  0  0  0
 11 12  1  0  0  0  0
 11 13  1  0  0  0  0
 11 14  1  0  0  0  0
 14 15  2  0  0  0  0
 14 28  1  0  0  0  0
 15 16  1  0  0  0  0
 15 17  1  0  0  0  0
 17 18  1  0  0  0  0
 17 19  1  0  0  0  0
 19 20  1  0  0  0  0
 19 28  2  0  0  0  0
 20 21  1  0  0  0  0
 20 22  2  0  0  0  0
 22 23  1  0  0  0  0
 22 24  1  0  0  0  0
 24 25  1  0  0  0  0
 24 26  2  0  0  0  0
 26 27  1  0  0  0  0
 26 28  1  0  0  0  0
 29 30  2  0  0  0  0
 29 31  1  0  0  0  0
 31 32  1  0  0  0  0
 31 33  1  0  0  0  0
 33 34  1  0  0  0  0
 33 35  1  0  0  0  0
 33 36  1  0  0  0  0
M  END
$$$$

  -OEChem-03222214083D

 36 37  0     1  0  0  0  0  0999 V2000
   -3.5790   -4.7678    0.1420 H   0  0  0  0  0  0  0  0  0  0  0  0
   -3.4594   -3.8337   -0.4144 C   0  0  0  0  0  0  0  0  0  0  0  0
   -4.3316   -3.2019   -0.2308 H   0  0  0  0  0  0  0  0  0  0  0  0
   -3.4013   -4.0660   -1.4804 H   0  0  0  0  0  0  0  0  0  0  0  0
   -2.1970   -3.1201    0.0311 C   0  0  0  0  0  0  0  0  0  0  0  0
   -1.4883   -3.6239    0.8818 O   0  0  0  0  0  0  0  0  0  0  0  0
   -1.8564   -1.9107   -0.5444 N   0  0  0  0  0  0  0  0  0  0  0  0
   -2.4634   -1.5733   -1.2845 H   0  0  0  0  0  0  0  0  0  0  0  0
   -0.6490   -1.1190   -0.2097 C   0  0  1  0  0  0  0  0  0  0  0  0
    0.2335   -1.7600   -0.3138 H   0  0  0  0  0  0  0  0  0  0  0  0
   -0.5093   -0.0020   -1.2803 C   0  0  0  0  0  0  0  0  0  0  0  0
   -0.0198   -0.4717   -2.1399 H   0  0  0  0  0  0  0  0  0  0  0  0
   -1.5282    0.2431   -1.5962 H   0  0  0  0  0  0  0  0  0  0  0  0
    0.1237    1.3735   -1.0628 C   0  0  0  0  0  0  0  0  0  0  0  0
    0.7175    1.9139   -2.1860 C   0  0  0  0  0  0  0  0  0  0  0  0
    0.7934    1.4219   -3.1530 H   0  0  0  0  0  0  0  0  0  0  0  0
    1.1940    3.1784   -1.8923 N   0  0  0  0  0  0  0  0  0  0  0  0
    1.6932    3.7911   -2.5334 H   0  0  0  0  0  0  0  0  0  0  0  0
    0.9023    3.4885   -0.5842 C   0  0  0  0  0  0  0  0  0  0  0  0
    1.1976    4.6673    0.0994 C   0  0  0  0  0  0  0  0  0  0  0  0
    1.7228    5.4745   -0.3983 H   0  0  0  0  0  0  0  0  0  0  0  0
    0.8085    4.7920    1.4341 C   0  0  0  0  0  0  0  0  0  0  0  0
    1.0309    5.6989    1.9882 H   0  0  0  0  0  0  0  0  0  0  0  0
    0.1349    3.7360    2.0536 C   0  0  0  0  0  0  0  0  0  0  0  0
   -0.1641    3.8202    3.0940 H   0  0  0  0  0  0  0  0  0  0  0  0
   -0.1499    2.5611    1.3434 C   0  0  0  0  0  0  0  0  0  0  0  0
   -0.6587    1.7833    1.8780 H   0  0  0  0  0  0  0  0  0  0  0  0
    0.2293    2.4087   -0.0001 C   0  0  0  0  0  0  0  0  0  0  0  0
   -0.6878   -0.7422    1.2861 C   0  0  0  0  0  0  0  0  0  0  0  0
    0.3231   -0.7947    1.9737 O   0  0  0  0  0  0  0  0  0  0  0  0
   -1.8681   -0.2740    1.8444 N   0  0  0  0  0  0  0  0  0  0  0  0
   -2.6921   -0.3514    1.2589 H   0  0  0  0  0  0  0  0  0  0  0  0
   -2.0535   -0.1596    3.2870 C   0  0  0  0  0  0  0  0  0  0  0  0
   -1.2666    0.4566    3.7348 H   0  0  0  0  0  0  0  0  0  0  0  0
   -3.0187    0.3058    3.5077 H   0  0  0  0  0  0  0  0  0  0  0  0
   -2.0283   -1.1506    3.7524 H   0  0  0  0  0  0  0  0  0  0  0  0
  1  2  1  0  0  0  0
  2  3  1  0  0  0  0
  2  4  1  0  0  0  0
  2  5  1  0  0  0  0
  5  6  2  0  0  0  0
  5  7  1  0  0  0  0
  7  8  1  0  0  0  0
  7  9  1  0  0  0  0
  9 10  1  0  0  0  0
  9 11  1  0  0  0  0
  9 29  1  0  0  0  0
 11 12  1  0  0  0  0
 11 13  1  0  0  0  0
 11 14  1  0  0  0  0
 14 15  2  0  0  0  0
 14 28  1  0  0  0  0
 15 16  1  0  0  0  0
 15 17  1  0  0  0  0
 17 18  1  0  0  0  0
 17 19  1  0  0  0  0
 19 20  1  0  0  0  0
 19 28  2  0  0  0  0
 20 21  1  0  0  0  0
 20 22  2  0  0  0  0
 22 23  1  0  0  0  0
 22 24  1  0  0  0  0
 24 25  1  0  0  0  0
 24 26  2  0  0  0  0
 26 27  1  0  0  0  0
 26 28  1  0  0  0  0
 29 30  2  0  0  0  0
 29 31  1  0  0  0  0
 31 32  1  0  0  0  0
 31 33  1  0  0  0  0
 33 34  1  0  0  0  0
 33 35  1  0  0  0  0
 33 36  1  0  0  0  0
M  END
$$$$

  -OEChem-03222214083D

 36 37  0     1  0  0  0  0  0999 V2000
   -3.3509   -4.8719    0.6600 H   0  0  0  0  0  0  0  0  0  0  0  0
   -3.3792   -3.8835    0.1924 C   0  0  0  0  0  0  0  0  0  0  0  0
   -4.0736   -3.2514    0.7504 H   0  0  0  0  0  0  0  0  0  0  0  0
   -3.7358   -3.9911   -0.8345 H   0  0  0  0  0  0  0  0  0  0  0  0
   -1.9940   -3.2651    0.1984 C   0  0  0  0  0  0  0  0  0  0  0  0
   -1.0553   -3.8904    0.6555 O   0  0  0  0  0  0  0  0  0  0  0  0
   -1.8049   -2.0106   -0.3476 N   0  0  0  0  0  0  0  0  0  0  0  0
   -2.6432   -1.5244   -0.6453 H   0  0  0  0  0  0  0  0  0  0  0  0
   -0.5602   -1.2247   -0.1942 C   0  0  1  0  0  0  0  0  0  0  0  0
    0.2905   -1.8158   -0.5519 H   0  0  0  0  0  0  0  0  0  0  0  0
   -0.7124   -0.0063   -1.1448 C   0  0  0  0  0  0  0  0  0  0  0  0
   -0.4063   -0.3652   -2.1335 H   0  0  0  0  0  0  0  0  0  0  0  0
   -1.7846    0.2053   -1.2086 H   0  0  0  0  0  0  0  0  0  0  0  0
   -0.0944    1.3798   -0.9497 C   0  0  0  0  0  0  0  0  0  0  0  0
   -0.1167    2.1602   -2.0876 C   0  0  0  0  0  0  0  0  0  0  0  0
   -0.4996    1.8446   -3.0558 H   0  0  0  0  0  0  0  0  0  0  0  0
    0.4103    3.4051   -1.8003 N   0  0  0  0  0  0  0  0  0  0  0  0
    0.5277    4.1699   -2.4617 H   0  0  0  0  0  0  0  0  0  0  0  0
    0.7849    3.4529   -0.4776 C   0  0  0  0  0  0  0  0  0  0  0  0
    1.3580    4.5301    0.1968 C   0  0  0  0  0  0  0  0  0  0  0  0
    1.5511    5.4631   -0.3206 H   0  0  0  0  0  0  0  0  0  0  0  0
    1.6840    4.3884    1.5457 C   0  0  0  0  0  0  0  0  0  0  0  0
    2.1356    5.2120    2.0907 H   0  0  0  0  0  0  0  0  0  0  0  0
    1.4340    3.1726    2.1862 C   0  0  0  0  0  0  0  0  0  0  0  0
    1.6961    3.0488    3.2326 H   0  0  0  0  0  0  0  0  0  0  0  0
    0.8568    2.1033    1.4865 C   0  0  0  0  0  0  0  0  0  0  0  0
    0.7156    1.1981    2.0489 H   0  0  0  0  0  0  0  0  0  0  0  0
    0.5077    2.2193    0.1266 C   0  0  0  0  0  0  0  0  0  0  0  0
   -0.2762   -0.9440    1.2964 C   0  0  0  0  0  0  0  0  0  0  0  0
    0.8017   -1.2298    1.7944 O   0  0  0  0  0  0  0  0  0  0  0  0
   -1.2162   -0.5199    2.2157 N   0  0  0  0  0  0  0  0  0  0  0  0
   -0.8526   -0.4441    3.1624 H   0  0  0  0  0  0  0  0  0  0  0  0
   -2.4543    0.1698    1.8860 C   0  0  0  0  0  0  0  0  0  0  0  0
   -2.8856    0.6096    2.7905 H   0  0  0  0  0  0  0  0  0  0  0  0
   -2.2691    0.9780    1.1710 H   0  0  0  0  0  0  0  0  0  0  0  0
   -3.1860   -0.5240    1.4628 H   0  0  0  0  0  0  0  0  0  0  0  0
  1  2  1  0  0  0  0
  2  3  1  0  0  0  0
  2  4  1  0  0  0  0
  2  5  1  0  0  0  0
  5  6  2  0  0  0  0
  5  7  1  0  0  0  0
  7  8  1  0  0  0  0
  7  9  1  0  0  0  0
  9 10  1  0  0  0  0
  9 11  1  0  0  0  0
  9 29  1  0  0  0  0
 11 12  1  0  0  0  0
 11 13  1  0  0  0  0
 11 14  1  0  0  0  0
 14 15  2  0  0  0  0
 14 28  1  0  0  0  0
 15 16  1  0  0  0  0
 15 17  1  0  0  0  0
 17 18  1  0  0  0  0
 17 19  1  0  0  0  0
 19 20  1  0  0  0  0
 19 28  2  0  0  0  0
 20 21  1  0  0  0  0
 20 22  2  0  0  0  0
 22 23  1  0  0  0  0
 22 24  1  0  0  0  0
 24 25  1  0  0  0  0
 24 26  2  0  0  0  0
 26 27  1  0  0  0  0
 26 28  1  0  0  0  0
 29 30  2  0  0  0  0
 29 31  1  0  0  0  0
 31 32  1  0  0  0  0
 31 33  1  0  0  0  0
 33 34  1  0  0  0  0
 33 35  1  0  0  0  0
 33 36  1  0  0  0  0
M  END
$$$$

  -OEChem-03222214083D

 36 37  0     1  0  0  0  0  0999 V2000
   -3.6449   -4.5756    0.6431 H   0  0  0  0  0  0  0  0  0  0  0  0
   -3.4626   -3.7462   -0.0464 C   0  0  0  0  0  0  0  0  0  0  0  0
   -4.3310   -3.0836   -0.0343 H   0  0  0  0  0  0  0  0  0  0  0  0
   -3.3312   -4.1500   -1.0530 H   0  0  0  0  0  0  0  0  0  0  0  0
   -2.2205   -2.9838    0.3750 C   0  0  0  0  0  0  0  0  0  0  0  0
   -1.6087   -3.3360    1.3651 O   0  0  0  0  0  0  0  0  0  0  0  0
   -1.7760   -1.9249   -0.3944 N   0  0  0  0  0  0  0  0  0  0  0  0
   -2.2836   -1.7457   -1.2542 H   0  0  0  0  0  0  0  0  0  0  0  0
   -0.5995   -1.0814   -0.0786 C   0  0  1  0  0  0  0  0  0  0  0  0
    0.3273   -1.6639   -0.0441 H   0  0  0  0  0  0  0  0  0  0  0  0
   -0.5674   -0.0558   -1.2376 C   0  0  0  0  0  0  0  0  0  0  0  0
   -0.2548   -0.5973   -2.1363 H   0  0  0  0  0  0  0  0  0  0  0  0
   -1.5920    0.2915   -1.4079 H   0  0  0  0  0  0  0  0  0  0  0  0
    0.2806    1.1997   -1.1522 C   0  0  0  0  0  0  0  0  0  0  0  0
    0.2589    2.0821   -2.2107 C   0  0  0  0  0  0  0  0  0  0  0  0
   -0.4146    2.0216   -3.0626 H   0  0  0  0  0  0  0  0  0  0  0  0
    1.2042    3.0729   -1.9908 N   0  0  0  0  0  0  0  0  0  0  0  0
    1.3901    3.8645   -2.6032 H   0  0  0  0  0  0  0  0  0  0  0  0
    1.9507    2.7627   -0.8739 C   0  0  0  0  0  0  0  0  0  0  0  0
    3.0580    3.4222   -0.3409 C   0  0  0  0  0  0  0  0  0  0  0  0
    3.4017    4.3556   -0.7718 H   0  0  0  0  0  0  0  0  0  0  0  0
    3.7314    2.8502    0.7425 C   0  0  0  0  0  0  0  0  0  0  0  0
    4.5950    3.3467    1.1747 H   0  0  0  0  0  0  0  0  0  0  0  0
    3.3075    1.6150    1.2459 C   0  0  0  0  0  0  0  0  0  0  0  0
    3.8459    1.1465    2.0645 H   0  0  0  0  0  0  0  0  0  0  0  0
    2.1948    0.9672    0.6913 C   0  0  0  0  0  0  0  0  0  0  0  0
    1.9392   -0.0136    1.0658 H   0  0  0  0  0  0  0  0  0  0  0  0
    1.4627    1.5667   -0.3448 C   0  0  0  0  0  0  0  0  0  0  0  0
   -0.8285   -0.3928    1.2976 C   0  0  0  0  0  0  0  0  0  0  0  0
   -0.0363   -0.5237    2.2206 O   0  0  0  0  0  0  0  0  0  0  0  0
   -2.0535    0.1911    1.5805 N   0  0  0  0  0  0  0  0  0  0  0  0
   -2.7585    0.1543    0.8543 H   0  0  0  0  0  0  0  0  0  0  0  0
   -2.4321    0.6489    2.9115 C   0  0  0  0  0  0  0  0  0  0  0  0
   -1.7189    1.3956    3.2765 H   0  0  0  0  0  0  0  0  0  0  0  0
   -3.4260    1.1054    2.8870 H   0  0  0  0  0  0  0  0  0  0  0  0
   -2.4528   -0.1923    3.6126 H   0  0  0  0  0  0  0  0  0  0  0  0
  1  2  1  0  0  0  0
  2  3  1  0  0  0  0
  2  4  1  0  0  0  0
  2  5  1  0  0  0  0
  5  6  2  0  0  0  0
  5  7  1  0  0  0  0
  7  8  1  0  0  0  0
  7  9  1  0  0  0  0
  9 10  1  0  0  0  0
  9 11  1  0  0  0  0
  9 29  1  0  0  0  0
 11 12  1  0  0  0  0
 11 13  1  0  0  0  0
 11 14  1  0  0  0  0
 14 15  2  0  0  0  0
 14 28  1  0  0  0  0
 15 16  1  0  0  0  0
 15 17  1  0  0  0  0
 17 18  1  0  0  0  0
 17 19  1  0  0  0  0
 19 20  1  0  0  0  0
 19 28  2  0  0  0  0
 20 21  1  0  0  0  0
 20 22  2  0  0  0  0
 22 23  1  0  0  0  0
 22 24  1  0  0  0  0
 24 25  1  0  0  0  0
 24 26  2  0  0  0  0
 26 27  1  0  0  0  0
 26 28  1  0  0  0  0
 29 30  2  0  0  0  0
 29 31  1  0  0  0  0
 31 32  1  0  0  0  0
 31 33  1  0  0  0  0
 33 34  1  0  0  0  0
 33 35  1  0  0  0  0
 33 36  1  0  0  0  0
M  END
$$$$

  -OEChem-03222214083D

 36 37  0     1  0  0  0  0  0999 V2000
   -3.5423   -4.6348    0.6297 H   0  0  0  0  0  0  0  0  0  0  0  0
   -3.3776   -3.8166   -0.0772 C   0  0  0  0  0  0  0  0  0  0  0  0
   -4.2750   -3.1945   -0.1093 H   0  0  0  0  0  0  0  0  0  0  0  0
   -3.1988   -4.2412   -1.0678 H   0  0  0  0  0  0  0  0  0  0  0  0
   -2.1842   -2.9868    0.3573 C   0  0  0  0  0  0  0  0  0  0  0  0
   -1.5968   -3.2712    1.3833 O   0  0  0  0  0  0  0  0  0  0  0  0
   -1.7597   -1.9360   -0.4331 N   0  0  0  0  0  0  0  0  0  0  0  0
   -2.2336   -1.8187   -1.3224 H   0  0  0  0  0  0  0  0  0  0  0  0
   -0.5930   -1.0748   -0.1366 C   0  0  1  0  0  0  0  0  0  0  0  0
    0.3275   -1.6658   -0.0935 H   0  0  0  0  0  0  0  0  0  0  0  0
   -0.5362   -0.0731   -1.3123 C   0  0  0  0  0  0  0  0  0  0  0  0
   -0.1870   -0.6213   -2.1930 H   0  0  0  0  0  0  0  0  0  0  0  0
   -1.5537    0.2720   -1.5243 H   0  0  0  0  0  0  0  0  0  0  0  0
    0.3267    1.1644   -1.1775 C   0  0  0  0  0  0  0  0  0  0  0  0
    0.1702    2.2253   -2.0412 C   0  0  0  0  0  0  0  0  0  0  0  0
   -0.6245    2.3243   -2.7767 H   0  0  0  0  0  0  0  0  0  0  0  0
    1.1889    3.1396   -1.8101 N   0  0  0  0  0  0  0  0  0  0  0  0
    1.3131    4.0258   -2.2948 H   0  0  0  0  0  0  0  0  0  0  0  0
    2.0746    2.6306   -0.8810 C   0  0  0  0  0  0  0  0  0  0  0  0
    3.2716    3.1616   -0.4008 C   0  0  0  0  0  0  0  0  0  0  0  0
    3.6076    4.1400   -0.7253 H   0  0  0  0  0  0  0  0  0  0  0  0
    4.0390    2.4085    0.4948 C   0  0  0  0  0  0  0  0  0  0  0  0
    4.9719    2.8053    0.8838 H   0  0  0  0  0  0  0  0  0  0  0  0
    3.6075    1.1322    0.8774 C   0  0  0  0  0  0  0  0  0  0  0  0
    4.2049    0.5379    1.5621 H   0  0  0  0  0  0  0  0  0  0  0  0
    2.4029    0.6134    0.3828 C   0  0  0  0  0  0  0  0  0  0  0  0
    2.1044   -0.3841    0.6819 H   0  0  0  0  0  0  0  0  0  0  0  0
    1.6059    1.3802   -0.4802 C   0  0  0  0  0  0  0  0  0  0  0  0
   -0.7834   -0.3491    1.2241 C   0  0  0  0  0  0  0  0  0  0  0  0
    0.0812   -0.3763    2.0894 O   0  0  0  0  0  0  0  0  0  0  0  0
   -1.9987    0.2434    1.5265 N   0  0  0  0  0  0  0  0  0  0  0  0
   -2.7464    0.1222    0.8539 H   0  0  0  0  0  0  0  0  0  0  0  0
   -2.3107    0.7892    2.8411 C   0  0  0  0  0  0  0  0  0  0  0  0
   -1.5888    1.5662    3.1142 H   0  0  0  0  0  0  0  0  0  0  0  0
   -3.3104    1.2333    2.8393 H   0  0  0  0  0  0  0  0  0  0  0  0
   -2.2815   -0.0011    3.5986 H   0  0  0  0  0  0  0  0  0  0  0  0
  1  2  1  0  0  0  0
  2  3  1  0  0  0  0
  2  4  1  0  0  0  0
  2  5  1  0  0  0  0
  5  6  2  0  0  0  0
  5  7  1  0  0  0  0
  7  8  1  0  0  0  0
  7  9  1  0  0  0  0
  9 10  1  0  0  0  0
  9 11  1  0  0  0  0
  9 29  1  0  0  0  0
 11 12  1  0  0  0  0
 11 13  1  0  0  0  0
 11 14  1  0  0  0  0
 14 15  2  0  0  0  0
 14 28  1  0  0  0  0
 15 16  1  0  0  0  0
 15 17  1  0  0  0  0
 17 18  1  0  0  0  0
 17 19  1  0  0  0  0
 19 20  1  0  0  0  0
 19 28  2  0  0  0  0
 20 21  1  0  0  0  0
 20 22  2  0  0  0  0
 22 23  1  0  0  0  0
 22 24  1  0  0  0  0
 24 25  1  0  0  0  0
 24 26  2  0  0  0  0
 26 27  1  0  0  0  0
 26 28  1  0  0  0  0
 29 30  2  0  0  0  0
 29 31  1  0  0  0  0
 31 32  1  0  0  0  0
 31 33  1  0  0  0  0
 33 34  1  0  0  0  0
 33 35  1  0  0  0  0
 33 36  1  0  0  0  0
M  END
$$$$

  -OEChem-03222214083D

 36 37  0     1  0  0  0  0  0999 V2000
   -3.5098   -4.6405    0.6770 H   0  0  0  0  0  0  0  0  0  0  0  0
   -3.3772   -3.8213   -0.0357 C   0  0  0  0  0  0  0  0  0  0  0  0
   -4.2796   -3.2053   -0.0347 H   0  0  0  0  0  0  0  0  0  0  0  0
   -3.2326   -4.2446   -1.0326 H   0  0  0  0  0  0  0  0  0  0  0  0
   -2.1748   -2.9821    0.3544 C   0  0  0  0  0  0  0  0  0  0  0  0
   -1.5587   -3.2472    1.3690 O   0  0  0  0  0  0  0  0  0  0  0  0
   -1.7828   -1.9341   -0.4555 N   0  0  0  0  0  0  0  0  0  0  0  0
   -2.2794   -1.8316   -1.3344 H   0  0  0  0  0  0  0  0  0  0  0  0
   -0.5981   -1.0822   -0.2130 C   0  0  1  0  0  0  0  0  0  0  0  0
    0.3060   -1.6985   -0.2038 H   0  0  0  0  0  0  0  0  0  0  0  0
   -0.5471   -0.0993   -1.4029 C   0  0  0  0  0  0  0  0  0  0  0  0
   -0.2155   -0.6599   -2.2823 H   0  0  0  0  0  0  0  0  0  0  0  0
   -1.5602    0.2622   -1.6070 H   0  0  0  0  0  0  0  0  0  0  0  0
    0.3484    1.1129   -1.2682 C   0  0  0  0  0  0  0  0  0  0  0  0
    0.0661    2.3073   -1.8908 C   0  0  0  0  0  0  0  0  0  0  0  0
   -0.8401    2.5287   -2.4493 H   0  0  0  0  0  0  0  0  0  0  0  0
    1.1397    3.1670   -1.6933 N   0  0  0  0  0  0  0  0  0  0  0  0
    1.2022    4.1255   -2.0294 H   0  0  0  0  0  0  0  0  0  0  0  0
    2.1453    2.5188   -1.0005 C   0  0  0  0  0  0  0  0  0  0  0  0
    3.4104    2.9631   -0.6167 C   0  0  0  0  0  0  0  0  0  0  0  0
    3.7284    3.9743   -0.8436 H   0  0  0  0  0  0  0  0  0  0  0  0
    4.2638    2.0848    0.0617 C   0  0  0  0  0  0  0  0  0  0  0  0
    5.2500    2.4145    0.3736 H   0  0  0  0  0  0  0  0  0  0  0  0
    3.8427    0.7773    0.3389 C   0  0  0  0  0  0  0  0  0  0  0  0
    4.4996    0.0952    0.8698 H   0  0  0  0  0  0  0  0  0  0  0  0
    2.5691    0.3444   -0.0559 C   0  0  0  0  0  0  0  0  0  0  0  0
    2.2583   -0.6673    0.1768 H   0  0  0  0  0  0  0  0  0  0  0  0
    1.7068    1.2261   -0.7223 C   0  0  0  0  0  0  0  0  0  0  0  0
   -0.6802   -0.3402    1.1461 C   0  0  0  0  0  0  0  0  0  0  0  0
    0.2708   -0.3270    1.9163 O   0  0  0  0  0  0  0  0  0  0  0  0
   -1.8586    0.2796    1.5264 N   0  0  0  0  0  0  0  0  0  0  0  0
   -2.6670    0.1211    0.9367 H   0  0  0  0  0  0  0  0  0  0  0  0
   -2.0480    0.8753    2.8423 C   0  0  0  0  0  0  0  0  0  0  0  0
   -1.3185    1.6753    3.0078 H   0  0  0  0  0  0  0  0  0  0  0  0
   -3.0521    1.3015    2.9244 H   0  0  0  0  0  0  0  0  0  0  0  0
   -1.9261    0.1190    3.6250 H   0  0  0  0  0  0  0  0  0  0  0  0
  1  2  1  0  0  0  0
  2  3  1  0  0  0  0
  2  4  1  0  0  0  0
  2  5  1  0  0  0  0
  5  6  2  0  0  0  0
  5  7  1  0  0  0  0
  7  8  1  0  0  0  0
  7  9  1  0  0  0  0
  9 10  1  0  0  0  0
  9 11  1  0  0  0  0
  9 29  1  0  0  0  0
 11 12  1  0  0  0  0
 11 13  1  0  0  0  0
 11 14  1  0  0  0  0
 14 15  2  0  0  0  0
 14 28  1  0  0  0  0
 15 16  1  0  0  0  0
 15 17  1  0  0  0  0
 17 18  1  0  0  0  0
 17 19  1  0  0  0  0
 19 20  1  0  0  0  0
 19 28  2  0  0  0  0
 20 21  1  0  0  0  0
 20 22  2  0  0  0  0
 22 23  1  0  0  0  0
 22 24  1  0  0  0  0
 24 25  1  0  0  0  0
 24 26  2  0  0  0  0
 26 27  1  0  0  0  0
 26 28  1  0  0  0  0
 29 30  2  0  0  0  0
 29 31  1  0  0  0  0
 31 32  1  0  0  0  0
 31 33  1  0  0  0  0
 33 34  1  0  0  0  0
 33 35  1  0  0  0  0
 33 36  1  0  0  0  0
M  END
$$$$

  -OEChem-03222214083D

 36 37  0     1  0  0  0  0  0999 V2000
   -3.4328   -4.6509    0.7380 H   0  0  0  0  0  0  0  0  0  0  0  0
   -3.3329   -3.8410    0.0096 C   0  0  0  0  0  0  0  0  0  0  0  0
   -4.2469   -3.2426    0.0207 H   0  0  0  0  0  0  0  0  0  0  0  0
   -3.2013   -4.2775   -0.9833 H   0  0  0  0  0  0  0  0  0  0  0  0
   -2.1393   -2.9724    0.3594 C   0  0  0  0  0  0  0  0  0  0  0  0
   -1.4945   -3.2100    1.3630 O   0  0  0  0  0  0  0  0  0  0  0  0
   -1.7896   -1.9265   -0.4720 N   0  0  0  0  0  0  0  0  0  0  0  0
   -2.3065   -1.8482   -1.3417 H   0  0  0  0  0  0  0  0  0  0  0  0
   -0.5998   -1.0691   -0.2837 C   0  0  1  0  0  0  0  0  0  0  0  0
    0.2987   -1.6930   -0.3003 H   0  0  0  0  0  0  0  0  0  0  0  0
   -0.5740   -0.1041   -1.4885 C   0  0  0  0  0  0  0  0  0  0  0  0
   -0.2666   -0.6698   -2.3736 H   0  0  0  0  0  0  0  0  0  0  0  0
   -1.5885    0.2653   -1.6695 H   0  0  0  0  0  0  0  0  0  0  0  0
    0.3372    1.0940   -1.3583 C   0  0  0  0  0  0  0  0  0  0  0  0
   -0.0264    2.3765   -1.6977 C   0  0  0  0  0  0  0  0  0  0  0  0
   -1.0119    2.6854   -2.0371 H   0  0  0  0  0  0  0  0  0  0  0  0
    1.0879    3.1945   -1.5443 N   0  0  0  0  0  0  0  0  0  0  0  0
    1.1128    4.1985   -1.7073 H   0  0  0  0  0  0  0  0  0  0  0  0
    2.1771    2.4463   -1.1335 C   0  0  0  0  0  0  0  0  0  0  0  0
    3.4945    2.8204   -0.8681 C   0  0  0  0  0  0  0  0  0  0  0  0
    3.8012    3.8554   -0.9683 H   0  0  0  0  0  0  0  0  0  0  0  0
    4.4138    1.8421   -0.4681 C   0  0  0  0  0  0  0  0  0  0  0  0
    5.4417    2.1169   -0.2519 H   0  0  0  0  0  0  0  0  0  0  0  0
    4.0042    0.5073   -0.3400 C   0  0  0  0  0  0  0  0  0  0  0  0
    4.7139   -0.2496   -0.0203 H   0  0  0  0  0  0  0  0  0  0  0  0
    2.6769    0.1452   -0.6105 C   0  0  0  0  0  0  0  0  0  0  0  0
    2.3684   -0.8868   -0.4938 H   0  0  0  0  0  0  0  0  0  0  0  0
    1.7584    1.1249   -1.0085 C   0  0  0  0  0  0  0  0  0  0  0  0
   -0.6027   -0.3119    1.0677 C   0  0  0  0  0  0  0  0  0  0  0  0
    0.4090   -0.2536    1.7540 O   0  0  0  0  0  0  0  0  0  0  0  0
   -1.7551    0.3165    1.5087 N   0  0  0  0  0  0  0  0  0  0  0  0
   -2.6033    0.1240    0.9891 H   0  0  0  0  0  0  0  0  0  0  0  0
   -1.8563    0.9483    2.8174 C   0  0  0  0  0  0  0  0  0  0  0  0
   -1.1103    1.7438    2.9168 H   0  0  0  0  0  0  0  0  0  0  0  0
   -2.8490    1.3885    2.9494 H   0  0  0  0  0  0  0  0  0  0  0  0
   -1.6938    0.2113    3.6111 H   0  0  0  0  0  0  0  0  0  0  0  0
  1  2  1  0  0  0  0
  2  3  1  0  0  0  0
  2  4  1  0  0  0  0
  2  5  1  0  0  0  0
  5  6  2  0  0  0  0
  5  7  1  0  0  0  0
  7  8  1  0  0  0  0
  7  9  1  0  0  0  0
  9 10  1  0  0  0  0
  9 11  1  0  0  0  0
  9 29  1  0  0  0  0
 11 12  1  0  0  0  0
 11 13  1  0  0  0  0
 11 14  1  0  0  0  0
 14 15  2  0  0  0  0
 14 28  1  0  0  0  0
 15 16  1  0  0  0  0
 15 17  1  0  0  0  0
 17 18  1  0  0  0  0
 17 19  1  0  0  0  0
 19 20  1  0  0  0  0
 19 28  2  0  0  0  0
 20 21  1  0  0  0  0
 20 22  2  0  0  0  0
 22 23  1  0  0  0  0
 22 24  1  0  0  0  0
 24 25  1  0  0  0  0
 24 26  2  0  0  0  0
 26 27  1  0  0  0  0
 26 28  1  0  0  0  0
 29 30  2  0  0  0  0
 29 31  1  0  0  0  0
 31 32  1  0  0  0  0
 31 33  1  0  0  0  0
 33 34  1  0  0  0  0
 33 35  1  0  0  0  0
 33 36  1  0  0  0  0
M  END
$$$$

  -OEChem-03222214083D

 36 37  0     1  0  0  0  0  0999 V2000
   -3.3315   -4.6630    0.7885 H   0  0  0  0  0  0  0  0  0  0  0  0
   -3.2549   -3.8678    0.0413 C   0  0  0  0  0  0  0  0  0  0  0  0
   -4.1854   -3.2953    0.0410 H   0  0  0  0  0  0  0  0  0  0  0  0
   -3.1130   -4.3235   -0.9416 H   0  0  0  0  0  0  0  0  0  0  0  0
   -2.0854   -2.9582    0.3676 C   0  0  0  0  0  0  0  0  0  0  0  0
   -1.4284   -3.1584    1.3714 O   0  0  0  0  0  0  0  0  0  0  0  0
   -1.7716   -1.9170   -0.4839 N   0  0  0  0  0  0  0  0  0  0  0  0
   -2.2908   -1.8762   -1.3549 H   0  0  0  0  0  0  0  0  0  0  0  0
   -0.5883   -1.0432   -0.3349 C   0  0  1  0  0  0  0  0  0  0  0  0
    0.3210   -1.6519   -0.3671 H   0  0  0  0  0  0  0  0  0  0  0  0
   -0.6017   -0.0868   -1.5463 C   0  0  0  0  0  0  0  0  0  0  0  0
   -0.3157   -0.6452   -2.4430 H   0  0  0  0  0  0  0  0  0  0  0  0
   -1.6207    0.2825   -1.6986 H   0  0  0  0  0  0  0  0  0  0  0  0
    0.3099    1.1065   -1.4097 C   0  0  0  0  0  0  0  0  0  0  0  0
   -0.0824    2.4242   -1.4349 C   0  0  0  0  0  0  0  0  0  0  0  0
   -1.1067    2.7795   -1.5170 H   0  0  0  0  0  0  0  0  0  0  0  0
    1.0627    3.2101   -1.3379 N   0  0  0  0  0  0  0  0  0  0  0  0
    1.0807    4.2266   -1.2999 H   0  0  0  0  0  0  0  0  0  0  0  0
    2.1905    2.4097   -1.2635 C   0  0  0  0  0  0  0  0  0  0  0  0
    3.5446    2.7292   -1.1628 C   0  0  0  0  0  0  0  0  0  0  0  0
    3.8608    3.7653   -1.1249 H   0  0  0  0  0  0  0  0  0  0  0  0
    4.4879    1.6940   -1.1084 C   0  0  0  0  0  0  0  0  0  0  0  0
    5.5453    1.9264   -1.0257 H   0  0  0  0  0  0  0  0  0  0  0  0
    4.0666    0.3566   -1.1543 C   0  0  0  0  0  0  0  0  0  0  0  0
    4.7978   -0.4444   -1.1044 H   0  0  0  0  0  0  0  0  0  0  0  0
    2.7022    0.0484   -1.2543 C   0  0  0  0  0  0  0  0  0  0  0  0
    2.3775   -0.9855   -1.2801 H   0  0  0  0  0  0  0  0  0  0  0  0
    1.7655    1.0864   -1.3089 C   0  0  0  0  0  0  0  0  0  0  0  0
   -0.5626   -0.2704    1.0078 C   0  0  0  0  0  0  0  0  0  0  0  0
    0.4755   -0.1640    1.6477 O   0  0  0  0  0  0  0  0  0  0  0  0
   -1.7100    0.3499    1.4738 N   0  0  0  0  0  0  0  0  0  0  0  0
   -2.5745    0.1076    1.0037 H   0  0  0  0  0  0  0  0  0  0  0  0
   -1.7749    1.0019    2.7752 C   0  0  0  0  0  0  0  0  0  0  0  0
   -1.0290    1.8011    2.8404 H   0  0  0  0  0  0  0  0  0  0  0  0
   -2.7646    1.4416    2.9298 H   0  0  0  0  0  0  0  0  0  0  0  0
   -1.5861    0.2776    3.5747 H   0  0  0  0  0  0  0  0  0  0  0  0
  1  2  1  0  0  0  0
  2  3  1  0  0  0  0
  2  4  1  0  0  0  0
  2  5  1  0  0  0  0
  5  6  2  0  0  0  0
  5  7  1  0  0  0  0
  7  8  1  0  0  0  0
  7  9  1  0  0  0  0
  9 10  1  0  0  0  0
  9 11  1  0  0  0  0
  9 29  1  0  0  0  0
 11 12  1  0  0  0  0
 11 13  1  0  0  0  0
 11 14  1  0  0  0  0
 14 15  2  0  0  0  0
 14 28  1  0  0  0  0
 15 16  1  0  0  0  0
 15 17  1  0  0  0  0
 17 18  1  0  0  0  0
 17 19  1  0  0  0  0
 19 20  1  0  0  0  0
 19 28  2  0  0  0  0
 20 21  1  0  0  0  0
 20 22  2  0  0  0  0
 22 23  1  0  0  0  0
 22 24  1  0  0  0  0
 24 25  1  0  0  0  0
 24 26  2  0  0  0  0
 26 27  1  0  0  0  0
 26 28  1  0  0  0  0
 29 30  2  0  0  0  0
 29 31  1  0  0  0  0
 31 32  1  0  0  0  0
 31 33  1  0  0  0  0
 33 34  1  0  0  0  0
 33 35  1  0  0  0  0
 33 36  1  0  0  0  0
M  END
$$$$

  -OEChem-03222214083D

 36 37  0     1  0  0  0  0  0999 V2000
   -3.2723   -4.6681    0.7985 H   0  0  0  0  0  0  0  0  0  0  0  0
   -3.2236   -3.8653    0.0569 C   0  0  0  0  0  0  0  0  0  0  0  0
   -4.1592   -3.3017    0.0869 H   0  0  0  0  0  0  0  0  0  0  0  0
   -3.1041   -4.3105   -0.9338 H   0  0  0  0  0  0  0  0  0  0  0  0
   -2.0543   -2.9476    0.3600 C   0  0  0  0  0  0  0  0  0  0  0  0
   -1.3838   -3.1355    1.3572 O   0  0  0  0  0  0  0  0  0  0  0  0
   -1.7635   -1.9057   -0.4987 N   0  0  0  0  0  0  0  0  0  0  0  0
   -2.2982   -1.8717   -1.3608 H   0  0  0  0  0  0  0  0  0  0  0  0
   -0.5811   -1.0262   -0.3769 C   0  0  1  0  0  0  0  0  0  0  0  0
    0.3331   -1.6272   -0.4288 H   0  0  0  0  0  0  0  0  0  0  0  0
   -0.6215   -0.0701   -1.5875 C   0  0  0  0  0  0  0  0  0  0  0  0
   -0.3647   -0.6210   -2.4975 H   0  0  0  0  0  0  0  0  0  0  0  0
   -1.6425    0.3065   -1.7070 H   0  0  0  0  0  0  0  0  0  0  0  0
    0.2934    1.1191   -1.4545 C   0  0  0  0  0  0  0  0  0  0  0  0
   -0.0817    2.4120   -1.1758 C   0  0  0  0  0  0  0  0  0  0  0  0
   -1.0981    2.7507   -0.9908 H   0  0  0  0  0  0  0  0  0  0  0  0
    1.0714    3.1929   -1.1642 N   0  0  0  0  0  0  0  0  0  0  0  0
    1.1097    4.1854   -0.9439 H   0  0  0  0  0  0  0  0  0  0  0  0
    2.1851    2.4111   -1.4262 C   0  0  0  0  0  0  0  0  0  0  0  0
    3.5415    2.7267   -1.5079 C   0  0  0  0  0  0  0  0  0  0  0  0
    3.8758    3.7460   -1.3512 H   0  0  0  0  0  0  0  0  0  0  0  0
    4.4640    1.7089   -1.7886 C   0  0  0  0  0  0  0  0  0  0  0  0
    5.5233    1.9392   -1.8511 H   0  0  0  0  0  0  0  0  0  0  0  0
    4.0208    0.3913   -1.9808 C   0  0  0  0  0  0  0  0  0  0  0  0
    4.7381   -0.3966   -2.1900 H   0  0  0  0  0  0  0  0  0  0  0  0
    2.6549    0.0857   -1.8935 C   0  0  0  0  0  0  0  0  0  0  0  0
    2.3109   -0.9337   -2.0299 H   0  0  0  0  0  0  0  0  0  0  0  0
    1.7411    1.1077   -1.6165 C   0  0  0  0  0  0  0  0  0  0  0  0
   -0.5344   -0.2548    0.9662 C   0  0  0  0  0  0  0  0  0  0  0  0
    0.5183   -0.1181    1.5754 O   0  0  0  0  0  0  0  0  0  0  0  0
   -1.6795    0.3554    1.4508 N   0  0  0  0  0  0  0  0  0  0  0  0
   -2.5497    0.0760    1.0125 H   0  0  0  0  0  0  0  0  0  0  0  0
   -1.7292    0.9972    2.7579 C   0  0  0  0  0  0  0  0  0  0  0  0
   -0.9945    1.8074    2.8151 H   0  0  0  0  0  0  0  0  0  0  0  0
   -2.7226    1.4203    2.9344 H   0  0  0  0  0  0  0  0  0  0  0  0
   -1.5142    0.2702    3.5483 H   0  0  0  0  0  0  0  0  0  0  0  0
  1  2  1  0  0  0  0
  2  3  1  0  0  0  0
  2  4  1  0  0  0  0
  2  5  1  0  0  0  0
  5  6  2  0  0  0  0
  5  7  1  0  0  0  0
  7  8  1  0  0  0  0
  7  9  1  0  0  0  0
  9 10  1  0  0  0  0
  9 11  1  0  0  0  0
  9 29  1  0  0  0  0
 11 12  1  0  0  0  0
 11 13  1  0  0  0  0
 11 14  1  0  0  0  0
 14 15  2  0  0  0  0
 14 28  1  0  0  0  0
 15 16  1  0  0  0  0
 15 17  1  0  0  0  0
 17 18  1  0  0  0  0
 17 19  1  0  0  0  0
 19 20  1  0  0  0  0
 19 28  2  0  0  0  0
 20 21  1  0  0  0  0
 20 22  2  0  0  0  0
 22 23  1  0  0  0  0
 22 24  1  0  0  0  0
 24 25  1  0  0  0  0
 24 26  2  0  0  0  0
 26 27  1  0  0  0  0
 26 28  1  0  0  0  0
 29 30  2  0  0  0  0
 29 31  1  0  0  0  0
 31 32  1  0  0  0  0
 31 33  1  0  0  0  0
 33 34  1  0  0  0  0
 33 35  1  0  0  0  0
 33 36  1  0  0  0  0
M  END
$$$$

  -OEChem-03222214083D

 36 37  0     1  0  0  0  0  0999 V2000
   -3.2795   -4.6665    0.7773 H   0  0  0  0  0  0  0  0  0  0  0  0
   -3.2269   -3.8619    0.0381 C   0  0  0  0  0  0  0  0  0  0  0  0
   -4.1647   -3.3018    0.0613 H   0  0  0  0  0  0  0  0  0  0  0  0
   -3.0974   -4.3051   -0.9521 H   0  0  0  0  0  0  0  0  0  0  0  0
   -2.0631   -2.9404    0.3523 C   0  0  0  0  0  0  0  0  0  0  0  0
   -1.4000   -3.1273    1.3547 O   0  0  0  0  0  0  0  0  0  0  0  0
   -1.7693   -1.8955   -0.5020 N   0  0  0  0  0  0  0  0  0  0  0  0
   -2.2951   -1.8647   -1.3698 H   0  0  0  0  0  0  0  0  0  0  0  0
   -0.5829   -1.0215   -0.3774 C   0  0  1  0  0  0  0  0  0  0  0  0
    0.3296   -1.6253   -0.4314 H   0  0  0  0  0  0  0  0  0  0  0  0
   -0.6178   -0.0631   -1.5872 C   0  0  0  0  0  0  0  0  0  0  0  0
   -0.3751   -0.6143   -2.5007 H   0  0  0  0  0  0  0  0  0  0  0  0
   -1.6364    0.3219   -1.6991 H   0  0  0  0  0  0  0  0  0  0  0  0
    0.3004    1.1251   -1.4600 C   0  0  0  0  0  0  0  0  0  0  0  0
   -0.0065    2.3492   -0.9133 C   0  0  0  0  0  0  0  0  0  0  0  0
   -0.9623    2.6252   -0.4740 H   0  0  0  0  0  0  0  0  0  0  0  0
    1.1287    3.1502   -1.0066 N   0  0  0  0  0  0  0  0  0  0  0  0
    1.2169    4.0914   -0.6305 H   0  0  0  0  0  0  0  0  0  0  0  0
    2.1653    2.4498   -1.6016 C   0  0  0  0  0  0  0  0  0  0  0  0
    3.4797    2.8116   -1.8967 C   0  0  0  0  0  0  0  0  0  0  0  0
    3.8405    3.8041   -1.6514 H   0  0  0  0  0  0  0  0  0  0  0  0
    4.3252    1.8752   -2.5083 C   0  0  0  0  0  0  0  0  0  0  0  0
    5.3516    2.1427   -2.7406 H   0  0  0  0  0  0  0  0  0  0  0  0
    3.8484    0.5912   -2.8142 C   0  0  0  0  0  0  0  0  0  0  0  0
    4.5073   -0.1333   -3.2828 H   0  0  0  0  0  0  0  0  0  0  0  0
    2.5258    0.2378   -2.5093 C   0  0  0  0  0  0  0  0  0  0  0  0
    2.1573   -0.7569   -2.7354 H   0  0  0  0  0  0  0  0  0  0  0  0
    1.6880    1.1793   -1.9019 C   0  0  0  0  0  0  0  0  0  0  0  0
   -0.5362   -0.2594    0.9712 C   0  0  0  0  0  0  0  0  0  0  0  0
    0.5190   -0.1120    1.5737 O   0  0  0  0  0  0  0  0  0  0  0  0
   -1.6803    0.3509    1.4590 N   0  0  0  0  0  0  0  0  0  0  0  0
   -2.5519    0.0593    1.0308 H   0  0  0  0  0  0  0  0  0  0  0  0
   -1.7256    0.9788    2.7732 C   0  0  0  0  0  0  0  0  0  0  0  0
   -0.9907    1.7882    2.8374 H   0  0  0  0  0  0  0  0  0  0  0  0
   -2.7181    1.3997    2.9579 H   0  0  0  0  0  0  0  0  0  0  0  0
   -1.5082    0.2431    3.5547 H   0  0  0  0  0  0  0  0  0  0  0  0
  1  2  1  0  0  0  0
  2  3  1  0  0  0  0
  2  4  1  0  0  0  0
  2  5  1  0  0  0  0
  5  6  2  0  0  0  0
  5  7  1  0  0  0  0
  7  8  1  0  0  0  0
  7  9  1  0  0  0  0
  9 10  1  0  0  0  0
  9 11  1  0  0  0  0
  9 29  1  0  0  0  0
 11 12  1  0  0  0  0
 11 13  1  0  0  0  0
 11 14  1  0  0  0  0
 14 15  2  0  0  0  0
 14 28  1  0  0  0  0
 15 16  1  0  0  0  0
 15 17  1  0  0  0  0
 17 18  1  0  0  0  0
 17 19  1  0  0  0  0
 19 20  1  0  0  0  0
 19 28  2  0  0  0  0
 20 21  1  0  0  0  0
 20 22  2  0  0  0  0
 22 23  1  0  0  0  0
 22 24  1  0  0  0  0
 24 25  1  0  0  0  0
 24 26  2  0  0  0  0
 26 27  1  0  0  0  0
 26 28  1  0  0  0  0
 29 30  2  0  0  0  0
 29 31  1  0  0  0  0
 31 32  1  0  0  0  0
 31 33  1  0  0  0  0
 33 34  1  0  0  0  0
 33 35  1  0  0  0  0
 33 36  1  0  0  0  0
M  END
$$$$

  -OEChem-03222214083D

 36 37  0     1  0  0  0  0  0999 V2000
   -3.3101   -4.6582    0.7385 H   0  0  0  0  0  0  0  0  0  0  0  0
   -3.2503   -3.8425    0.0121 C   0  0  0  0  0  0  0  0  0  0  0  0
   -4.1815   -3.2720    0.0460 H   0  0  0  0  0  0  0  0  0  0  0  0
   -3.1280   -4.2712   -0.9854 H   0  0  0  0  0  0  0  0  0  0  0  0
   -2.0761   -2.9393    0.3392 C   0  0  0  0  0  0  0  0  0  0  0  0
   -1.4174   -3.1450    1.3408 O   0  0  0  0  0  0  0  0  0  0  0  0
   -1.7721   -1.8842   -0.4990 N   0  0  0  0  0  0  0  0  0  0  0  0
   -2.2962   -1.8364   -1.3671 H   0  0  0  0  0  0  0  0  0  0  0  0
   -0.5807   -1.0189   -0.3585 C   0  0  1  0  0  0  0  0  0  0  0  0
    0.3279   -1.6290   -0.4098 H   0  0  0  0  0  0  0  0  0  0  0  0
   -0.5962   -0.0562   -1.5681 C   0  0  0  0  0  0  0  0  0  0  0  0
   -0.3587   -0.6162   -2.4772 H   0  0  0  0  0  0  0  0  0  0  0  0
   -1.6115    0.3348   -1.6869 H   0  0  0  0  0  0  0  0  0  0  0  0
    0.3212    1.1386   -1.4580 C   0  0  0  0  0  0  0  0  0  0  0  0
    0.1355    2.2665   -0.6913 C   0  0  0  0  0  0  0  0  0  0  0  0
   -0.7078    2.4526   -0.0300 H   0  0  0  0  0  0  0  0  0  0  0  0
    1.2259    3.1067   -0.8983 N   0  0  0  0  0  0  0  0  0  0  0  0
    1.3895    3.9859   -0.4131 H   0  0  0  0  0  0  0  0  0  0  0  0
    2.1183    2.5282   -1.7843 C   0  0  0  0  0  0  0  0  0  0  0  0
    3.3435    2.9705   -2.2829 C   0  0  0  0  0  0  0  0  0  0  0  0
    3.7425    3.9311   -1.9767 H   0  0  0  0  0  0  0  0  0  0  0  0
    4.0503    2.1564   -3.1785 C   0  0  0  0  0  0  0  0  0  0  0  0
    5.0072    2.4864   -3.5717 H   0  0  0  0  0  0  0  0  0  0  0  0
    3.5256    0.9130   -3.5622 C   0  0  0  0  0  0  0  0  0  0  0  0
    4.0785    0.2827   -4.2522 H   0  0  0  0  0  0  0  0  0  0  0  0
    2.2932    0.4786   -3.0521 C   0  0  0  0  0  0  0  0  0  0  0  0
    1.8913   -0.4859   -3.3420 H   0  0  0  0  0  0  0  0  0  0  0  0
    1.5915    1.2975   -2.1597 C   0  0  0  0  0  0  0  0  0  0  0  0
   -0.5439   -0.2810    1.0028 C   0  0  0  0  0  0  0  0  0  0  0  0
    0.5094   -0.1255    1.6064 O   0  0  0  0  0  0  0  0  0  0  0  0
   -1.6914    0.3233    1.4902 N   0  0  0  0  0  0  0  0  0  0  0  0
   -2.5595    0.0296    1.0555 H   0  0  0  0  0  0  0  0  0  0  0  0
   -1.7483    0.9277    2.8150 C   0  0  0  0  0  0  0  0  0  0  0  0
   -1.0183    1.7395    2.8988 H   0  0  0  0  0  0  0  0  0  0  0  0
   -2.7444    1.3403    3.0001 H   0  0  0  0  0  0  0  0  0  0  0  0
   -1.5328    0.1793    3.5850 H   0  0  0  0  0  0  0  0  0  0  0  0
  1  2  1  0  0  0  0
  2  3  1  0  0  0  0
  2  4  1  0  0  0  0
  2  5  1  0  0  0  0
  5  6  2  0  0  0  0
  5  7  1  0  0  0  0
  7  8  1  0  0  0  0
  7  9  1  0  0  0  0
  9 10  1  0  0  0  0
  9 11  1  0  0  0  0
  9 29  1  0  0  0  0
 11 12  1  0  0  0  0
 11 13  1  0  0  0  0
 11 14  1  0  0  0  0
 14 15  2  0  0  0  0
 14 28  1  0  0  0  0
 15 16  1  0  0  0  0
 15 17  1  0  0  0  0
 17 18  1  0  0  0  0
 17 19  1  0  0  0  0
 19 20  1  0  0  0  0
 19 28  2  0  0  0  0
 20 21  1  0  0  0  0
 20 22  2  0  0  0  0
 22 23  1  0  0  0  0
 22 24  1  0  0  0  0
 24 25  1  0  0  0  0
 24 26  2  0  0  0  0
 26 27  1  0  0  0  0
 26 28  1  0  0  0  0
 29 30  2  0  0  0  0
 29 31  1  0  0  0  0
 31 32  1  0  0  0  0
 31 33  1  0  0  0  0
 33 34  1  0  0  0  0
 33 35  1  0  0  0  0
 33 36  1  0  0  0  0
M  END
$$$$

  -OEChem-03222214083D

 36 37  0     1  0  0  0  0  0999 V2000
   -3.3556   -4.6468    0.6704 H   0  0  0  0  0  0  0  0  0  0  0  0
   -3.2669   -3.8276   -0.0492 C   0  0  0  0  0  0  0  0  0  0  0  0
   -4.1933   -3.2486   -0.0383 H   0  0  0  0  0  0  0  0  0  0  0  0
   -3.1196   -4.2514   -1.0453 H   0  0  0  0  0  0  0  0  0  0  0  0
   -2.0936   -2.9378    0.3162 C   0  0  0  0  0  0  0  0  0  0  0  0
   -1.4507   -3.1714    1.3221 O   0  0  0  0  0  0  0  0  0  0  0  0
   -1.7667   -1.8680   -0.4947 N   0  0  0  0  0  0  0  0  0  0  0  0
   -2.2787   -1.7945   -1.3684 H   0  0  0  0  0  0  0  0  0  0  0  0
   -0.5694   -1.0171   -0.3172 C   0  0  1  0  0  0  0  0  0  0  0  0
    0.3340   -1.6354   -0.3596 H   0  0  0  0  0  0  0  0  0  0  0  0
   -0.5508   -0.0405   -1.5185 C   0  0  0  0  0  0  0  0  0  0  0  0
   -0.3014   -0.6110   -2.4173 H   0  0  0  0  0  0  0  0  0  0  0  0
   -1.5620    0.3540   -1.6602 H   0  0  0  0  0  0  0  0  0  0  0  0
    0.3649    1.1628   -1.4210 C   0  0  0  0  0  0  0  0  0  0  0  0
    0.3582    2.1791   -0.4901 C   0  0  0  0  0  0  0  0  0  0  0  0
   -0.3199    2.2673    0.3555 H   0  0  0  0  0  0  0  0  0  0  0  0
    1.3805    3.0664   -0.8126 N   0  0  0  0  0  0  0  0  0  0  0  0
    1.6439    3.8811   -0.2628 H   0  0  0  0  0  0  0  0  0  0  0  0
    2.0533    2.6356   -1.9415 C   0  0  0  0  0  0  0  0  0  0  0  0
    3.1386    3.1765   -2.6307 C   0  0  0  0  0  0  0  0  0  0  0  0
    3.5971    4.0980   -2.2898 H   0  0  0  0  0  0  0  0  0  0  0  0
    3.6269    2.5133   -3.7644 C   0  0  0  0  0  0  0  0  0  0  0  0
    4.4717    2.9222   -4.3108 H   0  0  0  0  0  0  0  0  0  0  0  0
    3.0277    1.3188   -4.1906 C   0  0  0  0  0  0  0  0  0  0  0  0
    3.4106    0.8042   -5.0668 H   0  0  0  0  0  0  0  0  0  0  0  0
    1.9394    0.7836   -3.4864 C   0  0  0  0  0  0  0  0  0  0  0  0
    1.4845   -0.1436   -3.8160 H   0  0  0  0  0  0  0  0  0  0  0  0
    1.4524    1.4521   -2.3559 C   0  0  0  0  0  0  0  0  0  0  0  0
   -0.5598   -0.3149    1.0623 C   0  0  0  0  0  0  0  0  0  0  0  0
    0.4837   -0.1615    1.6834 O   0  0  0  0  0  0  0  0  0  0  0  0
   -1.7145    0.2837    1.5393 N   0  0  0  0  0  0  0  0  0  0  0  0
   -2.5747    0.0112    1.0756 H   0  0  0  0  0  0  0  0  0  0  0  0
   -1.7990    0.8703    2.8710 C   0  0  0  0  0  0  0  0  0  0  0  0
   -1.0630    1.6730    2.9854 H   0  0  0  0  0  0  0  0  0  0  0  0
   -2.7952    1.2914    3.0365 H   0  0  0  0  0  0  0  0  0  0  0  0
   -1.6112    0.1089    3.6355 H   0  0  0  0  0  0  0  0  0  0  0  0
  1  2  1  0  0  0  0
  2  3  1  0  0  0  0
  2  4  1  0  0  0  0
  2  5  1  0  0  0  0
  5  6  2  0  0  0  0
  5  7  1  0  0  0  0
  7  8  1  0  0  0  0
  7  9  1  0  0  0  0
  9 10  1  0  0  0  0
  9 11  1  0  0  0  0
  9 29  1  0  0  0  0
 11 12  1  0  0  0  0
 11 13  1  0  0  0  0
 11 14  1  0  0  0  0
 14 15  2  0  0  0  0
 14 28  1  0  0  0  0
 15 16  1  0  0  0  0
 15 17  1  0  0  0  0
 17 18  1  0  0  0  0
 17 19  1  0  0  0  0
 19 20  1  0  0  0  0
 19 28  2  0  0  0  0
 20 21  1  0  0  0  0
 20 22  2  0  0  0  0
 22 23  1  0  0  0  0
 22 24  1  0  0  0  0
 24 25  1  0  0  0  0
 24 26  2  0  0  0  0
 26 27  1  0  0  0  0
 26 28  1  0  0  0  0
 29 30  2  0  0  0  0
 29 31  1  0  0  0  0
 31 32  1  0  0  0  0
 31 33  1  0  0  0  0
 33 34  1  0  0  0  0
 33 35  1  0  0  0  0
 33 36  1  0  0  0  0
M  END
$$$$

  -OEChem-03222214083D

 36 37  0     1  0  0  0  0  0999 V2000
   -3.4184   -4.6169    0.5731 H   0  0  0  0  0  0  0  0  0  0  0  0
   -3.3003   -3.7810   -0.1224 C   0  0  0  0  0  0  0  0  0  0  0  0
   -4.2110   -3.1776   -0.1041 H   0  0  0  0  0  0  0  0  0  0  0  0
   -3.1547   -4.1806   -1.1290 H   0  0  0  0  0  0  0  0  0  0  0  0
   -2.1071   -2.9345    0.2797 C   0  0  0  0  0  0  0  0  0  0  0  0
   -1.4801   -3.2130    1.2844 O   0  0  0  0  0  0  0  0  0  0  0  0
   -1.7436   -1.8526   -0.4985 N   0  0  0  0  0  0  0  0  0  0  0  0
   -2.2484   -1.7367   -1.3717 H   0  0  0  0  0  0  0  0  0  0  0  0
   -0.5400   -1.0222   -0.2740 C   0  0  1  0  0  0  0  0  0  0  0  0
    0.3573   -1.6499   -0.3067 H   0  0  0  0  0  0  0  0  0  0  0  0
   -0.4881   -0.0290   -1.4627 C   0  0  0  0  0  0  0  0  0  0  0  0
   -0.2134   -0.6082   -2.3483 H   0  0  0  0  0  0  0  0  0  0  0  0
   -1.4953    0.3639   -1.6342 H   0  0  0  0  0  0  0  0  0  0  0  0
    0.4246    1.1819   -1.3745 C   0  0  0  0  0  0  0  0  0  0  0  0
    0.6299    2.0729   -0.3412 C   0  0  0  0  0  0  0  0  0  0  0  0
    0.1552    2.0517    0.6367 H   0  0  0  0  0  0  0  0  0  0  0  0
    1.5608    3.0181   -0.7605 N   0  0  0  0  0  0  0  0  0  0  0  0
    1.9324    3.7688   -0.1826 H   0  0  0  0  0  0  0  0  0  0  0  0
    1.9620    2.7577   -2.0567 C   0  0  0  0  0  0  0  0  0  0  0  0
    2.8654    3.4145   -2.8920 C   0  0  0  0  0  0  0  0  0  0  0  0
    3.3924    4.2950   -2.5418 H   0  0  0  0  0  0  0  0  0  0  0  0
    3.0816    2.9215   -4.1855 C   0  0  0  0  0  0  0  0  0  0  0  0
    3.7835    3.4218   -4.8460 H   0  0  0  0  0  0  0  0  0  0  0  0
    2.3926    1.7822   -4.6259 C   0  0  0  0  0  0  0  0  0  0  0  0
    2.5615    1.4015   -5.6286 H   0  0  0  0  0  0  0  0  0  0  0  0
    1.4885    1.1302   -3.7749 C   0  0  0  0  0  0  0  0  0  0  0  0
    0.9621    0.2480   -4.1212 H   0  0  0  0  0  0  0  0  0  0  0  0
    1.2764    1.6250   -2.4811 C   0  0  0  0  0  0  0  0  0  0  0  0
   -0.5631   -0.3531    1.1203 C   0  0  0  0  0  0  0  0  0  0  0  0
    0.4630   -0.2353    1.7781 O   0  0  0  0  0  0  0  0  0  0  0  0
   -1.7232    0.2483    1.5788 N   0  0  0  0  0  0  0  0  0  0  0  0
   -2.5709    0.0191    1.0710 H   0  0  0  0  0  0  0  0  0  0  0  0
   -1.8431    0.8049    2.9203 C   0  0  0  0  0  0  0  0  0  0  0  0
   -1.1116    1.6056    3.0714 H   0  0  0  0  0  0  0  0  0  0  0  0
   -2.8440    1.2211    3.0684 H   0  0  0  0  0  0  0  0  0  0  0  0
   -1.6747    0.0268    3.6726 H   0  0  0  0  0  0  0  0  0  0  0  0
  1  2  1  0  0  0  0
  2  3  1  0  0  0  0
  2  4  1  0  0  0  0
  2  5  1  0  0  0  0
  5  6  2  0  0  0  0
  5  7  1  0  0  0  0
  7  8  1  0  0  0  0
  7  9  1  0  0  0  0
  9 10  1  0  0  0  0
  9 11  1  0  0  0  0
  9 29  1  0  0  0  0
 11 12  1  0  0  0  0
 11 13  1  0  0  0  0
 11 14  1  0  0  0  0
 14 15  2  0  0  0  0
 14 28  1  0  0  0  0
 15 16  1  0  0  0  0
 15 17  1  0  0  0  0
 17 18  1  0  0  0  0
 17 19  1  0  0  0  0
 19 20  1  0  0  0  0
 19 28  2  0  0  0  0
 20 21  1  0  0  0  0
 20 22  2  0  0  0  0
 22 23  1  0  0  0  0
 22 24  1  0  0  0  0
 24 25  1  0  0  0  0
 24 26  2  0  0  0  0
 26 27  1  0  0  0  0
 26 28  1  0  0  0  0
 29 30  2  0  0  0  0
 29 31  1  0  0  0  0
 31 32  1  0  0  0  0
 31 33  1  0  0  0  0
 33 34  1  0  0  0  0
 33 35  1  0  0  0  0
 33 36  1  0  0  0  0
M  END
$$$$

  -OEChem-03222214083D

 36 37  0     1  0  0  0  0  0999 V2000
   -3.4942   -4.5687    0.4772 H   0  0  0  0  0  0  0  0  0  0  0  0
   -3.3453   -3.7192   -0.1958 C   0  0  0  0  0  0  0  0  0  0  0  0
   -4.2377   -3.0898   -0.1688 H   0  0  0  0  0  0  0  0  0  0  0  0
   -3.2032   -4.0974   -1.2110 H   0  0  0  0  0  0  0  0  0  0  0  0
   -2.1312   -2.9187    0.2373 C   0  0  0  0  0  0  0  0  0  0  0  0
   -1.5225   -3.2404    1.2403 O   0  0  0  0  0  0  0  0  0  0  0  0
   -1.7256   -1.8319   -0.5130 N   0  0  0  0  0  0  0  0  0  0  0  0
   -2.2205   -1.6760   -1.3856 H   0  0  0  0  0  0  0  0  0  0  0  0
   -0.5105   -1.0310   -0.2465 C   0  0  1  0  0  0  0  0  0  0  0  0
    0.3765   -1.6738   -0.2719 H   0  0  0  0  0  0  0  0  0  0  0  0
   -0.4253   -0.0211   -1.4194 C   0  0  0  0  0  0  0  0  0  0  0  0
   -0.1336   -0.5997   -2.3009 H   0  0  0  0  0  0  0  0  0  0  0  0
   -1.4264    0.3791   -1.6093 H   0  0  0  0  0  0  0  0  0  0  0  0
    0.4950    1.1854   -1.3311 C   0  0  0  0  0  0  0  0  0  0  0  0
    0.9346    1.9355   -0.2582 C   0  0  0  0  0  0  0  0  0  0  0  0
    0.6939    1.7863    0.7902 H   0  0  0  0  0  0  0  0  0  0  0  0
    1.7569    2.9480   -0.7424 N   0  0  0  0  0  0  0  0  0  0  0  0
    2.2437    3.6305   -0.1654 H   0  0  0  0  0  0  0  0  0  0  0  0
    1.8515    2.8780   -2.1184 C   0  0  0  0  0  0  0  0  0  0  0  0
    2.5442    3.6637   -3.0392 C   0  0  0  0  0  0  0  0  0  0  0  0
    3.1464    4.4992   -2.6999 H   0  0  0  0  0  0  0  0  0  0  0  0
    2.4498    3.3594   -4.4037 C   0  0  0  0  0  0  0  0  0  0  0  0
    2.9836    3.9628   -5.1318 H   0  0  0  0  0  0  0  0  0  0  0  0
    1.6661    2.2764   -4.8281 C   0  0  0  0  0  0  0  0  0  0  0  0
    1.5936    2.0429   -5.8859 H   0  0  0  0  0  0  0  0  0  0  0  0
    0.9778    1.4924   -3.8909 C   0  0  0  0  0  0  0  0  0  0  0  0
    0.3749    0.6549   -4.2238 H   0  0  0  0  0  0  0  0  0  0  0  0
    1.0771    1.7990   -2.5274 C   0  0  0  0  0  0  0  0  0  0  0  0
   -0.5574   -0.3865    1.1583 C   0  0  0  0  0  0  0  0  0  0  0  0
    0.4440   -0.3484    1.8628 O   0  0  0  0  0  0  0  0  0  0  0  0
   -1.7131    0.2322    1.6031 N   0  0  0  0  0  0  0  0  0  0  0  0
   -2.5479    0.0742    1.0490 H   0  0  0  0  0  0  0  0  0  0  0  0
   -1.8586    0.7561    2.9552 C   0  0  0  0  0  0  0  0  0  0  0  0
   -1.1240    1.5465    3.1418 H   0  0  0  0  0  0  0  0  0  0  0  0
   -2.8596    1.1763    3.0923 H   0  0  0  0  0  0  0  0  0  0  0  0
   -1.7130   -0.0412    3.6917 H   0  0  0  0  0  0  0  0  0  0  0  0
  1  2  1  0  0  0  0
  2  3  1  0  0  0  0
  2  4  1  0  0  0  0
  2  5  1  0  0  0  0
  5  6  2  0  0  0  0
  5  7  1  0  0  0  0
  7  8  1  0  0  0  0
  7  9  1  0  0  0  0
  9 10  1  0  0  0  0
  9 11  1  0  0  0  0
  9 29  1  0  0  0  0
 11 12  1  0  0  0  0
 11 13  1  0  0  0  0
 11 14  1  0  0  0  0
 14 15  2  0  0  0  0
 14 28  1  0  0  0  0
 15 16  1  0  0  0  0
 15 17  1  0  0  0  0
 17 18  1  0  0  0  0
 17 19  1  0  0  0  0
 19 20  1  0  0  0  0
 19 28  2  0  0  0  0
 20 21  1  0  0  0  0
 20 22  2  0  0  0  0
 22 23  1  0  0  0  0
 22 24  1  0  0  0  0
 24 25  1  0  0  0  0
 24 26  2  0  0  0  0
 26 27  1  0  0  0  0
 26 28  1  0  0  0  0
 29 30  2  0  0  0  0
 29 31  1  0  0  0  0
 31 32  1  0  0  0  0
 31 33  1  0  0  0  0
 33 34  1  0  0  0  0
 33 35  1  0  0  0  0
 33 36  1  0  0  0  0
M  END
$$$$

  -OEChem-03222214083D

 36 37  0     1  0  0  0  0  0999 V2000
   -3.5850   -4.4980    0.4459 H   0  0  0  0  0  0  0  0  0  0  0  0
   -3.4058   -3.6502   -0.2217 C   0  0  0  0  0  0  0  0  0  0  0  0
   -4.2774   -2.9922   -0.1948 H   0  0  0  0  0  0  0  0  0  0  0  0
   -3.2722   -4.0276   -1.2384 H   0  0  0  0  0  0  0  0  0  0  0  0
   -2.1675   -2.8926    0.2197 C   0  0  0  0  0  0  0  0  0  0  0  0
   -1.5709   -3.2430    1.2202 O   0  0  0  0  0  0  0  0  0  0  0  0
   -1.7226   -1.8175   -0.5254 N   0  0  0  0  0  0  0  0  0  0  0  0
   -2.2131   -1.6372   -1.3957 H   0  0  0  0  0  0  0  0  0  0  0  0
   -0.4866   -1.0530   -0.2472 C   0  0  1  0  0  0  0  0  0  0  0  0
    0.3860   -1.7150   -0.2744 H   0  0  0  0  0  0  0  0  0  0  0  0
   -0.3841   -0.0318   -1.4082 C   0  0  0  0  0  0  0  0  0  0  0  0
   -0.1117   -0.6009   -2.3027 H   0  0  0  0  0  0  0  0  0  0  0  0
   -1.3784    0.3927   -1.5811 H   0  0  0  0  0  0  0  0  0  0  0  0
    0.5602    1.1548   -1.3215 C   0  0  0  0  0  0  0  0  0  0  0  0
    1.2438    1.7365   -0.2721 C   0  0  0  0  0  0  0  0  0  0  0  0
    1.2565    1.4171    0.7650 H   0  0  0  0  0  0  0  0  0  0  0  0
    1.9469    2.8317   -0.7658 N   0  0  0  0  0  0  0  0  0  0  0  0
    2.5522    3.4344   -0.2122 H   0  0  0  0  0  0  0  0  0  0  0  0
    1.7238    2.9803   -2.1209 C   0  0  0  0  0  0  0  0  0  0  0  0
    2.1935    3.9165   -3.0419 C   0  0  0  0  0  0  0  0  0  0  0  0
    2.8642    4.7069   -2.7237 H   0  0  0  0  0  0  0  0  0  0  0  0
    1.7855    3.8219   -4.3793 C   0  0  0  0  0  0  0  0  0  0  0  0
    2.1426    4.5443   -5.1073 H   0  0  0  0  0  0  0  0  0  0  0  0
    0.9163    2.7950   -4.7772 C   0  0  0  0  0  0  0  0  0  0  0  0
    0.6018    2.7242   -5.8139 H   0  0  0  0  0  0  0  0  0  0  0  0
    0.4533    1.8591   -3.8408 C   0  0  0  0  0  0  0  0  0  0  0  0
   -0.2177    1.0651   -4.1500 H   0  0  0  0  0  0  0  0  0  0  0  0
    0.8650    1.9587   -2.5059 C   0  0  0  0  0  0  0  0  0  0  0  0
   -0.5341   -0.4110    1.1600 C   0  0  0  0  0  0  0  0  0  0  0  0
    0.4415   -0.4551    1.8996 O   0  0  0  0  0  0  0  0  0  0  0  0
   -1.6761    0.2395    1.5944 N   0  0  0  0  0  0  0  0  0  0  0  0
   -2.4972    0.1559    1.0053 H   0  0  0  0  0  0  0  0  0  0  0  0
   -1.8315    0.7500    2.9502 C   0  0  0  0  0  0  0  0  0  0  0  0
   -1.0748    1.5125    3.1623 H   0  0  0  0  0  0  0  0  0  0  0  0
   -2.8202    1.2026    3.0727 H   0  0  0  0  0  0  0  0  0  0  0  0
   -1.7284   -0.0617    3.6779 H   0  0  0  0  0  0  0  0  0  0  0  0
  1  2  1  0  0  0  0
  2  3  1  0  0  0  0
  2  4  1  0  0  0  0
  2  5  1  0  0  0  0
  5  6  2  0  0  0  0
  5  7  1  0  0  0  0
  7  8  1  0  0  0  0
  7  9  1  0  0  0  0
  9 10  1  0  0  0  0
  9 11  1  0  0  0  0
  9 29  1  0  0  0  0
 11 12  1  0  0  0  0
 11 13  1  0  0  0  0
 11 14  1  0  0  0  0
 14 15  2  0  0  0  0
 14 28  1  0  0  0  0
 15 16  1  0  0  0  0
 15 17  1  0  0  0  0
 17 18  1  0  0  0  0
 17 19  1  0  0  0  0
 19 20  1  0  0  0  0
 19 28  2  0  0  0  0
 20 21  1  0  0  0  0
 20 22  2  0  0  0  0
 22 23  1  0  0  0  0
 22 24  1  0  0  0  0
 24 25  1  0  0  0  0
 24 26  2  0  0  0  0
 26 27  1  0  0  0  0
 26 28  1  0  0  0  0
 29 30  2  0  0  0  0
 29 31  1  0  0  0  0
 31 32  1  0  0  0  0
 31 33  1  0  0  0  0
 33 34  1  0  0  0  0
 33 35  1  0  0  0  0
 33 36  1  0  0  0  0
M  END
$$$$

  -OEChem-03222214083D

 36 37  0     1  0  0  0  0  0999 V2000
   -3.6555   -4.4388    0.5267 H   0  0  0  0  0  0  0  0  0  0  0  0
   -3.4585   -3.6158   -0.1663 C   0  0  0  0  0  0  0  0  0  0  0  0
   -4.3057   -2.9263   -0.1427 H   0  0  0  0  0  0  0  0  0  0  0  0
   -3.3556   -4.0243   -1.1744 H   0  0  0  0  0  0  0  0  0  0  0  0
   -2.1868   -2.8910    0.2332 C   0  0  0  0  0  0  0  0  0  0  0  0
   -1.5650   -3.2569    1.2126 O   0  0  0  0  0  0  0  0  0  0  0  0
   -1.7370   -1.8323   -0.5318 N   0  0  0  0  0  0  0  0  0  0  0  0
   -2.2537   -1.6387   -1.3837 H   0  0  0  0  0  0  0  0  0  0  0  0
   -0.4860   -1.0823   -0.2838 C   0  0  1  0  0  0  0  0  0  0  0  0
    0.3790   -1.7532   -0.3235 H   0  0  0  0  0  0  0  0  0  0  0  0
   -0.4007   -0.0617   -1.4458 C   0  0  0  0  0  0  0  0  0  0  0  0
   -0.1665   -0.6196   -2.3580 H   0  0  0  0  0  0  0  0  0  0  0  0
   -1.3937    0.3804   -1.5773 H   0  0  0  0  0  0  0  0  0  0  0  0
    0.5633    1.1069   -1.3666 C   0  0  0  0  0  0  0  0  0  0  0  0
    1.4673    1.4979   -0.4003 C   0  0  0  0  0  0  0  0  0  0  0  0
    1.6964    0.9836    0.5284 H   0  0  0  0  0  0  0  0  0  0  0  0
    2.0752    2.6749   -0.8280 N   0  0  0  0  0  0  0  0  0  0  0  0
    2.7889    3.1838   -0.3105 H   0  0  0  0  0  0  0  0  0  0  0  0
    1.5775    3.0584   -2.0590 C   0  0  0  0  0  0  0  0  0  0  0  0
    1.8677    4.1468   -2.8818 C   0  0  0  0  0  0  0  0  0  0  0  0
    2.6090    4.8782   -2.5788 H   0  0  0  0  0  0  0  0  0  0  0  0
    1.1903    4.2803   -4.1017 C   0  0  0  0  0  0  0  0  0  0  0  0
    1.4067    5.1219   -4.7529 H   0  0  0  0  0  0  0  0  0  0  0  0
    0.2338    3.3271   -4.4821 C   0  0  0  0  0  0  0  0  0  0  0  0
   -0.2891    3.4330   -5.4278 H   0  0  0  0  0  0  0  0  0  0  0  0
   -0.0479    2.2372   -3.6456 C   0  0  0  0  0  0  0  0  0  0  0  0
   -0.7856    1.4990   -3.9405 H   0  0  0  0  0  0  0  0  0  0  0  0
    0.6330    2.1093   -2.4289 C   0  0  0  0  0  0  0  0  0  0  0  0
   -0.5039   -0.4212    1.1173 C   0  0  0  0  0  0  0  0  0  0  0  0
    0.4742   -0.4852    1.8521 O   0  0  0  0  0  0  0  0  0  0  0  0
   -1.6305    0.2506    1.5591 N   0  0  0  0  0  0  0  0  0  0  0  0
   -2.4532    0.2021    0.9686 H   0  0  0  0  0  0  0  0  0  0  0  0
   -1.7522    0.8111    2.8983 C   0  0  0  0  0  0  0  0  0  0  0  0
   -0.9684    1.5551    3.0749 H   0  0  0  0  0  0  0  0  0  0  0  0
   -2.7237    1.3001    3.0169 H   0  0  0  0  0  0  0  0  0  0  0  0
   -1.6667    0.0218    3.6525 H   0  0  0  0  0  0  0  0  0  0  0  0
  1  2  1  0  0  0  0
  2  3  1  0  0  0  0
  2  4  1  0  0  0  0
  2  5  1  0  0  0  0
  5  6  2  0  0  0  0
  5  7  1  0  0  0  0
  7  8  1  0  0  0  0
  7  9  1  0  0  0  0
  9 10  1  0  0  0  0
  9 11  1  0  0  0  0
  9 29  1  0  0  0  0
 11 12  1  0  0  0  0
 11 13  1  0  0  0  0
 11 14  1  0  0  0  0
 14 15  2  0  0  0  0
 14 28  1  0  0  0  0
 15 16  1  0  0  0  0
 15 17  1  0  0  0  0
 17 18  1  0  0  0  0
 17 19  1  0  0  0  0
 19 20  1  0  0  0  0
 19 28  2  0  0  0  0
 20 21  1  0  0  0  0
 20 22  2  0  0  0  0
 22 23  1  0  0  0  0
 22 24  1  0  0  0  0
 24 25  1  0  0  0  0
 24 26  2  0  0  0  0
 26 27  1  0  0  0  0
 26 28  1  0  0  0  0
 29 30  2  0  0  0  0
 29 31  1  0  0  0  0
 31 32  1  0  0  0  0
 31 33  1  0  0  0  0
 33 34  1  0  0  0  0
 33 35  1  0  0  0  0
 33 36  1  0  0  0  0
M  END
$$$$

  -OEChem-03222214083D

 36 37  0     1  0  0  0  0  0999 V2000
   -3.6238   -4.4535    0.6563 H   0  0  0  0  0  0  0  0  0  0  0  0
   -3.4564   -3.6484   -0.0650 C   0  0  0  0  0  0  0  0  0  0  0  0
   -4.3061   -2.9626   -0.0286 H   0  0  0  0  0  0  0  0  0  0  0  0
   -3.3877   -4.0826   -1.0654 H   0  0  0  0  0  0  0  0  0  0  0  0
   -2.1756   -2.9072    0.2697 C   0  0  0  0  0  0  0  0  0  0  0  0
   -1.5115   -3.2511    1.2293 O   0  0  0  0  0  0  0  0  0  0  0  0
   -1.7635   -1.8602   -0.5315 N   0  0  0  0  0  0  0  0  0  0  0  0
   -2.3158   -1.6804   -1.3638 H   0  0  0  0  0  0  0  0  0  0  0  0
   -0.5152   -1.0921   -0.3355 C   0  0  1  0  0  0  0  0  0  0  0  0
    0.3534   -1.7574   -0.3890 H   0  0  0  0  0  0  0  0  0  0  0  0
   -0.4663   -0.0880   -1.5117 C   0  0  0  0  0  0  0  0  0  0  0  0
   -0.2583   -0.6418   -2.4325 H   0  0  0  0  0  0  0  0  0  0  0  0
   -1.4635    0.3529   -1.6119 H   0  0  0  0  0  0  0  0  0  0  0  0
    0.5025    1.0735   -1.4345 C   0  0  0  0  0  0  0  0  0  0  0  0
    1.5833    1.2807   -0.6043 C   0  0  0  0  0  0  0  0  0  0  0  0
    1.9544    0.5968    0.1561 H   0  0  0  0  0  0  0  0  0  0  0  0
    2.1354    2.5193   -0.9185 N   0  0  0  0  0  0  0  0  0  0  0  0
    2.9381    2.9354   -0.4510 H   0  0  0  0  0  0  0  0  0  0  0  0
    1.4296    3.1173   -1.9465 C   0  0  0  0  0  0  0  0  0  0  0  0
    1.5959    4.3382   -2.6002 C   0  0  0  0  0  0  0  0  0  0  0  0
    2.4016    5.0051   -2.3133 H   0  0  0  0  0  0  0  0  0  0  0  0
    0.7105    4.6878   -3.6293 C   0  0  0  0  0  0  0  0  0  0  0  0
    0.8285    5.6353   -4.1469 H   0  0  0  0  0  0  0  0  0  0  0  0
   -0.3263    3.8143   -3.9914 C   0  0  0  0  0  0  0  0  0  0  0  0
   -1.0094    4.0876   -4.7898 H   0  0  0  0  0  0  0  0  0  0  0  0
   -0.4822    2.5891   -3.3268 C   0  0  0  0  0  0  0  0  0  0  0  0
   -1.2813    1.9120   -3.6082 H   0  0  0  0  0  0  0  0  0  0  0  0
    0.4043    2.2475   -2.2987 C   0  0  0  0  0  0  0  0  0  0  0  0
   -0.4907   -0.3977    1.0510 C   0  0  0  0  0  0  0  0  0  0  0  0
    0.5178   -0.4264    1.7464 O   0  0  0  0  0  0  0  0  0  0  0  0
   -1.6069    0.2753    1.5169 N   0  0  0  0  0  0  0  0  0  0  0  0
   -2.4469    0.2219    0.9520 H   0  0  0  0  0  0  0  0  0  0  0  0
   -1.6734    0.9005    2.8311 C   0  0  0  0  0  0  0  0  0  0  0  0
   -0.8967    1.6662    2.9307 H   0  0  0  0  0  0  0  0  0  0  0  0
   -2.6476    1.3774    2.9736 H   0  0  0  0  0  0  0  0  0  0  0  0
   -1.5348    0.1518    3.6182 H   0  0  0  0  0  0  0  0  0  0  0  0
  1  2  1  0  0  0  0
  2  3  1  0  0  0  0
  2  4  1  0  0  0  0
  2  5  1  0  0  0  0
  5  6  2  0  0  0  0
  5  7  1  0  0  0  0
  7  8  1  0  0  0  0
  7  9  1  0  0  0  0
  9 10  1  0  0  0  0
  9 11  1  0  0  0  0
  9 29  1  0  0  0  0
 11 12  1  0  0  0  0
 11 13  1  0  0  0  0
 11 14  1  0  0  0  0
 14 15  2  0  0  0  0
 14 28  1  0  0  0  0
 15 16  1  0  0  0  0
 15 17  1  0  0  0  0
 17 18  1  0  0  0  0
 17 19  1  0  0  0  0
 19 20  1  0  0  0  0
 19 28  2  0  0  0  0
 20 21  1  0  0  0  0
 20 22  2  0  0  0  0
 22 23  1  0  0  0  0
 22 24  1  0  0  0  0
 24 25  1  0  0  0  0
 24 26  2  0  0  0  0
 26 27  1  0  0  0  0
 26 28  1  0  0  0  0
 29 30  2  0  0  0  0
 29 31  1  0  0  0  0
 31 32  1  0  0  0  0
 31 33  1  0  0  0  0
 33 34  1  0  0  0  0
 33 35  1  0  0  0  0
 33 36  1  0  0  0  0
M  END
$$$$

  -OEChem-03222214083D

 36 37  0     1  0  0  0  0  0999 V2000
   -3.5365   -4.5114    0.7568 H   0  0  0  0  0  0  0  0  0  0  0  0
   -3.4211   -3.7071    0.0244 C   0  0  0  0  0  0  0  0  0  0  0  0
   -4.2826   -3.0391    0.0981 H   0  0  0  0  0  0  0  0  0  0  0  0
   -3.3899   -4.1453   -0.9761 H   0  0  0  0  0  0  0  0  0  0  0  0
   -2.1421   -2.9370    0.2943 C   0  0  0  0  0  0  0  0  0  0  0  0
   -1.4302   -3.2545    1.2287 O   0  0  0  0  0  0  0  0  0  0  0  0
   -1.7879   -1.8887   -0.5320 N   0  0  0  0  0  0  0  0  0  0  0  0
   -2.3818   -1.7213   -1.3379 H   0  0  0  0  0  0  0  0  0  0  0  0
   -0.5574   -1.0840   -0.3813 C   0  0  1  0  0  0  0  0  0  0  0  0
    0.3204   -1.7358   -0.4486 H   0  0  0  0  0  0  0  0  0  0  0  0
   -0.5431   -0.0987   -1.5724 C   0  0  0  0  0  0  0  0  0  0  0  0
   -0.3334   -0.6504   -2.4940 H   0  0  0  0  0  0  0  0  0  0  0  0
   -1.5475    0.3260   -1.6647 H   0  0  0  0  0  0  0  0  0  0  0  0
    0.4164    1.0662   -1.4811 C   0  0  0  0  0  0  0  0  0  0  0  0
    1.6306    1.1254   -0.8343 C   0  0  0  0  0  0  0  0  0  0  0  0
    2.0888    0.3199   -0.2620 H   0  0  0  0  0  0  0  0  0  0  0  0
    2.1545    2.4006   -1.0256 N   0  0  0  0  0  0  0  0  0  0  0  0
    3.0263    2.7389   -0.6239 H   0  0  0  0  0  0  0  0  0  0  0  0
    1.2966    3.1651   -1.7965 C   0  0  0  0  0  0  0  0  0  0  0  0
    1.3807    4.4818   -2.2486 C   0  0  0  0  0  0  0  0  0  0  0  0
    2.2410    5.0913   -1.9956 H   0  0  0  0  0  0  0  0  0  0  0  0
    0.3420    5.0023   -3.0327 C   0  0  0  0  0  0  0  0  0  0  0  0
    0.3951    6.0256   -3.3922 H   0  0  0  0  0  0  0  0  0  0  0  0
   -0.7646    4.2019   -3.3547 C   0  0  0  0  0  0  0  0  0  0  0  0
   -1.5662    4.6078   -3.9642 H   0  0  0  0  0  0  0  0  0  0  0  0
   -0.8386    2.8799   -2.8924 C   0  0  0  0  0  0  0  0  0  0  0  0
   -1.6930    2.2607   -3.1423 H   0  0  0  0  0  0  0  0  0  0  0  0
    0.2009    2.3677   -2.1071 C   0  0  0  0  0  0  0  0  0  0  0  0
   -0.4888   -0.3638    0.9899 C   0  0  0  0  0  0  0  0  0  0  0  0
    0.5587   -0.3392    1.6259 O   0  0  0  0  0  0  0  0  0  0  0  0
   -1.5988    0.2931    1.4917 N   0  0  0  0  0  0  0  0  0  0  0  0
   -2.4629    0.2074    0.9688 H   0  0  0  0  0  0  0  0  0  0  0  0
   -1.6102    0.9730    2.7796 C   0  0  0  0  0  0  0  0  0  0  0  0
   -0.8519    1.7629    2.8011 H   0  0  0  0  0  0  0  0  0  0  0  0
   -2.5884    1.4290    2.9585 H   0  0  0  0  0  0  0  0  0  0  0  0
   -1.4048    0.2632    3.5879 H   0  0  0  0  0  0  0  0  0  0  0  0
  1  2  1  0  0  0  0
  2  3  1  0  0  0  0
  2  4  1  0  0  0  0
  2  5  1  0  0  0  0
  5  6  2  0  0  0  0
  5  7  1  0  0  0  0
  7  8  1  0  0  0  0
  7  9  1  0  0  0  0
  9 10  1  0  0  0  0
  9 11  1  0  0  0  0
  9 29  1  0  0  0  0
 11 12  1  0  0  0  0
 11 13  1  0  0  0  0
 11 14  1  0  0  0  0
 14 15  2  0  0  0  0
 14 28  1  0  0  0  0
 15 16  1  0  0  0  0
 15 17  1  0  0  0  0
 17 18  1  0  0  0  0
 17 19  1  0  0  0  0
 19 20  1  0  0  0  0
 19 28  2  0  0  0  0
 20 21  1  0  0  0  0
 20 22  2  0  0  0  0
 22 23  1  0  0  0  0
 22 24  1  0  0  0  0
 24 25  1  0  0  0  0
 24 26  2  0  0  0  0
 26 27  1  0  0  0  0
 26 28  1  0  0  0  0
 29 30  2  0  0  0  0
 29 31  1  0  0  0  0
 31 32  1  0  0  0  0
 31 33  1  0  0  0  0
 33 34  1  0  0  0  0
 33 35  1  0  0  0  0
 33 36  1  0  0  0  0
M  END
$$$$

  -OEChem-03222214083D

 36 37  0     1  0  0  0  0  0999 V2000
   -3.4560   -4.5596    0.8191 H   0  0  0  0  0  0  0  0  0  0  0  0
   -3.3778   -3.7596    0.0771 C   0  0  0  0  0  0  0  0  0  0  0  0
   -4.2556   -3.1149    0.1623 H   0  0  0  0  0  0  0  0  0  0  0  0
   -3.3557   -4.2068   -0.9196 H   0  0  0  0  0  0  0  0  0  0  0  0
   -2.1149   -2.9529    0.3130 C   0  0  0  0  0  0  0  0  0  0  0  0
   -1.3777   -3.2401    1.2374 O   0  0  0  0  0  0  0  0  0  0  0  0
   -1.8048   -1.9044   -0.5305 N   0  0  0  0  0  0  0  0  0  0  0  0
   -2.4196   -1.7580   -1.3247 H   0  0  0  0  0  0  0  0  0  0  0  0
   -0.5920   -1.0696   -0.4114 C   0  0  1  0  0  0  0  0  0  0  0  0
    0.2933   -1.7103   -0.4840 H   0  0  0  0  0  0  0  0  0  0  0  0
   -0.6009   -0.1047   -1.6165 C   0  0  0  0  0  0  0  0  0  0  0  0
   -0.3736   -0.6617   -2.5307 H   0  0  0  0  0  0  0  0  0  0  0  0
   -1.6116    0.3006   -1.7212 H   0  0  0  0  0  0  0  0  0  0  0  0
    0.3493    1.0635   -1.5088 C   0  0  0  0  0  0  0  0  0  0  0  0
    1.6603    1.0248   -1.0933 C   0  0  0  0  0  0  0  0  0  0  0  0
    2.1891    0.1391   -0.7454 H   0  0  0  0  0  0  0  0  0  0  0  0
    2.1658    2.3200   -1.1617 N   0  0  0  0  0  0  0  0  0  0  0  0
    3.0960    2.6003   -0.8583 H   0  0  0  0  0  0  0  0  0  0  0  0
    1.1962    3.1927   -1.6250 C   0  0  0  0  0  0  0  0  0  0  0  0
    1.2242    4.5675   -1.8572 C   0  0  0  0  0  0  0  0  0  0  0  0
    2.1290    5.1338   -1.6666 H   0  0  0  0  0  0  0  0  0  0  0  0
    0.0717    5.2026   -2.3399 C   0  0  0  0  0  0  0  0  0  0  0  0
    0.0805    6.2725   -2.5257 H   0  0  0  0  0  0  0  0  0  0  0  0
   -1.0921    4.4573   -2.5826 C   0  0  0  0  0  0  0  0  0  0  0  0
   -1.9832    4.9524   -2.9569 H   0  0  0  0  0  0  0  0  0  0  0  0
   -1.1088    3.0756   -2.3427 C   0  0  0  0  0  0  0  0  0  0  0  0
   -2.0088    2.5011   -2.5304 H   0  0  0  0  0  0  0  0  0  0  0  0
    0.0454    2.4478   -1.8594 C   0  0  0  0  0  0  0  0  0  0  0  0
   -0.4916   -0.3258    0.9439 C   0  0  0  0  0  0  0  0  0  0  0  0
    0.5809   -0.2637    1.5339 O   0  0  0  0  0  0  0  0  0  0  0  0
   -1.5951    0.3202    1.4730 N   0  0  0  0  0  0  0  0  0  0  0  0
   -2.4765    0.2053    0.9863 H   0  0  0  0  0  0  0  0  0  0  0  0
   -1.5706    1.0265    2.7463 C   0  0  0  0  0  0  0  0  0  0  0  0
   -0.8180    1.8220    2.7270 H   0  0  0  0  0  0  0  0  0  0  0  0
   -2.5461    1.4794    2.9469 H   0  0  0  0  0  0  0  0  0  0  0  0
   -1.3337    0.3351    3.5618 H   0  0  0  0  0  0  0  0  0  0  0  0
  1  2  1  0  0  0  0
  2  3  1  0  0  0  0
  2  4  1  0  0  0  0
  2  5  1  0  0  0  0
  5  6  2  0  0  0  0
  5  7  1  0  0  0  0
  7  8  1  0  0  0  0
  7  9  1  0  0  0  0
  9 10  1  0  0  0  0
  9 11  1  0  0  0  0
  9 29  1  0  0  0  0
 11 12  1  0  0  0  0
 11 13  1  0  0  0  0
 11 14  1  0  0  0  0
 14 15  2  0  0  0  0
 14 28  1  0  0  0  0
 15 16  1  0  0  0  0
 15 17  1  0  0  0  0
 17 18  1  0  0  0  0
 17 19  1  0  0  0  0
 19 20  1  0  0  0  0
 19 28  2  0  0  0  0
 20 21  1  0  0  0  0
 20 22  2  0  0  0  0
 22 23  1  0  0  0  0
 22 24  1  0  0  0  0
 24 25  1  0  0  0  0
 24 26  2  0  0  0  0
 26 27  1  0  0  0  0
 26 28  1  0  0  0  0
 29 30  2  0  0  0  0
 29 31  1  0  0  0  0
 31 32  1  0  0  0  0
 31 33  1  0  0  0  0
 33 34  1  0  0  0  0
 33 35  1  0  0  0  0
 33 36  1  0  0  0  0
M  END
$$$$

  -OEChem-03222214083D

 36 37  0     1  0  0  0  0  0999 V2000
   -3.4236   -4.5761    0.8509 H   0  0  0  0  0  0  0  0  0  0  0  0
   -3.3524   -3.7879    0.0958 C   0  0  0  0  0  0  0  0  0  0  0  0
   -4.2402   -3.1548    0.1645 H   0  0  0  0  0  0  0  0  0  0  0  0
   -3.3175   -4.2514   -0.8931 H   0  0  0  0  0  0  0  0  0  0  0  0
   -2.1030   -2.9589    0.3258 C   0  0  0  0  0  0  0  0  0  0  0  0
   -1.3606   -3.2262    1.2519 O   0  0  0  0  0  0  0  0  0  0  0  0
   -1.8091   -1.9155   -0.5293 N   0  0  0  0  0  0  0  0  0  0  0  0
   -2.4268   -1.7877   -1.3244 H   0  0  0  0  0  0  0  0  0  0  0  0
   -0.6054   -1.0661   -0.4265 C   0  0  1  0  0  0  0  0  0  0  0  0
    0.2850   -1.7001   -0.4981 H   0  0  0  0  0  0  0  0  0  0  0  0
   -0.6292   -0.1177   -1.6427 C   0  0  0  0  0  0  0  0  0  0  0  0
   -0.3838   -0.6849   -2.5458 H   0  0  0  0  0  0  0  0  0  0  0  0
   -1.6423    0.2743   -1.7690 H   0  0  0  0  0  0  0  0  0  0  0  0
    0.3154    1.0513   -1.5277 C   0  0  0  0  0  0  0  0  0  0  0  0
    1.6805    0.9768   -1.3847 C   0  0  0  0  0  0  0  0  0  0  0  0
    2.2595    0.0591   -1.3034 H   0  0  0  0  0  0  0  0  0  0  0  0
    2.1706    2.2787   -1.3300 N   0  0  0  0  0  0  0  0  0  0  0  0
    3.1430    2.5308   -1.1677 H   0  0  0  0  0  0  0  0  0  0  0  0
    1.1333    3.1903   -1.4355 C   0  0  0  0  0  0  0  0  0  0  0  0
    1.1237    4.5850   -1.4259 C   0  0  0  0  0  0  0  0  0  0  0  0
    2.0521    5.1358   -1.3226 H   0  0  0  0  0  0  0  0  0  0  0  0
   -0.0979    5.2607   -1.5521 C   0  0  0  0  0  0  0  0  0  0  0  0
   -0.1191    6.3464   -1.5472 H   0  0  0  0  0  0  0  0  0  0  0  0
   -1.2921    4.5359   -1.6832 C   0  0  0  0  0  0  0  0  0  0  0  0
   -2.2366    5.0626   -1.7796 H   0  0  0  0  0  0  0  0  0  0  0  0
   -1.2698    3.1336   -1.6881 C   0  0  0  0  0  0  0  0  0  0  0  0
   -2.1935    2.5747   -1.7860 H   0  0  0  0  0  0  0  0  0  0  0  0
   -0.0462    2.4649   -1.5640 C   0  0  0  0  0  0  0  0  0  0  0  0
   -0.4904   -0.3008    0.9151 C   0  0  0  0  0  0  0  0  0  0  0  0
    0.5931   -0.2121    1.4807 O   0  0  0  0  0  0  0  0  0  0  0  0
   -1.5906    0.3458    1.4508 N   0  0  0  0  0  0  0  0  0  0  0  0
   -2.4787    0.2199    0.9795 H   0  0  0  0  0  0  0  0  0  0  0  0
   -1.5402    1.1107    2.6891 C   0  0  0  0  0  0  0  0  0  0  0  0
   -0.7998    1.9141    2.6116 H   0  0  0  0  0  0  0  0  0  0  0  0
   -2.5161    1.5594    2.8964 H   0  0  0  0  0  0  0  0  0  0  0  0
   -1.2705    0.4612    3.5285 H   0  0  0  0  0  0  0  0  0  0  0  0
  1  2  1  0  0  0  0
  2  3  1  0  0  0  0
  2  4  1  0  0  0  0
  2  5  1  0  0  0  0
  5  6  2  0  0  0  0
  5  7  1  0  0  0  0
  7  8  1  0  0  0  0
  7  9  1  0  0  0  0
  9 10  1  0  0  0  0
  9 11  1  0  0  0  0
  9 29  1  0  0  0  0
 11 12  1  0  0  0  0
 11 13  1  0  0  0  0
 11 14  1  0  0  0  0
 14 15  2  0  0  0  0
 14 28  1  0  0  0  0
 15 16  1  0  0  0  0
 15 17  1  0  0  0  0
 17 18  1  0  0  0  0
 17 19  1  0  0  0  0
 19 20  1  0  0  0  0
 19 28  2  0  0  0  0
 20 21  1  0  0  0  0
 20 22  2  0  0  0  0
 22 23  1  0  0  0  0
 22 24  1  0  0  0  0
 24 25  1  0  0  0  0
 24 26  2  0  0  0  0
 26 27  1  0  0  0  0
 26 28  1  0  0  0  0
 29 30  2  0  0  0  0
 29 31  1  0  0  0  0
 31 32  1  0  0  0  0
 31 33  1  0  0  0  0
 33 34  1  0  0  0  0
 33 35  1  0  0  0  0
 33 36  1  0  0  0  0
M  END
$$$$

  -OEChem-03222214083D

 36 37  0     1  0  0  0  0  0999 V2000
   -3.4046   -4.5640    0.8983 H   0  0  0  0  0  0  0  0  0  0  0  0
   -3.3331   -3.7949    0.1236 C   0  0  0  0  0  0  0  0  0  0  0  0
   -4.2271   -3.1683    0.1681 H   0  0  0  0  0  0  0  0  0  0  0  0
   -3.2851   -4.2837   -0.8523 H   0  0  0  0  0  0  0  0  0  0  0  0
   -2.0931   -2.9489    0.3431 C   0  0  0  0  0  0  0  0  0  0  0  0
   -1.3500   -3.1953    1.2744 O   0  0  0  0  0  0  0  0  0  0  0  0
   -1.8073   -1.9155   -0.5268 N   0  0  0  0  0  0  0  0  0  0  0  0
   -2.4209   -1.8094   -1.3281 H   0  0  0  0  0  0  0  0  0  0  0  0
   -0.6075   -1.0586   -0.4383 C   0  0  1  0  0  0  0  0  0  0  0  0
    0.2878   -1.6862   -0.5037 H   0  0  0  0  0  0  0  0  0  0  0  0
   -0.6427   -0.1244   -1.6648 C   0  0  0  0  0  0  0  0  0  0  0  0
   -0.3863   -0.7047   -2.5566 H   0  0  0  0  0  0  0  0  0  0  0  0
   -1.6564    0.2620   -1.8073 H   0  0  0  0  0  0  0  0  0  0  0  0
    0.2987    1.0461   -1.5575 C   0  0  0  0  0  0  0  0  0  0  0  0
    1.6635    0.9977   -1.7063 C   0  0  0  0  0  0  0  0  0  0  0  0
    2.2469    0.1020   -1.9068 H   0  0  0  0  0  0  0  0  0  0  0  0
    2.1526    2.2896   -1.5308 N   0  0  0  0  0  0  0  0  0  0  0  0
    3.1369    2.5478   -1.5262 H   0  0  0  0  0  0  0  0  0  0  0  0
    1.1150    3.1656   -1.2574 C   0  0  0  0  0  0  0  0  0  0  0  0
    1.1053    4.5350   -0.9938 C   0  0  0  0  0  0  0  0  0  0  0  0
    2.0334    5.0956   -0.9871 H   0  0  0  0  0  0  0  0  0  0  0  0
   -0.1158    5.1723   -0.7339 C   0  0  0  0  0  0  0  0  0  0  0  0
   -0.1364    6.2377   -0.5246 H   0  0  0  0  0  0  0  0  0  0  0  0
   -1.3092    4.4343   -0.7385 C   0  0  0  0  0  0  0  0  0  0  0  0
   -2.2522    4.9307   -0.5313 H   0  0  0  0  0  0  0  0  0  0  0  0
   -1.2865    3.0575   -1.0046 C   0  0  0  0  0  0  0  0  0  0  0  0
   -2.2066    2.4843   -1.0009 H   0  0  0  0  0  0  0  0  0  0  0  0
   -0.0639    2.4288   -1.2661 C   0  0  0  0  0  0  0  0  0  0  0  0
   -0.4936   -0.2754    0.8934 C   0  0  0  0  0  0  0  0  0  0  0  0
    0.5912   -0.1635    1.4514 O   0  0  0  0  0  0  0  0  0  0  0  0
   -1.5982    0.3713    1.4208 N   0  0  0  0  0  0  0  0  0  0  0  0
   -2.4872    0.2246    0.9578 H   0  0  0  0  0  0  0  0  0  0  0  0
   -1.5454    1.1806    2.6304 C   0  0  0  0  0  0  0  0  0  0  0  0
   -0.8493    2.0159    2.4997 H   0  0  0  0  0  0  0  0  0  0  0  0
   -2.5351    1.5878    2.8576 H   0  0  0  0  0  0  0  0  0  0  0  0
   -1.2157    0.5752    3.4814 H   0  0  0  0  0  0  0  0  0  0  0  0
  1  2  1  0  0  0  0
  2  3  1  0  0  0  0
  2  4  1  0  0  0  0
  2  5  1  0  0  0  0
  5  6  2  0  0  0  0
  5  7  1  0  0  0  0
  7  8  1  0  0  0  0
  7  9  1  0  0  0  0
  9 10  1  0  0  0  0
  9 11  1  0  0  0  0
  9 29  1  0  0  0  0
 11 12  1  0  0  0  0
 11 13  1  0  0  0  0
 11 14  1  0  0  0  0
 14 15  2  0  0  0  0
 14 28  1  0  0  0  0
 15 16  1  0  0  0  0
 15 17  1  0  0  0  0
 17 18  1  0  0  0  0
 17 19  1  0  0  0  0
 19 20  1  0  0  0  0
 19 28  2  0  0  0  0
 20 21  1  0  0  0  0
 20 22  2  0  0  0  0
 22 23  1  0  0  0  0
 22 24  1  0  0  0  0
 24 25  1  0  0  0  0
 24 26  2  0  0  0  0
 26 27  1  0  0  0  0
 26 28  1  0  0  0  0
 29 30  2  0  0  0  0
 29 31  1  0  0  0  0
 31 32  1  0  0  0  0
 31 33  1  0  0  0  0
 33 34  1  0  0  0  0
 33 35  1  0  0  0  0
 33 36  1  0  0  0  0
M  END
$$$$

  -OEChem-03222214083D

 36 37  0     1  0  0  0  0  0999 V2000
   -3.3935   -4.6005    0.8433 H   0  0  0  0  0  0  0  0  0  0  0  0
   -3.3394   -3.7984    0.1014 C   0  0  0  0  0  0  0  0  0  0  0  0
   -4.2314   -3.1743    0.1935 H   0  0  0  0  0  0  0  0  0  0  0  0
   -3.3141   -4.2443   -0.8958 H   0  0  0  0  0  0  0  0  0  0  0  0
   -2.0941   -2.9624    0.3281 C   0  0  0  0  0  0  0  0  0  0  0  0
   -1.3390   -3.2385    1.2411 O   0  0  0  0  0  0  0  0  0  0  0  0
   -1.8224   -1.8998   -0.5109 N   0  0  0  0  0  0  0  0  0  0  0  0
   -2.4533   -1.7627   -1.2940 H   0  0  0  0  0  0  0  0  0  0  0  0
   -0.6208   -1.0457   -0.4149 C   0  0  1  0  0  0  0  0  0  0  0  0
    0.2705   -1.6769   -0.5014 H   0  0  0  0  0  0  0  0  0  0  0  0
   -0.6462   -0.0897   -1.6263 C   0  0  0  0  0  0  0  0  0  0  0  0
   -0.3963   -0.6614   -2.5254 H   0  0  0  0  0  0  0  0  0  0  0  0
   -1.6566    0.3082   -1.7622 H   0  0  0  0  0  0  0  0  0  0  0  0
    0.2999    1.0773   -1.5062 C   0  0  0  0  0  0  0  0  0  0  0  0
    1.6058    1.0925   -1.9333 C   0  0  0  0  0  0  0  0  0  0  0  0
    2.1377    0.2518   -2.3725 H   0  0  0  0  0  0  0  0  0  0  0  0
    2.1179    2.3635   -1.6859 N   0  0  0  0  0  0  0  0  0  0  0  0
    3.0810    2.6508   -1.8457 H   0  0  0  0  0  0  0  0  0  0  0  0
    1.1469    3.1721   -1.1188 C   0  0  0  0  0  0  0  0  0  0  0  0
    1.1794    4.5032   -0.7039 C   0  0  0  0  0  0  0  0  0  0  0  0
    2.0908    5.0825   -0.8014 H   0  0  0  0  0  0  0  0  0  0  0  0
    0.0219    5.0782   -0.1613 C   0  0  0  0  0  0  0  0  0  0  0  0
    0.0342    6.1131    0.1673 H   0  0  0  0  0  0  0  0  0  0  0  0
   -1.1510    4.3176   -0.0420 C   0  0  0  0  0  0  0  0  0  0  0  0
   -2.0456    4.7646    0.3799 H   0  0  0  0  0  0  0  0  0  0  0  0
   -1.1701    2.9801   -0.4619 C   0  0  0  0  0  0  0  0  0  0  0  0
   -2.0738    2.3896   -0.3657 H   0  0  0  0  0  0  0  0  0  0  0  0
   -0.0097    2.4103   -0.9973 C   0  0  0  0  0  0  0  0  0  0  0  0
   -0.4926   -0.3128    0.9429 C   0  0  0  0  0  0  0  0  0  0  0  0
    0.5985   -0.2123    1.4901 O   0  0  0  0  0  0  0  0  0  0  0  0
   -1.5943    0.3084    1.5059 N   0  0  0  0  0  0  0  0  0  0  0  0
   -2.4953    0.1140    1.0855 H   0  0  0  0  0  0  0  0  0  0  0  0
   -1.5375    1.0284    2.7707 C   0  0  0  0  0  0  0  0  0  0  0  0
   -0.7990    1.8355    2.7167 H   0  0  0  0  0  0  0  0  0  0  0  0
   -2.5122    1.4689    3.0005 H   0  0  0  0  0  0  0  0  0  0  0  0
   -1.2608    0.3501    3.5846 H   0  0  0  0  0  0  0  0  0  0  0  0
  1  2  1  0  0  0  0
  2  3  1  0  0  0  0
  2  4  1  0  0  0  0
  2  5  1  0  0  0  0
  5  6  2  0  0  0  0
  5  7  1  0  0  0  0
  7  8  1  0  0  0  0
  7  9  1  0  0  0  0
  9 10  1  0  0  0  0
  9 11  1  0  0  0  0
  9 29  1  0  0  0  0
 11 12  1  0  0  0  0
 11 13  1  0  0  0  0
 11 14  1  0  0  0  0
 14 15  2  0  0  0  0
 14 28  1  0  0  0  0
 15 16  1  0  0  0  0
 15 17  1  0  0  0  0
 17 18  1  0  0  0  0
 17 19  1  0  0  0  0
 19 20  1  0  0  0  0
 19 28  2  0  0  0  0
 20 21  1  0  0  0  0
 20 22  2  0  0  0  0
 22 23  1  0  0  0  0
 22 24  1  0  0  0  0
 24 25  1  0  0  0  0
 24 26  2  0  0  0  0
 26 27  1  0  0  0  0
 26 28  1  0  0  0  0
 29 30  2  0  0  0  0
 29 31  1  0  0  0  0
 31 32  1  0  0  0  0
 31 33  1  0  0  0  0
 33 34  1  0  0  0  0
 33 35  1  0  0  0  0
 33 36  1  0  0  0  0
M  END
$$$$

  -OEChem-03222214083D

 36 37  0     1  0  0  0  0  0999 V2000
   -3.4507   -4.6391    0.7043 H   0  0  0  0  0  0  0  0  0  0  0  0
   -3.3846   -3.8011    0.0044 C   0  0  0  0  0  0  0  0  0  0  0  0
   -4.2721   -3.1748    0.1218 H   0  0  0  0  0  0  0  0  0  0  0  0
   -3.3559   -4.1960   -1.0140 H   0  0  0  0  0  0  0  0  0  0  0  0
   -2.1338   -2.9886    0.2815 C   0  0  0  0  0  0  0  0  0  0  0  0
   -1.3819   -3.3230    1.1774 O   0  0  0  0  0  0  0  0  0  0  0  0
   -1.8550   -1.8798   -0.4927 N   0  0  0  0  0  0  0  0  0  0  0  0
   -2.4855   -1.6937   -1.2657 H   0  0  0  0  0  0  0  0  0  0  0  0
   -0.6391   -1.0505   -0.3625 C   0  0  1  0  0  0  0  0  0  0  0  0
    0.2350   -1.7016   -0.4751 H   0  0  0  0  0  0  0  0  0  0  0  0
   -0.6233   -0.0630   -1.5512 C   0  0  0  0  0  0  0  0  0  0  0  0
   -0.3849   -0.6217   -2.4617 H   0  0  0  0  0  0  0  0  0  0  0  0
   -1.6239    0.3605   -1.6812 H   0  0  0  0  0  0  0  0  0  0  0  0
    0.3383    1.0916   -1.4125 C   0  0  0  0  0  0  0  0  0  0  0  0
    1.5338    1.1878   -2.0848 C   0  0  0  0  0  0  0  0  0  0  0  0
    1.9660    0.4154   -2.7167 H   0  0  0  0  0  0  0  0  0  0  0  0
    2.0887    2.4314   -1.7988 N   0  0  0  0  0  0  0  0  0  0  0  0
    2.9960    2.7608   -2.1210 H   0  0  0  0  0  0  0  0  0  0  0  0
    1.2315    3.1660   -0.9981 C   0  0  0  0  0  0  0  0  0  0  0  0
    1.3330    4.4605   -0.4882 C   0  0  0  0  0  0  0  0  0  0  0  0
    2.2177    5.0565   -0.6824 H   0  0  0  0  0  0  0  0  0  0  0  0
    0.2753    4.9798    0.2701 C   0  0  0  0  0  0  0  0  0  0  0  0
    0.3405    5.9855    0.6743 H   0  0  0  0  0  0  0  0  0  0  0  0
   -0.8705    4.2042    0.4993 C   0  0  0  0  0  0  0  0  0  0  0  0
   -1.6930    4.6114    1.0792 H   0  0  0  0  0  0  0  0  0  0  0  0
   -0.9570    2.9039   -0.0177 C   0  0  0  0  0  0  0  0  0  0  0  0
   -1.8475    2.3112    0.1513 H   0  0  0  0  0  0  0  0  0  0  0  0
    0.1114    2.3779   -0.7527 C   0  0  0  0  0  0  0  0  0  0  0  0
   -0.4832   -0.4064    1.0365 C   0  0  0  0  0  0  0  0  0  0  0  0
    0.6166   -0.3522    1.5720 O   0  0  0  0  0  0  0  0  0  0  0  0
   -1.5669    0.1925    1.6559 N   0  0  0  0  0  0  0  0  0  0  0  0
   -2.4782    0.0040    1.2548 H   0  0  0  0  0  0  0  0  0  0  0  0
   -1.4875    0.7808    2.9866 C   0  0  0  0  0  0  0  0  0  0  0  0
   -0.7335    1.5750    3.0089 H   0  0  0  0  0  0  0  0  0  0  0  0
   -2.4519    1.2141    3.2675 H   0  0  0  0  0  0  0  0  0  0  0  0
   -1.2189    0.0189    3.7261 H   0  0  0  0  0  0  0  0  0  0  0  0
  1  2  1  0  0  0  0
  2  3  1  0  0  0  0
  2  4  1  0  0  0  0
  2  5  1  0  0  0  0
  5  6  2  0  0  0  0
  5  7  1  0  0  0  0
  7  8  1  0  0  0  0
  7  9  1  0  0  0  0
  9 10  1  0  0  0  0
  9 11  1  0  0  0  0
  9 29  1  0  0  0  0
 11 12  1  0  0  0  0
 11 13  1  0  0  0  0
 11 14  1  0  0  0  0
 14 15  2  0  0  0  0
 14 28  1  0  0  0  0
 15 16  1  0  0  0  0
 15 17  1  0  0  0  0
 17 18  1  0  0  0  0
 17 19  1  0  0  0  0
 19 20  1  0  0  0  0
 19 28  2  0  0  0  0
 20 21  1  0  0  0  0
 20 22  2  0  0  0  0
 22 23  1  0  0  0  0
 22 24  1  0  0  0  0
 24 25  1  0  0  0  0
 24 26  2  0  0  0  0
 26 27  1  0  0  0  0
 26 28  1  0  0  0  0
 29 30  2  0  0  0  0
 29 31  1  0  0  0  0
 31 32  1  0  0  0  0
 31 33  1  0  0  0  0
 33 34  1  0  0  0  0
 33 35  1  0  0  0  0
 33 36  1  0  0  0  0
M  END
$$$$

  -OEChem-03222214083D

 36 37  0     1  0  0  0  0  0999 V2000
   -3.5443   -4.6593    0.5421 H   0  0  0  0  0  0  0  0  0  0  0  0
   -3.4547   -3.7870   -0.1117 C   0  0  0  0  0  0  0  0  0  0  0  0
   -4.3281   -3.1474    0.0356 H   0  0  0  0  0  0  0  0  0  0  0  0
   -3.4298   -4.1275   -1.1496 H   0  0  0  0  0  0  0  0  0  0  0  0
   -2.1866   -3.0206    0.2139 C   0  0  0  0  0  0  0  0  0  0  0  0
   -1.4424   -3.4260    1.0867 O   0  0  0  0  0  0  0  0  0  0  0  0
   -1.8842   -1.8708   -0.4887 N   0  0  0  0  0  0  0  0  0  0  0  0
   -2.5117   -1.6223   -1.2467 H   0  0  0  0  0  0  0  0  0  0  0  0
   -0.6508   -1.0760   -0.3101 C   0  0  1  0  0  0  0  0  0  0  0  0
    0.2027   -1.7512   -0.4387 H   0  0  0  0  0  0  0  0  0  0  0  0
   -0.5705   -0.0611   -1.4761 C   0  0  0  0  0  0  0  0  0  0  0  0
   -0.3455   -0.6115   -2.3953 H   0  0  0  0  0  0  0  0  0  0  0  0
   -1.5578    0.3932   -1.6039 H   0  0  0  0  0  0  0  0  0  0  0  0
    0.4095    1.0813   -1.3259 C   0  0  0  0  0  0  0  0  0  0  0  0
    1.4480    1.2722   -2.2089 C   0  0  0  0  0  0  0  0  0  0  0  0
    1.7382    0.5806   -2.9967 H   0  0  0  0  0  0  0  0  0  0  0  0
    2.0693    2.4770   -1.9036 N   0  0  0  0  0  0  0  0  0  0  0  0
    2.8976    2.8493   -2.3627 H   0  0  0  0  0  0  0  0  0  0  0  0
    1.3754    3.1253   -0.9005 C   0  0  0  0  0  0  0  0  0  0  0  0
    1.5827    4.3769   -0.3215 C   0  0  0  0  0  0  0  0  0  0  0  0
    2.4319    4.9830   -0.6163 H   0  0  0  0  0  0  0  0  0  0  0  0
    0.6715    4.8442    0.6327 C   0  0  0  0  0  0  0  0  0  0  0  0
    0.8182    5.8163    1.0935 H   0  0  0  0  0  0  0  0  0  0  0  0
   -0.4414    4.0642    0.9755 C   0  0  0  0  0  0  0  0  0  0  0  0
   -1.1605    4.4353    1.6992 H   0  0  0  0  0  0  0  0  0  0  0  0
   -0.6330    2.8080    0.3823 C   0  0  0  0  0  0  0  0  0  0  0  0
   -1.5146    2.2336    0.6285 H   0  0  0  0  0  0  0  0  0  0  0  0
    0.3026    2.3152   -0.5355 C   0  0  0  0  0  0  0  0  0  0  0  0
   -0.4879   -0.5291    1.1282 C   0  0  0  0  0  0  0  0  0  0  0  0
    0.6117   -0.5221    1.6662 O   0  0  0  0  0  0  0  0  0  0  0  0
   -1.5626    0.0461    1.7847 N   0  0  0  0  0  0  0  0  0  0  0  0
   -2.4758   -0.1111    1.3739 H   0  0  0  0  0  0  0  0  0  0  0  0
   -1.4816    0.5173    3.1615 C   0  0  0  0  0  0  0  0  0  0  0  0
   -0.7027    1.2812    3.2595 H   0  0  0  0  0  0  0  0  0  0  0  0
   -2.4351    0.9581    3.4674 H   0  0  0  0  0  0  0  0  0  0  0  0
   -1.2480   -0.3129    3.8365 H   0  0  0  0  0  0  0  0  0  0  0  0
  1  2  1  0  0  0  0
  2  3  1  0  0  0  0
  2  4  1  0  0  0  0
  2  5  1  0  0  0  0
  5  6  2  0  0  0  0
  5  7  1  0  0  0  0
  7  8  1  0  0  0  0
  7  9  1  0  0  0  0
  9 10  1  0  0  0  0
  9 11  1  0  0  0  0
  9 29  1  0  0  0  0
 11 12  1  0  0  0  0
 11 13  1  0  0  0  0
 11 14  1  0  0  0  0
 14 15  2  0  0  0  0
 14 28  1  0  0  0  0
 15 16  1  0  0  0  0
 15 17  1  0  0  0  0
 17 18  1  0  0  0  0
 17 19  1  0  0  0  0
 19 20  1  0  0  0  0
 19 28  2  0  0  0  0
 20 21  1  0  0  0  0
 20 22  2  0  0  0  0
 22 23  1  0  0  0  0
 22 24  1  0  0  0  0
 24 25  1  0  0  0  0
 24 26  2  0  0  0  0
 26 27  1  0  0  0  0
 26 28  1  0  0  0  0
 29 30  2  0  0  0  0
 29 31  1  0  0  0  0
 31 32  1  0  0  0  0
 31 33  1  0  0  0  0
 33 34  1  0  0  0  0
 33 35  1  0  0  0  0
 33 36  1  0  0  0  0
M  END
$$$$

  -OEChem-03222214083D

 36 37  0     1  0  0  0  0  0999 V2000
   -3.6029   -4.6868    0.3911 H   0  0  0  0  0  0  0  0  0  0  0  0
   -3.4811   -3.7951   -0.2308 C   0  0  0  0  0  0  0  0  0  0  0  0
   -4.3571   -3.1550   -0.1020 H   0  0  0  0  0  0  0  0  0  0  0  0
   -3.4119   -4.1042   -1.2766 H   0  0  0  0  0  0  0  0  0  0  0  0
   -2.2247   -3.0467    0.1730 C   0  0  0  0  0  0  0  0  0  0  0  0
   -1.5261   -3.4810    1.0690 O   0  0  0  0  0  0  0  0  0  0  0  0
   -1.8780   -1.8855   -0.4905 N   0  0  0  0  0  0  0  0  0  0  0  0
   -2.4694   -1.6152   -1.2698 H   0  0  0  0  0  0  0  0  0  0  0  0
   -0.6447   -1.1052   -0.2434 C   0  0  1  0  0  0  0  0  0  0  0  0
    0.2142   -1.7786   -0.3410 H   0  0  0  0  0  0  0  0  0  0  0  0
   -0.5124   -0.0719   -1.3908 C   0  0  0  0  0  0  0  0  0  0  0  0
   -0.2886   -0.6280   -2.3067 H   0  0  0  0  0  0  0  0  0  0  0  0
   -1.4983    0.3837   -1.5262 H   0  0  0  0  0  0  0  0  0  0  0  0
    0.4515    1.1003   -1.2753 C   0  0  0  0  0  0  0  0  0  0  0  0
    1.2503    1.3891   -2.3619 C   0  0  0  0  0  0  0  0  0  0  0  0
    1.3221    0.7879   -3.2653 H   0  0  0  0  0  0  0  0  0  0  0  0
    1.9650    2.5479   -2.1035 N   0  0  0  0  0  0  0  0  0  0  0  0
    2.6579    2.9690   -2.7183 H   0  0  0  0  0  0  0  0  0  0  0  0
    1.5701    3.0780   -0.8944 C   0  0  0  0  0  0  0  0  0  0  0  0
    1.9849    4.2568   -0.2757 C   0  0  0  0  0  0  0  0  0  0  0  0
    2.7549    4.8719   -0.7275 H   0  0  0  0  0  0  0  0  0  0  0  0
    1.3853    4.6386    0.9277 C   0  0  0  0  0  0  0  0  0  0  0  0
    1.6952    5.5515    1.4270 H   0  0  0  0  0  0  0  0  0  0  0  0
    0.3698    3.8470    1.4755 C   0  0  0  0  0  0  0  0  0  0  0  0
   -0.1130    4.1484    2.3999 H   0  0  0  0  0  0  0  0  0  0  0  0
   -0.0312    2.6663    0.8346 C   0  0  0  0  0  0  0  0  0  0  0  0
   -0.8399    2.1043    1.2667 H   0  0  0  0  0  0  0  0  0  0  0  0
    0.5928    2.2435   -0.3474 C   0  0  0  0  0  0  0  0  0  0  0  0
   -0.5866   -0.6125    1.2198 C   0  0  0  0  0  0  0  0  0  0  0  0
    0.4661   -0.6282    1.8433 O   0  0  0  0  0  0  0  0  0  0  0  0
   -1.7144   -0.0629    1.8084 N   0  0  0  0  0  0  0  0  0  0  0  0
   -2.5848   -0.2005    1.3071 H   0  0  0  0  0  0  0  0  0  0  0  0
   -1.7727    0.2586    3.2295 C   0  0  0  0  0  0  0  0  0  0  0  0
   -0.9702    0.9522    3.5026 H   0  0  0  0  0  0  0  0  0  0  0  0
   -2.7298    0.7301    3.4710 H   0  0  0  0  0  0  0  0  0  0  0  0
   -1.6695   -0.6514    3.8300 H   0  0  0  0  0  0  0  0  0  0  0  0
  1  2  1  0  0  0  0
  2  3  1  0  0  0  0
  2  4  1  0  0  0  0
  2  5  1  0  0  0  0
  5  6  2  0  0  0  0
  5  7  1  0  0  0  0
  7  8  1  0  0  0  0
  7  9  1  0  0  0  0
  9 10  1  0  0  0  0
  9 11  1  0  0  0  0
  9 29  1  0  0  0  0
 11 12  1  0  0  0  0
 11 13  1  0  0  0  0
 11 14  1  0  0  0  0
 14 15  2  0  0  0  0
 14 28  1  0  0  0  0
 15 16  1  0  0  0  0
 15 17  1  0  0  0  0
 17 18  1  0  0  0  0
 17 19  1  0  0  0  0
 19 20  1  0  0  0  0
 19 28  2  0  0  0  0
 20 21  1  0  0  0  0
 20 22  2  0  0  0  0
 22 23  1  0  0  0  0
 22 24  1  0  0  0  0
 24 25  1  0  0  0  0
 24 26  2  0  0  0  0
 26 27  1  0  0  0  0
 26 28  1  0  0  0  0
 29 30  2  0  0  0  0
 29 31  1  0  0  0  0
 31 32  1  0  0  0  0
 31 33  1  0  0  0  0
 33 34  1  0  0  0  0
 33 35  1  0  0  0  0
 33 36  1  0  0  0  0
M  END
$$$$

  -OEChem-03222214083D

 36 37  0     1  0  0  0  0  0999 V2000
   -3.7438   -4.6277    0.2804 H   0  0  0  0  0  0  0  0  0  0  0  0
   -3.5592   -3.7348   -0.3242 C   0  0  0  0  0  0  0  0  0  0  0  0
   -4.4002   -3.0483   -0.2011 H   0  0  0  0  0  0  0  0  0  0  0  0
   -3.4870   -4.0309   -1.3735 H   0  0  0  0  0  0  0  0  0  0  0  0
   -2.2714   -3.0648    0.1174 C   0  0  0  0  0  0  0  0  0  0  0  0
   -1.6238   -3.5476    1.0265 O   0  0  0  0  0  0  0  0  0  0  0  0
   -1.8396   -1.9205   -0.5261 N   0  0  0  0  0  0  0  0  0  0  0  0
   -2.3937   -1.6081   -1.3166 H   0  0  0  0  0  0  0  0  0  0  0  0
   -0.5984   -1.1813   -0.1994 C   0  0  1  0  0  0  0  0  0  0  0  0
    0.2616   -1.8565   -0.2720 H   0  0  0  0  0  0  0  0  0  0  0  0
   -0.4547   -0.1130   -1.3132 C   0  0  0  0  0  0  0  0  0  0  0  0
   -0.2336   -0.6560   -2.2383 H   0  0  0  0  0  0  0  0  0  0  0  0
   -1.4447    0.3382   -1.4356 H   0  0  0  0  0  0  0  0  0  0  0  0
    0.4888    1.0850   -1.2268 C   0  0  0  0  0  0  0  0  0  0  0  0
    0.9865    1.5386   -2.4315 C   0  0  0  0  0  0  0  0  0  0  0  0
    0.8149    1.0693   -3.3977 H   0  0  0  0  0  0  0  0  0  0  0  0
    1.7432    2.6763   -2.2149 N   0  0  0  0  0  0  0  0  0  0  0  0
    2.2445    3.2032   -2.9268 H   0  0  0  0  0  0  0  0  0  0  0  0
    1.6999    3.0133   -0.8811 C   0  0  0  0  0  0  0  0  0  0  0  0
    2.2963    4.1071   -0.2549 C   0  0  0  0  0  0  0  0  0  0  0  0
    2.9025    4.8032   -0.8234 H   0  0  0  0  0  0  0  0  0  0  0  0
    2.0975    4.2956    1.1140 C   0  0  0  0  0  0  0  0  0  0  0  0
    2.5551    5.1384    1.6235 H   0  0  0  0  0  0  0  0  0  0  0  0
    1.2980    3.3941    1.8224 C   0  0  0  0  0  0  0  0  0  0  0  0
    1.1335    3.5354    2.8862 H   0  0  0  0  0  0  0  0  0  0  0  0
    0.7072    2.3024    1.1702 C   0  0  0  0  0  0  0  0  0  0  0  0
    0.0946    1.6544    1.7714 H   0  0  0  0  0  0  0  0  0  0  0  0
    0.9124    2.0764   -0.2024 C   0  0  0  0  0  0  0  0  0  0  0  0
   -0.6318   -0.6863    1.2597 C   0  0  0  0  0  0  0  0  0  0  0  0
    0.3371   -0.8382    1.9923 O   0  0  0  0  0  0  0  0  0  0  0  0
   -1.7784   -0.0922    1.7639 N   0  0  0  0  0  0  0  0  0  0  0  0
   -2.5915   -0.1054    1.1588 H   0  0  0  0  0  0  0  0  0  0  0  0
   -1.9726    0.1625    3.1863 C   0  0  0  0  0  0  0  0  0  0  0  0
   -1.1743    0.8002    3.5794 H   0  0  0  0  0  0  0  0  0  0  0  0
   -2.9283    0.6687    3.3521 H   0  0  0  0  0  0  0  0  0  0  0  0
   -1.9758   -0.7799    3.7440 H   0  0  0  0  0  0  0  0  0  0  0  0
  1  2  1  0  0  0  0
  2  3  1  0  0  0  0
  2  4  1  0  0  0  0
  2  5  1  0  0  0  0
  5  6  2  0  0  0  0
  5  7  1  0  0  0  0
  7  8  1  0  0  0  0
  7  9  1  0  0  0  0
  9 10  1  0  0  0  0
  9 11  1  0  0  0  0
  9 29  1  0  0  0  0
 11 12  1  0  0  0  0
 11 13  1  0  0  0  0
 11 14  1  0  0  0  0
 14 15  2  0  0  0  0
 14 28  1  0  0  0  0
 15 16  1  0  0  0  0
 15 17  1  0  0  0  0
 17 18  1  0  0  0  0
 17 19  1  0  0  0  0
 19 20  1  0  0  0  0
 19 28  2  0  0  0  0
 20 21  1  0  0  0  0
 20 22  2  0  0  0  0
 22 23  1  0  0  0  0
 22 24  1  0  0  0  0
 24 25  1  0  0  0  0
 24 26  2  0  0  0  0
 26 27  1  0  0  0  0
 26 28  1  0  0  0  0
 29 30  2  0  0  0  0
 29 31  1  0  0  0  0
 31 32  1  0  0  0  0
 31 33  1  0  0  0  0
 33 34  1  0  0  0  0
 33 35  1  0  0  0  0
 33 36  1  0  0  0  0
M  END
$$$$

  -OEChem-03222214083D

 36 37  0     1  0  0  0  0  0999 V2000
   -3.7622   -4.6456    0.2753 H   0  0  0  0  0  0  0  0  0  0  0  0
   -3.5468   -3.7537   -0.3202 C   0  0  0  0  0  0  0  0  0  0  0  0
   -4.3681   -3.0437   -0.1977 H   0  0  0  0  0  0  0  0  0  0  0  0
   -3.4745   -4.0432   -1.3712 H   0  0  0  0  0  0  0  0  0  0  0  0
   -2.2437   -3.1252    0.1370 C   0  0  0  0  0  0  0  0  0  0  0  0
   -1.6224   -3.6286    1.0530 O   0  0  0  0  0  0  0  0  0  0  0  0
   -1.7689   -1.9987   -0.5066 N   0  0  0  0  0  0  0  0  0  0  0  0
   -2.3120   -1.6653   -1.2958 H   0  0  0  0  0  0  0  0  0  0  0  0
   -0.5369   -1.2654   -0.1336 C   0  0  1  0  0  0  0  0  0  0  0  0
    0.3305   -1.9337   -0.1768 H   0  0  0  0  0  0  0  0  0  0  0  0
   -0.3996   -0.2034   -1.2552 C   0  0  0  0  0  0  0  0  0  0  0  0
   -0.1492   -0.7574   -2.1664 H   0  0  0  0  0  0  0  0  0  0  0  0
   -1.3998    0.2189   -1.4003 H   0  0  0  0  0  0  0  0  0  0  0  0
    0.5064    1.0257   -1.2125 C   0  0  0  0  0  0  0  0  0  0  0  0
    0.7034    1.6309   -2.4369 C   0  0  0  0  0  0  0  0  0  0  0  0
    0.3133    1.2673   -3.3851 H   0  0  0  0  0  0  0  0  0  0  0  0
    1.4709    2.7684   -2.2670 N   0  0  0  0  0  0  0  0  0  0  0  0
    1.7782    3.3969   -3.0062 H   0  0  0  0  0  0  0  0  0  0  0  0
    1.7532    2.9392   -0.9311 C   0  0  0  0  0  0  0  0  0  0  0  0
    2.4778    3.9747   -0.3428 C   0  0  0  0  0  0  0  0  0  0  0  0
    2.9060    4.7617   -0.9533 H   0  0  0  0  0  0  0  0  0  0  0  0
    2.6404    3.9849    1.0433 C   0  0  0  0  0  0  0  0  0  0  0  0
    3.2031    4.7792    1.5245 H   0  0  0  0  0  0  0  0  0  0  0  0
    2.0696    2.9641    1.8081 C   0  0  0  0  0  0  0  0  0  0  0  0
    2.1877    2.9637    2.8876 H   0  0  0  0  0  0  0  0  0  0  0  0
    1.3440    1.9338    1.1932 C   0  0  0  0  0  0  0  0  0  0  0  0
    0.9309    1.1887    1.8481 H   0  0  0  0  0  0  0  0  0  0  0  0
    1.1738    1.8926   -0.2029 C   0  0  0  0  0  0  0  0  0  0  0  0
   -0.6221   -0.7349    1.3104 C   0  0  0  0  0  0  0  0  0  0  0  0
    0.2502   -1.0265    2.1190 O   0  0  0  0  0  0  0  0  0  0  0  0
   -1.7702   -0.1080    1.7646 N   0  0  0  0  0  0  0  0  0  0  0  0
   -2.5325   -0.0071    1.1045 H   0  0  0  0  0  0  0  0  0  0  0  0
   -1.9981    0.2204    3.1659 C   0  0  0  0  0  0  0  0  0  0  0  0
   -1.1932    0.8579    3.5470 H   0  0  0  0  0  0  0  0  0  0  0  0
   -2.9447    0.7571    3.2795 H   0  0  0  0  0  0  0  0  0  0  0  0
   -2.0410   -0.6924    3.7696 H   0  0  0  0  0  0  0  0  0  0  0  0
  1  2  1  0  0  0  0
  2  3  1  0  0  0  0
  2  4  1  0  0  0  0
  2  5  1  0  0  0  0
  5  6  2  0  0  0  0
  5  7  1  0  0  0  0
  7  8  1  0  0  0  0
  7  9  1  0  0  0  0
  9 10  1  0  0  0  0
  9 11  1  0  0  0  0
  9 29  1  0  0  0  0
 11 12  1  0  0  0  0
 11 13  1  0  0  0  0
 11 14  1  0  0  0  0
 14 15  2  0  0  0  0
 14 28  1  0  0  0  0
 15 16  1  0  0  0  0
 15 17  1  0  0  0  0
 17 18  1  0  0  0  0
 17 19  1  0  0  0  0
 19 20  1  0  0  0  0
 19 28  2  0  0  0  0
 20 21  1  0  0  0  0
 20 22  2  0  0  0  0
 22 23  1  0  0  0  0
 22 24  1  0  0  0  0
 24 25  1  0  0  0  0
 24 26  2  0  0  0  0
 26 27  1  0  0  0  0
 26 28  1  0  0  0  0
 29 30  2  0  0  0  0
 29 31  1  0  0  0  0
 31 32  1  0  0  0  0
 31 33  1  0  0  0  0
 33 34  1  0  0  0  0
 33 35  1  0  0  0  0
 33 36  1  0  0  0  0
M  END
$$$$
