default_name
  -OEChem-02102213163D

 36 37  0     1  0  0  0  0  0999 V2000
   -4.0843   -4.0736    1.2944 H   0  0  0  0  0  0  0  0  0  0  0  0
   -4.0342   -3.2816    0.5484 C   0  0  0  0  0  0  0  0  0  0  0  0
   -4.8842   -2.6126    0.6694 H   0  0  0  0  0  0  0  0  0  0  0  0
   -4.0433   -3.7186   -0.4486 H   0  0  0  0  0  0  0  0  0  0  0  0
   -2.7532   -2.5046    0.7444 C   0  0  0  0  0  0  0  0  0  0  0  0
   -1.9803   -2.8096    1.6434 O   0  0  0  0  0  0  0  0  0  0  0  0
   -2.5332   -1.4966   -0.0966 N   0  0  0  0  0  0  0  0  0  0  0  0
   -3.2312   -1.2816   -0.7936 H   0  0  0  0  0  0  0  0  0  0  0  0
   -1.3593   -0.6196   -0.0536 C   0  0  1  0  0  0  0  0  0  0  0  0
   -0.4622   -1.2317   -0.1545 H   0  0  0  0  0  0  0  0  0  0  0  0
   -1.4074    0.3593   -1.2373 C   0  0  0  0  0  0  0  0  0  0  0  0
   -1.4326   -0.2131   -2.1663 H   0  0  0  0  0  0  0  0  0  0  0  0
   -2.3345    0.9319   -1.1769 H   0  0  0  0  0  0  0  0  0  0  0  0
   -0.2600    1.3202   -1.3161 C   0  0  0  0  0  0  0  0  0  0  0  0
   -0.0910    2.2673   -2.2659 C   0  0  0  0  0  0  0  0  0  0  0  0
   -0.7636    2.4312   -3.1007 H   0  0  0  0  0  0  0  0  0  0  0  0
    1.0497    2.9975   -1.9956 N   0  0  0  0  0  0  0  0  0  0  0  0
    1.3757    3.7567   -2.5758 H   0  0  0  0  0  0  0  0  0  0  0  0
    1.6675    2.5652   -0.8414 C   0  0  0  0  0  0  0  0  0  0  0  0
    2.8096    2.9916   -0.1485 C   0  0  0  0  0  0  0  0  0  0  0  0
    3.3972    3.8190   -0.5183 H   0  0  0  0  0  0  0  0  0  0  0  0
    3.1799    2.3260    1.0326 C   0  0  0  0  0  0  0  0  0  0  0  0
    4.0583    2.6403    1.5799 H   0  0  0  0  0  0  0  0  0  0  0  0
    2.4094    1.2452    1.4991 C   0  0  0  0  0  0  0  0  0  0  0  0
    2.7026    0.7307    2.4038 H   0  0  0  0  0  0  0  0  0  0  0  0
    1.2645    0.8239    0.7935 C   0  0  0  0  0  0  0  0  0  0  0  0
    0.6892   -0.0162    1.1556 H   0  0  0  0  0  0  0  0  0  0  0  0
    0.8626    1.4755   -0.3927 C   0  0  0  0  0  0  0  0  0  0  0  0
   -1.2663    0.1182    1.2910 C   0  0  0  0  0  0  0  0  0  0  0  0
   -0.1906    0.1931    1.8833 O   0  0  0  0  0  0  0  0  0  0  0  0
   -2.3930    0.6605    1.7722 N   0  0  0  0  0  0  0  0  0  0  0  0
   -3.2451    0.5077    1.2518 H   0  0  0  0  0  0  0  0  0  0  0  0
   -2.4787    1.3954    3.0311 C   0  0  0  0  0  0  0  0  0  0  0  0
   -1.7166    2.1767    3.0539 H   0  0  0  0  0  0  0  0  0  0  0  0
   -3.4649    1.8498    3.1344 H   0  0  0  0  0  0  0  0  0  0  0  0
   -2.3058    0.7133    3.8652 H   0  0  0  0  0  0  0  0  0  0  0  0
  5  6  2  0  0  0  0
  5  7  1  0  0  0  0
  2  3  1  0  0  0  0
  2  4  1  0  0  0  0
  2  5  1  0  0  0  0
  1  2  1  0  0  0  0
 29 30  2  0  0  0  0
 29 31  1  0  0  0  0
 26 27  1  0  0  0  0
 26 28  2  0  0  0  0
 24 25  1  0  0  0  0
 24 26  1  0  0  0  0
 22 23  1  0  0  0  0
 22 24  2  0  0  0  0
 20 21  1  0  0  0  0
 20 22  1  0  0  0  0
 19 20  2  0  0  0  0
 19 28  1  0  0  0  0
 17 18  1  0  0  0  0
 17 19  1  0  0  0  0
 15 16  1  0  0  0  0
 15 17  1  0  0  0  0
 14 15  2  0  0  0  0
 14 28  1  0  0  0  0
 11 12  1  0  0  0  0
 11 13  1  0  0  0  0
 11 14  1  0  0  0  0
  9 10  1  0  0  0  0
  9 11  1  0  0  0  0
  9 29  1  0  0  0  0
  7  8  1  0  0  0  0
  7  9  1  0  0  0  0
 33 34  1  0  0  0  0
 33 35  1  0  0  0  0
 33 36  1  0  0  0  0
 31 32  1  0  0  0  0
 31 33  1  0  0  0  0
M  END
$$$$
default_name
  -OEChem-02102213163D

 36 37  0     1  0  0  0  0  0999 V2000
   -4.0843   -4.0736    1.2944 H   0  0  0  0  0  0  0  0  0  0  0  0
   -4.0342   -3.2816    0.5484 C   0  0  0  0  0  0  0  0  0  0  0  0
   -4.8842   -2.6126    0.6694 H   0  0  0  0  0  0  0  0  0  0  0  0
   -4.0433   -3.7186   -0.4486 H   0  0  0  0  0  0  0  0  0  0  0  0
   -2.7532   -2.5046    0.7444 C   0  0  0  0  0  0  0  0  0  0  0  0
   -1.9803   -2.8096    1.6434 O   0  0  0  0  0  0  0  0  0  0  0  0
   -2.5332   -1.4966   -0.0966 N   0  0  0  0  0  0  0  0  0  0  0  0
   -3.2312   -1.2816   -0.7936 H   0  0  0  0  0  0  0  0  0  0  0  0
   -1.3593   -0.6196   -0.0536 C   0  0  1  0  0  0  0  0  0  0  0  0
   -0.4622   -1.2317   -0.1545 H   0  0  0  0  0  0  0  0  0  0  0  0
   -1.4074    0.3593   -1.2373 C   0  0  0  0  0  0  0  0  0  0  0  0
   -1.4326   -0.2131   -2.1663 H   0  0  0  0  0  0  0  0  0  0  0  0
   -2.3345    0.9319   -1.1769 H   0  0  0  0  0  0  0  0  0  0  0  0
   -0.2600    1.3202   -1.3161 C   0  0  0  0  0  0  0  0  0  0  0  0
   -0.2210    2.4382   -2.0753 C   0  0  0  0  0  0  0  0  0  0  0  0
   -1.0165    2.7630   -2.7369 H   0  0  0  0  0  0  0  0  0  0  0  0
    0.9703    3.1034   -1.8612 N   0  0  0  0  0  0  0  0  0  0  0  0
    1.2192    3.9639   -2.3266 H   0  0  0  0  0  0  0  0  0  0  0  0
    1.7562    2.4516   -0.9348 C   0  0  0  0  0  0  0  0  0  0  0  0
    3.0092    2.7349   -0.3725 C   0  0  0  0  0  0  0  0  0  0  0  0
    3.5527    3.6212   -0.6650 H   0  0  0  0  0  0  0  0  0  0  0  0
    3.5484    1.8485    0.5754 C   0  0  0  0  0  0  0  0  0  0  0  0
    4.5141    2.0501    1.0190 H   0  0  0  0  0  0  0  0  0  0  0  0
    2.8328    0.6939    0.9421 C   0  0  0  0  0  0  0  0  0  0  0  0
    3.2552    0.0104    1.6655 H   0  0  0  0  0  0  0  0  0  0  0  0
    1.5751    0.4182    0.3689 C   0  0  0  0  0  0  0  0  0  0  0  0
    1.0420   -0.4791    0.6495 H   0  0  0  0  0  0  0  0  0  0  0  0
    1.0035    1.2918   -0.5813 C   0  0  0  0  0  0  0  0  0  0  0  0
   -1.2663    0.1182    1.2910 C   0  0  0  0  0  0  0  0  0  0  0  0
   -0.1906    0.1931    1.8833 O   0  0  0  0  0  0  0  0  0  0  0  0
   -2.3930    0.6605    1.7722 N   0  0  0  0  0  0  0  0  0  0  0  0
   -3.2451    0.5077    1.2518 H   0  0  0  0  0  0  0  0  0  0  0  0
   -2.4787    1.3954    3.0311 C   0  0  0  0  0  0  0  0  0  0  0  0
   -1.7166    2.1767    3.0539 H   0  0  0  0  0  0  0  0  0  0  0  0
   -3.4649    1.8498    3.1344 H   0  0  0  0  0  0  0  0  0  0  0  0
   -2.3058    0.7133    3.8652 H   0  0  0  0  0  0  0  0  0  0  0  0
  5  6  2  0  0  0  0
  5  7  1  0  0  0  0
  2  3  1  0  0  0  0
  2  4  1  0  0  0  0
  2  5  1  0  0  0  0
  1  2  1  0  0  0  0
 29 30  2  0  0  0  0
 29 31  1  0  0  0  0
 26 27  1  0  0  0  0
 26 28  2  0  0  0  0
 24 25  1  0  0  0  0
 24 26  1  0  0  0  0
 22 23  1  0  0  0  0
 22 24  2  0  0  0  0
 20 21  1  0  0  0  0
 20 22  1  0  0  0  0
 19 20  2  0  0  0  0
 19 28  1  0  0  0  0
 17 18  1  0  0  0  0
 17 19  1  0  0  0  0
 15 16  1  0  0  0  0
 15 17  1  0  0  0  0
 14 15  2  0  0  0  0
 14 28  1  0  0  0  0
 11 12  1  0  0  0  0
 11 13  1  0  0  0  0
 11 14  1  0  0  0  0
  9 10  1  0  0  0  0
  9 11  1  0  0  0  0
  9 29  1  0  0  0  0
  7  8  1  0  0  0  0
  7  9  1  0  0  0  0
 33 34  1  0  0  0  0
 33 35  1  0  0  0  0
 33 36  1  0  0  0  0
 31 32  1  0  0  0  0
 31 33  1  0  0  0  0
M  END
$$$$
default_name
  -OEChem-02102213163D

 36 37  0     1  0  0  0  0  0999 V2000
   -4.0843   -4.0736    1.2944 H   0  0  0  0  0  0  0  0  0  0  0  0
   -4.0342   -3.2816    0.5484 C   0  0  0  0  0  0  0  0  0  0  0  0
   -4.8842   -2.6126    0.6694 H   0  0  0  0  0  0  0  0  0  0  0  0
   -4.0433   -3.7186   -0.4486 H   0  0  0  0  0  0  0  0  0  0  0  0
   -2.7532   -2.5046    0.7444 C   0  0  0  0  0  0  0  0  0  0  0  0
   -1.9803   -2.8096    1.6434 O   0  0  0  0  0  0  0  0  0  0  0  0
   -2.5332   -1.4966   -0.0966 N   0  0  0  0  0  0  0  0  0  0  0  0
   -3.2312   -1.2816   -0.7936 H   0  0  0  0  0  0  0  0  0  0  0  0
   -1.3593   -0.6196   -0.0536 C   0  0  1  0  0  0  0  0  0  0  0  0
   -0.4622   -1.2317   -0.1545 H   0  0  0  0  0  0  0  0  0  0  0  0
   -1.4074    0.3593   -1.2373 C   0  0  0  0  0  0  0  0  0  0  0  0
   -1.4326   -0.2131   -2.1663 H   0  0  0  0  0  0  0  0  0  0  0  0
   -2.3345    0.9319   -1.1769 H   0  0  0  0  0  0  0  0  0  0  0  0
   -0.2600    1.3202   -1.3161 C   0  0  0  0  0  0  0  0  0  0  0  0
   -0.3125    2.5672   -1.8358 C   0  0  0  0  0  0  0  0  0  0  0  0
   -1.1959    3.0148   -2.2778 H   0  0  0  0  0  0  0  0  0  0  0  0
    0.9174    3.1800   -1.6972 N   0  0  0  0  0  0  0  0  0  0  0  0
    1.1122    4.1169   -2.0190 H   0  0  0  0  0  0  0  0  0  0  0  0
    1.8249    2.3591   -1.0622 C   0  0  0  0  0  0  0  0  0  0  0  0
    3.1613    2.5286   -0.6728 C   0  0  0  0  0  0  0  0  0  0  0  0
    3.6759    3.4572   -0.8718 H   0  0  0  0  0  0  0  0  0  0  0  0
    3.8220    1.4727   -0.0220 C   0  0  0  0  0  0  0  0  0  0  0  0
    4.8532    1.5849    0.2847 H   0  0  0  0  0  0  0  0  0  0  0  0
    3.1418    0.2661    0.2245 C   0  0  0  0  0  0  0  0  0  0  0  0
    3.6566   -0.5466    0.7180 H   0  0  0  0  0  0  0  0  0  0  0  0
    1.7992    0.1062   -0.1731 C   0  0  0  0  0  0  0  0  0  0  0  0
    1.2926   -0.8307    0.0104 H   0  0  0  0  0  0  0  0  0  0  0  0
    1.1057    1.1499   -0.8233 C   0  0  0  0  0  0  0  0  0  0  0  0
   -1.2663    0.1182    1.2910 C   0  0  0  0  0  0  0  0  0  0  0  0
   -0.1906    0.1931    1.8833 O   0  0  0  0  0  0  0  0  0  0  0  0
   -2.3930    0.6605    1.7722 N   0  0  0  0  0  0  0  0  0  0  0  0
   -3.2451    0.5077    1.2518 H   0  0  0  0  0  0  0  0  0  0  0  0
   -2.4787    1.3954    3.0311 C   0  0  0  0  0  0  0  0  0  0  0  0
   -1.7166    2.1767    3.0539 H   0  0  0  0  0  0  0  0  0  0  0  0
   -3.4649    1.8498    3.1344 H   0  0  0  0  0  0  0  0  0  0  0  0
   -2.3058    0.7133    3.8652 H   0  0  0  0  0  0  0  0  0  0  0  0
  5  6  2  0  0  0  0
  5  7  1  0  0  0  0
  2  3  1  0  0  0  0
  2  4  1  0  0  0  0
  2  5  1  0  0  0  0
  1  2  1  0  0  0  0
 29 30  2  0  0  0  0
 29 31  1  0  0  0  0
 26 27  1  0  0  0  0
 26 28  2  0  0  0  0
 24 25  1  0  0  0  0
 24 26  1  0  0  0  0
 22 23  1  0  0  0  0
 22 24  2  0  0  0  0
 20 21  1  0  0  0  0
 20 22  1  0  0  0  0
 19 20  2  0  0  0  0
 19 28  1  0  0  0  0
 17 18  1  0  0  0  0
 17 19  1  0  0  0  0
 15 16  1  0  0  0  0
 15 17  1  0  0  0  0
 14 15  2  0  0  0  0
 14 28  1  0  0  0  0
 11 12  1  0  0  0  0
 11 13  1  0  0  0  0
 11 14  1  0  0  0  0
  9 10  1  0  0  0  0
  9 11  1  0  0  0  0
  9 29  1  0  0  0  0
  7  8  1  0  0  0  0
  7  9  1  0  0  0  0
 33 34  1  0  0  0  0
 33 35  1  0  0  0  0
 33 36  1  0  0  0  0
 31 32  1  0  0  0  0
 31 33  1  0  0  0  0
M  END
$$$$
default_name
  -OEChem-02102213163D

 36 37  0     1  0  0  0  0  0999 V2000
   -4.0843   -4.0736    1.2944 H   0  0  0  0  0  0  0  0  0  0  0  0
   -4.0342   -3.2816    0.5484 C   0  0  0  0  0  0  0  0  0  0  0  0
   -4.8842   -2.6126    0.6694 H   0  0  0  0  0  0  0  0  0  0  0  0
   -4.0433   -3.7186   -0.4486 H   0  0  0  0  0  0  0  0  0  0  0  0
   -2.7532   -2.5046    0.7444 C   0  0  0  0  0  0  0  0  0  0  0  0
   -1.9803   -2.8096    1.6434 O   0  0  0  0  0  0  0  0  0  0  0  0
   -2.5332   -1.4966   -0.0966 N   0  0  0  0  0  0  0  0  0  0  0  0
   -3.2312   -1.2816   -0.7936 H   0  0  0  0  0  0  0  0  0  0  0  0
   -1.3593   -0.6196   -0.0536 C   0  0  1  0  0  0  0  0  0  0  0  0
   -0.4622   -1.2317   -0.1545 H   0  0  0  0  0  0  0  0  0  0  0  0
   -1.4074    0.3593   -1.2373 C   0  0  0  0  0  0  0  0  0  0  0  0
   -1.4326   -0.2131   -2.1663 H   0  0  0  0  0  0  0  0  0  0  0  0
   -2.3345    0.9319   -1.1769 H   0  0  0  0  0  0  0  0  0  0  0  0
   -0.2600    1.3202   -1.3161 C   0  0  0  0  0  0  0  0  0  0  0  0
   -0.3595    2.6455   -1.5637 C   0  0  0  0  0  0  0  0  0  0  0  0
   -1.2896    3.1696   -1.7547 H   0  0  0  0  0  0  0  0  0  0  0  0
    0.8945    3.2223   -1.5149 N   0  0  0  0  0  0  0  0  0  0  0  0
    1.0621    4.2051   -1.6737 H   0  0  0  0  0  0  0  0  0  0  0  0
    1.8688    2.2942   -1.2150 C   0  0  0  0  0  0  0  0  0  0  0  0
    3.2556    2.3868   -1.0291 C   0  0  0  0  0  0  0  0  0  0  0  0
    3.7583    3.3380   -1.1244 H   0  0  0  0  0  0  0  0  0  0  0  0
    3.9821    1.2245   -0.7189 C   0  0  0  0  0  0  0  0  0  0  0  0
    5.0526    1.2765   -0.5731 H   0  0  0  0  0  0  0  0  0  0  0  0
    3.3154   -0.0092   -0.6047 C   0  0  0  0  0  0  0  0  0  0  0  0
    3.8795   -0.9024   -0.3742 H   0  0  0  0  0  0  0  0  0  0  0  0
    1.9215   -0.0908   -0.7956 C   0  0  0  0  0  0  0  0  0  0  0  0
    1.4238   -1.0470   -0.7182 H   0  0  0  0  0  0  0  0  0  0  0  0
    1.1624    1.0593   -1.1021 C   0  0  0  0  0  0  0  0  0  0  0  0
   -1.2663    0.1182    1.2910 C   0  0  0  0  0  0  0  0  0  0  0  0
   -0.1906    0.1931    1.8833 O   0  0  0  0  0  0  0  0  0  0  0  0
   -2.3930    0.6605    1.7722 N   0  0  0  0  0  0  0  0  0  0  0  0
   -3.2451    0.5077    1.2518 H   0  0  0  0  0  0  0  0  0  0  0  0
   -2.4787    1.3954    3.0311 C   0  0  0  0  0  0  0  0  0  0  0  0
   -1.7166    2.1767    3.0539 H   0  0  0  0  0  0  0  0  0  0  0  0
   -3.4649    1.8498    3.1344 H   0  0  0  0  0  0  0  0  0  0  0  0
   -2.3058    0.7133    3.8652 H   0  0  0  0  0  0  0  0  0  0  0  0
  5  6  2  0  0  0  0
  5  7  1  0  0  0  0
  2  3  1  0  0  0  0
  2  4  1  0  0  0  0
  2  5  1  0  0  0  0
  1  2  1  0  0  0  0
 29 30  2  0  0  0  0
 29 31  1  0  0  0  0
 26 27  1  0  0  0  0
 26 28  2  0  0  0  0
 24 25  1  0  0  0  0
 24 26  1  0  0  0  0
 22 23  1  0  0  0  0
 22 24  2  0  0  0  0
 20 21  1  0  0  0  0
 20 22  1  0  0  0  0
 19 20  2  0  0  0  0
 19 28  1  0  0  0  0
 17 18  1  0  0  0  0
 17 19  1  0  0  0  0
 15 16  1  0  0  0  0
 15 17  1  0  0  0  0
 14 15  2  0  0  0  0
 14 28  1  0  0  0  0
 11 12  1  0  0  0  0
 11 13  1  0  0  0  0
 11 14  1  0  0  0  0
  9 10  1  0  0  0  0
  9 11  1  0  0  0  0
  9 29  1  0  0  0  0
  7  8  1  0  0  0  0
  7  9  1  0  0  0  0
 33 34  1  0  0  0  0
 33 35  1  0  0  0  0
 33 36  1  0  0  0  0
 31 32  1  0  0  0  0
 31 33  1  0  0  0  0
M  END
$$$$
default_name
  -OEChem-02102213163D

 36 37  0     1  0  0  0  0  0999 V2000
   -4.0843   -4.0736    1.2944 H   0  0  0  0  0  0  0  0  0  0  0  0
   -4.0342   -3.2816    0.5484 C   0  0  0  0  0  0  0  0  0  0  0  0
   -4.8842   -2.6126    0.6694 H   0  0  0  0  0  0  0  0  0  0  0  0
   -4.0433   -3.7186   -0.4486 H   0  0  0  0  0  0  0  0  0  0  0  0
   -2.7532   -2.5046    0.7444 C   0  0  0  0  0  0  0  0  0  0  0  0
   -1.9803   -2.8096    1.6434 O   0  0  0  0  0  0  0  0  0  0  0  0
   -2.5332   -1.4966   -0.0966 N   0  0  0  0  0  0  0  0  0  0  0  0
   -3.2312   -1.2816   -0.7936 H   0  0  0  0  0  0  0  0  0  0  0  0
   -1.3593   -0.6196   -0.0536 C   0  0  1  0  0  0  0  0  0  0  0  0
   -0.4622   -1.2317   -0.1545 H   0  0  0  0  0  0  0  0  0  0  0  0
   -1.4074    0.3593   -1.2373 C   0  0  0  0  0  0  0  0  0  0  0  0
   -1.4326   -0.2131   -2.1663 H   0  0  0  0  0  0  0  0  0  0  0  0
   -2.3345    0.9319   -1.1769 H   0  0  0  0  0  0  0  0  0  0  0  0
   -0.2600    1.3202   -1.3161 C   0  0  0  0  0  0  0  0  0  0  0  0
   -0.3586    2.6680   -1.2775 C   0  0  0  0  0  0  0  0  0  0  0  0
   -1.2911    3.2167   -1.2032 H   0  0  0  0  0  0  0  0  0  0  0  0
    0.9032    3.2274   -1.3265 N   0  0  0  0  0  0  0  0  0  0  0  0
    1.0721    4.2226   -1.3144 H   0  0  0  0  0  0  0  0  0  0  0  0
    1.8849    2.2611   -1.3827 C   0  0  0  0  0  0  0  0  0  0  0  0
    3.2856    2.3191   -1.4169 C   0  0  0  0  0  0  0  0  0  0  0  0
    3.7944    3.2718   -1.4057 H   0  0  0  0  0  0  0  0  0  0  0  0
    4.0176    1.1206   -1.4678 C   0  0  0  0  0  0  0  0  0  0  0  0
    5.0986    1.1458   -1.4958 H   0  0  0  0  0  0  0  0  0  0  0  0
    3.3418   -0.1132   -1.4890 C   0  0  0  0  0  0  0  0  0  0  0  0
    3.9087   -1.0326   -1.5366 H   0  0  0  0  0  0  0  0  0  0  0  0
    1.9336   -0.1595   -1.4563 C   0  0  0  0  0  0  0  0  0  0  0  0
    1.4266   -1.1135   -1.4866 H   0  0  0  0  0  0  0  0  0  0  0  0
    1.1697    1.0263   -1.3987 C   0  0  0  0  0  0  0  0  0  0  0  0
   -1.2663    0.1182    1.2910 C   0  0  0  0  0  0  0  0  0  0  0  0
   -0.1906    0.1931    1.8833 O   0  0  0  0  0  0  0  0  0  0  0  0
   -2.3930    0.6605    1.7722 N   0  0  0  0  0  0  0  0  0  0  0  0
   -3.2451    0.5077    1.2518 H   0  0  0  0  0  0  0  0  0  0  0  0
   -2.4787    1.3954    3.0311 C   0  0  0  0  0  0  0  0  0  0  0  0
   -1.7166    2.1767    3.0539 H   0  0  0  0  0  0  0  0  0  0  0  0
   -3.4649    1.8498    3.1344 H   0  0  0  0  0  0  0  0  0  0  0  0
   -2.3058    0.7133    3.8652 H   0  0  0  0  0  0  0  0  0  0  0  0
  5  6  2  0  0  0  0
  5  7  1  0  0  0  0
  2  3  1  0  0  0  0
  2  4  1  0  0  0  0
  2  5  1  0  0  0  0
  1  2  1  0  0  0  0
 29 30  2  0  0  0  0
 29 31  1  0  0  0  0
 26 27  1  0  0  0  0
 26 28  2  0  0  0  0
 24 25  1  0  0  0  0
 24 26  1  0  0  0  0
 22 23  1  0  0  0  0
 22 24  2  0  0  0  0
 20 21  1  0  0  0  0
 20 22  1  0  0  0  0
 19 20  2  0  0  0  0
 19 28  1  0  0  0  0
 17 18  1  0  0  0  0
 17 19  1  0  0  0  0
 15 16  1  0  0  0  0
 15 17  1  0  0  0  0
 14 15  2  0  0  0  0
 14 28  1  0  0  0  0
 11 12  1  0  0  0  0
 11 13  1  0  0  0  0
 11 14  1  0  0  0  0
  9 10  1  0  0  0  0
  9 11  1  0  0  0  0
  9 29  1  0  0  0  0
  7  8  1  0  0  0  0
  7  9  1  0  0  0  0
 33 34  1  0  0  0  0
 33 35  1  0  0  0  0
 33 36  1  0  0  0  0
 31 32  1  0  0  0  0
 31 33  1  0  0  0  0
M  END
$$$$
default_name
  -OEChem-02102213163D

 36 37  0     1  0  0  0  0  0999 V2000
   -4.0843   -4.0736    1.2944 H   0  0  0  0  0  0  0  0  0  0  0  0
   -4.0342   -3.2816    0.5484 C   0  0  0  0  0  0  0  0  0  0  0  0
   -4.8842   -2.6126    0.6694 H   0  0  0  0  0  0  0  0  0  0  0  0
   -4.0433   -3.7186   -0.4486 H   0  0  0  0  0  0  0  0  0  0  0  0
   -2.7532   -2.5046    0.7444 C   0  0  0  0  0  0  0  0  0  0  0  0
   -1.9803   -2.8096    1.6434 O   0  0  0  0  0  0  0  0  0  0  0  0
   -2.5332   -1.4966   -0.0966 N   0  0  0  0  0  0  0  0  0  0  0  0
   -3.2312   -1.2816   -0.7936 H   0  0  0  0  0  0  0  0  0  0  0  0
   -1.3593   -0.6196   -0.0536 C   0  0  1  0  0  0  0  0  0  0  0  0
   -0.4622   -1.2317   -0.1545 H   0  0  0  0  0  0  0  0  0  0  0  0
   -1.4074    0.3593   -1.2373 C   0  0  0  0  0  0  0  0  0  0  0  0
   -1.4326   -0.2131   -2.1663 H   0  0  0  0  0  0  0  0  0  0  0  0
   -2.3345    0.9319   -1.1769 H   0  0  0  0  0  0  0  0  0  0  0  0
   -0.2600    1.3202   -1.3161 C   0  0  0  0  0  0  0  0  0  0  0  0
   -0.3100    2.6329   -0.9968 C   0  0  0  0  0  0  0  0  0  0  0  0
   -1.2005    3.1529   -0.6609 H   0  0  0  0  0  0  0  0  0  0  0  0
    0.9429    3.1948   -1.1451 N   0  0  0  0  0  0  0  0  0  0  0  0
    1.1416    4.1682   -0.9656 H   0  0  0  0  0  0  0  0  0  0  0  0
    1.8723    2.2622   -1.5540 C   0  0  0  0  0  0  0  0  0  0  0  0
    3.2493    2.3302   -1.8099 C   0  0  0  0  0  0  0  0  0  0  0  0
    3.7817    3.2631   -1.6966 H   0  0  0  0  0  0  0  0  0  0  0  0
    3.9263    1.1681   -2.2177 C   0  0  0  0  0  0  0  0  0  0  0  0
    4.9882    1.2018   -2.4206 H   0  0  0  0  0  0  0  0  0  0  0  0
    3.2190   -0.0387   -2.3682 C   0  0  0  0  0  0  0  0  0  0  0  0
    3.7422   -0.9285   -2.6901 H   0  0  0  0  0  0  0  0  0  0  0  0
    1.8347   -0.0950   -2.1100 C   0  0  0  0  0  0  0  0  0  0  0  0
    1.3009   -1.0254   -2.2424 H   0  0  0  0  0  0  0  0  0  0  0  0
    1.1270    1.0532   -1.6930 C   0  0  0  0  0  0  0  0  0  0  0  0
   -1.2663    0.1182    1.2910 C   0  0  0  0  0  0  0  0  0  0  0  0
   -0.1906    0.1931    1.8833 O   0  0  0  0  0  0  0  0  0  0  0  0
   -2.3930    0.6605    1.7722 N   0  0  0  0  0  0  0  0  0  0  0  0
   -3.2451    0.5077    1.2518 H   0  0  0  0  0  0  0  0  0  0  0  0
   -2.4787    1.3954    3.0311 C   0  0  0  0  0  0  0  0  0  0  0  0
   -1.7166    2.1767    3.0539 H   0  0  0  0  0  0  0  0  0  0  0  0
   -3.4649    1.8498    3.1344 H   0  0  0  0  0  0  0  0  0  0  0  0
   -2.3058    0.7133    3.8652 H   0  0  0  0  0  0  0  0  0  0  0  0
  5  6  2  0  0  0  0
  5  7  1  0  0  0  0
  2  3  1  0  0  0  0
  2  4  1  0  0  0  0
  2  5  1  0  0  0  0
  1  2  1  0  0  0  0
 29 30  2  0  0  0  0
 29 31  1  0  0  0  0
 26 27  1  0  0  0  0
 26 28  2  0  0  0  0
 24 25  1  0  0  0  0
 24 26  1  0  0  0  0
 22 23  1  0  0  0  0
 22 24  2  0  0  0  0
 20 21  1  0  0  0  0
 20 22  1  0  0  0  0
 19 20  2  0  0  0  0
 19 28  1  0  0  0  0
 17 18  1  0  0  0  0
 17 19  1  0  0  0  0
 15 16  1  0  0  0  0
 15 17  1  0  0  0  0
 14 15  2  0  0  0  0
 14 28  1  0  0  0  0
 11 12  1  0  0  0  0
 11 13  1  0  0  0  0
 11 14  1  0  0  0  0
  9 10  1  0  0  0  0
  9 11  1  0  0  0  0
  9 29  1  0  0  0  0
  7  8  1  0  0  0  0
  7  9  1  0  0  0  0
 33 34  1  0  0  0  0
 33 35  1  0  0  0  0
 33 36  1  0  0  0  0
 31 32  1  0  0  0  0
 31 33  1  0  0  0  0
M  END
$$$$
default_name
  -OEChem-02102213163D

 36 37  0     1  0  0  0  0  0999 V2000
   -4.0843   -4.0736    1.2944 H   0  0  0  0  0  0  0  0  0  0  0  0
   -4.0342   -3.2816    0.5484 C   0  0  0  0  0  0  0  0  0  0  0  0
   -4.8842   -2.6126    0.6694 H   0  0  0  0  0  0  0  0  0  0  0  0
   -4.0433   -3.7186   -0.4486 H   0  0  0  0  0  0  0  0  0  0  0  0
   -2.7532   -2.5046    0.7444 C   0  0  0  0  0  0  0  0  0  0  0  0
   -1.9803   -2.8096    1.6434 O   0  0  0  0  0  0  0  0  0  0  0  0
   -2.5332   -1.4966   -0.0966 N   0  0  0  0  0  0  0  0  0  0  0  0
   -3.2312   -1.2816   -0.7936 H   0  0  0  0  0  0  0  0  0  0  0  0
   -1.3593   -0.6196   -0.0536 C   0  0  1  0  0  0  0  0  0  0  0  0
   -0.4622   -1.2317   -0.1545 H   0  0  0  0  0  0  0  0  0  0  0  0
   -1.4074    0.3593   -1.2373 C   0  0  0  0  0  0  0  0  0  0  0  0
   -1.4326   -0.2131   -2.1663 H   0  0  0  0  0  0  0  0  0  0  0  0
   -2.3345    0.9319   -1.1769 H   0  0  0  0  0  0  0  0  0  0  0  0
   -0.2600    1.3202   -1.3161 C   0  0  0  0  0  0  0  0  0  0  0  0
   -0.2169    2.5428   -0.7407 C   0  0  0  0  0  0  0  0  0  0  0  0
   -1.0238    2.9826   -0.1648 H   0  0  0  0  0  0  0  0  0  0  0  0
    1.0110    3.1269   -0.9828 N   0  0  0  0  0  0  0  0  0  0  0  0
    1.2660    4.0456   -0.6509 H   0  0  0  0  0  0  0  0  0  0  0  0
    1.8317    2.2973   -1.7171 C   0  0  0  0  0  0  0  0  0  0  0  0
    3.1492    2.4193   -2.1813 C   0  0  0  0  0  0  0  0  0  0  0  0
    3.7211    3.3126   -1.9771 H   0  0  0  0  0  0  0  0  0  0  0  0
    3.7143    1.3639   -2.9174 C   0  0  0  0  0  0  0  0  0  0  0  0
    4.7288    1.4407   -3.2845 H   0  0  0  0  0  0  0  0  0  0  0  0
    2.9556    0.2091   -3.1822 C   0  0  0  0  0  0  0  0  0  0  0  0
    3.3914   -0.5970   -3.7561 H   0  0  0  0  0  0  0  0  0  0  0  0
    1.6315    0.0981   -2.7123 C   0  0  0  0  0  0  0  0  0  0  0  0
    1.0553   -0.7889   -2.9342 H   0  0  0  0  0  0  0  0  0  0  0  0
    1.0373    1.1380   -1.9649 C   0  0  0  0  0  0  0  0  0  0  0  0
   -1.2663    0.1182    1.2910 C   0  0  0  0  0  0  0  0  0  0  0  0
   -0.1906    0.1931    1.8833 O   0  0  0  0  0  0  0  0  0  0  0  0
   -2.3930    0.6605    1.7722 N   0  0  0  0  0  0  0  0  0  0  0  0
   -3.2451    0.5077    1.2518 H   0  0  0  0  0  0  0  0  0  0  0  0
   -2.4787    1.3954    3.0311 C   0  0  0  0  0  0  0  0  0  0  0  0
   -1.7166    2.1767    3.0539 H   0  0  0  0  0  0  0  0  0  0  0  0
   -3.4649    1.8498    3.1344 H   0  0  0  0  0  0  0  0  0  0  0  0
   -2.3058    0.7133    3.8652 H   0  0  0  0  0  0  0  0  0  0  0  0
  5  6  2  0  0  0  0
  5  7  1  0  0  0  0
  2  3  1  0  0  0  0
  2  4  1  0  0  0  0
  2  5  1  0  0  0  0
  1  2  1  0  0  0  0
 29 30  2  0  0  0  0
 29 31  1  0  0  0  0
 26 27  1  0  0  0  0
 26 28  2  0  0  0  0
 24 25  1  0  0  0  0
 24 26  1  0  0  0  0
 22 23  1  0  0  0  0
 22 24  2  0  0  0  0
 20 21  1  0  0  0  0
 20 22  1  0  0  0  0
 19 20  2  0  0  0  0
 19 28  1  0  0  0  0
 17 18  1  0  0  0  0
 17 19  1  0  0  0  0
 15 16  1  0  0  0  0
 15 17  1  0  0  0  0
 14 15  2  0  0  0  0
 14 28  1  0  0  0  0
 11 12  1  0  0  0  0
 11 13  1  0  0  0  0
 11 14  1  0  0  0  0
  9 10  1  0  0  0  0
  9 11  1  0  0  0  0
  9 29  1  0  0  0  0
  7  8  1  0  0  0  0
  7  9  1  0  0  0  0
 33 34  1  0  0  0  0
 33 35  1  0  0  0  0
 33 36  1  0  0  0  0
 31 32  1  0  0  0  0
 31 33  1  0  0  0  0
M  END
$$$$
default_name
  -OEChem-02102213163D

 36 37  0     1  0  0  0  0  0999 V2000
   -4.0843   -4.0736    1.2944 H   0  0  0  0  0  0  0  0  0  0  0  0
   -4.0342   -3.2816    0.5484 C   0  0  0  0  0  0  0  0  0  0  0  0
   -4.8842   -2.6126    0.6694 H   0  0  0  0  0  0  0  0  0  0  0  0
   -4.0433   -3.7186   -0.4486 H   0  0  0  0  0  0  0  0  0  0  0  0
   -2.7532   -2.5046    0.7444 C   0  0  0  0  0  0  0  0  0  0  0  0
   -1.9803   -2.8096    1.6434 O   0  0  0  0  0  0  0  0  0  0  0  0
   -2.5332   -1.4966   -0.0966 N   0  0  0  0  0  0  0  0  0  0  0  0
   -3.2312   -1.2816   -0.7936 H   0  0  0  0  0  0  0  0  0  0  0  0
   -1.3593   -0.6196   -0.0536 C   0  0  1  0  0  0  0  0  0  0  0  0
   -0.4622   -1.2317   -0.1545 H   0  0  0  0  0  0  0  0  0  0  0  0
   -1.4074    0.3593   -1.2373 C   0  0  0  0  0  0  0  0  0  0  0  0
   -1.4326   -0.2131   -2.1663 H   0  0  0  0  0  0  0  0  0  0  0  0
   -2.3345    0.9319   -1.1769 H   0  0  0  0  0  0  0  0  0  0  0  0
   -0.2600    1.3202   -1.3161 C   0  0  0  0  0  0  0  0  0  0  0  0
   -0.0858    2.4037   -0.5266 C   0  0  0  0  0  0  0  0  0  0  0  0
   -0.7731    2.7174    0.2514 H   0  0  0  0  0  0  0  0  0  0  0  0
    1.1027    3.0281   -0.8509 N   0  0  0  0  0  0  0  0  0  0  0  0
    1.4366    3.8630   -0.3920 H   0  0  0  0  0  0  0  0  0  0  0  0
    1.7658    2.3641   -1.8609 C   0  0  0  0  0  0  0  0  0  0  0  0
    2.9921    2.5803   -2.5058 C   0  0  0  0  0  0  0  0  0  0  0  0
    3.6166    3.4167   -2.2283 H   0  0  0  0  0  0  0  0  0  0  0  0
    3.3960    1.6946   -3.5194 C   0  0  0  0  0  0  0  0  0  0  0  0
    4.3382    1.8461   -4.0286 H   0  0  0  0  0  0  0  0  0  0  0  0
    2.5694    0.6133   -3.8757 C   0  0  0  0  0  0  0  0  0  0  0  0
    2.8802   -0.0609   -4.6618 H   0  0  0  0  0  0  0  0  0  0  0  0
    1.3380    0.4068   -3.2221 C   0  0  0  0  0  0  0  0  0  0  0  0
    0.7065   -0.4200   -3.5148 H   0  0  0  0  0  0  0  0  0  0  0  0
    0.9067    1.2750   -2.1958 C   0  0  0  0  0  0  0  0  0  0  0  0
   -1.2663    0.1182    1.2910 C   0  0  0  0  0  0  0  0  0  0  0  0
   -0.1906    0.1931    1.8833 O   0  0  0  0  0  0  0  0  0  0  0  0
   -2.3930    0.6605    1.7722 N   0  0  0  0  0  0  0  0  0  0  0  0
   -3.2451    0.5077    1.2518 H   0  0  0  0  0  0  0  0  0  0  0  0
   -2.4787    1.3954    3.0311 C   0  0  0  0  0  0  0  0  0  0  0  0
   -1.7166    2.1767    3.0539 H   0  0  0  0  0  0  0  0  0  0  0  0
   -3.4649    1.8498    3.1344 H   0  0  0  0  0  0  0  0  0  0  0  0
   -2.3058    0.7133    3.8652 H   0  0  0  0  0  0  0  0  0  0  0  0
  5  6  2  0  0  0  0
  5  7  1  0  0  0  0
  2  3  1  0  0  0  0
  2  4  1  0  0  0  0
  2  5  1  0  0  0  0
  1  2  1  0  0  0  0
 29 30  2  0  0  0  0
 29 31  1  0  0  0  0
 26 27  1  0  0  0  0
 26 28  2  0  0  0  0
 24 25  1  0  0  0  0
 24 26  1  0  0  0  0
 22 23  1  0  0  0  0
 22 24  2  0  0  0  0
 20 21  1  0  0  0  0
 20 22  1  0  0  0  0
 19 20  2  0  0  0  0
 19 28  1  0  0  0  0
 17 18  1  0  0  0  0
 17 19  1  0  0  0  0
 15 16  1  0  0  0  0
 15 17  1  0  0  0  0
 14 15  2  0  0  0  0
 14 28  1  0  0  0  0
 11 12  1  0  0  0  0
 11 13  1  0  0  0  0
 11 14  1  0  0  0  0
  9 10  1  0  0  0  0
  9 11  1  0  0  0  0
  9 29  1  0  0  0  0
  7  8  1  0  0  0  0
  7  9  1  0  0  0  0
 33 34  1  0  0  0  0
 33 35  1  0  0  0  0
 33 36  1  0  0  0  0
 31 32  1  0  0  0  0
 31 33  1  0  0  0  0
M  END
$$$$
default_name
  -OEChem-02102213163D

 36 37  0     1  0  0  0  0  0999 V2000
   -4.0843   -4.0736    1.2944 H   0  0  0  0  0  0  0  0  0  0  0  0
   -4.0342   -3.2816    0.5484 C   0  0  0  0  0  0  0  0  0  0  0  0
   -4.8842   -2.6126    0.6694 H   0  0  0  0  0  0  0  0  0  0  0  0
   -4.0433   -3.7186   -0.4486 H   0  0  0  0  0  0  0  0  0  0  0  0
   -2.7532   -2.5046    0.7444 C   0  0  0  0  0  0  0  0  0  0  0  0
   -1.9803   -2.8096    1.6434 O   0  0  0  0  0  0  0  0  0  0  0  0
   -2.5332   -1.4966   -0.0966 N   0  0  0  0  0  0  0  0  0  0  0  0
   -3.2312   -1.2816   -0.7936 H   0  0  0  0  0  0  0  0  0  0  0  0
   -1.3593   -0.6196   -0.0536 C   0  0  1  0  0  0  0  0  0  0  0  0
   -0.4622   -1.2317   -0.1545 H   0  0  0  0  0  0  0  0  0  0  0  0
   -1.4074    0.3593   -1.2373 C   0  0  0  0  0  0  0  0  0  0  0  0
   -1.4326   -0.2131   -2.1663 H   0  0  0  0  0  0  0  0  0  0  0  0
   -2.3345    0.9319   -1.1769 H   0  0  0  0  0  0  0  0  0  0  0  0
   -0.2600    1.3202   -1.3161 C   0  0  0  0  0  0  0  0  0  0  0  0
    0.0746    2.2252   -0.3691 C   0  0  0  0  0  0  0  0  0  0  0  0
   -0.4655    2.3754    0.5593 H   0  0  0  0  0  0  0  0  0  0  0  0
    1.2119    2.9054   -0.7582 N   0  0  0  0  0  0  0  0  0  0  0  0
    1.6419    3.6331   -0.2063 H   0  0  0  0  0  0  0  0  0  0  0  0
    1.6793    2.4581   -1.9757 C   0  0  0  0  0  0  0  0  0  0  0  0
    2.7887    2.8023   -2.7613 C   0  0  0  0  0  0  0  0  0  0  0  0
    3.4754    3.5685   -2.4328 H   0  0  0  0  0  0  0  0  0  0  0  0
    2.9932    2.1376   -3.9825 C   0  0  0  0  0  0  0  0  0  0  0  0
    3.8429    2.3905   -4.6022 H   0  0  0  0  0  0  0  0  0  0  0  0
    2.0869    1.1464   -4.4014 C   0  0  0  0  0  0  0  0  0  0  0  0
    2.2434    0.6434   -5.3456 H   0  0  0  0  0  0  0  0  0  0  0  0
    0.9741    0.8100   -3.6047 C   0  0  0  0  0  0  0  0  0  0  0  0
    0.2782    0.0562   -3.9446 H   0  0  0  0  0  0  0  0  0  0  0  0
    0.7441    1.4548   -2.3700 C   0  0  0  0  0  0  0  0  0  0  0  0
   -1.2663    0.1182    1.2910 C   0  0  0  0  0  0  0  0  0  0  0  0
   -0.1906    0.1931    1.8833 O   0  0  0  0  0  0  0  0  0  0  0  0
   -2.3930    0.6605    1.7722 N   0  0  0  0  0  0  0  0  0  0  0  0
   -3.2451    0.5077    1.2518 H   0  0  0  0  0  0  0  0  0  0  0  0
   -2.4787    1.3954    3.0311 C   0  0  0  0  0  0  0  0  0  0  0  0
   -1.7166    2.1767    3.0539 H   0  0  0  0  0  0  0  0  0  0  0  0
   -3.4649    1.8498    3.1344 H   0  0  0  0  0  0  0  0  0  0  0  0
   -2.3058    0.7133    3.8652 H   0  0  0  0  0  0  0  0  0  0  0  0
  5  6  2  0  0  0  0
  5  7  1  0  0  0  0
  2  3  1  0  0  0  0
  2  4  1  0  0  0  0
  2  5  1  0  0  0  0
  1  2  1  0  0  0  0
 29 30  2  0  0  0  0
 29 31  1  0  0  0  0
 26 27  1  0  0  0  0
 26 28  2  0  0  0  0
 24 25  1  0  0  0  0
 24 26  1  0  0  0  0
 22 23  1  0  0  0  0
 22 24  2  0  0  0  0
 20 21  1  0  0  0  0
 20 22  1  0  0  0  0
 19 20  2  0  0  0  0
 19 28  1  0  0  0  0
 17 18  1  0  0  0  0
 17 19  1  0  0  0  0
 15 16  1  0  0  0  0
 15 17  1  0  0  0  0
 14 15  2  0  0  0  0
 14 28  1  0  0  0  0
 11 12  1  0  0  0  0
 11 13  1  0  0  0  0
 11 14  1  0  0  0  0
  9 10  1  0  0  0  0
  9 11  1  0  0  0  0
  9 29  1  0  0  0  0
  7  8  1  0  0  0  0
  7  9  1  0  0  0  0
 33 34  1  0  0  0  0
 33 35  1  0  0  0  0
 33 36  1  0  0  0  0
 31 32  1  0  0  0  0
 31 33  1  0  0  0  0
M  END
$$$$
default_name
  -OEChem-02102213163D

 36 37  0     1  0  0  0  0  0999 V2000
   -4.0843   -4.0736    1.2944 H   0  0  0  0  0  0  0  0  0  0  0  0
   -4.0342   -3.2816    0.5484 C   0  0  0  0  0  0  0  0  0  0  0  0
   -4.8842   -2.6126    0.6694 H   0  0  0  0  0  0  0  0  0  0  0  0
   -4.0433   -3.7186   -0.4486 H   0  0  0  0  0  0  0  0  0  0  0  0
   -2.7532   -2.5046    0.7444 C   0  0  0  0  0  0  0  0  0  0  0  0
   -1.9803   -2.8096    1.6434 O   0  0  0  0  0  0  0  0  0  0  0  0
   -2.5332   -1.4966   -0.0966 N   0  0  0  0  0  0  0  0  0  0  0  0
   -3.2312   -1.2816   -0.7936 H   0  0  0  0  0  0  0  0  0  0  0  0
   -1.3593   -0.6196   -0.0536 C   0  0  1  0  0  0  0  0  0  0  0  0
   -0.4622   -1.2317   -0.1545 H   0  0  0  0  0  0  0  0  0  0  0  0
   -1.4074    0.3593   -1.2373 C   0  0  0  0  0  0  0  0  0  0  0  0
   -1.4326   -0.2131   -2.1663 H   0  0  0  0  0  0  0  0  0  0  0  0
   -2.3345    0.9319   -1.1769 H   0  0  0  0  0  0  0  0  0  0  0  0
   -0.2600    1.3202   -1.3161 C   0  0  0  0  0  0  0  0  0  0  0  0
    0.2532    2.0193   -0.2790 C   0  0  0  0  0  0  0  0  0  0  0  0
   -0.1219    1.9798    0.7378 H   0  0  0  0  0  0  0  0  0  0  0  0
    1.3310    2.7670   -0.7112 N   0  0  0  0  0  0  0  0  0  0  0  0
    1.8679    3.3714   -0.1065 H   0  0  0  0  0  0  0  0  0  0  0  0
    1.5779    2.5727   -2.0536 C   0  0  0  0  0  0  0  0  0  0  0  0
    2.5528    3.0701   -2.9303 C   0  0  0  0  0  0  0  0  0  0  0  0
    3.3071    3.7576   -2.5770 H   0  0  0  0  0  0  0  0  0  0  0  0
    2.5333    2.6627   -4.2752 C   0  0  0  0  0  0  0  0  0  0  0  0
    3.2767    3.0367   -4.9661 H   0  0  0  0  0  0  0  0  0  0  0  0
    1.5407    1.7721   -4.7235 C   0  0  0  0  0  0  0  0  0  0  0  0
    1.5245    1.4679   -5.7609 H   0  0  0  0  0  0  0  0  0  0  0  0
    0.5646    1.2802   -3.8339 C   0  0  0  0  0  0  0  0  0  0  0  0
   -0.2003    0.6071   -4.1944 H   0  0  0  0  0  0  0  0  0  0  0  0
    0.5606    1.6653   -2.4757 C   0  0  0  0  0  0  0  0  0  0  0  0
   -1.2663    0.1182    1.2910 C   0  0  0  0  0  0  0  0  0  0  0  0
   -0.1906    0.1931    1.8833 O   0  0  0  0  0  0  0  0  0  0  0  0
   -2.3930    0.6605    1.7722 N   0  0  0  0  0  0  0  0  0  0  0  0
   -3.2451    0.5077    1.2518 H   0  0  0  0  0  0  0  0  0  0  0  0
   -2.4787    1.3954    3.0311 C   0  0  0  0  0  0  0  0  0  0  0  0
   -1.7166    2.1767    3.0539 H   0  0  0  0  0  0  0  0  0  0  0  0
   -3.4649    1.8498    3.1344 H   0  0  0  0  0  0  0  0  0  0  0  0
   -2.3058    0.7133    3.8652 H   0  0  0  0  0  0  0  0  0  0  0  0
  5  6  2  0  0  0  0
  5  7  1  0  0  0  0
  2  3  1  0  0  0  0
  2  4  1  0  0  0  0
  2  5  1  0  0  0  0
  1  2  1  0  0  0  0
 29 30  2  0  0  0  0
 29 31  1  0  0  0  0
 26 27  1  0  0  0  0
 26 28  2  0  0  0  0
 24 25  1  0  0  0  0
 24 26  1  0  0  0  0
 22 23  1  0  0  0  0
 22 24  2  0  0  0  0
 20 21  1  0  0  0  0
 20 22  1  0  0  0  0
 19 20  2  0  0  0  0
 19 28  1  0  0  0  0
 17 18  1  0  0  0  0
 17 19  1  0  0  0  0
 15 16  1  0  0  0  0
 15 17  1  0  0  0  0
 14 15  2  0  0  0  0
 14 28  1  0  0  0  0
 11 12  1  0  0  0  0
 11 13  1  0  0  0  0
 11 14  1  0  0  0  0
  9 10  1  0  0  0  0
  9 11  1  0  0  0  0
  9 29  1  0  0  0  0
  7  8  1  0  0  0  0
  7  9  1  0  0  0  0
 33 34  1  0  0  0  0
 33 35  1  0  0  0  0
 33 36  1  0  0  0  0
 31 32  1  0  0  0  0
 31 33  1  0  0  0  0
M  END
$$$$
default_name
  -OEChem-02102213163D

 36 37  0     1  0  0  0  0  0999 V2000
   -4.0843   -4.0736    1.2944 H   0  0  0  0  0  0  0  0  0  0  0  0
   -4.0342   -3.2816    0.5484 C   0  0  0  0  0  0  0  0  0  0  0  0
   -4.8842   -2.6126    0.6694 H   0  0  0  0  0  0  0  0  0  0  0  0
   -4.0433   -3.7186   -0.4486 H   0  0  0  0  0  0  0  0  0  0  0  0
   -2.7532   -2.5046    0.7444 C   0  0  0  0  0  0  0  0  0  0  0  0
   -1.9803   -2.8096    1.6434 O   0  0  0  0  0  0  0  0  0  0  0  0
   -2.5332   -1.4966   -0.0966 N   0  0  0  0  0  0  0  0  0  0  0  0
   -3.2312   -1.2816   -0.7936 H   0  0  0  0  0  0  0  0  0  0  0  0
   -1.3593   -0.6196   -0.0536 C   0  0  1  0  0  0  0  0  0  0  0  0
   -0.4622   -1.2317   -0.1545 H   0  0  0  0  0  0  0  0  0  0  0  0
   -1.4074    0.3593   -1.2373 C   0  0  0  0  0  0  0  0  0  0  0  0
   -1.4326   -0.2131   -2.1663 H   0  0  0  0  0  0  0  0  0  0  0  0
   -2.3345    0.9319   -1.1769 H   0  0  0  0  0  0  0  0  0  0  0  0
   -0.2600    1.3202   -1.3161 C   0  0  0  0  0  0  0  0  0  0  0  0
    0.4378    1.8002   -0.2624 C   0  0  0  0  0  0  0  0  0  0  0  0
    0.2341    1.5576    0.7748 H   0  0  0  0  0  0  0  0  0  0  0  0
    1.4520    2.6223   -0.7129 N   0  0  0  0  0  0  0  0  0  0  0  0
    2.0992    3.0958   -0.0996 H   0  0  0  0  0  0  0  0  0  0  0  0
    1.4686    2.7003   -2.0893 C   0  0  0  0  0  0  0  0  0  0  0  0
    2.3006    3.3654   -3.0013 C   0  0  0  0  0  0  0  0  0  0  0  0
    3.1233    3.9711   -2.6508 H   0  0  0  0  0  0  0  0  0  0  0  0
    2.0477    3.2342   -4.3775 C   0  0  0  0  0  0  0  0  0  0  0  0
    2.6782    3.7407   -5.0957 H   0  0  0  0  0  0  0  0  0  0  0  0
    0.9683    2.4478   -4.8200 C   0  0  0  0  0  0  0  0  0  0  0  0
    0.7723    2.3563   -5.8793 H   0  0  0  0  0  0  0  0  0  0  0  0
    0.1374    1.7854   -3.8942 C   0  0  0  0  0  0  0  0  0  0  0  0
   -0.6964    1.1952   -4.2470 H   0  0  0  0  0  0  0  0  0  0  0  0
    0.3687    1.8920   -2.5056 C   0  0  0  0  0  0  0  0  0  0  0  0
   -1.2663    0.1182    1.2910 C   0  0  0  0  0  0  0  0  0  0  0  0
   -0.1906    0.1931    1.8833 O   0  0  0  0  0  0  0  0  0  0  0  0
   -2.3930    0.6605    1.7722 N   0  0  0  0  0  0  0  0  0  0  0  0
   -3.2451    0.5077    1.2518 H   0  0  0  0  0  0  0  0  0  0  0  0
   -2.4787    1.3954    3.0311 C   0  0  0  0  0  0  0  0  0  0  0  0
   -1.7166    2.1767    3.0539 H   0  0  0  0  0  0  0  0  0  0  0  0
   -3.4649    1.8498    3.1344 H   0  0  0  0  0  0  0  0  0  0  0  0
   -2.3058    0.7133    3.8652 H   0  0  0  0  0  0  0  0  0  0  0  0
  5  6  2  0  0  0  0
  5  7  1  0  0  0  0
  2  3  1  0  0  0  0
  2  4  1  0  0  0  0
  2  5  1  0  0  0  0
  1  2  1  0  0  0  0
 29 30  2  0  0  0  0
 29 31  1  0  0  0  0
 26 27  1  0  0  0  0
 26 28  2  0  0  0  0
 24 25  1  0  0  0  0
 24 26  1  0  0  0  0
 22 23  1  0  0  0  0
 22 24  2  0  0  0  0
 20 21  1  0  0  0  0
 20 22  1  0  0  0  0
 19 20  2  0  0  0  0
 19 28  1  0  0  0  0
 17 18  1  0  0  0  0
 17 19  1  0  0  0  0
 15 16  1  0  0  0  0
 15 17  1  0  0  0  0
 14 15  2  0  0  0  0
 14 28  1  0  0  0  0
 11 12  1  0  0  0  0
 11 13  1  0  0  0  0
 11 14  1  0  0  0  0
  9 10  1  0  0  0  0
  9 11  1  0  0  0  0
  9 29  1  0  0  0  0
  7  8  1  0  0  0  0
  7  9  1  0  0  0  0
 33 34  1  0  0  0  0
 33 35  1  0  0  0  0
 33 36  1  0  0  0  0
 31 32  1  0  0  0  0
 31 33  1  0  0  0  0
M  END
$$$$
default_name
  -OEChem-02102213163D

 36 37  0     1  0  0  0  0  0999 V2000
   -4.0843   -4.0736    1.2944 H   0  0  0  0  0  0  0  0  0  0  0  0
   -4.0342   -3.2816    0.5484 C   0  0  0  0  0  0  0  0  0  0  0  0
   -4.8842   -2.6126    0.6694 H   0  0  0  0  0  0  0  0  0  0  0  0
   -4.0433   -3.7186   -0.4486 H   0  0  0  0  0  0  0  0  0  0  0  0
   -2.7532   -2.5046    0.7444 C   0  0  0  0  0  0  0  0  0  0  0  0
   -1.9803   -2.8096    1.6434 O   0  0  0  0  0  0  0  0  0  0  0  0
   -2.5332   -1.4966   -0.0966 N   0  0  0  0  0  0  0  0  0  0  0  0
   -3.2312   -1.2816   -0.7936 H   0  0  0  0  0  0  0  0  0  0  0  0
   -1.3593   -0.6196   -0.0536 C   0  0  1  0  0  0  0  0  0  0  0  0
   -0.4622   -1.2317   -0.1545 H   0  0  0  0  0  0  0  0  0  0  0  0
   -1.4074    0.3593   -1.2373 C   0  0  0  0  0  0  0  0  0  0  0  0
   -1.4326   -0.2131   -2.1663 H   0  0  0  0  0  0  0  0  0  0  0  0
   -2.3345    0.9319   -1.1769 H   0  0  0  0  0  0  0  0  0  0  0  0
   -0.2600    1.3202   -1.3161 C   0  0  0  0  0  0  0  0  0  0  0  0
    0.6160    1.5827   -0.3204 C   0  0  0  0  0  0  0  0  0  0  0  0
    0.5785    1.1377    0.6679 H   0  0  0  0  0  0  0  0  0  0  0  0
    1.5666    2.4813   -0.7633 N   0  0  0  0  0  0  0  0  0  0  0  0
    2.3200    2.8251   -0.1858 H   0  0  0  0  0  0  0  0  0  0  0  0
    1.3588    2.8321   -2.0803 C   0  0  0  0  0  0  0  0  0  0  0  0
    2.0492    3.6682   -2.9696 C   0  0  0  0  0  0  0  0  0  0  0  0
    2.9364    4.1945   -2.6493 H   0  0  0  0  0  0  0  0  0  0  0  0
    1.5694    3.8131   -4.2825 C   0  0  0  0  0  0  0  0  0  0  0  0
    2.0882    4.4546   -4.9820 H   0  0  0  0  0  0  0  0  0  0  0  0
    0.4085    3.1273   -4.6843 C   0  0  0  0  0  0  0  0  0  0  0  0
    0.0382    3.2482   -5.6929 H   0  0  0  0  0  0  0  0  0  0  0  0
   -0.2784    2.2911   -3.7814 C   0  0  0  0  0  0  0  0  0  0  0  0
   -1.1764    1.7805   -4.0991 H   0  0  0  0  0  0  0  0  0  0  0  0
    0.1814    2.1196   -2.4577 C   0  0  0  0  0  0  0  0  0  0  0  0
   -1.2663    0.1182    1.2910 C   0  0  0  0  0  0  0  0  0  0  0  0
   -0.1906    0.1931    1.8833 O   0  0  0  0  0  0  0  0  0  0  0  0
   -2.3930    0.6605    1.7722 N   0  0  0  0  0  0  0  0  0  0  0  0
   -3.2451    0.5077    1.2518 H   0  0  0  0  0  0  0  0  0  0  0  0
   -2.4787    1.3954    3.0311 C   0  0  0  0  0  0  0  0  0  0  0  0
   -1.7166    2.1767    3.0539 H   0  0  0  0  0  0  0  0  0  0  0  0
   -3.4649    1.8498    3.1344 H   0  0  0  0  0  0  0  0  0  0  0  0
   -2.3058    0.7133    3.8652 H   0  0  0  0  0  0  0  0  0  0  0  0
  5  6  2  0  0  0  0
  5  7  1  0  0  0  0
  2  3  1  0  0  0  0
  2  4  1  0  0  0  0
  2  5  1  0  0  0  0
  1  2  1  0  0  0  0
 29 30  2  0  0  0  0
 29 31  1  0  0  0  0
 26 27  1  0  0  0  0
 26 28  2  0  0  0  0
 24 25  1  0  0  0  0
 24 26  1  0  0  0  0
 22 23  1  0  0  0  0
 22 24  2  0  0  0  0
 20 21  1  0  0  0  0
 20 22  1  0  0  0  0
 19 20  2  0  0  0  0
 19 28  1  0  0  0  0
 17 18  1  0  0  0  0
 17 19  1  0  0  0  0
 15 16  1  0  0  0  0
 15 17  1  0  0  0  0
 14 15  2  0  0  0  0
 14 28  1  0  0  0  0
 11 12  1  0  0  0  0
 11 13  1  0  0  0  0
 11 14  1  0  0  0  0
  9 10  1  0  0  0  0
  9 11  1  0  0  0  0
  9 29  1  0  0  0  0
  7  8  1  0  0  0  0
  7  9  1  0  0  0  0
 33 34  1  0  0  0  0
 33 35  1  0  0  0  0
 33 36  1  0  0  0  0
 31 32  1  0  0  0  0
 31 33  1  0  0  0  0
M  END
$$$$
default_name
  -OEChem-02102213163D

 36 37  0     1  0  0  0  0  0999 V2000
   -4.0843   -4.0736    1.2944 H   0  0  0  0  0  0  0  0  0  0  0  0
   -4.0342   -3.2816    0.5484 C   0  0  0  0  0  0  0  0  0  0  0  0
   -4.8842   -2.6126    0.6694 H   0  0  0  0  0  0  0  0  0  0  0  0
   -4.0433   -3.7186   -0.4486 H   0  0  0  0  0  0  0  0  0  0  0  0
   -2.7532   -2.5046    0.7444 C   0  0  0  0  0  0  0  0  0  0  0  0
   -1.9803   -2.8096    1.6434 O   0  0  0  0  0  0  0  0  0  0  0  0
   -2.5332   -1.4966   -0.0966 N   0  0  0  0  0  0  0  0  0  0  0  0
   -3.2312   -1.2816   -0.7936 H   0  0  0  0  0  0  0  0  0  0  0  0
   -1.3593   -0.6196   -0.0536 C   0  0  1  0  0  0  0  0  0  0  0  0
   -0.4622   -1.2317   -0.1545 H   0  0  0  0  0  0  0  0  0  0  0  0
   -1.4074    0.3593   -1.2373 C   0  0  0  0  0  0  0  0  0  0  0  0
   -1.4326   -0.2131   -2.1663 H   0  0  0  0  0  0  0  0  0  0  0  0
   -2.3345    0.9319   -1.1769 H   0  0  0  0  0  0  0  0  0  0  0  0
   -0.2600    1.3202   -1.3161 C   0  0  0  0  0  0  0  0  0  0  0  0
    0.7755    1.3817   -0.4491 C   0  0  0  0  0  0  0  0  0  0  0  0
    0.8876    0.7485    0.4242 H   0  0  0  0  0  0  0  0  0  0  0  0
    1.6671    2.3536   -0.8590 N   0  0  0  0  0  0  0  0  0  0  0  0
    2.5153    2.5777   -0.3594 H   0  0  0  0  0  0  0  0  0  0  0  0
    1.2561    2.9591   -2.0274 C   0  0  0  0  0  0  0  0  0  0  0  0
    1.8157    3.9578   -2.8372 C   0  0  0  0  0  0  0  0  0  0  0  0
    2.7591    4.4124   -2.5725 H   0  0  0  0  0  0  0  0  0  0  0  0
    1.1310    4.3600   -3.9967 C   0  0  0  0  0  0  0  0  0  0  0  0
    1.5469    5.1296   -4.6328 H   0  0  0  0  0  0  0  0  0  0  0  0
   -0.1004    3.7644   -4.3257 C   0  0  0  0  0  0  0  0  0  0  0  0
   -0.6278    4.0827   -5.2142 H   0  0  0  0  0  0  0  0  0  0  0  0
   -0.6544    2.7629   -3.5033 C   0  0  0  0  0  0  0  0  0  0  0  0
   -1.6075    2.3231   -3.7605 H   0  0  0  0  0  0  0  0  0  0  0  0
    0.0115    2.3325   -2.3353 C   0  0  0  0  0  0  0  0  0  0  0  0
   -1.2663    0.1182    1.2910 C   0  0  0  0  0  0  0  0  0  0  0  0
   -0.1906    0.1931    1.8833 O   0  0  0  0  0  0  0  0  0  0  0  0
   -2.3930    0.6605    1.7722 N   0  0  0  0  0  0  0  0  0  0  0  0
   -3.2451    0.5077    1.2518 H   0  0  0  0  0  0  0  0  0  0  0  0
   -2.4787    1.3954    3.0311 C   0  0  0  0  0  0  0  0  0  0  0  0
   -1.7166    2.1767    3.0539 H   0  0  0  0  0  0  0  0  0  0  0  0
   -3.4649    1.8498    3.1344 H   0  0  0  0  0  0  0  0  0  0  0  0
   -2.3058    0.7133    3.8652 H   0  0  0  0  0  0  0  0  0  0  0  0
  5  6  2  0  0  0  0
  5  7  1  0  0  0  0
  2  3  1  0  0  0  0
  2  4  1  0  0  0  0
  2  5  1  0  0  0  0
  1  2  1  0  0  0  0
 29 30  2  0  0  0  0
 29 31  1  0  0  0  0
 26 27  1  0  0  0  0
 26 28  2  0  0  0  0
 24 25  1  0  0  0  0
 24 26  1  0  0  0  0
 22 23  1  0  0  0  0
 22 24  2  0  0  0  0
 20 21  1  0  0  0  0
 20 22  1  0  0  0  0
 19 20  2  0  0  0  0
 19 28  1  0  0  0  0
 17 18  1  0  0  0  0
 17 19  1  0  0  0  0
 15 16  1  0  0  0  0
 15 17  1  0  0  0  0
 14 15  2  0  0  0  0
 14 28  1  0  0  0  0
 11 12  1  0  0  0  0
 11 13  1  0  0  0  0
 11 14  1  0  0  0  0
  9 10  1  0  0  0  0
  9 11  1  0  0  0  0
  9 29  1  0  0  0  0
  7  8  1  0  0  0  0
  7  9  1  0  0  0  0
 33 34  1  0  0  0  0
 33 35  1  0  0  0  0
 33 36  1  0  0  0  0
 31 32  1  0  0  0  0
 31 33  1  0  0  0  0
M  END
$$$$
default_name
  -OEChem-02102213163D

 36 37  0     1  0  0  0  0  0999 V2000
   -4.0843   -4.0736    1.2944 H   0  0  0  0  0  0  0  0  0  0  0  0
   -4.0342   -3.2816    0.5484 C   0  0  0  0  0  0  0  0  0  0  0  0
   -4.8842   -2.6126    0.6694 H   0  0  0  0  0  0  0  0  0  0  0  0
   -4.0433   -3.7186   -0.4486 H   0  0  0  0  0  0  0  0  0  0  0  0
   -2.7532   -2.5046    0.7444 C   0  0  0  0  0  0  0  0  0  0  0  0
   -1.9803   -2.8096    1.6434 O   0  0  0  0  0  0  0  0  0  0  0  0
   -2.5332   -1.4966   -0.0966 N   0  0  0  0  0  0  0  0  0  0  0  0
   -3.2312   -1.2816   -0.7936 H   0  0  0  0  0  0  0  0  0  0  0  0
   -1.3593   -0.6196   -0.0536 C   0  0  1  0  0  0  0  0  0  0  0  0
   -0.4622   -1.2317   -0.1545 H   0  0  0  0  0  0  0  0  0  0  0  0
   -1.4074    0.3593   -1.2373 C   0  0  0  0  0  0  0  0  0  0  0  0
   -1.4326   -0.2131   -2.1663 H   0  0  0  0  0  0  0  0  0  0  0  0
   -2.3345    0.9319   -1.1769 H   0  0  0  0  0  0  0  0  0  0  0  0
   -0.2600    1.3202   -1.3161 C   0  0  0  0  0  0  0  0  0  0  0  0
    0.9054    1.2109   -0.6396 C   0  0  0  0  0  0  0  0  0  0  0  0
    1.1405    0.4167    0.0605 H   0  0  0  0  0  0  0  0  0  0  0  0
    1.7465    2.2477   -0.9934 N   0  0  0  0  0  0  0  0  0  0  0  0
    2.6717    2.3704   -0.6086 H   0  0  0  0  0  0  0  0  0  0  0  0
    1.1674    3.0727   -1.9340 C   0  0  0  0  0  0  0  0  0  0  0  0
    1.6161    4.2145   -2.6132 C   0  0  0  0  0  0  0  0  0  0  0  0
    2.6035    4.6102   -2.4258 H   0  0  0  0  0  0  0  0  0  0  0  0
    0.7625    4.8376   -3.5395 C   0  0  0  0  0  0  0  0  0  0  0  0
    1.0911    5.7199   -4.0720 H   0  0  0  0  0  0  0  0  0  0  0  0
   -0.5238    4.3157   -3.7686 C   0  0  0  0  0  0  0  0  0  0  0  0
   -1.1803    4.8031   -4.4760 H   0  0  0  0  0  0  0  0  0  0  0  0
   -0.9650    3.1686   -3.0788 C   0  0  0  0  0  0  0  0  0  0  0  0
   -1.9604    2.7859   -3.2544 H   0  0  0  0  0  0  0  0  0  0  0  0
   -0.1293    2.5161   -2.1467 C   0  0  0  0  0  0  0  0  0  0  0  0
   -1.2663    0.1182    1.2910 C   0  0  0  0  0  0  0  0  0  0  0  0
   -0.1906    0.1931    1.8833 O   0  0  0  0  0  0  0  0  0  0  0  0
   -2.3930    0.6605    1.7722 N   0  0  0  0  0  0  0  0  0  0  0  0
   -3.2451    0.5077    1.2518 H   0  0  0  0  0  0  0  0  0  0  0  0
   -2.4787    1.3954    3.0311 C   0  0  0  0  0  0  0  0  0  0  0  0
   -1.7166    2.1767    3.0539 H   0  0  0  0  0  0  0  0  0  0  0  0
   -3.4649    1.8498    3.1344 H   0  0  0  0  0  0  0  0  0  0  0  0
   -2.3058    0.7133    3.8652 H   0  0  0  0  0  0  0  0  0  0  0  0
  5  6  2  0  0  0  0
  5  7  1  0  0  0  0
  2  3  1  0  0  0  0
  2  4  1  0  0  0  0
  2  5  1  0  0  0  0
  1  2  1  0  0  0  0
 29 30  2  0  0  0  0
 29 31  1  0  0  0  0
 26 27  1  0  0  0  0
 26 28  2  0  0  0  0
 24 25  1  0  0  0  0
 24 26  1  0  0  0  0
 22 23  1  0  0  0  0
 22 24  2  0  0  0  0
 20 21  1  0  0  0  0
 20 22  1  0  0  0  0
 19 20  2  0  0  0  0
 19 28  1  0  0  0  0
 17 18  1  0  0  0  0
 17 19  1  0  0  0  0
 15 16  1  0  0  0  0
 15 17  1  0  0  0  0
 14 15  2  0  0  0  0
 14 28  1  0  0  0  0
 11 12  1  0  0  0  0
 11 13  1  0  0  0  0
 11 14  1  0  0  0  0
  9 10  1  0  0  0  0
  9 11  1  0  0  0  0
  9 29  1  0  0  0  0
  7  8  1  0  0  0  0
  7  9  1  0  0  0  0
 33 34  1  0  0  0  0
 33 35  1  0  0  0  0
 33 36  1  0  0  0  0
 31 32  1  0  0  0  0
 31 33  1  0  0  0  0
M  END
$$$$
default_name
  -OEChem-02102213163D

 36 37  0     1  0  0  0  0  0999 V2000
   -4.0843   -4.0736    1.2944 H   0  0  0  0  0  0  0  0  0  0  0  0
   -4.0342   -3.2816    0.5484 C   0  0  0  0  0  0  0  0  0  0  0  0
   -4.8842   -2.6126    0.6694 H   0  0  0  0  0  0  0  0  0  0  0  0
   -4.0433   -3.7186   -0.4486 H   0  0  0  0  0  0  0  0  0  0  0  0
   -2.7532   -2.5046    0.7444 C   0  0  0  0  0  0  0  0  0  0  0  0
   -1.9803   -2.8096    1.6434 O   0  0  0  0  0  0  0  0  0  0  0  0
   -2.5332   -1.4966   -0.0966 N   0  0  0  0  0  0  0  0  0  0  0  0
   -3.2312   -1.2816   -0.7936 H   0  0  0  0  0  0  0  0  0  0  0  0
   -1.3593   -0.6196   -0.0536 C   0  0  1  0  0  0  0  0  0  0  0  0
   -0.4622   -1.2317   -0.1545 H   0  0  0  0  0  0  0  0  0  0  0  0
   -1.4074    0.3593   -1.2373 C   0  0  0  0  0  0  0  0  0  0  0  0
   -1.4326   -0.2131   -2.1663 H   0  0  0  0  0  0  0  0  0  0  0  0
   -2.3345    0.9319   -1.1769 H   0  0  0  0  0  0  0  0  0  0  0  0
   -0.2600    1.3202   -1.3161 C   0  0  0  0  0  0  0  0  0  0  0  0
    0.9970    1.0819   -0.8792 C   0  0  0  0  0  0  0  0  0  0  0  0
    1.3199    0.1649   -0.3986 H   0  0  0  0  0  0  0  0  0  0  0  0
    1.7994    2.1710   -1.1573 N   0  0  0  0  0  0  0  0  0  0  0  0
    2.7787    2.2175   -0.9162 H   0  0  0  0  0  0  0  0  0  0  0  0
    1.0987    3.1651   -1.8066 C   0  0  0  0  0  0  0  0  0  0  0  0
    1.4640    4.4208   -2.3128 C   0  0  0  0  0  0  0  0  0  0  0  0
    2.4803    4.7743   -2.2191 H   0  0  0  0  0  0  0  0  0  0  0  0
    0.4889    5.2133   -2.9421 C   0  0  0  0  0  0  0  0  0  0  0  0
    0.7520    6.1850   -3.3376 H   0  0  0  0  0  0  0  0  0  0  0  0
   -0.8328    4.7435   -3.0510 C   0  0  0  0  0  0  0  0  0  0  0  0
   -1.5817    5.3601   -3.5285 H   0  0  0  0  0  0  0  0  0  0  0  0
   -1.1891    3.4806   -2.5368 C   0  0  0  0  0  0  0  0  0  0  0  0
   -2.2109    3.1375   -2.6153 H   0  0  0  0  0  0  0  0  0  0  0  0
   -0.2316    2.6581   -1.9047 C   0  0  0  0  0  0  0  0  0  0  0  0
   -1.2663    0.1182    1.2910 C   0  0  0  0  0  0  0  0  0  0  0  0
   -0.1906    0.1931    1.8833 O   0  0  0  0  0  0  0  0  0  0  0  0
   -2.3930    0.6605    1.7722 N   0  0  0  0  0  0  0  0  0  0  0  0
   -3.2451    0.5077    1.2518 H   0  0  0  0  0  0  0  0  0  0  0  0
   -2.4787    1.3954    3.0311 C   0  0  0  0  0  0  0  0  0  0  0  0
   -1.7166    2.1767    3.0539 H   0  0  0  0  0  0  0  0  0  0  0  0
   -3.4649    1.8498    3.1344 H   0  0  0  0  0  0  0  0  0  0  0  0
   -2.3058    0.7133    3.8652 H   0  0  0  0  0  0  0  0  0  0  0  0
  5  6  2  0  0  0  0
  5  7  1  0  0  0  0
  2  3  1  0  0  0  0
  2  4  1  0  0  0  0
  2  5  1  0  0  0  0
  1  2  1  0  0  0  0
 29 30  2  0  0  0  0
 29 31  1  0  0  0  0
 26 27  1  0  0  0  0
 26 28  2  0  0  0  0
 24 25  1  0  0  0  0
 24 26  1  0  0  0  0
 22 23  1  0  0  0  0
 22 24  2  0  0  0  0
 20 21  1  0  0  0  0
 20 22  1  0  0  0  0
 19 20  2  0  0  0  0
 19 28  1  0  0  0  0
 17 18  1  0  0  0  0
 17 19  1  0  0  0  0
 15 16  1  0  0  0  0
 15 17  1  0  0  0  0
 14 15  2  0  0  0  0
 14 28  1  0  0  0  0
 11 12  1  0  0  0  0
 11 13  1  0  0  0  0
 11 14  1  0  0  0  0
  9 10  1  0  0  0  0
  9 11  1  0  0  0  0
  9 29  1  0  0  0  0
  7  8  1  0  0  0  0
  7  9  1  0  0  0  0
 33 34  1  0  0  0  0
 33 35  1  0  0  0  0
 33 36  1  0  0  0  0
 31 32  1  0  0  0  0
 31 33  1  0  0  0  0
M  END
$$$$
default_name
  -OEChem-02102213163D

 36 37  0     1  0  0  0  0  0999 V2000
   -4.0843   -4.0736    1.2944 H   0  0  0  0  0  0  0  0  0  0  0  0
   -4.0342   -3.2816    0.5484 C   0  0  0  0  0  0  0  0  0  0  0  0
   -4.8842   -2.6126    0.6694 H   0  0  0  0  0  0  0  0  0  0  0  0
   -4.0433   -3.7186   -0.4486 H   0  0  0  0  0  0  0  0  0  0  0  0
   -2.7532   -2.5046    0.7444 C   0  0  0  0  0  0  0  0  0  0  0  0
   -1.9803   -2.8096    1.6434 O   0  0  0  0  0  0  0  0  0  0  0  0
   -2.5332   -1.4966   -0.0966 N   0  0  0  0  0  0  0  0  0  0  0  0
   -3.2312   -1.2816   -0.7936 H   0  0  0  0  0  0  0  0  0  0  0  0
   -1.3593   -0.6196   -0.0536 C   0  0  1  0  0  0  0  0  0  0  0  0
   -0.4622   -1.2317   -0.1545 H   0  0  0  0  0  0  0  0  0  0  0  0
   -1.4074    0.3593   -1.2373 C   0  0  0  0  0  0  0  0  0  0  0  0
   -1.4326   -0.2131   -2.1663 H   0  0  0  0  0  0  0  0  0  0  0  0
   -2.3345    0.9319   -1.1769 H   0  0  0  0  0  0  0  0  0  0  0  0
   -0.2600    1.3202   -1.3161 C   0  0  0  0  0  0  0  0  0  0  0  0
    1.0439    1.0035   -1.1513 C   0  0  0  0  0  0  0  0  0  0  0  0
    1.4136    0.0101   -0.9218 H   0  0  0  0  0  0  0  0  0  0  0  0
    1.8223    2.1287   -1.3397 N   0  0  0  0  0  0  0  0  0  0  0  0
    2.8289    2.1292   -1.2615 H   0  0  0  0  0  0  0  0  0  0  0  0
    1.0548    3.2301   -1.6538 C   0  0  0  0  0  0  0  0  0  0  0  0
    1.3698    4.5626   -1.9566 C   0  0  0  0  0  0  0  0  0  0  0  0
    2.3979    4.8934   -1.9664 H   0  0  0  0  0  0  0  0  0  0  0  0
    0.3288    5.4616   -2.2452 C   0  0  0  0  0  0  0  0  0  0  0  0
    0.5526    6.4934   -2.4799 H   0  0  0  0  0  0  0  0  0  0  0  0
   -1.0064    5.0188   -2.2218 C   0  0  0  0  0  0  0  0  0  0  0  0
   -1.8046    5.7158   -2.4363 H   0  0  0  0  0  0  0  0  0  0  0  0
   -1.3113    3.6777   -1.9142 C   0  0  0  0  0  0  0  0  0  0  0  0
   -2.3421    3.3539   -1.8867 H   0  0  0  0  0  0  0  0  0  0  0  0
   -0.2883    2.7486   -1.6259 C   0  0  0  0  0  0  0  0  0  0  0  0
   -1.2663    0.1182    1.2910 C   0  0  0  0  0  0  0  0  0  0  0  0
   -0.1906    0.1931    1.8833 O   0  0  0  0  0  0  0  0  0  0  0  0
   -2.3930    0.6605    1.7722 N   0  0  0  0  0  0  0  0  0  0  0  0
   -3.2451    0.5077    1.2518 H   0  0  0  0  0  0  0  0  0  0  0  0
   -2.4787    1.3954    3.0311 C   0  0  0  0  0  0  0  0  0  0  0  0
   -1.7166    2.1767    3.0539 H   0  0  0  0  0  0  0  0  0  0  0  0
   -3.4649    1.8498    3.1344 H   0  0  0  0  0  0  0  0  0  0  0  0
   -2.3058    0.7133    3.8652 H   0  0  0  0  0  0  0  0  0  0  0  0
  5  6  2  0  0  0  0
  5  7  1  0  0  0  0
  2  3  1  0  0  0  0
  2  4  1  0  0  0  0
  2  5  1  0  0  0  0
  1  2  1  0  0  0  0
 29 30  2  0  0  0  0
 29 31  1  0  0  0  0
 26 27  1  0  0  0  0
 26 28  2  0  0  0  0
 24 25  1  0  0  0  0
 24 26  1  0  0  0  0
 22 23  1  0  0  0  0
 22 24  2  0  0  0  0
 20 21  1  0  0  0  0
 20 22  1  0  0  0  0
 19 20  2  0  0  0  0
 19 28  1  0  0  0  0
 17 18  1  0  0  0  0
 17 19  1  0  0  0  0
 15 16  1  0  0  0  0
 15 17  1  0  0  0  0
 14 15  2  0  0  0  0
 14 28  1  0  0  0  0
 11 12  1  0  0  0  0
 11 13  1  0  0  0  0
 11 14  1  0  0  0  0
  9 10  1  0  0  0  0
  9 11  1  0  0  0  0
  9 29  1  0  0  0  0
  7  8  1  0  0  0  0
  7  9  1  0  0  0  0
 33 34  1  0  0  0  0
 33 35  1  0  0  0  0
 33 36  1  0  0  0  0
 31 32  1  0  0  0  0
 31 33  1  0  0  0  0
M  END
$$$$
default_name
  -OEChem-02102213163D

 36 37  0     1  0  0  0  0  0999 V2000
   -4.0843   -4.0736    1.2944 H   0  0  0  0  0  0  0  0  0  0  0  0
   -4.0342   -3.2816    0.5484 C   0  0  0  0  0  0  0  0  0  0  0  0
   -4.8842   -2.6126    0.6694 H   0  0  0  0  0  0  0  0  0  0  0  0
   -4.0433   -3.7186   -0.4486 H   0  0  0  0  0  0  0  0  0  0  0  0
   -2.7532   -2.5046    0.7444 C   0  0  0  0  0  0  0  0  0  0  0  0
   -1.9803   -2.8096    1.6434 O   0  0  0  0  0  0  0  0  0  0  0  0
   -2.5332   -1.4966   -0.0966 N   0  0  0  0  0  0  0  0  0  0  0  0
   -3.2312   -1.2816   -0.7936 H   0  0  0  0  0  0  0  0  0  0  0  0
   -1.3593   -0.6196   -0.0536 C   0  0  1  0  0  0  0  0  0  0  0  0
   -0.4622   -1.2317   -0.1545 H   0  0  0  0  0  0  0  0  0  0  0  0
   -1.4074    0.3593   -1.2373 C   0  0  0  0  0  0  0  0  0  0  0  0
   -1.4326   -0.2131   -2.1663 H   0  0  0  0  0  0  0  0  0  0  0  0
   -2.3345    0.9319   -1.1769 H   0  0  0  0  0  0  0  0  0  0  0  0
   -0.2600    1.3202   -1.3161 C   0  0  0  0  0  0  0  0  0  0  0  0
    1.0431    0.9811   -1.4374 C   0  0  0  0  0  0  0  0  0  0  0  0
    1.4151   -0.0370   -1.4733 H   0  0  0  0  0  0  0  0  0  0  0  0
    1.8136    2.1237   -1.5280 N   0  0  0  0  0  0  0  0  0  0  0  0
    2.8188    2.1117   -1.6208 H   0  0  0  0  0  0  0  0  0  0  0  0
    1.0387    3.2632   -1.4861 C   0  0  0  0  0  0  0  0  0  0  0  0
    1.3397    4.6302   -1.5687 C   0  0  0  0  0  0  0  0  0  0  0  0
    2.3618    4.9596   -1.6851 H   0  0  0  0  0  0  0  0  0  0  0  0
    0.2933    5.5655   -1.4963 C   0  0  0  0  0  0  0  0  0  0  0  0
    0.5066    6.6241   -1.5572 H   0  0  0  0  0  0  0  0  0  0  0  0
   -1.0327    5.1228   -1.3375 C   0  0  0  0  0  0  0  0  0  0  0  0
   -1.8339    5.8461   -1.2738 H   0  0  0  0  0  0  0  0  0  0  0  0
   -1.3234    3.7463   -1.2536 C   0  0  0  0  0  0  0  0  0  0  0  0
   -2.3449    3.4203   -1.1183 H   0  0  0  0  0  0  0  0  0  0  0  0
   -0.2955    2.7816   -1.3293 C   0  0  0  0  0  0  0  0  0  0  0  0
   -1.2663    0.1182    1.2910 C   0  0  0  0  0  0  0  0  0  0  0  0
   -0.1906    0.1931    1.8833 O   0  0  0  0  0  0  0  0  0  0  0  0
   -2.3930    0.6605    1.7722 N   0  0  0  0  0  0  0  0  0  0  0  0
   -3.2451    0.5077    1.2518 H   0  0  0  0  0  0  0  0  0  0  0  0
   -2.4787    1.3954    3.0311 C   0  0  0  0  0  0  0  0  0  0  0  0
   -1.7166    2.1767    3.0539 H   0  0  0  0  0  0  0  0  0  0  0  0
   -3.4649    1.8498    3.1344 H   0  0  0  0  0  0  0  0  0  0  0  0
   -2.3058    0.7133    3.8652 H   0  0  0  0  0  0  0  0  0  0  0  0
  5  6  2  0  0  0  0
  5  7  1  0  0  0  0
  2  3  1  0  0  0  0
  2  4  1  0  0  0  0
  2  5  1  0  0  0  0
  1  2  1  0  0  0  0
 29 30  2  0  0  0  0
 29 31  1  0  0  0  0
 26 27  1  0  0  0  0
 26 28  2  0  0  0  0
 24 25  1  0  0  0  0
 24 26  1  0  0  0  0
 22 23  1  0  0  0  0
 22 24  2  0  0  0  0
 20 21  1  0  0  0  0
 20 22  1  0  0  0  0
 19 20  2  0  0  0  0
 19 28  1  0  0  0  0
 17 18  1  0  0  0  0
 17 19  1  0  0  0  0
 15 16  1  0  0  0  0
 15 17  1  0  0  0  0
 14 15  2  0  0  0  0
 14 28  1  0  0  0  0
 11 12  1  0  0  0  0
 11 13  1  0  0  0  0
 11 14  1  0  0  0  0
  9 10  1  0  0  0  0
  9 11  1  0  0  0  0
  9 29  1  0  0  0  0
  7  8  1  0  0  0  0
  7  9  1  0  0  0  0
 33 34  1  0  0  0  0
 33 35  1  0  0  0  0
 33 36  1  0  0  0  0
 31 32  1  0  0  0  0
 31 33  1  0  0  0  0
M  END
$$$$
default_name
  -OEChem-02102213163D

 36 37  0     1  0  0  0  0  0999 V2000
   -4.0843   -4.0736    1.2944 H   0  0  0  0  0  0  0  0  0  0  0  0
   -4.0342   -3.2816    0.5484 C   0  0  0  0  0  0  0  0  0  0  0  0
   -4.8842   -2.6126    0.6694 H   0  0  0  0  0  0  0  0  0  0  0  0
   -4.0433   -3.7186   -0.4486 H   0  0  0  0  0  0  0  0  0  0  0  0
   -2.7532   -2.5046    0.7444 C   0  0  0  0  0  0  0  0  0  0  0  0
   -1.9803   -2.8096    1.6434 O   0  0  0  0  0  0  0  0  0  0  0  0
   -2.5332   -1.4966   -0.0966 N   0  0  0  0  0  0  0  0  0  0  0  0
   -3.2312   -1.2816   -0.7936 H   0  0  0  0  0  0  0  0  0  0  0  0
   -1.3593   -0.6196   -0.0536 C   0  0  1  0  0  0  0  0  0  0  0  0
   -0.4622   -1.2317   -0.1545 H   0  0  0  0  0  0  0  0  0  0  0  0
   -1.4074    0.3593   -1.2373 C   0  0  0  0  0  0  0  0  0  0  0  0
   -1.4326   -0.2131   -2.1663 H   0  0  0  0  0  0  0  0  0  0  0  0
   -2.3345    0.9319   -1.1769 H   0  0  0  0  0  0  0  0  0  0  0  0
   -0.2600    1.3202   -1.3161 C   0  0  0  0  0  0  0  0  0  0  0  0
    0.9945    1.0161   -1.7181 C   0  0  0  0  0  0  0  0  0  0  0  0
    1.3245    0.0268   -2.0156 H   0  0  0  0  0  0  0  0  0  0  0  0
    1.7739    2.1563   -1.7095 N   0  0  0  0  0  0  0  0  0  0  0  0
    2.7493    2.1662   -1.9696 H   0  0  0  0  0  0  0  0  0  0  0  0
    1.0513    3.2621   -1.3148 C   0  0  0  0  0  0  0  0  0  0  0  0
    1.3760    4.6192   -1.1757 C   0  0  0  0  0  0  0  0  0  0  0  0
    2.3745    4.9683   -1.3942 H   0  0  0  0  0  0  0  0  0  0  0  0
    0.3846    5.5179   -0.7464 C   0  0  0  0  0  0  0  0  0  0  0  0
    0.6170    6.5681   -0.6323 H   0  0  0  0  0  0  0  0  0  0  0  0
   -0.9100    5.0483   -0.4584 C   0  0  0  0  0  0  0  0  0  0  0  0
   -1.6674    5.7419   -0.1203 H   0  0  0  0  0  0  0  0  0  0  0  0
   -1.2245    3.6818   -0.5998 C   0  0  0  0  0  0  0  0  0  0  0  0
   -2.2193    3.3322   -0.3625 H   0  0  0  0  0  0  0  0  0  0  0  0
   -0.2528    2.7548   -1.0350 C   0  0  0  0  0  0  0  0  0  0  0  0
   -1.2663    0.1182    1.2910 C   0  0  0  0  0  0  0  0  0  0  0  0
   -0.1906    0.1931    1.8833 O   0  0  0  0  0  0  0  0  0  0  0  0
   -2.3930    0.6605    1.7722 N   0  0  0  0  0  0  0  0  0  0  0  0
   -3.2451    0.5077    1.2518 H   0  0  0  0  0  0  0  0  0  0  0  0
   -2.4787    1.3954    3.0311 C   0  0  0  0  0  0  0  0  0  0  0  0
   -1.7166    2.1767    3.0539 H   0  0  0  0  0  0  0  0  0  0  0  0
   -3.4649    1.8498    3.1344 H   0  0  0  0  0  0  0  0  0  0  0  0
   -2.3058    0.7133    3.8652 H   0  0  0  0  0  0  0  0  0  0  0  0
  5  6  2  0  0  0  0
  5  7  1  0  0  0  0
  2  3  1  0  0  0  0
  2  4  1  0  0  0  0
  2  5  1  0  0  0  0
  1  2  1  0  0  0  0
 29 30  2  0  0  0  0
 29 31  1  0  0  0  0
 26 27  1  0  0  0  0
 26 28  2  0  0  0  0
 24 25  1  0  0  0  0
 24 26  1  0  0  0  0
 22 23  1  0  0  0  0
 22 24  2  0  0  0  0
 20 21  1  0  0  0  0
 20 22  1  0  0  0  0
 19 20  2  0  0  0  0
 19 28  1  0  0  0  0
 17 18  1  0  0  0  0
 17 19  1  0  0  0  0
 15 16  1  0  0  0  0
 15 17  1  0  0  0  0
 14 15  2  0  0  0  0
 14 28  1  0  0  0  0
 11 12  1  0  0  0  0
 11 13  1  0  0  0  0
 11 14  1  0  0  0  0
  9 10  1  0  0  0  0
  9 11  1  0  0  0  0
  9 29  1  0  0  0  0
  7  8  1  0  0  0  0
  7  9  1  0  0  0  0
 33 34  1  0  0  0  0
 33 35  1  0  0  0  0
 33 36  1  0  0  0  0
 31 32  1  0  0  0  0
 31 33  1  0  0  0  0
M  END
$$$$
default_name
  -OEChem-02102213163D

 36 37  0     1  0  0  0  0  0999 V2000
   -4.0843   -4.0736    1.2944 H   0  0  0  0  0  0  0  0  0  0  0  0
   -4.0342   -3.2816    0.5484 C   0  0  0  0  0  0  0  0  0  0  0  0
   -4.8842   -2.6126    0.6694 H   0  0  0  0  0  0  0  0  0  0  0  0
   -4.0433   -3.7186   -0.4486 H   0  0  0  0  0  0  0  0  0  0  0  0
   -2.7532   -2.5046    0.7444 C   0  0  0  0  0  0  0  0  0  0  0  0
   -1.9803   -2.8096    1.6434 O   0  0  0  0  0  0  0  0  0  0  0  0
   -2.5332   -1.4966   -0.0966 N   0  0  0  0  0  0  0  0  0  0  0  0
   -3.2312   -1.2816   -0.7936 H   0  0  0  0  0  0  0  0  0  0  0  0
   -1.3593   -0.6196   -0.0536 C   0  0  1  0  0  0  0  0  0  0  0  0
   -0.4622   -1.2317   -0.1545 H   0  0  0  0  0  0  0  0  0  0  0  0
   -1.4074    0.3593   -1.2373 C   0  0  0  0  0  0  0  0  0  0  0  0
   -1.4326   -0.2131   -2.1663 H   0  0  0  0  0  0  0  0  0  0  0  0
   -2.3345    0.9319   -1.1769 H   0  0  0  0  0  0  0  0  0  0  0  0
   -0.2600    1.3202   -1.3161 C   0  0  0  0  0  0  0  0  0  0  0  0
    0.9014    1.1063   -1.9743 C   0  0  0  0  0  0  0  0  0  0  0  0
    1.1478    0.1971   -2.5117 H   0  0  0  0  0  0  0  0  0  0  0  0
    1.7058    2.2242   -1.8717 N   0  0  0  0  0  0  0  0  0  0  0  0
    2.6250    2.2888   -2.2843 H   0  0  0  0  0  0  0  0  0  0  0  0
    1.0920    3.2270   -1.1517 C   0  0  0  0  0  0  0  0  0  0  0  0
    1.4761    4.5301   -0.8043 C   0  0  0  0  0  0  0  0  0  0  0  0
    2.4352    4.9189   -1.1137 H   0  0  0  0  0  0  0  0  0  0  0  0
    0.5966    5.3221   -0.0466 C   0  0  0  0  0  0  0  0  0  0  0  0
    0.8764    6.3293    0.2316 H   0  0  0  0  0  0  0  0  0  0  0  0
   -0.6465    4.8005    0.3557 C   0  0  0  0  0  0  0  0  0  0  0  0
   -1.3166    5.4105    0.9456 H   0  0  0  0  0  0  0  0  0  0  0  0
   -1.0214    3.4887    0.0025 C   0  0  0  0  0  0  0  0  0  0  0  0
   -1.9736    3.0957    0.3293 H   0  0  0  0  0  0  0  0  0  0  0  0
   -0.1631    2.6700   -0.7631 C   0  0  0  0  0  0  0  0  0  0  0  0
   -1.2663    0.1182    1.2910 C   0  0  0  0  0  0  0  0  0  0  0  0
   -0.1906    0.1931    1.8833 O   0  0  0  0  0  0  0  0  0  0  0  0
   -2.3930    0.6605    1.7722 N   0  0  0  0  0  0  0  0  0  0  0  0
   -3.2451    0.5077    1.2518 H   0  0  0  0  0  0  0  0  0  0  0  0
   -2.4787    1.3954    3.0311 C   0  0  0  0  0  0  0  0  0  0  0  0
   -1.7166    2.1767    3.0539 H   0  0  0  0  0  0  0  0  0  0  0  0
   -3.4649    1.8498    3.1344 H   0  0  0  0  0  0  0  0  0  0  0  0
   -2.3058    0.7133    3.8652 H   0  0  0  0  0  0  0  0  0  0  0  0
  5  6  2  0  0  0  0
  5  7  1  0  0  0  0
  2  3  1  0  0  0  0
  2  4  1  0  0  0  0
  2  5  1  0  0  0  0
  1  2  1  0  0  0  0
 29 30  2  0  0  0  0
 29 31  1  0  0  0  0
 26 27  1  0  0  0  0
 26 28  2  0  0  0  0
 24 25  1  0  0  0  0
 24 26  1  0  0  0  0
 22 23  1  0  0  0  0
 22 24  2  0  0  0  0
 20 21  1  0  0  0  0
 20 22  1  0  0  0  0
 19 20  2  0  0  0  0
 19 28  1  0  0  0  0
 17 18  1  0  0  0  0
 17 19  1  0  0  0  0
 15 16  1  0  0  0  0
 15 17  1  0  0  0  0
 14 15  2  0  0  0  0
 14 28  1  0  0  0  0
 11 12  1  0  0  0  0
 11 13  1  0  0  0  0
 11 14  1  0  0  0  0
  9 10  1  0  0  0  0
  9 11  1  0  0  0  0
  9 29  1  0  0  0  0
  7  8  1  0  0  0  0
  7  9  1  0  0  0  0
 33 34  1  0  0  0  0
 33 35  1  0  0  0  0
 33 36  1  0  0  0  0
 31 32  1  0  0  0  0
 31 33  1  0  0  0  0
M  END
$$$$
default_name
  -OEChem-02102213163D

 36 37  0     1  0  0  0  0  0999 V2000
   -4.0843   -4.0736    1.2944 H   0  0  0  0  0  0  0  0  0  0  0  0
   -4.0342   -3.2816    0.5484 C   0  0  0  0  0  0  0  0  0  0  0  0
   -4.8842   -2.6126    0.6694 H   0  0  0  0  0  0  0  0  0  0  0  0
   -4.0433   -3.7186   -0.4486 H   0  0  0  0  0  0  0  0  0  0  0  0
   -2.7532   -2.5046    0.7444 C   0  0  0  0  0  0  0  0  0  0  0  0
   -1.9803   -2.8096    1.6434 O   0  0  0  0  0  0  0  0  0  0  0  0
   -2.5332   -1.4966   -0.0966 N   0  0  0  0  0  0  0  0  0  0  0  0
   -3.2312   -1.2816   -0.7936 H   0  0  0  0  0  0  0  0  0  0  0  0
   -1.3593   -0.6196   -0.0536 C   0  0  1  0  0  0  0  0  0  0  0  0
   -0.4622   -1.2317   -0.1545 H   0  0  0  0  0  0  0  0  0  0  0  0
   -1.4074    0.3593   -1.2373 C   0  0  0  0  0  0  0  0  0  0  0  0
   -1.4326   -0.2131   -2.1663 H   0  0  0  0  0  0  0  0  0  0  0  0
   -2.3345    0.9319   -1.1769 H   0  0  0  0  0  0  0  0  0  0  0  0
   -0.2600    1.3202   -1.3161 C   0  0  0  0  0  0  0  0  0  0  0  0
    0.7702    1.2453   -2.1884 C   0  0  0  0  0  0  0  0  0  0  0  0
    0.8971    0.4623   -2.9279 H   0  0  0  0  0  0  0  0  0  0  0  0
    1.6141    2.3229   -2.0036 N   0  0  0  0  0  0  0  0  0  0  0  0
    2.4543    2.4713   -2.5433 H   0  0  0  0  0  0  0  0  0  0  0  0
    1.1578    3.1601   -1.0078 C   0  0  0  0  0  0  0  0  0  0  0  0
    1.6333    4.3691   -0.4798 C   0  0  0  0  0  0  0  0  0  0  0  0
    2.5397    4.8147   -0.8626 H   0  0  0  0  0  0  0  0  0  0  0  0
    0.9149    4.9915    0.5553 C   0  0  0  0  0  0  0  0  0  0  0  0
    1.2670    5.9238    0.9756 H   0  0  0  0  0  0  0  0  0  0  0  0
   -0.2604    4.3963    1.0492 C   0  0  0  0  0  0  0  0  0  0  0  0
   -0.8054    4.8743    1.8513 H   0  0  0  0  0  0  0  0  0  0  0  0
   -0.7279    3.1800    0.5123 C   0  0  0  0  0  0  0  0  0  0  0  0
   -1.6248    2.7268    0.9099 H   0  0  0  0  0  0  0  0  0  0  0  0
   -0.0326    2.5330   -0.5322 C   0  0  0  0  0  0  0  0  0  0  0  0
   -1.2663    0.1182    1.2910 C   0  0  0  0  0  0  0  0  0  0  0  0
   -0.1906    0.1931    1.8833 O   0  0  0  0  0  0  0  0  0  0  0  0
   -2.3930    0.6605    1.7722 N   0  0  0  0  0  0  0  0  0  0  0  0
   -3.2451    0.5077    1.2518 H   0  0  0  0  0  0  0  0  0  0  0  0
   -2.4787    1.3954    3.0311 C   0  0  0  0  0  0  0  0  0  0  0  0
   -1.7166    2.1767    3.0539 H   0  0  0  0  0  0  0  0  0  0  0  0
   -3.4649    1.8498    3.1344 H   0  0  0  0  0  0  0  0  0  0  0  0
   -2.3058    0.7133    3.8652 H   0  0  0  0  0  0  0  0  0  0  0  0
  5  6  2  0  0  0  0
  5  7  1  0  0  0  0
  2  3  1  0  0  0  0
  2  4  1  0  0  0  0
  2  5  1  0  0  0  0
  1  2  1  0  0  0  0
 29 30  2  0  0  0  0
 29 31  1  0  0  0  0
 26 27  1  0  0  0  0
 26 28  2  0  0  0  0
 24 25  1  0  0  0  0
 24 26  1  0  0  0  0
 22 23  1  0  0  0  0
 22 24  2  0  0  0  0
 20 21  1  0  0  0  0
 20 22  1  0  0  0  0
 19 20  2  0  0  0  0
 19 28  1  0  0  0  0
 17 18  1  0  0  0  0
 17 19  1  0  0  0  0
 15 16  1  0  0  0  0
 15 17  1  0  0  0  0
 14 15  2  0  0  0  0
 14 28  1  0  0  0  0
 11 12  1  0  0  0  0
 11 13  1  0  0  0  0
 11 14  1  0  0  0  0
  9 10  1  0  0  0  0
  9 11  1  0  0  0  0
  9 29  1  0  0  0  0
  7  8  1  0  0  0  0
  7  9  1  0  0  0  0
 33 34  1  0  0  0  0
 33 35  1  0  0  0  0
 33 36  1  0  0  0  0
 31 32  1  0  0  0  0
 31 33  1  0  0  0  0
M  END
$$$$
default_name
  -OEChem-02102213163D

 36 37  0     1  0  0  0  0  0999 V2000
   -4.0843   -4.0736    1.2944 H   0  0  0  0  0  0  0  0  0  0  0  0
   -4.0342   -3.2816    0.5484 C   0  0  0  0  0  0  0  0  0  0  0  0
   -4.8842   -2.6126    0.6694 H   0  0  0  0  0  0  0  0  0  0  0  0
   -4.0433   -3.7186   -0.4486 H   0  0  0  0  0  0  0  0  0  0  0  0
   -2.7532   -2.5046    0.7444 C   0  0  0  0  0  0  0  0  0  0  0  0
   -1.9803   -2.8096    1.6434 O   0  0  0  0  0  0  0  0  0  0  0  0
   -2.5332   -1.4966   -0.0966 N   0  0  0  0  0  0  0  0  0  0  0  0
   -3.2312   -1.2816   -0.7936 H   0  0  0  0  0  0  0  0  0  0  0  0
   -1.3593   -0.6196   -0.0536 C   0  0  1  0  0  0  0  0  0  0  0  0
   -0.4622   -1.2317   -0.1545 H   0  0  0  0  0  0  0  0  0  0  0  0
   -1.4074    0.3593   -1.2373 C   0  0  0  0  0  0  0  0  0  0  0  0
   -1.4326   -0.2131   -2.1663 H   0  0  0  0  0  0  0  0  0  0  0  0
   -2.3345    0.9319   -1.1769 H   0  0  0  0  0  0  0  0  0  0  0  0
   -0.2600    1.3202   -1.3161 C   0  0  0  0  0  0  0  0  0  0  0  0
    0.6099    1.4239   -2.3458 C   0  0  0  0  0  0  0  0  0  0  0  0
    0.5895    0.8044   -3.2357 H   0  0  0  0  0  0  0  0  0  0  0  0
    1.5049    2.4457   -2.0963 N   0  0  0  0  0  0  0  0  0  0  0  0
    2.2490    2.7012   -2.7289 H   0  0  0  0  0  0  0  0  0  0  0  0
    1.2444    3.0662   -0.8931 C   0  0  0  0  0  0  0  0  0  0  0  0
    1.8367    4.1471   -0.2244 C   0  0  0  0  0  0  0  0  0  0  0  0
    2.6808    4.6629   -0.6580 H   0  0  0  0  0  0  0  0  0  0  0  0
    1.3177    4.5485    1.0184 C   0  0  0  0  0  0  0  0  0  0  0  0
    1.7623    5.3795    1.5492 H   0  0  0  0  0  0  0  0  0  0  0  0
    0.2222    3.8632    1.5749 C   0  0  0  0  0  0  0  0  0  0  0  0
   -0.1686    4.1700    2.5352 H   0  0  0  0  0  0  0  0  0  0  0  0
   -0.3640    2.7768    0.8948 C   0  0  0  0  0  0  0  0  0  0  0  0
   -1.1966    2.2507    1.3397 H   0  0  0  0  0  0  0  0  0  0  0  0
    0.1300    2.3531   -0.3579 C   0  0  0  0  0  0  0  0  0  0  0  0
   -1.2663    0.1182    1.2910 C   0  0  0  0  0  0  0  0  0  0  0  0
   -0.1906    0.1931    1.8833 O   0  0  0  0  0  0  0  0  0  0  0  0
   -2.3930    0.6605    1.7722 N   0  0  0  0  0  0  0  0  0  0  0  0
   -3.2451    0.5077    1.2518 H   0  0  0  0  0  0  0  0  0  0  0  0
   -2.4787    1.3954    3.0311 C   0  0  0  0  0  0  0  0  0  0  0  0
   -1.7166    2.1767    3.0539 H   0  0  0  0  0  0  0  0  0  0  0  0
   -3.4649    1.8498    3.1344 H   0  0  0  0  0  0  0  0  0  0  0  0
   -2.3058    0.7133    3.8652 H   0  0  0  0  0  0  0  0  0  0  0  0
  5  6  2  0  0  0  0
  5  7  1  0  0  0  0
  2  3  1  0  0  0  0
  2  4  1  0  0  0  0
  2  5  1  0  0  0  0
  1  2  1  0  0  0  0
 29 30  2  0  0  0  0
 29 31  1  0  0  0  0
 26 27  1  0  0  0  0
 26 28  2  0  0  0  0
 24 25  1  0  0  0  0
 24 26  1  0  0  0  0
 22 23  1  0  0  0  0
 22 24  2  0  0  0  0
 20 21  1  0  0  0  0
 20 22  1  0  0  0  0
 19 20  2  0  0  0  0
 19 28  1  0  0  0  0
 17 18  1  0  0  0  0
 17 19  1  0  0  0  0
 15 16  1  0  0  0  0
 15 17  1  0  0  0  0
 14 15  2  0  0  0  0
 14 28  1  0  0  0  0
 11 12  1  0  0  0  0
 11 13  1  0  0  0  0
 11 14  1  0  0  0  0
  9 10  1  0  0  0  0
  9 11  1  0  0  0  0
  9 29  1  0  0  0  0
  7  8  1  0  0  0  0
  7  9  1  0  0  0  0
 33 34  1  0  0  0  0
 33 35  1  0  0  0  0
 33 36  1  0  0  0  0
 31 32  1  0  0  0  0
 31 33  1  0  0  0  0
M  END
$$$$
default_name
  -OEChem-02102213163D

 36 37  0     1  0  0  0  0  0999 V2000
   -4.0843   -4.0736    1.2944 H   0  0  0  0  0  0  0  0  0  0  0  0
   -4.0342   -3.2816    0.5484 C   0  0  0  0  0  0  0  0  0  0  0  0
   -4.8842   -2.6126    0.6694 H   0  0  0  0  0  0  0  0  0  0  0  0
   -4.0433   -3.7186   -0.4486 H   0  0  0  0  0  0  0  0  0  0  0  0
   -2.7532   -2.5046    0.7444 C   0  0  0  0  0  0  0  0  0  0  0  0
   -1.9803   -2.8096    1.6434 O   0  0  0  0  0  0  0  0  0  0  0  0
   -2.5332   -1.4966   -0.0966 N   0  0  0  0  0  0  0  0  0  0  0  0
   -3.2312   -1.2816   -0.7936 H   0  0  0  0  0  0  0  0  0  0  0  0
   -1.3593   -0.6196   -0.0536 C   0  0  1  0  0  0  0  0  0  0  0  0
   -0.4622   -1.2317   -0.1545 H   0  0  0  0  0  0  0  0  0  0  0  0
   -1.4074    0.3593   -1.2373 C   0  0  0  0  0  0  0  0  0  0  0  0
   -1.4326   -0.2131   -2.1663 H   0  0  0  0  0  0  0  0  0  0  0  0
   -2.3345    0.9319   -1.1769 H   0  0  0  0  0  0  0  0  0  0  0  0
   -0.2600    1.3202   -1.3161 C   0  0  0  0  0  0  0  0  0  0  0  0
    0.4313    1.6297   -2.4360 C   0  0  0  0  0  0  0  0  0  0  0  0
    0.2459    1.1999   -3.4142 H   0  0  0  0  0  0  0  0  0  0  0  0
    1.3858    2.5841   -2.1434 N   0  0  0  0  0  0  0  0  0  0  0  0
    2.0230    2.9629   -2.8287 H   0  0  0  0  0  0  0  0  0  0  0  0
    1.3457    2.9515   -0.8152 C   0  0  0  0  0  0  0  0  0  0  0  0
    2.0725    3.8793   -0.0554 C   0  0  0  0  0  0  0  0  0  0  0  0
    2.8491    4.4738   -0.5138 H   0  0  0  0  0  0  0  0  0  0  0  0
    1.7776    4.0234    1.3111 C   0  0  0  0  0  0  0  0  0  0  0  0
    2.3285    4.7332    1.9132 H   0  0  0  0  0  0  0  0  0  0  0  0
    0.7683    3.2375    1.8969 C   0  0  0  0  0  0  0  0  0  0  0  0
    0.5503    3.3456    2.9504 H   0  0  0  0  0  0  0  0  0  0  0  0
    0.0455    2.3066    1.1240 C   0  0  0  0  0  0  0  0  0  0  0  0
   -0.7181    1.6998    1.5895 H   0  0  0  0  0  0  0  0  0  0  0  0
    0.3136    2.1427   -0.2523 C   0  0  0  0  0  0  0  0  0  0  0  0
   -1.2663    0.1182    1.2910 C   0  0  0  0  0  0  0  0  0  0  0  0
   -0.1906    0.1931    1.8833 O   0  0  0  0  0  0  0  0  0  0  0  0
   -2.3930    0.6605    1.7722 N   0  0  0  0  0  0  0  0  0  0  0  0
   -3.2451    0.5077    1.2518 H   0  0  0  0  0  0  0  0  0  0  0  0
   -2.4787    1.3954    3.0311 C   0  0  0  0  0  0  0  0  0  0  0  0
   -1.7166    2.1767    3.0539 H   0  0  0  0  0  0  0  0  0  0  0  0
   -3.4649    1.8498    3.1344 H   0  0  0  0  0  0  0  0  0  0  0  0
   -2.3058    0.7133    3.8652 H   0  0  0  0  0  0  0  0  0  0  0  0
  5  6  2  0  0  0  0
  5  7  1  0  0  0  0
  2  3  1  0  0  0  0
  2  4  1  0  0  0  0
  2  5  1  0  0  0  0
  1  2  1  0  0  0  0
 29 30  2  0  0  0  0
 29 31  1  0  0  0  0
 26 27  1  0  0  0  0
 26 28  2  0  0  0  0
 24 25  1  0  0  0  0
 24 26  1  0  0  0  0
 22 23  1  0  0  0  0
 22 24  2  0  0  0  0
 20 21  1  0  0  0  0
 20 22  1  0  0  0  0
 19 20  2  0  0  0  0
 19 28  1  0  0  0  0
 17 18  1  0  0  0  0
 17 19  1  0  0  0  0
 15 16  1  0  0  0  0
 15 17  1  0  0  0  0
 14 15  2  0  0  0  0
 14 28  1  0  0  0  0
 11 12  1  0  0  0  0
 11 13  1  0  0  0  0
 11 14  1  0  0  0  0
  9 10  1  0  0  0  0
  9 11  1  0  0  0  0
  9 29  1  0  0  0  0
  7  8  1  0  0  0  0
  7  9  1  0  0  0  0
 33 34  1  0  0  0  0
 33 35  1  0  0  0  0
 33 36  1  0  0  0  0
 31 32  1  0  0  0  0
 31 33  1  0  0  0  0
M  END
$$$$
default_name
  -OEChem-02102213163D

 36 37  0     1  0  0  0  0  0999 V2000
   -4.0843   -4.0736    1.2944 H   0  0  0  0  0  0  0  0  0  0  0  0
   -4.0342   -3.2816    0.5484 C   0  0  0  0  0  0  0  0  0  0  0  0
   -4.8842   -2.6126    0.6694 H   0  0  0  0  0  0  0  0  0  0  0  0
   -4.0433   -3.7186   -0.4486 H   0  0  0  0  0  0  0  0  0  0  0  0
   -2.7532   -2.5046    0.7444 C   0  0  0  0  0  0  0  0  0  0  0  0
   -1.9803   -2.8096    1.6434 O   0  0  0  0  0  0  0  0  0  0  0  0
   -2.5332   -1.4966   -0.0966 N   0  0  0  0  0  0  0  0  0  0  0  0
   -3.2312   -1.2816   -0.7936 H   0  0  0  0  0  0  0  0  0  0  0  0
   -1.3593   -0.6196   -0.0536 C   0  0  1  0  0  0  0  0  0  0  0  0
   -0.4622   -1.2317   -0.1545 H   0  0  0  0  0  0  0  0  0  0  0  0
   -1.4074    0.3593   -1.2373 C   0  0  0  0  0  0  0  0  0  0  0  0
   -1.4326   -0.2131   -2.1663 H   0  0  0  0  0  0  0  0  0  0  0  0
   -2.3345    0.9319   -1.1769 H   0  0  0  0  0  0  0  0  0  0  0  0
   -0.2600    1.3202   -1.3161 C   0  0  0  0  0  0  0  0  0  0  0  0
    0.2466    1.8489   -2.4526 C   0  0  0  0  0  0  0  0  0  0  0  0
   -0.1101    1.6221   -3.4513 H   0  0  0  0  0  0  0  0  0  0  0  0
    1.2648    2.7287   -2.1416 N   0  0  0  0  0  0  0  0  0  0  0  0
    1.7918    3.2385   -2.8356 H   0  0  0  0  0  0  0  0  0  0  0  0
    1.4550    2.8240   -0.7795 C   0  0  0  0  0  0  0  0  0  0  0  0
    2.3248    3.5840    0.0157 C   0  0  0  0  0  0  0  0  0  0  0  0
    3.0329    4.2603   -0.4400 H   0  0  0  0  0  0  0  0  0  0  0  0
    2.2632    3.4518    1.4135 C   0  0  0  0  0  0  0  0  0  0  0  0
    2.9270    4.0292    2.0427 H   0  0  0  0  0  0  0  0  0  0  0  0
    1.3408    2.5618    1.9934 C   0  0  0  0  0  0  0  0  0  0  0  0
    1.3025    2.4571    3.0689 H   0  0  0  0  0  0  0  0  0  0  0  0
    0.4727    1.8015    1.1843 C   0  0  0  0  0  0  0  0  0  0  0  0
   -0.2219    1.1116    1.6422 H   0  0  0  0  0  0  0  0  0  0  0  0
    0.5055    1.9159   -0.2224 C   0  0  0  0  0  0  0  0  0  0  0  0
   -1.2663    0.1182    1.2910 C   0  0  0  0  0  0  0  0  0  0  0  0
   -0.1906    0.1931    1.8833 O   0  0  0  0  0  0  0  0  0  0  0  0
   -2.3930    0.6605    1.7722 N   0  0  0  0  0  0  0  0  0  0  0  0
   -3.2451    0.5077    1.2518 H   0  0  0  0  0  0  0  0  0  0  0  0
   -2.4787    1.3954    3.0311 C   0  0  0  0  0  0  0  0  0  0  0  0
   -1.7166    2.1767    3.0539 H   0  0  0  0  0  0  0  0  0  0  0  0
   -3.4649    1.8498    3.1344 H   0  0  0  0  0  0  0  0  0  0  0  0
   -2.3058    0.7133    3.8652 H   0  0  0  0  0  0  0  0  0  0  0  0
  5  6  2  0  0  0  0
  5  7  1  0  0  0  0
  2  3  1  0  0  0  0
  2  4  1  0  0  0  0
  2  5  1  0  0  0  0
  1  2  1  0  0  0  0
 29 30  2  0  0  0  0
 29 31  1  0  0  0  0
 26 27  1  0  0  0  0
 26 28  2  0  0  0  0
 24 25  1  0  0  0  0
 24 26  1  0  0  0  0
 22 23  1  0  0  0  0
 22 24  2  0  0  0  0
 20 21  1  0  0  0  0
 20 22  1  0  0  0  0
 19 20  2  0  0  0  0
 19 28  1  0  0  0  0
 17 18  1  0  0  0  0
 17 19  1  0  0  0  0
 15 16  1  0  0  0  0
 15 17  1  0  0  0  0
 14 15  2  0  0  0  0
 14 28  1  0  0  0  0
 11 12  1  0  0  0  0
 11 13  1  0  0  0  0
 11 14  1  0  0  0  0
  9 10  1  0  0  0  0
  9 11  1  0  0  0  0
  9 29  1  0  0  0  0
  7  8  1  0  0  0  0
  7  9  1  0  0  0  0
 33 34  1  0  0  0  0
 33 35  1  0  0  0  0
 33 36  1  0  0  0  0
 31 32  1  0  0  0  0
 31 33  1  0  0  0  0
M  END
$$$$
default_name
  -OEChem-02102213163D

 36 37  0     1  0  0  0  0  0999 V2000
   -4.0843   -4.0736    1.2944 H   0  0  0  0  0  0  0  0  0  0  0  0
   -4.0342   -3.2816    0.5484 C   0  0  0  0  0  0  0  0  0  0  0  0
   -4.8842   -2.6126    0.6694 H   0  0  0  0  0  0  0  0  0  0  0  0
   -4.0433   -3.7186   -0.4486 H   0  0  0  0  0  0  0  0  0  0  0  0
   -2.7532   -2.5046    0.7444 C   0  0  0  0  0  0  0  0  0  0  0  0
   -1.9803   -2.8096    1.6434 O   0  0  0  0  0  0  0  0  0  0  0  0
   -2.5332   -1.4966   -0.0966 N   0  0  0  0  0  0  0  0  0  0  0  0
   -3.2312   -1.2816   -0.7936 H   0  0  0  0  0  0  0  0  0  0  0  0
   -1.3593   -0.6196   -0.0536 C   0  0  1  0  0  0  0  0  0  0  0  0
   -0.4622   -1.2317   -0.1545 H   0  0  0  0  0  0  0  0  0  0  0  0
   -1.4074    0.3593   -1.2373 C   0  0  0  0  0  0  0  0  0  0  0  0
   -1.4326   -0.2131   -2.1663 H   0  0  0  0  0  0  0  0  0  0  0  0
   -2.3345    0.9319   -1.1769 H   0  0  0  0  0  0  0  0  0  0  0  0
   -0.2600    1.3202   -1.3161 C   0  0  0  0  0  0  0  0  0  0  0  0
    0.0685    2.0663   -2.3946 C   0  0  0  0  0  0  0  0  0  0  0  0
   -0.4545    2.0420   -3.3443 H   0  0  0  0  0  0  0  0  0  0  0  0
    1.1502    2.8697   -2.0912 N   0  0  0  0  0  0  0  0  0  0  0  0
    1.5709    3.5093   -2.7494 H   0  0  0  0  0  0  0  0  0  0  0  0
    1.5648    2.6922   -0.7884 C   0  0  0  0  0  0  0  0  0  0  0  0
    2.5762    3.2812   -0.0161 C   0  0  0  0  0  0  0  0  0  0  0  0
    3.2199    4.0370   -0.4415 H   0  0  0  0  0  0  0  0  0  0  0  0
    2.7415    2.8729    1.3185 C   0  0  0  0  0  0  0  0  0  0  0  0
    3.5170    3.3154    1.9290 H   0  0  0  0  0  0  0  0  0  0  0  0
    1.9005    1.8823    1.8577 C   0  0  0  0  0  0  0  0  0  0  0  0
    2.0366    1.5652    2.8824 H   0  0  0  0  0  0  0  0  0  0  0  0
    0.8885    1.2958    1.0716 C   0  0  0  0  0  0  0  0  0  0  0  0
    0.2581    0.5263    1.4942 H   0  0  0  0  0  0  0  0  0  0  0  0
    0.6928    1.6884   -0.2702 C   0  0  0  0  0  0  0  0  0  0  0  0
   -1.2663    0.1182    1.2910 C   0  0  0  0  0  0  0  0  0  0  0  0
   -0.1906    0.1931    1.8833 O   0  0  0  0  0  0  0  0  0  0  0  0
   -2.3930    0.6605    1.7722 N   0  0  0  0  0  0  0  0  0  0  0  0
   -3.2451    0.5077    1.2518 H   0  0  0  0  0  0  0  0  0  0  0  0
   -2.4787    1.3954    3.0311 C   0  0  0  0  0  0  0  0  0  0  0  0
   -1.7166    2.1767    3.0539 H   0  0  0  0  0  0  0  0  0  0  0  0
   -3.4649    1.8498    3.1344 H   0  0  0  0  0  0  0  0  0  0  0  0
   -2.3058    0.7133    3.8652 H   0  0  0  0  0  0  0  0  0  0  0  0
  5  6  2  0  0  0  0
  5  7  1  0  0  0  0
  2  3  1  0  0  0  0
  2  4  1  0  0  0  0
  2  5  1  0  0  0  0
  1  2  1  0  0  0  0
 29 30  2  0  0  0  0
 29 31  1  0  0  0  0
 26 27  1  0  0  0  0
 26 28  2  0  0  0  0
 24 25  1  0  0  0  0
 24 26  1  0  0  0  0
 22 23  1  0  0  0  0
 22 24  2  0  0  0  0
 20 21  1  0  0  0  0
 20 22  1  0  0  0  0
 19 20  2  0  0  0  0
 19 28  1  0  0  0  0
 17 18  1  0  0  0  0
 17 19  1  0  0  0  0
 15 16  1  0  0  0  0
 15 17  1  0  0  0  0
 14 15  2  0  0  0  0
 14 28  1  0  0  0  0
 11 12  1  0  0  0  0
 11 13  1  0  0  0  0
 11 14  1  0  0  0  0
  9 10  1  0  0  0  0
  9 11  1  0  0  0  0
  9 29  1  0  0  0  0
  7  8  1  0  0  0  0
  7  9  1  0  0  0  0
 33 34  1  0  0  0  0
 33 35  1  0  0  0  0
 33 36  1  0  0  0  0
 31 32  1  0  0  0  0
 31 33  1  0  0  0  0
M  END
$$$$
default_name
  -OEChem-02102213163D

 36 37  0     1  0  0  0  0  0999 V2000
   -4.0843   -4.0736    1.2944 H   0  0  0  0  0  0  0  0  0  0  0  0
   -4.0342   -3.2816    0.5484 C   0  0  0  0  0  0  0  0  0  0  0  0
   -4.8842   -2.6126    0.6694 H   0  0  0  0  0  0  0  0  0  0  0  0
   -4.0433   -3.7186   -0.4486 H   0  0  0  0  0  0  0  0  0  0  0  0
   -2.7532   -2.5046    0.7444 C   0  0  0  0  0  0  0  0  0  0  0  0
   -1.9803   -2.8096    1.6434 O   0  0  0  0  0  0  0  0  0  0  0  0
   -2.5332   -1.4966   -0.0966 N   0  0  0  0  0  0  0  0  0  0  0  0
   -3.2312   -1.2816   -0.7936 H   0  0  0  0  0  0  0  0  0  0  0  0
   -1.3593   -0.6196   -0.0536 C   0  0  1  0  0  0  0  0  0  0  0  0
   -0.4622   -1.2317   -0.1545 H   0  0  0  0  0  0  0  0  0  0  0  0
   -1.4074    0.3593   -1.2373 C   0  0  0  0  0  0  0  0  0  0  0  0
   -1.6994   -0.1885   -2.1350 H   0  0  0  0  0  0  0  0  0  0  0  0
   -2.1792    1.1052   -1.0399 H   0  0  0  0  0  0  0  0  0  0  0  0
   -0.1212    1.0719   -1.5271 C   0  0  0  0  0  0  0  0  0  0  0  0
    0.0728    1.9743   -2.5149 C   0  0  0  0  0  0  0  0  0  0  0  0
   -0.6827    2.2765   -3.2319 H   0  0  0  0  0  0  0  0  0  0  0  0
    1.3646    2.4592   -2.4536 N   0  0  0  0  0  0  0  0  0  0  0  0
    1.7341    3.1427   -3.0981 H   0  0  0  0  0  0  0  0  0  0  0  0
    2.0667    1.9020   -1.4060 C   0  0  0  0  0  0  0  0  0  0  0  0
    3.3694    2.0854   -0.9207 C   0  0  0  0  0  0  0  0  0  0  0  0
    4.0401    2.7817   -1.4023 H   0  0  0  0  0  0  0  0  0  0  0  0
    3.7905    1.3491    0.1998 C   0  0  0  0  0  0  0  0  0  0  0  0
    4.7922    1.4766    0.5876 H   0  0  0  0  0  0  0  0  0  0  0  0
    2.9089    0.4402    0.8131 C   0  0  0  0  0  0  0  0  0  0  0  0
    3.2398   -0.1303    1.6698 H   0  0  0  0  0  0  0  0  0  0  0  0
    1.6024    0.2626    0.3155 C   0  0  0  0  0  0  0  0  0  0  0  0
    0.9397   -0.4486    0.7878 H   0  0  0  0  0  0  0  0  0  0  0  0
    1.1471    0.9916   -0.8045 C   0  0  0  0  0  0  0  0  0  0  0  0
   -1.2663    0.1182    1.2910 C   0  0  0  0  0  0  0  0  0  0  0  0
   -0.1906    0.1931    1.8833 O   0  0  0  0  0  0  0  0  0  0  0  0
   -2.3930    0.6605    1.7722 N   0  0  0  0  0  0  0  0  0  0  0  0
   -3.2451    0.5077    1.2518 H   0  0  0  0  0  0  0  0  0  0  0  0
   -2.4787    1.3954    3.0311 C   0  0  0  0  0  0  0  0  0  0  0  0
   -1.7166    2.1767    3.0539 H   0  0  0  0  0  0  0  0  0  0  0  0
   -3.4649    1.8498    3.1344 H   0  0  0  0  0  0  0  0  0  0  0  0
   -2.3058    0.7133    3.8652 H   0  0  0  0  0  0  0  0  0  0  0  0
  5  6  2  0  0  0  0
  5  7  1  0  0  0  0
  2  3  1  0  0  0  0
  2  4  1  0  0  0  0
  2  5  1  0  0  0  0
  1  2  1  0  0  0  0
 29 30  2  0  0  0  0
 29 31  1  0  0  0  0
 26 27  1  0  0  0  0
 26 28  2  0  0  0  0
 24 25  1  0  0  0  0
 24 26  1  0  0  0  0
 22 23  1  0  0  0  0
 22 24  2  0  0  0  0
 20 21  1  0  0  0  0
 20 22  1  0  0  0  0
 19 20  2  0  0  0  0
 19 28  1  0  0  0  0
 17 18  1  0  0  0  0
 17 19  1  0  0  0  0
 15 16  1  0  0  0  0
 15 17  1  0  0  0  0
 14 15  2  0  0  0  0
 14 28  1  0  0  0  0
 11 12  1  0  0  0  0
 11 13  1  0  0  0  0
 11 14  1  0  0  0  0
  9 10  1  0  0  0  0
  9 11  1  0  0  0  0
  9 29  1  0  0  0  0
  7  8  1  0  0  0  0
  7  9  1  0  0  0  0
 33 34  1  0  0  0  0
 33 35  1  0  0  0  0
 33 36  1  0  0  0  0
 31 32  1  0  0  0  0
 31 33  1  0  0  0  0
M  END
$$$$
default_name
  -OEChem-02102213163D

 36 37  0     1  0  0  0  0  0999 V2000
   -4.0843   -4.0736    1.2944 H   0  0  0  0  0  0  0  0  0  0  0  0
   -4.0342   -3.2816    0.5484 C   0  0  0  0  0  0  0  0  0  0  0  0
   -4.8842   -2.6126    0.6694 H   0  0  0  0  0  0  0  0  0  0  0  0
   -4.0433   -3.7186   -0.4486 H   0  0  0  0  0  0  0  0  0  0  0  0
   -2.7532   -2.5046    0.7444 C   0  0  0  0  0  0  0  0  0  0  0  0
   -1.9803   -2.8096    1.6434 O   0  0  0  0  0  0  0  0  0  0  0  0
   -2.5332   -1.4966   -0.0966 N   0  0  0  0  0  0  0  0  0  0  0  0
   -3.2312   -1.2816   -0.7936 H   0  0  0  0  0  0  0  0  0  0  0  0
   -1.3593   -0.6196   -0.0536 C   0  0  1  0  0  0  0  0  0  0  0  0
   -0.4622   -1.2317   -0.1545 H   0  0  0  0  0  0  0  0  0  0  0  0
   -1.4074    0.3593   -1.2373 C   0  0  0  0  0  0  0  0  0  0  0  0
   -1.6994   -0.1885   -2.1350 H   0  0  0  0  0  0  0  0  0  0  0  0
   -2.1792    1.1052   -1.0399 H   0  0  0  0  0  0  0  0  0  0  0  0
   -0.1212    1.0719   -1.5271 C   0  0  0  0  0  0  0  0  0  0  0  0
    0.0128    2.1660   -2.3099 C   0  0  0  0  0  0  0  0  0  0  0  0
   -0.8008    2.6491   -2.8399 H   0  0  0  0  0  0  0  0  0  0  0  0
    1.3312    2.5776   -2.3107 N   0  0  0  0  0  0  0  0  0  0  0  0
    1.6654    3.3750   -2.8319 H   0  0  0  0  0  0  0  0  0  0  0  0
    2.1143    1.7738   -1.5099 C   0  0  0  0  0  0  0  0  0  0  0  0
    3.4741    1.7959   -1.1680 C   0  0  0  0  0  0  0  0  0  0  0  0
    4.1267    2.5581   -1.5676 H   0  0  0  0  0  0  0  0  0  0  0  0
    3.9759    0.8114   -0.2996 C   0  0  0  0  0  0  0  0  0  0  0  0
    5.0222    0.8120   -0.0256 H   0  0  0  0  0  0  0  0  0  0  0  0
    3.1161   -0.1798    0.2079 C   0  0  0  0  0  0  0  0  0  0  0  0
    3.5081   -0.9402    0.8691 H   0  0  0  0  0  0  0  0  0  0  0  0
    1.7515   -0.1934   -0.1441 C   0  0  0  0  0  0  0  0  0  0  0  0
    1.1047   -0.9683    0.2424 H   0  0  0  0  0  0  0  0  0  0  0  0
    1.2154    0.7851   -1.0090 C   0  0  0  0  0  0  0  0  0  0  0  0
   -1.2663    0.1182    1.2910 C   0  0  0  0  0  0  0  0  0  0  0  0
   -0.1906    0.1931    1.8833 O   0  0  0  0  0  0  0  0  0  0  0  0
   -2.3930    0.6605    1.7722 N   0  0  0  0  0  0  0  0  0  0  0  0
   -3.2451    0.5077    1.2518 H   0  0  0  0  0  0  0  0  0  0  0  0
   -2.4787    1.3954    3.0311 C   0  0  0  0  0  0  0  0  0  0  0  0
   -1.7166    2.1767    3.0539 H   0  0  0  0  0  0  0  0  0  0  0  0
   -3.4649    1.8498    3.1344 H   0  0  0  0  0  0  0  0  0  0  0  0
   -2.3058    0.7133    3.8652 H   0  0  0  0  0  0  0  0  0  0  0  0
  5  6  2  0  0  0  0
  5  7  1  0  0  0  0
  2  3  1  0  0  0  0
  2  4  1  0  0  0  0
  2  5  1  0  0  0  0
  1  2  1  0  0  0  0
 29 30  2  0  0  0  0
 29 31  1  0  0  0  0
 26 27  1  0  0  0  0
 26 28  2  0  0  0  0
 24 25  1  0  0  0  0
 24 26  1  0  0  0  0
 22 23  1  0  0  0  0
 22 24  2  0  0  0  0
 20 21  1  0  0  0  0
 20 22  1  0  0  0  0
 19 20  2  0  0  0  0
 19 28  1  0  0  0  0
 17 18  1  0  0  0  0
 17 19  1  0  0  0  0
 15 16  1  0  0  0  0
 15 17  1  0  0  0  0
 14 15  2  0  0  0  0
 14 28  1  0  0  0  0
 11 12  1  0  0  0  0
 11 13  1  0  0  0  0
 11 14  1  0  0  0  0
  9 10  1  0  0  0  0
  9 11  1  0  0  0  0
  9 29  1  0  0  0  0
  7  8  1  0  0  0  0
  7  9  1  0  0  0  0
 33 34  1  0  0  0  0
 33 35  1  0  0  0  0
 33 36  1  0  0  0  0
 31 32  1  0  0  0  0
 31 33  1  0  0  0  0
M  END
$$$$
default_name
  -OEChem-02102213163D

 36 37  0     1  0  0  0  0  0999 V2000
   -4.0843   -4.0736    1.2944 H   0  0  0  0  0  0  0  0  0  0  0  0
   -4.0342   -3.2816    0.5484 C   0  0  0  0  0  0  0  0  0  0  0  0
   -4.8842   -2.6126    0.6694 H   0  0  0  0  0  0  0  0  0  0  0  0
   -4.0433   -3.7186   -0.4486 H   0  0  0  0  0  0  0  0  0  0  0  0
   -2.7532   -2.5046    0.7444 C   0  0  0  0  0  0  0  0  0  0  0  0
   -1.9803   -2.8096    1.6434 O   0  0  0  0  0  0  0  0  0  0  0  0
   -2.5332   -1.4966   -0.0966 N   0  0  0  0  0  0  0  0  0  0  0  0
   -3.2312   -1.2816   -0.7936 H   0  0  0  0  0  0  0  0  0  0  0  0
   -1.3593   -0.6196   -0.0536 C   0  0  1  0  0  0  0  0  0  0  0  0
   -0.4622   -1.2317   -0.1545 H   0  0  0  0  0  0  0  0  0  0  0  0
   -1.4074    0.3593   -1.2373 C   0  0  0  0  0  0  0  0  0  0  0  0
   -1.6994   -0.1885   -2.1350 H   0  0  0  0  0  0  0  0  0  0  0  0
   -2.1792    1.1052   -1.0399 H   0  0  0  0  0  0  0  0  0  0  0  0
   -0.1212    1.0719   -1.5271 C   0  0  0  0  0  0  0  0  0  0  0  0
   -0.0104    2.3086   -2.0619 C   0  0  0  0  0  0  0  0  0  0  0  0
   -0.8479    2.9277   -2.3640 H   0  0  0  0  0  0  0  0  0  0  0  0
    1.3224    2.6619   -2.1422 N   0  0  0  0  0  0  0  0  0  0  0  0
    1.6435    3.5436   -2.5147 H   0  0  0  0  0  0  0  0  0  0  0  0
    2.1411    1.6706   -1.6445 C   0  0  0  0  0  0  0  0  0  0  0  0
    3.5303    1.5660   -1.4840 C   0  0  0  0  0  0  0  0  0  0  0  0
    4.1789    2.3745   -1.7876 H   0  0  0  0  0  0  0  0  0  0  0  0
    4.0666    0.3937   -0.9243 C   0  0  0  0  0  0  0  0  0  0  0  0
    5.1357    0.2947   -0.7939 H   0  0  0  0  0  0  0  0  0  0  0  0
    3.2107   -0.6546   -0.5398 C   0  0  0  0  0  0  0  0  0  0  0  0
    3.6282   -1.5581   -0.1173 H   0  0  0  0  0  0  0  0  0  0  0  0
    1.8161   -0.5392   -0.7076 C   0  0  0  0  0  0  0  0  0  0  0  0
    1.1710   -1.3574   -0.4203 H   0  0  0  0  0  0  0  0  0  0  0  0
    1.2459    0.6276   -1.2609 C   0  0  0  0  0  0  0  0  0  0  0  0
   -1.2663    0.1182    1.2910 C   0  0  0  0  0  0  0  0  0  0  0  0
   -0.1906    0.1931    1.8833 O   0  0  0  0  0  0  0  0  0  0  0  0
   -2.3930    0.6605    1.7722 N   0  0  0  0  0  0  0  0  0  0  0  0
   -3.2451    0.5077    1.2518 H   0  0  0  0  0  0  0  0  0  0  0  0
   -2.4787    1.3954    3.0311 C   0  0  0  0  0  0  0  0  0  0  0  0
   -1.7166    2.1767    3.0539 H   0  0  0  0  0  0  0  0  0  0  0  0
   -3.4649    1.8498    3.1344 H   0  0  0  0  0  0  0  0  0  0  0  0
   -2.3058    0.7133    3.8652 H   0  0  0  0  0  0  0  0  0  0  0  0
  5  6  2  0  0  0  0
  5  7  1  0  0  0  0
  2  3  1  0  0  0  0
  2  4  1  0  0  0  0
  2  5  1  0  0  0  0
  1  2  1  0  0  0  0
 29 30  2  0  0  0  0
 29 31  1  0  0  0  0
 26 27  1  0  0  0  0
 26 28  2  0  0  0  0
 24 25  1  0  0  0  0
 24 26  1  0  0  0  0
 22 23  1  0  0  0  0
 22 24  2  0  0  0  0
 20 21  1  0  0  0  0
 20 22  1  0  0  0  0
 19 20  2  0  0  0  0
 19 28  1  0  0  0  0
 17 18  1  0  0  0  0
 17 19  1  0  0  0  0
 15 16  1  0  0  0  0
 15 17  1  0  0  0  0
 14 15  2  0  0  0  0
 14 28  1  0  0  0  0
 11 12  1  0  0  0  0
 11 13  1  0  0  0  0
 11 14  1  0  0  0  0
  9 10  1  0  0  0  0
  9 11  1  0  0  0  0
  9 29  1  0  0  0  0
  7  8  1  0  0  0  0
  7  9  1  0  0  0  0
 33 34  1  0  0  0  0
 33 35  1  0  0  0  0
 33 36  1  0  0  0  0
 31 32  1  0  0  0  0
 31 33  1  0  0  0  0
M  END
$$$$
default_name
  -OEChem-02102213163D

 36 37  0     1  0  0  0  0  0999 V2000
   -4.0843   -4.0736    1.2944 H   0  0  0  0  0  0  0  0  0  0  0  0
   -4.0342   -3.2816    0.5484 C   0  0  0  0  0  0  0  0  0  0  0  0
   -4.8842   -2.6126    0.6694 H   0  0  0  0  0  0  0  0  0  0  0  0
   -4.0433   -3.7186   -0.4486 H   0  0  0  0  0  0  0  0  0  0  0  0
   -2.7532   -2.5046    0.7444 C   0  0  0  0  0  0  0  0  0  0  0  0
   -1.9803   -2.8096    1.6434 O   0  0  0  0  0  0  0  0  0  0  0  0
   -2.5332   -1.4966   -0.0966 N   0  0  0  0  0  0  0  0  0  0  0  0
   -3.2312   -1.2816   -0.7936 H   0  0  0  0  0  0  0  0  0  0  0  0
   -1.3593   -0.6196   -0.0536 C   0  0  1  0  0  0  0  0  0  0  0  0
   -0.4622   -1.2317   -0.1545 H   0  0  0  0  0  0  0  0  0  0  0  0
   -1.4074    0.3593   -1.2373 C   0  0  0  0  0  0  0  0  0  0  0  0
   -1.6994   -0.1885   -2.1350 H   0  0  0  0  0  0  0  0  0  0  0  0
   -2.1792    1.1052   -1.0399 H   0  0  0  0  0  0  0  0  0  0  0  0
   -0.1212    1.0719   -1.5271 C   0  0  0  0  0  0  0  0  0  0  0  0
    0.0049    2.3925   -1.7878 C   0  0  0  0  0  0  0  0  0  0  0  0
   -0.8210    3.0936   -1.8366 H   0  0  0  0  0  0  0  0  0  0  0  0
    1.3389    2.7063   -1.9597 N   0  0  0  0  0  0  0  0  0  0  0  0
    1.6697    3.6371   -2.1682 H   0  0  0  0  0  0  0  0  0  0  0  0
    2.1453    1.5995   -1.8007 C   0  0  0  0  0  0  0  0  0  0  0  0
    3.5341    1.4112   -1.8472 C   0  0  0  0  0  0  0  0  0  0  0  0
    4.1930    2.2434   -2.0473 H   0  0  0  0  0  0  0  0  0  0  0  0
    4.0564    0.1244   -1.6317 C   0  0  0  0  0  0  0  0  0  0  0  0
    5.1249   -0.0399   -1.6648 H   0  0  0  0  0  0  0  0  0  0  0  0
    3.1863   -0.9519   -1.3791 C   0  0  0  0  0  0  0  0  0  0  0  0
    3.5918   -1.9418   -1.2221 H   0  0  0  0  0  0  0  0  0  0  0  0
    1.7919   -0.7514   -1.3366 C   0  0  0  0  0  0  0  0  0  0  0  0
    1.1340   -1.5893   -1.1549 H   0  0  0  0  0  0  0  0  0  0  0  0
    1.2364    0.5300   -1.5429 C   0  0  0  0  0  0  0  0  0  0  0  0
   -1.2663    0.1182    1.2910 C   0  0  0  0  0  0  0  0  0  0  0  0
   -0.1906    0.1931    1.8833 O   0  0  0  0  0  0  0  0  0  0  0  0
   -2.3930    0.6605    1.7722 N   0  0  0  0  0  0  0  0  0  0  0  0
   -3.2451    0.5077    1.2518 H   0  0  0  0  0  0  0  0  0  0  0  0
   -2.4787    1.3954    3.0311 C   0  0  0  0  0  0  0  0  0  0  0  0
   -1.7166    2.1767    3.0539 H   0  0  0  0  0  0  0  0  0  0  0  0
   -3.4649    1.8498    3.1344 H   0  0  0  0  0  0  0  0  0  0  0  0
   -2.3058    0.7133    3.8652 H   0  0  0  0  0  0  0  0  0  0  0  0
  5  6  2  0  0  0  0
  5  7  1  0  0  0  0
  2  3  1  0  0  0  0
  2  4  1  0  0  0  0
  2  5  1  0  0  0  0
  1  2  1  0  0  0  0
 29 30  2  0  0  0  0
 29 31  1  0  0  0  0
 26 27  1  0  0  0  0
 26 28  2  0  0  0  0
 24 25  1  0  0  0  0
 24 26  1  0  0  0  0
 22 23  1  0  0  0  0
 22 24  2  0  0  0  0
 20 21  1  0  0  0  0
 20 22  1  0  0  0  0
 19 20  2  0  0  0  0
 19 28  1  0  0  0  0
 17 18  1  0  0  0  0
 17 19  1  0  0  0  0
 15 16  1  0  0  0  0
 15 17  1  0  0  0  0
 14 15  2  0  0  0  0
 14 28  1  0  0  0  0
 11 12  1  0  0  0  0
 11 13  1  0  0  0  0
 11 14  1  0  0  0  0
  9 10  1  0  0  0  0
  9 11  1  0  0  0  0
  9 29  1  0  0  0  0
  7  8  1  0  0  0  0
  7  9  1  0  0  0  0
 33 34  1  0  0  0  0
 33 35  1  0  0  0  0
 33 36  1  0  0  0  0
 31 32  1  0  0  0  0
 31 33  1  0  0  0  0
M  END
$$$$
default_name
  -OEChem-02102213163D

 36 37  0     1  0  0  0  0  0999 V2000
   -4.0843   -4.0736    1.2944 H   0  0  0  0  0  0  0  0  0  0  0  0
   -4.0342   -3.2816    0.5484 C   0  0  0  0  0  0  0  0  0  0  0  0
   -4.8842   -2.6126    0.6694 H   0  0  0  0  0  0  0  0  0  0  0  0
   -4.0433   -3.7186   -0.4486 H   0  0  0  0  0  0  0  0  0  0  0  0
   -2.7532   -2.5046    0.7444 C   0  0  0  0  0  0  0  0  0  0  0  0
   -1.9803   -2.8096    1.6434 O   0  0  0  0  0  0  0  0  0  0  0  0
   -2.5332   -1.4966   -0.0966 N   0  0  0  0  0  0  0  0  0  0  0  0
   -3.2312   -1.2816   -0.7936 H   0  0  0  0  0  0  0  0  0  0  0  0
   -1.3593   -0.6196   -0.0536 C   0  0  1  0  0  0  0  0  0  0  0  0
   -0.4622   -1.2317   -0.1545 H   0  0  0  0  0  0  0  0  0  0  0  0
   -1.4074    0.3593   -1.2373 C   0  0  0  0  0  0  0  0  0  0  0  0
   -1.6994   -0.1885   -2.1350 H   0  0  0  0  0  0  0  0  0  0  0  0
   -2.1792    1.1052   -1.0399 H   0  0  0  0  0  0  0  0  0  0  0  0
   -0.1212    1.0719   -1.5271 C   0  0  0  0  0  0  0  0  0  0  0  0
    0.0577    2.4118   -1.5063 C   0  0  0  0  0  0  0  0  0  0  0  0
   -0.7218    3.1353   -1.2937 H   0  0  0  0  0  0  0  0  0  0  0  0
    1.3795    2.7079   -1.7755 N   0  0  0  0  0  0  0  0  0  0  0  0
    1.7424    3.6491   -1.8160 H   0  0  0  0  0  0  0  0  0  0  0  0
    2.1266    1.5653   -1.9680 C   0  0  0  0  0  0  0  0  0  0  0  0
    3.4854    1.3423   -2.2329 C   0  0  0  0  0  0  0  0  0  0  0  0
    4.1681    2.1738   -2.3290 H   0  0  0  0  0  0  0  0  0  0  0  0
    3.9460    0.0220   -2.3735 C   0  0  0  0  0  0  0  0  0  0  0  0
    4.9905   -0.1692   -2.5790 H   0  0  0  0  0  0  0  0  0  0  0  0
    3.0445   -1.0514   -2.2529 C   0  0  0  0  0  0  0  0  0  0  0  0
    3.4016   -2.0652   -2.3700 H   0  0  0  0  0  0  0  0  0  0  0  0
    1.6805   -0.8153   -1.9884 C   0  0  0  0  0  0  0  0  0  0  0  0
    0.9962   -1.6484   -1.9115 H   0  0  0  0  0  0  0  0  0  0  0  0
    1.1877    0.4987   -1.8358 C   0  0  0  0  0  0  0  0  0  0  0  0
   -1.2663    0.1182    1.2910 C   0  0  0  0  0  0  0  0  0  0  0  0
   -0.1906    0.1931    1.8833 O   0  0  0  0  0  0  0  0  0  0  0  0
   -2.3930    0.6605    1.7722 N   0  0  0  0  0  0  0  0  0  0  0  0
   -3.2451    0.5077    1.2518 H   0  0  0  0  0  0  0  0  0  0  0  0
   -2.4787    1.3954    3.0311 C   0  0  0  0  0  0  0  0  0  0  0  0
   -1.7166    2.1767    3.0539 H   0  0  0  0  0  0  0  0  0  0  0  0
   -3.4649    1.8498    3.1344 H   0  0  0  0  0  0  0  0  0  0  0  0
   -2.3058    0.7133    3.8652 H   0  0  0  0  0  0  0  0  0  0  0  0
  5  6  2  0  0  0  0
  5  7  1  0  0  0  0
  2  3  1  0  0  0  0
  2  4  1  0  0  0  0
  2  5  1  0  0  0  0
  1  2  1  0  0  0  0
 29 30  2  0  0  0  0
 29 31  1  0  0  0  0
 26 27  1  0  0  0  0
 26 28  2  0  0  0  0
 24 25  1  0  0  0  0
 24 26  1  0  0  0  0
 22 23  1  0  0  0  0
 22 24  2  0  0  0  0
 20 21  1  0  0  0  0
 20 22  1  0  0  0  0
 19 20  2  0  0  0  0
 19 28  1  0  0  0  0
 17 18  1  0  0  0  0
 17 19  1  0  0  0  0
 15 16  1  0  0  0  0
 15 17  1  0  0  0  0
 14 15  2  0  0  0  0
 14 28  1  0  0  0  0
 11 12  1  0  0  0  0
 11 13  1  0  0  0  0
 11 14  1  0  0  0  0
  9 10  1  0  0  0  0
  9 11  1  0  0  0  0
  9 29  1  0  0  0  0
  7  8  1  0  0  0  0
  7  9  1  0  0  0  0
 33 34  1  0  0  0  0
 33 35  1  0  0  0  0
 33 36  1  0  0  0  0
 31 32  1  0  0  0  0
 31 33  1  0  0  0  0
M  END
$$$$
default_name
  -OEChem-02102213163D

 36 37  0     1  0  0  0  0  0999 V2000
   -4.0843   -4.0736    1.2944 H   0  0  0  0  0  0  0  0  0  0  0  0
   -4.0342   -3.2816    0.5484 C   0  0  0  0  0  0  0  0  0  0  0  0
   -4.8842   -2.6126    0.6694 H   0  0  0  0  0  0  0  0  0  0  0  0
   -4.0433   -3.7186   -0.4486 H   0  0  0  0  0  0  0  0  0  0  0  0
   -2.7532   -2.5046    0.7444 C   0  0  0  0  0  0  0  0  0  0  0  0
   -1.9803   -2.8096    1.6434 O   0  0  0  0  0  0  0  0  0  0  0  0
   -2.5332   -1.4966   -0.0966 N   0  0  0  0  0  0  0  0  0  0  0  0
   -3.2312   -1.2816   -0.7936 H   0  0  0  0  0  0  0  0  0  0  0  0
   -1.3593   -0.6196   -0.0536 C   0  0  1  0  0  0  0  0  0  0  0  0
   -0.4622   -1.2317   -0.1545 H   0  0  0  0  0  0  0  0  0  0  0  0
   -1.4074    0.3593   -1.2373 C   0  0  0  0  0  0  0  0  0  0  0  0
   -1.6994   -0.1885   -2.1350 H   0  0  0  0  0  0  0  0  0  0  0  0
   -2.1792    1.1052   -1.0399 H   0  0  0  0  0  0  0  0  0  0  0  0
   -0.1212    1.0719   -1.5271 C   0  0  0  0  0  0  0  0  0  0  0  0
    0.1442    2.3653   -1.2366 C   0  0  0  0  0  0  0  0  0  0  0  0
   -0.5570    3.0500   -0.7722 H   0  0  0  0  0  0  0  0  0  0  0  0
    1.4415    2.6665   -1.6023 N   0  0  0  0  0  0  0  0  0  0  0  0
    1.8566    3.5789   -1.4820 H   0  0  0  0  0  0  0  0  0  0  0  0
    2.0862    1.5703   -2.1348 C   0  0  0  0  0  0  0  0  0  0  0  0
    3.3875    1.3638   -2.6148 C   0  0  0  0  0  0  0  0  0  0  0  0
    4.1059    2.1704   -2.6136 H   0  0  0  0  0  0  0  0  0  0  0  0
    3.7430    0.0933   -3.0992 C   0  0  0  0  0  0  0  0  0  0  0  0
    4.7418   -0.0843   -3.4743 H   0  0  0  0  0  0  0  0  0  0  0  0
    2.7951   -0.9463   -3.1016 C   0  0  0  0  0  0  0  0  0  0  0  0
    3.0704   -1.9199   -3.4828 H   0  0  0  0  0  0  0  0  0  0  0  0
    1.4894   -0.7268   -2.6185 C   0  0  0  0  0  0  0  0  0  0  0  0
    0.7671   -1.5305   -2.6384 H   0  0  0  0  0  0  0  0  0  0  0  0
    1.1031    0.5361   -2.1197 C   0  0  0  0  0  0  0  0  0  0  0  0
   -1.2663    0.1182    1.2910 C   0  0  0  0  0  0  0  0  0  0  0  0
   -0.1906    0.1931    1.8833 O   0  0  0  0  0  0  0  0  0  0  0  0
   -2.3930    0.6605    1.7722 N   0  0  0  0  0  0  0  0  0  0  0  0
   -3.2451    0.5077    1.2518 H   0  0  0  0  0  0  0  0  0  0  0  0
   -2.4787    1.3954    3.0311 C   0  0  0  0  0  0  0  0  0  0  0  0
   -1.7166    2.1767    3.0539 H   0  0  0  0  0  0  0  0  0  0  0  0
   -3.4649    1.8498    3.1344 H   0  0  0  0  0  0  0  0  0  0  0  0
   -2.3058    0.7133    3.8652 H   0  0  0  0  0  0  0  0  0  0  0  0
  5  6  2  0  0  0  0
  5  7  1  0  0  0  0
  2  3  1  0  0  0  0
  2  4  1  0  0  0  0
  2  5  1  0  0  0  0
  1  2  1  0  0  0  0
 29 30  2  0  0  0  0
 29 31  1  0  0  0  0
 26 27  1  0  0  0  0
 26 28  2  0  0  0  0
 24 25  1  0  0  0  0
 24 26  1  0  0  0  0
 22 23  1  0  0  0  0
 22 24  2  0  0  0  0
 20 21  1  0  0  0  0
 20 22  1  0  0  0  0
 19 20  2  0  0  0  0
 19 28  1  0  0  0  0
 17 18  1  0  0  0  0
 17 19  1  0  0  0  0
 15 16  1  0  0  0  0
 15 17  1  0  0  0  0
 14 15  2  0  0  0  0
 14 28  1  0  0  0  0
 11 12  1  0  0  0  0
 11 13  1  0  0  0  0
 11 14  1  0  0  0  0
  9 10  1  0  0  0  0
  9 11  1  0  0  0  0
  9 29  1  0  0  0  0
  7  8  1  0  0  0  0
  7  9  1  0  0  0  0
 33 34  1  0  0  0  0
 33 35  1  0  0  0  0
 33 36  1  0  0  0  0
 31 32  1  0  0  0  0
 31 33  1  0  0  0  0
M  END
$$$$
default_name
  -OEChem-02102213163D

 36 37  0     1  0  0  0  0  0999 V2000
   -4.0843   -4.0736    1.2944 H   0  0  0  0  0  0  0  0  0  0  0  0
   -4.0342   -3.2816    0.5484 C   0  0  0  0  0  0  0  0  0  0  0  0
   -4.8842   -2.6126    0.6694 H   0  0  0  0  0  0  0  0  0  0  0  0
   -4.0433   -3.7186   -0.4486 H   0  0  0  0  0  0  0  0  0  0  0  0
   -2.7532   -2.5046    0.7444 C   0  0  0  0  0  0  0  0  0  0  0  0
   -1.9803   -2.8096    1.6434 O   0  0  0  0  0  0  0  0  0  0  0  0
   -2.5332   -1.4966   -0.0966 N   0  0  0  0  0  0  0  0  0  0  0  0
   -3.2312   -1.2816   -0.7936 H   0  0  0  0  0  0  0  0  0  0  0  0
   -1.3593   -0.6196   -0.0536 C   0  0  1  0  0  0  0  0  0  0  0  0
   -0.4622   -1.2317   -0.1545 H   0  0  0  0  0  0  0  0  0  0  0  0
   -1.4074    0.3593   -1.2373 C   0  0  0  0  0  0  0  0  0  0  0  0
   -1.6994   -0.1885   -2.1350 H   0  0  0  0  0  0  0  0  0  0  0  0
   -2.1792    1.1052   -1.0399 H   0  0  0  0  0  0  0  0  0  0  0  0
   -0.1212    1.0719   -1.5271 C   0  0  0  0  0  0  0  0  0  0  0  0
    0.2586    2.2562   -0.9971 C   0  0  0  0  0  0  0  0  0  0  0  0
   -0.3380    2.8435   -0.3077 H   0  0  0  0  0  0  0  0  0  0  0  0
    1.5206    2.5849   -1.4518 N   0  0  0  0  0  0  0  0  0  0  0  0
    2.0044    3.4311   -1.1891 H   0  0  0  0  0  0  0  0  0  0  0  0
    2.0269    1.6143   -2.2899 C   0  0  0  0  0  0  0  0  0  0  0  0
    3.2469    1.4743   -2.9669 C   0  0  0  0  0  0  0  0  0  0  0  0
    4.0106    2.2333   -2.8815 H   0  0  0  0  0  0  0  0  0  0  0  0
    3.4611    0.3336   -3.7593 C   0  0  0  0  0  0  0  0  0  0  0  0
    4.3955    0.2090   -4.2896 H   0  0  0  0  0  0  0  0  0  0  0  0
    2.4550   -0.6438   -3.8673 C   0  0  0  0  0  0  0  0  0  0  0  0
    2.6207   -1.5159   -4.4847 H   0  0  0  0  0  0  0  0  0  0  0  0
    1.2318   -0.4917   -3.1839 C   0  0  0  0  0  0  0  0  0  0  0  0
    0.4622   -1.2436   -3.2862 H   0  0  0  0  0  0  0  0  0  0  0  0
    0.9882    0.6395   -2.3752 C   0  0  0  0  0  0  0  0  0  0  0  0
   -1.2663    0.1182    1.2910 C   0  0  0  0  0  0  0  0  0  0  0  0
   -0.1906    0.1931    1.8833 O   0  0  0  0  0  0  0  0  0  0  0  0
   -2.3930    0.6605    1.7722 N   0  0  0  0  0  0  0  0  0  0  0  0
   -3.2451    0.5077    1.2518 H   0  0  0  0  0  0  0  0  0  0  0  0
   -2.4787    1.3954    3.0311 C   0  0  0  0  0  0  0  0  0  0  0  0
   -1.7166    2.1767    3.0539 H   0  0  0  0  0  0  0  0  0  0  0  0
   -3.4649    1.8498    3.1344 H   0  0  0  0  0  0  0  0  0  0  0  0
   -2.3058    0.7133    3.8652 H   0  0  0  0  0  0  0  0  0  0  0  0
  5  6  2  0  0  0  0
  5  7  1  0  0  0  0
  2  3  1  0  0  0  0
  2  4  1  0  0  0  0
  2  5  1  0  0  0  0
  1  2  1  0  0  0  0
 29 30  2  0  0  0  0
 29 31  1  0  0  0  0
 26 27  1  0  0  0  0
 26 28  2  0  0  0  0
 24 25  1  0  0  0  0
 24 26  1  0  0  0  0
 22 23  1  0  0  0  0
 22 24  2  0  0  0  0
 20 21  1  0  0  0  0
 20 22  1  0  0  0  0
 19 20  2  0  0  0  0
 19 28  1  0  0  0  0
 17 18  1  0  0  0  0
 17 19  1  0  0  0  0
 15 16  1  0  0  0  0
 15 17  1  0  0  0  0
 14 15  2  0  0  0  0
 14 28  1  0  0  0  0
 11 12  1  0  0  0  0
 11 13  1  0  0  0  0
 11 14  1  0  0  0  0
  9 10  1  0  0  0  0
  9 11  1  0  0  0  0
  9 29  1  0  0  0  0
  7  8  1  0  0  0  0
  7  9  1  0  0  0  0
 33 34  1  0  0  0  0
 33 35  1  0  0  0  0
 33 36  1  0  0  0  0
 31 32  1  0  0  0  0
 31 33  1  0  0  0  0
M  END
$$$$
default_name
  -OEChem-02102213163D

 36 37  0     1  0  0  0  0  0999 V2000
   -4.0843   -4.0736    1.2944 H   0  0  0  0  0  0  0  0  0  0  0  0
   -4.0342   -3.2816    0.5484 C   0  0  0  0  0  0  0  0  0  0  0  0
   -4.8842   -2.6126    0.6694 H   0  0  0  0  0  0  0  0  0  0  0  0
   -4.0433   -3.7186   -0.4486 H   0  0  0  0  0  0  0  0  0  0  0  0
   -2.7532   -2.5046    0.7444 C   0  0  0  0  0  0  0  0  0  0  0  0
   -1.9803   -2.8096    1.6434 O   0  0  0  0  0  0  0  0  0  0  0  0
   -2.5332   -1.4966   -0.0966 N   0  0  0  0  0  0  0  0  0  0  0  0
   -3.2312   -1.2816   -0.7936 H   0  0  0  0  0  0  0  0  0  0  0  0
   -1.3593   -0.6196   -0.0536 C   0  0  1  0  0  0  0  0  0  0  0  0
   -0.4622   -1.2317   -0.1545 H   0  0  0  0  0  0  0  0  0  0  0  0
   -1.4074    0.3593   -1.2373 C   0  0  0  0  0  0  0  0  0  0  0  0
   -1.6994   -0.1885   -2.1350 H   0  0  0  0  0  0  0  0  0  0  0  0
   -2.1792    1.1052   -1.0399 H   0  0  0  0  0  0  0  0  0  0  0  0
   -0.1212    1.0719   -1.5271 C   0  0  0  0  0  0  0  0  0  0  0  0
    0.3932    2.0919   -0.8040 C   0  0  0  0  0  0  0  0  0  0  0  0
   -0.0795    2.5300    0.0682 H   0  0  0  0  0  0  0  0  0  0  0  0
    1.6115    2.4687   -1.3343 N   0  0  0  0  0  0  0  0  0  0  0  0
    2.1759    3.2160   -0.9572 H   0  0  0  0  0  0  0  0  0  0  0  0
    1.9528    1.6942   -2.4226 C   0  0  0  0  0  0  0  0  0  0  0  0
    3.0734    1.6663   -3.2651 C   0  0  0  0  0  0  0  0  0  0  0  0
    3.8888    2.3584   -3.1146 H   0  0  0  0  0  0  0  0  0  0  0  0
    3.1196    0.7264   -4.3089 C   0  0  0  0  0  0  0  0  0  0  0  0
    3.9755    0.6908   -4.9694 H   0  0  0  0  0  0  0  0  0  0  0  0
    2.0474   -0.1646   -4.4979 C   0  0  0  0  0  0  0  0  0  0  0  0
    2.0834   -0.8805   -5.3073 H   0  0  0  0  0  0  0  0  0  0  0  0
    0.9251   -0.1262   -3.6462 C   0  0  0  0  0  0  0  0  0  0  0  0
    0.1024   -0.8074   -3.8107 H   0  0  0  0  0  0  0  0  0  0  0  0
    0.8510    0.8018   -2.5849 C   0  0  0  0  0  0  0  0  0  0  0  0
   -1.2663    0.1182    1.2910 C   0  0  0  0  0  0  0  0  0  0  0  0
   -0.1906    0.1931    1.8833 O   0  0  0  0  0  0  0  0  0  0  0  0
   -2.3930    0.6605    1.7722 N   0  0  0  0  0  0  0  0  0  0  0  0
   -3.2451    0.5077    1.2518 H   0  0  0  0  0  0  0  0  0  0  0  0
   -2.4787    1.3954    3.0311 C   0  0  0  0  0  0  0  0  0  0  0  0
   -1.7166    2.1767    3.0539 H   0  0  0  0  0  0  0  0  0  0  0  0
   -3.4649    1.8498    3.1344 H   0  0  0  0  0  0  0  0  0  0  0  0
   -2.3058    0.7133    3.8652 H   0  0  0  0  0  0  0  0  0  0  0  0
  5  6  2  0  0  0  0
  5  7  1  0  0  0  0
  2  3  1  0  0  0  0
  2  4  1  0  0  0  0
  2  5  1  0  0  0  0
  1  2  1  0  0  0  0
 29 30  2  0  0  0  0
 29 31  1  0  0  0  0
 26 27  1  0  0  0  0
 26 28  2  0  0  0  0
 24 25  1  0  0  0  0
 24 26  1  0  0  0  0
 22 23  1  0  0  0  0
 22 24  2  0  0  0  0
 20 21  1  0  0  0  0
 20 22  1  0  0  0  0
 19 20  2  0  0  0  0
 19 28  1  0  0  0  0
 17 18  1  0  0  0  0
 17 19  1  0  0  0  0
 15 16  1  0  0  0  0
 15 17  1  0  0  0  0
 14 15  2  0  0  0  0
 14 28  1  0  0  0  0
 11 12  1  0  0  0  0
 11 13  1  0  0  0  0
 11 14  1  0  0  0  0
  9 10  1  0  0  0  0
  9 11  1  0  0  0  0
  9 29  1  0  0  0  0
  7  8  1  0  0  0  0
  7  9  1  0  0  0  0
 33 34  1  0  0  0  0
 33 35  1  0  0  0  0
 33 36  1  0  0  0  0
 31 32  1  0  0  0  0
 31 33  1  0  0  0  0
M  END
$$$$
default_name
  -OEChem-02102213163D

 36 37  0     1  0  0  0  0  0999 V2000
   -4.0843   -4.0736    1.2944 H   0  0  0  0  0  0  0  0  0  0  0  0
   -4.0342   -3.2816    0.5484 C   0  0  0  0  0  0  0  0  0  0  0  0
   -4.8842   -2.6126    0.6694 H   0  0  0  0  0  0  0  0  0  0  0  0
   -4.0433   -3.7186   -0.4486 H   0  0  0  0  0  0  0  0  0  0  0  0
   -2.7532   -2.5046    0.7444 C   0  0  0  0  0  0  0  0  0  0  0  0
   -1.9803   -2.8096    1.6434 O   0  0  0  0  0  0  0  0  0  0  0  0
   -2.5332   -1.4966   -0.0966 N   0  0  0  0  0  0  0  0  0  0  0  0
   -3.2312   -1.2816   -0.7936 H   0  0  0  0  0  0  0  0  0  0  0  0
   -1.3593   -0.6196   -0.0536 C   0  0  1  0  0  0  0  0  0  0  0  0
   -0.4622   -1.2317   -0.1545 H   0  0  0  0  0  0  0  0  0  0  0  0
   -1.4074    0.3593   -1.2373 C   0  0  0  0  0  0  0  0  0  0  0  0
   -1.6994   -0.1885   -2.1350 H   0  0  0  0  0  0  0  0  0  0  0  0
   -2.1792    1.1052   -1.0399 H   0  0  0  0  0  0  0  0  0  0  0  0
   -0.1212    1.0719   -1.5271 C   0  0  0  0  0  0  0  0  0  0  0  0
    0.5387    1.8835   -0.6706 C   0  0  0  0  0  0  0  0  0  0  0  0
    0.2006    2.1307    0.3298 H   0  0  0  0  0  0  0  0  0  0  0  0
    1.7079    2.3258   -1.2578 N   0  0  0  0  0  0  0  0  0  0  0  0
    2.3593    2.9480   -0.8021 H   0  0  0  0  0  0  0  0  0  0  0  0
    1.8688    1.8045   -2.5239 C   0  0  0  0  0  0  0  0  0  0  0  0
    2.8786    1.9266   -3.4891 C   0  0  0  0  0  0  0  0  0  0  0  0
    3.7487    2.5372   -3.2969 H   0  0  0  0  0  0  0  0  0  0  0  0
    2.7418    1.2450   -4.7105 C   0  0  0  0  0  0  0  0  0  0  0  0
    3.5101    1.3282   -5.4672 H   0  0  0  0  0  0  0  0  0  0  0  0
    1.6000    0.4588   -4.9503 C   0  0  0  0  0  0  0  0  0  0  0  0
    1.4949   -0.0572   -5.8946 H   0  0  0  0  0  0  0  0  0  0  0  0
    0.5903    0.3449   -3.9737 C   0  0  0  0  0  0  0  0  0  0  0  0
   -0.2879   -0.2515   -4.1761 H   0  0  0  0  0  0  0  0  0  0  0  0
    0.7008    1.0120   -2.7345 C   0  0  0  0  0  0  0  0  0  0  0  0
   -1.2663    0.1182    1.2910 C   0  0  0  0  0  0  0  0  0  0  0  0
   -0.1906    0.1931    1.8833 O   0  0  0  0  0  0  0  0  0  0  0  0
   -2.3930    0.6605    1.7722 N   0  0  0  0  0  0  0  0  0  0  0  0
   -3.2451    0.5077    1.2518 H   0  0  0  0  0  0  0  0  0  0  0  0
   -2.4787    1.3954    3.0311 C   0  0  0  0  0  0  0  0  0  0  0  0
   -1.7166    2.1767    3.0539 H   0  0  0  0  0  0  0  0  0  0  0  0
   -3.4649    1.8498    3.1344 H   0  0  0  0  0  0  0  0  0  0  0  0
   -2.3058    0.7133    3.8652 H   0  0  0  0  0  0  0  0  0  0  0  0
  5  6  2  0  0  0  0
  5  7  1  0  0  0  0
  2  3  1  0  0  0  0
  2  4  1  0  0  0  0
  2  5  1  0  0  0  0
  1  2  1  0  0  0  0
 29 30  2  0  0  0  0
 29 31  1  0  0  0  0
 26 27  1  0  0  0  0
 26 28  2  0  0  0  0
 24 25  1  0  0  0  0
 24 26  1  0  0  0  0
 22 23  1  0  0  0  0
 22 24  2  0  0  0  0
 20 21  1  0  0  0  0
 20 22  1  0  0  0  0
 19 20  2  0  0  0  0
 19 28  1  0  0  0  0
 17 18  1  0  0  0  0
 17 19  1  0  0  0  0
 15 16  1  0  0  0  0
 15 17  1  0  0  0  0
 14 15  2  0  0  0  0
 14 28  1  0  0  0  0
 11 12  1  0  0  0  0
 11 13  1  0  0  0  0
 11 14  1  0  0  0  0
  9 10  1  0  0  0  0
  9 11  1  0  0  0  0
  9 29  1  0  0  0  0
  7  8  1  0  0  0  0
  7  9  1  0  0  0  0
 33 34  1  0  0  0  0
 33 35  1  0  0  0  0
 33 36  1  0  0  0  0
 31 32  1  0  0  0  0
 31 33  1  0  0  0  0
M  END
$$$$
default_name
  -OEChem-02102213163D

 36 37  0     1  0  0  0  0  0999 V2000
   -4.0843   -4.0736    1.2944 H   0  0  0  0  0  0  0  0  0  0  0  0
   -4.0342   -3.2816    0.5484 C   0  0  0  0  0  0  0  0  0  0  0  0
   -4.8842   -2.6126    0.6694 H   0  0  0  0  0  0  0  0  0  0  0  0
   -4.0433   -3.7186   -0.4486 H   0  0  0  0  0  0  0  0  0  0  0  0
   -2.7532   -2.5046    0.7444 C   0  0  0  0  0  0  0  0  0  0  0  0
   -1.9803   -2.8096    1.6434 O   0  0  0  0  0  0  0  0  0  0  0  0
   -2.5332   -1.4966   -0.0966 N   0  0  0  0  0  0  0  0  0  0  0  0
   -3.2312   -1.2816   -0.7936 H   0  0  0  0  0  0  0  0  0  0  0  0
   -1.3593   -0.6196   -0.0536 C   0  0  1  0  0  0  0  0  0  0  0  0
   -0.4622   -1.2317   -0.1545 H   0  0  0  0  0  0  0  0  0  0  0  0
   -1.4074    0.3593   -1.2373 C   0  0  0  0  0  0  0  0  0  0  0  0
   -1.6994   -0.1885   -2.1350 H   0  0  0  0  0  0  0  0  0  0  0  0
   -2.1792    1.1052   -1.0399 H   0  0  0  0  0  0  0  0  0  0  0  0
   -0.1212    1.0719   -1.5271 C   0  0  0  0  0  0  0  0  0  0  0  0
    0.6852    1.6453   -0.6059 C   0  0  0  0  0  0  0  0  0  0  0  0
    0.4835    1.6728    0.4593 H   0  0  0  0  0  0  0  0  0  0  0  0
    1.8033    2.1660   -1.2275 N   0  0  0  0  0  0  0  0  0  0  0  0
    2.5422    2.6456   -0.7343 H   0  0  0  0  0  0  0  0  0  0  0  0
    1.7807    1.9378   -2.5869 C   0  0  0  0  0  0  0  0  0  0  0  0
    2.6760    2.2376   -3.6238 C   0  0  0  0  0  0  0  0  0  0  0  0
    3.5998    2.7573   -3.4162 H   0  0  0  0  0  0  0  0  0  0  0  0
    2.3534    1.8540   -4.9367 C   0  0  0  0  0  0  0  0  0  0  0  0
    3.0313    2.0777   -5.7493 H   0  0  0  0  0  0  0  0  0  0  0  0
    1.1434    1.1839   -5.1939 C   0  0  0  0  0  0  0  0  0  0  0  0
    0.8954    0.8979   -6.2067 H   0  0  0  0  0  0  0  0  0  0  0  0
    0.2502    0.8895   -4.1442 C   0  0  0  0  0  0  0  0  0  0  0  0
   -0.6821    0.3861   -4.3575 H   0  0  0  0  0  0  0  0  0  0  0  0
    0.5479    1.2559   -2.8138 C   0  0  0  0  0  0  0  0  0  0  0  0
   -1.2663    0.1182    1.2910 C   0  0  0  0  0  0  0  0  0  0  0  0
   -0.1906    0.1931    1.8833 O   0  0  0  0  0  0  0  0  0  0  0  0
   -2.3930    0.6605    1.7722 N   0  0  0  0  0  0  0  0  0  0  0  0
   -3.2451    0.5077    1.2518 H   0  0  0  0  0  0  0  0  0  0  0  0
   -2.4787    1.3954    3.0311 C   0  0  0  0  0  0  0  0  0  0  0  0
   -1.7166    2.1767    3.0539 H   0  0  0  0  0  0  0  0  0  0  0  0
   -3.4649    1.8498    3.1344 H   0  0  0  0  0  0  0  0  0  0  0  0
   -2.3058    0.7133    3.8652 H   0  0  0  0  0  0  0  0  0  0  0  0
  5  6  2  0  0  0  0
  5  7  1  0  0  0  0
  2  3  1  0  0  0  0
  2  4  1  0  0  0  0
  2  5  1  0  0  0  0
  1  2  1  0  0  0  0
 29 30  2  0  0  0  0
 29 31  1  0  0  0  0
 26 27  1  0  0  0  0
 26 28  2  0  0  0  0
 24 25  1  0  0  0  0
 24 26  1  0  0  0  0
 22 23  1  0  0  0  0
 22 24  2  0  0  0  0
 20 21  1  0  0  0  0
 20 22  1  0  0  0  0
 19 20  2  0  0  0  0
 19 28  1  0  0  0  0
 17 18  1  0  0  0  0
 17 19  1  0  0  0  0
 15 16  1  0  0  0  0
 15 17  1  0  0  0  0
 14 15  2  0  0  0  0
 14 28  1  0  0  0  0
 11 12  1  0  0  0  0
 11 13  1  0  0  0  0
 11 14  1  0  0  0  0
  9 10  1  0  0  0  0
  9 11  1  0  0  0  0
  9 29  1  0  0  0  0
  7  8  1  0  0  0  0
  7  9  1  0  0  0  0
 33 34  1  0  0  0  0
 33 35  1  0  0  0  0
 33 36  1  0  0  0  0
 31 32  1  0  0  0  0
 31 33  1  0  0  0  0
M  END
$$$$
default_name
  -OEChem-02102213163D

 36 37  0     1  0  0  0  0  0999 V2000
   -4.0843   -4.0736    1.2944 H   0  0  0  0  0  0  0  0  0  0  0  0
   -4.0342   -3.2816    0.5484 C   0  0  0  0  0  0  0  0  0  0  0  0
   -4.8842   -2.6126    0.6694 H   0  0  0  0  0  0  0  0  0  0  0  0
   -4.0433   -3.7186   -0.4486 H   0  0  0  0  0  0  0  0  0  0  0  0
   -2.7532   -2.5046    0.7444 C   0  0  0  0  0  0  0  0  0  0  0  0
   -1.9803   -2.8096    1.6434 O   0  0  0  0  0  0  0  0  0  0  0  0
   -2.5332   -1.4966   -0.0966 N   0  0  0  0  0  0  0  0  0  0  0  0
   -3.2312   -1.2816   -0.7936 H   0  0  0  0  0  0  0  0  0  0  0  0
   -1.3593   -0.6196   -0.0536 C   0  0  1  0  0  0  0  0  0  0  0  0
   -0.4622   -1.2317   -0.1545 H   0  0  0  0  0  0  0  0  0  0  0  0
   -1.4074    0.3593   -1.2373 C   0  0  0  0  0  0  0  0  0  0  0  0
   -1.6994   -0.1885   -2.1350 H   0  0  0  0  0  0  0  0  0  0  0  0
   -2.1792    1.1052   -1.0399 H   0  0  0  0  0  0  0  0  0  0  0  0
   -0.1212    1.0719   -1.5271 C   0  0  0  0  0  0  0  0  0  0  0  0
    0.8228    1.3935   -0.6144 C   0  0  0  0  0  0  0  0  0  0  0  0
    0.7497    1.1877    0.4479 H   0  0  0  0  0  0  0  0  0  0  0  0
    1.8912    2.0001   -1.2454 N   0  0  0  0  0  0  0  0  0  0  0  0
    2.7120    2.3292   -0.7585 H   0  0  0  0  0  0  0  0  0  0  0  0
    1.6946    2.0850   -2.6074 C   0  0  0  0  0  0  0  0  0  0  0  0
    2.4793    2.5781   -3.6598 C   0  0  0  0  0  0  0  0  0  0  0  0
    3.4524    3.0039   -3.4641 H   0  0  0  0  0  0  0  0  0  0  0  0
    1.9809    2.5119   -4.9721 C   0  0  0  0  0  0  0  0  0  0  0  0
    2.5716    2.8883   -5.7964 H   0  0  0  0  0  0  0  0  0  0  0  0
    0.7087    1.9612   -5.2119 C   0  0  0  0  0  0  0  0  0  0  0  0
    0.3257    1.9199   -6.2221 H   0  0  0  0  0  0  0  0  0  0  0  0
   -0.0721    1.4704   -4.1462 C   0  0  0  0  0  0  0  0  0  0  0  0
   -1.0533    1.0620   -4.3427 H   0  0  0  0  0  0  0  0  0  0  0  0
    0.4026    1.5167   -2.8175 C   0  0  0  0  0  0  0  0  0  0  0  0
   -1.2663    0.1182    1.2910 C   0  0  0  0  0  0  0  0  0  0  0  0
   -0.1906    0.1931    1.8833 O   0  0  0  0  0  0  0  0  0  0  0  0
   -2.3930    0.6605    1.7722 N   0  0  0  0  0  0  0  0  0  0  0  0
   -3.2451    0.5077    1.2518 H   0  0  0  0  0  0  0  0  0  0  0  0
   -2.4787    1.3954    3.0311 C   0  0  0  0  0  0  0  0  0  0  0  0
   -1.7166    2.1767    3.0539 H   0  0  0  0  0  0  0  0  0  0  0  0
   -3.4649    1.8498    3.1344 H   0  0  0  0  0  0  0  0  0  0  0  0
   -2.3058    0.7133    3.8652 H   0  0  0  0  0  0  0  0  0  0  0  0
  5  6  2  0  0  0  0
  5  7  1  0  0  0  0
  2  3  1  0  0  0  0
  2  4  1  0  0  0  0
  2  5  1  0  0  0  0
  1  2  1  0  0  0  0
 29 30  2  0  0  0  0
 29 31  1  0  0  0  0
 26 27  1  0  0  0  0
 26 28  2  0  0  0  0
 24 25  1  0  0  0  0
 24 26  1  0  0  0  0
 22 23  1  0  0  0  0
 22 24  2  0  0  0  0
 20 21  1  0  0  0  0
 20 22  1  0  0  0  0
 19 20  2  0  0  0  0
 19 28  1  0  0  0  0
 17 18  1  0  0  0  0
 17 19  1  0  0  0  0
 15 16  1  0  0  0  0
 15 17  1  0  0  0  0
 14 15  2  0  0  0  0
 14 28  1  0  0  0  0
 11 12  1  0  0  0  0
 11 13  1  0  0  0  0
 11 14  1  0  0  0  0
  9 10  1  0  0  0  0
  9 11  1  0  0  0  0
  9 29  1  0  0  0  0
  7  8  1  0  0  0  0
  7  9  1  0  0  0  0
 33 34  1  0  0  0  0
 33 35  1  0  0  0  0
 33 36  1  0  0  0  0
 31 32  1  0  0  0  0
 31 33  1  0  0  0  0
M  END
$$$$
default_name
  -OEChem-02102213163D

 36 37  0     1  0  0  0  0  0999 V2000
   -4.0843   -4.0736    1.2944 H   0  0  0  0  0  0  0  0  0  0  0  0
   -4.0342   -3.2816    0.5484 C   0  0  0  0  0  0  0  0  0  0  0  0
   -4.8842   -2.6126    0.6694 H   0  0  0  0  0  0  0  0  0  0  0  0
   -4.0433   -3.7186   -0.4486 H   0  0  0  0  0  0  0  0  0  0  0  0
   -2.7532   -2.5046    0.7444 C   0  0  0  0  0  0  0  0  0  0  0  0
   -1.9803   -2.8096    1.6434 O   0  0  0  0  0  0  0  0  0  0  0  0
   -2.5332   -1.4966   -0.0966 N   0  0  0  0  0  0  0  0  0  0  0  0
   -3.2312   -1.2816   -0.7936 H   0  0  0  0  0  0  0  0  0  0  0  0
   -1.3593   -0.6196   -0.0536 C   0  0  1  0  0  0  0  0  0  0  0  0
   -0.4622   -1.2317   -0.1545 H   0  0  0  0  0  0  0  0  0  0  0  0
   -1.4074    0.3593   -1.2373 C   0  0  0  0  0  0  0  0  0  0  0  0
   -1.6994   -0.1885   -2.1350 H   0  0  0  0  0  0  0  0  0  0  0  0
   -2.1792    1.1052   -1.0399 H   0  0  0  0  0  0  0  0  0  0  0  0
   -0.1212    1.0719   -1.5271 C   0  0  0  0  0  0  0  0  0  0  0  0
    0.9421    1.1453   -0.6954 C   0  0  0  0  0  0  0  0  0  0  0  0
    0.9812    0.7083    0.2964 H   0  0  0  0  0  0  0  0  0  0  0  0
    1.9655    1.8394   -1.3104 N   0  0  0  0  0  0  0  0  0  0  0  0
    2.8572    2.0205   -0.8731 H   0  0  0  0  0  0  0  0  0  0  0  0
    1.6162    2.2360   -2.5838 C   0  0  0  0  0  0  0  0  0  0  0  0
    2.3018    2.9247   -3.5947 C   0  0  0  0  0  0  0  0  0  0  0  0
    3.3164    3.2601   -3.4375 H   0  0  0  0  0  0  0  0  0  0  0  0
    1.6496    3.1740   -4.8144 C   0  0  0  0  0  0  0  0  0  0  0  0
    2.1623    3.7047   -5.6052 H   0  0  0  0  0  0  0  0  0  0  0  0
    0.3255    2.7377   -5.0031 C   0  0  0  0  0  0  0  0  0  0  0  0
   -0.1753    2.9389   -5.9400 H   0  0  0  0  0  0  0  0  0  0  0  0
   -0.3546    2.0481   -3.9793 C   0  0  0  0  0  0  0  0  0  0  0  0
   -1.3761    1.7302   -4.1326 H   0  0  0  0  0  0  0  0  0  0  0  0
    0.2748    1.7767   -2.7451 C   0  0  0  0  0  0  0  0  0  0  0  0
   -1.2663    0.1182    1.2910 C   0  0  0  0  0  0  0  0  0  0  0  0
   -0.1906    0.1931    1.8833 O   0  0  0  0  0  0  0  0  0  0  0  0
   -2.3930    0.6605    1.7722 N   0  0  0  0  0  0  0  0  0  0  0  0
   -3.2451    0.5077    1.2518 H   0  0  0  0  0  0  0  0  0  0  0  0
   -2.4787    1.3954    3.0311 C   0  0  0  0  0  0  0  0  0  0  0  0
   -1.7166    2.1767    3.0539 H   0  0  0  0  0  0  0  0  0  0  0  0
   -3.4649    1.8498    3.1344 H   0  0  0  0  0  0  0  0  0  0  0  0
   -2.3058    0.7133    3.8652 H   0  0  0  0  0  0  0  0  0  0  0  0
  5  6  2  0  0  0  0
  5  7  1  0  0  0  0
  2  3  1  0  0  0  0
  2  4  1  0  0  0  0
  2  5  1  0  0  0  0
  1  2  1  0  0  0  0
 29 30  2  0  0  0  0
 29 31  1  0  0  0  0
 26 27  1  0  0  0  0
 26 28  2  0  0  0  0
 24 25  1  0  0  0  0
 24 26  1  0  0  0  0
 22 23  1  0  0  0  0
 22 24  2  0  0  0  0
 20 21  1  0  0  0  0
 20 22  1  0  0  0  0
 19 20  2  0  0  0  0
 19 28  1  0  0  0  0
 17 18  1  0  0  0  0
 17 19  1  0  0  0  0
 15 16  1  0  0  0  0
 15 17  1  0  0  0  0
 14 15  2  0  0  0  0
 14 28  1  0  0  0  0
 11 12  1  0  0  0  0
 11 13  1  0  0  0  0
 11 14  1  0  0  0  0
  9 10  1  0  0  0  0
  9 11  1  0  0  0  0
  9 29  1  0  0  0  0
  7  8  1  0  0  0  0
  7  9  1  0  0  0  0
 33 34  1  0  0  0  0
 33 35  1  0  0  0  0
 33 36  1  0  0  0  0
 31 32  1  0  0  0  0
 31 33  1  0  0  0  0
M  END
$$$$
default_name
  -OEChem-02102213163D

 36 37  0     1  0  0  0  0  0999 V2000
   -4.0843   -4.0736    1.2944 H   0  0  0  0  0  0  0  0  0  0  0  0
   -4.0342   -3.2816    0.5484 C   0  0  0  0  0  0  0  0  0  0  0  0
   -4.8842   -2.6126    0.6694 H   0  0  0  0  0  0  0  0  0  0  0  0
   -4.0433   -3.7186   -0.4486 H   0  0  0  0  0  0  0  0  0  0  0  0
   -2.7532   -2.5046    0.7444 C   0  0  0  0  0  0  0  0  0  0  0  0
   -1.9803   -2.8096    1.6434 O   0  0  0  0  0  0  0  0  0  0  0  0
   -2.5332   -1.4966   -0.0966 N   0  0  0  0  0  0  0  0  0  0  0  0
   -3.2312   -1.2816   -0.7936 H   0  0  0  0  0  0  0  0  0  0  0  0
   -1.3593   -0.6196   -0.0536 C   0  0  1  0  0  0  0  0  0  0  0  0
   -0.4622   -1.2317   -0.1545 H   0  0  0  0  0  0  0  0  0  0  0  0
   -1.4074    0.3593   -1.2373 C   0  0  0  0  0  0  0  0  0  0  0  0
   -1.6994   -0.1885   -2.1350 H   0  0  0  0  0  0  0  0  0  0  0  0
   -2.1792    1.1052   -1.0399 H   0  0  0  0  0  0  0  0  0  0  0  0
   -0.1212    1.0719   -1.5271 C   0  0  0  0  0  0  0  0  0  0  0  0
    1.0349    0.9176   -0.8434 C   0  0  0  0  0  0  0  0  0  0  0  0
    1.1621    0.2673    0.0150 H   0  0  0  0  0  0  0  0  0  0  0  0
    2.0213    1.6949   -1.4181 N   0  0  0  0  0  0  0  0  0  0  0  0
    2.9679    1.7406   -1.0702 H   0  0  0  0  0  0  0  0  0  0  0  0
    1.5510    2.3805   -2.5179 C   0  0  0  0  0  0  0  0  0  0  0  0
    2.1558    3.2540   -3.4331 C   0  0  0  0  0  0  0  0  0  0  0  0
    3.2012    3.5085   -3.3381 H   0  0  0  0  0  0  0  0  0  0  0  0
    1.3822    3.7950   -4.4742 C   0  0  0  0  0  0  0  0  0  0  0  0
    1.8314    4.4714   -5.1888 H   0  0  0  0  0  0  0  0  0  0  0  0
    0.0199    3.4606   -4.5818 C   0  0  0  0  0  0  0  0  0  0  0  0
   -0.5736    3.8857   -5.3794 H   0  0  0  0  0  0  0  0  0  0  0  0
   -0.5780    2.5831   -3.6551 C   0  0  0  0  0  0  0  0  0  0  0  0
   -1.6287    2.3451   -3.7414 H   0  0  0  0  0  0  0  0  0  0  0  0
    0.1733    2.0182   -2.6018 C   0  0  0  0  0  0  0  0  0  0  0  0
   -1.2663    0.1182    1.2910 C   0  0  0  0  0  0  0  0  0  0  0  0
   -0.1906    0.1931    1.8833 O   0  0  0  0  0  0  0  0  0  0  0  0
   -2.3930    0.6605    1.7722 N   0  0  0  0  0  0  0  0  0  0  0  0
   -3.2451    0.5077    1.2518 H   0  0  0  0  0  0  0  0  0  0  0  0
   -2.4787    1.3954    3.0311 C   0  0  0  0  0  0  0  0  0  0  0  0
   -1.7166    2.1767    3.0539 H   0  0  0  0  0  0  0  0  0  0  0  0
   -3.4649    1.8498    3.1344 H   0  0  0  0  0  0  0  0  0  0  0  0
   -2.3058    0.7133    3.8652 H   0  0  0  0  0  0  0  0  0  0  0  0
  5  6  2  0  0  0  0
  5  7  1  0  0  0  0
  2  3  1  0  0  0  0
  2  4  1  0  0  0  0
  2  5  1  0  0  0  0
  1  2  1  0  0  0  0
 29 30  2  0  0  0  0
 29 31  1  0  0  0  0
 26 27  1  0  0  0  0
 26 28  2  0  0  0  0
 24 25  1  0  0  0  0
 24 26  1  0  0  0  0
 22 23  1  0  0  0  0
 22 24  2  0  0  0  0
 20 21  1  0  0  0  0
 20 22  1  0  0  0  0
 19 20  2  0  0  0  0
 19 28  1  0  0  0  0
 17 18  1  0  0  0  0
 17 19  1  0  0  0  0
 15 16  1  0  0  0  0
 15 17  1  0  0  0  0
 14 15  2  0  0  0  0
 14 28  1  0  0  0  0
 11 12  1  0  0  0  0
 11 13  1  0  0  0  0
 11 14  1  0  0  0  0
  9 10  1  0  0  0  0
  9 11  1  0  0  0  0
  9 29  1  0  0  0  0
  7  8  1  0  0  0  0
  7  9  1  0  0  0  0
 33 34  1  0  0  0  0
 33 35  1  0  0  0  0
 33 36  1  0  0  0  0
 31 32  1  0  0  0  0
 31 33  1  0  0  0  0
M  END
$$$$
default_name
  -OEChem-02102213163D

 36 37  0     1  0  0  0  0  0999 V2000
   -4.0843   -4.0736    1.2944 H   0  0  0  0  0  0  0  0  0  0  0  0
   -4.0342   -3.2816    0.5484 C   0  0  0  0  0  0  0  0  0  0  0  0
   -4.8842   -2.6126    0.6694 H   0  0  0  0  0  0  0  0  0  0  0  0
   -4.0433   -3.7186   -0.4486 H   0  0  0  0  0  0  0  0  0  0  0  0
   -2.7532   -2.5046    0.7444 C   0  0  0  0  0  0  0  0  0  0  0  0
   -1.9803   -2.8096    1.6434 O   0  0  0  0  0  0  0  0  0  0  0  0
   -2.5332   -1.4966   -0.0966 N   0  0  0  0  0  0  0  0  0  0  0  0
   -3.2312   -1.2816   -0.7936 H   0  0  0  0  0  0  0  0  0  0  0  0
   -1.3593   -0.6196   -0.0536 C   0  0  1  0  0  0  0  0  0  0  0  0
   -0.4622   -1.2317   -0.1545 H   0  0  0  0  0  0  0  0  0  0  0  0
   -1.4074    0.3593   -1.2373 C   0  0  0  0  0  0  0  0  0  0  0  0
   -1.6994   -0.1885   -2.1350 H   0  0  0  0  0  0  0  0  0  0  0  0
   -2.1792    1.1052   -1.0399 H   0  0  0  0  0  0  0  0  0  0  0  0
   -0.1212    1.0719   -1.5271 C   0  0  0  0  0  0  0  0  0  0  0  0
    1.0949    0.7259   -1.0485 C   0  0  0  0  0  0  0  0  0  0  0  0
    1.2802   -0.1052   -0.3769 H   0  0  0  0  0  0  0  0  0  0  0  0
    2.0547    1.5765   -1.5610 N   0  0  0  0  0  0  0  0  0  0  0  0
    3.0366    1.5084   -1.3364 H   0  0  0  0  0  0  0  0  0  0  0  0
    1.5034    2.5087   -2.4141 C   0  0  0  0  0  0  0  0  0  0  0  0
    2.0511    3.5435   -3.1858 C   0  0  0  0  0  0  0  0  0  0  0  0
    3.1146    3.7321   -3.1728 H   0  0  0  0  0  0  0  0  0  0  0  0
    1.1969    4.3327   -3.9747 C   0  0  0  0  0  0  0  0  0  0  0  0
    1.6013    5.1360   -4.5756 H   0  0  0  0  0  0  0  0  0  0  0  0
   -0.1873    4.0806   -3.9767 C   0  0  0  0  0  0  0  0  0  0  0  0
   -0.8419    4.6956   -4.5787 H   0  0  0  0  0  0  0  0  0  0  0  0
   -0.7271    3.0391   -3.1956 C   0  0  0  0  0  0  0  0  0  0  0  0
   -1.7937    2.8648   -3.1959 H   0  0  0  0  0  0  0  0  0  0  0  0
    0.1050    2.2247   -2.3973 C   0  0  0  0  0  0  0  0  0  0  0  0
   -1.2663    0.1182    1.2910 C   0  0  0  0  0  0  0  0  0  0  0  0
   -0.1906    0.1931    1.8833 O   0  0  0  0  0  0  0  0  0  0  0  0
   -2.3930    0.6605    1.7722 N   0  0  0  0  0  0  0  0  0  0  0  0
   -3.2451    0.5077    1.2518 H   0  0  0  0  0  0  0  0  0  0  0  0
   -2.4787    1.3954    3.0311 C   0  0  0  0  0  0  0  0  0  0  0  0
   -1.7166    2.1767    3.0539 H   0  0  0  0  0  0  0  0  0  0  0  0
   -3.4649    1.8498    3.1344 H   0  0  0  0  0  0  0  0  0  0  0  0
   -2.3058    0.7133    3.8652 H   0  0  0  0  0  0  0  0  0  0  0  0
  5  6  2  0  0  0  0
  5  7  1  0  0  0  0
  2  3  1  0  0  0  0
  2  4  1  0  0  0  0
  2  5  1  0  0  0  0
  1  2  1  0  0  0  0
 29 30  2  0  0  0  0
 29 31  1  0  0  0  0
 26 27  1  0  0  0  0
 26 28  2  0  0  0  0
 24 25  1  0  0  0  0
 24 26  1  0  0  0  0
 22 23  1  0  0  0  0
 22 24  2  0  0  0  0
 20 21  1  0  0  0  0
 20 22  1  0  0  0  0
 19 20  2  0  0  0  0
 19 28  1  0  0  0  0
 17 18  1  0  0  0  0
 17 19  1  0  0  0  0
 15 16  1  0  0  0  0
 15 17  1  0  0  0  0
 14 15  2  0  0  0  0
 14 28  1  0  0  0  0
 11 12  1  0  0  0  0
 11 13  1  0  0  0  0
 11 14  1  0  0  0  0
  9 10  1  0  0  0  0
  9 11  1  0  0  0  0
  9 29  1  0  0  0  0
  7  8  1  0  0  0  0
  7  9  1  0  0  0  0
 33 34  1  0  0  0  0
 33 35  1  0  0  0  0
 33 36  1  0  0  0  0
 31 32  1  0  0  0  0
 31 33  1  0  0  0  0
M  END
$$$$
default_name
  -OEChem-02102213163D

 36 37  0     1  0  0  0  0  0999 V2000
   -4.0843   -4.0736    1.2944 H   0  0  0  0  0  0  0  0  0  0  0  0
   -4.0342   -3.2816    0.5484 C   0  0  0  0  0  0  0  0  0  0  0  0
   -4.8842   -2.6126    0.6694 H   0  0  0  0  0  0  0  0  0  0  0  0
   -4.0433   -3.7186   -0.4486 H   0  0  0  0  0  0  0  0  0  0  0  0
   -2.7532   -2.5046    0.7444 C   0  0  0  0  0  0  0  0  0  0  0  0
   -1.9803   -2.8096    1.6434 O   0  0  0  0  0  0  0  0  0  0  0  0
   -2.5332   -1.4966   -0.0966 N   0  0  0  0  0  0  0  0  0  0  0  0
   -3.2312   -1.2816   -0.7936 H   0  0  0  0  0  0  0  0  0  0  0  0
   -1.3593   -0.6196   -0.0536 C   0  0  1  0  0  0  0  0  0  0  0  0
   -0.4622   -1.2317   -0.1545 H   0  0  0  0  0  0  0  0  0  0  0  0
   -1.4074    0.3593   -1.2373 C   0  0  0  0  0  0  0  0  0  0  0  0
   -1.6994   -0.1885   -2.1350 H   0  0  0  0  0  0  0  0  0  0  0  0
   -2.1792    1.1052   -1.0399 H   0  0  0  0  0  0  0  0  0  0  0  0
   -0.1212    1.0719   -1.5271 C   0  0  0  0  0  0  0  0  0  0  0  0
    1.1180    0.5833   -1.2965 C   0  0  0  0  0  0  0  0  0  0  0  0
    1.3274   -0.3839   -0.8528 H   0  0  0  0  0  0  0  0  0  0  0  0
    2.0635    1.4922   -1.7295 N   0  0  0  0  0  0  0  0  0  0  0  0
    3.0585    1.3398   -1.6535 H   0  0  0  0  0  0  0  0  0  0  0  0
    1.4765    2.6119   -2.2795 C   0  0  0  0  0  0  0  0  0  0  0  0
    1.9950    3.7735   -2.8698 C   0  0  0  0  0  0  0  0  0  0  0  0
    3.0624    3.9157   -2.9528 H   0  0  0  0  0  0  0  0  0  0  0  0
    1.1062    4.7504   -3.3500 C   0  0  0  0  0  0  0  0  0  0  0  0
    1.4878    5.6532   -3.8074 H   0  0  0  0  0  0  0  0  0  0  0  0
   -0.2819    4.5554   -3.2290 C   0  0  0  0  0  0  0  0  0  0  0  0
   -0.9620    5.3134   -3.5923 H   0  0  0  0  0  0  0  0  0  0  0  0
   -0.7917    3.3850   -2.6321 C   0  0  0  0  0  0  0  0  0  0  0  0
   -1.8600    3.2538   -2.5333 H   0  0  0  0  0  0  0  0  0  0  0  0
    0.0745    2.3821   -2.1454 C   0  0  0  0  0  0  0  0  0  0  0  0
   -1.2663    0.1182    1.2910 C   0  0  0  0  0  0  0  0  0  0  0  0
   -0.1906    0.1931    1.8833 O   0  0  0  0  0  0  0  0  0  0  0  0
   -2.3930    0.6605    1.7722 N   0  0  0  0  0  0  0  0  0  0  0  0
   -3.2451    0.5077    1.2518 H   0  0  0  0  0  0  0  0  0  0  0  0
   -2.4787    1.3954    3.0311 C   0  0  0  0  0  0  0  0  0  0  0  0
   -1.7166    2.1767    3.0539 H   0  0  0  0  0  0  0  0  0  0  0  0
   -3.4649    1.8498    3.1344 H   0  0  0  0  0  0  0  0  0  0  0  0
   -2.3058    0.7133    3.8652 H   0  0  0  0  0  0  0  0  0  0  0  0
  5  6  2  0  0  0  0
  5  7  1  0  0  0  0
  2  3  1  0  0  0  0
  2  4  1  0  0  0  0
  2  5  1  0  0  0  0
  1  2  1  0  0  0  0
 29 30  2  0  0  0  0
 29 31  1  0  0  0  0
 26 27  1  0  0  0  0
 26 28  2  0  0  0  0
 24 25  1  0  0  0  0
 24 26  1  0  0  0  0
 22 23  1  0  0  0  0
 22 24  2  0  0  0  0
 20 21  1  0  0  0  0
 20 22  1  0  0  0  0
 19 20  2  0  0  0  0
 19 28  1  0  0  0  0
 17 18  1  0  0  0  0
 17 19  1  0  0  0  0
 15 16  1  0  0  0  0
 15 17  1  0  0  0  0
 14 15  2  0  0  0  0
 14 28  1  0  0  0  0
 11 12  1  0  0  0  0
 11 13  1  0  0  0  0
 11 14  1  0  0  0  0
  9 10  1  0  0  0  0
  9 11  1  0  0  0  0
  9 29  1  0  0  0  0
  7  8  1  0  0  0  0
  7  9  1  0  0  0  0
 33 34  1  0  0  0  0
 33 35  1  0  0  0  0
 33 36  1  0  0  0  0
 31 32  1  0  0  0  0
 31 33  1  0  0  0  0
M  END
$$$$
default_name
  -OEChem-02102213163D

 36 37  0     1  0  0  0  0  0999 V2000
   -4.0843   -4.0736    1.2944 H   0  0  0  0  0  0  0  0  0  0  0  0
   -4.0342   -3.2816    0.5484 C   0  0  0  0  0  0  0  0  0  0  0  0
   -4.8842   -2.6126    0.6694 H   0  0  0  0  0  0  0  0  0  0  0  0
   -4.0433   -3.7186   -0.4486 H   0  0  0  0  0  0  0  0  0  0  0  0
   -2.7532   -2.5046    0.7444 C   0  0  0  0  0  0  0  0  0  0  0  0
   -1.9803   -2.8096    1.6434 O   0  0  0  0  0  0  0  0  0  0  0  0
   -2.5332   -1.4966   -0.0966 N   0  0  0  0  0  0  0  0  0  0  0  0
   -3.2312   -1.2816   -0.7936 H   0  0  0  0  0  0  0  0  0  0  0  0
   -1.3593   -0.6196   -0.0536 C   0  0  1  0  0  0  0  0  0  0  0  0
   -0.4622   -1.2317   -0.1545 H   0  0  0  0  0  0  0  0  0  0  0  0
   -1.4074    0.3593   -1.2373 C   0  0  0  0  0  0  0  0  0  0  0  0
   -1.6994   -0.1885   -2.1350 H   0  0  0  0  0  0  0  0  0  0  0  0
   -2.1792    1.1052   -1.0399 H   0  0  0  0  0  0  0  0  0  0  0  0
   -0.1212    1.0719   -1.5271 C   0  0  0  0  0  0  0  0  0  0  0  0
    1.1027    0.4994   -1.5706 C   0  0  0  0  0  0  0  0  0  0  0  0
    1.3004   -0.5498   -1.3802 H   0  0  0  0  0  0  0  0  0  0  0  0
    2.0470    1.4478   -1.9120 N   0  0  0  0  0  0  0  0  0  0  0  0
    3.0323    1.2462   -2.0000 H   0  0  0  0  0  0  0  0  0  0  0  0
    1.4723    2.6831   -2.1232 C   0  0  0  0  0  0  0  0  0  0  0  0
    1.9911    3.9282   -2.5065 C   0  0  0  0  0  0  0  0  0  0  0  0
    3.0483    4.0468   -2.6931 H   0  0  0  0  0  0  0  0  0  0  0  0
    1.1164    5.0197   -2.6427 C   0  0  0  0  0  0  0  0  0  0  0  0
    1.4987    5.9879   -2.9365 H   0  0  0  0  0  0  0  0  0  0  0  0
   -0.2575    4.8527   -2.3896 C   0  0  0  0  0  0  0  0  0  0  0  0
   -0.9256    5.6972   -2.4875 H   0  0  0  0  0  0  0  0  0  0  0  0
   -0.7675    3.5971   -2.0030 C   0  0  0  0  0  0  0  0  0  0  0  0
   -1.8229    3.4858   -1.7987 H   0  0  0  0  0  0  0  0  0  0  0  0
    0.0839    2.4797   -1.8634 C   0  0  0  0  0  0  0  0  0  0  0  0
   -1.2663    0.1182    1.2910 C   0  0  0  0  0  0  0  0  0  0  0  0
   -0.1906    0.1931    1.8833 O   0  0  0  0  0  0  0  0  0  0  0  0
   -2.3930    0.6605    1.7722 N   0  0  0  0  0  0  0  0  0  0  0  0
   -3.2451    0.5077    1.2518 H   0  0  0  0  0  0  0  0  0  0  0  0
   -2.4787    1.3954    3.0311 C   0  0  0  0  0  0  0  0  0  0  0  0
   -1.7166    2.1767    3.0539 H   0  0  0  0  0  0  0  0  0  0  0  0
   -3.4649    1.8498    3.1344 H   0  0  0  0  0  0  0  0  0  0  0  0
   -2.3058    0.7133    3.8652 H   0  0  0  0  0  0  0  0  0  0  0  0
  5  6  2  0  0  0  0
  5  7  1  0  0  0  0
  2  3  1  0  0  0  0
  2  4  1  0  0  0  0
  2  5  1  0  0  0  0
  1  2  1  0  0  0  0
 29 30  2  0  0  0  0
 29 31  1  0  0  0  0
 26 27  1  0  0  0  0
 26 28  2  0  0  0  0
 24 25  1  0  0  0  0
 24 26  1  0  0  0  0
 22 23  1  0  0  0  0
 22 24  2  0  0  0  0
 20 21  1  0  0  0  0
 20 22  1  0  0  0  0
 19 20  2  0  0  0  0
 19 28  1  0  0  0  0
 17 18  1  0  0  0  0
 17 19  1  0  0  0  0
 15 16  1  0  0  0  0
 15 17  1  0  0  0  0
 14 15  2  0  0  0  0
 14 28  1  0  0  0  0
 11 12  1  0  0  0  0
 11 13  1  0  0  0  0
 11 14  1  0  0  0  0
  9 10  1  0  0  0  0
  9 11  1  0  0  0  0
  9 29  1  0  0  0  0
  7  8  1  0  0  0  0
  7  9  1  0  0  0  0
 33 34  1  0  0  0  0
 33 35  1  0  0  0  0
 33 36  1  0  0  0  0
 31 32  1  0  0  0  0
 31 33  1  0  0  0  0
M  END
$$$$
default_name
  -OEChem-02102213163D

 36 37  0     1  0  0  0  0  0999 V2000
   -4.0843   -4.0736    1.2944 H   0  0  0  0  0  0  0  0  0  0  0  0
   -4.0342   -3.2816    0.5484 C   0  0  0  0  0  0  0  0  0  0  0  0
   -4.8842   -2.6126    0.6694 H   0  0  0  0  0  0  0  0  0  0  0  0
   -4.0433   -3.7186   -0.4486 H   0  0  0  0  0  0  0  0  0  0  0  0
   -2.7532   -2.5046    0.7444 C   0  0  0  0  0  0  0  0  0  0  0  0
   -1.9803   -2.8096    1.6434 O   0  0  0  0  0  0  0  0  0  0  0  0
   -2.5332   -1.4966   -0.0966 N   0  0  0  0  0  0  0  0  0  0  0  0
   -3.2312   -1.2816   -0.7936 H   0  0  0  0  0  0  0  0  0  0  0  0
   -1.3593   -0.6196   -0.0536 C   0  0  1  0  0  0  0  0  0  0  0  0
   -0.4622   -1.2317   -0.1545 H   0  0  0  0  0  0  0  0  0  0  0  0
   -1.4074    0.3593   -1.2373 C   0  0  0  0  0  0  0  0  0  0  0  0
   -1.6994   -0.1885   -2.1350 H   0  0  0  0  0  0  0  0  0  0  0  0
   -2.1792    1.1052   -1.0399 H   0  0  0  0  0  0  0  0  0  0  0  0
   -0.1212    1.0719   -1.5271 C   0  0  0  0  0  0  0  0  0  0  0  0
    1.0500    0.4801   -1.8521 C   0  0  0  0  0  0  0  0  0  0  0  0
    1.2012   -0.5915   -1.9232 H   0  0  0  0  0  0  0  0  0  0  0  0
    2.0063    1.4462   -2.0962 N   0  0  0  0  0  0  0  0  0  0  0  0
    2.9596    1.2342   -2.3523 H   0  0  0  0  0  0  0  0  0  0  0  0
    1.4911    2.7172   -1.9560 C   0  0  0  0  0  0  0  0  0  0  0  0
    2.0398    3.9971   -2.1208 C   0  0  0  0  0  0  0  0  0  0  0  0
    3.0732    4.1164   -2.4114 H   0  0  0  0  0  0  0  0  0  0  0  0
    1.2268    5.1221   -1.9009 C   0  0  0  0  0  0  0  0  0  0  0  0
    1.6330    6.1172   -2.0222 H   0  0  0  0  0  0  0  0  0  0  0  0
   -0.1157    4.9522   -1.5158 C   0  0  0  0  0  0  0  0  0  0  0  0
   -0.7354    5.8206   -1.3396 H   0  0  0  0  0  0  0  0  0  0  0  0
   -0.6561    3.6611   -1.3512 C   0  0  0  0  0  0  0  0  0  0  0  0
   -1.6852    3.5448   -1.0421 H   0  0  0  0  0  0  0  0  0  0  0  0
    0.1326    2.5110   -1.5705 C   0  0  0  0  0  0  0  0  0  0  0  0
   -1.2663    0.1182    1.2910 C   0  0  0  0  0  0  0  0  0  0  0  0
   -0.1906    0.1931    1.8833 O   0  0  0  0  0  0  0  0  0  0  0  0
   -2.3930    0.6605    1.7722 N   0  0  0  0  0  0  0  0  0  0  0  0
   -3.2451    0.5077    1.2518 H   0  0  0  0  0  0  0  0  0  0  0  0
   -2.4787    1.3954    3.0311 C   0  0  0  0  0  0  0  0  0  0  0  0
   -1.7166    2.1767    3.0539 H   0  0  0  0  0  0  0  0  0  0  0  0
   -3.4649    1.8498    3.1344 H   0  0  0  0  0  0  0  0  0  0  0  0
   -2.3058    0.7133    3.8652 H   0  0  0  0  0  0  0  0  0  0  0  0
  5  6  2  0  0  0  0
  5  7  1  0  0  0  0
  2  3  1  0  0  0  0
  2  4  1  0  0  0  0
  2  5  1  0  0  0  0
  1  2  1  0  0  0  0
 29 30  2  0  0  0  0
 29 31  1  0  0  0  0
 26 27  1  0  0  0  0
 26 28  2  0  0  0  0
 24 25  1  0  0  0  0
 24 26  1  0  0  0  0
 22 23  1  0  0  0  0
 22 24  2  0  0  0  0
 20 21  1  0  0  0  0
 20 22  1  0  0  0  0
 19 20  2  0  0  0  0
 19 28  1  0  0  0  0
 17 18  1  0  0  0  0
 17 19  1  0  0  0  0
 15 16  1  0  0  0  0
 15 17  1  0  0  0  0
 14 15  2  0  0  0  0
 14 28  1  0  0  0  0
 11 12  1  0  0  0  0
 11 13  1  0  0  0  0
 11 14  1  0  0  0  0
  9 10  1  0  0  0  0
  9 11  1  0  0  0  0
  9 29  1  0  0  0  0
  7  8  1  0  0  0  0
  7  9  1  0  0  0  0
 33 34  1  0  0  0  0
 33 35  1  0  0  0  0
 33 36  1  0  0  0  0
 31 32  1  0  0  0  0
 31 33  1  0  0  0  0
M  END
$$$$
default_name
  -OEChem-02102213163D

 36 37  0     1  0  0  0  0  0999 V2000
   -4.0843   -4.0736    1.2944 H   0  0  0  0  0  0  0  0  0  0  0  0
   -4.0342   -3.2816    0.5484 C   0  0  0  0  0  0  0  0  0  0  0  0
   -4.8842   -2.6126    0.6694 H   0  0  0  0  0  0  0  0  0  0  0  0
   -4.0433   -3.7186   -0.4486 H   0  0  0  0  0  0  0  0  0  0  0  0
   -2.7532   -2.5046    0.7444 C   0  0  0  0  0  0  0  0  0  0  0  0
   -1.9803   -2.8096    1.6434 O   0  0  0  0  0  0  0  0  0  0  0  0
   -2.5332   -1.4966   -0.0966 N   0  0  0  0  0  0  0  0  0  0  0  0
   -3.2312   -1.2816   -0.7936 H   0  0  0  0  0  0  0  0  0  0  0  0
   -1.3593   -0.6196   -0.0536 C   0  0  1  0  0  0  0  0  0  0  0  0
   -0.4622   -1.2317   -0.1545 H   0  0  0  0  0  0  0  0  0  0  0  0
   -1.4074    0.3593   -1.2373 C   0  0  0  0  0  0  0  0  0  0  0  0
   -1.6994   -0.1885   -2.1350 H   0  0  0  0  0  0  0  0  0  0  0  0
   -2.1792    1.1052   -1.0399 H   0  0  0  0  0  0  0  0  0  0  0  0
   -0.1212    1.0719   -1.5271 C   0  0  0  0  0  0  0  0  0  0  0  0
    0.9635    0.5265   -2.1218 C   0  0  0  0  0  0  0  0  0  0  0  0
    1.0365   -0.5062   -2.4447 H   0  0  0  0  0  0  0  0  0  0  0  0
    1.9443    1.4876   -2.2694 N   0  0  0  0  0  0  0  0  0  0  0  0
    2.8454    1.3044   -2.6862 H   0  0  0  0  0  0  0  0  0  0  0  0
    1.5315    2.7122   -1.7891 C   0  0  0  0  0  0  0  0  0  0  0  0
    2.1378    3.9756   -1.7389 C   0  0  0  0  0  0  0  0  0  0  0  0
    3.1354    4.1198   -2.1269 H   0  0  0  0  0  0  0  0  0  0  0  0
    1.4298    5.0508   -1.1752 C   0  0  0  0  0  0  0  0  0  0  0  0
    1.8818    6.0323   -1.1269 H   0  0  0  0  0  0  0  0  0  0  0  0
    0.1337    4.8472   -0.6672 C   0  0  0  0  0  0  0  0  0  0  0  0
   -0.4041    5.6753   -0.2268 H   0  0  0  0  0  0  0  0  0  0  0  0
   -0.4651    3.5725   -0.7211 C   0  0  0  0  0  0  0  0  0  0  0  0
   -1.4561    3.4269   -0.3152 H   0  0  0  0  0  0  0  0  0  0  0  0
    0.2173    2.4736   -1.2866 C   0  0  0  0  0  0  0  0  0  0  0  0
   -1.2663    0.1182    1.2910 C   0  0  0  0  0  0  0  0  0  0  0  0
   -0.1906    0.1931    1.8833 O   0  0  0  0  0  0  0  0  0  0  0  0
   -2.3930    0.6605    1.7722 N   0  0  0  0  0  0  0  0  0  0  0  0
   -3.2451    0.5077    1.2518 H   0  0  0  0  0  0  0  0  0  0  0  0
   -2.4787    1.3954    3.0311 C   0  0  0  0  0  0  0  0  0  0  0  0
   -1.7166    2.1767    3.0539 H   0  0  0  0  0  0  0  0  0  0  0  0
   -3.4649    1.8498    3.1344 H   0  0  0  0  0  0  0  0  0  0  0  0
   -2.3058    0.7133    3.8652 H   0  0  0  0  0  0  0  0  0  0  0  0
  5  6  2  0  0  0  0
  5  7  1  0  0  0  0
  2  3  1  0  0  0  0
  2  4  1  0  0  0  0
  2  5  1  0  0  0  0
  1  2  1  0  0  0  0
 29 30  2  0  0  0  0
 29 31  1  0  0  0  0
 26 27  1  0  0  0  0
 26 28  2  0  0  0  0
 24 25  1  0  0  0  0
 24 26  1  0  0  0  0
 22 23  1  0  0  0  0
 22 24  2  0  0  0  0
 20 21  1  0  0  0  0
 20 22  1  0  0  0  0
 19 20  2  0  0  0  0
 19 28  1  0  0  0  0
 17 18  1  0  0  0  0
 17 19  1  0  0  0  0
 15 16  1  0  0  0  0
 15 17  1  0  0  0  0
 14 15  2  0  0  0  0
 14 28  1  0  0  0  0
 11 12  1  0  0  0  0
 11 13  1  0  0  0  0
 11 14  1  0  0  0  0
  9 10  1  0  0  0  0
  9 11  1  0  0  0  0
  9 29  1  0  0  0  0
  7  8  1  0  0  0  0
  7  9  1  0  0  0  0
 33 34  1  0  0  0  0
 33 35  1  0  0  0  0
 33 36  1  0  0  0  0
 31 32  1  0  0  0  0
 31 33  1  0  0  0  0
M  END
$$$$
default_name
  -OEChem-02102213163D

 36 37  0     1  0  0  0  0  0999 V2000
   -4.0843   -4.0736    1.2944 H   0  0  0  0  0  0  0  0  0  0  0  0
   -4.0342   -3.2816    0.5484 C   0  0  0  0  0  0  0  0  0  0  0  0
   -4.8842   -2.6126    0.6694 H   0  0  0  0  0  0  0  0  0  0  0  0
   -4.0433   -3.7186   -0.4486 H   0  0  0  0  0  0  0  0  0  0  0  0
   -2.7532   -2.5046    0.7444 C   0  0  0  0  0  0  0  0  0  0  0  0
   -1.9803   -2.8096    1.6434 O   0  0  0  0  0  0  0  0  0  0  0  0
   -2.5332   -1.4966   -0.0966 N   0  0  0  0  0  0  0  0  0  0  0  0
   -3.2312   -1.2816   -0.7936 H   0  0  0  0  0  0  0  0  0  0  0  0
   -1.3593   -0.6196   -0.0536 C   0  0  1  0  0  0  0  0  0  0  0  0
   -0.4622   -1.2317   -0.1545 H   0  0  0  0  0  0  0  0  0  0  0  0
   -1.4074    0.3593   -1.2373 C   0  0  0  0  0  0  0  0  0  0  0  0
   -1.6994   -0.1885   -2.1350 H   0  0  0  0  0  0  0  0  0  0  0  0
   -2.1792    1.1052   -1.0399 H   0  0  0  0  0  0  0  0  0  0  0  0
   -0.1212    1.0719   -1.5271 C   0  0  0  0  0  0  0  0  0  0  0  0
    0.8491    0.6357   -2.3613 C   0  0  0  0  0  0  0  0  0  0  0  0
    0.8174   -0.2997   -2.9092 H   0  0  0  0  0  0  0  0  0  0  0  0
    1.8652    1.5692   -2.4199 N   0  0  0  0  0  0  0  0  0  0  0  0
    2.6976    1.4522   -2.9791 H   0  0  0  0  0  0  0  0  0  0  0  0
    1.5908    2.6682   -1.6341 C   0  0  0  0  0  0  0  0  0  0  0  0
    2.2783    3.8651   -1.3869 C   0  0  0  0  0  0  0  0  0  0  0  0
    3.2307    4.0569   -1.8589 H   0  0  0  0  0  0  0  0  0  0  0  0
    1.7116    4.8105   -0.5150 C   0  0  0  0  0  0  0  0  0  0  0  0
    2.2280    5.7389   -0.3116 H   0  0  0  0  0  0  0  0  0  0  0  0
    0.4738    4.5447    0.0985 C   0  0  0  0  0  0  0  0  0  0  0  0
    0.0455    5.2713    0.7751 H   0  0  0  0  0  0  0  0  0  0  0  0
   -0.2074    3.3374   -0.1557 C   0  0  0  0  0  0  0  0  0  0  0  0
   -1.1512    3.1401    0.3326 H   0  0  0  0  0  0  0  0  0  0  0  0
    0.3321    2.3703   -1.0311 C   0  0  0  0  0  0  0  0  0  0  0  0
   -1.2663    0.1182    1.2910 C   0  0  0  0  0  0  0  0  0  0  0  0
   -0.1906    0.1931    1.8833 O   0  0  0  0  0  0  0  0  0  0  0  0
   -2.3930    0.6605    1.7722 N   0  0  0  0  0  0  0  0  0  0  0  0
   -3.2451    0.5077    1.2518 H   0  0  0  0  0  0  0  0  0  0  0  0
   -2.4787    1.3954    3.0311 C   0  0  0  0  0  0  0  0  0  0  0  0
   -1.7166    2.1767    3.0539 H   0  0  0  0  0  0  0  0  0  0  0  0
   -3.4649    1.8498    3.1344 H   0  0  0  0  0  0  0  0  0  0  0  0
   -2.3058    0.7133    3.8652 H   0  0  0  0  0  0  0  0  0  0  0  0
  5  6  2  0  0  0  0
  5  7  1  0  0  0  0
  2  3  1  0  0  0  0
  2  4  1  0  0  0  0
  2  5  1  0  0  0  0
  1  2  1  0  0  0  0
 29 30  2  0  0  0  0
 29 31  1  0  0  0  0
 26 27  1  0  0  0  0
 26 28  2  0  0  0  0
 24 25  1  0  0  0  0
 24 26  1  0  0  0  0
 22 23  1  0  0  0  0
 22 24  2  0  0  0  0
 20 21  1  0  0  0  0
 20 22  1  0  0  0  0
 19 20  2  0  0  0  0
 19 28  1  0  0  0  0
 17 18  1  0  0  0  0
 17 19  1  0  0  0  0
 15 16  1  0  0  0  0
 15 17  1  0  0  0  0
 14 15  2  0  0  0  0
 14 28  1  0  0  0  0
 11 12  1  0  0  0  0
 11 13  1  0  0  0  0
 11 14  1  0  0  0  0
  9 10  1  0  0  0  0
  9 11  1  0  0  0  0
  9 29  1  0  0  0  0
  7  8  1  0  0  0  0
  7  9  1  0  0  0  0
 33 34  1  0  0  0  0
 33 35  1  0  0  0  0
 33 36  1  0  0  0  0
 31 32  1  0  0  0  0
 31 33  1  0  0  0  0
M  END
$$$$
default_name
  -OEChem-02102213163D

 36 37  0     1  0  0  0  0  0999 V2000
   -4.0843   -4.0736    1.2944 H   0  0  0  0  0  0  0  0  0  0  0  0
   -4.0342   -3.2816    0.5484 C   0  0  0  0  0  0  0  0  0  0  0  0
   -4.8842   -2.6126    0.6694 H   0  0  0  0  0  0  0  0  0  0  0  0
   -4.0433   -3.7186   -0.4486 H   0  0  0  0  0  0  0  0  0  0  0  0
   -2.7532   -2.5046    0.7444 C   0  0  0  0  0  0  0  0  0  0  0  0
   -1.9803   -2.8096    1.6434 O   0  0  0  0  0  0  0  0  0  0  0  0
   -2.5332   -1.4966   -0.0966 N   0  0  0  0  0  0  0  0  0  0  0  0
   -3.2312   -1.2816   -0.7936 H   0  0  0  0  0  0  0  0  0  0  0  0
   -1.3593   -0.6196   -0.0536 C   0  0  1  0  0  0  0  0  0  0  0  0
   -0.4622   -1.2317   -0.1545 H   0  0  0  0  0  0  0  0  0  0  0  0
   -1.4074    0.3593   -1.2373 C   0  0  0  0  0  0  0  0  0  0  0  0
   -1.6994   -0.1885   -2.1350 H   0  0  0  0  0  0  0  0  0  0  0  0
   -2.1792    1.1052   -1.0399 H   0  0  0  0  0  0  0  0  0  0  0  0
   -0.1212    1.0719   -1.5271 C   0  0  0  0  0  0  0  0  0  0  0  0
    0.7145    0.8000   -2.5544 C   0  0  0  0  0  0  0  0  0  0  0  0
    0.5590    0.0138   -3.2850 H   0  0  0  0  0  0  0  0  0  0  0  0
    1.7744    1.6854   -2.5374 N   0  0  0  0  0  0  0  0  0  0  0  0
    2.5261    1.6674   -3.2111 H   0  0  0  0  0  0  0  0  0  0  0  0
    1.6649    2.5883   -1.5014 C   0  0  0  0  0  0  0  0  0  0  0  0
    2.4519    3.6732   -1.0887 C   0  0  0  0  0  0  0  0  0  0  0  0
    3.3525    3.9318   -1.6258 H   0  0  0  0  0  0  0  0  0  0  0  0
    2.0531    4.4177    0.0345 C   0  0  0  0  0  0  0  0  0  0  0  0
    2.6481    5.2571    0.3681 H   0  0  0  0  0  0  0  0  0  0  0  0
    0.8815    4.0655    0.7291 C   0  0  0  0  0  0  0  0  0  0  0  0
    0.5828    4.6359    1.5977 H   0  0  0  0  0  0  0  0  0  0  0  0
    0.0992    2.9719    0.3065 C   0  0  0  0  0  0  0  0  0  0  0  0
   -0.7913    2.7039    0.8571 H   0  0  0  0  0  0  0  0  0  0  0  0
    0.4693    2.2079   -0.8214 C   0  0  0  0  0  0  0  0  0  0  0  0
   -1.2663    0.1182    1.2910 C   0  0  0  0  0  0  0  0  0  0  0  0
   -0.1906    0.1931    1.8833 O   0  0  0  0  0  0  0  0  0  0  0  0
   -2.3930    0.6605    1.7722 N   0  0  0  0  0  0  0  0  0  0  0  0
   -3.2451    0.5077    1.2518 H   0  0  0  0  0  0  0  0  0  0  0  0
   -2.4787    1.3954    3.0311 C   0  0  0  0  0  0  0  0  0  0  0  0
   -1.7166    2.1767    3.0539 H   0  0  0  0  0  0  0  0  0  0  0  0
   -3.4649    1.8498    3.1344 H   0  0  0  0  0  0  0  0  0  0  0  0
   -2.3058    0.7133    3.8652 H   0  0  0  0  0  0  0  0  0  0  0  0
  5  6  2  0  0  0  0
  5  7  1  0  0  0  0
  2  3  1  0  0  0  0
  2  4  1  0  0  0  0
  2  5  1  0  0  0  0
  1  2  1  0  0  0  0
 29 30  2  0  0  0  0
 29 31  1  0  0  0  0
 26 27  1  0  0  0  0
 26 28  2  0  0  0  0
 24 25  1  0  0  0  0
 24 26  1  0  0  0  0
 22 23  1  0  0  0  0
 22 24  2  0  0  0  0
 20 21  1  0  0  0  0
 20 22  1  0  0  0  0
 19 20  2  0  0  0  0
 19 28  1  0  0  0  0
 17 18  1  0  0  0  0
 17 19  1  0  0  0  0
 15 16  1  0  0  0  0
 15 17  1  0  0  0  0
 14 15  2  0  0  0  0
 14 28  1  0  0  0  0
 11 12  1  0  0  0  0
 11 13  1  0  0  0  0
 11 14  1  0  0  0  0
  9 10  1  0  0  0  0
  9 11  1  0  0  0  0
  9 29  1  0  0  0  0
  7  8  1  0  0  0  0
  7  9  1  0  0  0  0
 33 34  1  0  0  0  0
 33 35  1  0  0  0  0
 33 36  1  0  0  0  0
 31 32  1  0  0  0  0
 31 33  1  0  0  0  0
M  END
$$$$
default_name
  -OEChem-02102213163D

 36 37  0     1  0  0  0  0  0999 V2000
   -4.0843   -4.0736    1.2944 H   0  0  0  0  0  0  0  0  0  0  0  0
   -4.0342   -3.2816    0.5484 C   0  0  0  0  0  0  0  0  0  0  0  0
   -4.8842   -2.6126    0.6694 H   0  0  0  0  0  0  0  0  0  0  0  0
   -4.0433   -3.7186   -0.4486 H   0  0  0  0  0  0  0  0  0  0  0  0
   -2.7532   -2.5046    0.7444 C   0  0  0  0  0  0  0  0  0  0  0  0
   -1.9803   -2.8096    1.6434 O   0  0  0  0  0  0  0  0  0  0  0  0
   -2.5332   -1.4966   -0.0966 N   0  0  0  0  0  0  0  0  0  0  0  0
   -3.2312   -1.2816   -0.7936 H   0  0  0  0  0  0  0  0  0  0  0  0
   -1.3593   -0.6196   -0.0536 C   0  0  1  0  0  0  0  0  0  0  0  0
   -0.4622   -1.2317   -0.1545 H   0  0  0  0  0  0  0  0  0  0  0  0
   -1.4074    0.3593   -1.2373 C   0  0  0  0  0  0  0  0  0  0  0  0
   -1.6994   -0.1885   -2.1350 H   0  0  0  0  0  0  0  0  0  0  0  0
   -2.1792    1.1052   -1.0399 H   0  0  0  0  0  0  0  0  0  0  0  0
   -0.1212    1.0719   -1.5271 C   0  0  0  0  0  0  0  0  0  0  0  0
    0.5690    1.0084   -2.6878 C   0  0  0  0  0  0  0  0  0  0  0  0
    0.2788    0.4131   -3.5466 H   0  0  0  0  0  0  0  0  0  0  0  0
    1.6780    1.8283   -2.6139 N   0  0  0  0  0  0  0  0  0  0  0  0
    2.3427    1.9353   -3.3662 H   0  0  0  0  0  0  0  0  0  0  0  0
    1.7489    2.4780   -1.4000 C   0  0  0  0  0  0  0  0  0  0  0  0
    2.6466    3.4128   -0.8646 C   0  0  0  0  0  0  0  0  0  0  0  0
    3.4926    3.7530   -1.4435 H   0  0  0  0  0  0  0  0  0  0  0  0
    2.4309    3.8992    0.4361 C   0  0  0  0  0  0  0  0  0  0  0  0
    3.1134    4.6198    0.8660 H   0  0  0  0  0  0  0  0  0  0  0  0
    1.3288    3.4420    1.1816 C   0  0  0  0  0  0  0  0  0  0  0  0
    1.1713    3.8126    2.1851 H   0  0  0  0  0  0  0  0  0  0  0  0
    0.4341    2.5008    0.6341 C   0  0  0  0  0  0  0  0  0  0  0  0
   -0.4010    2.1480    1.2225 H   0  0  0  0  0  0  0  0  0  0  0  0
    0.6195    1.9977   -0.6718 C   0  0  0  0  0  0  0  0  0  0  0  0
   -1.2663    0.1182    1.2910 C   0  0  0  0  0  0  0  0  0  0  0  0
   -0.1906    0.1931    1.8833 O   0  0  0  0  0  0  0  0  0  0  0  0
   -2.3930    0.6605    1.7722 N   0  0  0  0  0  0  0  0  0  0  0  0
   -3.2451    0.5077    1.2518 H   0  0  0  0  0  0  0  0  0  0  0  0
   -2.4787    1.3954    3.0311 C   0  0  0  0  0  0  0  0  0  0  0  0
   -1.7166    2.1767    3.0539 H   0  0  0  0  0  0  0  0  0  0  0  0
   -3.4649    1.8498    3.1344 H   0  0  0  0  0  0  0  0  0  0  0  0
   -2.3058    0.7133    3.8652 H   0  0  0  0  0  0  0  0  0  0  0  0
  5  6  2  0  0  0  0
  5  7  1  0  0  0  0
  2  3  1  0  0  0  0
  2  4  1  0  0  0  0
  2  5  1  0  0  0  0
  1  2  1  0  0  0  0
 29 30  2  0  0  0  0
 29 31  1  0  0  0  0
 26 27  1  0  0  0  0
 26 28  2  0  0  0  0
 24 25  1  0  0  0  0
 24 26  1  0  0  0  0
 22 23  1  0  0  0  0
 22 24  2  0  0  0  0
 20 21  1  0  0  0  0
 20 22  1  0  0  0  0
 19 20  2  0  0  0  0
 19 28  1  0  0  0  0
 17 18  1  0  0  0  0
 17 19  1  0  0  0  0
 15 16  1  0  0  0  0
 15 17  1  0  0  0  0
 14 15  2  0  0  0  0
 14 28  1  0  0  0  0
 11 12  1  0  0  0  0
 11 13  1  0  0  0  0
 11 14  1  0  0  0  0
  9 10  1  0  0  0  0
  9 11  1  0  0  0  0
  9 29  1  0  0  0  0
  7  8  1  0  0  0  0
  7  9  1  0  0  0  0
 33 34  1  0  0  0  0
 33 35  1  0  0  0  0
 33 36  1  0  0  0  0
 31 32  1  0  0  0  0
 31 33  1  0  0  0  0
M  END
$$$$
default_name
  -OEChem-02102213163D

 36 37  0     1  0  0  0  0  0999 V2000
   -4.0843   -4.0736    1.2944 H   0  0  0  0  0  0  0  0  0  0  0  0
   -4.0342   -3.2816    0.5484 C   0  0  0  0  0  0  0  0  0  0  0  0
   -4.8842   -2.6126    0.6694 H   0  0  0  0  0  0  0  0  0  0  0  0
   -4.0433   -3.7186   -0.4486 H   0  0  0  0  0  0  0  0  0  0  0  0
   -2.7532   -2.5046    0.7444 C   0  0  0  0  0  0  0  0  0  0  0  0
   -1.9803   -2.8096    1.6434 O   0  0  0  0  0  0  0  0  0  0  0  0
   -2.5332   -1.4966   -0.0966 N   0  0  0  0  0  0  0  0  0  0  0  0
   -3.2312   -1.2816   -0.7936 H   0  0  0  0  0  0  0  0  0  0  0  0
   -1.3593   -0.6196   -0.0536 C   0  0  1  0  0  0  0  0  0  0  0  0
   -0.4622   -1.2317   -0.1545 H   0  0  0  0  0  0  0  0  0  0  0  0
   -1.4074    0.3593   -1.2373 C   0  0  0  0  0  0  0  0  0  0  0  0
   -1.6994   -0.1885   -2.1350 H   0  0  0  0  0  0  0  0  0  0  0  0
   -2.1792    1.1052   -1.0399 H   0  0  0  0  0  0  0  0  0  0  0  0
   -0.1212    1.0719   -1.5271 C   0  0  0  0  0  0  0  0  0  0  0  0
    0.4225    1.2466   -2.7525 C   0  0  0  0  0  0  0  0  0  0  0  0
   -0.0040    0.8710   -3.6762 H   0  0  0  0  0  0  0  0  0  0  0  0
    1.5826    1.9881   -2.6443 N   0  0  0  0  0  0  0  0  0  0  0  0
    2.1598    2.2377   -3.4340 H   0  0  0  0  0  0  0  0  0  0  0  0
    1.8369    2.3447   -1.3370 C   0  0  0  0  0  0  0  0  0  0  0  0
    2.8492    3.1018   -0.7300 C   0  0  0  0  0  0  0  0  0  0  0  0
    3.6415    3.5329   -1.3243 H   0  0  0  0  0  0  0  0  0  0  0  0
    2.8193    3.2901    0.6624 C   0  0  0  0  0  0  0  0  0  0  0  0
    3.5923    3.8703    1.1481 H   0  0  0  0  0  0  0  0  0  0  0  0
    1.7854    2.7170    1.4251 C   0  0  0  0  0  0  0  0  0  0  0  0
    1.7708    2.8574    2.4971 H   0  0  0  0  0  0  0  0  0  0  0  0
    0.7742    1.9562    0.8046 C   0  0  0  0  0  0  0  0  0  0  0  0
   -0.0068    1.5104    1.4040 H   0  0  0  0  0  0  0  0  0  0  0  0
    0.7725    1.7538   -0.5925 C   0  0  0  0  0  0  0  0  0  0  0  0
   -1.2663    0.1182    1.2910 C   0  0  0  0  0  0  0  0  0  0  0  0
   -0.1906    0.1931    1.8833 O   0  0  0  0  0  0  0  0  0  0  0  0
   -2.3930    0.6605    1.7722 N   0  0  0  0  0  0  0  0  0  0  0  0
   -3.2451    0.5077    1.2518 H   0  0  0  0  0  0  0  0  0  0  0  0
   -2.4787    1.3954    3.0311 C   0  0  0  0  0  0  0  0  0  0  0  0
   -1.7166    2.1767    3.0539 H   0  0  0  0  0  0  0  0  0  0  0  0
   -3.4649    1.8498    3.1344 H   0  0  0  0  0  0  0  0  0  0  0  0
   -2.3058    0.7133    3.8652 H   0  0  0  0  0  0  0  0  0  0  0  0
  5  6  2  0  0  0  0
  5  7  1  0  0  0  0
  2  3  1  0  0  0  0
  2  4  1  0  0  0  0
  2  5  1  0  0  0  0
  1  2  1  0  0  0  0
 29 30  2  0  0  0  0
 29 31  1  0  0  0  0
 26 27  1  0  0  0  0
 26 28  2  0  0  0  0
 24 25  1  0  0  0  0
 24 26  1  0  0  0  0
 22 23  1  0  0  0  0
 22 24  2  0  0  0  0
 20 21  1  0  0  0  0
 20 22  1  0  0  0  0
 19 20  2  0  0  0  0
 19 28  1  0  0  0  0
 17 18  1  0  0  0  0
 17 19  1  0  0  0  0
 15 16  1  0  0  0  0
 15 17  1  0  0  0  0
 14 15  2  0  0  0  0
 14 28  1  0  0  0  0
 11 12  1  0  0  0  0
 11 13  1  0  0  0  0
 11 14  1  0  0  0  0
  9 10  1  0  0  0  0
  9 11  1  0  0  0  0
  9 29  1  0  0  0  0
  7  8  1  0  0  0  0
  7  9  1  0  0  0  0
 33 34  1  0  0  0  0
 33 35  1  0  0  0  0
 33 36  1  0  0  0  0
 31 32  1  0  0  0  0
 31 33  1  0  0  0  0
M  END
$$$$
default_name
  -OEChem-02102213163D

 36 37  0     1  0  0  0  0  0999 V2000
   -4.0843   -4.0736    1.2944 H   0  0  0  0  0  0  0  0  0  0  0  0
   -4.0342   -3.2816    0.5484 C   0  0  0  0  0  0  0  0  0  0  0  0
   -4.8842   -2.6126    0.6694 H   0  0  0  0  0  0  0  0  0  0  0  0
   -4.0433   -3.7186   -0.4486 H   0  0  0  0  0  0  0  0  0  0  0  0
   -2.7532   -2.5046    0.7444 C   0  0  0  0  0  0  0  0  0  0  0  0
   -1.9803   -2.8096    1.6434 O   0  0  0  0  0  0  0  0  0  0  0  0
   -2.5332   -1.4966   -0.0966 N   0  0  0  0  0  0  0  0  0  0  0  0
   -3.2312   -1.2816   -0.7936 H   0  0  0  0  0  0  0  0  0  0  0  0
   -1.3593   -0.6196   -0.0536 C   0  0  1  0  0  0  0  0  0  0  0  0
   -0.4622   -1.2317   -0.1545 H   0  0  0  0  0  0  0  0  0  0  0  0
   -1.4074    0.3593   -1.2373 C   0  0  0  0  0  0  0  0  0  0  0  0
   -1.6994   -0.1885   -2.1350 H   0  0  0  0  0  0  0  0  0  0  0  0
   -2.1792    1.1052   -1.0399 H   0  0  0  0  0  0  0  0  0  0  0  0
   -0.1212    1.0719   -1.5271 C   0  0  0  0  0  0  0  0  0  0  0  0
    0.2849    1.4983   -2.7440 C   0  0  0  0  0  0  0  0  0  0  0  0
   -0.2703    1.3561   -3.6648 H   0  0  0  0  0  0  0  0  0  0  0  0
    1.4947    2.1540   -2.6263 N   0  0  0  0  0  0  0  0  0  0  0  0
    1.9900    2.5541   -3.4097 H   0  0  0  0  0  0  0  0  0  0  0  0
    1.9231    2.1976   -1.3166 C   0  0  0  0  0  0  0  0  0  0  0  0
    3.0460    2.7614   -0.6940 C   0  0  0  0  0  0  0  0  0  0  0  0
    3.7889    3.2863   -1.2763 H   0  0  0  0  0  0  0  0  0  0  0  0
    3.1918    2.6322    0.6978 C   0  0  0  0  0  0  0  0  0  0  0  0
    4.0520    3.0597    1.1951 H   0  0  0  0  0  0  0  0  0  0  0  0
    2.2201    1.9397    1.4431 C   0  0  0  0  0  0  0  0  0  0  0  0
    2.3405    1.8355    2.5126 H   0  0  0  0  0  0  0  0  0  0  0  0
    1.0965    1.3753    0.8065 C   0  0  0  0  0  0  0  0  0  0  0  0
    0.3643    0.8345    1.3891 H   0  0  0  0  0  0  0  0  0  0  0  0
    0.9178    1.4930   -0.5889 C   0  0  0  0  0  0  0  0  0  0  0  0
   -1.2663    0.1182    1.2910 C   0  0  0  0  0  0  0  0  0  0  0  0
   -0.1906    0.1931    1.8833 O   0  0  0  0  0  0  0  0  0  0  0  0
   -2.3930    0.6605    1.7722 N   0  0  0  0  0  0  0  0  0  0  0  0
   -3.2451    0.5077    1.2518 H   0  0  0  0  0  0  0  0  0  0  0  0
   -2.4787    1.3954    3.0311 C   0  0  0  0  0  0  0  0  0  0  0  0
   -1.7166    2.1767    3.0539 H   0  0  0  0  0  0  0  0  0  0  0  0
   -3.4649    1.8498    3.1344 H   0  0  0  0  0  0  0  0  0  0  0  0
   -2.3058    0.7133    3.8652 H   0  0  0  0  0  0  0  0  0  0  0  0
  5  6  2  0  0  0  0
  5  7  1  0  0  0  0
  2  3  1  0  0  0  0
  2  4  1  0  0  0  0
  2  5  1  0  0  0  0
  1  2  1  0  0  0  0
 29 30  2  0  0  0  0
 29 31  1  0  0  0  0
 26 27  1  0  0  0  0
 26 28  2  0  0  0  0
 24 25  1  0  0  0  0
 24 26  1  0  0  0  0
 22 23  1  0  0  0  0
 22 24  2  0  0  0  0
 20 21  1  0  0  0  0
 20 22  1  0  0  0  0
 19 20  2  0  0  0  0
 19 28  1  0  0  0  0
 17 18  1  0  0  0  0
 17 19  1  0  0  0  0
 15 16  1  0  0  0  0
 15 17  1  0  0  0  0
 14 15  2  0  0  0  0
 14 28  1  0  0  0  0
 11 12  1  0  0  0  0
 11 13  1  0  0  0  0
 11 14  1  0  0  0  0
  9 10  1  0  0  0  0
  9 11  1  0  0  0  0
  9 29  1  0  0  0  0
  7  8  1  0  0  0  0
  7  9  1  0  0  0  0
 33 34  1  0  0  0  0
 33 35  1  0  0  0  0
 33 36  1  0  0  0  0
 31 32  1  0  0  0  0
 31 33  1  0  0  0  0
M  END
$$$$
default_name
  -OEChem-02102213163D

 36 37  0     1  0  0  0  0  0999 V2000
   -4.0843   -4.0736    1.2944 H   0  0  0  0  0  0  0  0  0  0  0  0
   -4.0342   -3.2816    0.5484 C   0  0  0  0  0  0  0  0  0  0  0  0
   -4.8842   -2.6126    0.6694 H   0  0  0  0  0  0  0  0  0  0  0  0
   -4.0433   -3.7186   -0.4486 H   0  0  0  0  0  0  0  0  0  0  0  0
   -2.7532   -2.5046    0.7444 C   0  0  0  0  0  0  0  0  0  0  0  0
   -1.9803   -2.8096    1.6434 O   0  0  0  0  0  0  0  0  0  0  0  0
   -2.5332   -1.4966   -0.0966 N   0  0  0  0  0  0  0  0  0  0  0  0
   -3.2312   -1.2816   -0.7936 H   0  0  0  0  0  0  0  0  0  0  0  0
   -1.3593   -0.6196   -0.0536 C   0  0  1  0  0  0  0  0  0  0  0  0
   -0.4622   -1.2317   -0.1545 H   0  0  0  0  0  0  0  0  0  0  0  0
   -1.4074    0.3593   -1.2373 C   0  0  0  0  0  0  0  0  0  0  0  0
   -1.6994   -0.1885   -2.1350 H   0  0  0  0  0  0  0  0  0  0  0  0
   -2.1792    1.1052   -1.0399 H   0  0  0  0  0  0  0  0  0  0  0  0
   -0.1212    1.0719   -1.5271 C   0  0  0  0  0  0  0  0  0  0  0  0
    0.1656    1.7465   -2.6630 C   0  0  0  0  0  0  0  0  0  0  0  0
   -0.5017    1.8355   -3.5132 H   0  0  0  0  0  0  0  0  0  0  0  0
    1.4203    2.3147   -2.5613 N   0  0  0  0  0  0  0  0  0  0  0  0
    1.8448    2.8628   -3.2952 H   0  0  0  0  0  0  0  0  0  0  0  0
    2.0014    2.0466   -1.3401 C   0  0  0  0  0  0  0  0  0  0  0  0
    3.2234    2.4147   -0.7590 C   0  0  0  0  0  0  0  0  0  0  0  0
    3.9248    3.0301   -1.3030 H   0  0  0  0  0  0  0  0  0  0  0  0
    3.5231    1.9701    0.5400 C   0  0  0  0  0  0  0  0  0  0  0  0
    4.4613    2.2432    1.0040 H   0  0  0  0  0  0  0  0  0  0  0  0
    2.6033    1.1631    1.2344 C   0  0  0  0  0  0  0  0  0  0  0  0
    2.8416    0.8164    2.2304 H   0  0  0  0  0  0  0  0  0  0  0  0
    1.3790    0.7977    0.6397 C   0  0  0  0  0  0  0  0  0  0  0  0
    0.6872    0.1663    1.1790 H   0  0  0  0  0  0  0  0  0  0  0  0
    1.0456    1.2330   -0.6612 C   0  0  0  0  0  0  0  0  0  0  0  0
   -1.2663    0.1182    1.2910 C   0  0  0  0  0  0  0  0  0  0  0  0
   -0.1906    0.1931    1.8833 O   0  0  0  0  0  0  0  0  0  0  0  0
   -2.3930    0.6605    1.7722 N   0  0  0  0  0  0  0  0  0  0  0  0
   -3.2451    0.5077    1.2518 H   0  0  0  0  0  0  0  0  0  0  0  0
   -2.4787    1.3954    3.0311 C   0  0  0  0  0  0  0  0  0  0  0  0
   -1.7166    2.1767    3.0539 H   0  0  0  0  0  0  0  0  0  0  0  0
   -3.4649    1.8498    3.1344 H   0  0  0  0  0  0  0  0  0  0  0  0
   -2.3058    0.7133    3.8652 H   0  0  0  0  0  0  0  0  0  0  0  0
  5  6  2  0  0  0  0
  5  7  1  0  0  0  0
  2  3  1  0  0  0  0
  2  4  1  0  0  0  0
  2  5  1  0  0  0  0
  1  2  1  0  0  0  0
 29 30  2  0  0  0  0
 29 31  1  0  0  0  0
 26 27  1  0  0  0  0
 26 28  2  0  0  0  0
 24 25  1  0  0  0  0
 24 26  1  0  0  0  0
 22 23  1  0  0  0  0
 22 24  2  0  0  0  0
 20 21  1  0  0  0  0
 20 22  1  0  0  0  0
 19 20  2  0  0  0  0
 19 28  1  0  0  0  0
 17 18  1  0  0  0  0
 17 19  1  0  0  0  0
 15 16  1  0  0  0  0
 15 17  1  0  0  0  0
 14 15  2  0  0  0  0
 14 28  1  0  0  0  0
 11 12  1  0  0  0  0
 11 13  1  0  0  0  0
 11 14  1  0  0  0  0
  9 10  1  0  0  0  0
  9 11  1  0  0  0  0
  9 29  1  0  0  0  0
  7  8  1  0  0  0  0
  7  9  1  0  0  0  0
 33 34  1  0  0  0  0
 33 35  1  0  0  0  0
 33 36  1  0  0  0  0
 31 32  1  0  0  0  0
 31 33  1  0  0  0  0
M  END
$$$$
default_name
  -OEChem-02102213163D

 36 37  0     1  0  0  0  0  0999 V2000
   -4.0843   -4.0736    1.2944 H   0  0  0  0  0  0  0  0  0  0  0  0
   -4.0342   -3.2816    0.5484 C   0  0  0  0  0  0  0  0  0  0  0  0
   -4.8842   -2.6126    0.6694 H   0  0  0  0  0  0  0  0  0  0  0  0
   -4.0433   -3.7186   -0.4486 H   0  0  0  0  0  0  0  0  0  0  0  0
   -2.7532   -2.5046    0.7444 C   0  0  0  0  0  0  0  0  0  0  0  0
   -1.9803   -2.8096    1.6434 O   0  0  0  0  0  0  0  0  0  0  0  0
   -2.5332   -1.4966   -0.0966 N   0  0  0  0  0  0  0  0  0  0  0  0
   -3.2312   -1.2816   -0.7936 H   0  0  0  0  0  0  0  0  0  0  0  0
   -1.3593   -0.6196   -0.0536 C   0  0  1  0  0  0  0  0  0  0  0  0
   -0.4622   -1.2317   -0.1545 H   0  0  0  0  0  0  0  0  0  0  0  0
   -1.4074    0.3593   -1.2373 C   0  0  0  0  0  0  0  0  0  0  0  0
   -1.9470   -0.1112   -2.0611 H   0  0  0  0  0  0  0  0  0  0  0  0
   -1.9720    1.2428   -0.9345 H   0  0  0  0  0  0  0  0  0  0  0  0
   -0.0714    0.8027   -1.7518 C   0  0  0  0  0  0  0  0  0  0  0  0
    0.1316    1.6565   -2.7801 C   0  0  0  0  0  0  0  0  0  0  0  0
   -0.6570    2.1099   -3.3707 H   0  0  0  0  0  0  0  0  0  0  0  0
    1.4858    1.8727   -2.9436 N   0  0  0  0  0  0  0  0  0  0  0  0
    1.8718    2.4740   -3.6567 H   0  0  0  0  0  0  0  0  0  0  0  0
    2.2269    1.1773   -2.0119 C   0  0  0  0  0  0  0  0  0  0  0  0
    3.6022    1.0922   -1.7515 C   0  0  0  0  0  0  0  0  0  0  0  0
    4.3085    1.6445   -2.3538 H   0  0  0  0  0  0  0  0  0  0  0  0
    4.0483    0.2770   -0.6974 C   0  0  0  0  0  0  0  0  0  0  0  0
    5.1055    0.1982   -0.4825 H   0  0  0  0  0  0  0  0  0  0  0  0
    3.1178   -0.4424    0.0746 C   0  0  0  0  0  0  0  0  0  0  0  0
    3.4660   -1.0750    0.8793 H   0  0  0  0  0  0  0  0  0  0  0  0
    1.7380   -0.3508   -0.1974 C   0  0  0  0  0  0  0  0  0  0  0  0
    1.0348   -0.9192    0.3948 H   0  0  0  0  0  0  0  0  0  0  0  0
    1.2574    0.4641   -1.2452 C   0  0  0  0  0  0  0  0  0  0  0  0
   -1.2663    0.1182    1.2910 C   0  0  0  0  0  0  0  0  0  0  0  0
   -0.1906    0.1931    1.8833 O   0  0  0  0  0  0  0  0  0  0  0  0
   -2.3930    0.6605    1.7722 N   0  0  0  0  0  0  0  0  0  0  0  0
   -3.2451    0.5077    1.2518 H   0  0  0  0  0  0  0  0  0  0  0  0
   -2.4787    1.3954    3.0311 C   0  0  0  0  0  0  0  0  0  0  0  0
   -1.7166    2.1767    3.0539 H   0  0  0  0  0  0  0  0  0  0  0  0
   -3.4649    1.8498    3.1344 H   0  0  0  0  0  0  0  0  0  0  0  0
   -2.3058    0.7133    3.8652 H   0  0  0  0  0  0  0  0  0  0  0  0
  5  6  2  0  0  0  0
  5  7  1  0  0  0  0
  2  3  1  0  0  0  0
  2  4  1  0  0  0  0
  2  5  1  0  0  0  0
  1  2  1  0  0  0  0
 29 30  2  0  0  0  0
 29 31  1  0  0  0  0
 26 27  1  0  0  0  0
 26 28  2  0  0  0  0
 24 25  1  0  0  0  0
 24 26  1  0  0  0  0
 22 23  1  0  0  0  0
 22 24  2  0  0  0  0
 20 21  1  0  0  0  0
 20 22  1  0  0  0  0
 19 20  2  0  0  0  0
 19 28  1  0  0  0  0
 17 18  1  0  0  0  0
 17 19  1  0  0  0  0
 15 16  1  0  0  0  0
 15 17  1  0  0  0  0
 14 15  2  0  0  0  0
 14 28  1  0  0  0  0
 11 12  1  0  0  0  0
 11 13  1  0  0  0  0
 11 14  1  0  0  0  0
  9 10  1  0  0  0  0
  9 11  1  0  0  0  0
  9 29  1  0  0  0  0
  7  8  1  0  0  0  0
  7  9  1  0  0  0  0
 33 34  1  0  0  0  0
 33 35  1  0  0  0  0
 33 36  1  0  0  0  0
 31 32  1  0  0  0  0
 31 33  1  0  0  0  0
M  END
$$$$
default_name
  -OEChem-02102213163D

 36 37  0     1  0  0  0  0  0999 V2000
   -4.0843   -4.0736    1.2944 H   0  0  0  0  0  0  0  0  0  0  0  0
   -4.0342   -3.2816    0.5484 C   0  0  0  0  0  0  0  0  0  0  0  0
   -4.8842   -2.6126    0.6694 H   0  0  0  0  0  0  0  0  0  0  0  0
   -4.0433   -3.7186   -0.4486 H   0  0  0  0  0  0  0  0  0  0  0  0
   -2.7532   -2.5046    0.7444 C   0  0  0  0  0  0  0  0  0  0  0  0
   -1.9803   -2.8096    1.6434 O   0  0  0  0  0  0  0  0  0  0  0  0
   -2.5332   -1.4966   -0.0966 N   0  0  0  0  0  0  0  0  0  0  0  0
   -3.2312   -1.2816   -0.7936 H   0  0  0  0  0  0  0  0  0  0  0  0
   -1.3593   -0.6196   -0.0536 C   0  0  1  0  0  0  0  0  0  0  0  0
   -0.4622   -1.2317   -0.1545 H   0  0  0  0  0  0  0  0  0  0  0  0
   -1.4074    0.3593   -1.2373 C   0  0  0  0  0  0  0  0  0  0  0  0
   -1.9470   -0.1112   -2.0611 H   0  0  0  0  0  0  0  0  0  0  0  0
   -1.9720    1.2428   -0.9345 H   0  0  0  0  0  0  0  0  0  0  0  0
   -0.0714    0.8027   -1.7518 C   0  0  0  0  0  0  0  0  0  0  0  0
    0.1456    1.8546   -2.5729 C   0  0  0  0  0  0  0  0  0  0  0  0
   -0.6321    2.4952   -2.9740 H   0  0  0  0  0  0  0  0  0  0  0  0
    1.5008    1.9941   -2.8001 N   0  0  0  0  0  0  0  0  0  0  0  0
    1.8957    2.7130   -3.3887 H   0  0  0  0  0  0  0  0  0  0  0  0
    2.2303    1.0431   -2.1189 C   0  0  0  0  0  0  0  0  0  0  0  0
    3.6048    0.7898   -2.0054 C   0  0  0  0  0  0  0  0  0  0  0  0
    4.3204    1.4095   -2.5255 H   0  0  0  0  0  0  0  0  0  0  0  0
    4.0378   -0.2826   -1.2070 C   0  0  0  0  0  0  0  0  0  0  0  0
    5.0941   -0.4937   -1.1084 H   0  0  0  0  0  0  0  0  0  0  0  0
    3.0945   -1.0861   -0.5408 C   0  0  0  0  0  0  0  0  0  0  0  0
    3.4316   -1.9152    0.0658 H   0  0  0  0  0  0  0  0  0  0  0  0
    1.7153   -0.8235   -0.6637 C   0  0  0  0  0  0  0  0  0  0  0  0
    1.0006   -1.4567   -0.1573 H   0  0  0  0  0  0  0  0  0  0  0  0
    1.2485    0.2499   -1.4530 C   0  0  0  0  0  0  0  0  0  0  0  0
   -1.2663    0.1182    1.2910 C   0  0  0  0  0  0  0  0  0  0  0  0
   -0.1906    0.1931    1.8833 O   0  0  0  0  0  0  0  0  0  0  0  0
   -2.3930    0.6605    1.7722 N   0  0  0  0  0  0  0  0  0  0  0  0
   -3.2451    0.5077    1.2518 H   0  0  0  0  0  0  0  0  0  0  0  0
   -2.4787    1.3954    3.0311 C   0  0  0  0  0  0  0  0  0  0  0  0
   -1.7166    2.1767    3.0539 H   0  0  0  0  0  0  0  0  0  0  0  0
   -3.4649    1.8498    3.1344 H   0  0  0  0  0  0  0  0  0  0  0  0
   -2.3058    0.7133    3.8652 H   0  0  0  0  0  0  0  0  0  0  0  0
  5  6  2  0  0  0  0
  5  7  1  0  0  0  0
  2  3  1  0  0  0  0
  2  4  1  0  0  0  0
  2  5  1  0  0  0  0
  1  2  1  0  0  0  0
 29 30  2  0  0  0  0
 29 31  1  0  0  0  0
 26 27  1  0  0  0  0
 26 28  2  0  0  0  0
 24 25  1  0  0  0  0
 24 26  1  0  0  0  0
 22 23  1  0  0  0  0
 22 24  2  0  0  0  0
 20 21  1  0  0  0  0
 20 22  1  0  0  0  0
 19 20  2  0  0  0  0
 19 28  1  0  0  0  0
 17 18  1  0  0  0  0
 17 19  1  0  0  0  0
 15 16  1  0  0  0  0
 15 17  1  0  0  0  0
 14 15  2  0  0  0  0
 14 28  1  0  0  0  0
 11 12  1  0  0  0  0
 11 13  1  0  0  0  0
 11 14  1  0  0  0  0
  9 10  1  0  0  0  0
  9 11  1  0  0  0  0
  9 29  1  0  0  0  0
  7  8  1  0  0  0  0
  7  9  1  0  0  0  0
 33 34  1  0  0  0  0
 33 35  1  0  0  0  0
 33 36  1  0  0  0  0
 31 32  1  0  0  0  0
 31 33  1  0  0  0  0
M  END
$$$$
default_name
  -OEChem-02102213163D

 36 37  0     1  0  0  0  0  0999 V2000
   -4.0843   -4.0736    1.2944 H   0  0  0  0  0  0  0  0  0  0  0  0
   -4.0342   -3.2816    0.5484 C   0  0  0  0  0  0  0  0  0  0  0  0
   -4.8842   -2.6126    0.6694 H   0  0  0  0  0  0  0  0  0  0  0  0
   -4.0433   -3.7186   -0.4486 H   0  0  0  0  0  0  0  0  0  0  0  0
   -2.7532   -2.5046    0.7444 C   0  0  0  0  0  0  0  0  0  0  0  0
   -1.9803   -2.8096    1.6434 O   0  0  0  0  0  0  0  0  0  0  0  0
   -2.5332   -1.4966   -0.0966 N   0  0  0  0  0  0  0  0  0  0  0  0
   -3.2312   -1.2816   -0.7936 H   0  0  0  0  0  0  0  0  0  0  0  0
   -1.3593   -0.6196   -0.0536 C   0  0  1  0  0  0  0  0  0  0  0  0
   -0.4622   -1.2317   -0.1545 H   0  0  0  0  0  0  0  0  0  0  0  0
   -1.4074    0.3593   -1.2373 C   0  0  0  0  0  0  0  0  0  0  0  0
   -1.9470   -0.1112   -2.0611 H   0  0  0  0  0  0  0  0  0  0  0  0
   -1.9720    1.2428   -0.9345 H   0  0  0  0  0  0  0  0  0  0  0  0
   -0.0714    0.8027   -1.7518 C   0  0  0  0  0  0  0  0  0  0  0  0
    0.1927    1.9968   -2.3280 C   0  0  0  0  0  0  0  0  0  0  0  0
   -0.5434    2.7735   -2.5039 H   0  0  0  0  0  0  0  0  0  0  0  0
    1.5370    2.0770   -2.6346 N   0  0  0  0  0  0  0  0  0  0  0  0
    1.9606    2.8798   -3.0766 H   0  0  0  0  0  0  0  0  0  0  0  0
    2.2134    0.9378   -2.2535 C   0  0  0  0  0  0  0  0  0  0  0  0
    3.5610    0.5560   -2.3205 C   0  0  0  0  0  0  0  0  0  0  0  0
    4.2979    1.2211   -2.7464 H   0  0  0  0  0  0  0  0  0  0  0  0
    3.9389   -0.7046   -1.8275 C   0  0  0  0  0  0  0  0  0  0  0  0
    4.9736   -1.0166   -1.8718 H   0  0  0  0  0  0  0  0  0  0  0  0
    2.9676   -1.5638   -1.2819 C   0  0  0  0  0  0  0  0  0  0  0  0
    3.2614   -2.5361   -0.9113 H   0  0  0  0  0  0  0  0  0  0  0  0
    1.6156   -1.1704   -1.2214 C   0  0  0  0  0  0  0  0  0  0  0  0
    0.8776   -1.8454   -0.8120 H   0  0  0  0  0  0  0  0  0  0  0  0
    1.2049    0.0917   -1.7025 C   0  0  0  0  0  0  0  0  0  0  0  0
   -1.2663    0.1182    1.2910 C   0  0  0  0  0  0  0  0  0  0  0  0
   -0.1906    0.1931    1.8833 O   0  0  0  0  0  0  0  0  0  0  0  0
   -2.3930    0.6605    1.7722 N   0  0  0  0  0  0  0  0  0  0  0  0
   -3.2451    0.5077    1.2518 H   0  0  0  0  0  0  0  0  0  0  0  0
   -2.4787    1.3954    3.0311 C   0  0  0  0  0  0  0  0  0  0  0  0
   -1.7166    2.1767    3.0539 H   0  0  0  0  0  0  0  0  0  0  0  0
   -3.4649    1.8498    3.1344 H   0  0  0  0  0  0  0  0  0  0  0  0
   -2.3058    0.7133    3.8652 H   0  0  0  0  0  0  0  0  0  0  0  0
  5  6  2  0  0  0  0
  5  7  1  0  0  0  0
  2  3  1  0  0  0  0
  2  4  1  0  0  0  0
  2  5  1  0  0  0  0
  1  2  1  0  0  0  0
 29 30  2  0  0  0  0
 29 31  1  0  0  0  0
 26 27  1  0  0  0  0
 26 28  2  0  0  0  0
 24 25  1  0  0  0  0
 24 26  1  0  0  0  0
 22 23  1  0  0  0  0
 22 24  2  0  0  0  0
 20 21  1  0  0  0  0
 20 22  1  0  0  0  0
 19 20  2  0  0  0  0
 19 28  1  0  0  0  0
 17 18  1  0  0  0  0
 17 19  1  0  0  0  0
 15 16  1  0  0  0  0
 15 17  1  0  0  0  0
 14 15  2  0  0  0  0
 14 28  1  0  0  0  0
 11 12  1  0  0  0  0
 11 13  1  0  0  0  0
 11 14  1  0  0  0  0
  9 10  1  0  0  0  0
  9 11  1  0  0  0  0
  9 29  1  0  0  0  0
  7  8  1  0  0  0  0
  7  9  1  0  0  0  0
 33 34  1  0  0  0  0
 33 35  1  0  0  0  0
 33 36  1  0  0  0  0
 31 32  1  0  0  0  0
 31 33  1  0  0  0  0
M  END
$$$$
default_name
  -OEChem-02102213163D

 36 37  0     1  0  0  0  0  0999 V2000
   -4.0843   -4.0736    1.2944 H   0  0  0  0  0  0  0  0  0  0  0  0
   -4.0342   -3.2816    0.5484 C   0  0  0  0  0  0  0  0  0  0  0  0
   -4.8842   -2.6126    0.6694 H   0  0  0  0  0  0  0  0  0  0  0  0
   -4.0433   -3.7186   -0.4486 H   0  0  0  0  0  0  0  0  0  0  0  0
   -2.7532   -2.5046    0.7444 C   0  0  0  0  0  0  0  0  0  0  0  0
   -1.9803   -2.8096    1.6434 O   0  0  0  0  0  0  0  0  0  0  0  0
   -2.5332   -1.4966   -0.0966 N   0  0  0  0  0  0  0  0  0  0  0  0
   -3.2312   -1.2816   -0.7936 H   0  0  0  0  0  0  0  0  0  0  0  0
   -1.3593   -0.6196   -0.0536 C   0  0  1  0  0  0  0  0  0  0  0  0
   -0.4622   -1.2317   -0.1545 H   0  0  0  0  0  0  0  0  0  0  0  0
   -1.4074    0.3593   -1.2373 C   0  0  0  0  0  0  0  0  0  0  0  0
   -1.9470   -0.1112   -2.0611 H   0  0  0  0  0  0  0  0  0  0  0  0
   -1.9720    1.2428   -0.9345 H   0  0  0  0  0  0  0  0  0  0  0  0
   -0.0714    0.8027   -1.7518 C   0  0  0  0  0  0  0  0  0  0  0  0
    0.2696    2.0735   -2.0623 C   0  0  0  0  0  0  0  0  0  0  0  0
   -0.3970    2.9261   -1.9924 H   0  0  0  0  0  0  0  0  0  0  0  0
    1.5920    2.1157   -2.4585 N   0  0  0  0  0  0  0  0  0  0  0  0
    2.0619    2.9632   -2.7415 H   0  0  0  0  0  0  0  0  0  0  0  0
    2.1774    0.8686   -2.4065 C   0  0  0  0  0  0  0  0  0  0  0  0
    3.4739    0.4068   -2.6755 C   0  0  0  0  0  0  0  0  0  0  0  0
    4.2424    1.0921   -3.0016 H   0  0  0  0  0  0  0  0  0  0  0  0
    3.7584   -0.9603   -2.5167 C   0  0  0  0  0  0  0  0  0  0  0  0
    4.7524   -1.3348   -2.7206 H   0  0  0  0  0  0  0  0  0  0  0  0
    2.7459   -1.8429   -2.0982 C   0  0  0  0  0  0  0  0  0  0  0  0
    2.9670   -2.8953   -1.9853 H   0  0  0  0  0  0  0  0  0  0  0  0
    1.4459   -1.3680   -1.8325 C   0  0  0  0  0  0  0  0  0  0  0  0
    0.6740   -2.0589   -1.5246 H   0  0  0  0  0  0  0  0  0  0  0  0
    1.1297    0.0003   -1.9766 C   0  0  0  0  0  0  0  0  0  0  0  0
   -1.2663    0.1182    1.2910 C   0  0  0  0  0  0  0  0  0  0  0  0
   -0.1906    0.1931    1.8833 O   0  0  0  0  0  0  0  0  0  0  0  0
   -2.3930    0.6605    1.7722 N   0  0  0  0  0  0  0  0  0  0  0  0
   -3.2451    0.5077    1.2518 H   0  0  0  0  0  0  0  0  0  0  0  0
   -2.4787    1.3954    3.0311 C   0  0  0  0  0  0  0  0  0  0  0  0
   -1.7166    2.1767    3.0539 H   0  0  0  0  0  0  0  0  0  0  0  0
   -3.4649    1.8498    3.1344 H   0  0  0  0  0  0  0  0  0  0  0  0
   -2.3058    0.7133    3.8652 H   0  0  0  0  0  0  0  0  0  0  0  0
  5  6  2  0  0  0  0
  5  7  1  0  0  0  0
  2  3  1  0  0  0  0
  2  4  1  0  0  0  0
  2  5  1  0  0  0  0
  1  2  1  0  0  0  0
 29 30  2  0  0  0  0
 29 31  1  0  0  0  0
 26 27  1  0  0  0  0
 26 28  2  0  0  0  0
 24 25  1  0  0  0  0
 24 26  1  0  0  0  0
 22 23  1  0  0  0  0
 22 24  2  0  0  0  0
 20 21  1  0  0  0  0
 20 22  1  0  0  0  0
 19 20  2  0  0  0  0
 19 28  1  0  0  0  0
 17 18  1  0  0  0  0
 17 19  1  0  0  0  0
 15 16  1  0  0  0  0
 15 17  1  0  0  0  0
 14 15  2  0  0  0  0
 14 28  1  0  0  0  0
 11 12  1  0  0  0  0
 11 13  1  0  0  0  0
 11 14  1  0  0  0  0
  9 10  1  0  0  0  0
  9 11  1  0  0  0  0
  9 29  1  0  0  0  0
  7  8  1  0  0  0  0
  7  9  1  0  0  0  0
 33 34  1  0  0  0  0
 33 35  1  0  0  0  0
 33 36  1  0  0  0  0
 31 32  1  0  0  0  0
 31 33  1  0  0  0  0
M  END
$$$$
default_name
  -OEChem-02102213163D

 36 37  0     1  0  0  0  0  0999 V2000
   -4.0843   -4.0736    1.2944 H   0  0  0  0  0  0  0  0  0  0  0  0
   -4.0342   -3.2816    0.5484 C   0  0  0  0  0  0  0  0  0  0  0  0
   -4.8842   -2.6126    0.6694 H   0  0  0  0  0  0  0  0  0  0  0  0
   -4.0433   -3.7186   -0.4486 H   0  0  0  0  0  0  0  0  0  0  0  0
   -2.7532   -2.5046    0.7444 C   0  0  0  0  0  0  0  0  0  0  0  0
   -1.9803   -2.8096    1.6434 O   0  0  0  0  0  0  0  0  0  0  0  0
   -2.5332   -1.4966   -0.0966 N   0  0  0  0  0  0  0  0  0  0  0  0
   -3.2312   -1.2816   -0.7936 H   0  0  0  0  0  0  0  0  0  0  0  0
   -1.3593   -0.6196   -0.0536 C   0  0  1  0  0  0  0  0  0  0  0  0
   -0.4622   -1.2317   -0.1545 H   0  0  0  0  0  0  0  0  0  0  0  0
   -1.4074    0.3593   -1.2373 C   0  0  0  0  0  0  0  0  0  0  0  0
   -1.9470   -0.1112   -2.0611 H   0  0  0  0  0  0  0  0  0  0  0  0
   -1.9720    1.2428   -0.9345 H   0  0  0  0  0  0  0  0  0  0  0  0
   -0.0714    0.8027   -1.7518 C   0  0  0  0  0  0  0  0  0  0  0  0
    0.3710    2.0795   -1.7939 C   0  0  0  0  0  0  0  0  0  0  0  0
   -0.2029    2.9424   -1.4743 H   0  0  0  0  0  0  0  0  0  0  0  0
    1.6621    2.1075   -2.2836 N   0  0  0  0  0  0  0  0  0  0  0  0
    2.1929    2.9574   -2.4064 H   0  0  0  0  0  0  0  0  0  0  0  0
    2.1248    0.8403   -2.5675 C   0  0  0  0  0  0  0  0  0  0  0  0
    3.3492    0.3523   -3.0462 C   0  0  0  0  0  0  0  0  0  0  0  0
    4.1579    1.0312   -3.2736 H   0  0  0  0  0  0  0  0  0  0  0  0
    3.5085   -1.0322   -3.2276 C   0  0  0  0  0  0  0  0  0  0  0  0
    4.4454   -1.4267   -3.5969 H   0  0  0  0  0  0  0  0  0  0  0  0
    2.4444   -1.9046   -2.9341 C   0  0  0  0  0  0  0  0  0  0  0  0
    2.5685   -2.9683   -3.0830 H   0  0  0  0  0  0  0  0  0  0  0  0
    1.2175   -1.4027   -2.4554 C   0  0  0  0  0  0  0  0  0  0  0  0
    0.4038   -2.0827   -2.2466 H   0  0  0  0  0  0  0  0  0  0  0  0
    1.0279   -0.0180   -2.2567 C   0  0  0  0  0  0  0  0  0  0  0  0
   -1.2663    0.1182    1.2910 C   0  0  0  0  0  0  0  0  0  0  0  0
   -0.1906    0.1931    1.8833 O   0  0  0  0  0  0  0  0  0  0  0  0
   -2.3930    0.6605    1.7722 N   0  0  0  0  0  0  0  0  0  0  0  0
   -3.2451    0.5077    1.2518 H   0  0  0  0  0  0  0  0  0  0  0  0
   -2.4787    1.3954    3.0311 C   0  0  0  0  0  0  0  0  0  0  0  0
   -1.7166    2.1767    3.0539 H   0  0  0  0  0  0  0  0  0  0  0  0
   -3.4649    1.8498    3.1344 H   0  0  0  0  0  0  0  0  0  0  0  0
   -2.3058    0.7133    3.8652 H   0  0  0  0  0  0  0  0  0  0  0  0
  5  6  2  0  0  0  0
  5  7  1  0  0  0  0
  2  3  1  0  0  0  0
  2  4  1  0  0  0  0
  2  5  1  0  0  0  0
  1  2  1  0  0  0  0
 29 30  2  0  0  0  0
 29 31  1  0  0  0  0
 26 27  1  0  0  0  0
 26 28  2  0  0  0  0
 24 25  1  0  0  0  0
 24 26  1  0  0  0  0
 22 23  1  0  0  0  0
 22 24  2  0  0  0  0
 20 21  1  0  0  0  0
 20 22  1  0  0  0  0
 19 20  2  0  0  0  0
 19 28  1  0  0  0  0
 17 18  1  0  0  0  0
 17 19  1  0  0  0  0
 15 16  1  0  0  0  0
 15 17  1  0  0  0  0
 14 15  2  0  0  0  0
 14 28  1  0  0  0  0
 11 12  1  0  0  0  0
 11 13  1  0  0  0  0
 11 14  1  0  0  0  0
  9 10  1  0  0  0  0
  9 11  1  0  0  0  0
  9 29  1  0  0  0  0
  7  8  1  0  0  0  0
  7  9  1  0  0  0  0
 33 34  1  0  0  0  0
 33 35  1  0  0  0  0
 33 36  1  0  0  0  0
 31 32  1  0  0  0  0
 31 33  1  0  0  0  0
M  END
$$$$
default_name
  -OEChem-02102213163D

 36 37  0     1  0  0  0  0  0999 V2000
   -4.0843   -4.0736    1.2944 H   0  0  0  0  0  0  0  0  0  0  0  0
   -4.0342   -3.2816    0.5484 C   0  0  0  0  0  0  0  0  0  0  0  0
   -4.8842   -2.6126    0.6694 H   0  0  0  0  0  0  0  0  0  0  0  0
   -4.0433   -3.7186   -0.4486 H   0  0  0  0  0  0  0  0  0  0  0  0
   -2.7532   -2.5046    0.7444 C   0  0  0  0  0  0  0  0  0  0  0  0
   -1.9803   -2.8096    1.6434 O   0  0  0  0  0  0  0  0  0  0  0  0
   -2.5332   -1.4966   -0.0966 N   0  0  0  0  0  0  0  0  0  0  0  0
   -3.2312   -1.2816   -0.7936 H   0  0  0  0  0  0  0  0  0  0  0  0
   -1.3593   -0.6196   -0.0536 C   0  0  1  0  0  0  0  0  0  0  0  0
   -0.4622   -1.2317   -0.1545 H   0  0  0  0  0  0  0  0  0  0  0  0
   -1.4074    0.3593   -1.2373 C   0  0  0  0  0  0  0  0  0  0  0  0
   -1.9470   -0.1112   -2.0611 H   0  0  0  0  0  0  0  0  0  0  0  0
   -1.9720    1.2428   -0.9345 H   0  0  0  0  0  0  0  0  0  0  0  0
   -0.0714    0.8027   -1.7518 C   0  0  0  0  0  0  0  0  0  0  0  0
    0.4900    2.0144   -1.5409 C   0  0  0  0  0  0  0  0  0  0  0  0
    0.0257    2.8214   -0.9849 H   0  0  0  0  0  0  0  0  0  0  0  0
    1.7424    2.0531   -2.1219 N   0  0  0  0  0  0  0  0  0  0  0  0
    2.3445    2.8629   -2.0940 H   0  0  0  0  0  0  0  0  0  0  0  0
    2.0592    0.8548   -2.7256 C   0  0  0  0  0  0  0  0  0  0  0  0
    3.1956    0.3962   -3.4073 C   0  0  0  0  0  0  0  0  0  0  0  0
    4.0500    1.0427   -3.5439 H   0  0  0  0  0  0  0  0  0  0  0  0
    3.2063   -0.9154   -3.9117 C   0  0  0  0  0  0  0  0  0  0  0  0
    4.0737   -1.2860   -4.4411 H   0  0  0  0  0  0  0  0  0  0  0  0
    2.0837   -1.7444   -3.7327 C   0  0  0  0  0  0  0  0  0  0  0  0
    2.0931   -2.7501   -4.1297 H   0  0  0  0  0  0  0  0  0  0  0  0
    0.9462   -1.2723   -3.0476 C   0  0  0  0  0  0  0  0  0  0  0  0
    0.0855   -1.9151   -2.9288 H   0  0  0  0  0  0  0  0  0  0  0  0
    0.9065    0.0380   -2.5237 C   0  0  0  0  0  0  0  0  0  0  0  0
   -1.2663    0.1182    1.2910 C   0  0  0  0  0  0  0  0  0  0  0  0
   -0.1906    0.1931    1.8833 O   0  0  0  0  0  0  0  0  0  0  0  0
   -2.3930    0.6605    1.7722 N   0  0  0  0  0  0  0  0  0  0  0  0
   -3.2451    0.5077    1.2518 H   0  0  0  0  0  0  0  0  0  0  0  0
   -2.4787    1.3954    3.0311 C   0  0  0  0  0  0  0  0  0  0  0  0
   -1.7166    2.1767    3.0539 H   0  0  0  0  0  0  0  0  0  0  0  0
   -3.4649    1.8498    3.1344 H   0  0  0  0  0  0  0  0  0  0  0  0
   -2.3058    0.7133    3.8652 H   0  0  0  0  0  0  0  0  0  0  0  0
  5  6  2  0  0  0  0
  5  7  1  0  0  0  0
  2  3  1  0  0  0  0
  2  4  1  0  0  0  0
  2  5  1  0  0  0  0
  1  2  1  0  0  0  0
 29 30  2  0  0  0  0
 29 31  1  0  0  0  0
 26 27  1  0  0  0  0
 26 28  2  0  0  0  0
 24 25  1  0  0  0  0
 24 26  1  0  0  0  0
 22 23  1  0  0  0  0
 22 24  2  0  0  0  0
 20 21  1  0  0  0  0
 20 22  1  0  0  0  0
 19 20  2  0  0  0  0
 19 28  1  0  0  0  0
 17 18  1  0  0  0  0
 17 19  1  0  0  0  0
 15 16  1  0  0  0  0
 15 17  1  0  0  0  0
 14 15  2  0  0  0  0
 14 28  1  0  0  0  0
 11 12  1  0  0  0  0
 11 13  1  0  0  0  0
 11 14  1  0  0  0  0
  9 10  1  0  0  0  0
  9 11  1  0  0  0  0
  9 29  1  0  0  0  0
  7  8  1  0  0  0  0
  7  9  1  0  0  0  0
 33 34  1  0  0  0  0
 33 35  1  0  0  0  0
 33 36  1  0  0  0  0
 31 32  1  0  0  0  0
 31 33  1  0  0  0  0
M  END
$$$$
default_name
  -OEChem-02102213163D

 36 37  0     1  0  0  0  0  0999 V2000
   -4.0843   -4.0736    1.2944 H   0  0  0  0  0  0  0  0  0  0  0  0
   -4.0342   -3.2816    0.5484 C   0  0  0  0  0  0  0  0  0  0  0  0
   -4.8842   -2.6126    0.6694 H   0  0  0  0  0  0  0  0  0  0  0  0
   -4.0433   -3.7186   -0.4486 H   0  0  0  0  0  0  0  0  0  0  0  0
   -2.7532   -2.5046    0.7444 C   0  0  0  0  0  0  0  0  0  0  0  0
   -1.9803   -2.8096    1.6434 O   0  0  0  0  0  0  0  0  0  0  0  0
   -2.5332   -1.4966   -0.0966 N   0  0  0  0  0  0  0  0  0  0  0  0
   -3.2312   -1.2816   -0.7936 H   0  0  0  0  0  0  0  0  0  0  0  0
   -1.3593   -0.6196   -0.0536 C   0  0  1  0  0  0  0  0  0  0  0  0
   -0.4622   -1.2317   -0.1545 H   0  0  0  0  0  0  0  0  0  0  0  0
   -1.4074    0.3593   -1.2373 C   0  0  0  0  0  0  0  0  0  0  0  0
   -1.9470   -0.1112   -2.0611 H   0  0  0  0  0  0  0  0  0  0  0  0
   -1.9720    1.2428   -0.9345 H   0  0  0  0  0  0  0  0  0  0  0  0
   -0.0714    0.8027   -1.7518 C   0  0  0  0  0  0  0  0  0  0  0  0
    0.6186    1.8825   -1.3208 C   0  0  0  0  0  0  0  0  0  0  0  0
    0.2732    2.5713   -0.5576 H   0  0  0  0  0  0  0  0  0  0  0  0
    1.8276    1.9560   -1.9844 N   0  0  0  0  0  0  0  0  0  0  0  0
    2.5066    2.6861   -1.8257 H   0  0  0  0  0  0  0  0  0  0  0  0
    1.9849    0.9110   -2.8698 C   0  0  0  0  0  0  0  0  0  0  0  0
    3.0234    0.5356   -3.7341 C   0  0  0  0  0  0  0  0  0  0  0  0
    3.9260    1.1258   -3.7940 H   0  0  0  0  0  0  0  0  0  0  0  0
    2.8724   -0.6180   -4.5224 C   0  0  0  0  0  0  0  0  0  0  0  0
    3.6624   -0.9224   -5.1955 H   0  0  0  0  0  0  0  0  0  0  0  0
    1.6884   -1.3734   -4.4395 C   0  0  0  0  0  0  0  0  0  0  0  0
    1.5730   -2.2557   -5.0539 H   0  0  0  0  0  0  0  0  0  0  0  0
    0.6503   -0.9856   -3.5688 C   0  0  0  0  0  0  0  0  0  0  0  0
   -0.2594   -1.5675   -3.5247 H   0  0  0  0  0  0  0  0  0  0  0  0
    0.7738    0.1644   -2.7594 C   0  0  0  0  0  0  0  0  0  0  0  0
   -1.2663    0.1182    1.2910 C   0  0  0  0  0  0  0  0  0  0  0  0
   -0.1906    0.1931    1.8833 O   0  0  0  0  0  0  0  0  0  0  0  0
   -2.3930    0.6605    1.7722 N   0  0  0  0  0  0  0  0  0  0  0  0
   -3.2451    0.5077    1.2518 H   0  0  0  0  0  0  0  0  0  0  0  0
   -2.4787    1.3954    3.0311 C   0  0  0  0  0  0  0  0  0  0  0  0
   -1.7166    2.1767    3.0539 H   0  0  0  0  0  0  0  0  0  0  0  0
   -3.4649    1.8498    3.1344 H   0  0  0  0  0  0  0  0  0  0  0  0
   -2.3058    0.7133    3.8652 H   0  0  0  0  0  0  0  0  0  0  0  0
  5  6  2  0  0  0  0
  5  7  1  0  0  0  0
  2  3  1  0  0  0  0
  2  4  1  0  0  0  0
  2  5  1  0  0  0  0
  1  2  1  0  0  0  0
 29 30  2  0  0  0  0
 29 31  1  0  0  0  0
 26 27  1  0  0  0  0
 26 28  2  0  0  0  0
 24 25  1  0  0  0  0
 24 26  1  0  0  0  0
 22 23  1  0  0  0  0
 22 24  2  0  0  0  0
 20 21  1  0  0  0  0
 20 22  1  0  0  0  0
 19 20  2  0  0  0  0
 19 28  1  0  0  0  0
 17 18  1  0  0  0  0
 17 19  1  0  0  0  0
 15 16  1  0  0  0  0
 15 17  1  0  0  0  0
 14 15  2  0  0  0  0
 14 28  1  0  0  0  0
 11 12  1  0  0  0  0
 11 13  1  0  0  0  0
 11 14  1  0  0  0  0
  9 10  1  0  0  0  0
  9 11  1  0  0  0  0
  9 29  1  0  0  0  0
  7  8  1  0  0  0  0
  7  9  1  0  0  0  0
 33 34  1  0  0  0  0
 33 35  1  0  0  0  0
 33 36  1  0  0  0  0
 31 32  1  0  0  0  0
 31 33  1  0  0  0  0
M  END
$$$$
default_name
  -OEChem-02102213163D

 36 37  0     1  0  0  0  0  0999 V2000
   -4.0843   -4.0736    1.2944 H   0  0  0  0  0  0  0  0  0  0  0  0
   -4.0342   -3.2816    0.5484 C   0  0  0  0  0  0  0  0  0  0  0  0
   -4.8842   -2.6126    0.6694 H   0  0  0  0  0  0  0  0  0  0  0  0
   -4.0433   -3.7186   -0.4486 H   0  0  0  0  0  0  0  0  0  0  0  0
   -2.7532   -2.5046    0.7444 C   0  0  0  0  0  0  0  0  0  0  0  0
   -1.9803   -2.8096    1.6434 O   0  0  0  0  0  0  0  0  0  0  0  0
   -2.5332   -1.4966   -0.0966 N   0  0  0  0  0  0  0  0  0  0  0  0
   -3.2312   -1.2816   -0.7936 H   0  0  0  0  0  0  0  0  0  0  0  0
   -1.3593   -0.6196   -0.0536 C   0  0  1  0  0  0  0  0  0  0  0  0
   -0.4622   -1.2317   -0.1545 H   0  0  0  0  0  0  0  0  0  0  0  0
   -1.4074    0.3593   -1.2373 C   0  0  0  0  0  0  0  0  0  0  0  0
   -1.9470   -0.1112   -2.0611 H   0  0  0  0  0  0  0  0  0  0  0  0
   -1.9720    1.2428   -0.9345 H   0  0  0  0  0  0  0  0  0  0  0  0
   -0.0714    0.8027   -1.7518 C   0  0  0  0  0  0  0  0  0  0  0  0
    0.7479    1.6929   -1.1484 C   0  0  0  0  0  0  0  0  0  0  0  0
    0.5228    2.2092   -0.2216 H   0  0  0  0  0  0  0  0  0  0  0  0
    1.9117    1.8230   -1.8805 N   0  0  0  0  0  0  0  0  0  0  0  0
    2.6679    2.4390   -1.6198 H   0  0  0  0  0  0  0  0  0  0  0  0
    1.9072    1.0053   -2.9905 C   0  0  0  0  0  0  0  0  0  0  0  0
    2.8445    0.7610   -4.0045 C   0  0  0  0  0  0  0  0  0  0  0  0
    3.7946    1.2748   -4.0070 H   0  0  0  0  0  0  0  0  0  0  0  0
    2.5295   -0.1601   -5.0181 C   0  0  0  0  0  0  0  0  0  0  0  0
    3.2397   -0.3605   -5.8089 H   0  0  0  0  0  0  0  0  0  0  0  0
    1.2854   -0.8169   -5.0064 C   0  0  0  0  0  0  0  0  0  0  0  0
    1.0439   -1.5186   -5.7928 H   0  0  0  0  0  0  0  0  0  0  0  0
    0.3501   -0.5622   -3.9834 C   0  0  0  0  0  0  0  0  0  0  0  0
   -0.6072   -1.0636   -3.9937 H   0  0  0  0  0  0  0  0  0  0  0  0
    0.6388    0.3527   -2.9477 C   0  0  0  0  0  0  0  0  0  0  0  0
   -1.2663    0.1182    1.2910 C   0  0  0  0  0  0  0  0  0  0  0  0
   -0.1906    0.1931    1.8833 O   0  0  0  0  0  0  0  0  0  0  0  0
   -2.3930    0.6605    1.7722 N   0  0  0  0  0  0  0  0  0  0  0  0
   -3.2451    0.5077    1.2518 H   0  0  0  0  0  0  0  0  0  0  0  0
   -2.4787    1.3954    3.0311 C   0  0  0  0  0  0  0  0  0  0  0  0
   -1.7166    2.1767    3.0539 H   0  0  0  0  0  0  0  0  0  0  0  0
   -3.4649    1.8498    3.1344 H   0  0  0  0  0  0  0  0  0  0  0  0
   -2.3058    0.7133    3.8652 H   0  0  0  0  0  0  0  0  0  0  0  0
  5  6  2  0  0  0  0
  5  7  1  0  0  0  0
  2  3  1  0  0  0  0
  2  4  1  0  0  0  0
  2  5  1  0  0  0  0
  1  2  1  0  0  0  0
 29 30  2  0  0  0  0
 29 31  1  0  0  0  0
 26 27  1  0  0  0  0
 26 28  2  0  0  0  0
 24 25  1  0  0  0  0
 24 26  1  0  0  0  0
 22 23  1  0  0  0  0
 22 24  2  0  0  0  0
 20 21  1  0  0  0  0
 20 22  1  0  0  0  0
 19 20  2  0  0  0  0
 19 28  1  0  0  0  0
 17 18  1  0  0  0  0
 17 19  1  0  0  0  0
 15 16  1  0  0  0  0
 15 17  1  0  0  0  0
 14 15  2  0  0  0  0
 14 28  1  0  0  0  0
 11 12  1  0  0  0  0
 11 13  1  0  0  0  0
 11 14  1  0  0  0  0
  9 10  1  0  0  0  0
  9 11  1  0  0  0  0
  9 29  1  0  0  0  0
  7  8  1  0  0  0  0
  7  9  1  0  0  0  0
 33 34  1  0  0  0  0
 33 35  1  0  0  0  0
 33 36  1  0  0  0  0
 31 32  1  0  0  0  0
 31 33  1  0  0  0  0
M  END
$$$$
default_name
  -OEChem-02102213163D

 36 37  0     1  0  0  0  0  0999 V2000
   -4.0843   -4.0736    1.2944 H   0  0  0  0  0  0  0  0  0  0  0  0
   -4.0342   -3.2816    0.5484 C   0  0  0  0  0  0  0  0  0  0  0  0
   -4.8842   -2.6126    0.6694 H   0  0  0  0  0  0  0  0  0  0  0  0
   -4.0433   -3.7186   -0.4486 H   0  0  0  0  0  0  0  0  0  0  0  0
   -2.7532   -2.5046    0.7444 C   0  0  0  0  0  0  0  0  0  0  0  0
   -1.9803   -2.8096    1.6434 O   0  0  0  0  0  0  0  0  0  0  0  0
   -2.5332   -1.4966   -0.0966 N   0  0  0  0  0  0  0  0  0  0  0  0
   -3.2312   -1.2816   -0.7936 H   0  0  0  0  0  0  0  0  0  0  0  0
   -1.3593   -0.6196   -0.0536 C   0  0  1  0  0  0  0  0  0  0  0  0
   -0.4622   -1.2317   -0.1545 H   0  0  0  0  0  0  0  0  0  0  0  0
   -1.4074    0.3593   -1.2373 C   0  0  0  0  0  0  0  0  0  0  0  0
   -1.9470   -0.1112   -2.0611 H   0  0  0  0  0  0  0  0  0  0  0  0
   -1.9720    1.2428   -0.9345 H   0  0  0  0  0  0  0  0  0  0  0  0
   -0.0714    0.8027   -1.7518 C   0  0  0  0  0  0  0  0  0  0  0  0
    0.8691    1.4585   -1.0355 C   0  0  0  0  0  0  0  0  0  0  0  0
    0.7575    1.7597    0.0003 H   0  0  0  0  0  0  0  0  0  0  0  0
    1.9891    1.6630   -1.8173 N   0  0  0  0  0  0  0  0  0  0  0  0
    2.8175    2.1384   -1.4903 H   0  0  0  0  0  0  0  0  0  0  0  0
    1.8312    1.1310   -3.0794 C   0  0  0  0  0  0  0  0  0  0  0  0
    2.6710    1.0570   -4.1999 C   0  0  0  0  0  0  0  0  0  0  0  0
    3.6645    1.4795   -4.1683 H   0  0  0  0  0  0  0  0  0  0  0  0
    2.2011    0.4270   -5.3650 C   0  0  0  0  0  0  0  0  0  0  0  0
    2.8344    0.3614   -6.2394 H   0  0  0  0  0  0  0  0  0  0  0  0
    0.9022   -0.1128   -5.3947 C   0  0  0  0  0  0  0  0  0  0  0  0
    0.5417   -0.5892   -6.2959 H   0  0  0  0  0  0  0  0  0  0  0  0
    0.0660   -0.0308   -4.2631 C   0  0  0  0  0  0  0  0  0  0  0  0
   -0.9343   -0.4378   -4.3038 H   0  0  0  0  0  0  0  0  0  0  0  0
    0.5107    0.5900   -3.0758 C   0  0  0  0  0  0  0  0  0  0  0  0
   -1.2663    0.1182    1.2910 C   0  0  0  0  0  0  0  0  0  0  0  0
   -0.1906    0.1931    1.8833 O   0  0  0  0  0  0  0  0  0  0  0  0
   -2.3930    0.6605    1.7722 N   0  0  0  0  0  0  0  0  0  0  0  0
   -3.2451    0.5077    1.2518 H   0  0  0  0  0  0  0  0  0  0  0  0
   -2.4787    1.3954    3.0311 C   0  0  0  0  0  0  0  0  0  0  0  0
   -1.7166    2.1767    3.0539 H   0  0  0  0  0  0  0  0  0  0  0  0
   -3.4649    1.8498    3.1344 H   0  0  0  0  0  0  0  0  0  0  0  0
   -2.3058    0.7133    3.8652 H   0  0  0  0  0  0  0  0  0  0  0  0
  5  6  2  0  0  0  0
  5  7  1  0  0  0  0
  2  3  1  0  0  0  0
  2  4  1  0  0  0  0
  2  5  1  0  0  0  0
  1  2  1  0  0  0  0
 29 30  2  0  0  0  0
 29 31  1  0  0  0  0
 26 27  1  0  0  0  0
 26 28  2  0  0  0  0
 24 25  1  0  0  0  0
 24 26  1  0  0  0  0
 22 23  1  0  0  0  0
 22 24  2  0  0  0  0
 20 21  1  0  0  0  0
 20 22  1  0  0  0  0
 19 20  2  0  0  0  0
 19 28  1  0  0  0  0
 17 18  1  0  0  0  0
 17 19  1  0  0  0  0
 15 16  1  0  0  0  0
 15 17  1  0  0  0  0
 14 15  2  0  0  0  0
 14 28  1  0  0  0  0
 11 12  1  0  0  0  0
 11 13  1  0  0  0  0
 11 14  1  0  0  0  0
  9 10  1  0  0  0  0
  9 11  1  0  0  0  0
  9 29  1  0  0  0  0
  7  8  1  0  0  0  0
  7  9  1  0  0  0  0
 33 34  1  0  0  0  0
 33 35  1  0  0  0  0
 33 36  1  0  0  0  0
 31 32  1  0  0  0  0
 31 33  1  0  0  0  0
M  END
$$$$
default_name
  -OEChem-02102213163D

 36 37  0     1  0  0  0  0  0999 V2000
   -4.0843   -4.0736    1.2944 H   0  0  0  0  0  0  0  0  0  0  0  0
   -4.0342   -3.2816    0.5484 C   0  0  0  0  0  0  0  0  0  0  0  0
   -4.8842   -2.6126    0.6694 H   0  0  0  0  0  0  0  0  0  0  0  0
   -4.0433   -3.7186   -0.4486 H   0  0  0  0  0  0  0  0  0  0  0  0
   -2.7532   -2.5046    0.7444 C   0  0  0  0  0  0  0  0  0  0  0  0
   -1.9803   -2.8096    1.6434 O   0  0  0  0  0  0  0  0  0  0  0  0
   -2.5332   -1.4966   -0.0966 N   0  0  0  0  0  0  0  0  0  0  0  0
   -3.2312   -1.2816   -0.7936 H   0  0  0  0  0  0  0  0  0  0  0  0
   -1.3593   -0.6196   -0.0536 C   0  0  1  0  0  0  0  0  0  0  0  0
   -0.4622   -1.2317   -0.1545 H   0  0  0  0  0  0  0  0  0  0  0  0
   -1.4074    0.3593   -1.2373 C   0  0  0  0  0  0  0  0  0  0  0  0
   -1.9470   -0.1112   -2.0611 H   0  0  0  0  0  0  0  0  0  0  0  0
   -1.9720    1.2428   -0.9345 H   0  0  0  0  0  0  0  0  0  0  0  0
   -0.0714    0.8027   -1.7518 C   0  0  0  0  0  0  0  0  0  0  0  0
    0.9741    1.1953   -0.9899 C   0  0  0  0  0  0  0  0  0  0  0  0
    0.9612    1.2534    0.0930 H   0  0  0  0  0  0  0  0  0  0  0  0
    2.0545    1.4871   -1.7991 N   0  0  0  0  0  0  0  0  0  0  0  0
    2.9453    1.8049   -1.4459 H   0  0  0  0  0  0  0  0  0  0  0  0
    1.7622    1.2798   -3.1304 C   0  0  0  0  0  0  0  0  0  0  0  0
    2.5147    1.4034   -4.3072 C   0  0  0  0  0  0  0  0  0  0  0  0
    3.5448    1.7260   -4.2669 H   0  0  0  0  0  0  0  0  0  0  0  0
    1.9094    1.1033   -5.5395 C   0  0  0  0  0  0  0  0  0  0  0  0
    2.4740    1.1939   -6.4576 H   0  0  0  0  0  0  0  0  0  0  0  0
    0.5648    0.6910   -5.5779 C   0  0  0  0  0  0  0  0  0  0  0  0
    0.1006    0.4692   -6.5289 H   0  0  0  0  0  0  0  0  0  0  0  0
   -0.1826    0.5722   -4.3890 C   0  0  0  0  0  0  0  0  0  0  0  0
   -1.2185    0.2673   -4.4339 H   0  0  0  0  0  0  0  0  0  0  0  0
    0.3982    0.8602   -3.1350 C   0  0  0  0  0  0  0  0  0  0  0  0
   -1.2663    0.1182    1.2910 C   0  0  0  0  0  0  0  0  0  0  0  0
   -0.1906    0.1931    1.8833 O   0  0  0  0  0  0  0  0  0  0  0  0
   -2.3930    0.6605    1.7722 N   0  0  0  0  0  0  0  0  0  0  0  0
   -3.2451    0.5077    1.2518 H   0  0  0  0  0  0  0  0  0  0  0  0
   -2.4787    1.3954    3.0311 C   0  0  0  0  0  0  0  0  0  0  0  0
   -1.7166    2.1767    3.0539 H   0  0  0  0  0  0  0  0  0  0  0  0
   -3.4649    1.8498    3.1344 H   0  0  0  0  0  0  0  0  0  0  0  0
   -2.3058    0.7133    3.8652 H   0  0  0  0  0  0  0  0  0  0  0  0
  5  6  2  0  0  0  0
  5  7  1  0  0  0  0
  2  3  1  0  0  0  0
  2  4  1  0  0  0  0
  2  5  1  0  0  0  0
  1  2  1  0  0  0  0
 29 30  2  0  0  0  0
 29 31  1  0  0  0  0
 26 27  1  0  0  0  0
 26 28  2  0  0  0  0
 24 25  1  0  0  0  0
 24 26  1  0  0  0  0
 22 23  1  0  0  0  0
 22 24  2  0  0  0  0
 20 21  1  0  0  0  0
 20 22  1  0  0  0  0
 19 20  2  0  0  0  0
 19 28  1  0  0  0  0
 17 18  1  0  0  0  0
 17 19  1  0  0  0  0
 15 16  1  0  0  0  0
 15 17  1  0  0  0  0
 14 15  2  0  0  0  0
 14 28  1  0  0  0  0
 11 12  1  0  0  0  0
 11 13  1  0  0  0  0
 11 14  1  0  0  0  0
  9 10  1  0  0  0  0
  9 11  1  0  0  0  0
  9 29  1  0  0  0  0
  7  8  1  0  0  0  0
  7  9  1  0  0  0  0
 33 34  1  0  0  0  0
 33 35  1  0  0  0  0
 33 36  1  0  0  0  0
 31 32  1  0  0  0  0
 31 33  1  0  0  0  0
M  END
$$$$
default_name
  -OEChem-02102213163D

 36 37  0     1  0  0  0  0  0999 V2000
   -4.0843   -4.0736    1.2944 H   0  0  0  0  0  0  0  0  0  0  0  0
   -4.0342   -3.2816    0.5484 C   0  0  0  0  0  0  0  0  0  0  0  0
   -4.8842   -2.6126    0.6694 H   0  0  0  0  0  0  0  0  0  0  0  0
   -4.0433   -3.7186   -0.4486 H   0  0  0  0  0  0  0  0  0  0  0  0
   -2.7532   -2.5046    0.7444 C   0  0  0  0  0  0  0  0  0  0  0  0
   -1.9803   -2.8096    1.6434 O   0  0  0  0  0  0  0  0  0  0  0  0
   -2.5332   -1.4966   -0.0966 N   0  0  0  0  0  0  0  0  0  0  0  0
   -3.2312   -1.2816   -0.7936 H   0  0  0  0  0  0  0  0  0  0  0  0
   -1.3593   -0.6196   -0.0536 C   0  0  1  0  0  0  0  0  0  0  0  0
   -0.4622   -1.2317   -0.1545 H   0  0  0  0  0  0  0  0  0  0  0  0
   -1.4074    0.3593   -1.2373 C   0  0  0  0  0  0  0  0  0  0  0  0
   -1.9470   -0.1112   -2.0611 H   0  0  0  0  0  0  0  0  0  0  0  0
   -1.9720    1.2428   -0.9345 H   0  0  0  0  0  0  0  0  0  0  0  0
   -0.0714    0.8027   -1.7518 C   0  0  0  0  0  0  0  0  0  0  0  0
    1.0556    0.9211   -1.0145 C   0  0  0  0  0  0  0  0  0  0  0  0
    1.1201    0.7249    0.0501 H   0  0  0  0  0  0  0  0  0  0  0  0
    2.1035    1.3071   -1.8272 N   0  0  0  0  0  0  0  0  0  0  0  0
    3.0424    1.4612   -1.4898 H   0  0  0  0  0  0  0  0  0  0  0  0
    1.7048    1.4414   -3.1401 C   0  0  0  0  0  0  0  0  0  0  0  0
    2.3864    1.7766   -4.3189 C   0  0  0  0  0  0  0  0  0  0  0  0
    3.4434    1.9975   -4.2961 H   0  0  0  0  0  0  0  0  0  0  0  0
    1.6744    1.8228   -5.5296 C   0  0  0  0  0  0  0  0  0  0  0  0
    2.1832    2.0805   -6.4487 H   0  0  0  0  0  0  0  0  0  0  0  0
    0.2963    1.5397   -5.5437 C   0  0  0  0  0  0  0  0  0  0  0  0
   -0.2492    1.5846   -6.4761 H   0  0  0  0  0  0  0  0  0  0  0  0
   -0.3788    1.2059   -4.3525 C   0  0  0  0  0  0  0  0  0  0  0  0
   -1.4403    1.0037   -4.3752 H   0  0  0  0  0  0  0  0  0  0  0  0
    0.3091    1.1448   -3.1212 C   0  0  0  0  0  0  0  0  0  0  0  0
   -1.2663    0.1182    1.2910 C   0  0  0  0  0  0  0  0  0  0  0  0
   -0.1906    0.1931    1.8833 O   0  0  0  0  0  0  0  0  0  0  0  0
   -2.3930    0.6605    1.7722 N   0  0  0  0  0  0  0  0  0  0  0  0
   -3.2451    0.5077    1.2518 H   0  0  0  0  0  0  0  0  0  0  0  0
   -2.4787    1.3954    3.0311 C   0  0  0  0  0  0  0  0  0  0  0  0
   -1.7166    2.1767    3.0539 H   0  0  0  0  0  0  0  0  0  0  0  0
   -3.4649    1.8498    3.1344 H   0  0  0  0  0  0  0  0  0  0  0  0
   -2.3058    0.7133    3.8652 H   0  0  0  0  0  0  0  0  0  0  0  0
  5  6  2  0  0  0  0
  5  7  1  0  0  0  0
  2  3  1  0  0  0  0
  2  4  1  0  0  0  0
  2  5  1  0  0  0  0
  1  2  1  0  0  0  0
 29 30  2  0  0  0  0
 29 31  1  0  0  0  0
 26 27  1  0  0  0  0
 26 28  2  0  0  0  0
 24 25  1  0  0  0  0
 24 26  1  0  0  0  0
 22 23  1  0  0  0  0
 22 24  2  0  0  0  0
 20 21  1  0  0  0  0
 20 22  1  0  0  0  0
 19 20  2  0  0  0  0
 19 28  1  0  0  0  0
 17 18  1  0  0  0  0
 17 19  1  0  0  0  0
 15 16  1  0  0  0  0
 15 17  1  0  0  0  0
 14 15  2  0  0  0  0
 14 28  1  0  0  0  0
 11 12  1  0  0  0  0
 11 13  1  0  0  0  0
 11 14  1  0  0  0  0
  9 10  1  0  0  0  0
  9 11  1  0  0  0  0
  9 29  1  0  0  0  0
  7  8  1  0  0  0  0
  7  9  1  0  0  0  0
 33 34  1  0  0  0  0
 33 35  1  0  0  0  0
 33 36  1  0  0  0  0
 31 32  1  0  0  0  0
 31 33  1  0  0  0  0
M  END
$$$$
default_name
  -OEChem-02102213163D

 36 37  0     1  0  0  0  0  0999 V2000
   -4.0843   -4.0736    1.2944 H   0  0  0  0  0  0  0  0  0  0  0  0
   -4.0342   -3.2816    0.5484 C   0  0  0  0  0  0  0  0  0  0  0  0
   -4.8842   -2.6126    0.6694 H   0  0  0  0  0  0  0  0  0  0  0  0
   -4.0433   -3.7186   -0.4486 H   0  0  0  0  0  0  0  0  0  0  0  0
   -2.7532   -2.5046    0.7444 C   0  0  0  0  0  0  0  0  0  0  0  0
   -1.9803   -2.8096    1.6434 O   0  0  0  0  0  0  0  0  0  0  0  0
   -2.5332   -1.4966   -0.0966 N   0  0  0  0  0  0  0  0  0  0  0  0
   -3.2312   -1.2816   -0.7936 H   0  0  0  0  0  0  0  0  0  0  0  0
   -1.3593   -0.6196   -0.0536 C   0  0  1  0  0  0  0  0  0  0  0  0
   -0.4622   -1.2317   -0.1545 H   0  0  0  0  0  0  0  0  0  0  0  0
   -1.4074    0.3593   -1.2373 C   0  0  0  0  0  0  0  0  0  0  0  0
   -1.9470   -0.1112   -2.0611 H   0  0  0  0  0  0  0  0  0  0  0  0
   -1.9720    1.2428   -0.9345 H   0  0  0  0  0  0  0  0  0  0  0  0
   -0.0714    0.8027   -1.7518 C   0  0  0  0  0  0  0  0  0  0  0  0
    1.1080    0.6548   -1.1078 C   0  0  0  0  0  0  0  0  0  0  0  0
    1.2233    0.2102   -0.1254 H   0  0  0  0  0  0  0  0  0  0  0  0
    2.1326    1.1354   -1.8995 N   0  0  0  0  0  0  0  0  0  0  0  0
    3.1024    1.1307   -1.6190 H   0  0  0  0  0  0  0  0  0  0  0  0
    1.6630    1.6048   -3.1078 C   0  0  0  0  0  0  0  0  0  0  0  0
    2.2946    2.1512   -4.2342 C   0  0  0  0  0  0  0  0  0  0  0  0
    3.3674    2.2754   -4.2539 H   0  0  0  0  0  0  0  0  0  0  0  0
    1.5121    2.5363   -5.3362 C   0  0  0  0  0  0  0  0  0  0  0  0
    1.9817    2.9606   -6.2133 H   0  0  0  0  0  0  0  0  0  0  0  0
    0.1150    2.3754   -5.2942 C   0  0  0  0  0  0  0  0  0  0  0  0
   -0.4840    2.6808   -6.1409 H   0  0  0  0  0  0  0  0  0  0  0  0
   -0.5093    1.8269   -4.1559 C   0  0  0  0  0  0  0  0  0  0  0  0
   -1.5846    1.7211   -4.1316 H   0  0  0  0  0  0  0  0  0  0  0  0
    0.2493    1.4245   -3.0354 C   0  0  0  0  0  0  0  0  0  0  0  0
   -1.2663    0.1182    1.2910 C   0  0  0  0  0  0  0  0  0  0  0  0
   -0.1906    0.1931    1.8833 O   0  0  0  0  0  0  0  0  0  0  0  0
   -2.3930    0.6605    1.7722 N   0  0  0  0  0  0  0  0  0  0  0  0
   -3.2451    0.5077    1.2518 H   0  0  0  0  0  0  0  0  0  0  0  0
   -2.4787    1.3954    3.0311 C   0  0  0  0  0  0  0  0  0  0  0  0
   -1.7166    2.1767    3.0539 H   0  0  0  0  0  0  0  0  0  0  0  0
   -3.4649    1.8498    3.1344 H   0  0  0  0  0  0  0  0  0  0  0  0
   -2.3058    0.7133    3.8652 H   0  0  0  0  0  0  0  0  0  0  0  0
  5  6  2  0  0  0  0
  5  7  1  0  0  0  0
  2  3  1  0  0  0  0
  2  4  1  0  0  0  0
  2  5  1  0  0  0  0
  1  2  1  0  0  0  0
 29 30  2  0  0  0  0
 29 31  1  0  0  0  0
 26 27  1  0  0  0  0
 26 28  2  0  0  0  0
 24 25  1  0  0  0  0
 24 26  1  0  0  0  0
 22 23  1  0  0  0  0
 22 24  2  0  0  0  0
 20 21  1  0  0  0  0
 20 22  1  0  0  0  0
 19 20  2  0  0  0  0
 19 28  1  0  0  0  0
 17 18  1  0  0  0  0
 17 19  1  0  0  0  0
 15 16  1  0  0  0  0
 15 17  1  0  0  0  0
 14 15  2  0  0  0  0
 14 28  1  0  0  0  0
 11 12  1  0  0  0  0
 11 13  1  0  0  0  0
 11 14  1  0  0  0  0
  9 10  1  0  0  0  0
  9 11  1  0  0  0  0
  9 29  1  0  0  0  0
  7  8  1  0  0  0  0
  7  9  1  0  0  0  0
 33 34  1  0  0  0  0
 33 35  1  0  0  0  0
 33 36  1  0  0  0  0
 31 32  1  0  0  0  0
 31 33  1  0  0  0  0
M  END
$$$$
default_name
  -OEChem-02102213163D

 36 37  0     1  0  0  0  0  0999 V2000
   -4.0843   -4.0736    1.2944 H   0  0  0  0  0  0  0  0  0  0  0  0
   -4.0342   -3.2816    0.5484 C   0  0  0  0  0  0  0  0  0  0  0  0
   -4.8842   -2.6126    0.6694 H   0  0  0  0  0  0  0  0  0  0  0  0
   -4.0433   -3.7186   -0.4486 H   0  0  0  0  0  0  0  0  0  0  0  0
   -2.7532   -2.5046    0.7444 C   0  0  0  0  0  0  0  0  0  0  0  0
   -1.9803   -2.8096    1.6434 O   0  0  0  0  0  0  0  0  0  0  0  0
   -2.5332   -1.4966   -0.0966 N   0  0  0  0  0  0  0  0  0  0  0  0
   -3.2312   -1.2816   -0.7936 H   0  0  0  0  0  0  0  0  0  0  0  0
   -1.3593   -0.6196   -0.0536 C   0  0  1  0  0  0  0  0  0  0  0  0
   -0.4622   -1.2317   -0.1545 H   0  0  0  0  0  0  0  0  0  0  0  0
   -1.4074    0.3593   -1.2373 C   0  0  0  0  0  0  0  0  0  0  0  0
   -1.9470   -0.1112   -2.0611 H   0  0  0  0  0  0  0  0  0  0  0  0
   -1.9720    1.2428   -0.9345 H   0  0  0  0  0  0  0  0  0  0  0  0
   -0.0714    0.8027   -1.7518 C   0  0  0  0  0  0  0  0  0  0  0  0
    1.1279    0.4144   -1.2634 C   0  0  0  0  0  0  0  0  0  0  0  0
    1.2639   -0.2556   -0.4216 H   0  0  0  0  0  0  0  0  0  0  0  0
    2.1400    0.9836   -2.0112 N   0  0  0  0  0  0  0  0  0  0  0  0
    3.1211    0.8360   -1.8245 H   0  0  0  0  0  0  0  0  0  0  0  0
    1.6397    1.7589   -3.0356 C   0  0  0  0  0  0  0  0  0  0  0  0
    2.2458    2.5016   -4.0590 C   0  0  0  0  0  0  0  0  0  0  0  0
    3.3219    2.5410   -4.1432 H   0  0  0  0  0  0  0  0  0  0  0  0
    1.4335    3.1954   -4.9722 C   0  0  0  0  0  0  0  0  0  0  0  0
    1.8833    3.7743   -5.7674 H   0  0  0  0  0  0  0  0  0  0  0  0
    0.0333    3.1412   -4.8466 C   0  0  0  0  0  0  0  0  0  0  0  0
   -0.5877    3.6832   -5.5463 H   0  0  0  0  0  0  0  0  0  0  0  0
   -0.5650    2.3930   -3.8128 C   0  0  0  0  0  0  0  0  0  0  0  0
   -1.6415    2.3707   -3.7197 H   0  0  0  0  0  0  0  0  0  0  0  0
    0.2229    1.6802   -2.8834 C   0  0  0  0  0  0  0  0  0  0  0  0
   -1.2663    0.1182    1.2910 C   0  0  0  0  0  0  0  0  0  0  0  0
   -0.1906    0.1931    1.8833 O   0  0  0  0  0  0  0  0  0  0  0  0
   -2.3930    0.6605    1.7722 N   0  0  0  0  0  0  0  0  0  0  0  0
   -3.2451    0.5077    1.2518 H   0  0  0  0  0  0  0  0  0  0  0  0
   -2.4787    1.3954    3.0311 C   0  0  0  0  0  0  0  0  0  0  0  0
   -1.7166    2.1767    3.0539 H   0  0  0  0  0  0  0  0  0  0  0  0
   -3.4649    1.8498    3.1344 H   0  0  0  0  0  0  0  0  0  0  0  0
   -2.3058    0.7133    3.8652 H   0  0  0  0  0  0  0  0  0  0  0  0
  5  6  2  0  0  0  0
  5  7  1  0  0  0  0
  2  3  1  0  0  0  0
  2  4  1  0  0  0  0
  2  5  1  0  0  0  0
  1  2  1  0  0  0  0
 29 30  2  0  0  0  0
 29 31  1  0  0  0  0
 26 27  1  0  0  0  0
 26 28  2  0  0  0  0
 24 25  1  0  0  0  0
 24 26  1  0  0  0  0
 22 23  1  0  0  0  0
 22 24  2  0  0  0  0
 20 21  1  0  0  0  0
 20 22  1  0  0  0  0
 19 20  2  0  0  0  0
 19 28  1  0  0  0  0
 17 18  1  0  0  0  0
 17 19  1  0  0  0  0
 15 16  1  0  0  0  0
 15 17  1  0  0  0  0
 14 15  2  0  0  0  0
 14 28  1  0  0  0  0
 11 12  1  0  0  0  0
 11 13  1  0  0  0  0
 11 14  1  0  0  0  0
  9 10  1  0  0  0  0
  9 11  1  0  0  0  0
  9 29  1  0  0  0  0
  7  8  1  0  0  0  0
  7  9  1  0  0  0  0
 33 34  1  0  0  0  0
 33 35  1  0  0  0  0
 33 36  1  0  0  0  0
 31 32  1  0  0  0  0
 31 33  1  0  0  0  0
M  END
$$$$
default_name
  -OEChem-02102213163D

 36 37  0     1  0  0  0  0  0999 V2000
   -4.0843   -4.0736    1.2944 H   0  0  0  0  0  0  0  0  0  0  0  0
   -4.0342   -3.2816    0.5484 C   0  0  0  0  0  0  0  0  0  0  0  0
   -4.8842   -2.6126    0.6694 H   0  0  0  0  0  0  0  0  0  0  0  0
   -4.0433   -3.7186   -0.4486 H   0  0  0  0  0  0  0  0  0  0  0  0
   -2.7532   -2.5046    0.7444 C   0  0  0  0  0  0  0  0  0  0  0  0
   -1.9803   -2.8096    1.6434 O   0  0  0  0  0  0  0  0  0  0  0  0
   -2.5332   -1.4966   -0.0966 N   0  0  0  0  0  0  0  0  0  0  0  0
   -3.2312   -1.2816   -0.7936 H   0  0  0  0  0  0  0  0  0  0  0  0
   -1.3593   -0.6196   -0.0536 C   0  0  1  0  0  0  0  0  0  0  0  0
   -0.4622   -1.2317   -0.1545 H   0  0  0  0  0  0  0  0  0  0  0  0
   -1.4074    0.3593   -1.2373 C   0  0  0  0  0  0  0  0  0  0  0  0
   -1.9470   -0.1112   -2.0611 H   0  0  0  0  0  0  0  0  0  0  0  0
   -1.9720    1.2428   -0.9345 H   0  0  0  0  0  0  0  0  0  0  0  0
   -0.0714    0.8027   -1.7518 C   0  0  0  0  0  0  0  0  0  0  0  0
    1.1138    0.2163   -1.4707 C   0  0  0  0  0  0  0  0  0  0  0  0
    1.2390   -0.6408   -0.8182 H   0  0  0  0  0  0  0  0  0  0  0  0
    2.1250    0.8622   -2.1547 N   0  0  0  0  0  0  0  0  0  0  0  0
    3.0972    0.5970   -2.0925 H   0  0  0  0  0  0  0  0  0  0  0  0
    1.6363    1.8931   -2.9286 C   0  0  0  0  0  0  0  0  0  0  0  0
    2.2432    2.8041   -3.8052 C   0  0  0  0  0  0  0  0  0  0  0  0
    3.3100    2.7759   -3.9715 H   0  0  0  0  0  0  0  0  0  0  0  0
    1.4440    3.7549   -4.4626 C   0  0  0  0  0  0  0  0  0  0  0  0
    1.8947    4.4662   -5.1415 H   0  0  0  0  0  0  0  0  0  0  0  0
    0.0566    3.7848   -4.2312 C   0  0  0  0  0  0  0  0  0  0  0  0
   -0.5533    4.5235   -4.7327 H   0  0  0  0  0  0  0  0  0  0  0  0
   -0.5423    2.8657   -3.3465 C   0  0  0  0  0  0  0  0  0  0  0  0
   -1.6073    2.9082   -3.1676 H   0  0  0  0  0  0  0  0  0  0  0  0
    0.2319    1.8944   -2.6756 C   0  0  0  0  0  0  0  0  0  0  0  0
   -1.2663    0.1182    1.2910 C   0  0  0  0  0  0  0  0  0  0  0  0
   -0.1906    0.1931    1.8833 O   0  0  0  0  0  0  0  0  0  0  0  0
   -2.3930    0.6605    1.7722 N   0  0  0  0  0  0  0  0  0  0  0  0
   -3.2451    0.5077    1.2518 H   0  0  0  0  0  0  0  0  0  0  0  0
   -2.4787    1.3954    3.0311 C   0  0  0  0  0  0  0  0  0  0  0  0
   -1.7166    2.1767    3.0539 H   0  0  0  0  0  0  0  0  0  0  0  0
   -3.4649    1.8498    3.1344 H   0  0  0  0  0  0  0  0  0  0  0  0
   -2.3058    0.7133    3.8652 H   0  0  0  0  0  0  0  0  0  0  0  0
  5  6  2  0  0  0  0
  5  7  1  0  0  0  0
  2  3  1  0  0  0  0
  2  4  1  0  0  0  0
  2  5  1  0  0  0  0
  1  2  1  0  0  0  0
 29 30  2  0  0  0  0
 29 31  1  0  0  0  0
 26 27  1  0  0  0  0
 26 28  2  0  0  0  0
 24 25  1  0  0  0  0
 24 26  1  0  0  0  0
 22 23  1  0  0  0  0
 22 24  2  0  0  0  0
 20 21  1  0  0  0  0
 20 22  1  0  0  0  0
 19 20  2  0  0  0  0
 19 28  1  0  0  0  0
 17 18  1  0  0  0  0
 17 19  1  0  0  0  0
 15 16  1  0  0  0  0
 15 17  1  0  0  0  0
 14 15  2  0  0  0  0
 14 28  1  0  0  0  0
 11 12  1  0  0  0  0
 11 13  1  0  0  0  0
 11 14  1  0  0  0  0
  9 10  1  0  0  0  0
  9 11  1  0  0  0  0
  9 29  1  0  0  0  0
  7  8  1  0  0  0  0
  7  9  1  0  0  0  0
 33 34  1  0  0  0  0
 33 35  1  0  0  0  0
 33 36  1  0  0  0  0
 31 32  1  0  0  0  0
 31 33  1  0  0  0  0
M  END
$$$$
default_name
  -OEChem-02102213163D

 36 37  0     1  0  0  0  0  0999 V2000
   -4.0843   -4.0736    1.2944 H   0  0  0  0  0  0  0  0  0  0  0  0
   -4.0342   -3.2816    0.5484 C   0  0  0  0  0  0  0  0  0  0  0  0
   -4.8842   -2.6126    0.6694 H   0  0  0  0  0  0  0  0  0  0  0  0
   -4.0433   -3.7186   -0.4486 H   0  0  0  0  0  0  0  0  0  0  0  0
   -2.7532   -2.5046    0.7444 C   0  0  0  0  0  0  0  0  0  0  0  0
   -1.9803   -2.8096    1.6434 O   0  0  0  0  0  0  0  0  0  0  0  0
   -2.5332   -1.4966   -0.0966 N   0  0  0  0  0  0  0  0  0  0  0  0
   -3.2312   -1.2816   -0.7936 H   0  0  0  0  0  0  0  0  0  0  0  0
   -1.3593   -0.6196   -0.0536 C   0  0  1  0  0  0  0  0  0  0  0  0
   -0.4622   -1.2317   -0.1545 H   0  0  0  0  0  0  0  0  0  0  0  0
   -1.4074    0.3593   -1.2373 C   0  0  0  0  0  0  0  0  0  0  0  0
   -1.9470   -0.1112   -2.0611 H   0  0  0  0  0  0  0  0  0  0  0  0
   -1.9720    1.2428   -0.9345 H   0  0  0  0  0  0  0  0  0  0  0  0
   -0.0714    0.8027   -1.7518 C   0  0  0  0  0  0  0  0  0  0  0  0
    1.0668    0.0741   -1.7155 C   0  0  0  0  0  0  0  0  0  0  0  0
    1.1503   -0.9192   -1.2884 H   0  0  0  0  0  0  0  0  0  0  0  0
    2.0888    0.7793   -2.3202 N   0  0  0  0  0  0  0  0  0  0  0  0
    3.0323    0.4302   -2.4047 H   0  0  0  0  0  0  0  0  0  0  0  0
    1.6532    1.9985   -2.7940 C   0  0  0  0  0  0  0  0  0  0  0  0
    2.2869    3.0378   -3.4900 C   0  0  0  0  0  0  0  0  0  0  0  0
    3.3326    2.9644   -3.7506 H   0  0  0  0  0  0  0  0  0  0  0  0
    1.5429    4.1769   -3.8421 C   0  0  0  0  0  0  0  0  0  0  0  0
    2.0152    4.9891   -4.3781 H   0  0  0  0  0  0  0  0  0  0  0  0
    0.1835    4.2625   -3.4901 C   0  0  0  0  0  0  0  0  0  0  0  0
   -0.3831    5.1443   -3.7557 H   0  0  0  0  0  0  0  0  0  0  0  0
   -0.4427    3.2126   -2.7888 C   0  0  0  0  0  0  0  0  0  0  0  0
   -1.4842    3.2969   -2.5130 H   0  0  0  0  0  0  0  0  0  0  0  0
    0.2754    2.0525   -2.4261 C   0  0  0  0  0  0  0  0  0  0  0  0
   -1.2663    0.1182    1.2910 C   0  0  0  0  0  0  0  0  0  0  0  0
   -0.1906    0.1931    1.8833 O   0  0  0  0  0  0  0  0  0  0  0  0
   -2.3930    0.6605    1.7722 N   0  0  0  0  0  0  0  0  0  0  0  0
   -3.2451    0.5077    1.2518 H   0  0  0  0  0  0  0  0  0  0  0  0
   -2.4787    1.3954    3.0311 C   0  0  0  0  0  0  0  0  0  0  0  0
   -1.7166    2.1767    3.0539 H   0  0  0  0  0  0  0  0  0  0  0  0
   -3.4649    1.8498    3.1344 H   0  0  0  0  0  0  0  0  0  0  0  0
   -2.3058    0.7133    3.8652 H   0  0  0  0  0  0  0  0  0  0  0  0
  5  6  2  0  0  0  0
  5  7  1  0  0  0  0
  2  3  1  0  0  0  0
  2  4  1  0  0  0  0
  2  5  1  0  0  0  0
  1  2  1  0  0  0  0
 29 30  2  0  0  0  0
 29 31  1  0  0  0  0
 26 27  1  0  0  0  0
 26 28  2  0  0  0  0
 24 25  1  0  0  0  0
 24 26  1  0  0  0  0
 22 23  1  0  0  0  0
 22 24  2  0  0  0  0
 20 21  1  0  0  0  0
 20 22  1  0  0  0  0
 19 20  2  0  0  0  0
 19 28  1  0  0  0  0
 17 18  1  0  0  0  0
 17 19  1  0  0  0  0
 15 16  1  0  0  0  0
 15 17  1  0  0  0  0
 14 15  2  0  0  0  0
 14 28  1  0  0  0  0
 11 12  1  0  0  0  0
 11 13  1  0  0  0  0
 11 14  1  0  0  0  0
  9 10  1  0  0  0  0
  9 11  1  0  0  0  0
  9 29  1  0  0  0  0
  7  8  1  0  0  0  0
  7  9  1  0  0  0  0
 33 34  1  0  0  0  0
 33 35  1  0  0  0  0
 33 36  1  0  0  0  0
 31 32  1  0  0  0  0
 31 33  1  0  0  0  0
M  END
$$$$
default_name
  -OEChem-02102213163D

 36 37  0     1  0  0  0  0  0999 V2000
   -4.0843   -4.0736    1.2944 H   0  0  0  0  0  0  0  0  0  0  0  0
   -4.0342   -3.2816    0.5484 C   0  0  0  0  0  0  0  0  0  0  0  0
   -4.8842   -2.6126    0.6694 H   0  0  0  0  0  0  0  0  0  0  0  0
   -4.0433   -3.7186   -0.4486 H   0  0  0  0  0  0  0  0  0  0  0  0
   -2.7532   -2.5046    0.7444 C   0  0  0  0  0  0  0  0  0  0  0  0
   -1.9803   -2.8096    1.6434 O   0  0  0  0  0  0  0  0  0  0  0  0
   -2.5332   -1.4966   -0.0966 N   0  0  0  0  0  0  0  0  0  0  0  0
   -3.2312   -1.2816   -0.7936 H   0  0  0  0  0  0  0  0  0  0  0  0
   -1.3593   -0.6196   -0.0536 C   0  0  1  0  0  0  0  0  0  0  0  0
   -0.4622   -1.2317   -0.1545 H   0  0  0  0  0  0  0  0  0  0  0  0
   -1.4074    0.3593   -1.2373 C   0  0  0  0  0  0  0  0  0  0  0  0
   -1.9470   -0.1112   -2.0611 H   0  0  0  0  0  0  0  0  0  0  0  0
   -1.9720    1.2428   -0.9345 H   0  0  0  0  0  0  0  0  0  0  0  0
   -0.0714    0.8027   -1.7518 C   0  0  0  0  0  0  0  0  0  0  0  0
    0.9899   -0.0026   -1.9812 C   0  0  0  0  0  0  0  0  0  0  0  0
    1.0040   -1.0718   -1.7999 H   0  0  0  0  0  0  0  0  0  0  0  0
    2.0338    0.7406   -2.4964 N   0  0  0  0  0  0  0  0  0  0  0  0
    2.9310    0.3468   -2.7398 H   0  0  0  0  0  0  0  0  0  0  0  0
    1.6892    2.0676   -2.6410 C   0  0  0  0  0  0  0  0  0  0  0  0
    2.3741    3.1871   -3.1350 C   0  0  0  0  0  0  0  0  0  0  0  0
    3.3880    3.0934   -3.4954 H   0  0  0  0  0  0  0  0  0  0  0  0
    1.7235    4.4326   -3.1529 C   0  0  0  0  0  0  0  0  0  0  0  0
    2.2364    5.3073   -3.5293 H   0  0  0  0  0  0  0  0  0  0  0  0
    0.4052    4.5417   -2.6738 C   0  0  0  0  0  0  0  0  0  0  0  0
   -0.0887    5.5035   -2.6817 H   0  0  0  0  0  0  0  0  0  0  0  0
   -0.2729    3.4102   -2.1777 C   0  0  0  0  0  0  0  0  0  0  0  0
   -1.2807    3.5105   -1.8003 H   0  0  0  0  0  0  0  0  0  0  0  0
    0.3507    2.1439   -2.1520 C   0  0  0  0  0  0  0  0  0  0  0  0
   -1.2663    0.1182    1.2910 C   0  0  0  0  0  0  0  0  0  0  0  0
   -0.1906    0.1931    1.8833 O   0  0  0  0  0  0  0  0  0  0  0  0
   -2.3930    0.6605    1.7722 N   0  0  0  0  0  0  0  0  0  0  0  0
   -3.2451    0.5077    1.2518 H   0  0  0  0  0  0  0  0  0  0  0  0
   -2.4787    1.3954    3.0311 C   0  0  0  0  0  0  0  0  0  0  0  0
   -1.7166    2.1767    3.0539 H   0  0  0  0  0  0  0  0  0  0  0  0
   -3.4649    1.8498    3.1344 H   0  0  0  0  0  0  0  0  0  0  0  0
   -2.3058    0.7133    3.8652 H   0  0  0  0  0  0  0  0  0  0  0  0
  5  6  2  0  0  0  0
  5  7  1  0  0  0  0
  2  3  1  0  0  0  0
  2  4  1  0  0  0  0
  2  5  1  0  0  0  0
  1  2  1  0  0  0  0
 29 30  2  0  0  0  0
 29 31  1  0  0  0  0
 26 27  1  0  0  0  0
 26 28  2  0  0  0  0
 24 25  1  0  0  0  0
 24 26  1  0  0  0  0
 22 23  1  0  0  0  0
 22 24  2  0  0  0  0
 20 21  1  0  0  0  0
 20 22  1  0  0  0  0
 19 20  2  0  0  0  0
 19 28  1  0  0  0  0
 17 18  1  0  0  0  0
 17 19  1  0  0  0  0
 15 16  1  0  0  0  0
 15 17  1  0  0  0  0
 14 15  2  0  0  0  0
 14 28  1  0  0  0  0
 11 12  1  0  0  0  0
 11 13  1  0  0  0  0
 11 14  1  0  0  0  0
  9 10  1  0  0  0  0
  9 11  1  0  0  0  0
  9 29  1  0  0  0  0
  7  8  1  0  0  0  0
  7  9  1  0  0  0  0
 33 34  1  0  0  0  0
 33 35  1  0  0  0  0
 33 36  1  0  0  0  0
 31 32  1  0  0  0  0
 31 33  1  0  0  0  0
M  END
$$$$
default_name
  -OEChem-02102213163D

 36 37  0     1  0  0  0  0  0999 V2000
   -4.0843   -4.0736    1.2944 H   0  0  0  0  0  0  0  0  0  0  0  0
   -4.0342   -3.2816    0.5484 C   0  0  0  0  0  0  0  0  0  0  0  0
   -4.8842   -2.6126    0.6694 H   0  0  0  0  0  0  0  0  0  0  0  0
   -4.0433   -3.7186   -0.4486 H   0  0  0  0  0  0  0  0  0  0  0  0
   -2.7532   -2.5046    0.7444 C   0  0  0  0  0  0  0  0  0  0  0  0
   -1.9803   -2.8096    1.6434 O   0  0  0  0  0  0  0  0  0  0  0  0
   -2.5332   -1.4966   -0.0966 N   0  0  0  0  0  0  0  0  0  0  0  0
   -3.2312   -1.2816   -0.7936 H   0  0  0  0  0  0  0  0  0  0  0  0
   -1.3593   -0.6196   -0.0536 C   0  0  1  0  0  0  0  0  0  0  0  0
   -0.4622   -1.2317   -0.1545 H   0  0  0  0  0  0  0  0  0  0  0  0
   -1.4074    0.3593   -1.2373 C   0  0  0  0  0  0  0  0  0  0  0  0
   -1.9470   -0.1112   -2.0611 H   0  0  0  0  0  0  0  0  0  0  0  0
   -1.9720    1.2428   -0.9345 H   0  0  0  0  0  0  0  0  0  0  0  0
   -0.0714    0.8027   -1.7518 C   0  0  0  0  0  0  0  0  0  0  0  0
    0.8885   -0.0086   -2.2497 C   0  0  0  0  0  0  0  0  0  0  0  0
    0.8099   -1.0881   -2.3180 H   0  0  0  0  0  0  0  0  0  0  0  0
    1.9637    0.7488   -2.6713 N   0  0  0  0  0  0  0  0  0  0  0  0
    2.8000    0.3526   -3.0749 H   0  0  0  0  0  0  0  0  0  0  0  0
    1.7418    2.0959   -2.4800 C   0  0  0  0  0  0  0  0  0  0  0  0
    2.4988    3.2416   -2.7644 C   0  0  0  0  0  0  0  0  0  0  0  0
    3.4726    3.1542   -3.2234 H   0  0  0  0  0  0  0  0  0  0  0  0
    1.9734    4.5045   -2.4420 C   0  0  0  0  0  0  0  0  0  0  0  0
    2.5434    5.3992   -2.6530 H   0  0  0  0  0  0  0  0  0  0  0  0
    0.7066    4.6033   -1.8379 C   0  0  0  0  0  0  0  0  0  0  0  0
    0.3098    5.5765   -1.5839 H   0  0  0  0  0  0  0  0  0  0  0  0
   -0.0446    3.4449   -1.5548 C   0  0  0  0  0  0  0  0  0  0  0  0
   -1.0105    3.5342   -1.0783 H   0  0  0  0  0  0  0  0  0  0  0  0
    0.4525    2.1622   -1.8719 C   0  0  0  0  0  0  0  0  0  0  0  0
   -1.2663    0.1182    1.2910 C   0  0  0  0  0  0  0  0  0  0  0  0
   -0.1906    0.1931    1.8833 O   0  0  0  0  0  0  0  0  0  0  0  0
   -2.3930    0.6605    1.7722 N   0  0  0  0  0  0  0  0  0  0  0  0
   -3.2451    0.5077    1.2518 H   0  0  0  0  0  0  0  0  0  0  0  0
   -2.4787    1.3954    3.0311 C   0  0  0  0  0  0  0  0  0  0  0  0
   -1.7166    2.1767    3.0539 H   0  0  0  0  0  0  0  0  0  0  0  0
   -3.4649    1.8498    3.1344 H   0  0  0  0  0  0  0  0  0  0  0  0
   -2.3058    0.7133    3.8652 H   0  0  0  0  0  0  0  0  0  0  0  0
  5  6  2  0  0  0  0
  5  7  1  0  0  0  0
  2  3  1  0  0  0  0
  2  4  1  0  0  0  0
  2  5  1  0  0  0  0
  1  2  1  0  0  0  0
 29 30  2  0  0  0  0
 29 31  1  0  0  0  0
 26 27  1  0  0  0  0
 26 28  2  0  0  0  0
 24 25  1  0  0  0  0
 24 26  1  0  0  0  0
 22 23  1  0  0  0  0
 22 24  2  0  0  0  0
 20 21  1  0  0  0  0
 20 22  1  0  0  0  0
 19 20  2  0  0  0  0
 19 28  1  0  0  0  0
 17 18  1  0  0  0  0
 17 19  1  0  0  0  0
 15 16  1  0  0  0  0
 15 17  1  0  0  0  0
 14 15  2  0  0  0  0
 14 28  1  0  0  0  0
 11 12  1  0  0  0  0
 11 13  1  0  0  0  0
 11 14  1  0  0  0  0
  9 10  1  0  0  0  0
  9 11  1  0  0  0  0
  9 29  1  0  0  0  0
  7  8  1  0  0  0  0
  7  9  1  0  0  0  0
 33 34  1  0  0  0  0
 33 35  1  0  0  0  0
 33 36  1  0  0  0  0
 31 32  1  0  0  0  0
 31 33  1  0  0  0  0
M  END
$$$$
default_name
  -OEChem-02102213163D

 36 37  0     1  0  0  0  0  0999 V2000
   -4.0843   -4.0736    1.2944 H   0  0  0  0  0  0  0  0  0  0  0  0
   -4.0342   -3.2816    0.5484 C   0  0  0  0  0  0  0  0  0  0  0  0
   -4.8842   -2.6126    0.6694 H   0  0  0  0  0  0  0  0  0  0  0  0
   -4.0433   -3.7186   -0.4486 H   0  0  0  0  0  0  0  0  0  0  0  0
   -2.7532   -2.5046    0.7444 C   0  0  0  0  0  0  0  0  0  0  0  0
   -1.9803   -2.8096    1.6434 O   0  0  0  0  0  0  0  0  0  0  0  0
   -2.5332   -1.4966   -0.0966 N   0  0  0  0  0  0  0  0  0  0  0  0
   -3.2312   -1.2816   -0.7936 H   0  0  0  0  0  0  0  0  0  0  0  0
   -1.3593   -0.6196   -0.0536 C   0  0  1  0  0  0  0  0  0  0  0  0
   -0.4622   -1.2317   -0.1545 H   0  0  0  0  0  0  0  0  0  0  0  0
   -1.4074    0.3593   -1.2373 C   0  0  0  0  0  0  0  0  0  0  0  0
   -1.9470   -0.1112   -2.0611 H   0  0  0  0  0  0  0  0  0  0  0  0
   -1.9720    1.2428   -0.9345 H   0  0  0  0  0  0  0  0  0  0  0  0
   -0.0714    0.8027   -1.7518 C   0  0  0  0  0  0  0  0  0  0  0  0
    0.7695    0.0565   -2.5026 C   0  0  0  0  0  0  0  0  0  0  0  0
    0.5813   -0.9671   -2.8074 H   0  0  0  0  0  0  0  0  0  0  0  0
    1.8834    0.8032   -2.8330 N   0  0  0  0  0  0  0  0  0  0  0  0
    2.6483    0.4471   -3.3873 H   0  0  0  0  0  0  0  0  0  0  0  0
    1.8074    2.0815   -2.3220 C   0  0  0  0  0  0  0  0  0  0  0  0
    2.6524    3.1976   -2.4033 C   0  0  0  0  0  0  0  0  0  0  0  0
    3.5805    3.1427   -2.9531 H   0  0  0  0  0  0  0  0  0  0  0  0
    2.2755    4.3878   -1.7579 C   0  0  0  0  0  0  0  0  0  0  0  0
    2.9152    5.2585   -1.8088 H   0  0  0  0  0  0  0  0  0  0  0  0
    1.0673    4.4432   -1.0393 C   0  0  0  0  0  0  0  0  0  0  0  0
    0.7853    5.3583   -0.5373 H   0  0  0  0  0  0  0  0  0  0  0  0
    0.2267    3.3145   -0.9626 C   0  0  0  0  0  0  0  0  0  0  0  0
   -0.6922    3.3666   -0.3961 H   0  0  0  0  0  0  0  0  0  0  0  0
    0.5739    2.1063   -1.6049 C   0  0  0  0  0  0  0  0  0  0  0  0
   -1.2663    0.1182    1.2910 C   0  0  0  0  0  0  0  0  0  0  0  0
   -0.1906    0.1931    1.8833 O   0  0  0  0  0  0  0  0  0  0  0  0
   -2.3930    0.6605    1.7722 N   0  0  0  0  0  0  0  0  0  0  0  0
   -3.2451    0.5077    1.2518 H   0  0  0  0  0  0  0  0  0  0  0  0
   -2.4787    1.3954    3.0311 C   0  0  0  0  0  0  0  0  0  0  0  0
   -1.7166    2.1767    3.0539 H   0  0  0  0  0  0  0  0  0  0  0  0
   -3.4649    1.8498    3.1344 H   0  0  0  0  0  0  0  0  0  0  0  0
   -2.3058    0.7133    3.8652 H   0  0  0  0  0  0  0  0  0  0  0  0
  5  6  2  0  0  0  0
  5  7  1  0  0  0  0
  2  3  1  0  0  0  0
  2  4  1  0  0  0  0
  2  5  1  0  0  0  0
  1  2  1  0  0  0  0
 29 30  2  0  0  0  0
 29 31  1  0  0  0  0
 26 27  1  0  0  0  0
 26 28  2  0  0  0  0
 24 25  1  0  0  0  0
 24 26  1  0  0  0  0
 22 23  1  0  0  0  0
 22 24  2  0  0  0  0
 20 21  1  0  0  0  0
 20 22  1  0  0  0  0
 19 20  2  0  0  0  0
 19 28  1  0  0  0  0
 17 18  1  0  0  0  0
 17 19  1  0  0  0  0
 15 16  1  0  0  0  0
 15 17  1  0  0  0  0
 14 15  2  0  0  0  0
 14 28  1  0  0  0  0
 11 12  1  0  0  0  0
 11 13  1  0  0  0  0
 11 14  1  0  0  0  0
  9 10  1  0  0  0  0
  9 11  1  0  0  0  0
  9 29  1  0  0  0  0
  7  8  1  0  0  0  0
  7  9  1  0  0  0  0
 33 34  1  0  0  0  0
 33 35  1  0  0  0  0
 33 36  1  0  0  0  0
 31 32  1  0  0  0  0
 31 33  1  0  0  0  0
M  END
$$$$
default_name
  -OEChem-02102213163D

 36 37  0     1  0  0  0  0  0999 V2000
   -4.0843   -4.0736    1.2944 H   0  0  0  0  0  0  0  0  0  0  0  0
   -4.0342   -3.2816    0.5484 C   0  0  0  0  0  0  0  0  0  0  0  0
   -4.8842   -2.6126    0.6694 H   0  0  0  0  0  0  0  0  0  0  0  0
   -4.0433   -3.7186   -0.4486 H   0  0  0  0  0  0  0  0  0  0  0  0
   -2.7532   -2.5046    0.7444 C   0  0  0  0  0  0  0  0  0  0  0  0
   -1.9803   -2.8096    1.6434 O   0  0  0  0  0  0  0  0  0  0  0  0
   -2.5332   -1.4966   -0.0966 N   0  0  0  0  0  0  0  0  0  0  0  0
   -3.2312   -1.2816   -0.7936 H   0  0  0  0  0  0  0  0  0  0  0  0
   -1.3593   -0.6196   -0.0536 C   0  0  1  0  0  0  0  0  0  0  0  0
   -0.4622   -1.2317   -0.1545 H   0  0  0  0  0  0  0  0  0  0  0  0
   -1.4074    0.3593   -1.2373 C   0  0  0  0  0  0  0  0  0  0  0  0
   -1.9470   -0.1112   -2.0611 H   0  0  0  0  0  0  0  0  0  0  0  0
   -1.9720    1.2428   -0.9345 H   0  0  0  0  0  0  0  0  0  0  0  0
   -0.0714    0.8027   -1.7518 C   0  0  0  0  0  0  0  0  0  0  0  0
    0.6409    0.1884   -2.7228 C   0  0  0  0  0  0  0  0  0  0  0  0
    0.3337   -0.7170   -3.2346 H   0  0  0  0  0  0  0  0  0  0  0  0
    1.7982    0.9003   -2.9704 N   0  0  0  0  0  0  0  0  0  0  0  0
    2.4863    0.6240   -3.6555 H   0  0  0  0  0  0  0  0  0  0  0  0
    1.8817    2.0252   -2.1777 C   0  0  0  0  0  0  0  0  0  0  0  0
    2.8245    3.0582   -2.0764 C   0  0  0  0  0  0  0  0  0  0  0  0
    3.7044    3.0596   -2.7030 H   0  0  0  0  0  0  0  0  0  0  0  0
    2.6095    4.0903   -1.1472 C   0  0  0  0  0  0  0  0  0  0  0  0
    3.3264    4.8948   -1.0544 H   0  0  0  0  0  0  0  0  0  0  0  0
    1.4626    4.0722   -0.3325 C   0  0  0  0  0  0  0  0  0  0  0  0
    1.3053    4.8639    0.3869 H   0  0  0  0  0  0  0  0  0  0  0  0
    0.5226    3.0278   -0.4415 C   0  0  0  0  0  0  0  0  0  0  0  0
   -0.3473    3.0190    0.1998 H   0  0  0  0  0  0  0  0  0  0  0  0
    0.7066    1.9798   -1.3693 C   0  0  0  0  0  0  0  0  0  0  0  0
   -1.2663    0.1182    1.2910 C   0  0  0  0  0  0  0  0  0  0  0  0
   -0.1906    0.1931    1.8833 O   0  0  0  0  0  0  0  0  0  0  0  0
   -2.3930    0.6605    1.7722 N   0  0  0  0  0  0  0  0  0  0  0  0
   -3.2451    0.5077    1.2518 H   0  0  0  0  0  0  0  0  0  0  0  0
   -2.4787    1.3954    3.0311 C   0  0  0  0  0  0  0  0  0  0  0  0
   -1.7166    2.1767    3.0539 H   0  0  0  0  0  0  0  0  0  0  0  0
   -3.4649    1.8498    3.1344 H   0  0  0  0  0  0  0  0  0  0  0  0
   -2.3058    0.7133    3.8652 H   0  0  0  0  0  0  0  0  0  0  0  0
  5  6  2  0  0  0  0
  5  7  1  0  0  0  0
  2  3  1  0  0  0  0
  2  4  1  0  0  0  0
  2  5  1  0  0  0  0
  1  2  1  0  0  0  0
 29 30  2  0  0  0  0
 29 31  1  0  0  0  0
 26 27  1  0  0  0  0
 26 28  2  0  0  0  0
 24 25  1  0  0  0  0
 24 26  1  0  0  0  0
 22 23  1  0  0  0  0
 22 24  2  0  0  0  0
 20 21  1  0  0  0  0
 20 22  1  0  0  0  0
 19 20  2  0  0  0  0
 19 28  1  0  0  0  0
 17 18  1  0  0  0  0
 17 19  1  0  0  0  0
 15 16  1  0  0  0  0
 15 17  1  0  0  0  0
 14 15  2  0  0  0  0
 14 28  1  0  0  0  0
 11 12  1  0  0  0  0
 11 13  1  0  0  0  0
 11 14  1  0  0  0  0
  9 10  1  0  0  0  0
  9 11  1  0  0  0  0
  9 29  1  0  0  0  0
  7  8  1  0  0  0  0
  7  9  1  0  0  0  0
 33 34  1  0  0  0  0
 33 35  1  0  0  0  0
 33 36  1  0  0  0  0
 31 32  1  0  0  0  0
 31 33  1  0  0  0  0
M  END
$$$$
default_name
  -OEChem-02102213163D

 36 37  0     1  0  0  0  0  0999 V2000
   -4.0843   -4.0736    1.2944 H   0  0  0  0  0  0  0  0  0  0  0  0
   -4.0342   -3.2816    0.5484 C   0  0  0  0  0  0  0  0  0  0  0  0
   -4.8842   -2.6126    0.6694 H   0  0  0  0  0  0  0  0  0  0  0  0
   -4.0433   -3.7186   -0.4486 H   0  0  0  0  0  0  0  0  0  0  0  0
   -2.7532   -2.5046    0.7444 C   0  0  0  0  0  0  0  0  0  0  0  0
   -1.9803   -2.8096    1.6434 O   0  0  0  0  0  0  0  0  0  0  0  0
   -2.5332   -1.4966   -0.0966 N   0  0  0  0  0  0  0  0  0  0  0  0
   -3.2312   -1.2816   -0.7936 H   0  0  0  0  0  0  0  0  0  0  0  0
   -1.3593   -0.6196   -0.0536 C   0  0  1  0  0  0  0  0  0  0  0  0
   -0.4622   -1.2317   -0.1545 H   0  0  0  0  0  0  0  0  0  0  0  0
   -1.4074    0.3593   -1.2373 C   0  0  0  0  0  0  0  0  0  0  0  0
   -1.9470   -0.1112   -2.0611 H   0  0  0  0  0  0  0  0  0  0  0  0
   -1.9720    1.2428   -0.9345 H   0  0  0  0  0  0  0  0  0  0  0  0
   -0.0714    0.8027   -1.7518 C   0  0  0  0  0  0  0  0  0  0  0  0
    0.5116    0.3780   -2.8952 C   0  0  0  0  0  0  0  0  0  0  0  0
    0.0841   -0.3548   -3.5707 H   0  0  0  0  0  0  0  0  0  0  0  0
    1.7141    1.0333   -3.0743 N   0  0  0  0  0  0  0  0  0  0  0  0
    2.3250    0.8711   -3.8615 H   0  0  0  0  0  0  0  0  0  0  0  0
    1.9594    1.9310   -2.0570 C   0  0  0  0  0  0  0  0  0  0  0  0
    3.0035    2.8328   -1.8061 C   0  0  0  0  0  0  0  0  0  0  0  0
    3.8358    2.9107   -2.4900 H   0  0  0  0  0  0  0  0  0  0  0  0
    2.9523    3.6324   -0.6515 C   0  0  0  0  0  0  0  0  0  0  0  0
    3.7491    4.3329   -0.4410 H   0  0  0  0  0  0  0  0  0  0  0  0
    1.8656    3.5156    0.2344 C   0  0  0  0  0  0  0  0  0  0  0  0
    1.8344    4.1268    1.1258 H   0  0  0  0  0  0  0  0  0  0  0  0
    0.8228    2.6043   -0.0269 C   0  0  0  0  0  0  0  0  0  0  0  0
    0.0005    2.5151    0.6688 H   0  0  0  0  0  0  0  0  0  0  0  0
    0.8416    1.7915   -1.1810 C   0  0  0  0  0  0  0  0  0  0  0  0
   -1.2663    0.1182    1.2910 C   0  0  0  0  0  0  0  0  0  0  0  0
   -0.1906    0.1931    1.8833 O   0  0  0  0  0  0  0  0  0  0  0  0
   -2.3930    0.6605    1.7722 N   0  0  0  0  0  0  0  0  0  0  0  0
   -3.2451    0.5077    1.2518 H   0  0  0  0  0  0  0  0  0  0  0  0
   -2.4787    1.3954    3.0311 C   0  0  0  0  0  0  0  0  0  0  0  0
   -1.7166    2.1767    3.0539 H   0  0  0  0  0  0  0  0  0  0  0  0
   -3.4649    1.8498    3.1344 H   0  0  0  0  0  0  0  0  0  0  0  0
   -2.3058    0.7133    3.8652 H   0  0  0  0  0  0  0  0  0  0  0  0
  5  6  2  0  0  0  0
  5  7  1  0  0  0  0
  2  3  1  0  0  0  0
  2  4  1  0  0  0  0
  2  5  1  0  0  0  0
  1  2  1  0  0  0  0
 29 30  2  0  0  0  0
 29 31  1  0  0  0  0
 26 27  1  0  0  0  0
 26 28  2  0  0  0  0
 24 25  1  0  0  0  0
 24 26  1  0  0  0  0
 22 23  1  0  0  0  0
 22 24  2  0  0  0  0
 20 21  1  0  0  0  0
 20 22  1  0  0  0  0
 19 20  2  0  0  0  0
 19 28  1  0  0  0  0
 17 18  1  0  0  0  0
 17 19  1  0  0  0  0
 15 16  1  0  0  0  0
 15 17  1  0  0  0  0
 14 15  2  0  0  0  0
 14 28  1  0  0  0  0
 11 12  1  0  0  0  0
 11 13  1  0  0  0  0
 11 14  1  0  0  0  0
  9 10  1  0  0  0  0
  9 11  1  0  0  0  0
  9 29  1  0  0  0  0
  7  8  1  0  0  0  0
  7  9  1  0  0  0  0
 33 34  1  0  0  0  0
 33 35  1  0  0  0  0
 33 36  1  0  0  0  0
 31 32  1  0  0  0  0
 31 33  1  0  0  0  0
M  END
$$$$
default_name
  -OEChem-02102213163D

 36 37  0     1  0  0  0  0  0999 V2000
   -4.0843   -4.0736    1.2944 H   0  0  0  0  0  0  0  0  0  0  0  0
   -4.0342   -3.2816    0.5484 C   0  0  0  0  0  0  0  0  0  0  0  0
   -4.8842   -2.6126    0.6694 H   0  0  0  0  0  0  0  0  0  0  0  0
   -4.0433   -3.7186   -0.4486 H   0  0  0  0  0  0  0  0  0  0  0  0
   -2.7532   -2.5046    0.7444 C   0  0  0  0  0  0  0  0  0  0  0  0
   -1.9803   -2.8096    1.6434 O   0  0  0  0  0  0  0  0  0  0  0  0
   -2.5332   -1.4966   -0.0966 N   0  0  0  0  0  0  0  0  0  0  0  0
   -3.2312   -1.2816   -0.7936 H   0  0  0  0  0  0  0  0  0  0  0  0
   -1.3593   -0.6196   -0.0536 C   0  0  1  0  0  0  0  0  0  0  0  0
   -0.4622   -1.2317   -0.1545 H   0  0  0  0  0  0  0  0  0  0  0  0
   -1.4074    0.3593   -1.2373 C   0  0  0  0  0  0  0  0  0  0  0  0
   -1.9470   -0.1112   -2.0611 H   0  0  0  0  0  0  0  0  0  0  0  0
   -1.9720    1.2428   -0.9345 H   0  0  0  0  0  0  0  0  0  0  0  0
   -0.0714    0.8027   -1.7518 C   0  0  0  0  0  0  0  0  0  0  0  0
    0.3903    0.6124   -3.0080 C   0  0  0  0  0  0  0  0  0  0  0  0
   -0.1505    0.0947   -3.7926 H   0  0  0  0  0  0  0  0  0  0  0  0
    1.6367    1.1933   -3.1375 N   0  0  0  0  0  0  0  0  0  0  0  0
    2.1754    1.1716   -3.9910 H   0  0  0  0  0  0  0  0  0  0  0  0
    2.0354    1.8052   -1.9681 C   0  0  0  0  0  0  0  0  0  0  0  0
    3.1770    2.5369   -1.6106 C   0  0  0  0  0  0  0  0  0  0  0  0
    3.9659    2.7060   -2.3287 H   0  0  0  0  0  0  0  0  0  0  0  0
    3.2808    3.0453   -0.3046 C   0  0  0  0  0  0  0  0  0  0  0  0
    4.1545    3.6111   -0.0105 H   0  0  0  0  0  0  0  0  0  0  0  0
    2.2489    2.8115    0.6227 C   0  0  0  0  0  0  0  0  0  0  0  0
    2.3367    3.1974    1.6289 H   0  0  0  0  0  0  0  0  0  0  0  0
    1.1069    2.0730    0.2529 C   0  0  0  0  0  0  0  0  0  0  0  0
    0.3277    1.8893    0.9789 H   0  0  0  0  0  0  0  0  0  0  0  0
    0.9697    1.5542   -1.0528 C   0  0  0  0  0  0  0  0  0  0  0  0
   -1.2663    0.1182    1.2910 C   0  0  0  0  0  0  0  0  0  0  0  0
   -0.1906    0.1931    1.8833 O   0  0  0  0  0  0  0  0  0  0  0  0
   -2.3930    0.6605    1.7722 N   0  0  0  0  0  0  0  0  0  0  0  0
   -3.2451    0.5077    1.2518 H   0  0  0  0  0  0  0  0  0  0  0  0
   -2.4787    1.3954    3.0311 C   0  0  0  0  0  0  0  0  0  0  0  0
   -1.7166    2.1767    3.0539 H   0  0  0  0  0  0  0  0  0  0  0  0
   -3.4649    1.8498    3.1344 H   0  0  0  0  0  0  0  0  0  0  0  0
   -2.3058    0.7133    3.8652 H   0  0  0  0  0  0  0  0  0  0  0  0
  5  6  2  0  0  0  0
  5  7  1  0  0  0  0
  2  3  1  0  0  0  0
  2  4  1  0  0  0  0
  2  5  1  0  0  0  0
  1  2  1  0  0  0  0
 29 30  2  0  0  0  0
 29 31  1  0  0  0  0
 26 27  1  0  0  0  0
 26 28  2  0  0  0  0
 24 25  1  0  0  0  0
 24 26  1  0  0  0  0
 22 23  1  0  0  0  0
 22 24  2  0  0  0  0
 20 21  1  0  0  0  0
 20 22  1  0  0  0  0
 19 20  2  0  0  0  0
 19 28  1  0  0  0  0
 17 18  1  0  0  0  0
 17 19  1  0  0  0  0
 15 16  1  0  0  0  0
 15 17  1  0  0  0  0
 14 15  2  0  0  0  0
 14 28  1  0  0  0  0
 11 12  1  0  0  0  0
 11 13  1  0  0  0  0
 11 14  1  0  0  0  0
  9 10  1  0  0  0  0
  9 11  1  0  0  0  0
  9 29  1  0  0  0  0
  7  8  1  0  0  0  0
  7  9  1  0  0  0  0
 33 34  1  0  0  0  0
 33 35  1  0  0  0  0
 33 36  1  0  0  0  0
 31 32  1  0  0  0  0
 31 33  1  0  0  0  0
M  END
$$$$
default_name
  -OEChem-02102213163D

 36 37  0     1  0  0  0  0  0999 V2000
   -4.0843   -4.0736    1.2944 H   0  0  0  0  0  0  0  0  0  0  0  0
   -4.0342   -3.2816    0.5484 C   0  0  0  0  0  0  0  0  0  0  0  0
   -4.8842   -2.6126    0.6694 H   0  0  0  0  0  0  0  0  0  0  0  0
   -4.0433   -3.7186   -0.4486 H   0  0  0  0  0  0  0  0  0  0  0  0
   -2.7532   -2.5046    0.7444 C   0  0  0  0  0  0  0  0  0  0  0  0
   -1.9803   -2.8096    1.6434 O   0  0  0  0  0  0  0  0  0  0  0  0
   -2.5332   -1.4966   -0.0966 N   0  0  0  0  0  0  0  0  0  0  0  0
   -3.2312   -1.2816   -0.7936 H   0  0  0  0  0  0  0  0  0  0  0  0
   -1.3593   -0.6196   -0.0536 C   0  0  1  0  0  0  0  0  0  0  0  0
   -0.4622   -1.2317   -0.1545 H   0  0  0  0  0  0  0  0  0  0  0  0
   -1.4074    0.3593   -1.2373 C   0  0  0  0  0  0  0  0  0  0  0  0
   -1.9470   -0.1112   -2.0611 H   0  0  0  0  0  0  0  0  0  0  0  0
   -1.9720    1.2428   -0.9345 H   0  0  0  0  0  0  0  0  0  0  0  0
   -0.0714    0.8027   -1.7518 C   0  0  0  0  0  0  0  0  0  0  0  0
    0.2854    0.8757   -3.0537 C   0  0  0  0  0  0  0  0  0  0  0  0
   -0.3543    0.6009   -3.8853 H   0  0  0  0  0  0  0  0  0  0  0  0
    1.5713    1.3692   -3.1557 N   0  0  0  0  0  0  0  0  0  0  0  0
    2.0476    1.5051   -4.0354 H   0  0  0  0  0  0  0  0  0  0  0  0
    2.1044    1.6564   -1.9171 C   0  0  0  0  0  0  0  0  0  0  0  0
    3.3332    2.1905   -1.5034 C   0  0  0  0  0  0  0  0  0  0  0  0
    4.0857    2.4595   -2.2301 H   0  0  0  0  0  0  0  0  0  0  0  0
    3.5725    2.3690   -0.1301 C   0  0  0  0  0  0  0  0  0  0  0  0
    4.5148    2.7786    0.2077 H   0  0  0  0  0  0  0  0  0  0  0  0
    2.5862    2.0077    0.8059 C   0  0  0  0  0  0  0  0  0  0  0  0
    2.7777    2.1390    1.8620 H   0  0  0  0  0  0  0  0  0  0  0  0
    1.3555    1.4699    0.3788 C   0  0  0  0  0  0  0  0  0  0  0  0
    0.6118    1.1842    1.1090 H   0  0  0  0  0  0  0  0  0  0  0  0
    1.0822    1.2840   -0.9937 C   0  0  0  0  0  0  0  0  0  0  0  0
   -1.2663    0.1182    1.2910 C   0  0  0  0  0  0  0  0  0  0  0  0
   -0.1906    0.1931    1.8833 O   0  0  0  0  0  0  0  0  0  0  0  0
   -2.3930    0.6605    1.7722 N   0  0  0  0  0  0  0  0  0  0  0  0
   -3.2451    0.5077    1.2518 H   0  0  0  0  0  0  0  0  0  0  0  0
   -2.4787    1.3954    3.0311 C   0  0  0  0  0  0  0  0  0  0  0  0
   -1.7166    2.1767    3.0539 H   0  0  0  0  0  0  0  0  0  0  0  0
   -3.4649    1.8498    3.1344 H   0  0  0  0  0  0  0  0  0  0  0  0
   -2.3058    0.7133    3.8652 H   0  0  0  0  0  0  0  0  0  0  0  0
  5  6  2  0  0  0  0
  5  7  1  0  0  0  0
  2  3  1  0  0  0  0
  2  4  1  0  0  0  0
  2  5  1  0  0  0  0
  1  2  1  0  0  0  0
 29 30  2  0  0  0  0
 29 31  1  0  0  0  0
 26 27  1  0  0  0  0
 26 28  2  0  0  0  0
 24 25  1  0  0  0  0
 24 26  1  0  0  0  0
 22 23  1  0  0  0  0
 22 24  2  0  0  0  0
 20 21  1  0  0  0  0
 20 22  1  0  0  0  0
 19 20  2  0  0  0  0
 19 28  1  0  0  0  0
 17 18  1  0  0  0  0
 17 19  1  0  0  0  0
 15 16  1  0  0  0  0
 15 17  1  0  0  0  0
 14 15  2  0  0  0  0
 14 28  1  0  0  0  0
 11 12  1  0  0  0  0
 11 13  1  0  0  0  0
 11 14  1  0  0  0  0
  9 10  1  0  0  0  0
  9 11  1  0  0  0  0
  9 29  1  0  0  0  0
  7  8  1  0  0  0  0
  7  9  1  0  0  0  0
 33 34  1  0  0  0  0
 33 35  1  0  0  0  0
 33 36  1  0  0  0  0
 31 32  1  0  0  0  0
 31 33  1  0  0  0  0
M  END
$$$$
default_name
  -OEChem-02102213163D

 36 37  0     1  0  0  0  0  0999 V2000
   -4.0843   -4.0736    1.2944 H   0  0  0  0  0  0  0  0  0  0  0  0
   -4.0342   -3.2816    0.5484 C   0  0  0  0  0  0  0  0  0  0  0  0
   -4.8842   -2.6126    0.6694 H   0  0  0  0  0  0  0  0  0  0  0  0
   -4.0433   -3.7186   -0.4486 H   0  0  0  0  0  0  0  0  0  0  0  0
   -2.7532   -2.5046    0.7444 C   0  0  0  0  0  0  0  0  0  0  0  0
   -1.9803   -2.8096    1.6434 O   0  0  0  0  0  0  0  0  0  0  0  0
   -2.5332   -1.4966   -0.0966 N   0  0  0  0  0  0  0  0  0  0  0  0
   -3.2312   -1.2816   -0.7936 H   0  0  0  0  0  0  0  0  0  0  0  0
   -1.3593   -0.6196   -0.0536 C   0  0  1  0  0  0  0  0  0  0  0  0
   -0.4622   -1.2317   -0.1545 H   0  0  0  0  0  0  0  0  0  0  0  0
   -1.4074    0.3593   -1.2373 C   0  0  0  0  0  0  0  0  0  0  0  0
   -1.9470   -0.1112   -2.0611 H   0  0  0  0  0  0  0  0  0  0  0  0
   -1.9720    1.2428   -0.9345 H   0  0  0  0  0  0  0  0  0  0  0  0
   -0.0714    0.8027   -1.7518 C   0  0  0  0  0  0  0  0  0  0  0  0
    0.2039    1.1498   -3.0290 C   0  0  0  0  0  0  0  0  0  0  0  0
   -0.5132    1.1294   -3.8424 H   0  0  0  0  0  0  0  0  0  0  0  0
    1.5223    1.5492   -3.1277 N   0  0  0  0  0  0  0  0  0  0  0  0
    1.9504    1.8488   -3.9915 H   0  0  0  0  0  0  0  0  0  0  0  0
    2.1618    1.4948   -1.9075 C   0  0  0  0  0  0  0  0  0  0  0  0
    3.4616    1.8173   -1.4917 C   0  0  0  0  0  0  0  0  0  0  0  0
    4.1870    2.1880   -2.2009 H   0  0  0  0  0  0  0  0  0  0  0  0
    3.8075    1.6495   -0.1399 C   0  0  0  0  0  0  0  0  0  0  0  0
    4.8056    1.8920    0.1988 H   0  0  0  0  0  0  0  0  0  0  0  0
    2.8547    1.1590    0.7717 C   0  0  0  0  0  0  0  0  0  0  0  0
    3.1275    1.0236    1.8091 H   0  0  0  0  0  0  0  0  0  0  0  0
    1.5518    0.8363    0.3422 C   0  0  0  0  0  0  0  0  0  0  0  0
    0.8336    0.4478    1.0503 H   0  0  0  0  0  0  0  0  0  0  0  0
    1.1713    0.9994   -1.0074 C   0  0  0  0  0  0  0  0  0  0  0  0
   -1.2663    0.1182    1.2910 C   0  0  0  0  0  0  0  0  0  0  0  0
   -0.1906    0.1931    1.8833 O   0  0  0  0  0  0  0  0  0  0  0  0
   -2.3930    0.6605    1.7722 N   0  0  0  0  0  0  0  0  0  0  0  0
   -3.2451    0.5077    1.2518 H   0  0  0  0  0  0  0  0  0  0  0  0
   -2.4787    1.3954    3.0311 C   0  0  0  0  0  0  0  0  0  0  0  0
   -1.7166    2.1767    3.0539 H   0  0  0  0  0  0  0  0  0  0  0  0
   -3.4649    1.8498    3.1344 H   0  0  0  0  0  0  0  0  0  0  0  0
   -2.3058    0.7133    3.8652 H   0  0  0  0  0  0  0  0  0  0  0  0
  5  6  2  0  0  0  0
  5  7  1  0  0  0  0
  2  3  1  0  0  0  0
  2  4  1  0  0  0  0
  2  5  1  0  0  0  0
  1  2  1  0  0  0  0
 29 30  2  0  0  0  0
 29 31  1  0  0  0  0
 26 27  1  0  0  0  0
 26 28  2  0  0  0  0
 24 25  1  0  0  0  0
 24 26  1  0  0  0  0
 22 23  1  0  0  0  0
 22 24  2  0  0  0  0
 20 21  1  0  0  0  0
 20 22  1  0  0  0  0
 19 20  2  0  0  0  0
 19 28  1  0  0  0  0
 17 18  1  0  0  0  0
 17 19  1  0  0  0  0
 15 16  1  0  0  0  0
 15 17  1  0  0  0  0
 14 15  2  0  0  0  0
 14 28  1  0  0  0  0
 11 12  1  0  0  0  0
 11 13  1  0  0  0  0
 11 14  1  0  0  0  0
  9 10  1  0  0  0  0
  9 11  1  0  0  0  0
  9 29  1  0  0  0  0
  7  8  1  0  0  0  0
  7  9  1  0  0  0  0
 33 34  1  0  0  0  0
 33 35  1  0  0  0  0
 33 36  1  0  0  0  0
 31 32  1  0  0  0  0
 31 33  1  0  0  0  0
M  END
$$$$
default_name
  -OEChem-02102213163D

 36 37  0     1  0  0  0  0  0999 V2000
   -4.0843   -4.0736    1.2944 H   0  0  0  0  0  0  0  0  0  0  0  0
   -4.0342   -3.2816    0.5484 C   0  0  0  0  0  0  0  0  0  0  0  0
   -4.8842   -2.6126    0.6694 H   0  0  0  0  0  0  0  0  0  0  0  0
   -4.0433   -3.7186   -0.4486 H   0  0  0  0  0  0  0  0  0  0  0  0
   -2.7532   -2.5046    0.7444 C   0  0  0  0  0  0  0  0  0  0  0  0
   -1.9803   -2.8096    1.6434 O   0  0  0  0  0  0  0  0  0  0  0  0
   -2.5332   -1.4966   -0.0966 N   0  0  0  0  0  0  0  0  0  0  0  0
   -3.2312   -1.2816   -0.7936 H   0  0  0  0  0  0  0  0  0  0  0  0
   -1.3593   -0.6196   -0.0536 C   0  0  1  0  0  0  0  0  0  0  0  0
   -0.4622   -1.2317   -0.1545 H   0  0  0  0  0  0  0  0  0  0  0  0
   -1.4074    0.3593   -1.2373 C   0  0  0  0  0  0  0  0  0  0  0  0
   -1.9470   -0.1112   -2.0611 H   0  0  0  0  0  0  0  0  0  0  0  0
   -1.9720    1.2428   -0.9345 H   0  0  0  0  0  0  0  0  0  0  0  0
   -0.0714    0.8027   -1.7518 C   0  0  0  0  0  0  0  0  0  0  0  0
    0.1514    1.4161   -2.9357 C   0  0  0  0  0  0  0  0  0  0  0  0
   -0.6164    1.6441   -3.6669 H   0  0  0  0  0  0  0  0  0  0  0  0
    1.4932    1.7209   -3.0553 N   0  0  0  0  0  0  0  0  0  0  0  0
    1.8905    2.1793   -3.8623 H   0  0  0  0  0  0  0  0  0  0  0  0
    2.2035    1.3314   -1.9398 C   0  0  0  0  0  0  0  0  0  0  0  0
    3.5533    1.4427   -1.5763 C   0  0  0  0  0  0  0  0  0  0  0  0
    4.2630    1.9100   -2.2431 H   0  0  0  0  0  0  0  0  0  0  0  0
    3.9698    0.9360   -0.3334 C   0  0  0  0  0  0  0  0  0  0  0  0
    5.0071    1.0119   -0.0366 H   0  0  0  0  0  0  0  0  0  0  0  0
    3.0360    0.3233    0.5222 C   0  0  0  0  0  0  0  0  0  0  0  0
    3.3623   -0.0726    1.4740 H   0  0  0  0  0  0  0  0  0  0  0  0
    1.6822    0.2153    0.1457 C   0  0  0  0  0  0  0  0  0  0  0  0
    0.9779   -0.2696    0.8067 H   0  0  0  0  0  0  0  0  0  0  0  0
    1.2311    0.7197   -1.0932 C   0  0  0  0  0  0  0  0  0  0  0  0
   -1.2663    0.1182    1.2910 C   0  0  0  0  0  0  0  0  0  0  0  0
   -0.1906    0.1931    1.8833 O   0  0  0  0  0  0  0  0  0  0  0  0
   -2.3930    0.6605    1.7722 N   0  0  0  0  0  0  0  0  0  0  0  0
   -3.2451    0.5077    1.2518 H   0  0  0  0  0  0  0  0  0  0  0  0
   -2.4787    1.3954    3.0311 C   0  0  0  0  0  0  0  0  0  0  0  0
   -1.7166    2.1767    3.0539 H   0  0  0  0  0  0  0  0  0  0  0  0
   -3.4649    1.8498    3.1344 H   0  0  0  0  0  0  0  0  0  0  0  0
   -2.3058    0.7133    3.8652 H   0  0  0  0  0  0  0  0  0  0  0  0
  5  6  2  0  0  0  0
  5  7  1  0  0  0  0
  2  3  1  0  0  0  0
  2  4  1  0  0  0  0
  2  5  1  0  0  0  0
  1  2  1  0  0  0  0
 29 30  2  0  0  0  0
 29 31  1  0  0  0  0
 26 27  1  0  0  0  0
 26 28  2  0  0  0  0
 24 25  1  0  0  0  0
 24 26  1  0  0  0  0
 22 23  1  0  0  0  0
 22 24  2  0  0  0  0
 20 21  1  0  0  0  0
 20 22  1  0  0  0  0
 19 20  2  0  0  0  0
 19 28  1  0  0  0  0
 17 18  1  0  0  0  0
 17 19  1  0  0  0  0
 15 16  1  0  0  0  0
 15 17  1  0  0  0  0
 14 15  2  0  0  0  0
 14 28  1  0  0  0  0
 11 12  1  0  0  0  0
 11 13  1  0  0  0  0
 11 14  1  0  0  0  0
  9 10  1  0  0  0  0
  9 11  1  0  0  0  0
  9 29  1  0  0  0  0
  7  8  1  0  0  0  0
  7  9  1  0  0  0  0
 33 34  1  0  0  0  0
 33 35  1  0  0  0  0
 33 36  1  0  0  0  0
 31 32  1  0  0  0  0
 31 33  1  0  0  0  0
M  END
$$$$
default_name
  -OEChem-02102213163D

 36 37  0     1  0  0  0  0  0999 V2000
   -4.0843   -4.0736    1.2944 H   0  0  0  0  0  0  0  0  0  0  0  0
   -4.0342   -3.2816    0.5484 C   0  0  0  0  0  0  0  0  0  0  0  0
   -4.8842   -2.6126    0.6694 H   0  0  0  0  0  0  0  0  0  0  0  0
   -4.0433   -3.7186   -0.4486 H   0  0  0  0  0  0  0  0  0  0  0  0
   -2.7532   -2.5046    0.7444 C   0  0  0  0  0  0  0  0  0  0  0  0
   -1.9803   -2.8096    1.6434 O   0  0  0  0  0  0  0  0  0  0  0  0
   -2.5332   -1.4966   -0.0966 N   0  0  0  0  0  0  0  0  0  0  0  0
   -3.2312   -1.2816   -0.7936 H   0  0  0  0  0  0  0  0  0  0  0  0
   -1.3593   -0.6196   -0.0536 C   0  0  1  0  0  0  0  0  0  0  0  0
   -0.4622   -1.2317   -0.1545 H   0  0  0  0  0  0  0  0  0  0  0  0
   -1.4074    0.3593   -1.2373 C   0  0  0  0  0  0  0  0  0  0  0  0
   -2.1586    0.0133   -1.9495 H   0  0  0  0  0  0  0  0  0  0  0  0
   -1.7271    1.3352   -0.8680 H   0  0  0  0  0  0  0  0  0  0  0  0
   -0.1141    0.5310   -1.9748 C   0  0  0  0  0  0  0  0  0  0  0  0
    0.0812    1.3357   -3.0434 C   0  0  0  0  0  0  0  0  0  0  0  0
   -0.6882    1.9428   -3.5077 H   0  0  0  0  0  0  0  0  0  0  0  0
    1.4053    1.2780   -3.4322 N   0  0  0  0  0  0  0  0  0  0  0  0
    1.7794    1.7962   -4.2136 H   0  0  0  0  0  0  0  0  0  0  0  0
    2.1374    0.4405   -2.6177 C   0  0  0  0  0  0  0  0  0  0  0  0
    3.4920    0.0798   -2.5844 C   0  0  0  0  0  0  0  0  0  0  0  0
    4.1843    0.4847   -3.3079 H   0  0  0  0  0  0  0  0  0  0  0  0
    3.9357   -0.8173   -1.5978 C   0  0  0  0  0  0  0  0  0  0  0  0
    4.9768   -1.1078   -1.5574 H   0  0  0  0  0  0  0  0  0  0  0  0
    3.0218   -1.3427   -0.6661 C   0  0  0  0  0  0  0  0  0  0  0  0
    3.3659   -2.0390    0.0861 H   0  0  0  0  0  0  0  0  0  0  0  0
    1.6621   -0.9746   -0.7102 C   0  0  0  0  0  0  0  0  0  0  0  0
    0.9681   -1.3959    0.0033 H   0  0  0  0  0  0  0  0  0  0  0  0
    1.1862   -0.0710   -1.6849 C   0  0  0  0  0  0  0  0  0  0  0  0
   -1.2663    0.1182    1.2910 C   0  0  0  0  0  0  0  0  0  0  0  0
   -0.1906    0.1931    1.8833 O   0  0  0  0  0  0  0  0  0  0  0  0
   -2.3930    0.6605    1.7722 N   0  0  0  0  0  0  0  0  0  0  0  0
   -3.2451    0.5077    1.2518 H   0  0  0  0  0  0  0  0  0  0  0  0
   -2.4787    1.3954    3.0311 C   0  0  0  0  0  0  0  0  0  0  0  0
   -1.7166    2.1767    3.0539 H   0  0  0  0  0  0  0  0  0  0  0  0
   -3.4649    1.8498    3.1344 H   0  0  0  0  0  0  0  0  0  0  0  0
   -2.3058    0.7133    3.8652 H   0  0  0  0  0  0  0  0  0  0  0  0
  5  6  2  0  0  0  0
  5  7  1  0  0  0  0
  2  3  1  0  0  0  0
  2  4  1  0  0  0  0
  2  5  1  0  0  0  0
  1  2  1  0  0  0  0
 29 30  2  0  0  0  0
 29 31  1  0  0  0  0
 26 27  1  0  0  0  0
 26 28  2  0  0  0  0
 24 25  1  0  0  0  0
 24 26  1  0  0  0  0
 22 23  1  0  0  0  0
 22 24  2  0  0  0  0
 20 21  1  0  0  0  0
 20 22  1  0  0  0  0
 19 20  2  0  0  0  0
 19 28  1  0  0  0  0
 17 18  1  0  0  0  0
 17 19  1  0  0  0  0
 15 16  1  0  0  0  0
 15 17  1  0  0  0  0
 14 15  2  0  0  0  0
 14 28  1  0  0  0  0
 11 12  1  0  0  0  0
 11 13  1  0  0  0  0
 11 14  1  0  0  0  0
  9 10  1  0  0  0  0
  9 11  1  0  0  0  0
  9 29  1  0  0  0  0
  7  8  1  0  0  0  0
  7  9  1  0  0  0  0
 33 34  1  0  0  0  0
 33 35  1  0  0  0  0
 33 36  1  0  0  0  0
 31 32  1  0  0  0  0
 31 33  1  0  0  0  0
M  END
$$$$
default_name
  -OEChem-02102213163D

 36 37  0     1  0  0  0  0  0999 V2000
   -4.0843   -4.0736    1.2944 H   0  0  0  0  0  0  0  0  0  0  0  0
   -4.0342   -3.2816    0.5484 C   0  0  0  0  0  0  0  0  0  0  0  0
   -4.8842   -2.6126    0.6694 H   0  0  0  0  0  0  0  0  0  0  0  0
   -4.0433   -3.7186   -0.4486 H   0  0  0  0  0  0  0  0  0  0  0  0
   -2.7532   -2.5046    0.7444 C   0  0  0  0  0  0  0  0  0  0  0  0
   -1.9803   -2.8096    1.6434 O   0  0  0  0  0  0  0  0  0  0  0  0
   -2.5332   -1.4966   -0.0966 N   0  0  0  0  0  0  0  0  0  0  0  0
   -3.2312   -1.2816   -0.7936 H   0  0  0  0  0  0  0  0  0  0  0  0
   -1.3593   -0.6196   -0.0536 C   0  0  1  0  0  0  0  0  0  0  0  0
   -0.4622   -1.2317   -0.1545 H   0  0  0  0  0  0  0  0  0  0  0  0
   -1.4074    0.3593   -1.2373 C   0  0  0  0  0  0  0  0  0  0  0  0
   -2.1586    0.0133   -1.9495 H   0  0  0  0  0  0  0  0  0  0  0  0
   -1.7271    1.3352   -0.8680 H   0  0  0  0  0  0  0  0  0  0  0  0
   -0.1141    0.5310   -1.9748 C   0  0  0  0  0  0  0  0  0  0  0  0
    0.1685    1.5252   -2.8462 C   0  0  0  0  0  0  0  0  0  0  0  0
   -0.5219    2.3118   -3.1302 H   0  0  0  0  0  0  0  0  0  0  0  0
    1.4676    1.3928   -3.2961 N   0  0  0  0  0  0  0  0  0  0  0  0
    1.8944    2.0232   -3.9592 H   0  0  0  0  0  0  0  0  0  0  0  0
    2.0962    0.3092   -2.7204 C   0  0  0  0  0  0  0  0  0  0  0  0
    3.3924   -0.2149   -2.8277 C   0  0  0  0  0  0  0  0  0  0  0  0
    4.1206    0.2536   -3.4733 H   0  0  0  0  0  0  0  0  0  0  0  0
    3.7300   -1.3591   -2.0847 C   0  0  0  0  0  0  0  0  0  0  0  0
    4.7246   -1.7780   -2.1556 H   0  0  0  0  0  0  0  0  0  0  0  0
    2.7695   -1.9633   -1.2531 C   0  0  0  0  0  0  0  0  0  0  0  0
    3.0309   -2.8483   -0.6897 H   0  0  0  0  0  0  0  0  0  0  0  0
    1.4690   -1.4291   -1.1546 C   0  0  0  0  0  0  0  0  0  0  0  0
    0.7368   -1.9109   -0.5222 H   0  0  0  0  0  0  0  0  0  0  0  0
    1.1006   -0.2773   -1.8830 C   0  0  0  0  0  0  0  0  0  0  0  0
   -1.2663    0.1182    1.2910 C   0  0  0  0  0  0  0  0  0  0  0  0
   -0.1906    0.1931    1.8833 O   0  0  0  0  0  0  0  0  0  0  0  0
   -2.3930    0.6605    1.7722 N   0  0  0  0  0  0  0  0  0  0  0  0
   -3.2451    0.5077    1.2518 H   0  0  0  0  0  0  0  0  0  0  0  0
   -2.4787    1.3954    3.0311 C   0  0  0  0  0  0  0  0  0  0  0  0
   -1.7166    2.1767    3.0539 H   0  0  0  0  0  0  0  0  0  0  0  0
   -3.4649    1.8498    3.1344 H   0  0  0  0  0  0  0  0  0  0  0  0
   -2.3058    0.7133    3.8652 H   0  0  0  0  0  0  0  0  0  0  0  0
  5  6  2  0  0  0  0
  5  7  1  0  0  0  0
  2  3  1  0  0  0  0
  2  4  1  0  0  0  0
  2  5  1  0  0  0  0
  1  2  1  0  0  0  0
 29 30  2  0  0  0  0
 29 31  1  0  0  0  0
 26 27  1  0  0  0  0
 26 28  2  0  0  0  0
 24 25  1  0  0  0  0
 24 26  1  0  0  0  0
 22 23  1  0  0  0  0
 22 24  2  0  0  0  0
 20 21  1  0  0  0  0
 20 22  1  0  0  0  0
 19 20  2  0  0  0  0
 19 28  1  0  0  0  0
 17 18  1  0  0  0  0
 17 19  1  0  0  0  0
 15 16  1  0  0  0  0
 15 17  1  0  0  0  0
 14 15  2  0  0  0  0
 14 28  1  0  0  0  0
 11 12  1  0  0  0  0
 11 13  1  0  0  0  0
 11 14  1  0  0  0  0
  9 10  1  0  0  0  0
  9 11  1  0  0  0  0
  9 29  1  0  0  0  0
  7  8  1  0  0  0  0
  7  9  1  0  0  0  0
 33 34  1  0  0  0  0
 33 35  1  0  0  0  0
 33 36  1  0  0  0  0
 31 32  1  0  0  0  0
 31 33  1  0  0  0  0
M  END
$$$$
default_name
  -OEChem-02102213163D

 36 37  0     1  0  0  0  0  0999 V2000
   -4.0843   -4.0736    1.2944 H   0  0  0  0  0  0  0  0  0  0  0  0
   -4.0342   -3.2816    0.5484 C   0  0  0  0  0  0  0  0  0  0  0  0
   -4.8842   -2.6126    0.6694 H   0  0  0  0  0  0  0  0  0  0  0  0
   -4.0433   -3.7186   -0.4486 H   0  0  0  0  0  0  0  0  0  0  0  0
   -2.7532   -2.5046    0.7444 C   0  0  0  0  0  0  0  0  0  0  0  0
   -1.9803   -2.8096    1.6434 O   0  0  0  0  0  0  0  0  0  0  0  0
   -2.5332   -1.4966   -0.0966 N   0  0  0  0  0  0  0  0  0  0  0  0
   -3.2312   -1.2816   -0.7936 H   0  0  0  0  0  0  0  0  0  0  0  0
   -1.3593   -0.6196   -0.0536 C   0  0  1  0  0  0  0  0  0  0  0  0
   -0.4622   -1.2317   -0.1545 H   0  0  0  0  0  0  0  0  0  0  0  0
   -1.4074    0.3593   -1.2373 C   0  0  0  0  0  0  0  0  0  0  0  0
   -2.1586    0.0133   -1.9495 H   0  0  0  0  0  0  0  0  0  0  0  0
   -1.7271    1.3352   -0.8680 H   0  0  0  0  0  0  0  0  0  0  0  0
   -0.1141    0.5310   -1.9748 C   0  0  0  0  0  0  0  0  0  0  0  0
    0.2828    1.6530   -2.6161 C   0  0  0  0  0  0  0  0  0  0  0  0
   -0.3031    2.5628   -2.6880 H   0  0  0  0  0  0  0  0  0  0  0  0
    1.5465    1.4654   -3.1409 N   0  0  0  0  0  0  0  0  0  0  0  0
    2.0419    2.1710   -3.6661 H   0  0  0  0  0  0  0  0  0  0  0  0
    2.0367    0.2106   -2.8478 C   0  0  0  0  0  0  0  0  0  0  0  0
    3.2515   -0.4325   -3.1255 C   0  0  0  0  0  0  0  0  0  0  0  0
    4.0248    0.0754   -3.6828 H   0  0  0  0  0  0  0  0  0  0  0  0
    3.4478   -1.7474   -2.6700 C   0  0  0  0  0  0  0  0  0  0  0  0
    4.3779   -2.2596   -2.8756 H   0  0  0  0  0  0  0  0  0  0  0  0
    2.4292   -2.3996   -1.9512 C   0  0  0  0  0  0  0  0  0  0  0  0
    2.5813   -3.4142   -1.6099 H   0  0  0  0  0  0  0  0  0  0  0  0
    1.2114   -1.7442   -1.6796 C   0  0  0  0  0  0  0  0  0  0  0  0
    0.4322   -2.2615   -1.1380 H   0  0  0  0  0  0  0  0  0  0  0  0
    0.9858   -0.4214   -2.1179 C   0  0  0  0  0  0  0  0  0  0  0  0
   -1.2663    0.1182    1.2910 C   0  0  0  0  0  0  0  0  0  0  0  0
   -0.1906    0.1931    1.8833 O   0  0  0  0  0  0  0  0  0  0  0  0
   -2.3930    0.6605    1.7722 N   0  0  0  0  0  0  0  0  0  0  0  0
   -3.2451    0.5077    1.2518 H   0  0  0  0  0  0  0  0  0  0  0  0
   -2.4787    1.3954    3.0311 C   0  0  0  0  0  0  0  0  0  0  0  0
   -1.7166    2.1767    3.0539 H   0  0  0  0  0  0  0  0  0  0  0  0
   -3.4649    1.8498    3.1344 H   0  0  0  0  0  0  0  0  0  0  0  0
   -2.3058    0.7133    3.8652 H   0  0  0  0  0  0  0  0  0  0  0  0
  5  6  2  0  0  0  0
  5  7  1  0  0  0  0
  2  3  1  0  0  0  0
  2  4  1  0  0  0  0
  2  5  1  0  0  0  0
  1  2  1  0  0  0  0
 29 30  2  0  0  0  0
 29 31  1  0  0  0  0
 26 27  1  0  0  0  0
 26 28  2  0  0  0  0
 24 25  1  0  0  0  0
 24 26  1  0  0  0  0
 22 23  1  0  0  0  0
 22 24  2  0  0  0  0
 20 21  1  0  0  0  0
 20 22  1  0  0  0  0
 19 20  2  0  0  0  0
 19 28  1  0  0  0  0
 17 18  1  0  0  0  0
 17 19  1  0  0  0  0
 15 16  1  0  0  0  0
 15 17  1  0  0  0  0
 14 15  2  0  0  0  0
 14 28  1  0  0  0  0
 11 12  1  0  0  0  0
 11 13  1  0  0  0  0
 11 14  1  0  0  0  0
  9 10  1  0  0  0  0
  9 11  1  0  0  0  0
  9 29  1  0  0  0  0
  7  8  1  0  0  0  0
  7  9  1  0  0  0  0
 33 34  1  0  0  0  0
 33 35  1  0  0  0  0
 33 36  1  0  0  0  0
 31 32  1  0  0  0  0
 31 33  1  0  0  0  0
M  END
$$$$
default_name
  -OEChem-02102213163D

 36 37  0     1  0  0  0  0  0999 V2000
   -4.0843   -4.0736    1.2944 H   0  0  0  0  0  0  0  0  0  0  0  0
   -4.0342   -3.2816    0.5484 C   0  0  0  0  0  0  0  0  0  0  0  0
   -4.8842   -2.6126    0.6694 H   0  0  0  0  0  0  0  0  0  0  0  0
   -4.0433   -3.7186   -0.4486 H   0  0  0  0  0  0  0  0  0  0  0  0
   -2.7532   -2.5046    0.7444 C   0  0  0  0  0  0  0  0  0  0  0  0
   -1.9803   -2.8096    1.6434 O   0  0  0  0  0  0  0  0  0  0  0  0
   -2.5332   -1.4966   -0.0966 N   0  0  0  0  0  0  0  0  0  0  0  0
   -3.2312   -1.2816   -0.7936 H   0  0  0  0  0  0  0  0  0  0  0  0
   -1.3593   -0.6196   -0.0536 C   0  0  1  0  0  0  0  0  0  0  0  0
   -0.4622   -1.2317   -0.1545 H   0  0  0  0  0  0  0  0  0  0  0  0
   -1.4074    0.3593   -1.2373 C   0  0  0  0  0  0  0  0  0  0  0  0
   -2.1586    0.0133   -1.9495 H   0  0  0  0  0  0  0  0  0  0  0  0
   -1.7271    1.3352   -0.8680 H   0  0  0  0  0  0  0  0  0  0  0  0
   -0.1141    0.5310   -1.9748 C   0  0  0  0  0  0  0  0  0  0  0  0
    0.4163    1.7105   -2.3686 C   0  0  0  0  0  0  0  0  0  0  0  0
   -0.0466    2.6785   -2.2113 H   0  0  0  0  0  0  0  0  0  0  0  0
    1.6365    1.4907   -2.9772 N   0  0  0  0  0  0  0  0  0  0  0  0
    2.2119    2.2295   -3.3544 H   0  0  0  0  0  0  0  0  0  0  0  0
    1.9628    0.1513   -2.9910 C   0  0  0  0  0  0  0  0  0  0  0  0
    3.0788   -0.5582   -3.4575 C   0  0  0  0  0  0  0  0  0  0  0  0
    3.9033   -0.0377   -3.9222 H   0  0  0  0  0  0  0  0  0  0  0  0
    3.1084   -1.9558   -3.3136 C   0  0  0  0  0  0  0  0  0  0  0  0
    3.9604   -2.5198   -3.6685 H   0  0  0  0  0  0  0  0  0  0  0  0
    2.0244   -2.6217   -2.7129 C   0  0  0  0  0  0  0  0  0  0  0  0
    2.0476   -3.6979   -2.6118 H   0  0  0  0  0  0  0  0  0  0  0  0
    0.9070   -1.8986   -2.2495 C   0  0  0  0  0  0  0  0  0  0  0  0
    0.0751   -2.4238   -1.8020 H   0  0  0  0  0  0  0  0  0  0  0  0
    0.8495   -0.4935   -2.3736 C   0  0  0  0  0  0  0  0  0  0  0  0
   -1.2663    0.1182    1.2910 C   0  0  0  0  0  0  0  0  0  0  0  0
   -0.1906    0.1931    1.8833 O   0  0  0  0  0  0  0  0  0  0  0  0
   -2.3930    0.6605    1.7722 N   0  0  0  0  0  0  0  0  0  0  0  0
   -3.2451    0.5077    1.2518 H   0  0  0  0  0  0  0  0  0  0  0  0
   -2.4787    1.3954    3.0311 C   0  0  0  0  0  0  0  0  0  0  0  0
   -1.7166    2.1767    3.0539 H   0  0  0  0  0  0  0  0  0  0  0  0
   -3.4649    1.8498    3.1344 H   0  0  0  0  0  0  0  0  0  0  0  0
   -2.3058    0.7133    3.8652 H   0  0  0  0  0  0  0  0  0  0  0  0
  5  6  2  0  0  0  0
  5  7  1  0  0  0  0
  2  3  1  0  0  0  0
  2  4  1  0  0  0  0
  2  5  1  0  0  0  0
  1  2  1  0  0  0  0
 29 30  2  0  0  0  0
 29 31  1  0  0  0  0
 26 27  1  0  0  0  0
 26 28  2  0  0  0  0
 24 25  1  0  0  0  0
 24 26  1  0  0  0  0
 22 23  1  0  0  0  0
 22 24  2  0  0  0  0
 20 21  1  0  0  0  0
 20 22  1  0  0  0  0
 19 20  2  0  0  0  0
 19 28  1  0  0  0  0
 17 18  1  0  0  0  0
 17 19  1  0  0  0  0
 15 16  1  0  0  0  0
 15 17  1  0  0  0  0
 14 15  2  0  0  0  0
 14 28  1  0  0  0  0
 11 12  1  0  0  0  0
 11 13  1  0  0  0  0
 11 14  1  0  0  0  0
  9 10  1  0  0  0  0
  9 11  1  0  0  0  0
  9 29  1  0  0  0  0
  7  8  1  0  0  0  0
  7  9  1  0  0  0  0
 33 34  1  0  0  0  0
 33 35  1  0  0  0  0
 33 36  1  0  0  0  0
 31 32  1  0  0  0  0
 31 33  1  0  0  0  0
M  END
$$$$
default_name
  -OEChem-02102213163D

 36 37  0     1  0  0  0  0  0999 V2000
   -4.0843   -4.0736    1.2944 H   0  0  0  0  0  0  0  0  0  0  0  0
   -4.0342   -3.2816    0.5484 C   0  0  0  0  0  0  0  0  0  0  0  0
   -4.8842   -2.6126    0.6694 H   0  0  0  0  0  0  0  0  0  0  0  0
   -4.0433   -3.7186   -0.4486 H   0  0  0  0  0  0  0  0  0  0  0  0
   -2.7532   -2.5046    0.7444 C   0  0  0  0  0  0  0  0  0  0  0  0
   -1.9803   -2.8096    1.6434 O   0  0  0  0  0  0  0  0  0  0  0  0
   -2.5332   -1.4966   -0.0966 N   0  0  0  0  0  0  0  0  0  0  0  0
   -3.2312   -1.2816   -0.7936 H   0  0  0  0  0  0  0  0  0  0  0  0
   -1.3593   -0.6196   -0.0536 C   0  0  1  0  0  0  0  0  0  0  0  0
   -0.4622   -1.2317   -0.1545 H   0  0  0  0  0  0  0  0  0  0  0  0
   -1.4074    0.3593   -1.2373 C   0  0  0  0  0  0  0  0  0  0  0  0
   -2.1586    0.0133   -1.9495 H   0  0  0  0  0  0  0  0  0  0  0  0
   -1.7271    1.3352   -0.8680 H   0  0  0  0  0  0  0  0  0  0  0  0
   -0.1141    0.5310   -1.9748 C   0  0  0  0  0  0  0  0  0  0  0  0
    0.5600    1.6938   -2.1206 C   0  0  0  0  0  0  0  0  0  0  0  0
    0.2300    2.6513   -1.7327 H   0  0  0  0  0  0  0  0  0  0  0  0
    1.7315    1.4672   -2.8160 N   0  0  0  0  0  0  0  0  0  0  0  0
    2.3928    2.1948   -3.0453 H   0  0  0  0  0  0  0  0  0  0  0  0
    1.8797    0.1355   -3.1405 C   0  0  0  0  0  0  0  0  0  0  0  0
    2.8862   -0.5834   -3.8013 C   0  0  0  0  0  0  0  0  0  0  0  0
    3.7645   -0.0780   -4.1750 H   0  0  0  0  0  0  0  0  0  0  0  0
    2.7349   -1.9702   -3.9719 C   0  0  0  0  0  0  0  0  0  0  0  0
    3.5004   -2.5409   -4.4800 H   0  0  0  0  0  0  0  0  0  0  0  0
    1.5824   -2.6146   -3.4863 C   0  0  0  0  0  0  0  0  0  0  0  0
    1.4663   -3.6803   -3.6271 H   0  0  0  0  0  0  0  0  0  0  0  0
    0.5763   -1.8816   -2.8254 C   0  0  0  0  0  0  0  0  0  0  0  0
   -0.3102   -2.3868   -2.4691 H   0  0  0  0  0  0  0  0  0  0  0  0
    0.7011   -0.4887   -2.6327 C   0  0  0  0  0  0  0  0  0  0  0  0
   -1.2663    0.1182    1.2910 C   0  0  0  0  0  0  0  0  0  0  0  0
   -0.1906    0.1931    1.8833 O   0  0  0  0  0  0  0  0  0  0  0  0
   -2.3930    0.6605    1.7722 N   0  0  0  0  0  0  0  0  0  0  0  0
   -3.2451    0.5077    1.2518 H   0  0  0  0  0  0  0  0  0  0  0  0
   -2.4787    1.3954    3.0311 C   0  0  0  0  0  0  0  0  0  0  0  0
   -1.7166    2.1767    3.0539 H   0  0  0  0  0  0  0  0  0  0  0  0
   -3.4649    1.8498    3.1344 H   0  0  0  0  0  0  0  0  0  0  0  0
   -2.3058    0.7133    3.8652 H   0  0  0  0  0  0  0  0  0  0  0  0
  5  6  2  0  0  0  0
  5  7  1  0  0  0  0
  2  3  1  0  0  0  0
  2  4  1  0  0  0  0
  2  5  1  0  0  0  0
  1  2  1  0  0  0  0
 29 30  2  0  0  0  0
 29 31  1  0  0  0  0
 26 27  1  0  0  0  0
 26 28  2  0  0  0  0
 24 25  1  0  0  0  0
 24 26  1  0  0  0  0
 22 23  1  0  0  0  0
 22 24  2  0  0  0  0
 20 21  1  0  0  0  0
 20 22  1  0  0  0  0
 19 20  2  0  0  0  0
 19 28  1  0  0  0  0
 17 18  1  0  0  0  0
 17 19  1  0  0  0  0
 15 16  1  0  0  0  0
 15 17  1  0  0  0  0
 14 15  2  0  0  0  0
 14 28  1  0  0  0  0
 11 12  1  0  0  0  0
 11 13  1  0  0  0  0
 11 14  1  0  0  0  0
  9 10  1  0  0  0  0
  9 11  1  0  0  0  0
  9 29  1  0  0  0  0
  7  8  1  0  0  0  0
  7  9  1  0  0  0  0
 33 34  1  0  0  0  0
 33 35  1  0  0  0  0
 33 36  1  0  0  0  0
 31 32  1  0  0  0  0
 31 33  1  0  0  0  0
M  END
$$$$
default_name
  -OEChem-02102213163D

 36 37  0     1  0  0  0  0  0999 V2000
   -4.0843   -4.0736    1.2944 H   0  0  0  0  0  0  0  0  0  0  0  0
   -4.0342   -3.2816    0.5484 C   0  0  0  0  0  0  0  0  0  0  0  0
   -4.8842   -2.6126    0.6694 H   0  0  0  0  0  0  0  0  0  0  0  0
   -4.0433   -3.7186   -0.4486 H   0  0  0  0  0  0  0  0  0  0  0  0
   -2.7532   -2.5046    0.7444 C   0  0  0  0  0  0  0  0  0  0  0  0
   -1.9803   -2.8096    1.6434 O   0  0  0  0  0  0  0  0  0  0  0  0
   -2.5332   -1.4966   -0.0966 N   0  0  0  0  0  0  0  0  0  0  0  0
   -3.2312   -1.2816   -0.7936 H   0  0  0  0  0  0  0  0  0  0  0  0
   -1.3593   -0.6196   -0.0536 C   0  0  1  0  0  0  0  0  0  0  0  0
   -0.4622   -1.2317   -0.1545 H   0  0  0  0  0  0  0  0  0  0  0  0
   -1.4074    0.3593   -1.2373 C   0  0  0  0  0  0  0  0  0  0  0  0
   -2.1586    0.0133   -1.9495 H   0  0  0  0  0  0  0  0  0  0  0  0
   -1.7271    1.3352   -0.8680 H   0  0  0  0  0  0  0  0  0  0  0  0
   -0.1141    0.5310   -1.9748 C   0  0  0  0  0  0  0  0  0  0  0  0
    0.7039    1.6039   -1.8891 C   0  0  0  0  0  0  0  0  0  0  0  0
    0.5078    2.4828   -1.2846 H   0  0  0  0  0  0  0  0  0  0  0  0
    1.8251    1.3964   -2.6684 N   0  0  0  0  0  0  0  0  0  0  0  0
    2.5723    2.0691   -2.7598 H   0  0  0  0  0  0  0  0  0  0  0  0
    1.7930    0.1641   -3.2859 C   0  0  0  0  0  0  0  0  0  0  0  0
    2.6867   -0.5065   -4.1332 C   0  0  0  0  0  0  0  0  0  0  0  0
    3.6178   -0.0428   -4.4241 H   0  0  0  0  0  0  0  0  0  0  0  0
    2.3529   -1.7894   -4.5998 C   0  0  0  0  0  0  0  0  0  0  0  0
    3.0294   -2.3215   -5.2550 H   0  0  0  0  0  0  0  0  0  0  0  0
    1.1335   -2.3786   -4.2186 C   0  0  0  0  0  0  0  0  0  0  0  0
    0.8769   -3.3624   -4.5866 H   0  0  0  0  0  0  0  0  0  0  0  0
    0.2420   -1.6945   -3.3681 C   0  0  0  0  0  0  0  0  0  0  0  0
   -0.6974   -2.1531   -3.0938 H   0  0  0  0  0  0  0  0  0  0  0  0
    0.5508   -0.4073   -2.8775 C   0  0  0  0  0  0  0  0  0  0  0  0
   -1.2663    0.1182    1.2910 C   0  0  0  0  0  0  0  0  0  0  0  0
   -0.1906    0.1931    1.8833 O   0  0  0  0  0  0  0  0  0  0  0  0
   -2.3930    0.6605    1.7722 N   0  0  0  0  0  0  0  0  0  0  0  0
   -3.2451    0.5077    1.2518 H   0  0  0  0  0  0  0  0  0  0  0  0
   -2.4787    1.3954    3.0311 C   0  0  0  0  0  0  0  0  0  0  0  0
   -1.7166    2.1767    3.0539 H   0  0  0  0  0  0  0  0  0  0  0  0
   -3.4649    1.8498    3.1344 H   0  0  0  0  0  0  0  0  0  0  0  0
   -2.3058    0.7133    3.8652 H   0  0  0  0  0  0  0  0  0  0  0  0
  5  6  2  0  0  0  0
  5  7  1  0  0  0  0
  2  3  1  0  0  0  0
  2  4  1  0  0  0  0
  2  5  1  0  0  0  0
  1  2  1  0  0  0  0
 29 30  2  0  0  0  0
 29 31  1  0  0  0  0
 26 27  1  0  0  0  0
 26 28  2  0  0  0  0
 24 25  1  0  0  0  0
 24 26  1  0  0  0  0
 22 23  1  0  0  0  0
 22 24  2  0  0  0  0
 20 21  1  0  0  0  0
 20 22  1  0  0  0  0
 19 20  2  0  0  0  0
 19 28  1  0  0  0  0
 17 18  1  0  0  0  0
 17 19  1  0  0  0  0
 15 16  1  0  0  0  0
 15 17  1  0  0  0  0
 14 15  2  0  0  0  0
 14 28  1  0  0  0  0
 11 12  1  0  0  0  0
 11 13  1  0  0  0  0
 11 14  1  0  0  0  0
  9 10  1  0  0  0  0
  9 11  1  0  0  0  0
  9 29  1  0  0  0  0
  7  8  1  0  0  0  0
  7  9  1  0  0  0  0
 33 34  1  0  0  0  0
 33 35  1  0  0  0  0
 33 36  1  0  0  0  0
 31 32  1  0  0  0  0
 31 33  1  0  0  0  0
M  END
$$$$
default_name
  -OEChem-02102213163D

 36 37  0     1  0  0  0  0  0999 V2000
   -4.0843   -4.0736    1.2944 H   0  0  0  0  0  0  0  0  0  0  0  0
   -4.0342   -3.2816    0.5484 C   0  0  0  0  0  0  0  0  0  0  0  0
   -4.8842   -2.6126    0.6694 H   0  0  0  0  0  0  0  0  0  0  0  0
   -4.0433   -3.7186   -0.4486 H   0  0  0  0  0  0  0  0  0  0  0  0
   -2.7532   -2.5046    0.7444 C   0  0  0  0  0  0  0  0  0  0  0  0
   -1.9803   -2.8096    1.6434 O   0  0  0  0  0  0  0  0  0  0  0  0
   -2.5332   -1.4966   -0.0966 N   0  0  0  0  0  0  0  0  0  0  0  0
   -3.2312   -1.2816   -0.7936 H   0  0  0  0  0  0  0  0  0  0  0  0
   -1.3593   -0.6196   -0.0536 C   0  0  1  0  0  0  0  0  0  0  0  0
   -0.4622   -1.2317   -0.1545 H   0  0  0  0  0  0  0  0  0  0  0  0
   -1.4074    0.3593   -1.2373 C   0  0  0  0  0  0  0  0  0  0  0  0
   -2.1586    0.0133   -1.9495 H   0  0  0  0  0  0  0  0  0  0  0  0
   -1.7271    1.3352   -0.8680 H   0  0  0  0  0  0  0  0  0  0  0  0
   -0.1141    0.5310   -1.9748 C   0  0  0  0  0  0  0  0  0  0  0  0
    0.8384    1.4471   -1.6898 C   0  0  0  0  0  0  0  0  0  0  0  0
    0.7681    2.1845   -0.8977 H   0  0  0  0  0  0  0  0  0  0  0  0
    1.9109    1.2830   -2.5444 N   0  0  0  0  0  0  0  0  0  0  0  0
    2.7381    1.8611   -2.5174 H   0  0  0  0  0  0  0  0  0  0  0  0
    1.7086    0.2354   -3.4174 C   0  0  0  0  0  0  0  0  0  0  0  0
    2.4939   -0.3327   -4.4308 C   0  0  0  0  0  0  0  0  0  0  0  0
    3.4731    0.0655   -4.6526 H   0  0  0  0  0  0  0  0  0  0  0  0
    1.9882   -1.4260   -5.1547 C   0  0  0  0  0  0  0  0  0  0  0  0
    2.5793   -1.8764   -5.9406 H   0  0  0  0  0  0  0  0  0  0  0  0
    0.7082   -1.9300   -4.8600 C   0  0  0  0  0  0  0  0  0  0  0  0
    0.3197   -2.7660   -5.4250 H   0  0  0  0  0  0  0  0  0  0  0  0
   -0.0732   -1.3499   -3.8406 C   0  0  0  0  0  0  0  0  0  0  0  0
   -1.0602   -1.7384   -3.6335 H   0  0  0  0  0  0  0  0  0  0  0  0
    0.4086   -0.2548   -3.0912 C   0  0  0  0  0  0  0  0  0  0  0  0
   -1.2663    0.1182    1.2910 C   0  0  0  0  0  0  0  0  0  0  0  0
   -0.1906    0.1931    1.8833 O   0  0  0  0  0  0  0  0  0  0  0  0
   -2.3930    0.6605    1.7722 N   0  0  0  0  0  0  0  0  0  0  0  0
   -3.2451    0.5077    1.2518 H   0  0  0  0  0  0  0  0  0  0  0  0
   -2.4787    1.3954    3.0311 C   0  0  0  0  0  0  0  0  0  0  0  0
   -1.7166    2.1767    3.0539 H   0  0  0  0  0  0  0  0  0  0  0  0
   -3.4649    1.8498    3.1344 H   0  0  0  0  0  0  0  0  0  0  0  0
   -2.3058    0.7133    3.8652 H   0  0  0  0  0  0  0  0  0  0  0  0
  5  6  2  0  0  0  0
  5  7  1  0  0  0  0
  2  3  1  0  0  0  0
  2  4  1  0  0  0  0
  2  5  1  0  0  0  0
  1  2  1  0  0  0  0
 29 30  2  0  0  0  0
 29 31  1  0  0  0  0
 26 27  1  0  0  0  0
 26 28  2  0  0  0  0
 24 25  1  0  0  0  0
 24 26  1  0  0  0  0
 22 23  1  0  0  0  0
 22 24  2  0  0  0  0
 20 21  1  0  0  0  0
 20 22  1  0  0  0  0
 19 20  2  0  0  0  0
 19 28  1  0  0  0  0
 17 18  1  0  0  0  0
 17 19  1  0  0  0  0
 15 16  1  0  0  0  0
 15 17  1  0  0  0  0
 14 15  2  0  0  0  0
 14 28  1  0  0  0  0
 11 12  1  0  0  0  0
 11 13  1  0  0  0  0
 11 14  1  0  0  0  0
  9 10  1  0  0  0  0
  9 11  1  0  0  0  0
  9 29  1  0  0  0  0
  7  8  1  0  0  0  0
  7  9  1  0  0  0  0
 33 34  1  0  0  0  0
 33 35  1  0  0  0  0
 33 36  1  0  0  0  0
 31 32  1  0  0  0  0
 31 33  1  0  0  0  0
M  END
$$$$
default_name
  -OEChem-02102213163D

 36 37  0     1  0  0  0  0  0999 V2000
   -4.0843   -4.0736    1.2944 H   0  0  0  0  0  0  0  0  0  0  0  0
   -4.0342   -3.2816    0.5484 C   0  0  0  0  0  0  0  0  0  0  0  0
   -4.8842   -2.6126    0.6694 H   0  0  0  0  0  0  0  0  0  0  0  0
   -4.0433   -3.7186   -0.4486 H   0  0  0  0  0  0  0  0  0  0  0  0
   -2.7532   -2.5046    0.7444 C   0  0  0  0  0  0  0  0  0  0  0  0
   -1.9803   -2.8096    1.6434 O   0  0  0  0  0  0  0  0  0  0  0  0
   -2.5332   -1.4966   -0.0966 N   0  0  0  0  0  0  0  0  0  0  0  0
   -3.2312   -1.2816   -0.7936 H   0  0  0  0  0  0  0  0  0  0  0  0
   -1.3593   -0.6196   -0.0536 C   0  0  1  0  0  0  0  0  0  0  0  0
   -0.4622   -1.2317   -0.1545 H   0  0  0  0  0  0  0  0  0  0  0  0
   -1.4074    0.3593   -1.2373 C   0  0  0  0  0  0  0  0  0  0  0  0
   -2.1586    0.0133   -1.9495 H   0  0  0  0  0  0  0  0  0  0  0  0
   -1.7271    1.3352   -0.8680 H   0  0  0  0  0  0  0  0  0  0  0  0
   -0.1141    0.5310   -1.9748 C   0  0  0  0  0  0  0  0  0  0  0  0
    0.9542    1.2340   -1.5363 C   0  0  0  0  0  0  0  0  0  0  0  0
    0.9929    1.7769   -0.5982 H   0  0  0  0  0  0  0  0  0  0  0  0
    1.9829    1.1350   -2.4524 N   0  0  0  0  0  0  0  0  0  0  0  0
    2.8789    1.5850   -2.3347 H   0  0  0  0  0  0  0  0  0  0  0  0
    1.6322    0.3443   -3.5260 C   0  0  0  0  0  0  0  0  0  0  0  0
    2.3211   -0.0738   -4.6736 C   0  0  0  0  0  0  0  0  0  0  0  0
    3.3405    0.2396   -4.8447 H   0  0  0  0  0  0  0  0  0  0  0  0
    1.6659   -0.9045   -5.5986 C   0  0  0  0  0  0  0  0  0  0  0  0
    2.1810   -1.2360   -6.4900 H   0  0  0  0  0  0  0  0  0  0  0  0
    0.3356   -1.2993   -5.3667 C   0  0  0  0  0  0  0  0  0  0  0  0
   -0.1675   -1.9316   -6.0851 H   0  0  0  0  0  0  0  0  0  0  0  0
   -0.3478   -0.8714   -4.2107 C   0  0  0  0  0  0  0  0  0  0  0  0
   -1.3738   -1.1711   -4.0514 H   0  0  0  0  0  0  0  0  0  0  0  0
    0.2844   -0.0417   -3.2595 C   0  0  0  0  0  0  0  0  0  0  0  0
   -1.2663    0.1182    1.2910 C   0  0  0  0  0  0  0  0  0  0  0  0
   -0.1906    0.1931    1.8833 O   0  0  0  0  0  0  0  0  0  0  0  0
   -2.3930    0.6605    1.7722 N   0  0  0  0  0  0  0  0  0  0  0  0
   -3.2451    0.5077    1.2518 H   0  0  0  0  0  0  0  0  0  0  0  0
   -2.4787    1.3954    3.0311 C   0  0  0  0  0  0  0  0  0  0  0  0
   -1.7166    2.1767    3.0539 H   0  0  0  0  0  0  0  0  0  0  0  0
   -3.4649    1.8498    3.1344 H   0  0  0  0  0  0  0  0  0  0  0  0
   -2.3058    0.7133    3.8652 H   0  0  0  0  0  0  0  0  0  0  0  0
  5  6  2  0  0  0  0
  5  7  1  0  0  0  0
  2  3  1  0  0  0  0
  2  4  1  0  0  0  0
  2  5  1  0  0  0  0
  1  2  1  0  0  0  0
 29 30  2  0  0  0  0
 29 31  1  0  0  0  0
 26 27  1  0  0  0  0
 26 28  2  0  0  0  0
 24 25  1  0  0  0  0
 24 26  1  0  0  0  0
 22 23  1  0  0  0  0
 22 24  2  0  0  0  0
 20 21  1  0  0  0  0
 20 22  1  0  0  0  0
 19 20  2  0  0  0  0
 19 28  1  0  0  0  0
 17 18  1  0  0  0  0
 17 19  1  0  0  0  0
 15 16  1  0  0  0  0
 15 17  1  0  0  0  0
 14 15  2  0  0  0  0
 14 28  1  0  0  0  0
 11 12  1  0  0  0  0
 11 13  1  0  0  0  0
 11 14  1  0  0  0  0
  9 10  1  0  0  0  0
  9 11  1  0  0  0  0
  9 29  1  0  0  0  0
  7  8  1  0  0  0  0
  7  9  1  0  0  0  0
 33 34  1  0  0  0  0
 33 35  1  0  0  0  0
 33 36  1  0  0  0  0
 31 32  1  0  0  0  0
 31 33  1  0  0  0  0
M  END
$$$$
default_name
  -OEChem-02102213163D

 36 37  0     1  0  0  0  0  0999 V2000
   -4.0843   -4.0736    1.2944 H   0  0  0  0  0  0  0  0  0  0  0  0
   -4.0342   -3.2816    0.5484 C   0  0  0  0  0  0  0  0  0  0  0  0
   -4.8842   -2.6126    0.6694 H   0  0  0  0  0  0  0  0  0  0  0  0
   -4.0433   -3.7186   -0.4486 H   0  0  0  0  0  0  0  0  0  0  0  0
   -2.7532   -2.5046    0.7444 C   0  0  0  0  0  0  0  0  0  0  0  0
   -1.9803   -2.8096    1.6434 O   0  0  0  0  0  0  0  0  0  0  0  0
   -2.5332   -1.4966   -0.0966 N   0  0  0  0  0  0  0  0  0  0  0  0
   -3.2312   -1.2816   -0.7936 H   0  0  0  0  0  0  0  0  0  0  0  0
   -1.3593   -0.6196   -0.0536 C   0  0  1  0  0  0  0  0  0  0  0  0
   -0.4622   -1.2317   -0.1545 H   0  0  0  0  0  0  0  0  0  0  0  0
   -1.4074    0.3593   -1.2373 C   0  0  0  0  0  0  0  0  0  0  0  0
   -2.1586    0.0133   -1.9495 H   0  0  0  0  0  0  0  0  0  0  0  0
   -1.7271    1.3352   -0.8680 H   0  0  0  0  0  0  0  0  0  0  0  0
   -0.1141    0.5310   -1.9748 C   0  0  0  0  0  0  0  0  0  0  0  0
    1.0434    0.9791   -1.4390 C   0  0  0  0  0  0  0  0  0  0  0  0
    1.1670    1.2876   -0.4067 H   0  0  0  0  0  0  0  0  0  0  0  0
    2.0364    0.9622   -2.3989 N   0  0  0  0  0  0  0  0  0  0  0  0
    2.9852    1.2595   -2.2240 H   0  0  0  0  0  0  0  0  0  0  0  0
    1.5690    0.4835   -3.6043 C   0  0  0  0  0  0  0  0  0  0  0  0
    2.1799    0.2526   -4.8453 C   0  0  0  0  0  0  0  0  0  0  0  0
    3.2288    0.4675   -4.9875 H   0  0  0  0  0  0  0  0  0  0  0  0
    1.4077   -0.2606   -5.9014 C   0  0  0  0  0  0  0  0  0  0  0  0
    1.8616   -0.4440   -6.8659 H   0  0  0  0  0  0  0  0  0  0  0  0
    0.0409   -0.5294   -5.7042 C   0  0  0  0  0  0  0  0  0  0  0  0
   -0.5513   -0.9163   -6.5219 H   0  0  0  0  0  0  0  0  0  0  0  0
   -0.5630   -0.2916   -4.4532 C   0  0  0  0  0  0  0  0  0  0  0  0
   -1.6169   -0.4898   -4.3191 H   0  0  0  0  0  0  0  0  0  0  0  0
    0.1866    0.2175   -3.3707 C   0  0  0  0  0  0  0  0  0  0  0  0
   -1.2663    0.1182    1.2910 C   0  0  0  0  0  0  0  0  0  0  0  0
   -0.1906    0.1931    1.8833 O   0  0  0  0  0  0  0  0  0  0  0  0
   -2.3930    0.6605    1.7722 N   0  0  0  0  0  0  0  0  0  0  0  0
   -3.2451    0.5077    1.2518 H   0  0  0  0  0  0  0  0  0  0  0  0
   -2.4787    1.3954    3.0311 C   0  0  0  0  0  0  0  0  0  0  0  0
   -1.7166    2.1767    3.0539 H   0  0  0  0  0  0  0  0  0  0  0  0
   -3.4649    1.8498    3.1344 H   0  0  0  0  0  0  0  0  0  0  0  0
   -2.3058    0.7133    3.8652 H   0  0  0  0  0  0  0  0  0  0  0  0
  5  6  2  0  0  0  0
  5  7  1  0  0  0  0
  2  3  1  0  0  0  0
  2  4  1  0  0  0  0
  2  5  1  0  0  0  0
  1  2  1  0  0  0  0
 29 30  2  0  0  0  0
 29 31  1  0  0  0  0
 26 27  1  0  0  0  0
 26 28  2  0  0  0  0
 24 25  1  0  0  0  0
 24 26  1  0  0  0  0
 22 23  1  0  0  0  0
 22 24  2  0  0  0  0
 20 21  1  0  0  0  0
 20 22  1  0  0  0  0
 19 20  2  0  0  0  0
 19 28  1  0  0  0  0
 17 18  1  0  0  0  0
 17 19  1  0  0  0  0
 15 16  1  0  0  0  0
 15 17  1  0  0  0  0
 14 15  2  0  0  0  0
 14 28  1  0  0  0  0
 11 12  1  0  0  0  0
 11 13  1  0  0  0  0
 11 14  1  0  0  0  0
  9 10  1  0  0  0  0
  9 11  1  0  0  0  0
  9 29  1  0  0  0  0
  7  8  1  0  0  0  0
  7  9  1  0  0  0  0
 33 34  1  0  0  0  0
 33 35  1  0  0  0  0
 33 36  1  0  0  0  0
 31 32  1  0  0  0  0
 31 33  1  0  0  0  0
M  END
$$$$
default_name
  -OEChem-02102213163D

 36 37  0     1  0  0  0  0  0999 V2000
   -4.0843   -4.0736    1.2944 H   0  0  0  0  0  0  0  0  0  0  0  0
   -4.0342   -3.2816    0.5484 C   0  0  0  0  0  0  0  0  0  0  0  0
   -4.8842   -2.6126    0.6694 H   0  0  0  0  0  0  0  0  0  0  0  0
   -4.0433   -3.7186   -0.4486 H   0  0  0  0  0  0  0  0  0  0  0  0
   -2.7532   -2.5046    0.7444 C   0  0  0  0  0  0  0  0  0  0  0  0
   -1.9803   -2.8096    1.6434 O   0  0  0  0  0  0  0  0  0  0  0  0
   -2.5332   -1.4966   -0.0966 N   0  0  0  0  0  0  0  0  0  0  0  0
   -3.2312   -1.2816   -0.7936 H   0  0  0  0  0  0  0  0  0  0  0  0
   -1.3593   -0.6196   -0.0536 C   0  0  1  0  0  0  0  0  0  0  0  0
   -0.4622   -1.2317   -0.1545 H   0  0  0  0  0  0  0  0  0  0  0  0
   -1.4074    0.3593   -1.2373 C   0  0  0  0  0  0  0  0  0  0  0  0
   -2.1586    0.0133   -1.9495 H   0  0  0  0  0  0  0  0  0  0  0  0
   -1.7271    1.3352   -0.8680 H   0  0  0  0  0  0  0  0  0  0  0  0
   -0.1141    0.5310   -1.9748 C   0  0  0  0  0  0  0  0  0  0  0  0
    1.1001    0.6998   -1.4047 C   0  0  0  0  0  0  0  0  0  0  0  0
    1.2786    0.7501   -0.3362 H   0  0  0  0  0  0  0  0  0  0  0  0
    2.0676    0.7766   -2.3873 N   0  0  0  0  0  0  0  0  0  0  0  0
    3.0497    0.9068   -2.1930 H   0  0  0  0  0  0  0  0  0  0  0  0
    1.5235    0.6435   -3.6470 C   0  0  0  0  0  0  0  0  0  0  0  0
    2.0800    0.6242   -4.9340 C   0  0  0  0  0  0  0  0  0  0  0  0
    3.1457    0.7339   -5.0712 H   0  0  0  0  0  0  0  0  0  0  0  0
    1.2315    0.4619   -6.0424 C   0  0  0  0  0  0  0  0  0  0  0  0
    1.6427    0.4456   -7.0427 H   0  0  0  0  0  0  0  0  0  0  0  0
   -0.1556    0.3272   -5.8496 C   0  0  0  0  0  0  0  0  0  0  0  0
   -0.8057    0.2110   -6.7057 H   0  0  0  0  0  0  0  0  0  0  0  0
   -0.7042    0.3501   -4.5516 C   0  0  0  0  0  0  0  0  0  0  0  0
   -1.7728    0.2590   -4.4183 H   0  0  0  0  0  0  0  0  0  0  0  0
    0.1218    0.5053   -3.4173 C   0  0  0  0  0  0  0  0  0  0  0  0
   -1.2663    0.1182    1.2910 C   0  0  0  0  0  0  0  0  0  0  0  0
   -0.1906    0.1931    1.8833 O   0  0  0  0  0  0  0  0  0  0  0  0
   -2.3930    0.6605    1.7722 N   0  0  0  0  0  0  0  0  0  0  0  0
   -3.2451    0.5077    1.2518 H   0  0  0  0  0  0  0  0  0  0  0  0
   -2.4787    1.3954    3.0311 C   0  0  0  0  0  0  0  0  0  0  0  0
   -1.7166    2.1767    3.0539 H   0  0  0  0  0  0  0  0  0  0  0  0
   -3.4649    1.8498    3.1344 H   0  0  0  0  0  0  0  0  0  0  0  0
   -2.3058    0.7133    3.8652 H   0  0  0  0  0  0  0  0  0  0  0  0
  5  6  2  0  0  0  0
  5  7  1  0  0  0  0
  2  3  1  0  0  0  0
  2  4  1  0  0  0  0
  2  5  1  0  0  0  0
  1  2  1  0  0  0  0
 29 30  2  0  0  0  0
 29 31  1  0  0  0  0
 26 27  1  0  0  0  0
 26 28  2  0  0  0  0
 24 25  1  0  0  0  0
 24 26  1  0  0  0  0
 22 23  1  0  0  0  0
 22 24  2  0  0  0  0
 20 21  1  0  0  0  0
 20 22  1  0  0  0  0
 19 20  2  0  0  0  0
 19 28  1  0  0  0  0
 17 18  1  0  0  0  0
 17 19  1  0  0  0  0
 15 16  1  0  0  0  0
 15 17  1  0  0  0  0
 14 15  2  0  0  0  0
 14 28  1  0  0  0  0
 11 12  1  0  0  0  0
 11 13  1  0  0  0  0
 11 14  1  0  0  0  0
  9 10  1  0  0  0  0
  9 11  1  0  0  0  0
  9 29  1  0  0  0  0
  7  8  1  0  0  0  0
  7  9  1  0  0  0  0
 33 34  1  0  0  0  0
 33 35  1  0  0  0  0
 33 36  1  0  0  0  0
 31 32  1  0  0  0  0
 31 33  1  0  0  0  0
M  END
$$$$
default_name
  -OEChem-02102213163D

 36 37  0     1  0  0  0  0  0999 V2000
   -4.0843   -4.0736    1.2944 H   0  0  0  0  0  0  0  0  0  0  0  0
   -4.0342   -3.2816    0.5484 C   0  0  0  0  0  0  0  0  0  0  0  0
   -4.8842   -2.6126    0.6694 H   0  0  0  0  0  0  0  0  0  0  0  0
   -4.0433   -3.7186   -0.4486 H   0  0  0  0  0  0  0  0  0  0  0  0
   -2.7532   -2.5046    0.7444 C   0  0  0  0  0  0  0  0  0  0  0  0
   -1.9803   -2.8096    1.6434 O   0  0  0  0  0  0  0  0  0  0  0  0
   -2.5332   -1.4966   -0.0966 N   0  0  0  0  0  0  0  0  0  0  0  0
   -3.2312   -1.2816   -0.7936 H   0  0  0  0  0  0  0  0  0  0  0  0
   -1.3593   -0.6196   -0.0536 C   0  0  1  0  0  0  0  0  0  0  0  0
   -0.4622   -1.2317   -0.1545 H   0  0  0  0  0  0  0  0  0  0  0  0
   -1.4074    0.3593   -1.2373 C   0  0  0  0  0  0  0  0  0  0  0  0
   -2.1586    0.0133   -1.9495 H   0  0  0  0  0  0  0  0  0  0  0  0
   -1.7271    1.3352   -0.8680 H   0  0  0  0  0  0  0  0  0  0  0  0
   -0.1141    0.5310   -1.9748 C   0  0  0  0  0  0  0  0  0  0  0  0
    1.1203    0.4152   -1.4356 C   0  0  0  0  0  0  0  0  0  0  0  0
    1.3200    0.2009   -0.3914 H   0  0  0  0  0  0  0  0  0  0  0  0
    2.0745    0.5907   -2.4185 N   0  0  0  0  0  0  0  0  0  0  0  0
    3.0680    0.5510   -2.2437 H   0  0  0  0  0  0  0  0  0  0  0  0
    1.4986    0.8133   -3.6511 C   0  0  0  0  0  0  0  0  0  0  0  0
    2.0282    1.0156   -4.9337 C   0  0  0  0  0  0  0  0  0  0  0  0
    3.0969    1.0204   -5.0901 H   0  0  0  0  0  0  0  0  0  0  0  0
    1.1490    1.2137   -6.0120 C   0  0  0  0  0  0  0  0  0  0  0  0
    1.5394    1.3723   -7.0082 H   0  0  0  0  0  0  0  0  0  0  0  0
   -0.2407    1.2121   -5.7928 C   0  0  0  0  0  0  0  0  0  0  0  0
   -0.9133    1.3732   -6.6239 H   0  0  0  0  0  0  0  0  0  0  0  0
   -0.7618    1.0098   -4.4990 C   0  0  0  0  0  0  0  0  0  0  0  0
   -1.8310    1.0243   -4.3423 H   0  0  0  0  0  0  0  0  0  0  0  0
    0.0945    0.8018   -3.3962 C   0  0  0  0  0  0  0  0  0  0  0  0
   -1.2663    0.1182    1.2910 C   0  0  0  0  0  0  0  0  0  0  0  0
   -0.1906    0.1931    1.8833 O   0  0  0  0  0  0  0  0  0  0  0  0
   -2.3930    0.6605    1.7722 N   0  0  0  0  0  0  0  0  0  0  0  0
   -3.2451    0.5077    1.2518 H   0  0  0  0  0  0  0  0  0  0  0  0
   -2.4787    1.3954    3.0311 C   0  0  0  0  0  0  0  0  0  0  0  0
   -1.7166    2.1767    3.0539 H   0  0  0  0  0  0  0  0  0  0  0  0
   -3.4649    1.8498    3.1344 H   0  0  0  0  0  0  0  0  0  0  0  0
   -2.3058    0.7133    3.8652 H   0  0  0  0  0  0  0  0  0  0  0  0
  5  6  2  0  0  0  0
  5  7  1  0  0  0  0
  2  3  1  0  0  0  0
  2  4  1  0  0  0  0
  2  5  1  0  0  0  0
  1  2  1  0  0  0  0
 29 30  2  0  0  0  0
 29 31  1  0  0  0  0
 26 27  1  0  0  0  0
 26 28  2  0  0  0  0
 24 25  1  0  0  0  0
 24 26  1  0  0  0  0
 22 23  1  0  0  0  0
 22 24  2  0  0  0  0
 20 21  1  0  0  0  0
 20 22  1  0  0  0  0
 19 20  2  0  0  0  0
 19 28  1  0  0  0  0
 17 18  1  0  0  0  0
 17 19  1  0  0  0  0
 15 16  1  0  0  0  0
 15 17  1  0  0  0  0
 14 15  2  0  0  0  0
 14 28  1  0  0  0  0
 11 12  1  0  0  0  0
 11 13  1  0  0  0  0
 11 14  1  0  0  0  0
  9 10  1  0  0  0  0
  9 11  1  0  0  0  0
  9 29  1  0  0  0  0
  7  8  1  0  0  0  0
  7  9  1  0  0  0  0
 33 34  1  0  0  0  0
 33 35  1  0  0  0  0
 33 36  1  0  0  0  0
 31 32  1  0  0  0  0
 31 33  1  0  0  0  0
M  END
$$$$
default_name
  -OEChem-02102213163D

 36 37  0     1  0  0  0  0  0999 V2000
   -4.0843   -4.0736    1.2944 H   0  0  0  0  0  0  0  0  0  0  0  0
   -4.0342   -3.2816    0.5484 C   0  0  0  0  0  0  0  0  0  0  0  0
   -4.8842   -2.6126    0.6694 H   0  0  0  0  0  0  0  0  0  0  0  0
   -4.0433   -3.7186   -0.4486 H   0  0  0  0  0  0  0  0  0  0  0  0
   -2.7532   -2.5046    0.7444 C   0  0  0  0  0  0  0  0  0  0  0  0
   -1.9803   -2.8096    1.6434 O   0  0  0  0  0  0  0  0  0  0  0  0
   -2.5332   -1.4966   -0.0966 N   0  0  0  0  0  0  0  0  0  0  0  0
   -3.2312   -1.2816   -0.7936 H   0  0  0  0  0  0  0  0  0  0  0  0
   -1.3593   -0.6196   -0.0536 C   0  0  1  0  0  0  0  0  0  0  0  0
   -0.4622   -1.2317   -0.1545 H   0  0  0  0  0  0  0  0  0  0  0  0
   -1.4074    0.3593   -1.2373 C   0  0  0  0  0  0  0  0  0  0  0  0
   -2.1586    0.0133   -1.9495 H   0  0  0  0  0  0  0  0  0  0  0  0
   -1.7271    1.3352   -0.8680 H   0  0  0  0  0  0  0  0  0  0  0  0
   -0.1141    0.5310   -1.9748 C   0  0  0  0  0  0  0  0  0  0  0  0
    1.1026    0.1446   -1.5296 C   0  0  0  0  0  0  0  0  0  0  0  0
    1.2884   -0.3225   -0.5686 H   0  0  0  0  0  0  0  0  0  0  0  0
    2.0566    0.4173   -2.4903 N   0  0  0  0  0  0  0  0  0  0  0  0
    3.0389    0.2163   -2.3726 H   0  0  0  0  0  0  0  0  0  0  0  0
    1.4960    0.9815   -3.6165 C   0  0  0  0  0  0  0  0  0  0  0  0
    2.0280    1.4002   -4.8445 C   0  0  0  0  0  0  0  0  0  0  0  0
    3.0857    1.3076   -5.0430 H   0  0  0  0  0  0  0  0  0  0  0  0
    1.1660    1.9436   -5.8123 C   0  0  0  0  0  0  0  0  0  0  0  0
    1.5586    2.2729   -6.7649 H   0  0  0  0  0  0  0  0  0  0  0  0
   -0.2085    2.0650   -5.5378 C   0  0  0  0  0  0  0  0  0  0  0  0
   -0.8667    2.4913   -6.2821 H   0  0  0  0  0  0  0  0  0  0  0  0
   -0.7319    1.6427   -4.2992 C   0  0  0  0  0  0  0  0  0  0  0  0
   -1.7875    1.7539   -4.0962 H   0  0  0  0  0  0  0  0  0  0  0  0
    0.1066    1.0871   -3.3087 C   0  0  0  0  0  0  0  0  0  0  0  0
   -1.2663    0.1182    1.2910 C   0  0  0  0  0  0  0  0  0  0  0  0
   -0.1906    0.1931    1.8833 O   0  0  0  0  0  0  0  0  0  0  0  0
   -2.3930    0.6605    1.7722 N   0  0  0  0  0  0  0  0  0  0  0  0
   -3.2451    0.5077    1.2518 H   0  0  0  0  0  0  0  0  0  0  0  0
   -2.4787    1.3954    3.0311 C   0  0  0  0  0  0  0  0  0  0  0  0
   -1.7166    2.1767    3.0539 H   0  0  0  0  0  0  0  0  0  0  0  0
   -3.4649    1.8498    3.1344 H   0  0  0  0  0  0  0  0  0  0  0  0
   -2.3058    0.7133    3.8652 H   0  0  0  0  0  0  0  0  0  0  0  0
  5  6  2  0  0  0  0
  5  7  1  0  0  0  0
  2  3  1  0  0  0  0
  2  4  1  0  0  0  0
  2  5  1  0  0  0  0
  1  2  1  0  0  0  0
 29 30  2  0  0  0  0
 29 31  1  0  0  0  0
 26 27  1  0  0  0  0
 26 28  2  0  0  0  0
 24 25  1  0  0  0  0
 24 26  1  0  0  0  0
 22 23  1  0  0  0  0
 22 24  2  0  0  0  0
 20 21  1  0  0  0  0
 20 22  1  0  0  0  0
 19 20  2  0  0  0  0
 19 28  1  0  0  0  0
 17 18  1  0  0  0  0
 17 19  1  0  0  0  0
 15 16  1  0  0  0  0
 15 17  1  0  0  0  0
 14 15  2  0  0  0  0
 14 28  1  0  0  0  0
 11 12  1  0  0  0  0
 11 13  1  0  0  0  0
 11 14  1  0  0  0  0
  9 10  1  0  0  0  0
  9 11  1  0  0  0  0
  9 29  1  0  0  0  0
  7  8  1  0  0  0  0
  7  9  1  0  0  0  0
 33 34  1  0  0  0  0
 33 35  1  0  0  0  0
 33 36  1  0  0  0  0
 31 32  1  0  0  0  0
 31 33  1  0  0  0  0
M  END
$$$$
default_name
  -OEChem-02102213163D

 36 37  0     1  0  0  0  0  0999 V2000
   -4.0843   -4.0736    1.2944 H   0  0  0  0  0  0  0  0  0  0  0  0
   -4.0342   -3.2816    0.5484 C   0  0  0  0  0  0  0  0  0  0  0  0
   -4.8842   -2.6126    0.6694 H   0  0  0  0  0  0  0  0  0  0  0  0
   -4.0433   -3.7186   -0.4486 H   0  0  0  0  0  0  0  0  0  0  0  0
   -2.7532   -2.5046    0.7444 C   0  0  0  0  0  0  0  0  0  0  0  0
   -1.9803   -2.8096    1.6434 O   0  0  0  0  0  0  0  0  0  0  0  0
   -2.5332   -1.4966   -0.0966 N   0  0  0  0  0  0  0  0  0  0  0  0
   -3.2312   -1.2816   -0.7936 H   0  0  0  0  0  0  0  0  0  0  0  0
   -1.3593   -0.6196   -0.0536 C   0  0  1  0  0  0  0  0  0  0  0  0
   -0.4622   -1.2317   -0.1545 H   0  0  0  0  0  0  0  0  0  0  0  0
   -1.4074    0.3593   -1.2373 C   0  0  0  0  0  0  0  0  0  0  0  0
   -2.1586    0.0133   -1.9495 H   0  0  0  0  0  0  0  0  0  0  0  0
   -1.7271    1.3352   -0.8680 H   0  0  0  0  0  0  0  0  0  0  0  0
   -0.1141    0.5310   -1.9748 C   0  0  0  0  0  0  0  0  0  0  0  0
    1.0482   -0.0936   -1.6803 C   0  0  0  0  0  0  0  0  0  0  0  0
    1.1859   -0.7845   -0.8558 H   0  0  0  0  0  0  0  0  0  0  0  0
    2.0150    0.2681   -2.5979 N   0  0  0  0  0  0  0  0  0  0  0  0
    2.9643   -0.0744   -2.5711 H   0  0  0  0  0  0  0  0  0  0  0  0
    1.5160    1.1365   -3.5453 C   0  0  0  0  0  0  0  0  0  0  0  0
    2.0795    1.7518   -4.6724 C   0  0  0  0  0  0  0  0  0  0  0  0
    3.1128    1.5759   -4.9329 H   0  0  0  0  0  0  0  0  0  0  0  0
    1.2814    2.6019   -5.4569 C   0  0  0  0  0  0  0  0  0  0  0  0
    1.6992    3.0860   -6.3292 H   0  0  0  0  0  0  0  0  0  0  0  0
   -0.0611    2.8278   -5.1019 C   0  0  0  0  0  0  0  0  0  0  0  0
   -0.6692    3.4891   -5.7036 H   0  0  0  0  0  0  0  0  0  0  0  0
   -0.6164    2.2056   -3.9658 C   0  0  0  0  0  0  0  0  0  0  0  0
   -1.6453    2.3982   -3.6968 H   0  0  0  0  0  0  0  0  0  0  0  0
    0.1571    1.3415   -3.1608 C   0  0  0  0  0  0  0  0  0  0  0  0
   -1.2663    0.1182    1.2910 C   0  0  0  0  0  0  0  0  0  0  0  0
   -0.1906    0.1931    1.8833 O   0  0  0  0  0  0  0  0  0  0  0  0
   -2.3930    0.6605    1.7722 N   0  0  0  0  0  0  0  0  0  0  0  0
   -3.2451    0.5077    1.2518 H   0  0  0  0  0  0  0  0  0  0  0  0
   -2.4787    1.3954    3.0311 C   0  0  0  0  0  0  0  0  0  0  0  0
   -1.7166    2.1767    3.0539 H   0  0  0  0  0  0  0  0  0  0  0  0
   -3.4649    1.8498    3.1344 H   0  0  0  0  0  0  0  0  0  0  0  0
   -2.3058    0.7133    3.8652 H   0  0  0  0  0  0  0  0  0  0  0  0
  5  6  2  0  0  0  0
  5  7  1  0  0  0  0
  2  3  1  0  0  0  0
  2  4  1  0  0  0  0
  2  5  1  0  0  0  0
  1  2  1  0  0  0  0
 29 30  2  0  0  0  0
 29 31  1  0  0  0  0
 26 27  1  0  0  0  0
 26 28  2  0  0  0  0
 24 25  1  0  0  0  0
 24 26  1  0  0  0  0
 22 23  1  0  0  0  0
 22 24  2  0  0  0  0
 20 21  1  0  0  0  0
 20 22  1  0  0  0  0
 19 20  2  0  0  0  0
 19 28  1  0  0  0  0
 17 18  1  0  0  0  0
 17 19  1  0  0  0  0
 15 16  1  0  0  0  0
 15 17  1  0  0  0  0
 14 15  2  0  0  0  0
 14 28  1  0  0  0  0
 11 12  1  0  0  0  0
 11 13  1  0  0  0  0
 11 14  1  0  0  0  0
  9 10  1  0  0  0  0
  9 11  1  0  0  0  0
  9 29  1  0  0  0  0
  7  8  1  0  0  0  0
  7  9  1  0  0  0  0
 33 34  1  0  0  0  0
 33 35  1  0  0  0  0
 33 36  1  0  0  0  0
 31 32  1  0  0  0  0
 31 33  1  0  0  0  0
M  END
$$$$
default_name
  -OEChem-02102213163D

 36 37  0     1  0  0  0  0  0999 V2000
   -4.0843   -4.0736    1.2944 H   0  0  0  0  0  0  0  0  0  0  0  0
   -4.0342   -3.2816    0.5484 C   0  0  0  0  0  0  0  0  0  0  0  0
   -4.8842   -2.6126    0.6694 H   0  0  0  0  0  0  0  0  0  0  0  0
   -4.0433   -3.7186   -0.4486 H   0  0  0  0  0  0  0  0  0  0  0  0
   -2.7532   -2.5046    0.7444 C   0  0  0  0  0  0  0  0  0  0  0  0
   -1.9803   -2.8096    1.6434 O   0  0  0  0  0  0  0  0  0  0  0  0
   -2.5332   -1.4966   -0.0966 N   0  0  0  0  0  0  0  0  0  0  0  0
   -3.2312   -1.2816   -0.7936 H   0  0  0  0  0  0  0  0  0  0  0  0
   -1.3593   -0.6196   -0.0536 C   0  0  1  0  0  0  0  0  0  0  0  0
   -0.4622   -1.2317   -0.1545 H   0  0  0  0  0  0  0  0  0  0  0  0
   -1.4074    0.3593   -1.2373 C   0  0  0  0  0  0  0  0  0  0  0  0
   -2.1586    0.0133   -1.9495 H   0  0  0  0  0  0  0  0  0  0  0  0
   -1.7271    1.3352   -0.8680 H   0  0  0  0  0  0  0  0  0  0  0  0
   -0.1141    0.5310   -1.9748 C   0  0  0  0  0  0  0  0  0  0  0  0
    0.9609   -0.2831   -1.8775 C   0  0  0  0  0  0  0  0  0  0  0  0
    1.0196   -1.1535   -1.2333 H   0  0  0  0  0  0  0  0  0  0  0  0
    1.9527    0.1533   -2.7339 N   0  0  0  0  0  0  0  0  0  0  0  0
    2.8493   -0.3014   -2.8256 H   0  0  0  0  0  0  0  0  0  0  0  0
    1.5572    1.2678   -3.4426 C   0  0  0  0  0  0  0  0  0  0  0  0
    2.1791    2.0465   -4.4291 C   0  0  0  0  0  0  0  0  0  0  0  0
    3.1765    1.8070   -4.7675 H   0  0  0  0  0  0  0  0  0  0  0  0
    1.4871    3.1436   -4.9700 C   0  0  0  0  0  0  0  0  0  0  0  0
    1.9513    3.7562   -5.7310 H   0  0  0  0  0  0  0  0  0  0  0  0
    0.1912    3.4484   -4.5149 C   0  0  0  0  0  0  0  0  0  0  0  0
   -0.3343    4.2984   -4.9278 H   0  0  0  0  0  0  0  0  0  0  0  0
   -0.4233    2.6601   -3.5214 C   0  0  0  0  0  0  0  0  0  0  0  0
   -1.4140    2.9132   -3.1713 H   0  0  0  0  0  0  0  0  0  0  0  0
    0.2427    1.5478   -2.9627 C   0  0  0  0  0  0  0  0  0  0  0  0
   -1.2663    0.1182    1.2910 C   0  0  0  0  0  0  0  0  0  0  0  0
   -0.1906    0.1931    1.8833 O   0  0  0  0  0  0  0  0  0  0  0  0
   -2.3930    0.6605    1.7722 N   0  0  0  0  0  0  0  0  0  0  0  0
   -3.2451    0.5077    1.2518 H   0  0  0  0  0  0  0  0  0  0  0  0
   -2.4787    1.3954    3.0311 C   0  0  0  0  0  0  0  0  0  0  0  0
   -1.7166    2.1767    3.0539 H   0  0  0  0  0  0  0  0  0  0  0  0
   -3.4649    1.8498    3.1344 H   0  0  0  0  0  0  0  0  0  0  0  0
   -2.3058    0.7133    3.8652 H   0  0  0  0  0  0  0  0  0  0  0  0
  5  6  2  0  0  0  0
  5  7  1  0  0  0  0
  2  3  1  0  0  0  0
  2  4  1  0  0  0  0
  2  5  1  0  0  0  0
  1  2  1  0  0  0  0
 29 30  2  0  0  0  0
 29 31  1  0  0  0  0
 26 27  1  0  0  0  0
 26 28  2  0  0  0  0
 24 25  1  0  0  0  0
 24 26  1  0  0  0  0
 22 23  1  0  0  0  0
 22 24  2  0  0  0  0
 20 21  1  0  0  0  0
 20 22  1  0  0  0  0
 19 20  2  0  0  0  0
 19 28  1  0  0  0  0
 17 18  1  0  0  0  0
 17 19  1  0  0  0  0
 15 16  1  0  0  0  0
 15 17  1  0  0  0  0
 14 15  2  0  0  0  0
 14 28  1  0  0  0  0
 11 12  1  0  0  0  0
 11 13  1  0  0  0  0
 11 14  1  0  0  0  0
  9 10  1  0  0  0  0
  9 11  1  0  0  0  0
  9 29  1  0  0  0  0
  7  8  1  0  0  0  0
  7  9  1  0  0  0  0
 33 34  1  0  0  0  0
 33 35  1  0  0  0  0
 33 36  1  0  0  0  0
 31 32  1  0  0  0  0
 31 33  1  0  0  0  0
M  END
$$$$
default_name
  -OEChem-02102213163D

 36 37  0     1  0  0  0  0  0999 V2000
   -4.0843   -4.0736    1.2944 H   0  0  0  0  0  0  0  0  0  0  0  0
   -4.0342   -3.2816    0.5484 C   0  0  0  0  0  0  0  0  0  0  0  0
   -4.8842   -2.6126    0.6694 H   0  0  0  0  0  0  0  0  0  0  0  0
   -4.0433   -3.7186   -0.4486 H   0  0  0  0  0  0  0  0  0  0  0  0
   -2.7532   -2.5046    0.7444 C   0  0  0  0  0  0  0  0  0  0  0  0
   -1.9803   -2.8096    1.6434 O   0  0  0  0  0  0  0  0  0  0  0  0
   -2.5332   -1.4966   -0.0966 N   0  0  0  0  0  0  0  0  0  0  0  0
   -3.2312   -1.2816   -0.7936 H   0  0  0  0  0  0  0  0  0  0  0  0
   -1.3593   -0.6196   -0.0536 C   0  0  1  0  0  0  0  0  0  0  0  0
   -0.4622   -1.2317   -0.1545 H   0  0  0  0  0  0  0  0  0  0  0  0
   -1.4074    0.3593   -1.2373 C   0  0  0  0  0  0  0  0  0  0  0  0
   -2.1586    0.0133   -1.9495 H   0  0  0  0  0  0  0  0  0  0  0  0
   -1.7271    1.3352   -0.8680 H   0  0  0  0  0  0  0  0  0  0  0  0
   -0.1141    0.5310   -1.9748 C   0  0  0  0  0  0  0  0  0  0  0  0
    0.8466   -0.4109   -2.1077 C   0  0  0  0  0  0  0  0  0  0  0  0
    0.8008   -1.4045   -1.6755 H   0  0  0  0  0  0  0  0  0  0  0  0
    1.8738    0.0808   -2.8891 N   0  0  0  0  0  0  0  0  0  0  0  0
    2.7018   -0.4492   -3.1186 H   0  0  0  0  0  0  0  0  0  0  0  0
    1.6167    1.3665   -3.3152 C   0  0  0  0  0  0  0  0  0  0  0  0
    2.3200    2.2641   -4.1313 C   0  0  0  0  0  0  0  0  0  0  0  0
    3.2723    1.9852   -4.5580 H   0  0  0  0  0  0  0  0  0  0  0  0
    1.7693    3.5320   -4.3847 C   0  0  0  0  0  0  0  0  0  0  0  0
    2.2980    4.2378   -5.0110 H   0  0  0  0  0  0  0  0  0  0  0  0
    0.5315    3.8847   -3.8168 C   0  0  0  0  0  0  0  0  0  0  0  0
    0.1154    4.8643   -4.0076 H   0  0  0  0  0  0  0  0  0  0  0  0
   -0.1658    2.9752   -2.9964 C   0  0  0  0  0  0  0  0  0  0  0  0
   -1.1094    3.2638   -2.5556 H   0  0  0  0  0  0  0  0  0  0  0  0
    0.3576    1.6919   -2.7278 C   0  0  0  0  0  0  0  0  0  0  0  0
   -1.2663    0.1182    1.2910 C   0  0  0  0  0  0  0  0  0  0  0  0
   -0.1906    0.1931    1.8833 O   0  0  0  0  0  0  0  0  0  0  0  0
   -2.3930    0.6605    1.7722 N   0  0  0  0  0  0  0  0  0  0  0  0
   -3.2451    0.5077    1.2518 H   0  0  0  0  0  0  0  0  0  0  0  0
   -2.4787    1.3954    3.0311 C   0  0  0  0  0  0  0  0  0  0  0  0
   -1.7166    2.1767    3.0539 H   0  0  0  0  0  0  0  0  0  0  0  0
   -3.4649    1.8498    3.1344 H   0  0  0  0  0  0  0  0  0  0  0  0
   -2.3058    0.7133    3.8652 H   0  0  0  0  0  0  0  0  0  0  0  0
  5  6  2  0  0  0  0
  5  7  1  0  0  0  0
  2  3  1  0  0  0  0
  2  4  1  0  0  0  0
  2  5  1  0  0  0  0
  1  2  1  0  0  0  0
 29 30  2  0  0  0  0
 29 31  1  0  0  0  0
 26 27  1  0  0  0  0
 26 28  2  0  0  0  0
 24 25  1  0  0  0  0
 24 26  1  0  0  0  0
 22 23  1  0  0  0  0
 22 24  2  0  0  0  0
 20 21  1  0  0  0  0
 20 22  1  0  0  0  0
 19 20  2  0  0  0  0
 19 28  1  0  0  0  0
 17 18  1  0  0  0  0
 17 19  1  0  0  0  0
 15 16  1  0  0  0  0
 15 17  1  0  0  0  0
 14 15  2  0  0  0  0
 14 28  1  0  0  0  0
 11 12  1  0  0  0  0
 11 13  1  0  0  0  0
 11 14  1  0  0  0  0
  9 10  1  0  0  0  0
  9 11  1  0  0  0  0
  9 29  1  0  0  0  0
  7  8  1  0  0  0  0
  7  9  1  0  0  0  0
 33 34  1  0  0  0  0
 33 35  1  0  0  0  0
 33 36  1  0  0  0  0
 31 32  1  0  0  0  0
 31 33  1  0  0  0  0
M  END
$$$$
default_name
  -OEChem-02102213163D

 36 37  0     1  0  0  0  0  0999 V2000
   -4.0843   -4.0736    1.2944 H   0  0  0  0  0  0  0  0  0  0  0  0
   -4.0342   -3.2816    0.5484 C   0  0  0  0  0  0  0  0  0  0  0  0
   -4.8842   -2.6126    0.6694 H   0  0  0  0  0  0  0  0  0  0  0  0
   -4.0433   -3.7186   -0.4486 H   0  0  0  0  0  0  0  0  0  0  0  0
   -2.7532   -2.5046    0.7444 C   0  0  0  0  0  0  0  0  0  0  0  0
   -1.9803   -2.8096    1.6434 O   0  0  0  0  0  0  0  0  0  0  0  0
   -2.5332   -1.4966   -0.0966 N   0  0  0  0  0  0  0  0  0  0  0  0
   -3.2312   -1.2816   -0.7936 H   0  0  0  0  0  0  0  0  0  0  0  0
   -1.3593   -0.6196   -0.0536 C   0  0  1  0  0  0  0  0  0  0  0  0
   -0.4622   -1.2317   -0.1545 H   0  0  0  0  0  0  0  0  0  0  0  0
   -1.4074    0.3593   -1.2373 C   0  0  0  0  0  0  0  0  0  0  0  0
   -2.1586    0.0133   -1.9495 H   0  0  0  0  0  0  0  0  0  0  0  0
   -1.7271    1.3352   -0.8680 H   0  0  0  0  0  0  0  0  0  0  0  0
   -0.1141    0.5310   -1.9748 C   0  0  0  0  0  0  0  0  0  0  0  0
    0.7131   -0.4684   -2.3552 C   0  0  0  0  0  0  0  0  0  0  0  0
    0.5444   -1.5203   -2.1522 H   0  0  0  0  0  0  0  0  0  0  0  0
    1.7838    0.0554   -3.0529 N   0  0  0  0  0  0  0  0  0  0  0  0
    2.5318   -0.5078   -3.4304 H   0  0  0  0  0  0  0  0  0  0  0  0
    1.6906    1.4257   -3.1719 C   0  0  0  0  0  0  0  0  0  0  0  0
    2.4927    2.3898   -3.7993 C   0  0  0  0  0  0  0  0  0  0  0  0
    3.3938    2.0983   -4.3186 H   0  0  0  0  0  0  0  0  0  0  0  0
    2.1087    3.7404   -3.7410 C   0  0  0  0  0  0  0  0  0  0  0  0
    2.7156    4.4980   -4.2181 H   0  0  0  0  0  0  0  0  0  0  0  0
    0.9363    4.1068   -3.0551 C   0  0  0  0  0  0  0  0  0  0  0  0
    0.6491    5.1480   -3.0056 H   0  0  0  0  0  0  0  0  0  0  0  0
    0.1387    3.1296   -2.4265 C   0  0  0  0  0  0  0  0  0  0  0  0
   -0.7523    3.4262   -1.8915 H   0  0  0  0  0  0  0  0  0  0  0  0
    0.4938    1.7640   -2.4720 C   0  0  0  0  0  0  0  0  0  0  0  0
   -1.2663    0.1182    1.2910 C   0  0  0  0  0  0  0  0  0  0  0  0
   -0.1906    0.1931    1.8833 O   0  0  0  0  0  0  0  0  0  0  0  0
   -2.3930    0.6605    1.7722 N   0  0  0  0  0  0  0  0  0  0  0  0
   -3.2451    0.5077    1.2518 H   0  0  0  0  0  0  0  0  0  0  0  0
   -2.4787    1.3954    3.0311 C   0  0  0  0  0  0  0  0  0  0  0  0
   -1.7166    2.1767    3.0539 H   0  0  0  0  0  0  0  0  0  0  0  0
   -3.4649    1.8498    3.1344 H   0  0  0  0  0  0  0  0  0  0  0  0
   -2.3058    0.7133    3.8652 H   0  0  0  0  0  0  0  0  0  0  0  0
  5  6  2  0  0  0  0
  5  7  1  0  0  0  0
  2  3  1  0  0  0  0
  2  4  1  0  0  0  0
  2  5  1  0  0  0  0
  1  2  1  0  0  0  0
 29 30  2  0  0  0  0
 29 31  1  0  0  0  0
 26 27  1  0  0  0  0
 26 28  2  0  0  0  0
 24 25  1  0  0  0  0
 24 26  1  0  0  0  0
 22 23  1  0  0  0  0
 22 24  2  0  0  0  0
 20 21  1  0  0  0  0
 20 22  1  0  0  0  0
 19 20  2  0  0  0  0
 19 28  1  0  0  0  0
 17 18  1  0  0  0  0
 17 19  1  0  0  0  0
 15 16  1  0  0  0  0
 15 17  1  0  0  0  0
 14 15  2  0  0  0  0
 14 28  1  0  0  0  0
 11 12  1  0  0  0  0
 11 13  1  0  0  0  0
 11 14  1  0  0  0  0
  9 10  1  0  0  0  0
  9 11  1  0  0  0  0
  9 29  1  0  0  0  0
  7  8  1  0  0  0  0
  7  9  1  0  0  0  0
 33 34  1  0  0  0  0
 33 35  1  0  0  0  0
 33 36  1  0  0  0  0
 31 32  1  0  0  0  0
 31 33  1  0  0  0  0
M  END
$$$$
default_name
  -OEChem-02102213163D

 36 37  0     1  0  0  0  0  0999 V2000
   -4.0843   -4.0736    1.2944 H   0  0  0  0  0  0  0  0  0  0  0  0
   -4.0342   -3.2816    0.5484 C   0  0  0  0  0  0  0  0  0  0  0  0
   -4.8842   -2.6126    0.6694 H   0  0  0  0  0  0  0  0  0  0  0  0
   -4.0433   -3.7186   -0.4486 H   0  0  0  0  0  0  0  0  0  0  0  0
   -2.7532   -2.5046    0.7444 C   0  0  0  0  0  0  0  0  0  0  0  0
   -1.9803   -2.8096    1.6434 O   0  0  0  0  0  0  0  0  0  0  0  0
   -2.5332   -1.4966   -0.0966 N   0  0  0  0  0  0  0  0  0  0  0  0
   -3.2312   -1.2816   -0.7936 H   0  0  0  0  0  0  0  0  0  0  0  0
   -1.3593   -0.6196   -0.0536 C   0  0  1  0  0  0  0  0  0  0  0  0
   -0.4622   -1.2317   -0.1545 H   0  0  0  0  0  0  0  0  0  0  0  0
   -1.4074    0.3593   -1.2373 C   0  0  0  0  0  0  0  0  0  0  0  0
   -2.1586    0.0133   -1.9495 H   0  0  0  0  0  0  0  0  0  0  0  0
   -1.7271    1.3352   -0.8680 H   0  0  0  0  0  0  0  0  0  0  0  0
   -0.1141    0.5310   -1.9748 C   0  0  0  0  0  0  0  0  0  0  0  0
    0.5695   -0.4517   -2.6031 C   0  0  0  0  0  0  0  0  0  0  0  0
    0.2678   -1.4930   -2.6308 H   0  0  0  0  0  0  0  0  0  0  0  0
    1.6887    0.0789   -3.2141 N   0  0  0  0  0  0  0  0  0  0  0  0
    2.3509   -0.4730   -3.7395 H   0  0  0  0  0  0  0  0  0  0  0  0
    1.7737    1.4416   -3.0225 C   0  0  0  0  0  0  0  0  0  0  0  0
    2.6854    2.4150   -3.4555 C   0  0  0  0  0  0  0  0  0  0  0  0
    3.5326    2.1386   -4.0658 H   0  0  0  0  0  0  0  0  0  0  0  0
    2.4822    3.7547   -3.0828 C   0  0  0  0  0  0  0  0  0  0  0  0
    3.1756    4.5191   -3.4066 H   0  0  0  0  0  0  0  0  0  0  0  0
    1.3783    4.0997   -2.2817 C   0  0  0  0  0  0  0  0  0  0  0  0
    1.2304    5.1304   -1.9903 H   0  0  0  0  0  0  0  0  0  0  0  0
    0.4694    3.1126   -1.8506 C   0  0  0  0  0  0  0  0  0  0  0  0
   -0.3670    3.3892   -1.2244 H   0  0  0  0  0  0  0  0  0  0  0  0
    0.6422    1.7592   -2.2130 C   0  0  0  0  0  0  0  0  0  0  0  0
   -1.2663    0.1182    1.2910 C   0  0  0  0  0  0  0  0  0  0  0  0
   -0.1906    0.1931    1.8833 O   0  0  0  0  0  0  0  0  0  0  0  0
   -2.3930    0.6605    1.7722 N   0  0  0  0  0  0  0  0  0  0  0  0
   -3.2451    0.5077    1.2518 H   0  0  0  0  0  0  0  0  0  0  0  0
   -2.4787    1.3954    3.0311 C   0  0  0  0  0  0  0  0  0  0  0  0
   -1.7166    2.1767    3.0539 H   0  0  0  0  0  0  0  0  0  0  0  0
   -3.4649    1.8498    3.1344 H   0  0  0  0  0  0  0  0  0  0  0  0
   -2.3058    0.7133    3.8652 H   0  0  0  0  0  0  0  0  0  0  0  0
  5  6  2  0  0  0  0
  5  7  1  0  0  0  0
  2  3  1  0  0  0  0
  2  4  1  0  0  0  0
  2  5  1  0  0  0  0
  1  2  1  0  0  0  0
 29 30  2  0  0  0  0
 29 31  1  0  0  0  0
 26 27  1  0  0  0  0
 26 28  2  0  0  0  0
 24 25  1  0  0  0  0
 24 26  1  0  0  0  0
 22 23  1  0  0  0  0
 22 24  2  0  0  0  0
 20 21  1  0  0  0  0
 20 22  1  0  0  0  0
 19 20  2  0  0  0  0
 19 28  1  0  0  0  0
 17 18  1  0  0  0  0
 17 19  1  0  0  0  0
 15 16  1  0  0  0  0
 15 17  1  0  0  0  0
 14 15  2  0  0  0  0
 14 28  1  0  0  0  0
 11 12  1  0  0  0  0
 11 13  1  0  0  0  0
 11 14  1  0  0  0  0
  9 10  1  0  0  0  0
  9 11  1  0  0  0  0
  9 29  1  0  0  0  0
  7  8  1  0  0  0  0
  7  9  1  0  0  0  0
 33 34  1  0  0  0  0
 33 35  1  0  0  0  0
 33 36  1  0  0  0  0
 31 32  1  0  0  0  0
 31 33  1  0  0  0  0
M  END
$$$$
default_name
  -OEChem-02102213163D

 36 37  0     1  0  0  0  0  0999 V2000
   -4.0843   -4.0736    1.2944 H   0  0  0  0  0  0  0  0  0  0  0  0
   -4.0342   -3.2816    0.5484 C   0  0  0  0  0  0  0  0  0  0  0  0
   -4.8842   -2.6126    0.6694 H   0  0  0  0  0  0  0  0  0  0  0  0
   -4.0433   -3.7186   -0.4486 H   0  0  0  0  0  0  0  0  0  0  0  0
   -2.7532   -2.5046    0.7444 C   0  0  0  0  0  0  0  0  0  0  0  0
   -1.9803   -2.8096    1.6434 O   0  0  0  0  0  0  0  0  0  0  0  0
   -2.5332   -1.4966   -0.0966 N   0  0  0  0  0  0  0  0  0  0  0  0
   -3.2312   -1.2816   -0.7936 H   0  0  0  0  0  0  0  0  0  0  0  0
   -1.3593   -0.6196   -0.0536 C   0  0  1  0  0  0  0  0  0  0  0  0
   -0.4622   -1.2317   -0.1545 H   0  0  0  0  0  0  0  0  0  0  0  0
   -1.4074    0.3593   -1.2373 C   0  0  0  0  0  0  0  0  0  0  0  0
   -2.1586    0.0133   -1.9495 H   0  0  0  0  0  0  0  0  0  0  0  0
   -1.7271    1.3352   -0.8680 H   0  0  0  0  0  0  0  0  0  0  0  0
   -0.1141    0.5310   -1.9748 C   0  0  0  0  0  0  0  0  0  0  0  0
    0.4256   -0.3618   -2.8347 C   0  0  0  0  0  0  0  0  0  0  0  0
   -0.0101   -1.3245   -3.0789 H   0  0  0  0  0  0  0  0  0  0  0  0
    1.5952    0.1497   -3.3617 N   0  0  0  0  0  0  0  0  0  0  0  0
    2.1715   -0.3474   -4.0250 H   0  0  0  0  0  0  0  0  0  0  0  0
    1.8604    1.4129   -2.8771 C   0  0  0  0  0  0  0  0  0  0  0  0
    2.8849    2.3381   -3.1236 C   0  0  0  0  0  0  0  0  0  0  0  0
    3.6793    2.1034   -3.8167 H   0  0  0  0  0  0  0  0  0  0  0  0
    2.8642    3.5740   -2.4549 C   0  0  0  0  0  0  0  0  0  0  0  0
    3.6466    4.2996   -2.6316 H   0  0  0  0  0  0  0  0  0  0  0  0
    1.8272    3.8638   -1.5494 C   0  0  0  0  0  0  0  0  0  0  0  0
    1.8197    4.8125   -1.0308 H   0  0  0  0  0  0  0  0  0  0  0  0
    0.8037    2.9255   -1.3078 C   0  0  0  0  0  0  0  0  0  0  0  0
    0.0203    3.1554   -0.5997 H   0  0  0  0  0  0  0  0  0  0  0  0
    0.7926    1.6778   -1.9682 C   0  0  0  0  0  0  0  0  0  0  0  0
   -1.2663    0.1182    1.2910 C   0  0  0  0  0  0  0  0  0  0  0  0
   -0.1906    0.1931    1.8833 O   0  0  0  0  0  0  0  0  0  0  0  0
   -2.3930    0.6605    1.7722 N   0  0  0  0  0  0  0  0  0  0  0  0
   -3.2451    0.5077    1.2518 H   0  0  0  0  0  0  0  0  0  0  0  0
   -2.4787    1.3954    3.0311 C   0  0  0  0  0  0  0  0  0  0  0  0
   -1.7166    2.1767    3.0539 H   0  0  0  0  0  0  0  0  0  0  0  0
   -3.4649    1.8498    3.1344 H   0  0  0  0  0  0  0  0  0  0  0  0
   -2.3058    0.7133    3.8652 H   0  0  0  0  0  0  0  0  0  0  0  0
  5  6  2  0  0  0  0
  5  7  1  0  0  0  0
  2  3  1  0  0  0  0
  2  4  1  0  0  0  0
  2  5  1  0  0  0  0
  1  2  1  0  0  0  0
 29 30  2  0  0  0  0
 29 31  1  0  0  0  0
 26 27  1  0  0  0  0
 26 28  2  0  0  0  0
 24 25  1  0  0  0  0
 24 26  1  0  0  0  0
 22 23  1  0  0  0  0
 22 24  2  0  0  0  0
 20 21  1  0  0  0  0
 20 22  1  0  0  0  0
 19 20  2  0  0  0  0
 19 28  1  0  0  0  0
 17 18  1  0  0  0  0
 17 19  1  0  0  0  0
 15 16  1  0  0  0  0
 15 17  1  0  0  0  0
 14 15  2  0  0  0  0
 14 28  1  0  0  0  0
 11 12  1  0  0  0  0
 11 13  1  0  0  0  0
 11 14  1  0  0  0  0
  9 10  1  0  0  0  0
  9 11  1  0  0  0  0
  9 29  1  0  0  0  0
  7  8  1  0  0  0  0
  7  9  1  0  0  0  0
 33 34  1  0  0  0  0
 33 35  1  0  0  0  0
 33 36  1  0  0  0  0
 31 32  1  0  0  0  0
 31 33  1  0  0  0  0
M  END
$$$$
default_name
  -OEChem-02102213163D

 36 37  0     1  0  0  0  0  0999 V2000
   -4.0843   -4.0736    1.2944 H   0  0  0  0  0  0  0  0  0  0  0  0
   -4.0342   -3.2816    0.5484 C   0  0  0  0  0  0  0  0  0  0  0  0
   -4.8842   -2.6126    0.6694 H   0  0  0  0  0  0  0  0  0  0  0  0
   -4.0433   -3.7186   -0.4486 H   0  0  0  0  0  0  0  0  0  0  0  0
   -2.7532   -2.5046    0.7444 C   0  0  0  0  0  0  0  0  0  0  0  0
   -1.9803   -2.8096    1.6434 O   0  0  0  0  0  0  0  0  0  0  0  0
   -2.5332   -1.4966   -0.0966 N   0  0  0  0  0  0  0  0  0  0  0  0
   -3.2312   -1.2816   -0.7936 H   0  0  0  0  0  0  0  0  0  0  0  0
   -1.3593   -0.6196   -0.0536 C   0  0  1  0  0  0  0  0  0  0  0  0
   -0.4622   -1.2317   -0.1545 H   0  0  0  0  0  0  0  0  0  0  0  0
   -1.4074    0.3593   -1.2373 C   0  0  0  0  0  0  0  0  0  0  0  0
   -2.1586    0.0133   -1.9495 H   0  0  0  0  0  0  0  0  0  0  0  0
   -1.7271    1.3352   -0.8680 H   0  0  0  0  0  0  0  0  0  0  0  0
   -0.1141    0.5310   -1.9748 C   0  0  0  0  0  0  0  0  0  0  0  0
    0.2911   -0.2050   -3.0340 C   0  0  0  0  0  0  0  0  0  0  0  0
   -0.2703   -1.0263   -3.4658 H   0  0  0  0  0  0  0  0  0  0  0  0
    1.5094    0.2631   -3.4857 N   0  0  0  0  0  0  0  0  0  0  0  0
    2.0057   -0.1394   -4.2673 H   0  0  0  0  0  0  0  0  0  0  0  0
    1.9448    1.3417   -2.7456 C   0  0  0  0  0  0  0  0  0  0  0  0
    3.0776    2.1643   -2.8260 C   0  0  0  0  0  0  0  0  0  0  0  0
    3.8240    1.9951   -3.5882 H   0  0  0  0  0  0  0  0  0  0  0  0
    3.2289    3.2105   -1.9000 C   0  0  0  0  0  0  0  0  0  0  0  0
    4.0966    3.8546   -1.9461 H   0  0  0  0  0  0  0  0  0  0  0  0
    2.2525    3.4151   -0.9080 C   0  0  0  0  0  0  0  0  0  0  0  0
    2.3770    4.2161   -0.1924 H   0  0  0  0  0  0  0  0  0  0  0  0
    1.1189    2.5809   -0.8353 C   0  0  0  0  0  0  0  0  0  0  0  0
    0.3831    2.7407   -0.0600 H   0  0  0  0  0  0  0  0  0  0  0  0
    0.9347    1.5253   -1.7544 C   0  0  0  0  0  0  0  0  0  0  0  0
   -1.2663    0.1182    1.2910 C   0  0  0  0  0  0  0  0  0  0  0  0
   -0.1906    0.1931    1.8833 O   0  0  0  0  0  0  0  0  0  0  0  0
   -2.3930    0.6605    1.7722 N   0  0  0  0  0  0  0  0  0  0  0  0
   -3.2451    0.5077    1.2518 H   0  0  0  0  0  0  0  0  0  0  0  0
   -2.4787    1.3954    3.0311 C   0  0  0  0  0  0  0  0  0  0  0  0
   -1.7166    2.1767    3.0539 H   0  0  0  0  0  0  0  0  0  0  0  0
   -3.4649    1.8498    3.1344 H   0  0  0  0  0  0  0  0  0  0  0  0
   -2.3058    0.7133    3.8652 H   0  0  0  0  0  0  0  0  0  0  0  0
  5  6  2  0  0  0  0
  5  7  1  0  0  0  0
  2  3  1  0  0  0  0
  2  4  1  0  0  0  0
  2  5  1  0  0  0  0
  1  2  1  0  0  0  0
 29 30  2  0  0  0  0
 29 31  1  0  0  0  0
 26 27  1  0  0  0  0
 26 28  2  0  0  0  0
 24 25  1  0  0  0  0
 24 26  1  0  0  0  0
 22 23  1  0  0  0  0
 22 24  2  0  0  0  0
 20 21  1  0  0  0  0
 20 22  1  0  0  0  0
 19 20  2  0  0  0  0
 19 28  1  0  0  0  0
 17 18  1  0  0  0  0
 17 19  1  0  0  0  0
 15 16  1  0  0  0  0
 15 17  1  0  0  0  0
 14 15  2  0  0  0  0
 14 28  1  0  0  0  0
 11 12  1  0  0  0  0
 11 13  1  0  0  0  0
 11 14  1  0  0  0  0
  9 10  1  0  0  0  0
  9 11  1  0  0  0  0
  9 29  1  0  0  0  0
  7  8  1  0  0  0  0
  7  9  1  0  0  0  0
 33 34  1  0  0  0  0
 33 35  1  0  0  0  0
 33 36  1  0  0  0  0
 31 32  1  0  0  0  0
 31 33  1  0  0  0  0
M  END
$$$$
default_name
  -OEChem-02102213163D

 36 37  0     1  0  0  0  0  0999 V2000
   -4.0843   -4.0736    1.2944 H   0  0  0  0  0  0  0  0  0  0  0  0
   -4.0342   -3.2816    0.5484 C   0  0  0  0  0  0  0  0  0  0  0  0
   -4.8842   -2.6126    0.6694 H   0  0  0  0  0  0  0  0  0  0  0  0
   -4.0433   -3.7186   -0.4486 H   0  0  0  0  0  0  0  0  0  0  0  0
   -2.7532   -2.5046    0.7444 C   0  0  0  0  0  0  0  0  0  0  0  0
   -1.9803   -2.8096    1.6434 O   0  0  0  0  0  0  0  0  0  0  0  0
   -2.5332   -1.4966   -0.0966 N   0  0  0  0  0  0  0  0  0  0  0  0
   -3.2312   -1.2816   -0.7936 H   0  0  0  0  0  0  0  0  0  0  0  0
   -1.3593   -0.6196   -0.0536 C   0  0  1  0  0  0  0  0  0  0  0  0
   -0.4622   -1.2317   -0.1545 H   0  0  0  0  0  0  0  0  0  0  0  0
   -1.4074    0.3593   -1.2373 C   0  0  0  0  0  0  0  0  0  0  0  0
   -2.1586    0.0133   -1.9495 H   0  0  0  0  0  0  0  0  0  0  0  0
   -1.7271    1.3352   -0.8680 H   0  0  0  0  0  0  0  0  0  0  0  0
   -0.1141    0.5310   -1.9748 C   0  0  0  0  0  0  0  0  0  0  0  0
    0.1753    0.0081   -3.1875 C   0  0  0  0  0  0  0  0  0  0  0  0
   -0.4952   -0.6186   -3.7653 H   0  0  0  0  0  0  0  0  0  0  0  0
    1.4374    0.4111   -3.5776 N   0  0  0  0  0  0  0  0  0  0  0  0
    1.8648    0.1368   -4.4501 H   0  0  0  0  0  0  0  0  0  0  0  0
    2.0212    1.2327   -2.6370 C   0  0  0  0  0  0  0  0  0  0  0  0
    3.2505    1.9054   -2.5832 C   0  0  0  0  0  0  0  0  0  0  0  0
    3.9567    1.8210   -3.3961 H   0  0  0  0  0  0  0  0  0  0  0  0
    3.5512    2.6891   -1.4561 C   0  0  0  0  0  0  0  0  0  0  0  0
    4.4949    3.2142   -1.3966 H   0  0  0  0  0  0  0  0  0  0  0  0
    2.6251    2.7844   -0.4013 C   0  0  0  0  0  0  0  0  0  0  0  0
    2.8641    3.3817    0.4677 H   0  0  0  0  0  0  0  0  0  0  0  0
    1.3934    2.1024   -0.4652 C   0  0  0  0  0  0  0  0  0  0  0  0
    0.6967    2.1734    0.3579 H   0  0  0  0  0  0  0  0  0  0  0  0
    1.0589    1.3122   -1.5862 C   0  0  0  0  0  0  0  0  0  0  0  0
   -1.2663    0.1182    1.2910 C   0  0  0  0  0  0  0  0  0  0  0  0
   -0.1906    0.1931    1.8833 O   0  0  0  0  0  0  0  0  0  0  0  0
   -2.3930    0.6605    1.7722 N   0  0  0  0  0  0  0  0  0  0  0  0
   -3.2451    0.5077    1.2518 H   0  0  0  0  0  0  0  0  0  0  0  0
   -2.4787    1.3954    3.0311 C   0  0  0  0  0  0  0  0  0  0  0  0
   -1.7166    2.1767    3.0539 H   0  0  0  0  0  0  0  0  0  0  0  0
   -3.4649    1.8498    3.1344 H   0  0  0  0  0  0  0  0  0  0  0  0
   -2.3058    0.7133    3.8652 H   0  0  0  0  0  0  0  0  0  0  0  0
  5  6  2  0  0  0  0
  5  7  1  0  0  0  0
  2  3  1  0  0  0  0
  2  4  1  0  0  0  0
  2  5  1  0  0  0  0
  1  2  1  0  0  0  0
 29 30  2  0  0  0  0
 29 31  1  0  0  0  0
 26 27  1  0  0  0  0
 26 28  2  0  0  0  0
 24 25  1  0  0  0  0
 24 26  1  0  0  0  0
 22 23  1  0  0  0  0
 22 24  2  0  0  0  0
 20 21  1  0  0  0  0
 20 22  1  0  0  0  0
 19 20  2  0  0  0  0
 19 28  1  0  0  0  0
 17 18  1  0  0  0  0
 17 19  1  0  0  0  0
 15 16  1  0  0  0  0
 15 17  1  0  0  0  0
 14 15  2  0  0  0  0
 14 28  1  0  0  0  0
 11 12  1  0  0  0  0
 11 13  1  0  0  0  0
 11 14  1  0  0  0  0
  9 10  1  0  0  0  0
  9 11  1  0  0  0  0
  9 29  1  0  0  0  0
  7  8  1  0  0  0  0
  7  9  1  0  0  0  0
 33 34  1  0  0  0  0
 33 35  1  0  0  0  0
 33 36  1  0  0  0  0
 31 32  1  0  0  0  0
 31 33  1  0  0  0  0
M  END
$$$$
default_name
  -OEChem-02102213163D

 36 37  0     1  0  0  0  0  0999 V2000
   -4.0843   -4.0736    1.2944 H   0  0  0  0  0  0  0  0  0  0  0  0
   -4.0342   -3.2816    0.5484 C   0  0  0  0  0  0  0  0  0  0  0  0
   -4.8842   -2.6126    0.6694 H   0  0  0  0  0  0  0  0  0  0  0  0
   -4.0433   -3.7186   -0.4486 H   0  0  0  0  0  0  0  0  0  0  0  0
   -2.7532   -2.5046    0.7444 C   0  0  0  0  0  0  0  0  0  0  0  0
   -1.9803   -2.8096    1.6434 O   0  0  0  0  0  0  0  0  0  0  0  0
   -2.5332   -1.4966   -0.0966 N   0  0  0  0  0  0  0  0  0  0  0  0
   -3.2312   -1.2816   -0.7936 H   0  0  0  0  0  0  0  0  0  0  0  0
   -1.3593   -0.6196   -0.0536 C   0  0  1  0  0  0  0  0  0  0  0  0
   -0.4622   -1.2317   -0.1545 H   0  0  0  0  0  0  0  0  0  0  0  0
   -1.4074    0.3593   -1.2373 C   0  0  0  0  0  0  0  0  0  0  0  0
   -2.1586    0.0133   -1.9495 H   0  0  0  0  0  0  0  0  0  0  0  0
   -1.7271    1.3352   -0.8680 H   0  0  0  0  0  0  0  0  0  0  0  0
   -0.1141    0.5310   -1.9748 C   0  0  0  0  0  0  0  0  0  0  0  0
    0.0860    0.2630   -3.2847 C   0  0  0  0  0  0  0  0  0  0  0  0
   -0.6693   -0.1294   -3.9568 H   0  0  0  0  0  0  0  0  0  0  0  0
    1.3839    0.5839   -3.6312 N   0  0  0  0  0  0  0  0  0  0  0  0
    1.7585    0.4623   -4.5608 H   0  0  0  0  0  0  0  0  0  0  0  0
    2.0843    1.0936   -2.5587 C   0  0  0  0  0  0  0  0  0  0  0  0
    3.3917    1.5790   -2.4116 C   0  0  0  0  0  0  0  0  0  0  0  0
    4.0683    1.5931   -3.2533 H   0  0  0  0  0  0  0  0  0  0  0  0
    3.8094    2.0451   -1.1533 C   0  0  0  0  0  0  0  0  0  0  0  0
    4.8144    2.4222   -1.0207 H   0  0  0  0  0  0  0  0  0  0  0  0
    2.9198    2.0145   -0.0638 C   0  0  0  0  0  0  0  0  0  0  0  0
    3.2480    2.3663    0.9045 H   0  0  0  0  0  0  0  0  0  0  0  0
    1.6087    1.5225   -0.2227 C   0  0  0  0  0  0  0  0  0  0  0  0
    0.9398    1.4922    0.6256 H   0  0  0  0  0  0  0  0  0  0  0  0
    1.1567    1.0529   -1.4750 C   0  0  0  0  0  0  0  0  0  0  0  0
   -1.2663    0.1182    1.2910 C   0  0  0  0  0  0  0  0  0  0  0  0
   -0.1906    0.1931    1.8833 O   0  0  0  0  0  0  0  0  0  0  0  0
   -2.3930    0.6605    1.7722 N   0  0  0  0  0  0  0  0  0  0  0  0
   -3.2451    0.5077    1.2518 H   0  0  0  0  0  0  0  0  0  0  0  0
   -2.4787    1.3954    3.0311 C   0  0  0  0  0  0  0  0  0  0  0  0
   -1.7166    2.1767    3.0539 H   0  0  0  0  0  0  0  0  0  0  0  0
   -3.4649    1.8498    3.1344 H   0  0  0  0  0  0  0  0  0  0  0  0
   -2.3058    0.7133    3.8652 H   0  0  0  0  0  0  0  0  0  0  0  0
  5  6  2  0  0  0  0
  5  7  1  0  0  0  0
  2  3  1  0  0  0  0
  2  4  1  0  0  0  0
  2  5  1  0  0  0  0
  1  2  1  0  0  0  0
 29 30  2  0  0  0  0
 29 31  1  0  0  0  0
 26 27  1  0  0  0  0
 26 28  2  0  0  0  0
 24 25  1  0  0  0  0
 24 26  1  0  0  0  0
 22 23  1  0  0  0  0
 22 24  2  0  0  0  0
 20 21  1  0  0  0  0
 20 22  1  0  0  0  0
 19 20  2  0  0  0  0
 19 28  1  0  0  0  0
 17 18  1  0  0  0  0
 17 19  1  0  0  0  0
 15 16  1  0  0  0  0
 15 17  1  0  0  0  0
 14 15  2  0  0  0  0
 14 28  1  0  0  0  0
 11 12  1  0  0  0  0
 11 13  1  0  0  0  0
 11 14  1  0  0  0  0
  9 10  1  0  0  0  0
  9 11  1  0  0  0  0
  9 29  1  0  0  0  0
  7  8  1  0  0  0  0
  7  9  1  0  0  0  0
 33 34  1  0  0  0  0
 33 35  1  0  0  0  0
 33 36  1  0  0  0  0
 31 32  1  0  0  0  0
 31 33  1  0  0  0  0
M  END
$$$$
default_name
  -OEChem-02102213163D

 36 37  0     1  0  0  0  0  0999 V2000
   -4.0843   -4.0736    1.2944 H   0  0  0  0  0  0  0  0  0  0  0  0
   -4.0342   -3.2816    0.5484 C   0  0  0  0  0  0  0  0  0  0  0  0
   -4.8842   -2.6126    0.6694 H   0  0  0  0  0  0  0  0  0  0  0  0
   -4.0433   -3.7186   -0.4486 H   0  0  0  0  0  0  0  0  0  0  0  0
   -2.7532   -2.5046    0.7444 C   0  0  0  0  0  0  0  0  0  0  0  0
   -1.9803   -2.8096    1.6434 O   0  0  0  0  0  0  0  0  0  0  0  0
   -2.5332   -1.4966   -0.0966 N   0  0  0  0  0  0  0  0  0  0  0  0
   -3.2312   -1.2816   -0.7936 H   0  0  0  0  0  0  0  0  0  0  0  0
   -1.3593   -0.6196   -0.0536 C   0  0  1  0  0  0  0  0  0  0  0  0
   -0.4622   -1.2317   -0.1545 H   0  0  0  0  0  0  0  0  0  0  0  0
   -1.4074    0.3593   -1.2373 C   0  0  0  0  0  0  0  0  0  0  0  0
   -2.1586    0.0133   -1.9495 H   0  0  0  0  0  0  0  0  0  0  0  0
   -1.7271    1.3352   -0.8680 H   0  0  0  0  0  0  0  0  0  0  0  0
   -0.1141    0.5310   -1.9748 C   0  0  0  0  0  0  0  0  0  0  0  0
    0.0294    0.5423   -3.3190 C   0  0  0  0  0  0  0  0  0  0  0  0
   -0.7809    0.4082   -4.0273 H   0  0  0  0  0  0  0  0  0  0  0  0
    1.3526    0.7695   -3.6428 N   0  0  0  0  0  0  0  0  0  0  0  0
    1.6940    0.8149   -4.5918 H   0  0  0  0  0  0  0  0  0  0  0  0
    2.1299    0.9336   -2.5160 C   0  0  0  0  0  0  0  0  0  0  0  0
    3.4916    1.2074   -2.3228 C   0  0  0  0  0  0  0  0  0  0  0  0
    4.1514    1.3267   -3.1696 H   0  0  0  0  0  0  0  0  0  0  0  0
    3.9856    1.3227   -1.0123 C   0  0  0  0  0  0  0  0  0  0  0  0
    5.0333    1.5325   -0.8439 H   0  0  0  0  0  0  0  0  0  0  0  0
    3.1163    1.1579    0.0816 C   0  0  0  0  0  0  0  0  0  0  0  0
    3.5023    1.2391    1.0883 H   0  0  0  0  0  0  0  0  0  0  0  0
    1.7499    0.8809   -0.1244 C   0  0  0  0  0  0  0  0  0  0  0  0
    1.0957    0.7434    0.7248 H   0  0  0  0  0  0  0  0  0  0  0  0
    1.2215    0.7652   -1.4284 C   0  0  0  0  0  0  0  0  0  0  0  0
   -1.2663    0.1182    1.2910 C   0  0  0  0  0  0  0  0  0  0  0  0
   -0.1906    0.1931    1.8833 O   0  0  0  0  0  0  0  0  0  0  0  0
   -2.3930    0.6605    1.7722 N   0  0  0  0  0  0  0  0  0  0  0  0
   -3.2451    0.5077    1.2518 H   0  0  0  0  0  0  0  0  0  0  0  0
   -2.4787    1.3954    3.0311 C   0  0  0  0  0  0  0  0  0  0  0  0
   -1.7166    2.1767    3.0539 H   0  0  0  0  0  0  0  0  0  0  0  0
   -3.4649    1.8498    3.1344 H   0  0  0  0  0  0  0  0  0  0  0  0
   -2.3058    0.7133    3.8652 H   0  0  0  0  0  0  0  0  0  0  0  0
  5  6  2  0  0  0  0
  5  7  1  0  0  0  0
  2  3  1  0  0  0  0
  2  4  1  0  0  0  0
  2  5  1  0  0  0  0
  1  2  1  0  0  0  0
 29 30  2  0  0  0  0
 29 31  1  0  0  0  0
 26 27  1  0  0  0  0
 26 28  2  0  0  0  0
 24 25  1  0  0  0  0
 24 26  1  0  0  0  0
 22 23  1  0  0  0  0
 22 24  2  0  0  0  0
 20 21  1  0  0  0  0
 20 22  1  0  0  0  0
 19 20  2  0  0  0  0
 19 28  1  0  0  0  0
 17 18  1  0  0  0  0
 17 19  1  0  0  0  0
 15 16  1  0  0  0  0
 15 17  1  0  0  0  0
 14 15  2  0  0  0  0
 14 28  1  0  0  0  0
 11 12  1  0  0  0  0
 11 13  1  0  0  0  0
 11 14  1  0  0  0  0
  9 10  1  0  0  0  0
  9 11  1  0  0  0  0
  9 29  1  0  0  0  0
  7  8  1  0  0  0  0
  7  9  1  0  0  0  0
 33 34  1  0  0  0  0
 33 35  1  0  0  0  0
 33 36  1  0  0  0  0
 31 32  1  0  0  0  0
 31 33  1  0  0  0  0
M  END
$$$$
default_name
  -OEChem-02102213163D

 36 37  0     1  0  0  0  0  0999 V2000
   -4.0843   -4.0736    1.2944 H   0  0  0  0  0  0  0  0  0  0  0  0
   -4.0342   -3.2816    0.5484 C   0  0  0  0  0  0  0  0  0  0  0  0
   -4.8842   -2.6126    0.6694 H   0  0  0  0  0  0  0  0  0  0  0  0
   -4.0433   -3.7186   -0.4486 H   0  0  0  0  0  0  0  0  0  0  0  0
   -2.7532   -2.5046    0.7444 C   0  0  0  0  0  0  0  0  0  0  0  0
   -1.9803   -2.8096    1.6434 O   0  0  0  0  0  0  0  0  0  0  0  0
   -2.5332   -1.4966   -0.0966 N   0  0  0  0  0  0  0  0  0  0  0  0
   -3.2312   -1.2816   -0.7936 H   0  0  0  0  0  0  0  0  0  0  0  0
   -1.3593   -0.6196   -0.0536 C   0  0  1  0  0  0  0  0  0  0  0  0
   -0.4622   -1.2317   -0.1545 H   0  0  0  0  0  0  0  0  0  0  0  0
   -1.4074    0.3593   -1.2373 C   0  0  0  0  0  0  0  0  0  0  0  0
   -2.1586    0.0133   -1.9495 H   0  0  0  0  0  0  0  0  0  0  0  0
   -1.7271    1.3352   -0.8680 H   0  0  0  0  0  0  0  0  0  0  0  0
   -0.1141    0.5310   -1.9748 C   0  0  0  0  0  0  0  0  0  0  0  0
    0.0092    0.8269   -3.2882 C   0  0  0  0  0  0  0  0  0  0  0  0
   -0.8223    0.9574   -3.9721 H   0  0  0  0  0  0  0  0  0  0  0  0
    1.3458    0.9554   -3.6116 N   0  0  0  0  0  0  0  0  0  0  0  0
    1.6757    1.1707   -4.5411 H   0  0  0  0  0  0  0  0  0  0  0  0
    2.1548    0.7637   -2.5119 C   0  0  0  0  0  0  0  0  0  0  0  0
    3.5433    0.8160   -2.3231 C   0  0  0  0  0  0  0  0  0  0  0  0
    4.2002    1.0402   -3.1507 H   0  0  0  0  0  0  0  0  0  0  0  0
    4.0681    0.5709   -1.0427 C   0  0  0  0  0  0  0  0  0  0  0  0
    5.1366    0.6059   -0.8784 H   0  0  0  0  0  0  0  0  0  0  0  0
    3.2014    0.2730    0.0248 C   0  0  0  0  0  0  0  0  0  0  0  0
    3.6099    0.0768    1.0065 H   0  0  0  0  0  0  0  0  0  0  0  0
    1.8075    0.2212   -0.1769 C   0  0  0  0  0  0  0  0  0  0  0  0
    1.1539   -0.0219    0.6488 H   0  0  0  0  0  0  0  0  0  0  0  0
    1.2488    0.4686   -1.4495 C   0  0  0  0  0  0  0  0  0  0  0  0
   -1.2663    0.1182    1.2910 C   0  0  0  0  0  0  0  0  0  0  0  0
   -0.1906    0.1931    1.8833 O   0  0  0  0  0  0  0  0  0  0  0  0
   -2.3930    0.6605    1.7722 N   0  0  0  0  0  0  0  0  0  0  0  0
   -3.2451    0.5077    1.2518 H   0  0  0  0  0  0  0  0  0  0  0  0
   -2.4787    1.3954    3.0311 C   0  0  0  0  0  0  0  0  0  0  0  0
   -1.7166    2.1767    3.0539 H   0  0  0  0  0  0  0  0  0  0  0  0
   -3.4649    1.8498    3.1344 H   0  0  0  0  0  0  0  0  0  0  0  0
   -2.3058    0.7133    3.8652 H   0  0  0  0  0  0  0  0  0  0  0  0
  5  6  2  0  0  0  0
  5  7  1  0  0  0  0
  2  3  1  0  0  0  0
  2  4  1  0  0  0  0
  2  5  1  0  0  0  0
  1  2  1  0  0  0  0
 29 30  2  0  0  0  0
 29 31  1  0  0  0  0
 26 27  1  0  0  0  0
 26 28  2  0  0  0  0
 24 25  1  0  0  0  0
 24 26  1  0  0  0  0
 22 23  1  0  0  0  0
 22 24  2  0  0  0  0
 20 21  1  0  0  0  0
 20 22  1  0  0  0  0
 19 20  2  0  0  0  0
 19 28  1  0  0  0  0
 17 18  1  0  0  0  0
 17 19  1  0  0  0  0
 15 16  1  0  0  0  0
 15 17  1  0  0  0  0
 14 15  2  0  0  0  0
 14 28  1  0  0  0  0
 11 12  1  0  0  0  0
 11 13  1  0  0  0  0
 11 14  1  0  0  0  0
  9 10  1  0  0  0  0
  9 11  1  0  0  0  0
  9 29  1  0  0  0  0
  7  8  1  0  0  0  0
  7  9  1  0  0  0  0
 33 34  1  0  0  0  0
 33 35  1  0  0  0  0
 33 36  1  0  0  0  0
 31 32  1  0  0  0  0
 31 33  1  0  0  0  0
M  END
$$$$
default_name
  -OEChem-02102213163D

 36 37  0     1  0  0  0  0  0999 V2000
   -4.0843   -4.0736    1.2944 H   0  0  0  0  0  0  0  0  0  0  0  0
   -4.0342   -3.2816    0.5484 C   0  0  0  0  0  0  0  0  0  0  0  0
   -4.8842   -2.6126    0.6694 H   0  0  0  0  0  0  0  0  0  0  0  0
   -4.0433   -3.7186   -0.4486 H   0  0  0  0  0  0  0  0  0  0  0  0
   -2.7532   -2.5046    0.7444 C   0  0  0  0  0  0  0  0  0  0  0  0
   -1.9803   -2.8096    1.6434 O   0  0  0  0  0  0  0  0  0  0  0  0
   -2.5332   -1.4966   -0.0966 N   0  0  0  0  0  0  0  0  0  0  0  0
   -3.2312   -1.2816   -0.7936 H   0  0  0  0  0  0  0  0  0  0  0  0
   -1.3593   -0.6196   -0.0536 C   0  0  1  0  0  0  0  0  0  0  0  0
   -0.4622   -1.2317   -0.1545 H   0  0  0  0  0  0  0  0  0  0  0  0
   -1.4074    0.3593   -1.2373 C   0  0  0  0  0  0  0  0  0  0  0  0
   -2.1586    0.0133   -1.9495 H   0  0  0  0  0  0  0  0  0  0  0  0
   -1.7271    1.3352   -0.8680 H   0  0  0  0  0  0  0  0  0  0  0  0
   -0.1141    0.5310   -1.9748 C   0  0  0  0  0  0  0  0  0  0  0  0
    0.0269    1.0975   -3.1941 C   0  0  0  0  0  0  0  0  0  0  0  0
   -0.7907    1.4808   -3.7949 H   0  0  0  0  0  0  0  0  0  0  0  0
    1.3637    1.1288   -3.5398 N   0  0  0  0  0  0  0  0  0  0  0  0
    1.7048    1.5054   -4.4121 H   0  0  0  0  0  0  0  0  0  0  0  0
    2.1574    0.5955   -2.5465 C   0  0  0  0  0  0  0  0  0  0  0  0
    3.5435    0.4314   -2.4123 C   0  0  0  0  0  0  0  0  0  0  0  0
    4.2114    0.7530   -3.1979 H   0  0  0  0  0  0  0  0  0  0  0  0
    4.0511   -0.1591   -1.2424 C   0  0  0  0  0  0  0  0  0  0  0  0
    5.1173   -0.2947   -1.1217 H   0  0  0  0  0  0  0  0  0  0  0  0
    3.1691   -0.5799   -0.2302 C   0  0  0  0  0  0  0  0  0  0  0  0
    3.5634   -1.0413    0.6646 H   0  0  0  0  0  0  0  0  0  0  0  0
    1.7776   -0.4117   -0.3767 C   0  0  0  0  0  0  0  0  0  0  0  0
    1.1104   -0.7516    0.4027 H   0  0  0  0  0  0  0  0  0  0  0  0
    1.2368    0.1834   -1.5370 C   0  0  0  0  0  0  0  0  0  0  0  0
   -1.2663    0.1182    1.2910 C   0  0  0  0  0  0  0  0  0  0  0  0
   -0.1906    0.1931    1.8833 O   0  0  0  0  0  0  0  0  0  0  0  0
   -2.3930    0.6605    1.7722 N   0  0  0  0  0  0  0  0  0  0  0  0
   -3.2451    0.5077    1.2518 H   0  0  0  0  0  0  0  0  0  0  0  0
   -2.4787    1.3954    3.0311 C   0  0  0  0  0  0  0  0  0  0  0  0
   -1.7166    2.1767    3.0539 H   0  0  0  0  0  0  0  0  0  0  0  0
   -3.4649    1.8498    3.1344 H   0  0  0  0  0  0  0  0  0  0  0  0
   -2.3058    0.7133    3.8652 H   0  0  0  0  0  0  0  0  0  0  0  0
  5  6  2  0  0  0  0
  5  7  1  0  0  0  0
  2  3  1  0  0  0  0
  2  4  1  0  0  0  0
  2  5  1  0  0  0  0
  1  2  1  0  0  0  0
 29 30  2  0  0  0  0
 29 31  1  0  0  0  0
 26 27  1  0  0  0  0
 26 28  2  0  0  0  0
 24 25  1  0  0  0  0
 24 26  1  0  0  0  0
 22 23  1  0  0  0  0
 22 24  2  0  0  0  0
 20 21  1  0  0  0  0
 20 22  1  0  0  0  0
 19 20  2  0  0  0  0
 19 28  1  0  0  0  0
 17 18  1  0  0  0  0
 17 19  1  0  0  0  0
 15 16  1  0  0  0  0
 15 17  1  0  0  0  0
 14 15  2  0  0  0  0
 14 28  1  0  0  0  0
 11 12  1  0  0  0  0
 11 13  1  0  0  0  0
 11 14  1  0  0  0  0
  9 10  1  0  0  0  0
  9 11  1  0  0  0  0
  9 29  1  0  0  0  0
  7  8  1  0  0  0  0
  7  9  1  0  0  0  0
 33 34  1  0  0  0  0
 33 35  1  0  0  0  0
 33 36  1  0  0  0  0
 31 32  1  0  0  0  0
 31 33  1  0  0  0  0
M  END
$$$$
default_name
  -OEChem-02102213163D

 36 37  0     1  0  0  0  0  0999 V2000
   -4.0843   -4.0736    1.2944 H   0  0  0  0  0  0  0  0  0  0  0  0
   -4.0342   -3.2816    0.5484 C   0  0  0  0  0  0  0  0  0  0  0  0
   -4.8842   -2.6126    0.6694 H   0  0  0  0  0  0  0  0  0  0  0  0
   -4.0433   -3.7186   -0.4486 H   0  0  0  0  0  0  0  0  0  0  0  0
   -2.7532   -2.5046    0.7444 C   0  0  0  0  0  0  0  0  0  0  0  0
   -1.9803   -2.8096    1.6434 O   0  0  0  0  0  0  0  0  0  0  0  0
   -2.5332   -1.4966   -0.0966 N   0  0  0  0  0  0  0  0  0  0  0  0
   -3.2312   -1.2816   -0.7936 H   0  0  0  0  0  0  0  0  0  0  0  0
   -1.3593   -0.6196   -0.0536 C   0  0  1  0  0  0  0  0  0  0  0  0
   -0.4622   -1.2317   -0.1545 H   0  0  0  0  0  0  0  0  0  0  0  0
   -1.4074    0.3593   -1.2373 C   0  0  0  0  0  0  0  0  0  0  0  0
   -2.3198    0.1768   -1.8078 H   0  0  0  0  0  0  0  0  0  0  0  0
   -1.4612    1.3763   -0.8449 H   0  0  0  0  0  0  0  0  0  0  0  0
   -0.2462    0.2752   -2.1810 C   0  0  0  0  0  0  0  0  0  0  0  0
   -0.0747    1.0337   -3.2868 C   0  0  0  0  0  0  0  0  0  0  0  0
   -0.7743    1.7864   -3.6335 H   0  0  0  0  0  0  0  0  0  0  0  0
    1.1284    0.7157   -3.8859 N   0  0  0  0  0  0  0  0  0  0  0  0
    1.4632    1.1553   -4.7308 H   0  0  0  0  0  0  0  0  0  0  0  0
    1.8041   -0.2583   -3.1821 C   0  0  0  0  0  0  0  0  0  0  0  0
    3.0465   -0.8830   -3.3626 C   0  0  0  0  0  0  0  0  0  0  0  0
    3.6758   -0.6184   -4.1996 H   0  0  0  0  0  0  0  0  0  0  0  0
    3.4604   -1.8591   -2.4401 C   0  0  0  0  0  0  0  0  0  0  0  0
    4.4150   -2.3524   -2.5638 H   0  0  0  0  0  0  0  0  0  0  0  0
    2.6276   -2.1991   -1.3583 C   0  0  0  0  0  0  0  0  0  0  0  0
    2.9462   -2.9566   -0.6557 H   0  0  0  0  0  0  0  0  0  0  0  0
    1.3800   -1.5661   -1.1879 C   0  0  0  0  0  0  0  0  0  0  0  0
    0.7441   -1.8462   -0.3601 H   0  0  0  0  0  0  0  0  0  0  0  0
    0.9383   -0.5772   -2.0935 C   0  0  0  0  0  0  0  0  0  0  0  0
   -1.2663    0.1182    1.2910 C   0  0  0  0  0  0  0  0  0  0  0  0
   -0.1906    0.1931    1.8833 O   0  0  0  0  0  0  0  0  0  0  0  0
   -2.3930    0.6605    1.7722 N   0  0  0  0  0  0  0  0  0  0  0  0
   -3.2451    0.5077    1.2518 H   0  0  0  0  0  0  0  0  0  0  0  0
   -2.4787    1.3954    3.0311 C   0  0  0  0  0  0  0  0  0  0  0  0
   -1.7166    2.1767    3.0539 H   0  0  0  0  0  0  0  0  0  0  0  0
   -3.4649    1.8498    3.1344 H   0  0  0  0  0  0  0  0  0  0  0  0
   -2.3058    0.7133    3.8652 H   0  0  0  0  0  0  0  0  0  0  0  0
  5  6  2  0  0  0  0
  5  7  1  0  0  0  0
  2  3  1  0  0  0  0
  2  4  1  0  0  0  0
  2  5  1  0  0  0  0
  1  2  1  0  0  0  0
 29 30  2  0  0  0  0
 29 31  1  0  0  0  0
 26 27  1  0  0  0  0
 26 28  2  0  0  0  0
 24 25  1  0  0  0  0
 24 26  1  0  0  0  0
 22 23  1  0  0  0  0
 22 24  2  0  0  0  0
 20 21  1  0  0  0  0
 20 22  1  0  0  0  0
 19 20  2  0  0  0  0
 19 28  1  0  0  0  0
 17 18  1  0  0  0  0
 17 19  1  0  0  0  0
 15 16  1  0  0  0  0
 15 17  1  0  0  0  0
 14 15  2  0  0  0  0
 14 28  1  0  0  0  0
 11 12  1  0  0  0  0
 11 13  1  0  0  0  0
 11 14  1  0  0  0  0
  9 10  1  0  0  0  0
  9 11  1  0  0  0  0
  9 29  1  0  0  0  0
  7  8  1  0  0  0  0
  7  9  1  0  0  0  0
 33 34  1  0  0  0  0
 33 35  1  0  0  0  0
 33 36  1  0  0  0  0
 31 32  1  0  0  0  0
 31 33  1  0  0  0  0
M  END
$$$$
default_name
  -OEChem-02102213163D

 36 37  0     1  0  0  0  0  0999 V2000
   -4.0843   -4.0736    1.2944 H   0  0  0  0  0  0  0  0  0  0  0  0
   -4.0342   -3.2816    0.5484 C   0  0  0  0  0  0  0  0  0  0  0  0
   -4.8842   -2.6126    0.6694 H   0  0  0  0  0  0  0  0  0  0  0  0
   -4.0433   -3.7186   -0.4486 H   0  0  0  0  0  0  0  0  0  0  0  0
   -2.7532   -2.5046    0.7444 C   0  0  0  0  0  0  0  0  0  0  0  0
   -1.9803   -2.8096    1.6434 O   0  0  0  0  0  0  0  0  0  0  0  0
   -2.5332   -1.4966   -0.0966 N   0  0  0  0  0  0  0  0  0  0  0  0
   -3.2312   -1.2816   -0.7936 H   0  0  0  0  0  0  0  0  0  0  0  0
   -1.3593   -0.6196   -0.0536 C   0  0  1  0  0  0  0  0  0  0  0  0
   -0.4622   -1.2317   -0.1545 H   0  0  0  0  0  0  0  0  0  0  0  0
   -1.4074    0.3593   -1.2373 C   0  0  0  0  0  0  0  0  0  0  0  0
   -2.3198    0.1768   -1.8078 H   0  0  0  0  0  0  0  0  0  0  0  0
   -1.4612    1.3763   -0.8449 H   0  0  0  0  0  0  0  0  0  0  0  0
   -0.2462    0.2752   -2.1810 C   0  0  0  0  0  0  0  0  0  0  0  0
    0.0799    1.2002   -3.1114 C   0  0  0  0  0  0  0  0  0  0  0  0
   -0.4778    2.1115   -3.2977 H   0  0  0  0  0  0  0  0  0  0  0  0
    1.2339    0.8145   -3.7649 N   0  0  0  0  0  0  0  0  0  0  0  0
    1.6616    1.3525   -4.5044 H   0  0  0  0  0  0  0  0  0  0  0  0
    1.7212   -0.3778   -3.2734 C   0  0  0  0  0  0  0  0  0  0  0  0
    2.8515   -1.1496   -3.5788 C   0  0  0  0  0  0  0  0  0  0  0  0
    3.5410   -0.8307   -4.3466 H   0  0  0  0  0  0  0  0  0  0  0  0
    3.0733   -2.3446   -2.8731 C   0  0  0  0  0  0  0  0  0  0  0  0
    3.9391   -2.9534   -3.0958 H   0  0  0  0  0  0  0  0  0  0  0  0
    2.1632   -2.7516   -1.8804 C   0  0  0  0  0  0  0  0  0  0  0  0
    2.3333   -3.6759   -1.3457 H   0  0  0  0  0  0  0  0  0  0  0  0
    1.0295   -1.9689   -1.5832 C   0  0  0  0  0  0  0  0  0  0  0  0
    0.3313   -2.2999   -0.8275 H   0  0  0  0  0  0  0  0  0  0  0  0
    0.7818   -0.7605   -2.2697 C   0  0  0  0  0  0  0  0  0  0  0  0
   -1.2663    0.1182    1.2910 C   0  0  0  0  0  0  0  0  0  0  0  0
   -0.1906    0.1931    1.8833 O   0  0  0  0  0  0  0  0  0  0  0  0
   -2.3930    0.6605    1.7722 N   0  0  0  0  0  0  0  0  0  0  0  0
   -3.2451    0.5077    1.2518 H   0  0  0  0  0  0  0  0  0  0  0  0
   -2.4787    1.3954    3.0311 C   0  0  0  0  0  0  0  0  0  0  0  0
   -1.7166    2.1767    3.0539 H   0  0  0  0  0  0  0  0  0  0  0  0
   -3.4649    1.8498    3.1344 H   0  0  0  0  0  0  0  0  0  0  0  0
   -2.3058    0.7133    3.8652 H   0  0  0  0  0  0  0  0  0  0  0  0
  5  6  2  0  0  0  0
  5  7  1  0  0  0  0
  2  3  1  0  0  0  0
  2  4  1  0  0  0  0
  2  5  1  0  0  0  0
  1  2  1  0  0  0  0
 29 30  2  0  0  0  0
 29 31  1  0  0  0  0
 26 27  1  0  0  0  0
 26 28  2  0  0  0  0
 24 25  1  0  0  0  0
 24 26  1  0  0  0  0
 22 23  1  0  0  0  0
 22 24  2  0  0  0  0
 20 21  1  0  0  0  0
 20 22  1  0  0  0  0
 19 20  2  0  0  0  0
 19 28  1  0  0  0  0
 17 18  1  0  0  0  0
 17 19  1  0  0  0  0
 15 16  1  0  0  0  0
 15 17  1  0  0  0  0
 14 15  2  0  0  0  0
 14 28  1  0  0  0  0
 11 12  1  0  0  0  0
 11 13  1  0  0  0  0
 11 14  1  0  0  0  0
  9 10  1  0  0  0  0
  9 11  1  0  0  0  0
  9 29  1  0  0  0  0
  7  8  1  0  0  0  0
  7  9  1  0  0  0  0
 33 34  1  0  0  0  0
 33 35  1  0  0  0  0
 33 36  1  0  0  0  0
 31 32  1  0  0  0  0
 31 33  1  0  0  0  0
M  END
$$$$
default_name
  -OEChem-02102213163D

 36 37  0     1  0  0  0  0  0999 V2000
   -4.0843   -4.0736    1.2944 H   0  0  0  0  0  0  0  0  0  0  0  0
   -4.0342   -3.2816    0.5484 C   0  0  0  0  0  0  0  0  0  0  0  0
   -4.8842   -2.6126    0.6694 H   0  0  0  0  0  0  0  0  0  0  0  0
   -4.0433   -3.7186   -0.4486 H   0  0  0  0  0  0  0  0  0  0  0  0
   -2.7532   -2.5046    0.7444 C   0  0  0  0  0  0  0  0  0  0  0  0
   -1.9803   -2.8096    1.6434 O   0  0  0  0  0  0  0  0  0  0  0  0
   -2.5332   -1.4966   -0.0966 N   0  0  0  0  0  0  0  0  0  0  0  0
   -3.2312   -1.2816   -0.7936 H   0  0  0  0  0  0  0  0  0  0  0  0
   -1.3593   -0.6196   -0.0536 C   0  0  1  0  0  0  0  0  0  0  0  0
   -0.4622   -1.2317   -0.1545 H   0  0  0  0  0  0  0  0  0  0  0  0
   -1.4074    0.3593   -1.2373 C   0  0  0  0  0  0  0  0  0  0  0  0
   -2.3198    0.1768   -1.8078 H   0  0  0  0  0  0  0  0  0  0  0  0
   -1.4612    1.3763   -0.8449 H   0  0  0  0  0  0  0  0  0  0  0  0
   -0.2462    0.2752   -2.1810 C   0  0  0  0  0  0  0  0  0  0  0  0
    0.2539    1.3006   -2.9063 C   0  0  0  0  0  0  0  0  0  0  0  0
   -0.1433    2.3098   -2.9038 H   0  0  0  0  0  0  0  0  0  0  0  0
    1.3502    0.8685   -3.6266 N   0  0  0  0  0  0  0  0  0  0  0  0
    1.8820    1.4653   -4.2433 H   0  0  0  0  0  0  0  0  0  0  0  0
    1.6230   -0.4615   -3.3867 C   0  0  0  0  0  0  0  0  0  0  0  0
    2.6227   -1.3321   -3.8439 C   0  0  0  0  0  0  0  0  0  0  0  0
    3.3783   -0.9843   -4.5330 H   0  0  0  0  0  0  0  0  0  0  0  0
    2.6266   -2.6635   -3.3943 C   0  0  0  0  0  0  0  0  0  0  0  0
    3.3892   -3.3497   -3.7370 H   0  0  0  0  0  0  0  0  0  0  0  0
    1.6322   -3.1050   -2.5022 C   0  0  0  0  0  0  0  0  0  0  0  0
    1.6341   -4.1324   -2.1654 H   0  0  0  0  0  0  0  0  0  0  0  0
    0.6311   -2.2217   -2.0509 C   0  0  0  0  0  0  0  0  0  0  0  0
   -0.1346   -2.5772   -1.3761 H   0  0  0  0  0  0  0  0  0  0  0  0
    0.6033   -0.8767   -2.4789 C   0  0  0  0  0  0  0  0  0  0  0  0
   -1.2663    0.1182    1.2910 C   0  0  0  0  0  0  0  0  0  0  0  0
   -0.1906    0.1931    1.8833 O   0  0  0  0  0  0  0  0  0  0  0  0
   -2.3930    0.6605    1.7722 N   0  0  0  0  0  0  0  0  0  0  0  0
   -3.2451    0.5077    1.2518 H   0  0  0  0  0  0  0  0  0  0  0  0
   -2.4787    1.3954    3.0311 C   0  0  0  0  0  0  0  0  0  0  0  0
   -1.7166    2.1767    3.0539 H   0  0  0  0  0  0  0  0  0  0  0  0
   -3.4649    1.8498    3.1344 H   0  0  0  0  0  0  0  0  0  0  0  0
   -2.3058    0.7133    3.8652 H   0  0  0  0  0  0  0  0  0  0  0  0
  5  6  2  0  0  0  0
  5  7  1  0  0  0  0
  2  3  1  0  0  0  0
  2  4  1  0  0  0  0
  2  5  1  0  0  0  0
  1  2  1  0  0  0  0
 29 30  2  0  0  0  0
 29 31  1  0  0  0  0
 26 27  1  0  0  0  0
 26 28  2  0  0  0  0
 24 25  1  0  0  0  0
 24 26  1  0  0  0  0
 22 23  1  0  0  0  0
 22 24  2  0  0  0  0
 20 21  1  0  0  0  0
 20 22  1  0  0  0  0
 19 20  2  0  0  0  0
 19 28  1  0  0  0  0
 17 18  1  0  0  0  0
 17 19  1  0  0  0  0
 15 16  1  0  0  0  0
 15 17  1  0  0  0  0
 14 15  2  0  0  0  0
 14 28  1  0  0  0  0
 11 12  1  0  0  0  0
 11 13  1  0  0  0  0
 11 14  1  0  0  0  0
  9 10  1  0  0  0  0
  9 11  1  0  0  0  0
  9 29  1  0  0  0  0
  7  8  1  0  0  0  0
  7  9  1  0  0  0  0
 33 34  1  0  0  0  0
 33 35  1  0  0  0  0
 33 36  1  0  0  0  0
 31 32  1  0  0  0  0
 31 33  1  0  0  0  0
M  END
$$$$
default_name
  -OEChem-02102213163D

 36 37  0     1  0  0  0  0  0999 V2000
   -4.0843   -4.0736    1.2944 H   0  0  0  0  0  0  0  0  0  0  0  0
   -4.0342   -3.2816    0.5484 C   0  0  0  0  0  0  0  0  0  0  0  0
   -4.8842   -2.6126    0.6694 H   0  0  0  0  0  0  0  0  0  0  0  0
   -4.0433   -3.7186   -0.4486 H   0  0  0  0  0  0  0  0  0  0  0  0
   -2.7532   -2.5046    0.7444 C   0  0  0  0  0  0  0  0  0  0  0  0
   -1.9803   -2.8096    1.6434 O   0  0  0  0  0  0  0  0  0  0  0  0
   -2.5332   -1.4966   -0.0966 N   0  0  0  0  0  0  0  0  0  0  0  0
   -3.2312   -1.2816   -0.7936 H   0  0  0  0  0  0  0  0  0  0  0  0
   -1.3593   -0.6196   -0.0536 C   0  0  1  0  0  0  0  0  0  0  0  0
   -0.4622   -1.2317   -0.1545 H   0  0  0  0  0  0  0  0  0  0  0  0
   -1.4074    0.3593   -1.2373 C   0  0  0  0  0  0  0  0  0  0  0  0
   -2.3198    0.1768   -1.8078 H   0  0  0  0  0  0  0  0  0  0  0  0
   -1.4612    1.3763   -0.8449 H   0  0  0  0  0  0  0  0  0  0  0  0
   -0.2462    0.2752   -2.1810 C   0  0  0  0  0  0  0  0  0  0  0  0
    0.4353    1.3281   -2.6856 C   0  0  0  0  0  0  0  0  0  0  0  0
    0.2064    2.3678   -2.4786 H   0  0  0  0  0  0  0  0  0  0  0  0
    1.4694    0.8740   -3.4805 N   0  0  0  0  0  0  0  0  0  0  0  0
    2.1094    1.4859   -3.9652 H   0  0  0  0  0  0  0  0  0  0  0  0
    1.5162   -0.5035   -3.5145 C   0  0  0  0  0  0  0  0  0  0  0  0
    2.3759   -1.4178   -4.1400 C   0  0  0  0  0  0  0  0  0  0  0  0
    3.1988   -1.0688   -4.7463 H   0  0  0  0  0  0  0  0  0  0  0  0
    2.1507   -2.7943   -3.9682 C   0  0  0  0  0  0  0  0  0  0  0  0
    2.8028   -3.5143   -4.4439 H   0  0  0  0  0  0  0  0  0  0  0  0
    1.0708   -3.2351   -3.1815 C   0  0  0  0  0  0  0  0  0  0  0  0
    0.8962   -4.2950   -3.0588 H   0  0  0  0  0  0  0  0  0  0  0  0
    0.2119   -2.3071   -2.5591 C   0  0  0  0  0  0  0  0  0  0  0  0
   -0.6218   -2.6591   -1.9683 H   0  0  0  0  0  0  0  0  0  0  0  0
    0.4150   -0.9179   -2.7070 C   0  0  0  0  0  0  0  0  0  0  0  0
   -1.2663    0.1182    1.2910 C   0  0  0  0  0  0  0  0  0  0  0  0
   -0.1906    0.1931    1.8833 O   0  0  0  0  0  0  0  0  0  0  0  0
   -2.3930    0.6605    1.7722 N   0  0  0  0  0  0  0  0  0  0  0  0
   -3.2451    0.5077    1.2518 H   0  0  0  0  0  0  0  0  0  0  0  0
   -2.4787    1.3954    3.0311 C   0  0  0  0  0  0  0  0  0  0  0  0
   -1.7166    2.1767    3.0539 H   0  0  0  0  0  0  0  0  0  0  0  0
   -3.4649    1.8498    3.1344 H   0  0  0  0  0  0  0  0  0  0  0  0
   -2.3058    0.7133    3.8652 H   0  0  0  0  0  0  0  0  0  0  0  0
  5  6  2  0  0  0  0
  5  7  1  0  0  0  0
  2  3  1  0  0  0  0
  2  4  1  0  0  0  0
  2  5  1  0  0  0  0
  1  2  1  0  0  0  0
 29 30  2  0  0  0  0
 29 31  1  0  0  0  0
 26 27  1  0  0  0  0
 26 28  2  0  0  0  0
 24 25  1  0  0  0  0
 24 26  1  0  0  0  0
 22 23  1  0  0  0  0
 22 24  2  0  0  0  0
 20 21  1  0  0  0  0
 20 22  1  0  0  0  0
 19 20  2  0  0  0  0
 19 28  1  0  0  0  0
 17 18  1  0  0  0  0
 17 19  1  0  0  0  0
 15 16  1  0  0  0  0
 15 17  1  0  0  0  0
 14 15  2  0  0  0  0
 14 28  1  0  0  0  0
 11 12  1  0  0  0  0
 11 13  1  0  0  0  0
 11 14  1  0  0  0  0
  9 10  1  0  0  0  0
  9 11  1  0  0  0  0
  9 29  1  0  0  0  0
  7  8  1  0  0  0  0
  7  9  1  0  0  0  0
 33 34  1  0  0  0  0
 33 35  1  0  0  0  0
 33 36  1  0  0  0  0
 31 32  1  0  0  0  0
 31 33  1  0  0  0  0
M  END
$$$$
default_name
  -OEChem-02102213163D

 36 37  0     1  0  0  0  0  0999 V2000
   -4.0843   -4.0736    1.2944 H   0  0  0  0  0  0  0  0  0  0  0  0
   -4.0342   -3.2816    0.5484 C   0  0  0  0  0  0  0  0  0  0  0  0
   -4.8842   -2.6126    0.6694 H   0  0  0  0  0  0  0  0  0  0  0  0
   -4.0433   -3.7186   -0.4486 H   0  0  0  0  0  0  0  0  0  0  0  0
   -2.7532   -2.5046    0.7444 C   0  0  0  0  0  0  0  0  0  0  0  0
   -1.9803   -2.8096    1.6434 O   0  0  0  0  0  0  0  0  0  0  0  0
   -2.5332   -1.4966   -0.0966 N   0  0  0  0  0  0  0  0  0  0  0  0
   -3.2312   -1.2816   -0.7936 H   0  0  0  0  0  0  0  0  0  0  0  0
   -1.3593   -0.6196   -0.0536 C   0  0  1  0  0  0  0  0  0  0  0  0
   -0.4622   -1.2317   -0.1545 H   0  0  0  0  0  0  0  0  0  0  0  0
   -1.4074    0.3593   -1.2373 C   0  0  0  0  0  0  0  0  0  0  0  0
   -2.3198    0.1768   -1.8078 H   0  0  0  0  0  0  0  0  0  0  0  0
   -1.4612    1.3763   -0.8449 H   0  0  0  0  0  0  0  0  0  0  0  0
   -0.2462    0.2752   -2.1810 C   0  0  0  0  0  0  0  0  0  0  0  0
    0.6117    1.2809   -2.4642 C   0  0  0  0  0  0  0  0  0  0  0  0
    0.5475    2.2816   -2.0513 H   0  0  0  0  0  0  0  0  0  0  0  0
    1.5832    0.8305   -3.3365 N   0  0  0  0  0  0  0  0  0  0  0  0
    2.3285    1.4130   -3.6892 H   0  0  0  0  0  0  0  0  0  0  0  0
    1.4080   -0.5011   -3.6478 C   0  0  0  0  0  0  0  0  0  0  0  0
    2.1279   -1.4011   -4.4467 C   0  0  0  0  0  0  0  0  0  0  0  0
    3.0148   -1.0784   -4.9719 H   0  0  0  0  0  0  0  0  0  0  0  0
    1.6780   -2.7280   -4.5557 C   0  0  0  0  0  0  0  0  0  0  0  0
    2.2199   -3.4360   -5.1682 H   0  0  0  0  0  0  0  0  0  0  0  0
    0.5172   -3.1330   -3.8718 C   0  0  0  0  0  0  0  0  0  0  0  0
    0.1699   -4.1527   -3.9651 H   0  0  0  0  0  0  0  0  0  0  0  0
   -0.1996   -2.2193   -3.0732 C   0  0  0  0  0  0  0  0  0  0  0  0
   -1.0972   -2.5401   -2.5639 H   0  0  0  0  0  0  0  0  0  0  0  0
    0.2297   -0.8813   -2.9382 C   0  0  0  0  0  0  0  0  0  0  0  0
   -1.2663    0.1182    1.2910 C   0  0  0  0  0  0  0  0  0  0  0  0
   -0.1906    0.1931    1.8833 O   0  0  0  0  0  0  0  0  0  0  0  0
   -2.3930    0.6605    1.7722 N   0  0  0  0  0  0  0  0  0  0  0  0
   -3.2451    0.5077    1.2518 H   0  0  0  0  0  0  0  0  0  0  0  0
   -2.4787    1.3954    3.0311 C   0  0  0  0  0  0  0  0  0  0  0  0
   -1.7166    2.1767    3.0539 H   0  0  0  0  0  0  0  0  0  0  0  0
   -3.4649    1.8498    3.1344 H   0  0  0  0  0  0  0  0  0  0  0  0
   -2.3058    0.7133    3.8652 H   0  0  0  0  0  0  0  0  0  0  0  0
  5  6  2  0  0  0  0
  5  7  1  0  0  0  0
  2  3  1  0  0  0  0
  2  4  1  0  0  0  0
  2  5  1  0  0  0  0
  1  2  1  0  0  0  0
 29 30  2  0  0  0  0
 29 31  1  0  0  0  0
 26 27  1  0  0  0  0
 26 28  2  0  0  0  0
 24 25  1  0  0  0  0
 24 26  1  0  0  0  0
 22 23  1  0  0  0  0
 22 24  2  0  0  0  0
 20 21  1  0  0  0  0
 20 22  1  0  0  0  0
 19 20  2  0  0  0  0
 19 28  1  0  0  0  0
 17 18  1  0  0  0  0
 17 19  1  0  0  0  0
 15 16  1  0  0  0  0
 15 17  1  0  0  0  0
 14 15  2  0  0  0  0
 14 28  1  0  0  0  0
 11 12  1  0  0  0  0
 11 13  1  0  0  0  0
 11 14  1  0  0  0  0
  9 10  1  0  0  0  0
  9 11  1  0  0  0  0
  9 29  1  0  0  0  0
  7  8  1  0  0  0  0
  7  9  1  0  0  0  0
 33 34  1  0  0  0  0
 33 35  1  0  0  0  0
 33 36  1  0  0  0  0
 31 32  1  0  0  0  0
 31 33  1  0  0  0  0
M  END
$$$$
default_name
  -OEChem-02102213163D

 36 37  0     1  0  0  0  0  0999 V2000
   -4.0843   -4.0736    1.2944 H   0  0  0  0  0  0  0  0  0  0  0  0
   -4.0342   -3.2816    0.5484 C   0  0  0  0  0  0  0  0  0  0  0  0
   -4.8842   -2.6126    0.6694 H   0  0  0  0  0  0  0  0  0  0  0  0
   -4.0433   -3.7186   -0.4486 H   0  0  0  0  0  0  0  0  0  0  0  0
   -2.7532   -2.5046    0.7444 C   0  0  0  0  0  0  0  0  0  0  0  0
   -1.9803   -2.8096    1.6434 O   0  0  0  0  0  0  0  0  0  0  0  0
   -2.5332   -1.4966   -0.0966 N   0  0  0  0  0  0  0  0  0  0  0  0
   -3.2312   -1.2816   -0.7936 H   0  0  0  0  0  0  0  0  0  0  0  0
   -1.3593   -0.6196   -0.0536 C   0  0  1  0  0  0  0  0  0  0  0  0
   -0.4622   -1.2317   -0.1545 H   0  0  0  0  0  0  0  0  0  0  0  0
   -1.4074    0.3593   -1.2373 C   0  0  0  0  0  0  0  0  0  0  0  0
   -2.3198    0.1768   -1.8078 H   0  0  0  0  0  0  0  0  0  0  0  0
   -1.4612    1.3763   -0.8449 H   0  0  0  0  0  0  0  0  0  0  0  0
   -0.2462    0.2752   -2.1810 C   0  0  0  0  0  0  0  0  0  0  0  0
    0.7713    1.1621   -2.2573 C   0  0  0  0  0  0  0  0  0  0  0  0
    0.8567    2.0571   -1.6508 H   0  0  0  0  0  0  0  0  0  0  0  0
    1.6840    0.7411   -3.2045 N   0  0  0  0  0  0  0  0  0  0  0  0
    2.5242    1.2516   -3.4340 H   0  0  0  0  0  0  0  0  0  0  0  0
    1.3058   -0.4544   -3.7777 C   0  0  0  0  0  0  0  0  0  0  0  0
    1.8954   -1.2830   -4.7432 C   0  0  0  0  0  0  0  0  0  0  0  0
    2.8388   -1.0124   -5.1944 H   0  0  0  0  0  0  0  0  0  0  0  0
    1.2408   -2.4691   -5.1167 C   0  0  0  0  0  0  0  0  0  0  0  0
    1.6800   -3.1200   -5.8606 H   0  0  0  0  0  0  0  0  0  0  0  0
    0.0091   -2.8058   -4.5262 C   0  0  0  0  0  0  0  0  0  0  0  0
   -0.4952   -3.7151   -4.8226 H   0  0  0  0  0  0  0  0  0  0  0  0
   -0.5753   -1.9644   -3.5582 C   0  0  0  0  0  0  0  0  0  0  0  0
   -1.5283   -2.2282   -3.1222 H   0  0  0  0  0  0  0  0  0  0  0  0
    0.0600   -0.7693   -3.1569 C   0  0  0  0  0  0  0  0  0  0  0  0
   -1.2663    0.1182    1.2910 C   0  0  0  0  0  0  0  0  0  0  0  0
   -0.1906    0.1931    1.8833 O   0  0  0  0  0  0  0  0  0  0  0  0
   -2.3930    0.6605    1.7722 N   0  0  0  0  0  0  0  0  0  0  0  0
   -3.2451    0.5077    1.2518 H   0  0  0  0  0  0  0  0  0  0  0  0
   -2.4787    1.3954    3.0311 C   0  0  0  0  0  0  0  0  0  0  0  0
   -1.7166    2.1767    3.0539 H   0  0  0  0  0  0  0  0  0  0  0  0
   -3.4649    1.8498    3.1344 H   0  0  0  0  0  0  0  0  0  0  0  0
   -2.3058    0.7133    3.8652 H   0  0  0  0  0  0  0  0  0  0  0  0
  5  6  2  0  0  0  0
  5  7  1  0  0  0  0
  2  3  1  0  0  0  0
  2  4  1  0  0  0  0
  2  5  1  0  0  0  0
  1  2  1  0  0  0  0
 29 30  2  0  0  0  0
 29 31  1  0  0  0  0
 26 27  1  0  0  0  0
 26 28  2  0  0  0  0
 24 25  1  0  0  0  0
 24 26  1  0  0  0  0
 22 23  1  0  0  0  0
 22 24  2  0  0  0  0
 20 21  1  0  0  0  0
 20 22  1  0  0  0  0
 19 20  2  0  0  0  0
 19 28  1  0  0  0  0
 17 18  1  0  0  0  0
 17 19  1  0  0  0  0
 15 16  1  0  0  0  0
 15 17  1  0  0  0  0
 14 15  2  0  0  0  0
 14 28  1  0  0  0  0
 11 12  1  0  0  0  0
 11 13  1  0  0  0  0
 11 14  1  0  0  0  0
  9 10  1  0  0  0  0
  9 11  1  0  0  0  0
  9 29  1  0  0  0  0
  7  8  1  0  0  0  0
  7  9  1  0  0  0  0
 33 34  1  0  0  0  0
 33 35  1  0  0  0  0
 33 36  1  0  0  0  0
 31 32  1  0  0  0  0
 31 33  1  0  0  0  0
M  END
$$$$
default_name
  -OEChem-02102213163D

 36 37  0     1  0  0  0  0  0999 V2000
   -4.0843   -4.0736    1.2944 H   0  0  0  0  0  0  0  0  0  0  0  0
   -4.0342   -3.2816    0.5484 C   0  0  0  0  0  0  0  0  0  0  0  0
   -4.8842   -2.6126    0.6694 H   0  0  0  0  0  0  0  0  0  0  0  0
   -4.0433   -3.7186   -0.4486 H   0  0  0  0  0  0  0  0  0  0  0  0
   -2.7532   -2.5046    0.7444 C   0  0  0  0  0  0  0  0  0  0  0  0
   -1.9803   -2.8096    1.6434 O   0  0  0  0  0  0  0  0  0  0  0  0
   -2.5332   -1.4966   -0.0966 N   0  0  0  0  0  0  0  0  0  0  0  0
   -3.2312   -1.2816   -0.7936 H   0  0  0  0  0  0  0  0  0  0  0  0
   -1.3593   -0.6196   -0.0536 C   0  0  1  0  0  0  0  0  0  0  0  0
   -0.4622   -1.2317   -0.1545 H   0  0  0  0  0  0  0  0  0  0  0  0
   -1.4074    0.3593   -1.2373 C   0  0  0  0  0  0  0  0  0  0  0  0
   -2.3198    0.1768   -1.8078 H   0  0  0  0  0  0  0  0  0  0  0  0
   -1.4612    1.3763   -0.8449 H   0  0  0  0  0  0  0  0  0  0  0  0
   -0.2462    0.2752   -2.1810 C   0  0  0  0  0  0  0  0  0  0  0  0
    0.9030    0.9798   -2.0789 C   0  0  0  0  0  0  0  0  0  0  0  0
    1.1129    1.7095   -1.3045 H   0  0  0  0  0  0  0  0  0  0  0  0
    1.7648    0.6119   -3.0935 N   0  0  0  0  0  0  0  0  0  0  0  0
    2.6832    1.0126   -3.2170 H   0  0  0  0  0  0  0  0  0  0  0  0
    1.2166   -0.3666   -3.8953 C   0  0  0  0  0  0  0  0  0  0  0  0
    1.6945   -1.0715   -5.0093 C   0  0  0  0  0  0  0  0  0  0  0  0
    2.6827   -0.8754   -5.3986 H   0  0  0  0  0  0  0  0  0  0  0  0
    0.8689   -2.0353   -5.6131 C   0  0  0  0  0  0  0  0  0  0  0  0
    1.2202   -2.5881   -6.4739 H   0  0  0  0  0  0  0  0  0  0  0  0
   -0.4189   -2.2756   -5.1000 C   0  0  0  0  0  0  0  0  0  0  0  0
   -1.0539   -3.0121   -5.5727 H   0  0  0  0  0  0  0  0  0  0  0  0
   -0.8895   -1.5597   -3.9810 C   0  0  0  0  0  0  0  0  0  0  0  0
   -1.8858   -1.7447   -3.6052 H   0  0  0  0  0  0  0  0  0  0  0  0
   -0.0824   -0.5897   -3.3482 C   0  0  0  0  0  0  0  0  0  0  0  0
   -1.2663    0.1182    1.2910 C   0  0  0  0  0  0  0  0  0  0  0  0
   -0.1906    0.1931    1.8833 O   0  0  0  0  0  0  0  0  0  0  0  0
   -2.3930    0.6605    1.7722 N   0  0  0  0  0  0  0  0  0  0  0  0
   -3.2451    0.5077    1.2518 H   0  0  0  0  0  0  0  0  0  0  0  0
   -2.4787    1.3954    3.0311 C   0  0  0  0  0  0  0  0  0  0  0  0
   -1.7166    2.1767    3.0539 H   0  0  0  0  0  0  0  0  0  0  0  0
   -3.4649    1.8498    3.1344 H   0  0  0  0  0  0  0  0  0  0  0  0
   -2.3058    0.7133    3.8652 H   0  0  0  0  0  0  0  0  0  0  0  0
  5  6  2  0  0  0  0
  5  7  1  0  0  0  0
  2  3  1  0  0  0  0
  2  4  1  0  0  0  0
  2  5  1  0  0  0  0
  1  2  1  0  0  0  0
 29 30  2  0  0  0  0
 29 31  1  0  0  0  0
 26 27  1  0  0  0  0
 26 28  2  0  0  0  0
 24 25  1  0  0  0  0
 24 26  1  0  0  0  0
 22 23  1  0  0  0  0
 22 24  2  0  0  0  0
 20 21  1  0  0  0  0
 20 22  1  0  0  0  0
 19 20  2  0  0  0  0
 19 28  1  0  0  0  0
 17 18  1  0  0  0  0
 17 19  1  0  0  0  0
 15 16  1  0  0  0  0
 15 17  1  0  0  0  0
 14 15  2  0  0  0  0
 14 28  1  0  0  0  0
 11 12  1  0  0  0  0
 11 13  1  0  0  0  0
 11 14  1  0  0  0  0
  9 10  1  0  0  0  0
  9 11  1  0  0  0  0
  9 29  1  0  0  0  0
  7  8  1  0  0  0  0
  7  9  1  0  0  0  0
 33 34  1  0  0  0  0
 33 35  1  0  0  0  0
 33 36  1  0  0  0  0
 31 32  1  0  0  0  0
 31 33  1  0  0  0  0
M  END
$$$$
default_name
  -OEChem-02102213163D

 36 37  0     1  0  0  0  0  0999 V2000
   -4.0843   -4.0736    1.2944 H   0  0  0  0  0  0  0  0  0  0  0  0
   -4.0342   -3.2816    0.5484 C   0  0  0  0  0  0  0  0  0  0  0  0
   -4.8842   -2.6126    0.6694 H   0  0  0  0  0  0  0  0  0  0  0  0
   -4.0433   -3.7186   -0.4486 H   0  0  0  0  0  0  0  0  0  0  0  0
   -2.7532   -2.5046    0.7444 C   0  0  0  0  0  0  0  0  0  0  0  0
   -1.9803   -2.8096    1.6434 O   0  0  0  0  0  0  0  0  0  0  0  0
   -2.5332   -1.4966   -0.0966 N   0  0  0  0  0  0  0  0  0  0  0  0
   -3.2312   -1.2816   -0.7936 H   0  0  0  0  0  0  0  0  0  0  0  0
   -1.3593   -0.6196   -0.0536 C   0  0  1  0  0  0  0  0  0  0  0  0
   -0.4622   -1.2317   -0.1545 H   0  0  0  0  0  0  0  0  0  0  0  0
   -1.4074    0.3593   -1.2373 C   0  0  0  0  0  0  0  0  0  0  0  0
   -2.3198    0.1768   -1.8078 H   0  0  0  0  0  0  0  0  0  0  0  0
   -1.4612    1.3763   -0.8449 H   0  0  0  0  0  0  0  0  0  0  0  0
   -0.2462    0.2752   -2.1810 C   0  0  0  0  0  0  0  0  0  0  0  0
    0.9980    0.7465   -1.9413 C   0  0  0  0  0  0  0  0  0  0  0  0
    1.2987    1.2626   -1.0360 H   0  0  0  0  0  0  0  0  0  0  0  0
    1.8203    0.4516   -3.0110 N   0  0  0  0  0  0  0  0  0  0  0  0
    2.7947    0.7122   -3.0530 H   0  0  0  0  0  0  0  0  0  0  0  0
    1.1465   -0.2437   -3.9925 C   0  0  0  0  0  0  0  0  0  0  0  0
    1.5387   -0.7812   -5.2269 C   0  0  0  0  0  0  0  0  0  0  0  0
    2.5573   -0.6766   -5.5706 H   0  0  0  0  0  0  0  0  0  0  0  0
    0.5875   -1.4561   -6.0110 C   0  0  0  0  0  0  0  0  0  0  0  0
    0.8716   -1.8763   -6.9663 H   0  0  0  0  0  0  0  0  0  0  0  0
   -0.7375   -1.5787   -5.5542 C   0  0  0  0  0  0  0  0  0  0  0  0
   -1.4681   -2.0915   -6.1645 H   0  0  0  0  0  0  0  0  0  0  0  0
   -1.1210   -1.0328   -4.3128 C   0  0  0  0  0  0  0  0  0  0  0  0
   -2.1453   -1.1226   -3.9799 H   0  0  0  0  0  0  0  0  0  0  0  0
   -0.1879   -0.3546   -3.4990 C   0  0  0  0  0  0  0  0  0  0  0  0
   -1.2663    0.1182    1.2910 C   0  0  0  0  0  0  0  0  0  0  0  0
   -0.1906    0.1931    1.8833 O   0  0  0  0  0  0  0  0  0  0  0  0
   -2.3930    0.6605    1.7722 N   0  0  0  0  0  0  0  0  0  0  0  0
   -3.2451    0.5077    1.2518 H   0  0  0  0  0  0  0  0  0  0  0  0
   -2.4787    1.3954    3.0311 C   0  0  0  0  0  0  0  0  0  0  0  0
   -1.7166    2.1767    3.0539 H   0  0  0  0  0  0  0  0  0  0  0  0
   -3.4649    1.8498    3.1344 H   0  0  0  0  0  0  0  0  0  0  0  0
   -2.3058    0.7133    3.8652 H   0  0  0  0  0  0  0  0  0  0  0  0
  5  6  2  0  0  0  0
  5  7  1  0  0  0  0
  2  3  1  0  0  0  0
  2  4  1  0  0  0  0
  2  5  1  0  0  0  0
  1  2  1  0  0  0  0
 29 30  2  0  0  0  0
 29 31  1  0  0  0  0
 26 27  1  0  0  0  0
 26 28  2  0  0  0  0
 24 25  1  0  0  0  0
 24 26  1  0  0  0  0
 22 23  1  0  0  0  0
 22 24  2  0  0  0  0
 20 21  1  0  0  0  0
 20 22  1  0  0  0  0
 19 20  2  0  0  0  0
 19 28  1  0  0  0  0
 17 18  1  0  0  0  0
 17 19  1  0  0  0  0
 15 16  1  0  0  0  0
 15 17  1  0  0  0  0
 14 15  2  0  0  0  0
 14 28  1  0  0  0  0
 11 12  1  0  0  0  0
 11 13  1  0  0  0  0
 11 14  1  0  0  0  0
  9 10  1  0  0  0  0
  9 11  1  0  0  0  0
  9 29  1  0  0  0  0
  7  8  1  0  0  0  0
  7  9  1  0  0  0  0
 33 34  1  0  0  0  0
 33 35  1  0  0  0  0
 33 36  1  0  0  0  0
 31 32  1  0  0  0  0
 31 33  1  0  0  0  0
M  END
$$$$
default_name
  -OEChem-02102213163D

 36 37  0     1  0  0  0  0  0999 V2000
   -4.0843   -4.0736    1.2944 H   0  0  0  0  0  0  0  0  0  0  0  0
   -4.0342   -3.2816    0.5484 C   0  0  0  0  0  0  0  0  0  0  0  0
   -4.8842   -2.6126    0.6694 H   0  0  0  0  0  0  0  0  0  0  0  0
   -4.0433   -3.7186   -0.4486 H   0  0  0  0  0  0  0  0  0  0  0  0
   -2.7532   -2.5046    0.7444 C   0  0  0  0  0  0  0  0  0  0  0  0
   -1.9803   -2.8096    1.6434 O   0  0  0  0  0  0  0  0  0  0  0  0
   -2.5332   -1.4966   -0.0966 N   0  0  0  0  0  0  0  0  0  0  0  0
   -3.2312   -1.2816   -0.7936 H   0  0  0  0  0  0  0  0  0  0  0  0
   -1.3593   -0.6196   -0.0536 C   0  0  1  0  0  0  0  0  0  0  0  0
   -0.4622   -1.2317   -0.1545 H   0  0  0  0  0  0  0  0  0  0  0  0
   -1.4074    0.3593   -1.2373 C   0  0  0  0  0  0  0  0  0  0  0  0
   -2.3198    0.1768   -1.8078 H   0  0  0  0  0  0  0  0  0  0  0  0
   -1.4612    1.3763   -0.8449 H   0  0  0  0  0  0  0  0  0  0  0  0
   -0.2462    0.2752   -2.1810 C   0  0  0  0  0  0  0  0  0  0  0  0
    1.0497    0.4781   -1.8537 C   0  0  0  0  0  0  0  0  0  0  0  0
    1.4014    0.7467   -0.8636 H   0  0  0  0  0  0  0  0  0  0  0  0
    1.8465    0.2712   -2.9627 N   0  0  0  0  0  0  0  0  0  0  0  0
    2.8510    0.3711   -2.9533 H   0  0  0  0  0  0  0  0  0  0  0  0
    1.1002   -0.0940   -4.0629 C   0  0  0  0  0  0  0  0  0  0  0  0
    1.4388   -0.4317   -5.3811 C   0  0  0  0  0  0  0  0  0  0  0  0
    2.4711   -0.4297   -5.6988 H   0  0  0  0  0  0  0  0  0  0  0  0
    0.4160   -0.7709   -6.2832 C   0  0  0  0  0  0  0  0  0  0  0  0
    0.6581   -1.0332   -7.3042 H   0  0  0  0  0  0  0  0  0  0  0  0
   -0.9251   -0.7626   -5.8579 C   0  0  0  0  0  0  0  0  0  0  0  0
   -1.7095   -1.0161   -6.5575 H   0  0  0  0  0  0  0  0  0  0  0  0
   -1.2539   -0.4196   -4.5310 C   0  0  0  0  0  0  0  0  0  0  0  0
   -2.2891   -0.4042   -4.2210 H   0  0  0  0  0  0  0  0  0  0  0  0
   -0.2493   -0.0800   -3.5991 C   0  0  0  0  0  0  0  0  0  0  0  0
   -1.2663    0.1182    1.2910 C   0  0  0  0  0  0  0  0  0  0  0  0
   -0.1906    0.1931    1.8833 O   0  0  0  0  0  0  0  0  0  0  0  0
   -2.3930    0.6605    1.7722 N   0  0  0  0  0  0  0  0  0  0  0  0
   -3.2451    0.5077    1.2518 H   0  0  0  0  0  0  0  0  0  0  0  0
   -2.4787    1.3954    3.0311 C   0  0  0  0  0  0  0  0  0  0  0  0
   -1.7166    2.1767    3.0539 H   0  0  0  0  0  0  0  0  0  0  0  0
   -3.4649    1.8498    3.1344 H   0  0  0  0  0  0  0  0  0  0  0  0
   -2.3058    0.7133    3.8652 H   0  0  0  0  0  0  0  0  0  0  0  0
  5  6  2  0  0  0  0
  5  7  1  0  0  0  0
  2  3  1  0  0  0  0
  2  4  1  0  0  0  0
  2  5  1  0  0  0  0
  1  2  1  0  0  0  0
 29 30  2  0  0  0  0
 29 31  1  0  0  0  0
 26 27  1  0  0  0  0
 26 28  2  0  0  0  0
 24 25  1  0  0  0  0
 24 26  1  0  0  0  0
 22 23  1  0  0  0  0
 22 24  2  0  0  0  0
 20 21  1  0  0  0  0
 20 22  1  0  0  0  0
 19 20  2  0  0  0  0
 19 28  1  0  0  0  0
 17 18  1  0  0  0  0
 17 19  1  0  0  0  0
 15 16  1  0  0  0  0
 15 17  1  0  0  0  0
 14 15  2  0  0  0  0
 14 28  1  0  0  0  0
 11 12  1  0  0  0  0
 11 13  1  0  0  0  0
 11 14  1  0  0  0  0
  9 10  1  0  0  0  0
  9 11  1  0  0  0  0
  9 29  1  0  0  0  0
  7  8  1  0  0  0  0
  7  9  1  0  0  0  0
 33 34  1  0  0  0  0
 33 35  1  0  0  0  0
 33 36  1  0  0  0  0
 31 32  1  0  0  0  0
 31 33  1  0  0  0  0
M  END
$$$$
default_name
  -OEChem-02102213163D

 36 37  0     1  0  0  0  0  0999 V2000
   -4.0843   -4.0736    1.2944 H   0  0  0  0  0  0  0  0  0  0  0  0
   -4.0342   -3.2816    0.5484 C   0  0  0  0  0  0  0  0  0  0  0  0
   -4.8842   -2.6126    0.6694 H   0  0  0  0  0  0  0  0  0  0  0  0
   -4.0433   -3.7186   -0.4486 H   0  0  0  0  0  0  0  0  0  0  0  0
   -2.7532   -2.5046    0.7444 C   0  0  0  0  0  0  0  0  0  0  0  0
   -1.9803   -2.8096    1.6434 O   0  0  0  0  0  0  0  0  0  0  0  0
   -2.5332   -1.4966   -0.0966 N   0  0  0  0  0  0  0  0  0  0  0  0
   -3.2312   -1.2816   -0.7936 H   0  0  0  0  0  0  0  0  0  0  0  0
   -1.3593   -0.6196   -0.0536 C   0  0  1  0  0  0  0  0  0  0  0  0
   -0.4622   -1.2317   -0.1545 H   0  0  0  0  0  0  0  0  0  0  0  0
   -1.4074    0.3593   -1.2373 C   0  0  0  0  0  0  0  0  0  0  0  0
   -2.3198    0.1768   -1.8078 H   0  0  0  0  0  0  0  0  0  0  0  0
   -1.4612    1.3763   -0.8449 H   0  0  0  0  0  0  0  0  0  0  0  0
   -0.2462    0.2752   -2.1810 C   0  0  0  0  0  0  0  0  0  0  0  0
    1.0546    0.1928   -1.8222 C   0  0  0  0  0  0  0  0  0  0  0  0
    1.4141    0.1971   -0.7990 H   0  0  0  0  0  0  0  0  0  0  0  0
    1.8417    0.0830   -2.9518 N   0  0  0  0  0  0  0  0  0  0  0  0
    2.8484    0.0124   -2.9245 H   0  0  0  0  0  0  0  0  0  0  0  0
    1.0809    0.0722   -4.1014 C   0  0  0  0  0  0  0  0  0  0  0  0
    1.4014   -0.0469   -5.4614 C   0  0  0  0  0  0  0  0  0  0  0  0
    2.4299   -0.1514   -5.7743 H   0  0  0  0  0  0  0  0  0  0  0  0
    0.3658   -0.0266   -6.4113 C   0  0  0  0  0  0  0  0  0  0  0  0
    0.5941   -0.1162   -7.4647 H   0  0  0  0  0  0  0  0  0  0  0  0
   -0.9688    0.1172   -5.9902 C   0  0  0  0  0  0  0  0  0  0  0  0
   -1.7617    0.1407   -6.7249 H   0  0  0  0  0  0  0  0  0  0  0  0
   -1.2791    0.2382   -4.6207 C   0  0  0  0  0  0  0  0  0  0  0  0
   -2.3074    0.3615   -4.3118 H   0  0  0  0  0  0  0  0  0  0  0  0
   -0.2624    0.2152   -3.6416 C   0  0  0  0  0  0  0  0  0  0  0  0
   -1.2663    0.1182    1.2910 C   0  0  0  0  0  0  0  0  0  0  0  0
   -0.1906    0.1931    1.8833 O   0  0  0  0  0  0  0  0  0  0  0  0
   -2.3930    0.6605    1.7722 N   0  0  0  0  0  0  0  0  0  0  0  0
   -3.2451    0.5077    1.2518 H   0  0  0  0  0  0  0  0  0  0  0  0
   -2.4787    1.3954    3.0311 C   0  0  0  0  0  0  0  0  0  0  0  0
   -1.7166    2.1767    3.0539 H   0  0  0  0  0  0  0  0  0  0  0  0
   -3.4649    1.8498    3.1344 H   0  0  0  0  0  0  0  0  0  0  0  0
   -2.3058    0.7133    3.8652 H   0  0  0  0  0  0  0  0  0  0  0  0
  5  6  2  0  0  0  0
  5  7  1  0  0  0  0
  2  3  1  0  0  0  0
  2  4  1  0  0  0  0
  2  5  1  0  0  0  0
  1  2  1  0  0  0  0
 29 30  2  0  0  0  0
 29 31  1  0  0  0  0
 26 27  1  0  0  0  0
 26 28  2  0  0  0  0
 24 25  1  0  0  0  0
 24 26  1  0  0  0  0
 22 23  1  0  0  0  0
 22 24  2  0  0  0  0
 20 21  1  0  0  0  0
 20 22  1  0  0  0  0
 19 20  2  0  0  0  0
 19 28  1  0  0  0  0
 17 18  1  0  0  0  0
 17 19  1  0  0  0  0
 15 16  1  0  0  0  0
 15 17  1  0  0  0  0
 14 15  2  0  0  0  0
 14 28  1  0  0  0  0
 11 12  1  0  0  0  0
 11 13  1  0  0  0  0
 11 14  1  0  0  0  0
  9 10  1  0  0  0  0
  9 11  1  0  0  0  0
  9 29  1  0  0  0  0
  7  8  1  0  0  0  0
  7  9  1  0  0  0  0
 33 34  1  0  0  0  0
 33 35  1  0  0  0  0
 33 36  1  0  0  0  0
 31 32  1  0  0  0  0
 31 33  1  0  0  0  0
M  END
$$$$
default_name
  -OEChem-02102213163D

 36 37  0     1  0  0  0  0  0999 V2000
   -4.0843   -4.0736    1.2944 H   0  0  0  0  0  0  0  0  0  0  0  0
   -4.0342   -3.2816    0.5484 C   0  0  0  0  0  0  0  0  0  0  0  0
   -4.8842   -2.6126    0.6694 H   0  0  0  0  0  0  0  0  0  0  0  0
   -4.0433   -3.7186   -0.4486 H   0  0  0  0  0  0  0  0  0  0  0  0
   -2.7532   -2.5046    0.7444 C   0  0  0  0  0  0  0  0  0  0  0  0
   -1.9803   -2.8096    1.6434 O   0  0  0  0  0  0  0  0  0  0  0  0
   -2.5332   -1.4966   -0.0966 N   0  0  0  0  0  0  0  0  0  0  0  0
   -3.2312   -1.2816   -0.7936 H   0  0  0  0  0  0  0  0  0  0  0  0
   -1.3593   -0.6196   -0.0536 C   0  0  1  0  0  0  0  0  0  0  0  0
   -0.4622   -1.2317   -0.1545 H   0  0  0  0  0  0  0  0  0  0  0  0
   -1.4074    0.3593   -1.2373 C   0  0  0  0  0  0  0  0  0  0  0  0
   -2.3198    0.1768   -1.8078 H   0  0  0  0  0  0  0  0  0  0  0  0
   -1.4612    1.3763   -0.8449 H   0  0  0  0  0  0  0  0  0  0  0  0
   -0.2462    0.2752   -2.1810 C   0  0  0  0  0  0  0  0  0  0  0  0
    1.0125   -0.0898   -1.8489 C   0  0  0  0  0  0  0  0  0  0  0  0
    1.3358   -0.3487   -0.8466 H   0  0  0  0  0  0  0  0  0  0  0  0
    1.8063   -0.1002   -2.9790 N   0  0  0  0  0  0  0  0  0  0  0  0
    2.7870   -0.3394   -2.9687 H   0  0  0  0  0  0  0  0  0  0  0  0
    1.0899    0.2437   -4.1057 C   0  0  0  0  0  0  0  0  0  0  0  0
    1.4292    0.3469   -5.4624 C   0  0  0  0  0  0  0  0  0  0  0  0
    2.4365    0.1392   -5.7921 H   0  0  0  0  0  0  0  0  0  0  0  0
    0.4406    0.7262   -6.3864 C   0  0  0  0  0  0  0  0  0  0  0  0
    0.6841    0.8121   -7.4368 H   0  0  0  0  0  0  0  0  0  0  0  0
   -0.8658    1.0007   -5.9422 C   0  0  0  0  0  0  0  0  0  0  0  0
   -1.6212    1.3003   -6.6554 H   0  0  0  0  0  0  0  0  0  0  0  0
   -1.1950    0.8956   -4.5759 C   0  0  0  0  0  0  0  0  0  0  0  0
   -2.1990    1.1223   -4.2463 H   0  0  0  0  0  0  0  0  0  0  0  0
   -0.2264    0.5111   -3.6236 C   0  0  0  0  0  0  0  0  0  0  0  0
   -1.2663    0.1182    1.2910 C   0  0  0  0  0  0  0  0  0  0  0  0
   -0.1906    0.1931    1.8833 O   0  0  0  0  0  0  0  0  0  0  0  0
   -2.3930    0.6605    1.7722 N   0  0  0  0  0  0  0  0  0  0  0  0
   -3.2451    0.5077    1.2518 H   0  0  0  0  0  0  0  0  0  0  0  0
   -2.4787    1.3954    3.0311 C   0  0  0  0  0  0  0  0  0  0  0  0
   -1.7166    2.1767    3.0539 H   0  0  0  0  0  0  0  0  0  0  0  0
   -3.4649    1.8498    3.1344 H   0  0  0  0  0  0  0  0  0  0  0  0
   -2.3058    0.7133    3.8652 H   0  0  0  0  0  0  0  0  0  0  0  0
  5  6  2  0  0  0  0
  5  7  1  0  0  0  0
  2  3  1  0  0  0  0
  2  4  1  0  0  0  0
  2  5  1  0  0  0  0
  1  2  1  0  0  0  0
 29 30  2  0  0  0  0
 29 31  1  0  0  0  0
 26 27  1  0  0  0  0
 26 28  2  0  0  0  0
 24 25  1  0  0  0  0
 24 26  1  0  0  0  0
 22 23  1  0  0  0  0
 22 24  2  0  0  0  0
 20 21  1  0  0  0  0
 20 22  1  0  0  0  0
 19 20  2  0  0  0  0
 19 28  1  0  0  0  0
 17 18  1  0  0  0  0
 17 19  1  0  0  0  0
 15 16  1  0  0  0  0
 15 17  1  0  0  0  0
 14 15  2  0  0  0  0
 14 28  1  0  0  0  0
 11 12  1  0  0  0  0
 11 13  1  0  0  0  0
 11 14  1  0  0  0  0
  9 10  1  0  0  0  0
  9 11  1  0  0  0  0
  9 29  1  0  0  0  0
  7  8  1  0  0  0  0
  7  9  1  0  0  0  0
 33 34  1  0  0  0  0
 33 35  1  0  0  0  0
 33 36  1  0  0  0  0
 31 32  1  0  0  0  0
 31 33  1  0  0  0  0
M  END
$$$$
default_name
  -OEChem-02102213163D

 36 37  0     1  0  0  0  0  0999 V2000
   -4.0843   -4.0736    1.2944 H   0  0  0  0  0  0  0  0  0  0  0  0
   -4.0342   -3.2816    0.5484 C   0  0  0  0  0  0  0  0  0  0  0  0
   -4.8842   -2.6126    0.6694 H   0  0  0  0  0  0  0  0  0  0  0  0
   -4.0433   -3.7186   -0.4486 H   0  0  0  0  0  0  0  0  0  0  0  0
   -2.7532   -2.5046    0.7444 C   0  0  0  0  0  0  0  0  0  0  0  0
   -1.9803   -2.8096    1.6434 O   0  0  0  0  0  0  0  0  0  0  0  0
   -2.5332   -1.4966   -0.0966 N   0  0  0  0  0  0  0  0  0  0  0  0
   -3.2312   -1.2816   -0.7936 H   0  0  0  0  0  0  0  0  0  0  0  0
   -1.3593   -0.6196   -0.0536 C   0  0  1  0  0  0  0  0  0  0  0  0
   -0.4622   -1.2317   -0.1545 H   0  0  0  0  0  0  0  0  0  0  0  0
   -1.4074    0.3593   -1.2373 C   0  0  0  0  0  0  0  0  0  0  0  0
   -2.3198    0.1768   -1.8078 H   0  0  0  0  0  0  0  0  0  0  0  0
   -1.4612    1.3763   -0.8449 H   0  0  0  0  0  0  0  0  0  0  0  0
   -0.2462    0.2752   -2.1810 C   0  0  0  0  0  0  0  0  0  0  0  0
    0.9260   -0.3506   -1.9320 C   0  0  0  0  0  0  0  0  0  0  0  0
    1.1720   -0.8537   -1.0032 H   0  0  0  0  0  0  0  0  0  0  0  0
    1.7426   -0.2660   -3.0426 N   0  0  0  0  0  0  0  0  0  0  0  0
    2.6710   -0.6603   -3.0828 H   0  0  0  0  0  0  0  0  0  0  0  0
    1.1266    0.4087   -4.0752 C   0  0  0  0  0  0  0  0  0  0  0  0
    1.5202    0.7230   -5.3839 C   0  0  0  0  0  0  0  0  0  0  0  0
    2.4906    0.4224   -5.7508 H   0  0  0  0  0  0  0  0  0  0  0  0
    0.6351    1.4362   -6.2104 C   0  0  0  0  0  0  0  0  0  0  0  0
    0.9220    1.6885   -7.2223 H   0  0  0  0  0  0  0  0  0  0  0  0
   -0.6230    1.8277   -5.7172 C   0  0  0  0  0  0  0  0  0  0  0  0
   -1.2975    2.3835   -6.3538 H   0  0  0  0  0  0  0  0  0  0  0  0
   -1.0072    1.5080   -4.3995 C   0  0  0  0  0  0  0  0  0  0  0  0
   -1.9712    1.8264   -4.0288 H   0  0  0  0  0  0  0  0  0  0  0  0
   -0.1436    0.7873   -3.5464 C   0  0  0  0  0  0  0  0  0  0  0  0
   -1.2663    0.1182    1.2910 C   0  0  0  0  0  0  0  0  0  0  0  0
   -0.1906    0.1931    1.8833 O   0  0  0  0  0  0  0  0  0  0  0  0
   -2.3930    0.6605    1.7722 N   0  0  0  0  0  0  0  0  0  0  0  0
   -3.2451    0.5077    1.2518 H   0  0  0  0  0  0  0  0  0  0  0  0
   -2.4787    1.3954    3.0311 C   0  0  0  0  0  0  0  0  0  0  0  0
   -1.7166    2.1767    3.0539 H   0  0  0  0  0  0  0  0  0  0  0  0
   -3.4649    1.8498    3.1344 H   0  0  0  0  0  0  0  0  0  0  0  0
   -2.3058    0.7133    3.8652 H   0  0  0  0  0  0  0  0  0  0  0  0
  5  6  2  0  0  0  0
  5  7  1  0  0  0  0
  2  3  1  0  0  0  0
  2  4  1  0  0  0  0
  2  5  1  0  0  0  0
  1  2  1  0  0  0  0
 29 30  2  0  0  0  0
 29 31  1  0  0  0  0
 26 27  1  0  0  0  0
 26 28  2  0  0  0  0
 24 25  1  0  0  0  0
 24 26  1  0  0  0  0
 22 23  1  0  0  0  0
 22 24  2  0  0  0  0
 20 21  1  0  0  0  0
 20 22  1  0  0  0  0
 19 20  2  0  0  0  0
 19 28  1  0  0  0  0
 17 18  1  0  0  0  0
 17 19  1  0  0  0  0
 15 16  1  0  0  0  0
 15 17  1  0  0  0  0
 14 15  2  0  0  0  0
 14 28  1  0  0  0  0
 11 12  1  0  0  0  0
 11 13  1  0  0  0  0
 11 14  1  0  0  0  0
  9 10  1  0  0  0  0
  9 11  1  0  0  0  0
  9 29  1  0  0  0  0
  7  8  1  0  0  0  0
  7  9  1  0  0  0  0
 33 34  1  0  0  0  0
 33 35  1  0  0  0  0
 33 36  1  0  0  0  0
 31 32  1  0  0  0  0
 31 33  1  0  0  0  0
M  END
$$$$
default_name
  -OEChem-02102213163D

 36 37  0     1  0  0  0  0  0999 V2000
   -4.0843   -4.0736    1.2944 H   0  0  0  0  0  0  0  0  0  0  0  0
   -4.0342   -3.2816    0.5484 C   0  0  0  0  0  0  0  0  0  0  0  0
   -4.8842   -2.6126    0.6694 H   0  0  0  0  0  0  0  0  0  0  0  0
   -4.0433   -3.7186   -0.4486 H   0  0  0  0  0  0  0  0  0  0  0  0
   -2.7532   -2.5046    0.7444 C   0  0  0  0  0  0  0  0  0  0  0  0
   -1.9803   -2.8096    1.6434 O   0  0  0  0  0  0  0  0  0  0  0  0
   -2.5332   -1.4966   -0.0966 N   0  0  0  0  0  0  0  0  0  0  0  0
   -3.2312   -1.2816   -0.7936 H   0  0  0  0  0  0  0  0  0  0  0  0
   -1.3593   -0.6196   -0.0536 C   0  0  1  0  0  0  0  0  0  0  0  0
   -0.4622   -1.2317   -0.1545 H   0  0  0  0  0  0  0  0  0  0  0  0
   -1.4074    0.3593   -1.2373 C   0  0  0  0  0  0  0  0  0  0  0  0
   -2.3198    0.1768   -1.8078 H   0  0  0  0  0  0  0  0  0  0  0  0
   -1.4612    1.3763   -0.8449 H   0  0  0  0  0  0  0  0  0  0  0  0
   -0.2462    0.2752   -2.1810 C   0  0  0  0  0  0  0  0  0  0  0  0
    0.8012   -0.5718   -2.0658 C   0  0  0  0  0  0  0  0  0  0  0  0
    0.9336   -1.2834   -1.2581 H   0  0  0  0  0  0  0  0  0  0  0  0
    1.6549   -0.4029   -3.1382 N   0  0  0  0  0  0  0  0  0  0  0  0
    2.5083   -0.9286   -3.2590 H   0  0  0  0  0  0  0  0  0  0  0  0
    1.1885    0.5559   -4.0122 C   0  0  0  0  0  0  0  0  0  0  0  0
    1.6683    1.0558   -5.2314 C   0  0  0  0  0  0  0  0  0  0  0  0
    2.5883    0.6789   -5.6534 H   0  0  0  0  0  0  0  0  0  0  0  0
    0.9362    2.0550   -5.8951 C   0  0  0  0  0  0  0  0  0  0  0  0
    1.2914    2.4533   -6.8360 H   0  0  0  0  0  0  0  0  0  0  0  0
   -0.2569    2.5418   -5.3305 C   0  0  0  0  0  0  0  0  0  0  0  0
   -0.8126    3.3165   -5.8404 H   0  0  0  0  0  0  0  0  0  0  0  0
   -0.7287    2.0335   -4.1036 C   0  0  0  0  0  0  0  0  0  0  0  0
   -1.6397    2.4257   -3.6743 H   0  0  0  0  0  0  0  0  0  0  0  0
   -0.0197    1.0252   -3.4152 C   0  0  0  0  0  0  0  0  0  0  0  0
   -1.2663    0.1182    1.2910 C   0  0  0  0  0  0  0  0  0  0  0  0
   -0.1906    0.1931    1.8833 O   0  0  0  0  0  0  0  0  0  0  0  0
   -2.3930    0.6605    1.7722 N   0  0  0  0  0  0  0  0  0  0  0  0
   -3.2451    0.5077    1.2518 H   0  0  0  0  0  0  0  0  0  0  0  0
   -2.4787    1.3954    3.0311 C   0  0  0  0  0  0  0  0  0  0  0  0
   -1.7166    2.1767    3.0539 H   0  0  0  0  0  0  0  0  0  0  0  0
   -3.4649    1.8498    3.1344 H   0  0  0  0  0  0  0  0  0  0  0  0
   -2.3058    0.7133    3.8652 H   0  0  0  0  0  0  0  0  0  0  0  0
  5  6  2  0  0  0  0
  5  7  1  0  0  0  0
  2  3  1  0  0  0  0
  2  4  1  0  0  0  0
  2  5  1  0  0  0  0
  1  2  1  0  0  0  0
 29 30  2  0  0  0  0
 29 31  1  0  0  0  0
 26 27  1  0  0  0  0
 26 28  2  0  0  0  0
 24 25  1  0  0  0  0
 24 26  1  0  0  0  0
 22 23  1  0  0  0  0
 22 24  2  0  0  0  0
 20 21  1  0  0  0  0
 20 22  1  0  0  0  0
 19 20  2  0  0  0  0
 19 28  1  0  0  0  0
 17 18  1  0  0  0  0
 17 19  1  0  0  0  0
 15 16  1  0  0  0  0
 15 17  1  0  0  0  0
 14 15  2  0  0  0  0
 14 28  1  0  0  0  0
 11 12  1  0  0  0  0
 11 13  1  0  0  0  0
 11 14  1  0  0  0  0
  9 10  1  0  0  0  0
  9 11  1  0  0  0  0
  9 29  1  0  0  0  0
  7  8  1  0  0  0  0
  7  9  1  0  0  0  0
 33 34  1  0  0  0  0
 33 35  1  0  0  0  0
 33 36  1  0  0  0  0
 31 32  1  0  0  0  0
 31 33  1  0  0  0  0
M  END
$$$$
default_name
  -OEChem-02102213163D

 36 37  0     1  0  0  0  0  0999 V2000
   -4.0843   -4.0736    1.2944 H   0  0  0  0  0  0  0  0  0  0  0  0
   -4.0342   -3.2816    0.5484 C   0  0  0  0  0  0  0  0  0  0  0  0
   -4.8842   -2.6126    0.6694 H   0  0  0  0  0  0  0  0  0  0  0  0
   -4.0433   -3.7186   -0.4486 H   0  0  0  0  0  0  0  0  0  0  0  0
   -2.7532   -2.5046    0.7444 C   0  0  0  0  0  0  0  0  0  0  0  0
   -1.9803   -2.8096    1.6434 O   0  0  0  0  0  0  0  0  0  0  0  0
   -2.5332   -1.4966   -0.0966 N   0  0  0  0  0  0  0  0  0  0  0  0
   -3.2312   -1.2816   -0.7936 H   0  0  0  0  0  0  0  0  0  0  0  0
   -1.3593   -0.6196   -0.0536 C   0  0  1  0  0  0  0  0  0  0  0  0
   -0.4622   -1.2317   -0.1545 H   0  0  0  0  0  0  0  0  0  0  0  0
   -1.4074    0.3593   -1.2373 C   0  0  0  0  0  0  0  0  0  0  0  0
   -2.3198    0.1768   -1.8078 H   0  0  0  0  0  0  0  0  0  0  0  0
   -1.4612    1.3763   -0.8449 H   0  0  0  0  0  0  0  0  0  0  0  0
   -0.2462    0.2752   -2.1810 C   0  0  0  0  0  0  0  0  0  0  0  0
    0.6466   -0.7383   -2.2412 C   0  0  0  0  0  0  0  0  0  0  0  0
    0.6371   -1.6084   -1.5940 H   0  0  0  0  0  0  0  0  0  0  0  0
    1.5494   -0.5017   -3.2593 N   0  0  0  0  0  0  0  0  0  0  0  0
    2.3100   -1.1258   -3.4855 H   0  0  0  0  0  0  0  0  0  0  0  0
    1.2714    0.6755   -3.9209 C   0  0  0  0  0  0  0  0  0  0  0  0
    1.8633    1.3224   -5.0151 C   0  0  0  0  0  0  0  0  0  0  0  0
    2.7231    0.8912   -5.5065 H   0  0  0  0  0  0  0  0  0  0  0  0
    1.3233    2.5404   -5.4622 C   0  0  0  0  0  0  0  0  0  0  0  0
    1.7673    3.0543   -6.3040 H   0  0  0  0  0  0  0  0  0  0  0  0
    0.2074    3.0944   -4.8084 C   0  0  0  0  0  0  0  0  0  0  0  0
   -0.1997    4.0358   -5.1504 H   0  0  0  0  0  0  0  0  0  0  0  0
   -0.3782    2.4363   -3.7083 C   0  0  0  0  0  0  0  0  0  0  0  0
   -1.2268    2.8795   -3.2068 H   0  0  0  0  0  0  0  0  0  0  0  0
    0.1368    1.2085   -3.2390 C   0  0  0  0  0  0  0  0  0  0  0  0
   -1.2663    0.1182    1.2910 C   0  0  0  0  0  0  0  0  0  0  0  0
   -0.1906    0.1931    1.8833 O   0  0  0  0  0  0  0  0  0  0  0  0
   -2.3930    0.6605    1.7722 N   0  0  0  0  0  0  0  0  0  0  0  0
   -3.2451    0.5077    1.2518 H   0  0  0  0  0  0  0  0  0  0  0  0
   -2.4787    1.3954    3.0311 C   0  0  0  0  0  0  0  0  0  0  0  0
   -1.7166    2.1767    3.0539 H   0  0  0  0  0  0  0  0  0  0  0  0
   -3.4649    1.8498    3.1344 H   0  0  0  0  0  0  0  0  0  0  0  0
   -2.3058    0.7133    3.8652 H   0  0  0  0  0  0  0  0  0  0  0  0
  5  6  2  0  0  0  0
  5  7  1  0  0  0  0
  2  3  1  0  0  0  0
  2  4  1  0  0  0  0
  2  5  1  0  0  0  0
  1  2  1  0  0  0  0
 29 30  2  0  0  0  0
 29 31  1  0  0  0  0
 26 27  1  0  0  0  0
 26 28  2  0  0  0  0
 24 25  1  0  0  0  0
 24 26  1  0  0  0  0
 22 23  1  0  0  0  0
 22 24  2  0  0  0  0
 20 21  1  0  0  0  0
 20 22  1  0  0  0  0
 19 20  2  0  0  0  0
 19 28  1  0  0  0  0
 17 18  1  0  0  0  0
 17 19  1  0  0  0  0
 15 16  1  0  0  0  0
 15 17  1  0  0  0  0
 14 15  2  0  0  0  0
 14 28  1  0  0  0  0
 11 12  1  0  0  0  0
 11 13  1  0  0  0  0
 11 14  1  0  0  0  0
  9 10  1  0  0  0  0
  9 11  1  0  0  0  0
  9 29  1  0  0  0  0
  7  8  1  0  0  0  0
  7  9  1  0  0  0  0
 33 34  1  0  0  0  0
 33 35  1  0  0  0  0
 33 36  1  0  0  0  0
 31 32  1  0  0  0  0
 31 33  1  0  0  0  0
M  END
$$$$
default_name
  -OEChem-02102213163D

 36 37  0     1  0  0  0  0  0999 V2000
   -4.0843   -4.0736    1.2944 H   0  0  0  0  0  0  0  0  0  0  0  0
   -4.0342   -3.2816    0.5484 C   0  0  0  0  0  0  0  0  0  0  0  0
   -4.8842   -2.6126    0.6694 H   0  0  0  0  0  0  0  0  0  0  0  0
   -4.0433   -3.7186   -0.4486 H   0  0  0  0  0  0  0  0  0  0  0  0
   -2.7532   -2.5046    0.7444 C   0  0  0  0  0  0  0  0  0  0  0  0
   -1.9803   -2.8096    1.6434 O   0  0  0  0  0  0  0  0  0  0  0  0
   -2.5332   -1.4966   -0.0966 N   0  0  0  0  0  0  0  0  0  0  0  0
   -3.2312   -1.2816   -0.7936 H   0  0  0  0  0  0  0  0  0  0  0  0
   -1.3593   -0.6196   -0.0536 C   0  0  1  0  0  0  0  0  0  0  0  0
   -0.4622   -1.2317   -0.1545 H   0  0  0  0  0  0  0  0  0  0  0  0
   -1.4074    0.3593   -1.2373 C   0  0  0  0  0  0  0  0  0  0  0  0
   -2.3198    0.1768   -1.8078 H   0  0  0  0  0  0  0  0  0  0  0  0
   -1.4612    1.3763   -0.8449 H   0  0  0  0  0  0  0  0  0  0  0  0
   -0.2462    0.2752   -2.1810 C   0  0  0  0  0  0  0  0  0  0  0  0
    0.4727   -0.8387   -2.4463 C   0  0  0  0  0  0  0  0  0  0  0  0
    0.3026   -1.8067   -1.9879 H   0  0  0  0  0  0  0  0  0  0  0  0
    1.4331   -0.5557   -3.3976 N   0  0  0  0  0  0  0  0  0  0  0  0
    2.0896   -1.2386   -3.7466 H   0  0  0  0  0  0  0  0  0  0  0  0
    1.3696    0.7591   -3.8075 C   0  0  0  0  0  0  0  0  0  0  0  0
    2.0920    1.5049   -4.7500 C   0  0  0  0  0  0  0  0  0  0  0  0
    2.8858    1.0448   -5.3200 H   0  0  0  0  0  0  0  0  0  0  0  0
    1.7700    2.8594   -4.9410 C   0  0  0  0  0  0  0  0  0  0  0  0
    2.3172    3.4506   -5.6628 H   0  0  0  0  0  0  0  0  0  0  0  0
    0.7384    3.4477   -4.1866 C   0  0  0  0  0  0  0  0  0  0  0  0
    0.4995    4.4923   -4.3308 H   0  0  0  0  0  0  0  0  0  0  0  0
    0.0202    2.6891   -3.2406 C   0  0  0  0  0  0  0  0  0  0  0  0
   -0.7609    3.1568   -2.6583 H   0  0  0  0  0  0  0  0  0  0  0  0
    0.3153    1.3247   -3.0297 C   0  0  0  0  0  0  0  0  0  0  0  0
   -1.2663    0.1182    1.2910 C   0  0  0  0  0  0  0  0  0  0  0  0
   -0.1906    0.1931    1.8833 O   0  0  0  0  0  0  0  0  0  0  0  0
   -2.3930    0.6605    1.7722 N   0  0  0  0  0  0  0  0  0  0  0  0
   -3.2451    0.5077    1.2518 H   0  0  0  0  0  0  0  0  0  0  0  0
   -2.4787    1.3954    3.0311 C   0  0  0  0  0  0  0  0  0  0  0  0
   -1.7166    2.1767    3.0539 H   0  0  0  0  0  0  0  0  0  0  0  0
   -3.4649    1.8498    3.1344 H   0  0  0  0  0  0  0  0  0  0  0  0
   -2.3058    0.7133    3.8652 H   0  0  0  0  0  0  0  0  0  0  0  0
  5  6  2  0  0  0  0
  5  7  1  0  0  0  0
  2  3  1  0  0  0  0
  2  4  1  0  0  0  0
  2  5  1  0  0  0  0
  1  2  1  0  0  0  0
 29 30  2  0  0  0  0
 29 31  1  0  0  0  0
 26 27  1  0  0  0  0
 26 28  2  0  0  0  0
 24 25  1  0  0  0  0
 24 26  1  0  0  0  0
 22 23  1  0  0  0  0
 22 24  2  0  0  0  0
 20 21  1  0  0  0  0
 20 22  1  0  0  0  0
 19 20  2  0  0  0  0
 19 28  1  0  0  0  0
 17 18  1  0  0  0  0
 17 19  1  0  0  0  0
 15 16  1  0  0  0  0
 15 17  1  0  0  0  0
 14 15  2  0  0  0  0
 14 28  1  0  0  0  0
 11 12  1  0  0  0  0
 11 13  1  0  0  0  0
 11 14  1  0  0  0  0
  9 10  1  0  0  0  0
  9 11  1  0  0  0  0
  9 29  1  0  0  0  0
  7  8  1  0  0  0  0
  7  9  1  0  0  0  0
 33 34  1  0  0  0  0
 33 35  1  0  0  0  0
 33 36  1  0  0  0  0
 31 32  1  0  0  0  0
 31 33  1  0  0  0  0
M  END
$$$$
default_name
  -OEChem-02102213163D

 36 37  0     1  0  0  0  0  0999 V2000
   -4.0843   -4.0736    1.2944 H   0  0  0  0  0  0  0  0  0  0  0  0
   -4.0342   -3.2816    0.5484 C   0  0  0  0  0  0  0  0  0  0  0  0
   -4.8842   -2.6126    0.6694 H   0  0  0  0  0  0  0  0  0  0  0  0
   -4.0433   -3.7186   -0.4486 H   0  0  0  0  0  0  0  0  0  0  0  0
   -2.7532   -2.5046    0.7444 C   0  0  0  0  0  0  0  0  0  0  0  0
   -1.9803   -2.8096    1.6434 O   0  0  0  0  0  0  0  0  0  0  0  0
   -2.5332   -1.4966   -0.0966 N   0  0  0  0  0  0  0  0  0  0  0  0
   -3.2312   -1.2816   -0.7936 H   0  0  0  0  0  0  0  0  0  0  0  0
   -1.3593   -0.6196   -0.0536 C   0  0  1  0  0  0  0  0  0  0  0  0
   -0.4622   -1.2317   -0.1545 H   0  0  0  0  0  0  0  0  0  0  0  0
   -1.4074    0.3593   -1.2373 C   0  0  0  0  0  0  0  0  0  0  0  0
   -2.3198    0.1768   -1.8078 H   0  0  0  0  0  0  0  0  0  0  0  0
   -1.4612    1.3763   -0.8449 H   0  0  0  0  0  0  0  0  0  0  0  0
   -0.2462    0.2752   -2.1810 C   0  0  0  0  0  0  0  0  0  0  0  0
    0.2913   -0.8662   -2.6670 C   0  0  0  0  0  0  0  0  0  0  0  0
   -0.0471   -1.8647   -2.4130 H   0  0  0  0  0  0  0  0  0  0  0  0
    1.3139   -0.5611   -3.5437 N   0  0  0  0  0  0  0  0  0  0  0  0
    1.8621   -1.2593   -4.0247 H   0  0  0  0  0  0  0  0  0  0  0  0
    1.4764    0.8012   -3.6798 C   0  0  0  0  0  0  0  0  0  0  0  0
    2.3389    1.5906   -4.4540 C   0  0  0  0  0  0  0  0  0  0  0  0
    3.0653    1.1293   -5.1067 H   0  0  0  0  0  0  0  0  0  0  0  0
    2.2459    2.9902   -4.3671 C   0  0  0  0  0  0  0  0  0  0  0  0
    2.9036    3.6152   -4.9559 H   0  0  0  0  0  0  0  0  0  0  0  0
    1.2999    3.5778   -3.5074 C   0  0  0  0  0  0  0  0  0  0  0  0
    1.2374    4.6550   -3.4374 H   0  0  0  0  0  0  0  0  0  0  0  0
    0.4394    2.7745   -2.7324 C   0  0  0  0  0  0  0  0  0  0  0  0
   -0.2737    3.2387   -2.0660 H   0  0  0  0  0  0  0  0  0  0  0  0
    0.5036    1.3659   -2.8017 C   0  0  0  0  0  0  0  0  0  0  0  0
   -1.2663    0.1182    1.2910 C   0  0  0  0  0  0  0  0  0  0  0  0
   -0.1906    0.1931    1.8833 O   0  0  0  0  0  0  0  0  0  0  0  0
   -2.3930    0.6605    1.7722 N   0  0  0  0  0  0  0  0  0  0  0  0
   -3.2451    0.5077    1.2518 H   0  0  0  0  0  0  0  0  0  0  0  0
   -2.4787    1.3954    3.0311 C   0  0  0  0  0  0  0  0  0  0  0  0
   -1.7166    2.1767    3.0539 H   0  0  0  0  0  0  0  0  0  0  0  0
   -3.4649    1.8498    3.1344 H   0  0  0  0  0  0  0  0  0  0  0  0
   -2.3058    0.7133    3.8652 H   0  0  0  0  0  0  0  0  0  0  0  0
  5  6  2  0  0  0  0
  5  7  1  0  0  0  0
  2  3  1  0  0  0  0
  2  4  1  0  0  0  0
  2  5  1  0  0  0  0
  1  2  1  0  0  0  0
 29 30  2  0  0  0  0
 29 31  1  0  0  0  0
 26 27  1  0  0  0  0
 26 28  2  0  0  0  0
 24 25  1  0  0  0  0
 24 26  1  0  0  0  0
 22 23  1  0  0  0  0
 22 24  2  0  0  0  0
 20 21  1  0  0  0  0
 20 22  1  0  0  0  0
 19 20  2  0  0  0  0
 19 28  1  0  0  0  0
 17 18  1  0  0  0  0
 17 19  1  0  0  0  0
 15 16  1  0  0  0  0
 15 17  1  0  0  0  0
 14 15  2  0  0  0  0
 14 28  1  0  0  0  0
 11 12  1  0  0  0  0
 11 13  1  0  0  0  0
 11 14  1  0  0  0  0
  9 10  1  0  0  0  0
  9 11  1  0  0  0  0
  9 29  1  0  0  0  0
  7  8  1  0  0  0  0
  7  9  1  0  0  0  0
 33 34  1  0  0  0  0
 33 35  1  0  0  0  0
 33 36  1  0  0  0  0
 31 32  1  0  0  0  0
 31 33  1  0  0  0  0
M  END
$$$$
default_name
  -OEChem-02102213163D

 36 37  0     1  0  0  0  0  0999 V2000
   -4.0843   -4.0736    1.2944 H   0  0  0  0  0  0  0  0  0  0  0  0
   -4.0342   -3.2816    0.5484 C   0  0  0  0  0  0  0  0  0  0  0  0
   -4.8842   -2.6126    0.6694 H   0  0  0  0  0  0  0  0  0  0  0  0
   -4.0433   -3.7186   -0.4486 H   0  0  0  0  0  0  0  0  0  0  0  0
   -2.7532   -2.5046    0.7444 C   0  0  0  0  0  0  0  0  0  0  0  0
   -1.9803   -2.8096    1.6434 O   0  0  0  0  0  0  0  0  0  0  0  0
   -2.5332   -1.4966   -0.0966 N   0  0  0  0  0  0  0  0  0  0  0  0
   -3.2312   -1.2816   -0.7936 H   0  0  0  0  0  0  0  0  0  0  0  0
   -1.3593   -0.6196   -0.0536 C   0  0  1  0  0  0  0  0  0  0  0  0
   -0.4622   -1.2317   -0.1545 H   0  0  0  0  0  0  0  0  0  0  0  0
   -1.4074    0.3593   -1.2373 C   0  0  0  0  0  0  0  0  0  0  0  0
   -2.3198    0.1768   -1.8078 H   0  0  0  0  0  0  0  0  0  0  0  0
   -1.4612    1.3763   -0.8449 H   0  0  0  0  0  0  0  0  0  0  0  0
   -0.2462    0.2752   -2.1810 C   0  0  0  0  0  0  0  0  0  0  0  0
    0.1148   -0.8189   -2.8884 C   0  0  0  0  0  0  0  0  0  0  0  0
   -0.3882   -1.7786   -2.8404 H   0  0  0  0  0  0  0  0  0  0  0  0
    1.2001   -0.5177   -3.6876 N   0  0  0  0  0  0  0  0  0  0  0  0
    1.6430   -1.1864   -4.3007 H   0  0  0  0  0  0  0  0  0  0  0  0
    1.5846    0.7987   -3.5465 C   0  0  0  0  0  0  0  0  0  0  0  0
    2.5869    1.5739   -4.1472 C   0  0  0  0  0  0  0  0  0  0  0  0
    3.2493    1.1388   -4.8812 H   0  0  0  0  0  0  0  0  0  0  0  0
    2.7185    2.9239   -3.7796 C   0  0  0  0  0  0  0  0  0  0  0  0
    3.4865    3.5369   -4.2316 H   0  0  0  0  0  0  0  0  0  0  0  0
    1.8535    3.4757   -2.8170 C   0  0  0  0  0  0  0  0  0  0  0  0
    1.9637    4.5126   -2.5310 H   0  0  0  0  0  0  0  0  0  0  0  0
    0.8509    2.6867   -2.2183 C   0  0  0  0  0  0  0  0  0  0  0  0
    0.2017    3.1196   -1.4705 H   0  0  0  0  0  0  0  0  0  0  0  0
    0.6888    1.3293   -2.5704 C   0  0  0  0  0  0  0  0  0  0  0  0
   -1.2663    0.1182    1.2910 C   0  0  0  0  0  0  0  0  0  0  0  0
   -0.1906    0.1931    1.8833 O   0  0  0  0  0  0  0  0  0  0  0  0
   -2.3930    0.6605    1.7722 N   0  0  0  0  0  0  0  0  0  0  0  0
   -3.2451    0.5077    1.2518 H   0  0  0  0  0  0  0  0  0  0  0  0
   -2.4787    1.3954    3.0311 C   0  0  0  0  0  0  0  0  0  0  0  0
   -1.7166    2.1767    3.0539 H   0  0  0  0  0  0  0  0  0  0  0  0
   -3.4649    1.8498    3.1344 H   0  0  0  0  0  0  0  0  0  0  0  0
   -2.3058    0.7133    3.8652 H   0  0  0  0  0  0  0  0  0  0  0  0
  5  6  2  0  0  0  0
  5  7  1  0  0  0  0
  2  3  1  0  0  0  0
  2  4  1  0  0  0  0
  2  5  1  0  0  0  0
  1  2  1  0  0  0  0
 29 30  2  0  0  0  0
 29 31  1  0  0  0  0
 26 27  1  0  0  0  0
 26 28  2  0  0  0  0
 24 25  1  0  0  0  0
 24 26  1  0  0  0  0
 22 23  1  0  0  0  0
 22 24  2  0  0  0  0
 20 21  1  0  0  0  0
 20 22  1  0  0  0  0
 19 20  2  0  0  0  0
 19 28  1  0  0  0  0
 17 18  1  0  0  0  0
 17 19  1  0  0  0  0
 15 16  1  0  0  0  0
 15 17  1  0  0  0  0
 14 15  2  0  0  0  0
 14 28  1  0  0  0  0
 11 12  1  0  0  0  0
 11 13  1  0  0  0  0
 11 14  1  0  0  0  0
  9 10  1  0  0  0  0
  9 11  1  0  0  0  0
  9 29  1  0  0  0  0
  7  8  1  0  0  0  0
  7  9  1  0  0  0  0
 33 34  1  0  0  0  0
 33 35  1  0  0  0  0
 33 36  1  0  0  0  0
 31 32  1  0  0  0  0
 31 33  1  0  0  0  0
M  END
$$$$
default_name
  -OEChem-02102213163D

 36 37  0     1  0  0  0  0  0999 V2000
   -4.0843   -4.0736    1.2944 H   0  0  0  0  0  0  0  0  0  0  0  0
   -4.0342   -3.2816    0.5484 C   0  0  0  0  0  0  0  0  0  0  0  0
   -4.8842   -2.6126    0.6694 H   0  0  0  0  0  0  0  0  0  0  0  0
   -4.0433   -3.7186   -0.4486 H   0  0  0  0  0  0  0  0  0  0  0  0
   -2.7532   -2.5046    0.7444 C   0  0  0  0  0  0  0  0  0  0  0  0
   -1.9803   -2.8096    1.6434 O   0  0  0  0  0  0  0  0  0  0  0  0
   -2.5332   -1.4966   -0.0966 N   0  0  0  0  0  0  0  0  0  0  0  0
   -3.2312   -1.2816   -0.7936 H   0  0  0  0  0  0  0  0  0  0  0  0
   -1.3593   -0.6196   -0.0536 C   0  0  1  0  0  0  0  0  0  0  0  0
   -0.4622   -1.2317   -0.1545 H   0  0  0  0  0  0  0  0  0  0  0  0
   -1.4074    0.3593   -1.2373 C   0  0  0  0  0  0  0  0  0  0  0  0
   -2.3198    0.1768   -1.8078 H   0  0  0  0  0  0  0  0  0  0  0  0
   -1.4612    1.3763   -0.8449 H   0  0  0  0  0  0  0  0  0  0  0  0
   -0.2462    0.2752   -2.1810 C   0  0  0  0  0  0  0  0  0  0  0  0
   -0.0448   -0.7001   -3.0953 C   0  0  0  0  0  0  0  0  0  0  0  0
   -0.6973   -1.5540   -3.2408 H   0  0  0  0  0  0  0  0  0  0  0  0
    1.0993   -0.4283   -3.8196 N   0  0  0  0  0  0  0  0  0  0  0  0
    1.4473   -1.0249   -4.5559 H   0  0  0  0  0  0  0  0  0  0  0  0
    1.6868    0.7521   -3.4166 C   0  0  0  0  0  0  0  0  0  0  0  0
    2.8193    1.4557   -3.8507 C   0  0  0  0  0  0  0  0  0  0  0  0
    3.4253    1.0729   -4.6587 H   0  0  0  0  0  0  0  0  0  0  0  0
    3.1557    2.6650   -3.2185 C   0  0  0  0  0  0  0  0  0  0  0  0
    4.0264    3.2209   -3.5392 H   0  0  0  0  0  0  0  0  0  0  0  0
    2.3616    3.1485   -2.1626 C   0  0  0  0  0  0  0  0  0  0  0  0
    2.6288    4.0750   -1.6736 H   0  0  0  0  0  0  0  0  0  0  0  0
    1.2266    2.4318   -1.7333 C   0  0  0  0  0  0  0  0  0  0  0  0
    0.6328    2.8077   -0.9122 H   0  0  0  0  0  0  0  0  0  0  0  0
    0.8585    1.2173   -2.3517 C   0  0  0  0  0  0  0  0  0  0  0  0
   -1.2663    0.1182    1.2910 C   0  0  0  0  0  0  0  0  0  0  0  0
   -0.1906    0.1931    1.8833 O   0  0  0  0  0  0  0  0  0  0  0  0
   -2.3930    0.6605    1.7722 N   0  0  0  0  0  0  0  0  0  0  0  0
   -3.2451    0.5077    1.2518 H   0  0  0  0  0  0  0  0  0  0  0  0
   -2.4787    1.3954    3.0311 C   0  0  0  0  0  0  0  0  0  0  0  0
   -1.7166    2.1767    3.0539 H   0  0  0  0  0  0  0  0  0  0  0  0
   -3.4649    1.8498    3.1344 H   0  0  0  0  0  0  0  0  0  0  0  0
   -2.3058    0.7133    3.8652 H   0  0  0  0  0  0  0  0  0  0  0  0
  5  6  2  0  0  0  0
  5  7  1  0  0  0  0
  2  3  1  0  0  0  0
  2  4  1  0  0  0  0
  2  5  1  0  0  0  0
  1  2  1  0  0  0  0
 29 30  2  0  0  0  0
 29 31  1  0  0  0  0
 26 27  1  0  0  0  0
 26 28  2  0  0  0  0
 24 25  1  0  0  0  0
 24 26  1  0  0  0  0
 22 23  1  0  0  0  0
 22 24  2  0  0  0  0
 20 21  1  0  0  0  0
 20 22  1  0  0  0  0
 19 20  2  0  0  0  0
 19 28  1  0  0  0  0
 17 18  1  0  0  0  0
 17 19  1  0  0  0  0
 15 16  1  0  0  0  0
 15 17  1  0  0  0  0
 14 15  2  0  0  0  0
 14 28  1  0  0  0  0
 11 12  1  0  0  0  0
 11 13  1  0  0  0  0
 11 14  1  0  0  0  0
  9 10  1  0  0  0  0
  9 11  1  0  0  0  0
  9 29  1  0  0  0  0
  7  8  1  0  0  0  0
  7  9  1  0  0  0  0
 33 34  1  0  0  0  0
 33 35  1  0  0  0  0
 33 36  1  0  0  0  0
 31 32  1  0  0  0  0
 31 33  1  0  0  0  0
M  END
$$$$
default_name
  -OEChem-02102213163D

 36 37  0     1  0  0  0  0  0999 V2000
   -4.0843   -4.0736    1.2944 H   0  0  0  0  0  0  0  0  0  0  0  0
   -4.0342   -3.2816    0.5484 C   0  0  0  0  0  0  0  0  0  0  0  0
   -4.8842   -2.6126    0.6694 H   0  0  0  0  0  0  0  0  0  0  0  0
   -4.0433   -3.7186   -0.4486 H   0  0  0  0  0  0  0  0  0  0  0  0
   -2.7532   -2.5046    0.7444 C   0  0  0  0  0  0  0  0  0  0  0  0
   -1.9803   -2.8096    1.6434 O   0  0  0  0  0  0  0  0  0  0  0  0
   -2.5332   -1.4966   -0.0966 N   0  0  0  0  0  0  0  0  0  0  0  0
   -3.2312   -1.2816   -0.7936 H   0  0  0  0  0  0  0  0  0  0  0  0
   -1.3593   -0.6196   -0.0536 C   0  0  1  0  0  0  0  0  0  0  0  0
   -0.4622   -1.2317   -0.1545 H   0  0  0  0  0  0  0  0  0  0  0  0
   -1.4074    0.3593   -1.2373 C   0  0  0  0  0  0  0  0  0  0  0  0
   -2.3198    0.1768   -1.8078 H   0  0  0  0  0  0  0  0  0  0  0  0
   -1.4612    1.3763   -0.8449 H   0  0  0  0  0  0  0  0  0  0  0  0
   -0.2462    0.2752   -2.1810 C   0  0  0  0  0  0  0  0  0  0  0  0
   -0.1765   -0.5179   -3.2737 C   0  0  0  0  0  0  0  0  0  0  0  0
   -0.9536   -1.2064   -3.5871 H   0  0  0  0  0  0  0  0  0  0  0  0
    1.0185   -0.2991   -3.9307 N   0  0  0  0  0  0  0  0  0  0  0  0
    1.2883   -0.7859   -4.7729 H   0  0  0  0  0  0  0  0  0  0  0  0
    1.7760    0.6642   -3.2990 C   0  0  0  0  0  0  0  0  0  0  0  0
    3.0203    1.2443   -3.5846 C   0  0  0  0  0  0  0  0  0  0  0  0
    3.5813    0.9358   -4.4545 H   0  0  0  0  0  0  0  0  0  0  0  0
    3.5277    2.2311   -2.7222 C   0  0  0  0  0  0  0  0  0  0  0  0
    4.4862    2.6889   -2.9259 H   0  0  0  0  0  0  0  0  0  0  0  0
    2.7895    2.6184   -1.5888 C   0  0  0  0  0  0  0  0  0  0  0  0
    3.1875    3.3720   -0.9234 H   0  0  0  0  0  0  0  0  0  0  0  0
    1.5409    2.0271   -1.3105 C   0  0  0  0  0  0  0  0  0  0  0  0
    0.9903    2.3242   -0.4292 H   0  0  0  0  0  0  0  0  0  0  0  0
    1.0009    1.0377   -2.1604 C   0  0  0  0  0  0  0  0  0  0  0  0
   -1.2663    0.1182    1.2910 C   0  0  0  0  0  0  0  0  0  0  0  0
   -0.1906    0.1931    1.8833 O   0  0  0  0  0  0  0  0  0  0  0  0
   -2.3930    0.6605    1.7722 N   0  0  0  0  0  0  0  0  0  0  0  0
   -3.2451    0.5077    1.2518 H   0  0  0  0  0  0  0  0  0  0  0  0
   -2.4787    1.3954    3.0311 C   0  0  0  0  0  0  0  0  0  0  0  0
   -1.7166    2.1767    3.0539 H   0  0  0  0  0  0  0  0  0  0  0  0
   -3.4649    1.8498    3.1344 H   0  0  0  0  0  0  0  0  0  0  0  0
   -2.3058    0.7133    3.8652 H   0  0  0  0  0  0  0  0  0  0  0  0
  5  6  2  0  0  0  0
  5  7  1  0  0  0  0
  2  3  1  0  0  0  0
  2  4  1  0  0  0  0
  2  5  1  0  0  0  0
  1  2  1  0  0  0  0
 29 30  2  0  0  0  0
 29 31  1  0  0  0  0
 26 27  1  0  0  0  0
 26 28  2  0  0  0  0
 24 25  1  0  0  0  0
 24 26  1  0  0  0  0
 22 23  1  0  0  0  0
 22 24  2  0  0  0  0
 20 21  1  0  0  0  0
 20 22  1  0  0  0  0
 19 20  2  0  0  0  0
 19 28  1  0  0  0  0
 17 18  1  0  0  0  0
 17 19  1  0  0  0  0
 15 16  1  0  0  0  0
 15 17  1  0  0  0  0
 14 15  2  0  0  0  0
 14 28  1  0  0  0  0
 11 12  1  0  0  0  0
 11 13  1  0  0  0  0
 11 14  1  0  0  0  0
  9 10  1  0  0  0  0
  9 11  1  0  0  0  0
  9 29  1  0  0  0  0
  7  8  1  0  0  0  0
  7  9  1  0  0  0  0
 33 34  1  0  0  0  0
 33 35  1  0  0  0  0
 33 36  1  0  0  0  0
 31 32  1  0  0  0  0
 31 33  1  0  0  0  0
M  END
$$$$
default_name
  -OEChem-02102213163D

 36 37  0     1  0  0  0  0  0999 V2000
   -4.0843   -4.0736    1.2944 H   0  0  0  0  0  0  0  0  0  0  0  0
   -4.0342   -3.2816    0.5484 C   0  0  0  0  0  0  0  0  0  0  0  0
   -4.8842   -2.6126    0.6694 H   0  0  0  0  0  0  0  0  0  0  0  0
   -4.0433   -3.7186   -0.4486 H   0  0  0  0  0  0  0  0  0  0  0  0
   -2.7532   -2.5046    0.7444 C   0  0  0  0  0  0  0  0  0  0  0  0
   -1.9803   -2.8096    1.6434 O   0  0  0  0  0  0  0  0  0  0  0  0
   -2.5332   -1.4966   -0.0966 N   0  0  0  0  0  0  0  0  0  0  0  0
   -3.2312   -1.2816   -0.7936 H   0  0  0  0  0  0  0  0  0  0  0  0
   -1.3593   -0.6196   -0.0536 C   0  0  1  0  0  0  0  0  0  0  0  0
   -0.4622   -1.2317   -0.1545 H   0  0  0  0  0  0  0  0  0  0  0  0
   -1.4074    0.3593   -1.2373 C   0  0  0  0  0  0  0  0  0  0  0  0
   -2.3198    0.1768   -1.8078 H   0  0  0  0  0  0  0  0  0  0  0  0
   -1.4612    1.3763   -0.8449 H   0  0  0  0  0  0  0  0  0  0  0  0
   -0.2462    0.2752   -2.1810 C   0  0  0  0  0  0  0  0  0  0  0  0
   -0.2715   -0.2846   -3.4113 C   0  0  0  0  0  0  0  0  0  0  0  0
   -1.1394   -0.7595   -3.8556 H   0  0  0  0  0  0  0  0  0  0  0  0
    0.9630   -0.1388   -4.0132 N   0  0  0  0  0  0  0  0  0  0  0  0
    1.1769   -0.4856   -4.9368 H   0  0  0  0  0  0  0  0  0  0  0  0
    1.8461    0.5413   -3.2017 C   0  0  0  0  0  0  0  0  0  0  0  0
    3.1761    0.9540   -3.3670 C   0  0  0  0  0  0  0  0  0  0  0  0
    3.7068    0.7371   -4.2824 H   0  0  0  0  0  0  0  0  0  0  0  0
    3.8090    1.6519   -2.3243 C   0  0  0  0  0  0  0  0  0  0  0  0
    4.8348    1.9772   -2.4335 H   0  0  0  0  0  0  0  0  0  0  0  0
    3.1082    1.9215   -1.1346 C   0  0  0  0  0  0  0  0  0  0  0  0
    3.6017    2.4514   -0.3317 H   0  0  0  0  0  0  0  0  0  0  0  0
    1.7723    1.5002   -0.9787 C   0  0  0  0  0  0  0  0  0  0  0  0
    1.2498    1.7021   -0.0544 H   0  0  0  0  0  0  0  0  0  0  0  0
    1.1064    0.8026   -2.0096 C   0  0  0  0  0  0  0  0  0  0  0  0
   -1.2663    0.1182    1.2910 C   0  0  0  0  0  0  0  0  0  0  0  0
   -0.1906    0.1931    1.8833 O   0  0  0  0  0  0  0  0  0  0  0  0
   -2.3930    0.6605    1.7722 N   0  0  0  0  0  0  0  0  0  0  0  0
   -3.2451    0.5077    1.2518 H   0  0  0  0  0  0  0  0  0  0  0  0
   -2.4787    1.3954    3.0311 C   0  0  0  0  0  0  0  0  0  0  0  0
   -1.7166    2.1767    3.0539 H   0  0  0  0  0  0  0  0  0  0  0  0
   -3.4649    1.8498    3.1344 H   0  0  0  0  0  0  0  0  0  0  0  0
   -2.3058    0.7133    3.8652 H   0  0  0  0  0  0  0  0  0  0  0  0
  5  6  2  0  0  0  0
  5  7  1  0  0  0  0
  2  3  1  0  0  0  0
  2  4  1  0  0  0  0
  2  5  1  0  0  0  0
  1  2  1  0  0  0  0
 29 30  2  0  0  0  0
 29 31  1  0  0  0  0
 26 27  1  0  0  0  0
 26 28  2  0  0  0  0
 24 25  1  0  0  0  0
 24 26  1  0  0  0  0
 22 23  1  0  0  0  0
 22 24  2  0  0  0  0
 20 21  1  0  0  0  0
 20 22  1  0  0  0  0
 19 20  2  0  0  0  0
 19 28  1  0  0  0  0
 17 18  1  0  0  0  0
 17 19  1  0  0  0  0
 15 16  1  0  0  0  0
 15 17  1  0  0  0  0
 14 15  2  0  0  0  0
 14 28  1  0  0  0  0
 11 12  1  0  0  0  0
 11 13  1  0  0  0  0
 11 14  1  0  0  0  0
  9 10  1  0  0  0  0
  9 11  1  0  0  0  0
  9 29  1  0  0  0  0
  7  8  1  0  0  0  0
  7  9  1  0  0  0  0
 33 34  1  0  0  0  0
 33 35  1  0  0  0  0
 33 36  1  0  0  0  0
 31 32  1  0  0  0  0
 31 33  1  0  0  0  0
M  END
$$$$
default_name
  -OEChem-02102213163D

 36 37  0     1  0  0  0  0  0999 V2000
   -4.0843   -4.0736    1.2944 H   0  0  0  0  0  0  0  0  0  0  0  0
   -4.0342   -3.2816    0.5484 C   0  0  0  0  0  0  0  0  0  0  0  0
   -4.8842   -2.6126    0.6694 H   0  0  0  0  0  0  0  0  0  0  0  0
   -4.0433   -3.7186   -0.4486 H   0  0  0  0  0  0  0  0  0  0  0  0
   -2.7532   -2.5046    0.7444 C   0  0  0  0  0  0  0  0  0  0  0  0
   -1.9803   -2.8096    1.6434 O   0  0  0  0  0  0  0  0  0  0  0  0
   -2.5332   -1.4966   -0.0966 N   0  0  0  0  0  0  0  0  0  0  0  0
   -3.2312   -1.2816   -0.7936 H   0  0  0  0  0  0  0  0  0  0  0  0
   -1.3593   -0.6196   -0.0536 C   0  0  1  0  0  0  0  0  0  0  0  0
   -0.4622   -1.2317   -0.1545 H   0  0  0  0  0  0  0  0  0  0  0  0
   -1.4074    0.3593   -1.2373 C   0  0  0  0  0  0  0  0  0  0  0  0
   -2.3198    0.1768   -1.8078 H   0  0  0  0  0  0  0  0  0  0  0  0
   -1.4612    1.3763   -0.8449 H   0  0  0  0  0  0  0  0  0  0  0  0
   -0.2462    0.2752   -2.1810 C   0  0  0  0  0  0  0  0  0  0  0  0
   -0.3232   -0.0162   -3.4989 C   0  0  0  0  0  0  0  0  0  0  0  0
   -1.2421   -0.2437   -4.0280 H   0  0  0  0  0  0  0  0  0  0  0  0
    0.9368    0.0416   -4.0615 N   0  0  0  0  0  0  0  0  0  0  0  0
    1.1205   -0.1445   -5.0366 H   0  0  0  0  0  0  0  0  0  0  0  0
    1.8924    0.3916   -3.1314 C   0  0  0  0  0  0  0  0  0  0  0  0
    3.2760    0.6045   -3.2128 C   0  0  0  0  0  0  0  0  0  0  0  0
    3.7930    0.4902   -4.1543 H   0  0  0  0  0  0  0  0  0  0  0  0
    3.9806    0.9668   -2.0521 C   0  0  0  0  0  0  0  0  0  0  0  0
    5.0483    1.1341   -2.0955 H   0  0  0  0  0  0  0  0  0  0  0  0
    3.2957    1.1053   -0.8310 C   0  0  0  0  0  0  0  0  0  0  0  0
    3.8431    1.3761    0.0613 H   0  0  0  0  0  0  0  0  0  0  0  0
    1.9052    0.8870   -0.7605 C   0  0  0  0  0  0  0  0  0  0  0  0
    1.3936    0.9837    0.1866 H   0  0  0  0  0  0  0  0  0  0  0  0
    1.1679    0.5281   -1.9096 C   0  0  0  0  0  0  0  0  0  0  0  0
   -1.2663    0.1182    1.2910 C   0  0  0  0  0  0  0  0  0  0  0  0
   -0.1906    0.1931    1.8833 O   0  0  0  0  0  0  0  0  0  0  0  0
   -2.3930    0.6605    1.7722 N   0  0  0  0  0  0  0  0  0  0  0  0
   -3.2451    0.5077    1.2518 H   0  0  0  0  0  0  0  0  0  0  0  0
   -2.4787    1.3954    3.0311 C   0  0  0  0  0  0  0  0  0  0  0  0
   -1.7166    2.1767    3.0539 H   0  0  0  0  0  0  0  0  0  0  0  0
   -3.4649    1.8498    3.1344 H   0  0  0  0  0  0  0  0  0  0  0  0
   -2.3058    0.7133    3.8652 H   0  0  0  0  0  0  0  0  0  0  0  0
  5  6  2  0  0  0  0
  5  7  1  0  0  0  0
  2  3  1  0  0  0  0
  2  4  1  0  0  0  0
  2  5  1  0  0  0  0
  1  2  1  0  0  0  0
 29 30  2  0  0  0  0
 29 31  1  0  0  0  0
 26 27  1  0  0  0  0
 26 28  2  0  0  0  0
 24 25  1  0  0  0  0
 24 26  1  0  0  0  0
 22 23  1  0  0  0  0
 22 24  2  0  0  0  0
 20 21  1  0  0  0  0
 20 22  1  0  0  0  0
 19 20  2  0  0  0  0
 19 28  1  0  0  0  0
 17 18  1  0  0  0  0
 17 19  1  0  0  0  0
 15 16  1  0  0  0  0
 15 17  1  0  0  0  0
 14 15  2  0  0  0  0
 14 28  1  0  0  0  0
 11 12  1  0  0  0  0
 11 13  1  0  0  0  0
 11 14  1  0  0  0  0
  9 10  1  0  0  0  0
  9 11  1  0  0  0  0
  9 29  1  0  0  0  0
  7  8  1  0  0  0  0
  7  9  1  0  0  0  0
 33 34  1  0  0  0  0
 33 35  1  0  0  0  0
 33 36  1  0  0  0  0
 31 32  1  0  0  0  0
 31 33  1  0  0  0  0
M  END
$$$$
default_name
  -OEChem-02102213163D

 36 37  0     1  0  0  0  0  0999 V2000
   -4.0843   -4.0736    1.2944 H   0  0  0  0  0  0  0  0  0  0  0  0
   -4.0342   -3.2816    0.5484 C   0  0  0  0  0  0  0  0  0  0  0  0
   -4.8842   -2.6126    0.6694 H   0  0  0  0  0  0  0  0  0  0  0  0
   -4.0433   -3.7186   -0.4486 H   0  0  0  0  0  0  0  0  0  0  0  0
   -2.7532   -2.5046    0.7444 C   0  0  0  0  0  0  0  0  0  0  0  0
   -1.9803   -2.8096    1.6434 O   0  0  0  0  0  0  0  0  0  0  0  0
   -2.5332   -1.4966   -0.0966 N   0  0  0  0  0  0  0  0  0  0  0  0
   -3.2312   -1.2816   -0.7936 H   0  0  0  0  0  0  0  0  0  0  0  0
   -1.3593   -0.6196   -0.0536 C   0  0  1  0  0  0  0  0  0  0  0  0
   -0.4622   -1.2317   -0.1545 H   0  0  0  0  0  0  0  0  0  0  0  0
   -1.4074    0.3593   -1.2373 C   0  0  0  0  0  0  0  0  0  0  0  0
   -2.3198    0.1768   -1.8078 H   0  0  0  0  0  0  0  0  0  0  0  0
   -1.4612    1.3763   -0.8449 H   0  0  0  0  0  0  0  0  0  0  0  0
   -0.2462    0.2752   -2.1810 C   0  0  0  0  0  0  0  0  0  0  0  0
   -0.3281    0.2691   -3.5304 C   0  0  0  0  0  0  0  0  0  0  0  0
   -1.2548    0.3059   -4.0926 H   0  0  0  0  0  0  0  0  0  0  0  0
    0.9416    0.2298   -4.0724 N   0  0  0  0  0  0  0  0  0  0  0  0
    1.1231    0.2142   -5.0654 H   0  0  0  0  0  0  0  0  0  0  0  0
    1.9117    0.2254   -3.0928 C   0  0  0  0  0  0  0  0  0  0  0  0
    3.3134    0.2197   -3.1325 C   0  0  0  0  0  0  0  0  0  0  0  0
    3.8342    0.2119   -4.0787 H   0  0  0  0  0  0  0  0  0  0  0  0
    4.0307    0.2225   -1.9240 C   0  0  0  0  0  0  0  0  0  0  0  0
    5.1123    0.2171   -1.9351 H   0  0  0  0  0  0  0  0  0  0  0  0
    3.3395    0.2255   -0.6986 C   0  0  0  0  0  0  0  0  0  0  0  0
    3.8953    0.2192    0.2288 H   0  0  0  0  0  0  0  0  0  0  0  0
    1.9304    0.2292   -0.6707 C   0  0  0  0  0  0  0  0  0  0  0  0
    1.4119    0.2180    0.2774 H   0  0  0  0  0  0  0  0  0  0  0  0
    1.1810    0.2328   -1.8671 C   0  0  0  0  0  0  0  0  0  0  0  0
   -1.2663    0.1182    1.2910 C   0  0  0  0  0  0  0  0  0  0  0  0
   -0.1906    0.1931    1.8833 O   0  0  0  0  0  0  0  0  0  0  0  0
   -2.3930    0.6605    1.7722 N   0  0  0  0  0  0  0  0  0  0  0  0
   -3.2451    0.5077    1.2518 H   0  0  0  0  0  0  0  0  0  0  0  0
   -2.4787    1.3954    3.0311 C   0  0  0  0  0  0  0  0  0  0  0  0
   -1.7166    2.1767    3.0539 H   0  0  0  0  0  0  0  0  0  0  0  0
   -3.4649    1.8498    3.1344 H   0  0  0  0  0  0  0  0  0  0  0  0
   -2.3058    0.7133    3.8652 H   0  0  0  0  0  0  0  0  0  0  0  0
  5  6  2  0  0  0  0
  5  7  1  0  0  0  0
  2  3  1  0  0  0  0
  2  4  1  0  0  0  0
  2  5  1  0  0  0  0
  1  2  1  0  0  0  0
 29 30  2  0  0  0  0
 29 31  1  0  0  0  0
 26 27  1  0  0  0  0
 26 28  2  0  0  0  0
 24 25  1  0  0  0  0
 24 26  1  0  0  0  0
 22 23  1  0  0  0  0
 22 24  2  0  0  0  0
 20 21  1  0  0  0  0
 20 22  1  0  0  0  0
 19 20  2  0  0  0  0
 19 28  1  0  0  0  0
 17 18  1  0  0  0  0
 17 19  1  0  0  0  0
 15 16  1  0  0  0  0
 15 17  1  0  0  0  0
 14 15  2  0  0  0  0
 14 28  1  0  0  0  0
 11 12  1  0  0  0  0
 11 13  1  0  0  0  0
 11 14  1  0  0  0  0
  9 10  1  0  0  0  0
  9 11  1  0  0  0  0
  9 29  1  0  0  0  0
  7  8  1  0  0  0  0
  7  9  1  0  0  0  0
 33 34  1  0  0  0  0
 33 35  1  0  0  0  0
 33 36  1  0  0  0  0
 31 32  1  0  0  0  0
 31 33  1  0  0  0  0
M  END
$$$$
default_name
  -OEChem-02102213163D

 36 37  0     1  0  0  0  0  0999 V2000
   -4.0843   -4.0736    1.2944 H   0  0  0  0  0  0  0  0  0  0  0  0
   -4.0342   -3.2816    0.5484 C   0  0  0  0  0  0  0  0  0  0  0  0
   -4.8842   -2.6126    0.6694 H   0  0  0  0  0  0  0  0  0  0  0  0
   -4.0433   -3.7186   -0.4486 H   0  0  0  0  0  0  0  0  0  0  0  0
   -2.7532   -2.5046    0.7444 C   0  0  0  0  0  0  0  0  0  0  0  0
   -1.9803   -2.8096    1.6434 O   0  0  0  0  0  0  0  0  0  0  0  0
   -2.5332   -1.4966   -0.0966 N   0  0  0  0  0  0  0  0  0  0  0  0
   -3.2312   -1.2816   -0.7936 H   0  0  0  0  0  0  0  0  0  0  0  0
   -1.3593   -0.6196   -0.0536 C   0  0  1  0  0  0  0  0  0  0  0  0
   -0.4622   -1.2317   -0.1545 H   0  0  0  0  0  0  0  0  0  0  0  0
   -1.4074    0.3593   -1.2373 C   0  0  0  0  0  0  0  0  0  0  0  0
   -2.3198    0.1768   -1.8078 H   0  0  0  0  0  0  0  0  0  0  0  0
   -1.4612    1.3763   -0.8449 H   0  0  0  0  0  0  0  0  0  0  0  0
   -0.2462    0.2752   -2.1810 C   0  0  0  0  0  0  0  0  0  0  0  0
   -0.2859    0.5518   -3.5037 C   0  0  0  0  0  0  0  0  0  0  0  0
   -1.1765    0.8518   -4.0450 H   0  0  0  0  0  0  0  0  0  0  0  0
    0.9770    0.4131   -4.0451 N   0  0  0  0  0  0  0  0  0  0  0  0
    1.1845    0.5661   -5.0212 H   0  0  0  0  0  0  0  0  0  0  0  0
    1.9027    0.0540   -3.0886 C   0  0  0  0  0  0  0  0  0  0  0  0
    3.2856   -0.1741   -3.1316 C   0  0  0  0  0  0  0  0  0  0  0  0
    3.8276   -0.0787   -4.0610 H   0  0  0  0  0  0  0  0  0  0  0  0
    3.9560   -0.5303   -1.9488 C   0  0  0  0  0  0  0  0  0  0  0  0
    5.0223   -0.7112   -1.9630 H   0  0  0  0  0  0  0  0  0  0  0  0
    3.2365   -0.6580   -0.7466 C   0  0  0  0  0  0  0  0  0  0  0  0
    3.7548   -0.9404    0.1593 H   0  0  0  0  0  0  0  0  0  0  0  0
    1.8463   -0.4282   -0.7156 C   0  0  0  0  0  0  0  0  0  0  0  0
    1.3035   -0.5428    0.2119 H   0  0  0  0  0  0  0  0  0  0  0  0
    1.1449   -0.0630   -1.8851 C   0  0  0  0  0  0  0  0  0  0  0  0
   -1.2663    0.1182    1.2910 C   0  0  0  0  0  0  0  0  0  0  0  0
   -0.1906    0.1931    1.8833 O   0  0  0  0  0  0  0  0  0  0  0  0
   -2.3930    0.6605    1.7722 N   0  0  0  0  0  0  0  0  0  0  0  0
   -3.2451    0.5077    1.2518 H   0  0  0  0  0  0  0  0  0  0  0  0
   -2.4787    1.3954    3.0311 C   0  0  0  0  0  0  0  0  0  0  0  0
   -1.7166    2.1767    3.0539 H   0  0  0  0  0  0  0  0  0  0  0  0
   -3.4649    1.8498    3.1344 H   0  0  0  0  0  0  0  0  0  0  0  0
   -2.3058    0.7133    3.8652 H   0  0  0  0  0  0  0  0  0  0  0  0
  5  6  2  0  0  0  0
  5  7  1  0  0  0  0
  2  3  1  0  0  0  0
  2  4  1  0  0  0  0
  2  5  1  0  0  0  0
  1  2  1  0  0  0  0
 29 30  2  0  0  0  0
 29 31  1  0  0  0  0
 26 27  1  0  0  0  0
 26 28  2  0  0  0  0
 24 25  1  0  0  0  0
 24 26  1  0  0  0  0
 22 23  1  0  0  0  0
 22 24  2  0  0  0  0
 20 21  1  0  0  0  0
 20 22  1  0  0  0  0
 19 20  2  0  0  0  0
 19 28  1  0  0  0  0
 17 18  1  0  0  0  0
 17 19  1  0  0  0  0
 15 16  1  0  0  0  0
 15 17  1  0  0  0  0
 14 15  2  0  0  0  0
 14 28  1  0  0  0  0
 11 12  1  0  0  0  0
 11 13  1  0  0  0  0
 11 14  1  0  0  0  0
  9 10  1  0  0  0  0
  9 11  1  0  0  0  0
  9 29  1  0  0  0  0
  7  8  1  0  0  0  0
  7  9  1  0  0  0  0
 33 34  1  0  0  0  0
 33 35  1  0  0  0  0
 33 36  1  0  0  0  0
 31 32  1  0  0  0  0
 31 33  1  0  0  0  0
M  END
$$$$
default_name
  -OEChem-02102213163D

 36 37  0     1  0  0  0  0  0999 V2000
   -4.0843   -4.0736    1.2944 H   0  0  0  0  0  0  0  0  0  0  0  0
   -4.0342   -3.2816    0.5484 C   0  0  0  0  0  0  0  0  0  0  0  0
   -4.8842   -2.6126    0.6694 H   0  0  0  0  0  0  0  0  0  0  0  0
   -4.0433   -3.7186   -0.4486 H   0  0  0  0  0  0  0  0  0  0  0  0
   -2.7532   -2.5046    0.7444 C   0  0  0  0  0  0  0  0  0  0  0  0
   -1.9803   -2.8096    1.6434 O   0  0  0  0  0  0  0  0  0  0  0  0
   -2.5332   -1.4966   -0.0966 N   0  0  0  0  0  0  0  0  0  0  0  0
   -3.2312   -1.2816   -0.7936 H   0  0  0  0  0  0  0  0  0  0  0  0
   -1.3593   -0.6196   -0.0536 C   0  0  1  0  0  0  0  0  0  0  0  0
   -0.4622   -1.2317   -0.1545 H   0  0  0  0  0  0  0  0  0  0  0  0
   -1.4074    0.3593   -1.2373 C   0  0  0  0  0  0  0  0  0  0  0  0
   -2.3198    0.1768   -1.8078 H   0  0  0  0  0  0  0  0  0  0  0  0
   -1.4612    1.3763   -0.8449 H   0  0  0  0  0  0  0  0  0  0  0  0
   -0.2462    0.2752   -2.1810 C   0  0  0  0  0  0  0  0  0  0  0  0
   -0.1995    0.8126   -3.4206 C   0  0  0  0  0  0  0  0  0  0  0  0
   -1.0126    1.3568   -3.8884 H   0  0  0  0  0  0  0  0  0  0  0  0
    1.0407    0.5788   -3.9815 N   0  0  0  0  0  0  0  0  0  0  0  0
    1.3005    0.8870   -4.9071 H   0  0  0  0  0  0  0  0  0  0  0  0
    1.8660   -0.1110   -3.1190 C   0  0  0  0  0  0  0  0  0  0  0  0
    3.1946   -0.5503   -3.2100 C   0  0  0  0  0  0  0  0  0  0  0  0
    3.7735   -0.3620   -4.1022 H   0  0  0  0  0  0  0  0  0  0  0  0
    3.7614   -1.2403   -2.1249 C   0  0  0  0  0  0  0  0  0  0  0  0
    4.7844   -1.5876   -2.1775 H   0  0  0  0  0  0  0  0  0  0  0  0
    2.9936   -1.4850   -0.9716 C   0  0  0  0  0  0  0  0  0  0  0  0
    3.4311   -2.0236   -0.1424 H   0  0  0  0  0  0  0  0  0  0  0  0
    1.6585   -1.0406   -0.8920 C   0  0  0  0  0  0  0  0  0  0  0  0
    1.0757   -1.2468   -0.0055 H   0  0  0  0  0  0  0  0  0  0  0  0
    1.0621   -0.3393   -1.9623 C   0  0  0  0  0  0  0  0  0  0  0  0
   -1.2663    0.1182    1.2910 C   0  0  0  0  0  0  0  0  0  0  0  0
   -0.1906    0.1931    1.8833 O   0  0  0  0  0  0  0  0  0  0  0  0
   -2.3930    0.6605    1.7722 N   0  0  0  0  0  0  0  0  0  0  0  0
   -3.2451    0.5077    1.2518 H   0  0  0  0  0  0  0  0  0  0  0  0
   -2.4787    1.3954    3.0311 C   0  0  0  0  0  0  0  0  0  0  0  0
   -1.7166    2.1767    3.0539 H   0  0  0  0  0  0  0  0  0  0  0  0
   -3.4649    1.8498    3.1344 H   0  0  0  0  0  0  0  0  0  0  0  0
   -2.3058    0.7133    3.8652 H   0  0  0  0  0  0  0  0  0  0  0  0
  5  6  2  0  0  0  0
  5  7  1  0  0  0  0
  2  3  1  0  0  0  0
  2  4  1  0  0  0  0
  2  5  1  0  0  0  0
  1  2  1  0  0  0  0
 29 30  2  0  0  0  0
 29 31  1  0  0  0  0
 26 27  1  0  0  0  0
 26 28  2  0  0  0  0
 24 25  1  0  0  0  0
 24 26  1  0  0  0  0
 22 23  1  0  0  0  0
 22 24  2  0  0  0  0
 20 21  1  0  0  0  0
 20 22  1  0  0  0  0
 19 20  2  0  0  0  0
 19 28  1  0  0  0  0
 17 18  1  0  0  0  0
 17 19  1  0  0  0  0
 15 16  1  0  0  0  0
 15 17  1  0  0  0  0
 14 15  2  0  0  0  0
 14 28  1  0  0  0  0
 11 12  1  0  0  0  0
 11 13  1  0  0  0  0
 11 14  1  0  0  0  0
  9 10  1  0  0  0  0
  9 11  1  0  0  0  0
  9 29  1  0  0  0  0
  7  8  1  0  0  0  0
  7  9  1  0  0  0  0
 33 34  1  0  0  0  0
 33 35  1  0  0  0  0
 33 36  1  0  0  0  0
 31 32  1  0  0  0  0
 31 33  1  0  0  0  0
M  END
$$$$
default_name
  -OEChem-02102213163D

 36 37  0     1  0  0  0  0  0999 V2000
   -4.0843   -4.0736    1.2944 H   0  0  0  0  0  0  0  0  0  0  0  0
   -4.0342   -3.2816    0.5484 C   0  0  0  0  0  0  0  0  0  0  0  0
   -4.8842   -2.6126    0.6694 H   0  0  0  0  0  0  0  0  0  0  0  0
   -4.0433   -3.7186   -0.4486 H   0  0  0  0  0  0  0  0  0  0  0  0
   -2.7532   -2.5046    0.7444 C   0  0  0  0  0  0  0  0  0  0  0  0
   -1.9803   -2.8096    1.6434 O   0  0  0  0  0  0  0  0  0  0  0  0
   -2.5332   -1.4966   -0.0966 N   0  0  0  0  0  0  0  0  0  0  0  0
   -3.2312   -1.2816   -0.7936 H   0  0  0  0  0  0  0  0  0  0  0  0
   -1.3593   -0.6196   -0.0536 C   0  0  1  0  0  0  0  0  0  0  0  0
   -0.4622   -1.2317   -0.1545 H   0  0  0  0  0  0  0  0  0  0  0  0
   -1.4074    0.3593   -1.2373 C   0  0  0  0  0  0  0  0  0  0  0  0
   -2.4195    0.3679   -1.6456 H   0  0  0  0  0  0  0  0  0  0  0  0
   -1.1923    1.3631   -0.8668 H   0  0  0  0  0  0  0  0  0  0  0  0
   -0.4588    0.0527   -2.3563 C   0  0  0  0  0  0  0  0  0  0  0  0
   -0.3257    0.7712   -3.4938 C   0  0  0  0  0  0  0  0  0  0  0  0
   -0.9094    1.6515   -3.7396 H   0  0  0  0  0  0  0  0  0  0  0  0
    0.6740    0.2241   -4.2741 N   0  0  0  0  0  0  0  0  0  0  0  0
    0.9448    0.5950   -5.1731 H   0  0  0  0  0  0  0  0  0  0  0  0
    1.2499   -0.8714   -3.6666 C   0  0  0  0  0  0  0  0  0  0  0  0
    2.2960   -1.7304   -4.0329 C   0  0  0  0  0  0  0  0  0  0  0  0
    2.8176   -1.5899   -4.9682 H   0  0  0  0  0  0  0  0  0  0  0  0
    2.6546   -2.7775   -3.1669 C   0  0  0  0  0  0  0  0  0  0  0  0
    3.4583   -3.4507   -3.4333 H   0  0  0  0  0  0  0  0  0  0  0  0
    1.9619   -2.9533   -1.9551 C   0  0  0  0  0  0  0  0  0  0  0  0
    2.2356   -3.7653   -1.2957 H   0  0  0  0  0  0  0  0  0  0  0  0
    0.9107   -2.0851   -1.5981 C   0  0  0  0  0  0  0  0  0  0  0  0
    0.3781   -2.2394   -0.6704 H   0  0  0  0  0  0  0  0  0  0  0  0
    0.5305   -1.0201   -2.4431 C   0  0  0  0  0  0  0  0  0  0  0  0
   -1.2663    0.1182    1.2910 C   0  0  0  0  0  0  0  0  0  0  0  0
   -0.1906    0.1931    1.8833 O   0  0  0  0  0  0  0  0  0  0  0  0
   -2.3930    0.6605    1.7722 N   0  0  0  0  0  0  0  0  0  0  0  0
   -3.2451    0.5077    1.2518 H   0  0  0  0  0  0  0  0  0  0  0  0
   -2.4787    1.3954    3.0311 C   0  0  0  0  0  0  0  0  0  0  0  0
   -1.7166    2.1767    3.0539 H   0  0  0  0  0  0  0  0  0  0  0  0
   -3.4649    1.8498    3.1344 H   0  0  0  0  0  0  0  0  0  0  0  0
   -2.3058    0.7133    3.8652 H   0  0  0  0  0  0  0  0  0  0  0  0
  5  6  2  0  0  0  0
  5  7  1  0  0  0  0
  2  3  1  0  0  0  0
  2  4  1  0  0  0  0
  2  5  1  0  0  0  0
  1  2  1  0  0  0  0
 29 30  2  0  0  0  0
 29 31  1  0  0  0  0
 26 27  1  0  0  0  0
 26 28  2  0  0  0  0
 24 25  1  0  0  0  0
 24 26  1  0  0  0  0
 22 23  1  0  0  0  0
 22 24  2  0  0  0  0
 20 21  1  0  0  0  0
 20 22  1  0  0  0  0
 19 20  2  0  0  0  0
 19 28  1  0  0  0  0
 17 18  1  0  0  0  0
 17 19  1  0  0  0  0
 15 16  1  0  0  0  0
 15 17  1  0  0  0  0
 14 15  2  0  0  0  0
 14 28  1  0  0  0  0
 11 12  1  0  0  0  0
 11 13  1  0  0  0  0
 11 14  1  0  0  0  0
  9 10  1  0  0  0  0
  9 11  1  0  0  0  0
  9 29  1  0  0  0  0
  7  8  1  0  0  0  0
  7  9  1  0  0  0  0
 33 34  1  0  0  0  0
 33 35  1  0  0  0  0
 33 36  1  0  0  0  0
 31 32  1  0  0  0  0
 31 33  1  0  0  0  0
M  END
$$$$
default_name
  -OEChem-02102213163D

 36 37  0     1  0  0  0  0  0999 V2000
   -4.0843   -4.0736    1.2944 H   0  0  0  0  0  0  0  0  0  0  0  0
   -4.0342   -3.2816    0.5484 C   0  0  0  0  0  0  0  0  0  0  0  0
   -4.8842   -2.6126    0.6694 H   0  0  0  0  0  0  0  0  0  0  0  0
   -4.0433   -3.7186   -0.4486 H   0  0  0  0  0  0  0  0  0  0  0  0
   -2.7532   -2.5046    0.7444 C   0  0  0  0  0  0  0  0  0  0  0  0
   -1.9803   -2.8096    1.6434 O   0  0  0  0  0  0  0  0  0  0  0  0
   -2.5332   -1.4966   -0.0966 N   0  0  0  0  0  0  0  0  0  0  0  0
   -3.2312   -1.2816   -0.7936 H   0  0  0  0  0  0  0  0  0  0  0  0
   -1.3593   -0.6196   -0.0536 C   0  0  1  0  0  0  0  0  0  0  0  0
   -0.4622   -1.2317   -0.1545 H   0  0  0  0  0  0  0  0  0  0  0  0
   -1.4074    0.3593   -1.2373 C   0  0  0  0  0  0  0  0  0  0  0  0
   -2.4195    0.3679   -1.6456 H   0  0  0  0  0  0  0  0  0  0  0  0
   -1.1923    1.3631   -0.8668 H   0  0  0  0  0  0  0  0  0  0  0  0
   -0.4588    0.0527   -2.3563 C   0  0  0  0  0  0  0  0  0  0  0  0
   -0.1142    0.9018   -3.3503 C   0  0  0  0  0  0  0  0  0  0  0  0
   -0.5027    1.9078   -3.4651 H   0  0  0  0  0  0  0  0  0  0  0  0
    0.8156    0.2988   -4.1744 N   0  0  0  0  0  0  0  0  0  0  0  0
    1.2131    0.7467   -4.9872 H   0  0  0  0  0  0  0  0  0  0  0  0
    1.1309   -0.9712   -3.7401 C   0  0  0  0  0  0  0  0  0  0  0  0
    2.0187   -1.9508   -4.2075 C   0  0  0  0  0  0  0  0  0  0  0  0
    2.6209   -1.7696   -5.0857 H   0  0  0  0  0  0  0  0  0  0  0  0
    2.1125   -3.1720   -3.5184 C   0  0  0  0  0  0  0  0  0  0  0  0
    2.7911   -3.9397   -3.8649 H   0  0  0  0  0  0  0  0  0  0  0  0
    1.3171   -3.3973   -2.3800 C   0  0  0  0  0  0  0  0  0  0  0  0
    1.3863   -4.3415   -1.8577 H   0  0  0  0  0  0  0  0  0  0  0  0
    0.4267   -2.4062   -1.9204 C   0  0  0  0  0  0  0  0  0  0  0  0
   -0.1883   -2.5974   -1.0524 H   0  0  0  0  0  0  0  0  0  0  0  0
    0.3137   -1.1668   -2.5867 C   0  0  0  0  0  0  0  0  0  0  0  0
   -1.2663    0.1182    1.2910 C   0  0  0  0  0  0  0  0  0  0  0  0
   -0.1906    0.1931    1.8833 O   0  0  0  0  0  0  0  0  0  0  0  0
   -2.3930    0.6605    1.7722 N   0  0  0  0  0  0  0  0  0  0  0  0
   -3.2451    0.5077    1.2518 H   0  0  0  0  0  0  0  0  0  0  0  0
   -2.4787    1.3954    3.0311 C   0  0  0  0  0  0  0  0  0  0  0  0
   -1.7166    2.1767    3.0539 H   0  0  0  0  0  0  0  0  0  0  0  0
   -3.4649    1.8498    3.1344 H   0  0  0  0  0  0  0  0  0  0  0  0
   -2.3058    0.7133    3.8652 H   0  0  0  0  0  0  0  0  0  0  0  0
  5  6  2  0  0  0  0
  5  7  1  0  0  0  0
  2  3  1  0  0  0  0
  2  4  1  0  0  0  0
  2  5  1  0  0  0  0
  1  2  1  0  0  0  0
 29 30  2  0  0  0  0
 29 31  1  0  0  0  0
 26 27  1  0  0  0  0
 26 28  2  0  0  0  0
 24 25  1  0  0  0  0
 24 26  1  0  0  0  0
 22 23  1  0  0  0  0
 22 24  2  0  0  0  0
 20 21  1  0  0  0  0
 20 22  1  0  0  0  0
 19 20  2  0  0  0  0
 19 28  1  0  0  0  0
 17 18  1  0  0  0  0
 17 19  1  0  0  0  0
 15 16  1  0  0  0  0
 15 17  1  0  0  0  0
 14 15  2  0  0  0  0
 14 28  1  0  0  0  0
 11 12  1  0  0  0  0
 11 13  1  0  0  0  0
 11 14  1  0  0  0  0
  9 10  1  0  0  0  0
  9 11  1  0  0  0  0
  9 29  1  0  0  0  0
  7  8  1  0  0  0  0
  7  9  1  0  0  0  0
 33 34  1  0  0  0  0
 33 35  1  0  0  0  0
 33 36  1  0  0  0  0
 31 32  1  0  0  0  0
 31 33  1  0  0  0  0
M  END
$$$$
default_name
  -OEChem-02102213163D

 36 37  0     1  0  0  0  0  0999 V2000
   -4.0843   -4.0736    1.2944 H   0  0  0  0  0  0  0  0  0  0  0  0
   -4.0342   -3.2816    0.5484 C   0  0  0  0  0  0  0  0  0  0  0  0
   -4.8842   -2.6126    0.6694 H   0  0  0  0  0  0  0  0  0  0  0  0
   -4.0433   -3.7186   -0.4486 H   0  0  0  0  0  0  0  0  0  0  0  0
   -2.7532   -2.5046    0.7444 C   0  0  0  0  0  0  0  0  0  0  0  0
   -1.9803   -2.8096    1.6434 O   0  0  0  0  0  0  0  0  0  0  0  0
   -2.5332   -1.4966   -0.0966 N   0  0  0  0  0  0  0  0  0  0  0  0
   -3.2312   -1.2816   -0.7936 H   0  0  0  0  0  0  0  0  0  0  0  0
   -1.3593   -0.6196   -0.0536 C   0  0  1  0  0  0  0  0  0  0  0  0
   -0.4622   -1.2317   -0.1545 H   0  0  0  0  0  0  0  0  0  0  0  0
   -1.4074    0.3593   -1.2373 C   0  0  0  0  0  0  0  0  0  0  0  0
   -2.4195    0.3679   -1.6456 H   0  0  0  0  0  0  0  0  0  0  0  0
   -1.1923    1.3631   -0.8668 H   0  0  0  0  0  0  0  0  0  0  0  0
   -0.4588    0.0527   -2.3563 C   0  0  0  0  0  0  0  0  0  0  0  0
    0.1078    0.9636   -3.1791 C   0  0  0  0  0  0  0  0  0  0  0  0
   -0.0749    2.0318   -3.1364 H   0  0  0  0  0  0  0  0  0  0  0  0
    0.9616    0.3272   -4.0585 N   0  0  0  0  0  0  0  0  0  0  0  0
    1.4916    0.8108   -4.7687 H   0  0  0  0  0  0  0  0  0  0  0  0
    1.0007   -1.0325   -3.8337 C   0  0  0  0  0  0  0  0  0  0  0  0
    1.7176   -2.0815   -4.4269 C   0  0  0  0  0  0  0  0  0  0  0  0
    2.4023   -1.8860   -5.2391 H   0  0  0  0  0  0  0  0  0  0  0  0
    1.5313   -3.3907   -3.9511 C   0  0  0  0  0  0  0  0  0  0  0  0
    2.0749   -4.2125   -4.3972 H   0  0  0  0  0  0  0  0  0  0  0  0
    0.6309   -3.6319   -2.8974 C   0  0  0  0  0  0  0  0  0  0  0  0
    0.4844   -4.6418   -2.5400 H   0  0  0  0  0  0  0  0  0  0  0  0
   -0.0858   -2.5701   -2.3099 C   0  0  0  0  0  0  0  0  0  0  0  0
   -0.7843   -2.7712   -1.5101 H   0  0  0  0  0  0  0  0  0  0  0  0
    0.0835   -1.2432   -2.7609 C   0  0  0  0  0  0  0  0  0  0  0  0
   -1.2663    0.1182    1.2910 C   0  0  0  0  0  0  0  0  0  0  0  0
   -0.1906    0.1931    1.8833 O   0  0  0  0  0  0  0  0  0  0  0  0
   -2.3930    0.6605    1.7722 N   0  0  0  0  0  0  0  0  0  0  0  0
   -3.2451    0.5077    1.2518 H   0  0  0  0  0  0  0  0  0  0  0  0
   -2.4787    1.3954    3.0311 C   0  0  0  0  0  0  0  0  0  0  0  0
   -1.7166    2.1767    3.0539 H   0  0  0  0  0  0  0  0  0  0  0  0
   -3.4649    1.8498    3.1344 H   0  0  0  0  0  0  0  0  0  0  0  0
   -2.3058    0.7133    3.8652 H   0  0  0  0  0  0  0  0  0  0  0  0
  5  6  2  0  0  0  0
  5  7  1  0  0  0  0
  2  3  1  0  0  0  0
  2  4  1  0  0  0  0
  2  5  1  0  0  0  0
  1  2  1  0  0  0  0
 29 30  2  0  0  0  0
 29 31  1  0  0  0  0
 26 27  1  0  0  0  0
 26 28  2  0  0  0  0
 24 25  1  0  0  0  0
 24 26  1  0  0  0  0
 22 23  1  0  0  0  0
 22 24  2  0  0  0  0
 20 21  1  0  0  0  0
 20 22  1  0  0  0  0
 19 20  2  0  0  0  0
 19 28  1  0  0  0  0
 17 18  1  0  0  0  0
 17 19  1  0  0  0  0
 15 16  1  0  0  0  0
 15 17  1  0  0  0  0
 14 15  2  0  0  0  0
 14 28  1  0  0  0  0
 11 12  1  0  0  0  0
 11 13  1  0  0  0  0
 11 14  1  0  0  0  0
  9 10  1  0  0  0  0
  9 11  1  0  0  0  0
  9 29  1  0  0  0  0
  7  8  1  0  0  0  0
  7  9  1  0  0  0  0
 33 34  1  0  0  0  0
 33 35  1  0  0  0  0
 33 36  1  0  0  0  0
 31 32  1  0  0  0  0
 31 33  1  0  0  0  0
M  END
$$$$
default_name
  -OEChem-02102213163D

 36 37  0     1  0  0  0  0  0999 V2000
   -4.0843   -4.0736    1.2944 H   0  0  0  0  0  0  0  0  0  0  0  0
   -4.0342   -3.2816    0.5484 C   0  0  0  0  0  0  0  0  0  0  0  0
   -4.8842   -2.6126    0.6694 H   0  0  0  0  0  0  0  0  0  0  0  0
   -4.0433   -3.7186   -0.4486 H   0  0  0  0  0  0  0  0  0  0  0  0
   -2.7532   -2.5046    0.7444 C   0  0  0  0  0  0  0  0  0  0  0  0
   -1.9803   -2.8096    1.6434 O   0  0  0  0  0  0  0  0  0  0  0  0
   -2.5332   -1.4966   -0.0966 N   0  0  0  0  0  0  0  0  0  0  0  0
   -3.2312   -1.2816   -0.7936 H   0  0  0  0  0  0  0  0  0  0  0  0
   -1.3593   -0.6196   -0.0536 C   0  0  1  0  0  0  0  0  0  0  0  0
   -0.4622   -1.2317   -0.1545 H   0  0  0  0  0  0  0  0  0  0  0  0
   -1.4074    0.3593   -1.2373 C   0  0  0  0  0  0  0  0  0  0  0  0
   -2.4195    0.3679   -1.6456 H   0  0  0  0  0  0  0  0  0  0  0  0
   -1.1923    1.3631   -0.8668 H   0  0  0  0  0  0  0  0  0  0  0  0
   -0.4588    0.0527   -2.3563 C   0  0  0  0  0  0  0  0  0  0  0  0
    0.3250    0.9524   -2.9918 C   0  0  0  0  0  0  0  0  0  0  0  0
    0.3448    2.0150   -2.7760 H   0  0  0  0  0  0  0  0  0  0  0  0
    1.1020    0.3074   -3.9341 N   0  0  0  0  0  0  0  0  0  0  0  0
    1.7616    0.7832   -4.5323 H   0  0  0  0  0  0  0  0  0  0  0  0
    0.8680   -1.0512   -3.9411 C   0  0  0  0  0  0  0  0  0  0  0  0
    1.4131   -2.1136   -4.6763 C   0  0  0  0  0  0  0  0  0  0  0  0
    2.1769   -1.9310   -5.4179 H   0  0  0  0  0  0  0  0  0  0  0  0
    0.9505   -3.4187   -4.4358 C   0  0  0  0  0  0  0  0  0  0  0  0
    1.3586   -4.2504   -4.9940 H   0  0  0  0  0  0  0  0  0  0  0  0
   -0.0498   -3.6412   -3.4718 C   0  0  0  0  0  0  0  0  0  0  0  0
   -0.4087   -4.6459   -3.2959 H   0  0  0  0  0  0  0  0  0  0  0  0
   -0.5920   -2.5656   -2.7402 C   0  0  0  0  0  0  0  0  0  0  0  0
   -1.3694   -2.7489   -2.0121 H   0  0  0  0  0  0  0  0  0  0  0  0
   -0.1443   -1.2439   -2.9538 C   0  0  0  0  0  0  0  0  0  0  0  0
   -1.2663    0.1182    1.2910 C   0  0  0  0  0  0  0  0  0  0  0  0
   -0.1906    0.1931    1.8833 O   0  0  0  0  0  0  0  0  0  0  0  0
   -2.3930    0.6605    1.7722 N   0  0  0  0  0  0  0  0  0  0  0  0
   -3.2451    0.5077    1.2518 H   0  0  0  0  0  0  0  0  0  0  0  0
   -2.4787    1.3954    3.0311 C   0  0  0  0  0  0  0  0  0  0  0  0
   -1.7166    2.1767    3.0539 H   0  0  0  0  0  0  0  0  0  0  0  0
   -3.4649    1.8498    3.1344 H   0  0  0  0  0  0  0  0  0  0  0  0
   -2.3058    0.7133    3.8652 H   0  0  0  0  0  0  0  0  0  0  0  0
  5  6  2  0  0  0  0
  5  7  1  0  0  0  0
  2  3  1  0  0  0  0
  2  4  1  0  0  0  0
  2  5  1  0  0  0  0
  1  2  1  0  0  0  0
 29 30  2  0  0  0  0
 29 31  1  0  0  0  0
 26 27  1  0  0  0  0
 26 28  2  0  0  0  0
 24 25  1  0  0  0  0
 24 26  1  0  0  0  0
 22 23  1  0  0  0  0
 22 24  2  0  0  0  0
 20 21  1  0  0  0  0
 20 22  1  0  0  0  0
 19 20  2  0  0  0  0
 19 28  1  0  0  0  0
 17 18  1  0  0  0  0
 17 19  1  0  0  0  0
 15 16  1  0  0  0  0
 15 17  1  0  0  0  0
 14 15  2  0  0  0  0
 14 28  1  0  0  0  0
 11 12  1  0  0  0  0
 11 13  1  0  0  0  0
 11 14  1  0  0  0  0
  9 10  1  0  0  0  0
  9 11  1  0  0  0  0
  9 29  1  0  0  0  0
  7  8  1  0  0  0  0
  7  9  1  0  0  0  0
 33 34  1  0  0  0  0
 33 35  1  0  0  0  0
 33 36  1  0  0  0  0
 31 32  1  0  0  0  0
 31 33  1  0  0  0  0
M  END
$$$$
default_name
  -OEChem-02102213163D

 36 37  0     1  0  0  0  0  0999 V2000
   -4.0843   -4.0736    1.2944 H   0  0  0  0  0  0  0  0  0  0  0  0
   -4.0342   -3.2816    0.5484 C   0  0  0  0  0  0  0  0  0  0  0  0
   -4.8842   -2.6126    0.6694 H   0  0  0  0  0  0  0  0  0  0  0  0
   -4.0433   -3.7186   -0.4486 H   0  0  0  0  0  0  0  0  0  0  0  0
   -2.7532   -2.5046    0.7444 C   0  0  0  0  0  0  0  0  0  0  0  0
   -1.9803   -2.8096    1.6434 O   0  0  0  0  0  0  0  0  0  0  0  0
   -2.5332   -1.4966   -0.0966 N   0  0  0  0  0  0  0  0  0  0  0  0
   -3.2312   -1.2816   -0.7936 H   0  0  0  0  0  0  0  0  0  0  0  0
   -1.3593   -0.6196   -0.0536 C   0  0  1  0  0  0  0  0  0  0  0  0
   -0.4622   -1.2317   -0.1545 H   0  0  0  0  0  0  0  0  0  0  0  0
   -1.4074    0.3593   -1.2373 C   0  0  0  0  0  0  0  0  0  0  0  0
   -2.4195    0.3679   -1.6456 H   0  0  0  0  0  0  0  0  0  0  0  0
   -1.1923    1.3631   -0.8668 H   0  0  0  0  0  0  0  0  0  0  0  0
   -0.4588    0.0527   -2.3563 C   0  0  0  0  0  0  0  0  0  0  0  0
    0.5228    0.8689   -2.8013 C   0  0  0  0  0  0  0  0  0  0  0  0
    0.7280    1.8587   -2.4084 H   0  0  0  0  0  0  0  0  0  0  0  0
    1.2272    0.2409   -3.8097 N   0  0  0  0  0  0  0  0  0  0  0  0
    2.0044    0.6656   -4.2942 H   0  0  0  0  0  0  0  0  0  0  0  0
    0.7418   -1.0261   -4.0549 C   0  0  0  0  0  0  0  0  0  0  0  0
    1.1260   -2.0449   -4.9385 C   0  0  0  0  0  0  0  0  0  0  0  0
    1.9599   -1.9016   -5.6099 H   0  0  0  0  0  0  0  0  0  0  0  0
    0.4098   -3.2541   -4.9392 C   0  0  0  0  0  0  0  0  0  0  0  0
    0.6911   -4.0508   -5.6145 H   0  0  0  0  0  0  0  0  0  0  0  0
   -0.6787   -3.4246   -4.0643 C   0  0  0  0  0  0  0  0  0  0  0  0
   -1.2321   -4.3533   -4.0741 H   0  0  0  0  0  0  0  0  0  0  0  0
   -1.0572   -2.3929   -3.1819 C   0  0  0  0  0  0  0  0  0  0  0  0
   -1.9036   -2.5320   -2.5244 H   0  0  0  0  0  0  0  0  0  0  0  0
   -0.3543   -1.1689   -3.1524 C   0  0  0  0  0  0  0  0  0  0  0  0
   -1.2663    0.1182    1.2910 C   0  0  0  0  0  0  0  0  0  0  0  0
   -0.1906    0.1931    1.8833 O   0  0  0  0  0  0  0  0  0  0  0  0
   -2.3930    0.6605    1.7722 N   0  0  0  0  0  0  0  0  0  0  0  0
   -3.2451    0.5077    1.2518 H   0  0  0  0  0  0  0  0  0  0  0  0
   -2.4787    1.3954    3.0311 C   0  0  0  0  0  0  0  0  0  0  0  0
   -1.7166    2.1767    3.0539 H   0  0  0  0  0  0  0  0  0  0  0  0
   -3.4649    1.8498    3.1344 H   0  0  0  0  0  0  0  0  0  0  0  0
   -2.3058    0.7133    3.8652 H   0  0  0  0  0  0  0  0  0  0  0  0
  5  6  2  0  0  0  0
  5  7  1  0  0  0  0
  2  3  1  0  0  0  0
  2  4  1  0  0  0  0
  2  5  1  0  0  0  0
  1  2  1  0  0  0  0
 29 30  2  0  0  0  0
 29 31  1  0  0  0  0
 26 27  1  0  0  0  0
 26 28  2  0  0  0  0
 24 25  1  0  0  0  0
 24 26  1  0  0  0  0
 22 23  1  0  0  0  0
 22 24  2  0  0  0  0
 20 21  1  0  0  0  0
 20 22  1  0  0  0  0
 19 20  2  0  0  0  0
 19 28  1  0  0  0  0
 17 18  1  0  0  0  0
 17 19  1  0  0  0  0
 15 16  1  0  0  0  0
 15 17  1  0  0  0  0
 14 15  2  0  0  0  0
 14 28  1  0  0  0  0
 11 12  1  0  0  0  0
 11 13  1  0  0  0  0
 11 14  1  0  0  0  0
  9 10  1  0  0  0  0
  9 11  1  0  0  0  0
  9 29  1  0  0  0  0
  7  8  1  0  0  0  0
  7  9  1  0  0  0  0
 33 34  1  0  0  0  0
 33 35  1  0  0  0  0
 33 36  1  0  0  0  0
 31 32  1  0  0  0  0
 31 33  1  0  0  0  0
M  END
$$$$
default_name
  -OEChem-02102213163D

 36 37  0     1  0  0  0  0  0999 V2000
   -4.0843   -4.0736    1.2944 H   0  0  0  0  0  0  0  0  0  0  0  0
   -4.0342   -3.2816    0.5484 C   0  0  0  0  0  0  0  0  0  0  0  0
   -4.8842   -2.6126    0.6694 H   0  0  0  0  0  0  0  0  0  0  0  0
   -4.0433   -3.7186   -0.4486 H   0  0  0  0  0  0  0  0  0  0  0  0
   -2.7532   -2.5046    0.7444 C   0  0  0  0  0  0  0  0  0  0  0  0
   -1.9803   -2.8096    1.6434 O   0  0  0  0  0  0  0  0  0  0  0  0
   -2.5332   -1.4966   -0.0966 N   0  0  0  0  0  0  0  0  0  0  0  0
   -3.2312   -1.2816   -0.7936 H   0  0  0  0  0  0  0  0  0  0  0  0
   -1.3593   -0.6196   -0.0536 C   0  0  1  0  0  0  0  0  0  0  0  0
   -0.4622   -1.2317   -0.1545 H   0  0  0  0  0  0  0  0  0  0  0  0
   -1.4074    0.3593   -1.2373 C   0  0  0  0  0  0  0  0  0  0  0  0
   -2.4195    0.3679   -1.6456 H   0  0  0  0  0  0  0  0  0  0  0  0
   -1.1923    1.3631   -0.8668 H   0  0  0  0  0  0  0  0  0  0  0  0
   -0.4588    0.0527   -2.3563 C   0  0  0  0  0  0  0  0  0  0  0  0
    0.6876    0.7188   -2.6205 C   0  0  0  0  0  0  0  0  0  0  0  0
    1.0484    1.5734   -2.0587 H   0  0  0  0  0  0  0  0  0  0  0  0
    1.3286    0.1320   -3.6939 N   0  0  0  0  0  0  0  0  0  0  0  0
    2.2037    0.4660   -4.0706 H   0  0  0  0  0  0  0  0  0  0  0  0
    0.6309   -0.9588   -4.1674 C   0  0  0  0  0  0  0  0  0  0  0  0
    0.8758   -1.8802   -5.1957 C   0  0  0  0  0  0  0  0  0  0  0  0
    1.7661   -1.7999   -5.8020 H   0  0  0  0  0  0  0  0  0  0  0  0
   -0.0540   -2.9081   -5.4272 C   0  0  0  0  0  0  0  0  0  0  0  0
    0.1177   -3.6273   -6.2166 H   0  0  0  0  0  0  0  0  0  0  0  0
   -1.2129   -2.9967   -4.6344 C   0  0  0  0  0  0  0  0  0  0  0  0
   -1.9298   -3.7842   -4.8214 H   0  0  0  0  0  0  0  0  0  0  0  0
   -1.4498   -2.0638   -3.6048 C   0  0  0  0  0  0  0  0  0  0  0  0
   -2.3506   -2.1354   -3.0120 H   0  0  0  0  0  0  0  0  0  0  0  0
   -0.5322   -1.0234   -3.3430 C   0  0  0  0  0  0  0  0  0  0  0  0
   -1.2663    0.1182    1.2910 C   0  0  0  0  0  0  0  0  0  0  0  0
   -0.1906    0.1931    1.8833 O   0  0  0  0  0  0  0  0  0  0  0  0
   -2.3930    0.6605    1.7722 N   0  0  0  0  0  0  0  0  0  0  0  0
   -3.2451    0.5077    1.2518 H   0  0  0  0  0  0  0  0  0  0  0  0
   -2.4787    1.3954    3.0311 C   0  0  0  0  0  0  0  0  0  0  0  0
   -1.7166    2.1767    3.0539 H   0  0  0  0  0  0  0  0  0  0  0  0
   -3.4649    1.8498    3.1344 H   0  0  0  0  0  0  0  0  0  0  0  0
   -2.3058    0.7133    3.8652 H   0  0  0  0  0  0  0  0  0  0  0  0
  5  6  2  0  0  0  0
  5  7  1  0  0  0  0
  2  3  1  0  0  0  0
  2  4  1  0  0  0  0
  2  5  1  0  0  0  0
  1  2  1  0  0  0  0
 29 30  2  0  0  0  0
 29 31  1  0  0  0  0
 26 27  1  0  0  0  0
 26 28  2  0  0  0  0
 24 25  1  0  0  0  0
 24 26  1  0  0  0  0
 22 23  1  0  0  0  0
 22 24  2  0  0  0  0
 20 21  1  0  0  0  0
 20 22  1  0  0  0  0
 19 20  2  0  0  0  0
 19 28  1  0  0  0  0
 17 18  1  0  0  0  0
 17 19  1  0  0  0  0
 15 16  1  0  0  0  0
 15 17  1  0  0  0  0
 14 15  2  0  0  0  0
 14 28  1  0  0  0  0
 11 12  1  0  0  0  0
 11 13  1  0  0  0  0
 11 14  1  0  0  0  0
  9 10  1  0  0  0  0
  9 11  1  0  0  0  0
  9 29  1  0  0  0  0
  7  8  1  0  0  0  0
  7  9  1  0  0  0  0
 33 34  1  0  0  0  0
 33 35  1  0  0  0  0
 33 36  1  0  0  0  0
 31 32  1  0  0  0  0
 31 33  1  0  0  0  0
M  END
$$$$
default_name
  -OEChem-02102213163D

 36 37  0     1  0  0  0  0  0999 V2000
   -4.0843   -4.0736    1.2944 H   0  0  0  0  0  0  0  0  0  0  0  0
   -4.0342   -3.2816    0.5484 C   0  0  0  0  0  0  0  0  0  0  0  0
   -4.8842   -2.6126    0.6694 H   0  0  0  0  0  0  0  0  0  0  0  0
   -4.0433   -3.7186   -0.4486 H   0  0  0  0  0  0  0  0  0  0  0  0
   -2.7532   -2.5046    0.7444 C   0  0  0  0  0  0  0  0  0  0  0  0
   -1.9803   -2.8096    1.6434 O   0  0  0  0  0  0  0  0  0  0  0  0
   -2.5332   -1.4966   -0.0966 N   0  0  0  0  0  0  0  0  0  0  0  0
   -3.2312   -1.2816   -0.7936 H   0  0  0  0  0  0  0  0  0  0  0  0
   -1.3593   -0.6196   -0.0536 C   0  0  1  0  0  0  0  0  0  0  0  0
   -0.4622   -1.2317   -0.1545 H   0  0  0  0  0  0  0  0  0  0  0  0
   -1.4074    0.3593   -1.2373 C   0  0  0  0  0  0  0  0  0  0  0  0
   -2.4195    0.3679   -1.6456 H   0  0  0  0  0  0  0  0  0  0  0  0
   -1.1923    1.3631   -0.8668 H   0  0  0  0  0  0  0  0  0  0  0  0
   -0.4588    0.0527   -2.3563 C   0  0  0  0  0  0  0  0  0  0  0  0
    0.8082    0.5123   -2.4617 C   0  0  0  0  0  0  0  0  0  0  0  0
    1.2842    1.1786   -1.7506 H   0  0  0  0  0  0  0  0  0  0  0  0
    1.3995   -0.0118   -3.5945 N   0  0  0  0  0  0  0  0  0  0  0  0
    2.3457    0.1982   -3.8768 H   0  0  0  0  0  0  0  0  0  0  0  0
    0.5427   -0.8539   -4.2709 C   0  0  0  0  0  0  0  0  0  0  0  0
    0.6796   -1.6305   -5.4304 C   0  0  0  0  0  0  0  0  0  0  0  0
    1.6087   -1.6326   -5.9812 H   0  0  0  0  0  0  0  0  0  0  0  0
   -0.4094   -2.4044   -5.8664 C   0  0  0  0  0  0  0  0  0  0  0  0
   -0.3225   -3.0088   -6.7592 H   0  0  0  0  0  0  0  0  0  0  0  0
   -1.6160   -2.3867   -5.1432 C   0  0  0  0  0  0  0  0  0  0  0  0
   -2.4541   -2.9772   -5.4870 H   0  0  0  0  0  0  0  0  0  0  0  0
   -1.7430   -1.6008   -3.9803 C   0  0  0  0  0  0  0  0  0  0  0  0
   -2.6799   -1.5860   -3.4416 H   0  0  0  0  0  0  0  0  0  0  0  0
   -0.6658   -0.8173   -3.5128 C   0  0  0  0  0  0  0  0  0  0  0  0
   -1.2663    0.1182    1.2910 C   0  0  0  0  0  0  0  0  0  0  0  0
   -0.1906    0.1931    1.8833 O   0  0  0  0  0  0  0  0  0  0  0  0
   -2.3930    0.6605    1.7722 N   0  0  0  0  0  0  0  0  0  0  0  0
   -3.2451    0.5077    1.2518 H   0  0  0  0  0  0  0  0  0  0  0  0
   -2.4787    1.3954    3.0311 C   0  0  0  0  0  0  0  0  0  0  0  0
   -1.7166    2.1767    3.0539 H   0  0  0  0  0  0  0  0  0  0  0  0
   -3.4649    1.8498    3.1344 H   0  0  0  0  0  0  0  0  0  0  0  0
   -2.3058    0.7133    3.8652 H   0  0  0  0  0  0  0  0  0  0  0  0
  5  6  2  0  0  0  0
  5  7  1  0  0  0  0
  2  3  1  0  0  0  0
  2  4  1  0  0  0  0
  2  5  1  0  0  0  0
  1  2  1  0  0  0  0
 29 30  2  0  0  0  0
 29 31  1  0  0  0  0
 26 27  1  0  0  0  0
 26 28  2  0  0  0  0
 24 25  1  0  0  0  0
 24 26  1  0  0  0  0
 22 23  1  0  0  0  0
 22 24  2  0  0  0  0
 20 21  1  0  0  0  0
 20 22  1  0  0  0  0
 19 20  2  0  0  0  0
 19 28  1  0  0  0  0
 17 18  1  0  0  0  0
 17 19  1  0  0  0  0
 15 16  1  0  0  0  0
 15 17  1  0  0  0  0
 14 15  2  0  0  0  0
 14 28  1  0  0  0  0
 11 12  1  0  0  0  0
 11 13  1  0  0  0  0
 11 14  1  0  0  0  0
  9 10  1  0  0  0  0
  9 11  1  0  0  0  0
  9 29  1  0  0  0  0
  7  8  1  0  0  0  0
  7  9  1  0  0  0  0
 33 34  1  0  0  0  0
 33 35  1  0  0  0  0
 33 36  1  0  0  0  0
 31 32  1  0  0  0  0
 31 33  1  0  0  0  0
M  END
$$$$
default_name
  -OEChem-02102213163D

 36 37  0     1  0  0  0  0  0999 V2000
   -4.0843   -4.0736    1.2944 H   0  0  0  0  0  0  0  0  0  0  0  0
   -4.0342   -3.2816    0.5484 C   0  0  0  0  0  0  0  0  0  0  0  0
   -4.8842   -2.6126    0.6694 H   0  0  0  0  0  0  0  0  0  0  0  0
   -4.0433   -3.7186   -0.4486 H   0  0  0  0  0  0  0  0  0  0  0  0
   -2.7532   -2.5046    0.7444 C   0  0  0  0  0  0  0  0  0  0  0  0
   -1.9803   -2.8096    1.6434 O   0  0  0  0  0  0  0  0  0  0  0  0
   -2.5332   -1.4966   -0.0966 N   0  0  0  0  0  0  0  0  0  0  0  0
   -3.2312   -1.2816   -0.7936 H   0  0  0  0  0  0  0  0  0  0  0  0
   -1.3593   -0.6196   -0.0536 C   0  0  1  0  0  0  0  0  0  0  0  0
   -0.4622   -1.2317   -0.1545 H   0  0  0  0  0  0  0  0  0  0  0  0
   -1.4074    0.3593   -1.2373 C   0  0  0  0  0  0  0  0  0  0  0  0
   -2.4195    0.3679   -1.6456 H   0  0  0  0  0  0  0  0  0  0  0  0
   -1.1923    1.3631   -0.8668 H   0  0  0  0  0  0  0  0  0  0  0  0
   -0.4588    0.0527   -2.3563 C   0  0  0  0  0  0  0  0  0  0  0  0
    0.8764    0.2636   -2.3357 C   0  0  0  0  0  0  0  0  0  0  0  0
    1.4194    0.7013   -1.5052 H   0  0  0  0  0  0  0  0  0  0  0  0
    1.4348   -0.1806   -3.5182 N   0  0  0  0  0  0  0  0  0  0  0  0
    2.4209   -0.1198   -3.7260 H   0  0  0  0  0  0  0  0  0  0  0  0
    0.4832   -0.7186   -4.3583 C   0  0  0  0  0  0  0  0  0  0  0  0
    0.5508   -1.3130   -5.6266 C   0  0  0  0  0  0  0  0  0  0  0  0
    1.4986   -1.4113   -6.1353 H   0  0  0  0  0  0  0  0  0  0  0  0
   -0.6320   -1.7772   -6.2270 C   0  0  0  0  0  0  0  0  0  0  0  0
   -0.5994   -2.2375   -7.2053 H   0  0  0  0  0  0  0  0  0  0  0  0
   -1.8606   -1.6363   -5.5562 C   0  0  0  0  0  0  0  0  0  0  0  0
   -2.7693   -1.9873   -6.0254 H   0  0  0  0  0  0  0  0  0  0  0  0
   -1.9169   -1.0354   -4.2826 C   0  0  0  0  0  0  0  0  0  0  0  0
   -2.8690   -0.9213   -3.7841 H   0  0  0  0  0  0  0  0  0  0  0  0
   -0.7460   -0.5645   -3.6500 C   0  0  0  0  0  0  0  0  0  0  0  0
   -1.2663    0.1182    1.2910 C   0  0  0  0  0  0  0  0  0  0  0  0
   -0.1906    0.1931    1.8833 O   0  0  0  0  0  0  0  0  0  0  0  0
   -2.3930    0.6605    1.7722 N   0  0  0  0  0  0  0  0  0  0  0  0
   -3.2451    0.5077    1.2518 H   0  0  0  0  0  0  0  0  0  0  0  0
   -2.4787    1.3954    3.0311 C   0  0  0  0  0  0  0  0  0  0  0  0
   -1.7166    2.1767    3.0539 H   0  0  0  0  0  0  0  0  0  0  0  0
   -3.4649    1.8498    3.1344 H   0  0  0  0  0  0  0  0  0  0  0  0
   -2.3058    0.7133    3.8652 H   0  0  0  0  0  0  0  0  0  0  0  0
  5  6  2  0  0  0  0
  5  7  1  0  0  0  0
  2  3  1  0  0  0  0
  2  4  1  0  0  0  0
  2  5  1  0  0  0  0
  1  2  1  0  0  0  0
 29 30  2  0  0  0  0
 29 31  1  0  0  0  0
 26 27  1  0  0  0  0
 26 28  2  0  0  0  0
 24 25  1  0  0  0  0
 24 26  1  0  0  0  0
 22 23  1  0  0  0  0
 22 24  2  0  0  0  0
 20 21  1  0  0  0  0
 20 22  1  0  0  0  0
 19 20  2  0  0  0  0
 19 28  1  0  0  0  0
 17 18  1  0  0  0  0
 17 19  1  0  0  0  0
 15 16  1  0  0  0  0
 15 17  1  0  0  0  0
 14 15  2  0  0  0  0
 14 28  1  0  0  0  0
 11 12  1  0  0  0  0
 11 13  1  0  0  0  0
 11 14  1  0  0  0  0
  9 10  1  0  0  0  0
  9 11  1  0  0  0  0
  9 29  1  0  0  0  0
  7  8  1  0  0  0  0
  7  9  1  0  0  0  0
 33 34  1  0  0  0  0
 33 35  1  0  0  0  0
 33 36  1  0  0  0  0
 31 32  1  0  0  0  0
 31 33  1  0  0  0  0
M  END
$$$$
default_name
  -OEChem-02102213163D

 36 37  0     1  0  0  0  0  0999 V2000
   -4.0843   -4.0736    1.2944 H   0  0  0  0  0  0  0  0  0  0  0  0
   -4.0342   -3.2816    0.5484 C   0  0  0  0  0  0  0  0  0  0  0  0
   -4.8842   -2.6126    0.6694 H   0  0  0  0  0  0  0  0  0  0  0  0
   -4.0433   -3.7186   -0.4486 H   0  0  0  0  0  0  0  0  0  0  0  0
   -2.7532   -2.5046    0.7444 C   0  0  0  0  0  0  0  0  0  0  0  0
   -1.9803   -2.8096    1.6434 O   0  0  0  0  0  0  0  0  0  0  0  0
   -2.5332   -1.4966   -0.0966 N   0  0  0  0  0  0  0  0  0  0  0  0
   -3.2312   -1.2816   -0.7936 H   0  0  0  0  0  0  0  0  0  0  0  0
   -1.3593   -0.6196   -0.0536 C   0  0  1  0  0  0  0  0  0  0  0  0
   -0.4622   -1.2317   -0.1545 H   0  0  0  0  0  0  0  0  0  0  0  0
   -1.4074    0.3593   -1.2373 C   0  0  0  0  0  0  0  0  0  0  0  0
   -2.4195    0.3679   -1.6456 H   0  0  0  0  0  0  0  0  0  0  0  0
   -1.1923    1.3631   -0.8668 H   0  0  0  0  0  0  0  0  0  0  0  0
   -0.4588    0.0527   -2.3563 C   0  0  0  0  0  0  0  0  0  0  0  0
    0.8875   -0.0105   -2.2512 C   0  0  0  0  0  0  0  0  0  0  0  0
    1.4447    0.1738   -1.3392 H   0  0  0  0  0  0  0  0  0  0  0  0
    1.4323   -0.3630   -3.4704 N   0  0  0  0  0  0  0  0  0  0  0  0
    2.4241   -0.4661   -3.6284 H   0  0  0  0  0  0  0  0  0  0  0  0
    0.4566   -0.5620   -4.4238 C   0  0  0  0  0  0  0  0  0  0  0  0
    0.4981   -0.9493   -5.7709 C   0  0  0  0  0  0  0  0  0  0  0  0
    1.4431   -1.1511   -6.2536 H   0  0  0  0  0  0  0  0  0  0  0  0
   -0.7067   -1.0693   -6.4843 C   0  0  0  0  0  0  0  0  0  0  0  0
   -0.6941   -1.3658   -7.5244 H   0  0  0  0  0  0  0  0  0  0  0  0
   -1.9300   -0.7965   -5.8451 C   0  0  0  0  0  0  0  0  0  0  0  0
   -2.8540   -0.8820   -6.4000 H   0  0  0  0  0  0  0  0  0  0  0  0
   -1.9596   -0.4061   -4.4912 C   0  0  0  0  0  0  0  0  0  0  0  0
   -2.9051   -0.1866   -4.0160 H   0  0  0  0  0  0  0  0  0  0  0  0
   -0.7674   -0.2824   -3.7454 C   0  0  0  0  0  0  0  0  0  0  0  0
   -1.2663    0.1182    1.2910 C   0  0  0  0  0  0  0  0  0  0  0  0
   -0.1906    0.1931    1.8833 O   0  0  0  0  0  0  0  0  0  0  0  0
   -2.3930    0.6605    1.7722 N   0  0  0  0  0  0  0  0  0  0  0  0
   -3.2451    0.5077    1.2518 H   0  0  0  0  0  0  0  0  0  0  0  0
   -2.4787    1.3954    3.0311 C   0  0  0  0  0  0  0  0  0  0  0  0
   -1.7166    2.1767    3.0539 H   0  0  0  0  0  0  0  0  0  0  0  0
   -3.4649    1.8498    3.1344 H   0  0  0  0  0  0  0  0  0  0  0  0
   -2.3058    0.7133    3.8652 H   0  0  0  0  0  0  0  0  0  0  0  0
  5  6  2  0  0  0  0
  5  7  1  0  0  0  0
  2  3  1  0  0  0  0
  2  4  1  0  0  0  0
  2  5  1  0  0  0  0
  1  2  1  0  0  0  0
 29 30  2  0  0  0  0
 29 31  1  0  0  0  0
 26 27  1  0  0  0  0
 26 28  2  0  0  0  0
 24 25  1  0  0  0  0
 24 26  1  0  0  0  0
 22 23  1  0  0  0  0
 22 24  2  0  0  0  0
 20 21  1  0  0  0  0
 20 22  1  0  0  0  0
 19 20  2  0  0  0  0
 19 28  1  0  0  0  0
 17 18  1  0  0  0  0
 17 19  1  0  0  0  0
 15 16  1  0  0  0  0
 15 17  1  0  0  0  0
 14 15  2  0  0  0  0
 14 28  1  0  0  0  0
 11 12  1  0  0  0  0
 11 13  1  0  0  0  0
 11 14  1  0  0  0  0
  9 10  1  0  0  0  0
  9 11  1  0  0  0  0
  9 29  1  0  0  0  0
  7  8  1  0  0  0  0
  7  9  1  0  0  0  0
 33 34  1  0  0  0  0
 33 35  1  0  0  0  0
 33 36  1  0  0  0  0
 31 32  1  0  0  0  0
 31 33  1  0  0  0  0
M  END
$$$$
default_name
  -OEChem-02102213163D

 36 37  0     1  0  0  0  0  0999 V2000
   -4.0843   -4.0736    1.2944 H   0  0  0  0  0  0  0  0  0  0  0  0
   -4.0342   -3.2816    0.5484 C   0  0  0  0  0  0  0  0  0  0  0  0
   -4.8842   -2.6126    0.6694 H   0  0  0  0  0  0  0  0  0  0  0  0
   -4.0433   -3.7186   -0.4486 H   0  0  0  0  0  0  0  0  0  0  0  0
   -2.7532   -2.5046    0.7444 C   0  0  0  0  0  0  0  0  0  0  0  0
   -1.9803   -2.8096    1.6434 O   0  0  0  0  0  0  0  0  0  0  0  0
   -2.5332   -1.4966   -0.0966 N   0  0  0  0  0  0  0  0  0  0  0  0
   -3.2312   -1.2816   -0.7936 H   0  0  0  0  0  0  0  0  0  0  0  0
   -1.3593   -0.6196   -0.0536 C   0  0  1  0  0  0  0  0  0  0  0  0
   -0.4622   -1.2317   -0.1545 H   0  0  0  0  0  0  0  0  0  0  0  0
   -1.4074    0.3593   -1.2373 C   0  0  0  0  0  0  0  0  0  0  0  0
   -2.4195    0.3679   -1.6456 H   0  0  0  0  0  0  0  0  0  0  0  0
   -1.1923    1.3631   -0.8668 H   0  0  0  0  0  0  0  0  0  0  0  0
   -0.4588    0.0527   -2.3563 C   0  0  0  0  0  0  0  0  0  0  0  0
    0.8408   -0.2912   -2.2138 C   0  0  0  0  0  0  0  0  0  0  0  0
    1.3585   -0.3677   -1.2639 H   0  0  0  0  0  0  0  0  0  0  0  0
    1.3921   -0.5466   -3.4541 N   0  0  0  0  0  0  0  0  0  0  0  0
    2.3551   -0.8173   -3.5906 H   0  0  0  0  0  0  0  0  0  0  0  0
    0.4646   -0.3950   -4.4628 C   0  0  0  0  0  0  0  0  0  0  0  0
    0.5252   -0.5641   -5.8535 C   0  0  0  0  0  0  0  0  0  0  0  0
    1.4460   -0.8696   -6.3282 H   0  0  0  0  0  0  0  0  0  0  0  0
   -0.6285   -0.3289   -6.6209 C   0  0  0  0  0  0  0  0  0  0  0  0
   -0.6003   -0.4533   -7.6949 H   0  0  0  0  0  0  0  0  0  0  0  0
   -1.8194    0.0754   -5.9902 C   0  0  0  0  0  0  0  0  0  0  0  0
   -2.7023    0.2633   -6.5853 H   0  0  0  0  0  0  0  0  0  0  0  0
   -1.8682    0.2441   -4.5919 C   0  0  0  0  0  0  0  0  0  0  0  0
   -2.7858    0.5680   -4.1216 H   0  0  0  0  0  0  0  0  0  0  0  0
   -0.7284    0.0098   -3.7925 C   0  0  0  0  0  0  0  0  0  0  0  0
   -1.2663    0.1182    1.2910 C   0  0  0  0  0  0  0  0  0  0  0  0
   -0.1906    0.1931    1.8833 O   0  0  0  0  0  0  0  0  0  0  0  0
   -2.3930    0.6605    1.7722 N   0  0  0  0  0  0  0  0  0  0  0  0
   -3.2451    0.5077    1.2518 H   0  0  0  0  0  0  0  0  0  0  0  0
   -2.4787    1.3954    3.0311 C   0  0  0  0  0  0  0  0  0  0  0  0
   -1.7166    2.1767    3.0539 H   0  0  0  0  0  0  0  0  0  0  0  0
   -3.4649    1.8498    3.1344 H   0  0  0  0  0  0  0  0  0  0  0  0
   -2.3058    0.7133    3.8652 H   0  0  0  0  0  0  0  0  0  0  0  0
  5  6  2  0  0  0  0
  5  7  1  0  0  0  0
  2  3  1  0  0  0  0
  2  4  1  0  0  0  0
  2  5  1  0  0  0  0
  1  2  1  0  0  0  0
 29 30  2  0  0  0  0
 29 31  1  0  0  0  0
 26 27  1  0  0  0  0
 26 28  2  0  0  0  0
 24 25  1  0  0  0  0
 24 26  1  0  0  0  0
 22 23  1  0  0  0  0
 22 24  2  0  0  0  0
 20 21  1  0  0  0  0
 20 22  1  0  0  0  0
 19 20  2  0  0  0  0
 19 28  1  0  0  0  0
 17 18  1  0  0  0  0
 17 19  1  0  0  0  0
 15 16  1  0  0  0  0
 15 17  1  0  0  0  0
 14 15  2  0  0  0  0
 14 28  1  0  0  0  0
 11 12  1  0  0  0  0
 11 13  1  0  0  0  0
 11 14  1  0  0  0  0
  9 10  1  0  0  0  0
  9 11  1  0  0  0  0
  9 29  1  0  0  0  0
  7  8  1  0  0  0  0
  7  9  1  0  0  0  0
 33 34  1  0  0  0  0
 33 35  1  0  0  0  0
 33 36  1  0  0  0  0
 31 32  1  0  0  0  0
 31 33  1  0  0  0  0
M  END
$$$$
default_name
  -OEChem-02102213163D

 36 37  0     1  0  0  0  0  0999 V2000
   -4.0843   -4.0736    1.2944 H   0  0  0  0  0  0  0  0  0  0  0  0
   -4.0342   -3.2816    0.5484 C   0  0  0  0  0  0  0  0  0  0  0  0
   -4.8842   -2.6126    0.6694 H   0  0  0  0  0  0  0  0  0  0  0  0
   -4.0433   -3.7186   -0.4486 H   0  0  0  0  0  0  0  0  0  0  0  0
   -2.7532   -2.5046    0.7444 C   0  0  0  0  0  0  0  0  0  0  0  0
   -1.9803   -2.8096    1.6434 O   0  0  0  0  0  0  0  0  0  0  0  0
   -2.5332   -1.4966   -0.0966 N   0  0  0  0  0  0  0  0  0  0  0  0
   -3.2312   -1.2816   -0.7936 H   0  0  0  0  0  0  0  0  0  0  0  0
   -1.3593   -0.6196   -0.0536 C   0  0  1  0  0  0  0  0  0  0  0  0
   -0.4622   -1.2317   -0.1545 H   0  0  0  0  0  0  0  0  0  0  0  0
   -1.4074    0.3593   -1.2373 C   0  0  0  0  0  0  0  0  0  0  0  0
   -2.4195    0.3679   -1.6456 H   0  0  0  0  0  0  0  0  0  0  0  0
   -1.1923    1.3631   -0.8668 H   0  0  0  0  0  0  0  0  0  0  0  0
   -0.4588    0.0527   -2.3563 C   0  0  0  0  0  0  0  0  0  0  0  0
    0.7395   -0.5595   -2.2262 C   0  0  0  0  0  0  0  0  0  0  0  0
    1.1665   -0.8865   -1.2845 H   0  0  0  0  0  0  0  0  0  0  0  0
    1.3170   -0.7187   -3.4707 N   0  0  0  0  0  0  0  0  0  0  0  0
    2.2186   -1.1493   -3.6154 H   0  0  0  0  0  0  0  0  0  0  0  0
    0.5066   -0.2288   -4.4727 C   0  0  0  0  0  0  0  0  0  0  0  0
    0.6301   -0.1838   -5.8688 C   0  0  0  0  0  0  0  0  0  0  0  0
    1.5072   -0.5860   -6.3540 H   0  0  0  0  0  0  0  0  0  0  0  0
   -0.4026    0.3935   -6.6273 C   0  0  0  0  0  0  0  0  0  0  0  0
   -0.3243    0.4380   -7.7052 H   0  0  0  0  0  0  0  0  0  0  0  0
   -1.5364    0.9199   -5.9818 C   0  0  0  0  0  0  0  0  0  0  0  0
   -2.3247    1.3707   -6.5686 H   0  0  0  0  0  0  0  0  0  0  0  0
   -1.6489    0.8711   -4.5778 C   0  0  0  0  0  0  0  0  0  0  0  0
   -2.5190    1.2911   -4.0936 H   0  0  0  0  0  0  0  0  0  0  0  0
   -0.6318    0.2923   -3.7880 C   0  0  0  0  0  0  0  0  0  0  0  0
   -1.2663    0.1182    1.2910 C   0  0  0  0  0  0  0  0  0  0  0  0
   -0.1906    0.1931    1.8833 O   0  0  0  0  0  0  0  0  0  0  0  0
   -2.3930    0.6605    1.7722 N   0  0  0  0  0  0  0  0  0  0  0  0
   -3.2451    0.5077    1.2518 H   0  0  0  0  0  0  0  0  0  0  0  0
   -2.4787    1.3954    3.0311 C   0  0  0  0  0  0  0  0  0  0  0  0
   -1.7166    2.1767    3.0539 H   0  0  0  0  0  0  0  0  0  0  0  0
   -3.4649    1.8498    3.1344 H   0  0  0  0  0  0  0  0  0  0  0  0
   -2.3058    0.7133    3.8652 H   0  0  0  0  0  0  0  0  0  0  0  0
  5  6  2  0  0  0  0
  5  7  1  0  0  0  0
  2  3  1  0  0  0  0
  2  4  1  0  0  0  0
  2  5  1  0  0  0  0
  1  2  1  0  0  0  0
 29 30  2  0  0  0  0
 29 31  1  0  0  0  0
 26 27  1  0  0  0  0
 26 28  2  0  0  0  0
 24 25  1  0  0  0  0
 24 26  1  0  0  0  0
 22 23  1  0  0  0  0
 22 24  2  0  0  0  0
 20 21  1  0  0  0  0
 20 22  1  0  0  0  0
 19 20  2  0  0  0  0
 19 28  1  0  0  0  0
 17 18  1  0  0  0  0
 17 19  1  0  0  0  0
 15 16  1  0  0  0  0
 15 17  1  0  0  0  0
 14 15  2  0  0  0  0
 14 28  1  0  0  0  0
 11 12  1  0  0  0  0
 11 13  1  0  0  0  0
 11 14  1  0  0  0  0
  9 10  1  0  0  0  0
  9 11  1  0  0  0  0
  9 29  1  0  0  0  0
  7  8  1  0  0  0  0
  7  9  1  0  0  0  0
 33 34  1  0  0  0  0
 33 35  1  0  0  0  0
 33 36  1  0  0  0  0
 31 32  1  0  0  0  0
 31 33  1  0  0  0  0
M  END
$$$$
default_name
  -OEChem-02102213163D

 36 37  0     1  0  0  0  0  0999 V2000
   -4.0843   -4.0736    1.2944 H   0  0  0  0  0  0  0  0  0  0  0  0
   -4.0342   -3.2816    0.5484 C   0  0  0  0  0  0  0  0  0  0  0  0
   -4.8842   -2.6126    0.6694 H   0  0  0  0  0  0  0  0  0  0  0  0
   -4.0433   -3.7186   -0.4486 H   0  0  0  0  0  0  0  0  0  0  0  0
   -2.7532   -2.5046    0.7444 C   0  0  0  0  0  0  0  0  0  0  0  0
   -1.9803   -2.8096    1.6434 O   0  0  0  0  0  0  0  0  0  0  0  0
   -2.5332   -1.4966   -0.0966 N   0  0  0  0  0  0  0  0  0  0  0  0
   -3.2312   -1.2816   -0.7936 H   0  0  0  0  0  0  0  0  0  0  0  0
   -1.3593   -0.6196   -0.0536 C   0  0  1  0  0  0  0  0  0  0  0  0
   -0.4622   -1.2317   -0.1545 H   0  0  0  0  0  0  0  0  0  0  0  0
   -1.4074    0.3593   -1.2373 C   0  0  0  0  0  0  0  0  0  0  0  0
   -2.4195    0.3679   -1.6456 H   0  0  0  0  0  0  0  0  0  0  0  0
   -1.1923    1.3631   -0.8668 H   0  0  0  0  0  0  0  0  0  0  0  0
   -0.4588    0.0527   -2.3563 C   0  0  0  0  0  0  0  0  0  0  0  0
    0.5904   -0.7970   -2.2875 C   0  0  0  0  0  0  0  0  0  0  0  0
    0.8819   -1.3471   -1.3995 H   0  0  0  0  0  0  0  0  0  0  0  0
    1.2120   -0.8678   -3.5188 N   0  0  0  0  0  0  0  0  0  0  0  0
    2.0238   -1.4396   -3.7009 H   0  0  0  0  0  0  0  0  0  0  0  0
    0.5799   -0.0747   -4.4528 C   0  0  0  0  0  0  0  0  0  0  0  0
    0.8057    0.1658   -5.8157 C   0  0  0  0  0  0  0  0  0  0  0  0
    1.6225   -0.3197   -6.3293 H   0  0  0  0  0  0  0  0  0  0  0  0
   -0.0445    1.0487   -6.5033 C   0  0  0  0  0  0  0  0  0  0  0  0
    0.1151    1.2472   -7.5545 H   0  0  0  0  0  0  0  0  0  0  0  0
   -1.1002    1.6797   -5.8202 C   0  0  0  0  0  0  0  0  0  0  0  0
   -1.7468    2.3646   -6.3511 H   0  0  0  0  0  0  0  0  0  0  0  0
   -1.3166    1.4319   -4.4498 C   0  0  0  0  0  0  0  0  0  0  0  0
   -2.1231    1.9335   -3.9340 H   0  0  0  0  0  0  0  0  0  0  0  0
   -0.4842    0.5458   -3.7323 C   0  0  0  0  0  0  0  0  0  0  0  0
   -1.2663    0.1182    1.2910 C   0  0  0  0  0  0  0  0  0  0  0  0
   -0.1906    0.1931    1.8833 O   0  0  0  0  0  0  0  0  0  0  0  0
   -2.3930    0.6605    1.7722 N   0  0  0  0  0  0  0  0  0  0  0  0
   -3.2451    0.5077    1.2518 H   0  0  0  0  0  0  0  0  0  0  0  0
   -2.4787    1.3954    3.0311 C   0  0  0  0  0  0  0  0  0  0  0  0
   -1.7166    2.1767    3.0539 H   0  0  0  0  0  0  0  0  0  0  0  0
   -3.4649    1.8498    3.1344 H   0  0  0  0  0  0  0  0  0  0  0  0
   -2.3058    0.7133    3.8652 H   0  0  0  0  0  0  0  0  0  0  0  0
  5  6  2  0  0  0  0
  5  7  1  0  0  0  0
  2  3  1  0  0  0  0
  2  4  1  0  0  0  0
  2  5  1  0  0  0  0
  1  2  1  0  0  0  0
 29 30  2  0  0  0  0
 29 31  1  0  0  0  0
 26 27  1  0  0  0  0
 26 28  2  0  0  0  0
 24 25  1  0  0  0  0
 24 26  1  0  0  0  0
 22 23  1  0  0  0  0
 22 24  2  0  0  0  0
 20 21  1  0  0  0  0
 20 22  1  0  0  0  0
 19 20  2  0  0  0  0
 19 28  1  0  0  0  0
 17 18  1  0  0  0  0
 17 19  1  0  0  0  0
 15 16  1  0  0  0  0
 15 17  1  0  0  0  0
 14 15  2  0  0  0  0
 14 28  1  0  0  0  0
 11 12  1  0  0  0  0
 11 13  1  0  0  0  0
 11 14  1  0  0  0  0
  9 10  1  0  0  0  0
  9 11  1  0  0  0  0
  9 29  1  0  0  0  0
  7  8  1  0  0  0  0
  7  9  1  0  0  0  0
 33 34  1  0  0  0  0
 33 35  1  0  0  0  0
 33 36  1  0  0  0  0
 31 32  1  0  0  0  0
 31 33  1  0  0  0  0
M  END
$$$$
default_name
  -OEChem-02102213163D

 36 37  0     1  0  0  0  0  0999 V2000
   -4.0843   -4.0736    1.2944 H   0  0  0  0  0  0  0  0  0  0  0  0
   -4.0342   -3.2816    0.5484 C   0  0  0  0  0  0  0  0  0  0  0  0
   -4.8842   -2.6126    0.6694 H   0  0  0  0  0  0  0  0  0  0  0  0
   -4.0433   -3.7186   -0.4486 H   0  0  0  0  0  0  0  0  0  0  0  0
   -2.7532   -2.5046    0.7444 C   0  0  0  0  0  0  0  0  0  0  0  0
   -1.9803   -2.8096    1.6434 O   0  0  0  0  0  0  0  0  0  0  0  0
   -2.5332   -1.4966   -0.0966 N   0  0  0  0  0  0  0  0  0  0  0  0
   -3.2312   -1.2816   -0.7936 H   0  0  0  0  0  0  0  0  0  0  0  0
   -1.3593   -0.6196   -0.0536 C   0  0  1  0  0  0  0  0  0  0  0  0
   -0.4622   -1.2317   -0.1545 H   0  0  0  0  0  0  0  0  0  0  0  0
   -1.4074    0.3593   -1.2373 C   0  0  0  0  0  0  0  0  0  0  0  0
   -2.4195    0.3679   -1.6456 H   0  0  0  0  0  0  0  0  0  0  0  0
   -1.1923    1.3631   -0.8668 H   0  0  0  0  0  0  0  0  0  0  0  0
   -0.4588    0.0527   -2.3563 C   0  0  0  0  0  0  0  0  0  0  0  0
    0.4038   -0.9876   -2.3935 C   0  0  0  0  0  0  0  0  0  0  0  0
    0.5241   -1.7182   -1.6011 H   0  0  0  0  0  0  0  0  0  0  0  0
    1.0843   -0.9836   -3.5953 N   0  0  0  0  0  0  0  0  0  0  0  0
    1.7842   -1.6683   -3.8414 H   0  0  0  0  0  0  0  0  0  0  0  0
    0.6794    0.0566   -4.4045 C   0  0  0  0  0  0  0  0  0  0  0  0
    1.0402    0.4609   -5.6978 C   0  0  0  0  0  0  0  0  0  0  0  0
    1.7841   -0.0888   -6.2556 H   0  0  0  0  0  0  0  0  0  0  0  0
    0.4215    1.5920   -6.2571 C   0  0  0  0  0  0  0  0  0  0  0  0
    0.6879    1.9193   -7.2531 H   0  0  0  0  0  0  0  0  0  0  0  0
   -0.5407    2.3028   -5.5166 C   0  0  0  0  0  0  0  0  0  0  0  0
   -1.0081    3.1773   -5.9476 H   0  0  0  0  0  0  0  0  0  0  0  0
   -0.8941    1.8885   -4.2167 C   0  0  0  0  0  0  0  0  0  0  0  0
   -1.6250    2.4513   -3.6537 H   0  0  0  0  0  0  0  0  0  0  0  0
   -0.2955    0.7530   -3.6292 C   0  0  0  0  0  0  0  0  0  0  0  0
   -1.2663    0.1182    1.2910 C   0  0  0  0  0  0  0  0  0  0  0  0
   -0.1906    0.1931    1.8833 O   0  0  0  0  0  0  0  0  0  0  0  0
   -2.3930    0.6605    1.7722 N   0  0  0  0  0  0  0  0  0  0  0  0
   -3.2451    0.5077    1.2518 H   0  0  0  0  0  0  0  0  0  0  0  0
   -2.4787    1.3954    3.0311 C   0  0  0  0  0  0  0  0  0  0  0  0
   -1.7166    2.1767    3.0539 H   0  0  0  0  0  0  0  0  0  0  0  0
   -3.4649    1.8498    3.1344 H   0  0  0  0  0  0  0  0  0  0  0  0
   -2.3058    0.7133    3.8652 H   0  0  0  0  0  0  0  0  0  0  0  0
  5  6  2  0  0  0  0
  5  7  1  0  0  0  0
  2  3  1  0  0  0  0
  2  4  1  0  0  0  0
  2  5  1  0  0  0  0
  1  2  1  0  0  0  0
 29 30  2  0  0  0  0
 29 31  1  0  0  0  0
 26 27  1  0  0  0  0
 26 28  2  0  0  0  0
 24 25  1  0  0  0  0
 24 26  1  0  0  0  0
 22 23  1  0  0  0  0
 22 24  2  0  0  0  0
 20 21  1  0  0  0  0
 20 22  1  0  0  0  0
 19 20  2  0  0  0  0
 19 28  1  0  0  0  0
 17 18  1  0  0  0  0
 17 19  1  0  0  0  0
 15 16  1  0  0  0  0
 15 17  1  0  0  0  0
 14 15  2  0  0  0  0
 14 28  1  0  0  0  0
 11 12  1  0  0  0  0
 11 13  1  0  0  0  0
 11 14  1  0  0  0  0
  9 10  1  0  0  0  0
  9 11  1  0  0  0  0
  9 29  1  0  0  0  0
  7  8  1  0  0  0  0
  7  9  1  0  0  0  0
 33 34  1  0  0  0  0
 33 35  1  0  0  0  0
 33 36  1  0  0  0  0
 31 32  1  0  0  0  0
 31 33  1  0  0  0  0
M  END
$$$$
default_name
  -OEChem-02102213163D

 36 37  0     1  0  0  0  0  0999 V2000
   -4.0843   -4.0736    1.2944 H   0  0  0  0  0  0  0  0  0  0  0  0
   -4.0342   -3.2816    0.5484 C   0  0  0  0  0  0  0  0  0  0  0  0
   -4.8842   -2.6126    0.6694 H   0  0  0  0  0  0  0  0  0  0  0  0
   -4.0433   -3.7186   -0.4486 H   0  0  0  0  0  0  0  0  0  0  0  0
   -2.7532   -2.5046    0.7444 C   0  0  0  0  0  0  0  0  0  0  0  0
   -1.9803   -2.8096    1.6434 O   0  0  0  0  0  0  0  0  0  0  0  0
   -2.5332   -1.4966   -0.0966 N   0  0  0  0  0  0  0  0  0  0  0  0
   -3.2312   -1.2816   -0.7936 H   0  0  0  0  0  0  0  0  0  0  0  0
   -1.3593   -0.6196   -0.0536 C   0  0  1  0  0  0  0  0  0  0  0  0
   -0.4622   -1.2317   -0.1545 H   0  0  0  0  0  0  0  0  0  0  0  0
   -1.4074    0.3593   -1.2373 C   0  0  0  0  0  0  0  0  0  0  0  0
   -2.4195    0.3679   -1.6456 H   0  0  0  0  0  0  0  0  0  0  0  0
   -1.1923    1.3631   -0.8668 H   0  0  0  0  0  0  0  0  0  0  0  0
   -0.4588    0.0527   -2.3563 C   0  0  0  0  0  0  0  0  0  0  0  0
    0.1923   -1.1182   -2.5370 C   0  0  0  0  0  0  0  0  0  0  0  0
    0.1175   -1.9744   -1.8756 H   0  0  0  0  0  0  0  0  0  0  0  0
    0.9426   -1.0583   -3.6950 N   0  0  0  0  0  0  0  0  0  0  0  0
    1.5159   -1.8200   -4.0273 H   0  0  0  0  0  0  0  0  0  0  0  0
    0.7983    0.1564   -4.3310 C   0  0  0  0  0  0  0  0  0  0  0  0
    1.3174    0.6812   -5.5232 C   0  0  0  0  0  0  0  0  0  0  0  0
    1.9808    0.0910   -6.1381 H   0  0  0  0  0  0  0  0  0  0  0  0
    0.9636    1.9865   -5.9057 C   0  0  0  0  0  0  0  0  0  0  0  0
    1.3551    2.4084   -6.8215 H   0  0  0  0  0  0  0  0  0  0  0  0
    0.1041    2.7467   -5.0917 C   0  0  0  0  0  0  0  0  0  0  0  0
   -0.1588    3.7535   -5.3856 H   0  0  0  0  0  0  0  0  0  0  0  0
   -0.4100    2.2097   -3.8944 C   0  0  0  0  0  0  0  0  0  0  0  0
   -1.0586    2.8093   -3.2717 H   0  0  0  0  0  0  0  0  0  0  0  0
   -0.0787    0.8997   -3.4856 C   0  0  0  0  0  0  0  0  0  0  0  0
   -1.2663    0.1182    1.2910 C   0  0  0  0  0  0  0  0  0  0  0  0
   -0.1906    0.1931    1.8833 O   0  0  0  0  0  0  0  0  0  0  0  0
   -2.3930    0.6605    1.7722 N   0  0  0  0  0  0  0  0  0  0  0  0
   -3.2451    0.5077    1.2518 H   0  0  0  0  0  0  0  0  0  0  0  0
   -2.4787    1.3954    3.0311 C   0  0  0  0  0  0  0  0  0  0  0  0
   -1.7166    2.1767    3.0539 H   0  0  0  0  0  0  0  0  0  0  0  0
   -3.4649    1.8498    3.1344 H   0  0  0  0  0  0  0  0  0  0  0  0
   -2.3058    0.7133    3.8652 H   0  0  0  0  0  0  0  0  0  0  0  0
  5  6  2  0  0  0  0
  5  7  1  0  0  0  0
  2  3  1  0  0  0  0
  2  4  1  0  0  0  0
  2  5  1  0  0  0  0
  1  2  1  0  0  0  0
 29 30  2  0  0  0  0
 29 31  1  0  0  0  0
 26 27  1  0  0  0  0
 26 28  2  0  0  0  0
 24 25  1  0  0  0  0
 24 26  1  0  0  0  0
 22 23  1  0  0  0  0
 22 24  2  0  0  0  0
 20 21  1  0  0  0  0
 20 22  1  0  0  0  0
 19 20  2  0  0  0  0
 19 28  1  0  0  0  0
 17 18  1  0  0  0  0
 17 19  1  0  0  0  0
 15 16  1  0  0  0  0
 15 17  1  0  0  0  0
 14 15  2  0  0  0  0
 14 28  1  0  0  0  0
 11 12  1  0  0  0  0
 11 13  1  0  0  0  0
 11 14  1  0  0  0  0
  9 10  1  0  0  0  0
  9 11  1  0  0  0  0
  9 29  1  0  0  0  0
  7  8  1  0  0  0  0
  7  9  1  0  0  0  0
 33 34  1  0  0  0  0
 33 35  1  0  0  0  0
 33 36  1  0  0  0  0
 31 32  1  0  0  0  0
 31 33  1  0  0  0  0
M  END
$$$$
default_name
  -OEChem-02102213163D

 36 37  0     1  0  0  0  0  0999 V2000
   -4.0843   -4.0736    1.2944 H   0  0  0  0  0  0  0  0  0  0  0  0
   -4.0342   -3.2816    0.5484 C   0  0  0  0  0  0  0  0  0  0  0  0
   -4.8842   -2.6126    0.6694 H   0  0  0  0  0  0  0  0  0  0  0  0
   -4.0433   -3.7186   -0.4486 H   0  0  0  0  0  0  0  0  0  0  0  0
   -2.7532   -2.5046    0.7444 C   0  0  0  0  0  0  0  0  0  0  0  0
   -1.9803   -2.8096    1.6434 O   0  0  0  0  0  0  0  0  0  0  0  0
   -2.5332   -1.4966   -0.0966 N   0  0  0  0  0  0  0  0  0  0  0  0
   -3.2312   -1.2816   -0.7936 H   0  0  0  0  0  0  0  0  0  0  0  0
   -1.3593   -0.6196   -0.0536 C   0  0  1  0  0  0  0  0  0  0  0  0
   -0.4622   -1.2317   -0.1545 H   0  0  0  0  0  0  0  0  0  0  0  0
   -1.4074    0.3593   -1.2373 C   0  0  0  0  0  0  0  0  0  0  0  0
   -2.4195    0.3679   -1.6456 H   0  0  0  0  0  0  0  0  0  0  0  0
   -1.1923    1.3631   -0.8668 H   0  0  0  0  0  0  0  0  0  0  0  0
   -0.4588    0.0527   -2.3563 C   0  0  0  0  0  0  0  0  0  0  0  0
   -0.0297   -1.1800   -2.7082 C   0  0  0  0  0  0  0  0  0  0  0  0
   -0.3103   -2.0984   -2.2042 H   0  0  0  0  0  0  0  0  0  0  0  0
    0.7967   -1.0867   -3.8109 N   0  0  0  0  0  0  0  0  0  0  0  0
    1.2373   -1.8841   -4.2458 H   0  0  0  0  0  0  0  0  0  0  0  0
    0.9286    0.2177   -4.2374 C   0  0  0  0  0  0  0  0  0  0  0  0
    1.6185    0.8119   -5.3038 C   0  0  0  0  0  0  0  0  0  0  0  0
    2.1994    0.2073   -5.9847 H   0  0  0  0  0  0  0  0  0  0  0  0
    1.5448    2.2051   -5.4729 C   0  0  0  0  0  0  0  0  0  0  0  0
    2.0712    2.6811   -6.2892 H   0  0  0  0  0  0  0  0  0  0  0  0
    0.7903    2.9814   -4.5744 C   0  0  0  0  0  0  0  0  0  0  0  0
    0.7431    4.0539   -4.7033 H   0  0  0  0  0  0  0  0  0  0  0  0
    0.1025    2.3736   -3.5049 C   0  0  0  0  0  0  0  0  0  0  0  0
   -0.4626    2.9831   -2.8141 H   0  0  0  0  0  0  0  0  0  0  0  0
    0.1514    0.9761   -3.3114 C   0  0  0  0  0  0  0  0  0  0  0  0
   -1.2663    0.1182    1.2910 C   0  0  0  0  0  0  0  0  0  0  0  0
   -0.1906    0.1931    1.8833 O   0  0  0  0  0  0  0  0  0  0  0  0
   -2.3930    0.6605    1.7722 N   0  0  0  0  0  0  0  0  0  0  0  0
   -3.2451    0.5077    1.2518 H   0  0  0  0  0  0  0  0  0  0  0  0
   -2.4787    1.3954    3.0311 C   0  0  0  0  0  0  0  0  0  0  0  0
   -1.7166    2.1767    3.0539 H   0  0  0  0  0  0  0  0  0  0  0  0
   -3.4649    1.8498    3.1344 H   0  0  0  0  0  0  0  0  0  0  0  0
   -2.3058    0.7133    3.8652 H   0  0  0  0  0  0  0  0  0  0  0  0
  5  6  2  0  0  0  0
  5  7  1  0  0  0  0
  2  3  1  0  0  0  0
  2  4  1  0  0  0  0
  2  5  1  0  0  0  0
  1  2  1  0  0  0  0
 29 30  2  0  0  0  0
 29 31  1  0  0  0  0
 26 27  1  0  0  0  0
 26 28  2  0  0  0  0
 24 25  1  0  0  0  0
 24 26  1  0  0  0  0
 22 23  1  0  0  0  0
 22 24  2  0  0  0  0
 20 21  1  0  0  0  0
 20 22  1  0  0  0  0
 19 20  2  0  0  0  0
 19 28  1  0  0  0  0
 17 18  1  0  0  0  0
 17 19  1  0  0  0  0
 15 16  1  0  0  0  0
 15 17  1  0  0  0  0
 14 15  2  0  0  0  0
 14 28  1  0  0  0  0
 11 12  1  0  0  0  0
 11 13  1  0  0  0  0
 11 14  1  0  0  0  0
  9 10  1  0  0  0  0
  9 11  1  0  0  0  0
  9 29  1  0  0  0  0
  7  8  1  0  0  0  0
  7  9  1  0  0  0  0
 33 34  1  0  0  0  0
 33 35  1  0  0  0  0
 33 36  1  0  0  0  0
 31 32  1  0  0  0  0
 31 33  1  0  0  0  0
M  END
$$$$
default_name
  -OEChem-02102213163D

 36 37  0     1  0  0  0  0  0999 V2000
   -4.0843   -4.0736    1.2944 H   0  0  0  0  0  0  0  0  0  0  0  0
   -4.0342   -3.2816    0.5484 C   0  0  0  0  0  0  0  0  0  0  0  0
   -4.8842   -2.6126    0.6694 H   0  0  0  0  0  0  0  0  0  0  0  0
   -4.0433   -3.7186   -0.4486 H   0  0  0  0  0  0  0  0  0  0  0  0
   -2.7532   -2.5046    0.7444 C   0  0  0  0  0  0  0  0  0  0  0  0
   -1.9803   -2.8096    1.6434 O   0  0  0  0  0  0  0  0  0  0  0  0
   -2.5332   -1.4966   -0.0966 N   0  0  0  0  0  0  0  0  0  0  0  0
   -3.2312   -1.2816   -0.7936 H   0  0  0  0  0  0  0  0  0  0  0  0
   -1.3593   -0.6196   -0.0536 C   0  0  1  0  0  0  0  0  0  0  0  0
   -0.4622   -1.2317   -0.1545 H   0  0  0  0  0  0  0  0  0  0  0  0
   -1.4074    0.3593   -1.2373 C   0  0  0  0  0  0  0  0  0  0  0  0
   -2.4195    0.3679   -1.6456 H   0  0  0  0  0  0  0  0  0  0  0  0
   -1.1923    1.3631   -0.8668 H   0  0  0  0  0  0  0  0  0  0  0  0
   -0.4588    0.0527   -2.3563 C   0  0  0  0  0  0  0  0  0  0  0  0
   -0.2469   -1.1688   -2.8954 C   0  0  0  0  0  0  0  0  0  0  0  0
   -0.7301   -2.0817   -2.5647 H   0  0  0  0  0  0  0  0  0  0  0  0
    0.6563   -1.0670   -3.9353 N   0  0  0  0  0  0  0  0  0  0  0  0
    0.9674   -1.8565   -4.4822 H   0  0  0  0  0  0  0  0  0  0  0  0
    1.0613    0.2364   -4.1300 C   0  0  0  0  0  0  0  0  0  0  0  0
    1.9230    0.8441   -5.0545 C   0  0  0  0  0  0  0  0  0  0  0  0
    2.4248    0.2524   -5.8059 H   0  0  0  0  0  0  0  0  0  0  0  0
    2.1256    2.2331   -4.9883 C   0  0  0  0  0  0  0  0  0  0  0  0
    2.7875    2.7190   -5.6924 H   0  0  0  0  0  0  0  0  0  0  0  0
    1.4710    2.9907   -3.9999 C   0  0  0  0  0  0  0  0  0  0  0  0
    1.6362    4.0579   -3.9474 H   0  0  0  0  0  0  0  0  0  0  0  0
    0.6086    2.3690   -3.0746 C   0  0  0  0  0  0  0  0  0  0  0  0
    0.1224    2.9608   -2.3120 H   0  0  0  0  0  0  0  0  0  0  0  0
    0.3793    0.9768   -3.1185 C   0  0  0  0  0  0  0  0  0  0  0  0
   -1.2663    0.1182    1.2910 C   0  0  0  0  0  0  0  0  0  0  0  0
   -0.1906    0.1931    1.8833 O   0  0  0  0  0  0  0  0  0  0  0  0
   -2.3930    0.6605    1.7722 N   0  0  0  0  0  0  0  0  0  0  0  0
   -3.2451    0.5077    1.2518 H   0  0  0  0  0  0  0  0  0  0  0  0
   -2.4787    1.3954    3.0311 C   0  0  0  0  0  0  0  0  0  0  0  0
   -1.7166    2.1767    3.0539 H   0  0  0  0  0  0  0  0  0  0  0  0
   -3.4649    1.8498    3.1344 H   0  0  0  0  0  0  0  0  0  0  0  0
   -2.3058    0.7133    3.8652 H   0  0  0  0  0  0  0  0  0  0  0  0
  5  6  2  0  0  0  0
  5  7  1  0  0  0  0
  2  3  1  0  0  0  0
  2  4  1  0  0  0  0
  2  5  1  0  0  0  0
  1  2  1  0  0  0  0
 29 30  2  0  0  0  0
 29 31  1  0  0  0  0
 26 27  1  0  0  0  0
 26 28  2  0  0  0  0
 24 25  1  0  0  0  0
 24 26  1  0  0  0  0
 22 23  1  0  0  0  0
 22 24  2  0  0  0  0
 20 21  1  0  0  0  0
 20 22  1  0  0  0  0
 19 20  2  0  0  0  0
 19 28  1  0  0  0  0
 17 18  1  0  0  0  0
 17 19  1  0  0  0  0
 15 16  1  0  0  0  0
 15 17  1  0  0  0  0
 14 15  2  0  0  0  0
 14 28  1  0  0  0  0
 11 12  1  0  0  0  0
 11 13  1  0  0  0  0
 11 14  1  0  0  0  0
  9 10  1  0  0  0  0
  9 11  1  0  0  0  0
  9 29  1  0  0  0  0
  7  8  1  0  0  0  0
  7  9  1  0  0  0  0
 33 34  1  0  0  0  0
 33 35  1  0  0  0  0
 33 36  1  0  0  0  0
 31 32  1  0  0  0  0
 31 33  1  0  0  0  0
M  END
$$$$
default_name
  -OEChem-02102213163D

 36 37  0     1  0  0  0  0  0999 V2000
   -4.0843   -4.0736    1.2944 H   0  0  0  0  0  0  0  0  0  0  0  0
   -4.0342   -3.2816    0.5484 C   0  0  0  0  0  0  0  0  0  0  0  0
   -4.8842   -2.6126    0.6694 H   0  0  0  0  0  0  0  0  0  0  0  0
   -4.0433   -3.7186   -0.4486 H   0  0  0  0  0  0  0  0  0  0  0  0
   -2.7532   -2.5046    0.7444 C   0  0  0  0  0  0  0  0  0  0  0  0
   -1.9803   -2.8096    1.6434 O   0  0  0  0  0  0  0  0  0  0  0  0
   -2.5332   -1.4966   -0.0966 N   0  0  0  0  0  0  0  0  0  0  0  0
   -3.2312   -1.2816   -0.7936 H   0  0  0  0  0  0  0  0  0  0  0  0
   -1.3593   -0.6196   -0.0536 C   0  0  1  0  0  0  0  0  0  0  0  0
   -0.4622   -1.2317   -0.1545 H   0  0  0  0  0  0  0  0  0  0  0  0
   -1.4074    0.3593   -1.2373 C   0  0  0  0  0  0  0  0  0  0  0  0
   -2.4195    0.3679   -1.6456 H   0  0  0  0  0  0  0  0  0  0  0  0
   -1.1923    1.3631   -0.8668 H   0  0  0  0  0  0  0  0  0  0  0  0
   -0.4588    0.0527   -2.3563 C   0  0  0  0  0  0  0  0  0  0  0  0
   -0.4447   -1.0853   -3.0860 C   0  0  0  0  0  0  0  0  0  0  0  0
   -1.1132   -1.9253   -2.9323 H   0  0  0  0  0  0  0  0  0  0  0  0
    0.5311   -1.0004   -4.0597 N   0  0  0  0  0  0  0  0  0  0  0  0
    0.7245   -1.7389   -4.7203 H   0  0  0  0  0  0  0  0  0  0  0  0
    1.1874    0.2113   -4.0162 C   0  0  0  0  0  0  0  0  0  0  0  0
    2.2101    0.7754   -4.7923 C   0  0  0  0  0  0  0  0  0  0  0  0
    2.6419    0.2230   -5.6139 H   0  0  0  0  0  0  0  0  0  0  0  0
    2.6663    2.0686   -4.4849 C   0  0  0  0  0  0  0  0  0  0  0  0
    3.4551    2.5194   -5.0718 H   0  0  0  0  0  0  0  0  0  0  0  0
    2.0999    2.7740   -3.4074 C   0  0  0  0  0  0  0  0  0  0  0  0
    2.4597    3.7654   -3.1692 H   0  0  0  0  0  0  0  0  0  0  0  0
    1.0739    2.1963   -2.6329 C   0  0  0  0  0  0  0  0  0  0  0  0
    0.6567    2.7439   -1.7997 H   0  0  0  0  0  0  0  0  0  0  0  0
    0.5893    0.9018   -2.9199 C   0  0  0  0  0  0  0  0  0  0  0  0
   -1.2663    0.1182    1.2910 C   0  0  0  0  0  0  0  0  0  0  0  0
   -0.1906    0.1931    1.8833 O   0  0  0  0  0  0  0  0  0  0  0  0
   -2.3930    0.6605    1.7722 N   0  0  0  0  0  0  0  0  0  0  0  0
   -3.2451    0.5077    1.2518 H   0  0  0  0  0  0  0  0  0  0  0  0
   -2.4787    1.3954    3.0311 C   0  0  0  0  0  0  0  0  0  0  0  0
   -1.7166    2.1767    3.0539 H   0  0  0  0  0  0  0  0  0  0  0  0
   -3.4649    1.8498    3.1344 H   0  0  0  0  0  0  0  0  0  0  0  0
   -2.3058    0.7133    3.8652 H   0  0  0  0  0  0  0  0  0  0  0  0
  5  6  2  0  0  0  0
  5  7  1  0  0  0  0
  2  3  1  0  0  0  0
  2  4  1  0  0  0  0
  2  5  1  0  0  0  0
  1  2  1  0  0  0  0
 29 30  2  0  0  0  0
 29 31  1  0  0  0  0
 26 27  1  0  0  0  0
 26 28  2  0  0  0  0
 24 25  1  0  0  0  0
 24 26  1  0  0  0  0
 22 23  1  0  0  0  0
 22 24  2  0  0  0  0
 20 21  1  0  0  0  0
 20 22  1  0  0  0  0
 19 20  2  0  0  0  0
 19 28  1  0  0  0  0
 17 18  1  0  0  0  0
 17 19  1  0  0  0  0
 15 16  1  0  0  0  0
 15 17  1  0  0  0  0
 14 15  2  0  0  0  0
 14 28  1  0  0  0  0
 11 12  1  0  0  0  0
 11 13  1  0  0  0  0
 11 14  1  0  0  0  0
  9 10  1  0  0  0  0
  9 11  1  0  0  0  0
  9 29  1  0  0  0  0
  7  8  1  0  0  0  0
  7  9  1  0  0  0  0
 33 34  1  0  0  0  0
 33 35  1  0  0  0  0
 33 36  1  0  0  0  0
 31 32  1  0  0  0  0
 31 33  1  0  0  0  0
M  END
$$$$
default_name
  -OEChem-02102213163D

 36 37  0     1  0  0  0  0  0999 V2000
   -4.0843   -4.0736    1.2944 H   0  0  0  0  0  0  0  0  0  0  0  0
   -4.0342   -3.2816    0.5484 C   0  0  0  0  0  0  0  0  0  0  0  0
   -4.8842   -2.6126    0.6694 H   0  0  0  0  0  0  0  0  0  0  0  0
   -4.0433   -3.7186   -0.4486 H   0  0  0  0  0  0  0  0  0  0  0  0
   -2.7532   -2.5046    0.7444 C   0  0  0  0  0  0  0  0  0  0  0  0
   -1.9803   -2.8096    1.6434 O   0  0  0  0  0  0  0  0  0  0  0  0
   -2.5332   -1.4966   -0.0966 N   0  0  0  0  0  0  0  0  0  0  0  0
   -3.2312   -1.2816   -0.7936 H   0  0  0  0  0  0  0  0  0  0  0  0
   -1.3593   -0.6196   -0.0536 C   0  0  1  0  0  0  0  0  0  0  0  0
   -0.4622   -1.2317   -0.1545 H   0  0  0  0  0  0  0  0  0  0  0  0
   -1.4074    0.3593   -1.2373 C   0  0  0  0  0  0  0  0  0  0  0  0
   -2.4195    0.3679   -1.6456 H   0  0  0  0  0  0  0  0  0  0  0  0
   -1.1923    1.3631   -0.8668 H   0  0  0  0  0  0  0  0  0  0  0  0
   -0.4588    0.0527   -2.3563 C   0  0  0  0  0  0  0  0  0  0  0  0
   -0.6095   -0.9352   -3.2668 C   0  0  0  0  0  0  0  0  0  0  0  0
   -1.4336   -1.6400   -3.2820 H   0  0  0  0  0  0  0  0  0  0  0  0
    0.4296   -0.8915   -4.1755 N   0  0  0  0  0  0  0  0  0  0  0  0
    0.5253   -1.5393   -4.9439 H   0  0  0  0  0  0  0  0  0  0  0  0
    1.2984    0.1440   -3.9037 C   0  0  0  0  0  0  0  0  0  0  0  0
    2.4603    0.6106   -4.5351 C   0  0  0  0  0  0  0  0  0  0  0  0
    2.8356    0.1212   -5.4218 H   0  0  0  0  0  0  0  0  0  0  0  0
    3.1302    1.7226   -3.9969 C   0  0  0  0  0  0  0  0  0  0  0  0
    4.0285    2.0959   -4.4697 H   0  0  0  0  0  0  0  0  0  0  0  0
    2.6341    2.3461   -2.8373 C   0  0  0  0  0  0  0  0  0  0  0  0
    3.1573    3.1962   -2.4219 H   0  0  0  0  0  0  0  0  0  0  0  0
    1.4665    1.8673   -2.2100 C   0  0  0  0  0  0  0  0  0  0  0  0
    1.1037    2.3473   -1.3122 H   0  0  0  0  0  0  0  0  0  0  0  0
    0.7672    0.7563   -2.7293 C   0  0  0  0  0  0  0  0  0  0  0  0
   -1.2663    0.1182    1.2910 C   0  0  0  0  0  0  0  0  0  0  0  0
   -0.1906    0.1931    1.8833 O   0  0  0  0  0  0  0  0  0  0  0  0
   -2.3930    0.6605    1.7722 N   0  0  0  0  0  0  0  0  0  0  0  0
   -3.2451    0.5077    1.2518 H   0  0  0  0  0  0  0  0  0  0  0  0
   -2.4787    1.3954    3.0311 C   0  0  0  0  0  0  0  0  0  0  0  0
   -1.7166    2.1767    3.0539 H   0  0  0  0  0  0  0  0  0  0  0  0
   -3.4649    1.8498    3.1344 H   0  0  0  0  0  0  0  0  0  0  0  0
   -2.3058    0.7133    3.8652 H   0  0  0  0  0  0  0  0  0  0  0  0
  5  6  2  0  0  0  0
  5  7  1  0  0  0  0
  2  3  1  0  0  0  0
  2  4  1  0  0  0  0
  2  5  1  0  0  0  0
  1  2  1  0  0  0  0
 29 30  2  0  0  0  0
 29 31  1  0  0  0  0
 26 27  1  0  0  0  0
 26 28  2  0  0  0  0
 24 25  1  0  0  0  0
 24 26  1  0  0  0  0
 22 23  1  0  0  0  0
 22 24  2  0  0  0  0
 20 21  1  0  0  0  0
 20 22  1  0  0  0  0
 19 20  2  0  0  0  0
 19 28  1  0  0  0  0
 17 18  1  0  0  0  0
 17 19  1  0  0  0  0
 15 16  1  0  0  0  0
 15 17  1  0  0  0  0
 14 15  2  0  0  0  0
 14 28  1  0  0  0  0
 11 12  1  0  0  0  0
 11 13  1  0  0  0  0
 11 14  1  0  0  0  0
  9 10  1  0  0  0  0
  9 11  1  0  0  0  0
  9 29  1  0  0  0  0
  7  8  1  0  0  0  0
  7  9  1  0  0  0  0
 33 34  1  0  0  0  0
 33 35  1  0  0  0  0
 33 36  1  0  0  0  0
 31 32  1  0  0  0  0
 31 33  1  0  0  0  0
M  END
$$$$
default_name
  -OEChem-02102213163D

 36 37  0     1  0  0  0  0  0999 V2000
   -4.0843   -4.0736    1.2944 H   0  0  0  0  0  0  0  0  0  0  0  0
   -4.0342   -3.2816    0.5484 C   0  0  0  0  0  0  0  0  0  0  0  0
   -4.8842   -2.6126    0.6694 H   0  0  0  0  0  0  0  0  0  0  0  0
   -4.0433   -3.7186   -0.4486 H   0  0  0  0  0  0  0  0  0  0  0  0
   -2.7532   -2.5046    0.7444 C   0  0  0  0  0  0  0  0  0  0  0  0
   -1.9803   -2.8096    1.6434 O   0  0  0  0  0  0  0  0  0  0  0  0
   -2.5332   -1.4966   -0.0966 N   0  0  0  0  0  0  0  0  0  0  0  0
   -3.2312   -1.2816   -0.7936 H   0  0  0  0  0  0  0  0  0  0  0  0
   -1.3593   -0.6196   -0.0536 C   0  0  1  0  0  0  0  0  0  0  0  0
   -0.4622   -1.2317   -0.1545 H   0  0  0  0  0  0  0  0  0  0  0  0
   -1.4074    0.3593   -1.2373 C   0  0  0  0  0  0  0  0  0  0  0  0
   -2.4195    0.3679   -1.6456 H   0  0  0  0  0  0  0  0  0  0  0  0
   -1.1923    1.3631   -0.8668 H   0  0  0  0  0  0  0  0  0  0  0  0
   -0.4588    0.0527   -2.3563 C   0  0  0  0  0  0  0  0  0  0  0  0
   -0.7301   -0.7288   -3.4256 C   0  0  0  0  0  0  0  0  0  0  0  0
   -1.6694   -1.2453   -3.5901 H   0  0  0  0  0  0  0  0  0  0  0  0
    0.3588   -0.7477   -4.2749 N   0  0  0  0  0  0  0  0  0  0  0  0
    0.3832   -1.2715   -5.1377 H   0  0  0  0  0  0  0  0  0  0  0  0
    1.3866    0.0391   -3.8002 C   0  0  0  0  0  0  0  0  0  0  0  0
    2.6565    0.3610   -4.3004 C   0  0  0  0  0  0  0  0  0  0  0  0
    2.9930   -0.0460   -5.2426 H   0  0  0  0  0  0  0  0  0  0  0  0
    3.4855    1.2189   -3.5576 C   0  0  0  0  0  0  0  0  0  0  0  0
    4.4686    1.4775   -3.9272 H   0  0  0  0  0  0  0  0  0  0  0  0
    3.0372    1.7362   -2.3285 C   0  0  0  0  0  0  0  0  0  0  0  0
    3.6816    2.3892   -1.7563 H   0  0  0  0  0  0  0  0  0  0  0  0
    1.7597    1.4043   -1.8345 C   0  0  0  0  0  0  0  0  0  0  0  0
    1.4329    1.7979   -0.8825 H   0  0  0  0  0  0  0  0  0  0  0  0
    0.9007    0.5502   -2.5596 C   0  0  0  0  0  0  0  0  0  0  0  0
   -1.2663    0.1182    1.2910 C   0  0  0  0  0  0  0  0  0  0  0  0
   -0.1906    0.1931    1.8833 O   0  0  0  0  0  0  0  0  0  0  0  0
   -2.3930    0.6605    1.7722 N   0  0  0  0  0  0  0  0  0  0  0  0
   -3.2451    0.5077    1.2518 H   0  0  0  0  0  0  0  0  0  0  0  0
   -2.4787    1.3954    3.0311 C   0  0  0  0  0  0  0  0  0  0  0  0
   -1.7166    2.1767    3.0539 H   0  0  0  0  0  0  0  0  0  0  0  0
   -3.4649    1.8498    3.1344 H   0  0  0  0  0  0  0  0  0  0  0  0
   -2.3058    0.7133    3.8652 H   0  0  0  0  0  0  0  0  0  0  0  0
  5  6  2  0  0  0  0
  5  7  1  0  0  0  0
  2  3  1  0  0  0  0
  2  4  1  0  0  0  0
  2  5  1  0  0  0  0
  1  2  1  0  0  0  0
 29 30  2  0  0  0  0
 29 31  1  0  0  0  0
 26 27  1  0  0  0  0
 26 28  2  0  0  0  0
 24 25  1  0  0  0  0
 24 26  1  0  0  0  0
 22 23  1  0  0  0  0
 22 24  2  0  0  0  0
 20 21  1  0  0  0  0
 20 22  1  0  0  0  0
 19 20  2  0  0  0  0
 19 28  1  0  0  0  0
 17 18  1  0  0  0  0
 17 19  1  0  0  0  0
 15 16  1  0  0  0  0
 15 17  1  0  0  0  0
 14 15  2  0  0  0  0
 14 28  1  0  0  0  0
 11 12  1  0  0  0  0
 11 13  1  0  0  0  0
 11 14  1  0  0  0  0
  9 10  1  0  0  0  0
  9 11  1  0  0  0  0
  9 29  1  0  0  0  0
  7  8  1  0  0  0  0
  7  9  1  0  0  0  0
 33 34  1  0  0  0  0
 33 35  1  0  0  0  0
 33 36  1  0  0  0  0
 31 32  1  0  0  0  0
 31 33  1  0  0  0  0
M  END
$$$$
default_name
  -OEChem-02102213163D

 36 37  0     1  0  0  0  0  0999 V2000
   -4.0843   -4.0736    1.2944 H   0  0  0  0  0  0  0  0  0  0  0  0
   -4.0342   -3.2816    0.5484 C   0  0  0  0  0  0  0  0  0  0  0  0
   -4.8842   -2.6126    0.6694 H   0  0  0  0  0  0  0  0  0  0  0  0
   -4.0433   -3.7186   -0.4486 H   0  0  0  0  0  0  0  0  0  0  0  0
   -2.7532   -2.5046    0.7444 C   0  0  0  0  0  0  0  0  0  0  0  0
   -1.9803   -2.8096    1.6434 O   0  0  0  0  0  0  0  0  0  0  0  0
   -2.5332   -1.4966   -0.0966 N   0  0  0  0  0  0  0  0  0  0  0  0
   -3.2312   -1.2816   -0.7936 H   0  0  0  0  0  0  0  0  0  0  0  0
   -1.3593   -0.6196   -0.0536 C   0  0  1  0  0  0  0  0  0  0  0  0
   -0.4622   -1.2317   -0.1545 H   0  0  0  0  0  0  0  0  0  0  0  0
   -1.4074    0.3593   -1.2373 C   0  0  0  0  0  0  0  0  0  0  0  0
   -2.4195    0.3679   -1.6456 H   0  0  0  0  0  0  0  0  0  0  0  0
   -1.1923    1.3631   -0.8668 H   0  0  0  0  0  0  0  0  0  0  0  0
   -0.4588    0.0527   -2.3563 C   0  0  0  0  0  0  0  0  0  0  0  0
   -0.7983   -0.4800   -3.5516 C   0  0  0  0  0  0  0  0  0  0  0  0
   -1.8046   -0.7679   -3.8355 H   0  0  0  0  0  0  0  0  0  0  0  0
    0.3234   -0.5789   -4.3512 N   0  0  0  0  0  0  0  0  0  0  0  0
    0.3081   -0.9535   -5.2885 H   0  0  0  0  0  0  0  0  0  0  0  0
    1.4460   -0.0962   -3.7127 C   0  0  0  0  0  0  0  0  0  0  0  0
    2.7853    0.0435   -4.1042 C   0  0  0  0  0  0  0  0  0  0  0  0
    3.1032   -0.2673   -5.0885 H   0  0  0  0  0  0  0  0  0  0  0  0
    3.7081    0.5917   -3.1971 C   0  0  0  0  0  0  0  0  0  0  0  0
    4.7455    0.7061   -3.4811 H   0  0  0  0  0  0  0  0  0  0  0  0
    3.2818    0.9857   -1.9155 C   0  0  0  0  0  0  0  0  0  0  0  0
    3.9968    1.3993   -1.2179 H   0  0  0  0  0  0  0  0  0  0  0  0
    1.9336    0.8388   -1.5322 C   0  0  0  0  0  0  0  0  0  0  0  0
    1.6221    1.1332   -0.5400 H   0  0  0  0  0  0  0  0  0  0  0  0
    0.9810    0.2974   -2.4223 C   0  0  0  0  0  0  0  0  0  0  0  0
   -1.2663    0.1182    1.2910 C   0  0  0  0  0  0  0  0  0  0  0  0
   -0.1906    0.1931    1.8833 O   0  0  0  0  0  0  0  0  0  0  0  0
   -2.3930    0.6605    1.7722 N   0  0  0  0  0  0  0  0  0  0  0  0
   -3.2451    0.5077    1.2518 H   0  0  0  0  0  0  0  0  0  0  0  0
   -2.4787    1.3954    3.0311 C   0  0  0  0  0  0  0  0  0  0  0  0
   -1.7166    2.1767    3.0539 H   0  0  0  0  0  0  0  0  0  0  0  0
   -3.4649    1.8498    3.1344 H   0  0  0  0  0  0  0  0  0  0  0  0
   -2.3058    0.7133    3.8652 H   0  0  0  0  0  0  0  0  0  0  0  0
  5  6  2  0  0  0  0
  5  7  1  0  0  0  0
  2  3  1  0  0  0  0
  2  4  1  0  0  0  0
  2  5  1  0  0  0  0
  1  2  1  0  0  0  0
 29 30  2  0  0  0  0
 29 31  1  0  0  0  0
 26 27  1  0  0  0  0
 26 28  2  0  0  0  0
 24 25  1  0  0  0  0
 24 26  1  0  0  0  0
 22 23  1  0  0  0  0
 22 24  2  0  0  0  0
 20 21  1  0  0  0  0
 20 22  1  0  0  0  0
 19 20  2  0  0  0  0
 19 28  1  0  0  0  0
 17 18  1  0  0  0  0
 17 19  1  0  0  0  0
 15 16  1  0  0  0  0
 15 17  1  0  0  0  0
 14 15  2  0  0  0  0
 14 28  1  0  0  0  0
 11 12  1  0  0  0  0
 11 13  1  0  0  0  0
 11 14  1  0  0  0  0
  9 10  1  0  0  0  0
  9 11  1  0  0  0  0
  9 29  1  0  0  0  0
  7  8  1  0  0  0  0
  7  9  1  0  0  0  0
 33 34  1  0  0  0  0
 33 35  1  0  0  0  0
 33 36  1  0  0  0  0
 31 32  1  0  0  0  0
 31 33  1  0  0  0  0
M  END
$$$$
default_name
  -OEChem-02102213163D

 36 37  0     1  0  0  0  0  0999 V2000
   -4.0843   -4.0736    1.2944 H   0  0  0  0  0  0  0  0  0  0  0  0
   -4.0342   -3.2816    0.5484 C   0  0  0  0  0  0  0  0  0  0  0  0
   -4.8842   -2.6126    0.6694 H   0  0  0  0  0  0  0  0  0  0  0  0
   -4.0433   -3.7186   -0.4486 H   0  0  0  0  0  0  0  0  0  0  0  0
   -2.7532   -2.5046    0.7444 C   0  0  0  0  0  0  0  0  0  0  0  0
   -1.9803   -2.8096    1.6434 O   0  0  0  0  0  0  0  0  0  0  0  0
   -2.5332   -1.4966   -0.0966 N   0  0  0  0  0  0  0  0  0  0  0  0
   -3.2312   -1.2816   -0.7936 H   0  0  0  0  0  0  0  0  0  0  0  0
   -1.3593   -0.6196   -0.0536 C   0  0  1  0  0  0  0  0  0  0  0  0
   -0.4622   -1.2317   -0.1545 H   0  0  0  0  0  0  0  0  0  0  0  0
   -1.4074    0.3593   -1.2373 C   0  0  0  0  0  0  0  0  0  0  0  0
   -2.4195    0.3679   -1.6456 H   0  0  0  0  0  0  0  0  0  0  0  0
   -1.1923    1.3631   -0.8668 H   0  0  0  0  0  0  0  0  0  0  0  0
   -0.4588    0.0527   -2.3563 C   0  0  0  0  0  0  0  0  0  0  0  0
   -0.8094   -0.2059   -3.6361 C   0  0  0  0  0  0  0  0  0  0  0  0
   -1.8299   -0.2405   -4.0015 H   0  0  0  0  0  0  0  0  0  0  0  0
    0.3259   -0.3965   -4.3990 N   0  0  0  0  0  0  0  0  0  0  0  0
    0.3049   -0.6072   -5.3861 H   0  0  0  0  0  0  0  0  0  0  0  0
    1.4727   -0.2527   -3.6473 C   0  0  0  0  0  0  0  0  0  0  0  0
    2.8380   -0.3203   -3.9598 C   0  0  0  0  0  0  0  0  0  0  0  0
    3.1587   -0.5276   -4.9702 H   0  0  0  0  0  0  0  0  0  0  0  0
    3.7829   -0.1162   -2.9398 C   0  0  0  0  0  0  0  0  0  0  0  0
    4.8403   -0.1656   -3.1619 H   0  0  0  0  0  0  0  0  0  0  0  0
    3.3512    0.1460   -1.6267 C   0  0  0  0  0  0  0  0  0  0  0  0
    4.0815    0.2941   -0.8433 H   0  0  0  0  0  0  0  0  0  0  0  0
    1.9763    0.2096   -1.3236 C   0  0  0  0  0  0  0  0  0  0  0  0
    1.6582    0.3985   -0.3081 H   0  0  0  0  0  0  0  0  0  0  0  0
    1.0023    0.0153   -2.3269 C   0  0  0  0  0  0  0  0  0  0  0  0
   -1.2663    0.1182    1.2910 C   0  0  0  0  0  0  0  0  0  0  0  0
   -0.1906    0.1931    1.8833 O   0  0  0  0  0  0  0  0  0  0  0  0
   -2.3930    0.6605    1.7722 N   0  0  0  0  0  0  0  0  0  0  0  0
   -3.2451    0.5077    1.2518 H   0  0  0  0  0  0  0  0  0  0  0  0
   -2.4787    1.3954    3.0311 C   0  0  0  0  0  0  0  0  0  0  0  0
   -1.7166    2.1767    3.0539 H   0  0  0  0  0  0  0  0  0  0  0  0
   -3.4649    1.8498    3.1344 H   0  0  0  0  0  0  0  0  0  0  0  0
   -2.3058    0.7133    3.8652 H   0  0  0  0  0  0  0  0  0  0  0  0
  5  6  2  0  0  0  0
  5  7  1  0  0  0  0
  2  3  1  0  0  0  0
  2  4  1  0  0  0  0
  2  5  1  0  0  0  0
  1  2  1  0  0  0  0
 29 30  2  0  0  0  0
 29 31  1  0  0  0  0
 26 27  1  0  0  0  0
 26 28  2  0  0  0  0
 24 25  1  0  0  0  0
 24 26  1  0  0  0  0
 22 23  1  0  0  0  0
 22 24  2  0  0  0  0
 20 21  1  0  0  0  0
 20 22  1  0  0  0  0
 19 20  2  0  0  0  0
 19 28  1  0  0  0  0
 17 18  1  0  0  0  0
 17 19  1  0  0  0  0
 15 16  1  0  0  0  0
 15 17  1  0  0  0  0
 14 15  2  0  0  0  0
 14 28  1  0  0  0  0
 11 12  1  0  0  0  0
 11 13  1  0  0  0  0
 11 14  1  0  0  0  0
  9 10  1  0  0  0  0
  9 11  1  0  0  0  0
  9 29  1  0  0  0  0
  7  8  1  0  0  0  0
  7  9  1  0  0  0  0
 33 34  1  0  0  0  0
 33 35  1  0  0  0  0
 33 36  1  0  0  0  0
 31 32  1  0  0  0  0
 31 33  1  0  0  0  0
M  END
$$$$
default_name
  -OEChem-02102213163D

 36 37  0     1  0  0  0  0  0999 V2000
   -4.0843   -4.0736    1.2944 H   0  0  0  0  0  0  0  0  0  0  0  0
   -4.0342   -3.2816    0.5484 C   0  0  0  0  0  0  0  0  0  0  0  0
   -4.8842   -2.6126    0.6694 H   0  0  0  0  0  0  0  0  0  0  0  0
   -4.0433   -3.7186   -0.4486 H   0  0  0  0  0  0  0  0  0  0  0  0
   -2.7532   -2.5046    0.7444 C   0  0  0  0  0  0  0  0  0  0  0  0
   -1.9803   -2.8096    1.6434 O   0  0  0  0  0  0  0  0  0  0  0  0
   -2.5332   -1.4966   -0.0966 N   0  0  0  0  0  0  0  0  0  0  0  0
   -3.2312   -1.2816   -0.7936 H   0  0  0  0  0  0  0  0  0  0  0  0
   -1.3593   -0.6196   -0.0536 C   0  0  1  0  0  0  0  0  0  0  0  0
   -0.4622   -1.2317   -0.1545 H   0  0  0  0  0  0  0  0  0  0  0  0
   -1.4074    0.3593   -1.2373 C   0  0  0  0  0  0  0  0  0  0  0  0
   -2.4195    0.3679   -1.6456 H   0  0  0  0  0  0  0  0  0  0  0  0
   -1.1923    1.3631   -0.8668 H   0  0  0  0  0  0  0  0  0  0  0  0
   -0.4588    0.0527   -2.3563 C   0  0  0  0  0  0  0  0  0  0  0  0
   -0.7627    0.0748   -3.6734 C   0  0  0  0  0  0  0  0  0  0  0  0
   -1.7437    0.3011   -4.0768 H   0  0  0  0  0  0  0  0  0  0  0  0
    0.3661   -0.2130   -4.4153 N   0  0  0  0  0  0  0  0  0  0  0  0
    0.3739   -0.2560   -5.4238 H   0  0  0  0  0  0  0  0  0  0  0  0
    1.4647   -0.4198   -3.6083 C   0  0  0  0  0  0  0  0  0  0  0  0
    2.8110   -0.7054   -3.8772 C   0  0  0  0  0  0  0  0  0  0  0  0
    3.1557   -0.8091   -4.8956 H   0  0  0  0  0  0  0  0  0  0  0  0
    3.7046   -0.8566   -2.8032 C   0  0  0  0  0  0  0  0  0  0  0  0
    4.7465   -1.0781   -2.9914 H   0  0  0  0  0  0  0  0  0  0  0  0
    3.2406   -0.7259   -1.4815 C   0  0  0  0  0  0  0  0  0  0  0  0
    3.9299   -0.8513   -0.6580 H   0  0  0  0  0  0  0  0  0  0  0  0
    1.8848   -0.4407   -1.2229 C   0  0  0  0  0  0  0  0  0  0  0  0
    1.5388   -0.3561   -0.2025 H   0  0  0  0  0  0  0  0  0  0  0  0
    0.9634   -0.2769   -2.2798 C   0  0  0  0  0  0  0  0  0  0  0  0
   -1.2663    0.1182    1.2910 C   0  0  0  0  0  0  0  0  0  0  0  0
   -0.1906    0.1931    1.8833 O   0  0  0  0  0  0  0  0  0  0  0  0
   -2.3930    0.6605    1.7722 N   0  0  0  0  0  0  0  0  0  0  0  0
   -3.2451    0.5077    1.2518 H   0  0  0  0  0  0  0  0  0  0  0  0
   -2.4787    1.3954    3.0311 C   0  0  0  0  0  0  0  0  0  0  0  0
   -1.7166    2.1767    3.0539 H   0  0  0  0  0  0  0  0  0  0  0  0
   -3.4649    1.8498    3.1344 H   0  0  0  0  0  0  0  0  0  0  0  0
   -2.3058    0.7133    3.8652 H   0  0  0  0  0  0  0  0  0  0  0  0
  5  6  2  0  0  0  0
  5  7  1  0  0  0  0
  2  3  1  0  0  0  0
  2  4  1  0  0  0  0
  2  5  1  0  0  0  0
  1  2  1  0  0  0  0
 29 30  2  0  0  0  0
 29 31  1  0  0  0  0
 26 27  1  0  0  0  0
 26 28  2  0  0  0  0
 24 25  1  0  0  0  0
 24 26  1  0  0  0  0
 22 23  1  0  0  0  0
 22 24  2  0  0  0  0
 20 21  1  0  0  0  0
 20 22  1  0  0  0  0
 19 20  2  0  0  0  0
 19 28  1  0  0  0  0
 17 18  1  0  0  0  0
 17 19  1  0  0  0  0
 15 16  1  0  0  0  0
 15 17  1  0  0  0  0
 14 15  2  0  0  0  0
 14 28  1  0  0  0  0
 11 12  1  0  0  0  0
 11 13  1  0  0  0  0
 11 14  1  0  0  0  0
  9 10  1  0  0  0  0
  9 11  1  0  0  0  0
  9 29  1  0  0  0  0
  7  8  1  0  0  0  0
  7  9  1  0  0  0  0
 33 34  1  0  0  0  0
 33 35  1  0  0  0  0
 33 36  1  0  0  0  0
 31 32  1  0  0  0  0
 31 33  1  0  0  0  0
M  END
$$$$
default_name
  -OEChem-02102213163D

 36 37  0     1  0  0  0  0  0999 V2000
   -4.0843   -4.0736    1.2944 H   0  0  0  0  0  0  0  0  0  0  0  0
   -4.0342   -3.2816    0.5484 C   0  0  0  0  0  0  0  0  0  0  0  0
   -4.8842   -2.6126    0.6694 H   0  0  0  0  0  0  0  0  0  0  0  0
   -4.0433   -3.7186   -0.4486 H   0  0  0  0  0  0  0  0  0  0  0  0
   -2.7532   -2.5046    0.7444 C   0  0  0  0  0  0  0  0  0  0  0  0
   -1.9803   -2.8096    1.6434 O   0  0  0  0  0  0  0  0  0  0  0  0
   -2.5332   -1.4966   -0.0966 N   0  0  0  0  0  0  0  0  0  0  0  0
   -3.2312   -1.2816   -0.7936 H   0  0  0  0  0  0  0  0  0  0  0  0
   -1.3593   -0.6196   -0.0536 C   0  0  1  0  0  0  0  0  0  0  0  0
   -0.4622   -1.2317   -0.1545 H   0  0  0  0  0  0  0  0  0  0  0  0
   -1.4074    0.3593   -1.2373 C   0  0  0  0  0  0  0  0  0  0  0  0
   -2.4195    0.3679   -1.6456 H   0  0  0  0  0  0  0  0  0  0  0  0
   -1.1923    1.3631   -0.8668 H   0  0  0  0  0  0  0  0  0  0  0  0
   -0.4588    0.0527   -2.3563 C   0  0  0  0  0  0  0  0  0  0  0  0
   -0.6614    0.3431   -3.6611 C   0  0  0  0  0  0  0  0  0  0  0  0
   -1.5517    0.8198   -4.0562 H   0  0  0  0  0  0  0  0  0  0  0  0
    0.4413   -0.0408   -4.3987 N   0  0  0  0  0  0  0  0  0  0  0  0
    0.5104    0.0760   -5.3991 H   0  0  0  0  0  0  0  0  0  0  0  0
    1.4226   -0.5860   -3.5984 C   0  0  0  0  0  0  0  0  0  0  0  0
    2.7060   -1.0858   -3.8619 C   0  0  0  0  0  0  0  0  0  0  0  0
    3.0945   -1.0927   -4.8698 H   0  0  0  0  0  0  0  0  0  0  0  0
    3.4787   -1.5790   -2.7968 C   0  0  0  0  0  0  0  0  0  0  0  0
    4.4705   -1.9694   -2.9812 H   0  0  0  0  0  0  0  0  0  0  0  0
    2.9576   -1.5705   -1.4900 C   0  0  0  0  0  0  0  0  0  0  0  0
    3.5523   -1.9586   -0.6747 H   0  0  0  0  0  0  0  0  0  0  0  0
    1.6655   -1.0676   -1.2370 C   0  0  0  0  0  0  0  0  0  0  0  0
    1.2721   -1.0792   -0.2305 H   0  0  0  0  0  0  0  0  0  0  0  0
    0.8668   -0.5594   -2.2843 C   0  0  0  0  0  0  0  0  0  0  0  0
   -1.2663    0.1182    1.2910 C   0  0  0  0  0  0  0  0  0  0  0  0
   -0.1906    0.1931    1.8833 O   0  0  0  0  0  0  0  0  0  0  0  0
   -2.3930    0.6605    1.7722 N   0  0  0  0  0  0  0  0  0  0  0  0
   -3.2451    0.5077    1.2518 H   0  0  0  0  0  0  0  0  0  0  0  0
   -2.4787    1.3954    3.0311 C   0  0  0  0  0  0  0  0  0  0  0  0
   -1.7166    2.1767    3.0539 H   0  0  0  0  0  0  0  0  0  0  0  0
   -3.4649    1.8498    3.1344 H   0  0  0  0  0  0  0  0  0  0  0  0
   -2.3058    0.7133    3.8652 H   0  0  0  0  0  0  0  0  0  0  0  0
  5  6  2  0  0  0  0
  5  7  1  0  0  0  0
  2  3  1  0  0  0  0
  2  4  1  0  0  0  0
  2  5  1  0  0  0  0
  1  2  1  0  0  0  0
 29 30  2  0  0  0  0
 29 31  1  0  0  0  0
 26 27  1  0  0  0  0
 26 28  2  0  0  0  0
 24 25  1  0  0  0  0
 24 26  1  0  0  0  0
 22 23  1  0  0  0  0
 22 24  2  0  0  0  0
 20 21  1  0  0  0  0
 20 22  1  0  0  0  0
 19 20  2  0  0  0  0
 19 28  1  0  0  0  0
 17 18  1  0  0  0  0
 17 19  1  0  0  0  0
 15 16  1  0  0  0  0
 15 17  1  0  0  0  0
 14 15  2  0  0  0  0
 14 28  1  0  0  0  0
 11 12  1  0  0  0  0
 11 13  1  0  0  0  0
 11 14  1  0  0  0  0
  9 10  1  0  0  0  0
  9 11  1  0  0  0  0
  9 29  1  0  0  0  0
  7  8  1  0  0  0  0
  7  9  1  0  0  0  0
 33 34  1  0  0  0  0
 33 35  1  0  0  0  0
 33 36  1  0  0  0  0
 31 32  1  0  0  0  0
 31 33  1  0  0  0  0
M  END
$$$$
default_name
  -OEChem-02102213163D

 36 37  0     1  0  0  0  0  0999 V2000
   -4.0843   -4.0736    1.2944 H   0  0  0  0  0  0  0  0  0  0  0  0
   -4.0342   -3.2816    0.5484 C   0  0  0  0  0  0  0  0  0  0  0  0
   -4.8842   -2.6126    0.6694 H   0  0  0  0  0  0  0  0  0  0  0  0
   -4.0433   -3.7186   -0.4486 H   0  0  0  0  0  0  0  0  0  0  0  0
   -2.7532   -2.5046    0.7444 C   0  0  0  0  0  0  0  0  0  0  0  0
   -1.9803   -2.8096    1.6434 O   0  0  0  0  0  0  0  0  0  0  0  0
   -2.5332   -1.4966   -0.0966 N   0  0  0  0  0  0  0  0  0  0  0  0
   -3.2312   -1.2816   -0.7936 H   0  0  0  0  0  0  0  0  0  0  0  0
   -1.3593   -0.6196   -0.0536 C   0  0  1  0  0  0  0  0  0  0  0  0
   -0.4622   -1.2317   -0.1545 H   0  0  0  0  0  0  0  0  0  0  0  0
   -1.4074    0.3593   -1.2373 C   0  0  0  0  0  0  0  0  0  0  0  0
   -2.4195    0.3679   -1.6456 H   0  0  0  0  0  0  0  0  0  0  0  0
   -1.1923    1.3631   -0.8668 H   0  0  0  0  0  0  0  0  0  0  0  0
   -0.4588    0.0527   -2.3563 C   0  0  0  0  0  0  0  0  0  0  0  0
   -0.5123    0.5806   -3.5998 C   0  0  0  0  0  0  0  0  0  0  0  0
   -1.2672    1.2804   -3.9412 H   0  0  0  0  0  0  0  0  0  0  0  0
    0.5463    0.1083   -4.3506 N   0  0  0  0  0  0  0  0  0  0  0  0
    0.7051    0.3663   -5.3136 H   0  0  0  0  0  0  0  0  0  0  0  0
    1.3493   -0.7400   -3.6183 C   0  0  0  0  0  0  0  0  0  0  0  0
    2.5304   -1.4354   -3.9150 C   0  0  0  0  0  0  0  0  0  0  0  0
    2.9792   -1.3590   -4.8945 H   0  0  0  0  0  0  0  0  0  0  0  0
    3.1206   -2.2342   -2.9208 C   0  0  0  0  0  0  0  0  0  0  0  0
    4.0311   -2.7786   -3.1319 H   0  0  0  0  0  0  0  0  0  0  0  0
    2.5214   -2.3302   -1.6515 C   0  0  0  0  0  0  0  0  0  0  0  0
    2.9744   -2.9526   -0.8922 H   0  0  0  0  0  0  0  0  0  0  0  0
    1.3333   -1.6285   -1.3650 C   0  0  0  0  0  0  0  0  0  0  0  0
    0.8762   -1.7216   -0.3901 H   0  0  0  0  0  0  0  0  0  0  0  0
    0.7191   -0.8129   -2.3400 C   0  0  0  0  0  0  0  0  0  0  0  0
   -1.2663    0.1182    1.2910 C   0  0  0  0  0  0  0  0  0  0  0  0
   -0.1906    0.1931    1.8833 O   0  0  0  0  0  0  0  0  0  0  0  0
   -2.3930    0.6605    1.7722 N   0  0  0  0  0  0  0  0  0  0  0  0
   -3.2451    0.5077    1.2518 H   0  0  0  0  0  0  0  0  0  0  0  0
   -2.4787    1.3954    3.0311 C   0  0  0  0  0  0  0  0  0  0  0  0
   -1.7166    2.1767    3.0539 H   0  0  0  0  0  0  0  0  0  0  0  0
   -3.4649    1.8498    3.1344 H   0  0  0  0  0  0  0  0  0  0  0  0
   -2.3058    0.7133    3.8652 H   0  0  0  0  0  0  0  0  0  0  0  0
  5  6  2  0  0  0  0
  5  7  1  0  0  0  0
  2  3  1  0  0  0  0
  2  4  1  0  0  0  0
  2  5  1  0  0  0  0
  1  2  1  0  0  0  0
 29 30  2  0  0  0  0
 29 31  1  0  0  0  0
 26 27  1  0  0  0  0
 26 28  2  0  0  0  0
 24 25  1  0  0  0  0
 24 26  1  0  0  0  0
 22 23  1  0  0  0  0
 22 24  2  0  0  0  0
 20 21  1  0  0  0  0
 20 22  1  0  0  0  0
 19 20  2  0  0  0  0
 19 28  1  0  0  0  0
 17 18  1  0  0  0  0
 17 19  1  0  0  0  0
 15 16  1  0  0  0  0
 15 17  1  0  0  0  0
 14 15  2  0  0  0  0
 14 28  1  0  0  0  0
 11 12  1  0  0  0  0
 11 13  1  0  0  0  0
 11 14  1  0  0  0  0
  9 10  1  0  0  0  0
  9 11  1  0  0  0  0
  9 29  1  0  0  0  0
  7  8  1  0  0  0  0
  7  9  1  0  0  0  0
 33 34  1  0  0  0  0
 33 35  1  0  0  0  0
 33 36  1  0  0  0  0
 31 32  1  0  0  0  0
 31 33  1  0  0  0  0
M  END
$$$$
default_name
  -OEChem-02102213163D

 36 37  0     1  0  0  0  0  0999 V2000
   -4.0843   -4.0736    1.2944 H   0  0  0  0  0  0  0  0  0  0  0  0
   -4.0342   -3.2816    0.5484 C   0  0  0  0  0  0  0  0  0  0  0  0
   -4.8842   -2.6126    0.6694 H   0  0  0  0  0  0  0  0  0  0  0  0
   -4.0433   -3.7186   -0.4486 H   0  0  0  0  0  0  0  0  0  0  0  0
   -2.7532   -2.5046    0.7444 C   0  0  0  0  0  0  0  0  0  0  0  0
   -1.9803   -2.8096    1.6434 O   0  0  0  0  0  0  0  0  0  0  0  0
   -2.5332   -1.4966   -0.0966 N   0  0  0  0  0  0  0  0  0  0  0  0
   -3.2312   -1.2816   -0.7936 H   0  0  0  0  0  0  0  0  0  0  0  0
   -1.3593   -0.6196   -0.0536 C   0  0  1  0  0  0  0  0  0  0  0  0
   -0.4622   -1.2317   -0.1545 H   0  0  0  0  0  0  0  0  0  0  0  0
   -1.4074    0.3593   -1.2373 C   0  0  0  0  0  0  0  0  0  0  0  0
   -2.4510    0.5737   -1.4741 H   0  0  0  0  0  0  0  0  0  0  0  0
   -0.9388    1.2965   -0.9321 H   0  0  0  0  0  0  0  0  0  0  0  0
   -0.7374   -0.1212   -2.4888 C   0  0  0  0  0  0  0  0  0  0  0  0
   -0.6546    0.5659   -3.6502 C   0  0  0  0  0  0  0  0  0  0  0  0
   -1.0842    1.5473   -3.8187 H   0  0  0  0  0  0  0  0  0  0  0  0
    0.0731   -0.1633   -4.5701 N   0  0  0  0  0  0  0  0  0  0  0  0
    0.2594    0.1537   -5.5103 H   0  0  0  0  0  0  0  0  0  0  0  0
    0.5124   -1.3571   -4.0383 C   0  0  0  0  0  0  0  0  0  0  0  0
    1.2915   -2.4048   -4.5498 C   0  0  0  0  0  0  0  0  0  0  0  0
    1.6684   -2.3634   -5.5612 H   0  0  0  0  0  0  0  0  0  0  0  0
    1.5734   -3.5099   -3.7287 C   0  0  0  0  0  0  0  0  0  0  0  0
    2.1719   -4.3278   -4.1065 H   0  0  0  0  0  0  0  0  0  0  0  0
    1.0701   -3.5540   -2.4156 C   0  0  0  0  0  0  0  0  0  0  0  0
    1.2825   -4.4100   -1.7901 H   0  0  0  0  0  0  0  0  0  0  0  0
    0.2864   -2.4961   -1.9127 C   0  0  0  0  0  0  0  0  0  0  0  0
   -0.1051   -2.5488   -0.9067 H   0  0  0  0  0  0  0  0  0  0  0  0
   -0.0093   -1.3694   -2.7101 C   0  0  0  0  0  0  0  0  0  0  0  0
   -1.2663    0.1182    1.2910 C   0  0  0  0  0  0  0  0  0  0  0  0
   -0.1906    0.1931    1.8833 O   0  0  0  0  0  0  0  0  0  0  0  0
   -2.3930    0.6605    1.7722 N   0  0  0  0  0  0  0  0  0  0  0  0
   -3.2451    0.5077    1.2518 H   0  0  0  0  0  0  0  0  0  0  0  0
   -2.4787    1.3954    3.0311 C   0  0  0  0  0  0  0  0  0  0  0  0
   -1.7166    2.1767    3.0539 H   0  0  0  0  0  0  0  0  0  0  0  0
   -3.4649    1.8498    3.1344 H   0  0  0  0  0  0  0  0  0  0  0  0
   -2.3058    0.7133    3.8652 H   0  0  0  0  0  0  0  0  0  0  0  0
  5  6  2  0  0  0  0
  5  7  1  0  0  0  0
  2  3  1  0  0  0  0
  2  4  1  0  0  0  0
  2  5  1  0  0  0  0
  1  2  1  0  0  0  0
 29 30  2  0  0  0  0
 29 31  1  0  0  0  0
 26 27  1  0  0  0  0
 26 28  2  0  0  0  0
 24 25  1  0  0  0  0
 24 26  1  0  0  0  0
 22 23  1  0  0  0  0
 22 24  2  0  0  0  0
 20 21  1  0  0  0  0
 20 22  1  0  0  0  0
 19 20  2  0  0  0  0
 19 28  1  0  0  0  0
 17 18  1  0  0  0  0
 17 19  1  0  0  0  0
 15 16  1  0  0  0  0
 15 17  1  0  0  0  0
 14 15  2  0  0  0  0
 14 28  1  0  0  0  0
 11 12  1  0  0  0  0
 11 13  1  0  0  0  0
 11 14  1  0  0  0  0
  9 10  1  0  0  0  0
  9 11  1  0  0  0  0
  9 29  1  0  0  0  0
  7  8  1  0  0  0  0
  7  9  1  0  0  0  0
 33 34  1  0  0  0  0
 33 35  1  0  0  0  0
 33 36  1  0  0  0  0
 31 32  1  0  0  0  0
 31 33  1  0  0  0  0
M  END
$$$$
default_name
  -OEChem-02102213163D

 36 37  0     1  0  0  0  0  0999 V2000
   -4.0843   -4.0736    1.2944 H   0  0  0  0  0  0  0  0  0  0  0  0
   -4.0342   -3.2816    0.5484 C   0  0  0  0  0  0  0  0  0  0  0  0
   -4.8842   -2.6126    0.6694 H   0  0  0  0  0  0  0  0  0  0  0  0
   -4.0433   -3.7186   -0.4486 H   0  0  0  0  0  0  0  0  0  0  0  0
   -2.7532   -2.5046    0.7444 C   0  0  0  0  0  0  0  0  0  0  0  0
   -1.9803   -2.8096    1.6434 O   0  0  0  0  0  0  0  0  0  0  0  0
   -2.5332   -1.4966   -0.0966 N   0  0  0  0  0  0  0  0  0  0  0  0
   -3.2312   -1.2816   -0.7936 H   0  0  0  0  0  0  0  0  0  0  0  0
   -1.3593   -0.6196   -0.0536 C   0  0  1  0  0  0  0  0  0  0  0  0
   -0.4622   -1.2317   -0.1545 H   0  0  0  0  0  0  0  0  0  0  0  0
   -1.4074    0.3593   -1.2373 C   0  0  0  0  0  0  0  0  0  0  0  0
   -2.4510    0.5737   -1.4741 H   0  0  0  0  0  0  0  0  0  0  0  0
   -0.9388    1.2965   -0.9321 H   0  0  0  0  0  0  0  0  0  0  0  0
   -0.7374   -0.1212   -2.4888 C   0  0  0  0  0  0  0  0  0  0  0  0
   -0.4005    0.6504   -3.5466 C   0  0  0  0  0  0  0  0  0  0  0  0
   -0.5950    1.7147   -3.6210 H   0  0  0  0  0  0  0  0  0  0  0  0
    0.2413   -0.1194   -4.4969 N   0  0  0  0  0  0  0  0  0  0  0  0
    0.5795    0.2470   -5.3748 H   0  0  0  0  0  0  0  0  0  0  0  0
    0.3655   -1.4304   -4.0888 C   0  0  0  0  0  0  0  0  0  0  0  0
    0.9510   -2.5637   -4.6711 C   0  0  0  0  0  0  0  0  0  0  0  0
    1.4232   -2.4991   -5.6403 H   0  0  0  0  0  0  0  0  0  0  0  0
    0.9132   -3.7849   -3.9765 C   0  0  0  0  0  0  0  0  0  0  0  0
    1.3587   -4.6698   -4.4105 H   0  0  0  0  0  0  0  0  0  0  0  0
    0.2887   -3.8564   -2.7179 C   0  0  0  0  0  0  0  0  0  0  0  0
    0.2545   -4.7998   -2.1908 H   0  0  0  0  0  0  0  0  0  0  0  0
   -0.2983   -2.7112   -2.1431 C   0  0  0  0  0  0  0  0  0  0  0  0
   -0.7866   -2.7830   -1.1816 H   0  0  0  0  0  0  0  0  0  0  0  0
   -0.2717   -1.4686   -2.8125 C   0  0  0  0  0  0  0  0  0  0  0  0
   -1.2663    0.1182    1.2910 C   0  0  0  0  0  0  0  0  0  0  0  0
   -0.1906    0.1931    1.8833 O   0  0  0  0  0  0  0  0  0  0  0  0
   -2.3930    0.6605    1.7722 N   0  0  0  0  0  0  0  0  0  0  0  0
   -3.2451    0.5077    1.2518 H   0  0  0  0  0  0  0  0  0  0  0  0
   -2.4787    1.3954    3.0311 C   0  0  0  0  0  0  0  0  0  0  0  0
   -1.7166    2.1767    3.0539 H   0  0  0  0  0  0  0  0  0  0  0  0
   -3.4649    1.8498    3.1344 H   0  0  0  0  0  0  0  0  0  0  0  0
   -2.3058    0.7133    3.8652 H   0  0  0  0  0  0  0  0  0  0  0  0
  5  6  2  0  0  0  0
  5  7  1  0  0  0  0
  2  3  1  0  0  0  0
  2  4  1  0  0  0  0
  2  5  1  0  0  0  0
  1  2  1  0  0  0  0
 29 30  2  0  0  0  0
 29 31  1  0  0  0  0
 26 27  1  0  0  0  0
 26 28  2  0  0  0  0
 24 25  1  0  0  0  0
 24 26  1  0  0  0  0
 22 23  1  0  0  0  0
 22 24  2  0  0  0  0
 20 21  1  0  0  0  0
 20 22  1  0  0  0  0
 19 20  2  0  0  0  0
 19 28  1  0  0  0  0
 17 18  1  0  0  0  0
 17 19  1  0  0  0  0
 15 16  1  0  0  0  0
 15 17  1  0  0  0  0
 14 15  2  0  0  0  0
 14 28  1  0  0  0  0
 11 12  1  0  0  0  0
 11 13  1  0  0  0  0
 11 14  1  0  0  0  0
  9 10  1  0  0  0  0
  9 11  1  0  0  0  0
  9 29  1  0  0  0  0
  7  8  1  0  0  0  0
  7  9  1  0  0  0  0
 33 34  1  0  0  0  0
 33 35  1  0  0  0  0
 33 36  1  0  0  0  0
 31 32  1  0  0  0  0
 31 33  1  0  0  0  0
M  END
$$$$
default_name
  -OEChem-02102213163D

 36 37  0     1  0  0  0  0  0999 V2000
   -4.0843   -4.0736    1.2944 H   0  0  0  0  0  0  0  0  0  0  0  0
   -4.0342   -3.2816    0.5484 C   0  0  0  0  0  0  0  0  0  0  0  0
   -4.8842   -2.6126    0.6694 H   0  0  0  0  0  0  0  0  0  0  0  0
   -4.0433   -3.7186   -0.4486 H   0  0  0  0  0  0  0  0  0  0  0  0
   -2.7532   -2.5046    0.7444 C   0  0  0  0  0  0  0  0  0  0  0  0
   -1.9803   -2.8096    1.6434 O   0  0  0  0  0  0  0  0  0  0  0  0
   -2.5332   -1.4966   -0.0966 N   0  0  0  0  0  0  0  0  0  0  0  0
   -3.2312   -1.2816   -0.7936 H   0  0  0  0  0  0  0  0  0  0  0  0
   -1.3593   -0.6196   -0.0536 C   0  0  1  0  0  0  0  0  0  0  0  0
   -0.4622   -1.2317   -0.1545 H   0  0  0  0  0  0  0  0  0  0  0  0
   -1.4074    0.3593   -1.2373 C   0  0  0  0  0  0  0  0  0  0  0  0
   -2.4510    0.5737   -1.4741 H   0  0  0  0  0  0  0  0  0  0  0  0
   -0.9388    1.2965   -0.9321 H   0  0  0  0  0  0  0  0  0  0  0  0
   -0.7374   -0.1212   -2.4888 C   0  0  0  0  0  0  0  0  0  0  0  0
   -0.1455    0.6651   -3.4157 C   0  0  0  0  0  0  0  0  0  0  0  0
   -0.1027    1.7478   -3.3702 H   0  0  0  0  0  0  0  0  0  0  0  0
    0.4072   -0.1217   -4.4072 N   0  0  0  0  0  0  0  0  0  0  0  0
    0.8975    0.2522   -5.2065 H   0  0  0  0  0  0  0  0  0  0  0  0
    0.2120   -1.4636   -4.1582 C   0  0  0  0  0  0  0  0  0  0  0  0
    0.5978   -2.6297   -4.8348 C   0  0  0  0  0  0  0  0  0  0  0  0
    1.1635   -2.5681   -5.7529 H   0  0  0  0  0  0  0  0  0  0  0  0
    0.2366   -3.8792   -4.3025 C   0  0  0  0  0  0  0  0  0  0  0  0
    0.5245   -4.7893   -4.8112 H   0  0  0  0  0  0  0  0  0  0  0  0
   -0.5065   -3.9445   -3.1097 C   0  0  0  0  0  0  0  0  0  0  0  0
   -0.7894   -4.9077   -2.7081 H   0  0  0  0  0  0  0  0  0  0  0  0
   -0.8906   -2.7659   -2.4391 C   0  0  0  0  0  0  0  0  0  0  0  0
   -1.4726   -2.8301   -1.5308 H   0  0  0  0  0  0  0  0  0  0  0  0
   -0.5380   -1.4958   -2.9446 C   0  0  0  0  0  0  0  0  0  0  0  0
   -1.2663    0.1182    1.2910 C   0  0  0  0  0  0  0  0  0  0  0  0
   -0.1906    0.1931    1.8833 O   0  0  0  0  0  0  0  0  0  0  0  0
   -2.3930    0.6605    1.7722 N   0  0  0  0  0  0  0  0  0  0  0  0
   -3.2451    0.5077    1.2518 H   0  0  0  0  0  0  0  0  0  0  0  0
   -2.4787    1.3954    3.0311 C   0  0  0  0  0  0  0  0  0  0  0  0
   -1.7166    2.1767    3.0539 H   0  0  0  0  0  0  0  0  0  0  0  0
   -3.4649    1.8498    3.1344 H   0  0  0  0  0  0  0  0  0  0  0  0
   -2.3058    0.7133    3.8652 H   0  0  0  0  0  0  0  0  0  0  0  0
  5  6  2  0  0  0  0
  5  7  1  0  0  0  0
  2  3  1  0  0  0  0
  2  4  1  0  0  0  0
  2  5  1  0  0  0  0
  1  2  1  0  0  0  0
 29 30  2  0  0  0  0
 29 31  1  0  0  0  0
 26 27  1  0  0  0  0
 26 28  2  0  0  0  0
 24 25  1  0  0  0  0
 24 26  1  0  0  0  0
 22 23  1  0  0  0  0
 22 24  2  0  0  0  0
 20 21  1  0  0  0  0
 20 22  1  0  0  0  0
 19 20  2  0  0  0  0
 19 28  1  0  0  0  0
 17 18  1  0  0  0  0
 17 19  1  0  0  0  0
 15 16  1  0  0  0  0
 15 17  1  0  0  0  0
 14 15  2  0  0  0  0
 14 28  1  0  0  0  0
 11 12  1  0  0  0  0
 11 13  1  0  0  0  0
 11 14  1  0  0  0  0
  9 10  1  0  0  0  0
  9 11  1  0  0  0  0
  9 29  1  0  0  0  0
  7  8  1  0  0  0  0
  7  9  1  0  0  0  0
 33 34  1  0  0  0  0
 33 35  1  0  0  0  0
 33 36  1  0  0  0  0
 31 32  1  0  0  0  0
 31 33  1  0  0  0  0
M  END
$$$$
default_name
  -OEChem-02102213163D

 36 37  0     1  0  0  0  0  0999 V2000
   -4.0843   -4.0736    1.2944 H   0  0  0  0  0  0  0  0  0  0  0  0
   -4.0342   -3.2816    0.5484 C   0  0  0  0  0  0  0  0  0  0  0  0
   -4.8842   -2.6126    0.6694 H   0  0  0  0  0  0  0  0  0  0  0  0
   -4.0433   -3.7186   -0.4486 H   0  0  0  0  0  0  0  0  0  0  0  0
   -2.7532   -2.5046    0.7444 C   0  0  0  0  0  0  0  0  0  0  0  0
   -1.9803   -2.8096    1.6434 O   0  0  0  0  0  0  0  0  0  0  0  0
   -2.5332   -1.4966   -0.0966 N   0  0  0  0  0  0  0  0  0  0  0  0
   -3.2312   -1.2816   -0.7936 H   0  0  0  0  0  0  0  0  0  0  0  0
   -1.3593   -0.6196   -0.0536 C   0  0  1  0  0  0  0  0  0  0  0  0
   -0.4622   -1.2317   -0.1545 H   0  0  0  0  0  0  0  0  0  0  0  0
   -1.4074    0.3593   -1.2373 C   0  0  0  0  0  0  0  0  0  0  0  0
   -2.4510    0.5737   -1.4741 H   0  0  0  0  0  0  0  0  0  0  0  0
   -0.9388    1.2965   -0.9321 H   0  0  0  0  0  0  0  0  0  0  0  0
   -0.7374   -0.1212   -2.4888 C   0  0  0  0  0  0  0  0  0  0  0  0
    0.0932    0.6090   -3.2664 C   0  0  0  0  0  0  0  0  0  0  0  0
    0.3591    1.6443   -3.0832 H   0  0  0  0  0  0  0  0  0  0  0  0
    0.5594   -0.1702   -4.3071 N   0  0  0  0  0  0  0  0  0  0  0  0
    1.1919    0.1691   -5.0170 H   0  0  0  0  0  0  0  0  0  0  0  0
    0.0623   -1.4545   -4.2419 C   0  0  0  0  0  0  0  0  0  0  0  0
    0.2560   -2.5981   -5.0299 C   0  0  0  0  0  0  0  0  0  0  0  0
    0.9072   -2.5656   -5.8911 H   0  0  0  0  0  0  0  0  0  0  0  0
   -0.4103   -3.7862   -4.6845 C   0  0  0  0  0  0  0  0  0  0  0  0
   -0.2738   -4.6780   -5.2812 H   0  0  0  0  0  0  0  0  0  0  0  0
   -1.2610   -3.8125   -3.5643 C   0  0  0  0  0  0  0  0  0  0  0  0
   -1.7782   -4.7266   -3.3070 H   0  0  0  0  0  0  0  0  0  0  0  0
   -1.4498   -2.6565   -2.7805 C   0  0  0  0  0  0  0  0  0  0  0  0
   -2.1165   -2.6868   -1.9305 H   0  0  0  0  0  0  0  0  0  0  0  0
   -0.7903   -1.4493   -3.0975 C   0  0  0  0  0  0  0  0  0  0  0  0
   -1.2663    0.1182    1.2910 C   0  0  0  0  0  0  0  0  0  0  0  0
   -0.1906    0.1931    1.8833 O   0  0  0  0  0  0  0  0  0  0  0  0
   -2.3930    0.6605    1.7722 N   0  0  0  0  0  0  0  0  0  0  0  0
   -3.2451    0.5077    1.2518 H   0  0  0  0  0  0  0  0  0  0  0  0
   -2.4787    1.3954    3.0311 C   0  0  0  0  0  0  0  0  0  0  0  0
   -1.7166    2.1767    3.0539 H   0  0  0  0  0  0  0  0  0  0  0  0
   -3.4649    1.8498    3.1344 H   0  0  0  0  0  0  0  0  0  0  0  0
   -2.3058    0.7133    3.8652 H   0  0  0  0  0  0  0  0  0  0  0  0
  5  6  2  0  0  0  0
  5  7  1  0  0  0  0
  2  3  1  0  0  0  0
  2  4  1  0  0  0  0
  2  5  1  0  0  0  0
  1  2  1  0  0  0  0
 29 30  2  0  0  0  0
 29 31  1  0  0  0  0
 26 27  1  0  0  0  0
 26 28  2  0  0  0  0
 24 25  1  0  0  0  0
 24 26  1  0  0  0  0
 22 23  1  0  0  0  0
 22 24  2  0  0  0  0
 20 21  1  0  0  0  0
 20 22  1  0  0  0  0
 19 20  2  0  0  0  0
 19 28  1  0  0  0  0
 17 18  1  0  0  0  0
 17 19  1  0  0  0  0
 15 16  1  0  0  0  0
 15 17  1  0  0  0  0
 14 15  2  0  0  0  0
 14 28  1  0  0  0  0
 11 12  1  0  0  0  0
 11 13  1  0  0  0  0
 11 14  1  0  0  0  0
  9 10  1  0  0  0  0
  9 11  1  0  0  0  0
  9 29  1  0  0  0  0
  7  8  1  0  0  0  0
  7  9  1  0  0  0  0
 33 34  1  0  0  0  0
 33 35  1  0  0  0  0
 33 36  1  0  0  0  0
 31 32  1  0  0  0  0
 31 33  1  0  0  0  0
M  END
$$$$
default_name
  -OEChem-02102213163D

 36 37  0     1  0  0  0  0  0999 V2000
   -4.0843   -4.0736    1.2944 H   0  0  0  0  0  0  0  0  0  0  0  0
   -4.0342   -3.2816    0.5484 C   0  0  0  0  0  0  0  0  0  0  0  0
   -4.8842   -2.6126    0.6694 H   0  0  0  0  0  0  0  0  0  0  0  0
   -4.0433   -3.7186   -0.4486 H   0  0  0  0  0  0  0  0  0  0  0  0
   -2.7532   -2.5046    0.7444 C   0  0  0  0  0  0  0  0  0  0  0  0
   -1.9803   -2.8096    1.6434 O   0  0  0  0  0  0  0  0  0  0  0  0
   -2.5332   -1.4966   -0.0966 N   0  0  0  0  0  0  0  0  0  0  0  0
   -3.2312   -1.2816   -0.7936 H   0  0  0  0  0  0  0  0  0  0  0  0
   -1.3593   -0.6196   -0.0536 C   0  0  1  0  0  0  0  0  0  0  0  0
   -0.4622   -1.2317   -0.1545 H   0  0  0  0  0  0  0  0  0  0  0  0
   -1.4074    0.3593   -1.2373 C   0  0  0  0  0  0  0  0  0  0  0  0
   -2.4510    0.5737   -1.4741 H   0  0  0  0  0  0  0  0  0  0  0  0
   -0.9388    1.2965   -0.9321 H   0  0  0  0  0  0  0  0  0  0  0  0
   -0.7374   -0.1212   -2.4888 C   0  0  0  0  0  0  0  0  0  0  0  0
    0.2992    0.4860   -3.1089 C   0  0  0  0  0  0  0  0  0  0  0  0
    0.7591    1.4113   -2.7797 H   0  0  0  0  0  0  0  0  0  0  0  0
    0.6877   -0.2616   -4.2033 N   0  0  0  0  0  0  0  0  0  0  0  0
    1.4426    0.0033   -4.8191 H   0  0  0  0  0  0  0  0  0  0  0  0
   -0.0734   -1.4036   -4.3340 C   0  0  0  0  0  0  0  0  0  0  0  0
   -0.0511   -2.4711   -5.2431 C   0  0  0  0  0  0  0  0  0  0  0  0
    0.6715   -2.4917   -6.0455 H   0  0  0  0  0  0  0  0  0  0  0  0
   -0.9833   -3.5125   -5.0963 C   0  0  0  0  0  0  0  0  0  0  0  0
   -0.9818   -4.3435   -5.7887 H   0  0  0  0  0  0  0  0  0  0  0  0
   -1.9236   -3.4693   -4.0507 C   0  0  0  0  0  0  0  0  0  0  0  0
   -2.6444   -4.2685   -3.9465 H   0  0  0  0  0  0  0  0  0  0  0  0
   -1.9381   -2.3905   -3.1441 C   0  0  0  0  0  0  0  0  0  0  0  0
   -2.6744   -2.3631   -2.3534 H   0  0  0  0  0  0  0  0  0  0  0  0
   -1.0111   -1.3321   -3.2607 C   0  0  0  0  0  0  0  0  0  0  0  0
   -1.2663    0.1182    1.2910 C   0  0  0  0  0  0  0  0  0  0  0  0
   -0.1906    0.1931    1.8833 O   0  0  0  0  0  0  0  0  0  0  0  0
   -2.3930    0.6605    1.7722 N   0  0  0  0  0  0  0  0  0  0  0  0
   -3.2451    0.5077    1.2518 H   0  0  0  0  0  0  0  0  0  0  0  0
   -2.4787    1.3954    3.0311 C   0  0  0  0  0  0  0  0  0  0  0  0
   -1.7166    2.1767    3.0539 H   0  0  0  0  0  0  0  0  0  0  0  0
   -3.4649    1.8498    3.1344 H   0  0  0  0  0  0  0  0  0  0  0  0
   -2.3058    0.7133    3.8652 H   0  0  0  0  0  0  0  0  0  0  0  0
  5  6  2  0  0  0  0
  5  7  1  0  0  0  0
  2  3  1  0  0  0  0
  2  4  1  0  0  0  0
  2  5  1  0  0  0  0
  1  2  1  0  0  0  0
 29 30  2  0  0  0  0
 29 31  1  0  0  0  0
 26 27  1  0  0  0  0
 26 28  2  0  0  0  0
 24 25  1  0  0  0  0
 24 26  1  0  0  0  0
 22 23  1  0  0  0  0
 22 24  2  0  0  0  0
 20 21  1  0  0  0  0
 20 22  1  0  0  0  0
 19 20  2  0  0  0  0
 19 28  1  0  0  0  0
 17 18  1  0  0  0  0
 17 19  1  0  0  0  0
 15 16  1  0  0  0  0
 15 17  1  0  0  0  0
 14 15  2  0  0  0  0
 14 28  1  0  0  0  0
 11 12  1  0  0  0  0
 11 13  1  0  0  0  0
 11 14  1  0  0  0  0
  9 10  1  0  0  0  0
  9 11  1  0  0  0  0
  9 29  1  0  0  0  0
  7  8  1  0  0  0  0
  7  9  1  0  0  0  0
 33 34  1  0  0  0  0
 33 35  1  0  0  0  0
 33 36  1  0  0  0  0
 31 32  1  0  0  0  0
 31 33  1  0  0  0  0
M  END
$$$$
default_name
  -OEChem-02102213163D

 36 37  0     1  0  0  0  0  0999 V2000
   -4.0843   -4.0736    1.2944 H   0  0  0  0  0  0  0  0  0  0  0  0
   -4.0342   -3.2816    0.5484 C   0  0  0  0  0  0  0  0  0  0  0  0
   -4.8842   -2.6126    0.6694 H   0  0  0  0  0  0  0  0  0  0  0  0
   -4.0433   -3.7186   -0.4486 H   0  0  0  0  0  0  0  0  0  0  0  0
   -2.7532   -2.5046    0.7444 C   0  0  0  0  0  0  0  0  0  0  0  0
   -1.9803   -2.8096    1.6434 O   0  0  0  0  0  0  0  0  0  0  0  0
   -2.5332   -1.4966   -0.0966 N   0  0  0  0  0  0  0  0  0  0  0  0
   -3.2312   -1.2816   -0.7936 H   0  0  0  0  0  0  0  0  0  0  0  0
   -1.3593   -0.6196   -0.0536 C   0  0  1  0  0  0  0  0  0  0  0  0
   -0.4622   -1.2317   -0.1545 H   0  0  0  0  0  0  0  0  0  0  0  0
   -1.4074    0.3593   -1.2373 C   0  0  0  0  0  0  0  0  0  0  0  0
   -2.4510    0.5737   -1.4741 H   0  0  0  0  0  0  0  0  0  0  0  0
   -0.9388    1.2965   -0.9321 H   0  0  0  0  0  0  0  0  0  0  0  0
   -0.7374   -0.1212   -2.4888 C   0  0  0  0  0  0  0  0  0  0  0  0
    0.4585    0.3044   -2.9539 C   0  0  0  0  0  0  0  0  0  0  0  0
    1.0699    1.0647   -2.4803 H   0  0  0  0  0  0  0  0  0  0  0  0
    0.7833   -0.3895   -4.1030 N   0  0  0  0  0  0  0  0  0  0  0  0
    1.6325   -0.2340   -4.6264 H   0  0  0  0  0  0  0  0  0  0  0  0
   -0.1859   -1.3145   -4.4284 C   0  0  0  0  0  0  0  0  0  0  0  0
   -0.3027   -2.2574   -5.4598 C   0  0  0  0  0  0  0  0  0  0  0  0
    0.4727   -2.3516   -6.2058 H   0  0  0  0  0  0  0  0  0  0  0  0
   -1.4435   -3.0766   -5.5100 C   0  0  0  0  0  0  0  0  0  0  0  0
   -1.5513   -3.8088   -6.2988 H   0  0  0  0  0  0  0  0  0  0  0  0
   -2.4491   -2.9383   -4.5359 C   0  0  0  0  0  0  0  0  0  0  0  0
   -3.3290   -3.5649   -4.5832 H   0  0  0  0  0  0  0  0  0  0  0  0
   -2.3220   -1.9859   -3.5049 C   0  0  0  0  0  0  0  0  0  0  0  0
   -3.1082   -1.8809   -2.7707 H   0  0  0  0  0  0  0  0  0  0  0  0
   -1.1856   -1.1524   -3.4231 C   0  0  0  0  0  0  0  0  0  0  0  0
   -1.2663    0.1182    1.2910 C   0  0  0  0  0  0  0  0  0  0  0  0
   -0.1906    0.1931    1.8833 O   0  0  0  0  0  0  0  0  0  0  0  0
   -2.3930    0.6605    1.7722 N   0  0  0  0  0  0  0  0  0  0  0  0
   -3.2451    0.5077    1.2518 H   0  0  0  0  0  0  0  0  0  0  0  0
   -2.4787    1.3954    3.0311 C   0  0  0  0  0  0  0  0  0  0  0  0
   -1.7166    2.1767    3.0539 H   0  0  0  0  0  0  0  0  0  0  0  0
   -3.4649    1.8498    3.1344 H   0  0  0  0  0  0  0  0  0  0  0  0
   -2.3058    0.7133    3.8652 H   0  0  0  0  0  0  0  0  0  0  0  0
  5  6  2  0  0  0  0
  5  7  1  0  0  0  0
  2  3  1  0  0  0  0
  2  4  1  0  0  0  0
  2  5  1  0  0  0  0
  1  2  1  0  0  0  0
 29 30  2  0  0  0  0
 29 31  1  0  0  0  0
 26 27  1  0  0  0  0
 26 28  2  0  0  0  0
 24 25  1  0  0  0  0
 24 26  1  0  0  0  0
 22 23  1  0  0  0  0
 22 24  2  0  0  0  0
 20 21  1  0  0  0  0
 20 22  1  0  0  0  0
 19 20  2  0  0  0  0
 19 28  1  0  0  0  0
 17 18  1  0  0  0  0
 17 19  1  0  0  0  0
 15 16  1  0  0  0  0
 15 17  1  0  0  0  0
 14 15  2  0  0  0  0
 14 28  1  0  0  0  0
 11 12  1  0  0  0  0
 11 13  1  0  0  0  0
 11 14  1  0  0  0  0
  9 10  1  0  0  0  0
  9 11  1  0  0  0  0
  9 29  1  0  0  0  0
  7  8  1  0  0  0  0
  7  9  1  0  0  0  0
 33 34  1  0  0  0  0
 33 35  1  0  0  0  0
 33 36  1  0  0  0  0
 31 32  1  0  0  0  0
 31 33  1  0  0  0  0
M  END
$$$$
default_name
  -OEChem-02102213163D

 36 37  0     1  0  0  0  0  0999 V2000
   -4.0843   -4.0736    1.2944 H   0  0  0  0  0  0  0  0  0  0  0  0
   -4.0342   -3.2816    0.5484 C   0  0  0  0  0  0  0  0  0  0  0  0
   -4.8842   -2.6126    0.6694 H   0  0  0  0  0  0  0  0  0  0  0  0
   -4.0433   -3.7186   -0.4486 H   0  0  0  0  0  0  0  0  0  0  0  0
   -2.7532   -2.5046    0.7444 C   0  0  0  0  0  0  0  0  0  0  0  0
   -1.9803   -2.8096    1.6434 O   0  0  0  0  0  0  0  0  0  0  0  0
   -2.5332   -1.4966   -0.0966 N   0  0  0  0  0  0  0  0  0  0  0  0
   -3.2312   -1.2816   -0.7936 H   0  0  0  0  0  0  0  0  0  0  0  0
   -1.3593   -0.6196   -0.0536 C   0  0  1  0  0  0  0  0  0  0  0  0
   -0.4622   -1.2317   -0.1545 H   0  0  0  0  0  0  0  0  0  0  0  0
   -1.4074    0.3593   -1.2373 C   0  0  0  0  0  0  0  0  0  0  0  0
   -2.4510    0.5737   -1.4741 H   0  0  0  0  0  0  0  0  0  0  0  0
   -0.9388    1.2965   -0.9321 H   0  0  0  0  0  0  0  0  0  0  0  0
   -0.7374   -0.1212   -2.4888 C   0  0  0  0  0  0  0  0  0  0  0  0
    0.5603    0.0766   -2.8120 C   0  0  0  0  0  0  0  0  0  0  0  0
    1.2703    0.6281   -2.2053 H   0  0  0  0  0  0  0  0  0  0  0  0
    0.8396   -0.5454   -4.0130 N   0  0  0  0  0  0  0  0  0  0  0  0
    1.7486   -0.5265   -4.4519 H   0  0  0  0  0  0  0  0  0  0  0  0
   -0.2674   -1.1932   -4.5186 C   0  0  0  0  0  0  0  0  0  0  0  0
   -0.4815   -1.9716   -5.6652 C   0  0  0  0  0  0  0  0  0  0  0  0
    0.3243   -2.1547   -6.3608 H   0  0  0  0  0  0  0  0  0  0  0  0
   -1.7594   -2.5082   -5.8974 C   0  0  0  0  0  0  0  0  0  0  0  0
   -1.9435   -3.1101   -6.7770 H   0  0  0  0  0  0  0  0  0  0  0  0
   -2.8017   -2.2557   -4.9867 C   0  0  0  0  0  0  0  0  0  0  0  0
   -3.7854   -2.6636   -5.1735 H   0  0  0  0  0  0  0  0  0  0  0  0
   -2.5755   -1.4703   -3.8385 C   0  0  0  0  0  0  0  0  0  0  0  0
   -3.3883   -1.2731   -3.1540 H   0  0  0  0  0  0  0  0  0  0  0  0
   -1.3018   -0.9222   -3.5737 C   0  0  0  0  0  0  0  0  0  0  0  0
   -1.2663    0.1182    1.2910 C   0  0  0  0  0  0  0  0  0  0  0  0
   -0.1906    0.1931    1.8833 O   0  0  0  0  0  0  0  0  0  0  0  0
   -2.3930    0.6605    1.7722 N   0  0  0  0  0  0  0  0  0  0  0  0
   -3.2451    0.5077    1.2518 H   0  0  0  0  0  0  0  0  0  0  0  0
   -2.4787    1.3954    3.0311 C   0  0  0  0  0  0  0  0  0  0  0  0
   -1.7166    2.1767    3.0539 H   0  0  0  0  0  0  0  0  0  0  0  0
   -3.4649    1.8498    3.1344 H   0  0  0  0  0  0  0  0  0  0  0  0
   -2.3058    0.7133    3.8652 H   0  0  0  0  0  0  0  0  0  0  0  0
  5  6  2  0  0  0  0
  5  7  1  0  0  0  0
  2  3  1  0  0  0  0
  2  4  1  0  0  0  0
  2  5  1  0  0  0  0
  1  2  1  0  0  0  0
 29 30  2  0  0  0  0
 29 31  1  0  0  0  0
 26 27  1  0  0  0  0
 26 28  2  0  0  0  0
 24 25  1  0  0  0  0
 24 26  1  0  0  0  0
 22 23  1  0  0  0  0
 22 24  2  0  0  0  0
 20 21  1  0  0  0  0
 20 22  1  0  0  0  0
 19 20  2  0  0  0  0
 19 28  1  0  0  0  0
 17 18  1  0  0  0  0
 17 19  1  0  0  0  0
 15 16  1  0  0  0  0
 15 17  1  0  0  0  0
 14 15  2  0  0  0  0
 14 28  1  0  0  0  0
 11 12  1  0  0  0  0
 11 13  1  0  0  0  0
 11 14  1  0  0  0  0
  9 10  1  0  0  0  0
  9 11  1  0  0  0  0
  9 29  1  0  0  0  0
  7  8  1  0  0  0  0
  7  9  1  0  0  0  0
 33 34  1  0  0  0  0
 33 35  1  0  0  0  0
 33 36  1  0  0  0  0
 31 32  1  0  0  0  0
 31 33  1  0  0  0  0
M  END
$$$$
default_name
  -OEChem-02102213163D

 36 37  0     1  0  0  0  0  0999 V2000
   -4.0843   -4.0736    1.2944 H   0  0  0  0  0  0  0  0  0  0  0  0
   -4.0342   -3.2816    0.5484 C   0  0  0  0  0  0  0  0  0  0  0  0
   -4.8842   -2.6126    0.6694 H   0  0  0  0  0  0  0  0  0  0  0  0
   -4.0433   -3.7186   -0.4486 H   0  0  0  0  0  0  0  0  0  0  0  0
   -2.7532   -2.5046    0.7444 C   0  0  0  0  0  0  0  0  0  0  0  0
   -1.9803   -2.8096    1.6434 O   0  0  0  0  0  0  0  0  0  0  0  0
   -2.5332   -1.4966   -0.0966 N   0  0  0  0  0  0  0  0  0  0  0  0
   -3.2312   -1.2816   -0.7936 H   0  0  0  0  0  0  0  0  0  0  0  0
   -1.3593   -0.6196   -0.0536 C   0  0  1  0  0  0  0  0  0  0  0  0
   -0.4622   -1.2317   -0.1545 H   0  0  0  0  0  0  0  0  0  0  0  0
   -1.4074    0.3593   -1.2373 C   0  0  0  0  0  0  0  0  0  0  0  0
   -2.4510    0.5737   -1.4741 H   0  0  0  0  0  0  0  0  0  0  0  0
   -0.9388    1.2965   -0.9321 H   0  0  0  0  0  0  0  0  0  0  0  0
   -0.7374   -0.1212   -2.4888 C   0  0  0  0  0  0  0  0  0  0  0  0
    0.5977   -0.1818   -2.6928 C   0  0  0  0  0  0  0  0  0  0  0  0
    1.3467    0.1312   -1.9737 H   0  0  0  0  0  0  0  0  0  0  0  0
    0.8529   -0.7185   -3.9395 N   0  0  0  0  0  0  0  0  0  0  0  0
    1.7830   -0.8544   -4.3076 H   0  0  0  0  0  0  0  0  0  0  0  0
   -0.3124   -1.0480   -4.5985 C   0  0  0  0  0  0  0  0  0  0  0  0
   -0.5754   -1.6330   -5.8455 C   0  0  0  0  0  0  0  0  0  0  0  0
    0.2363   -1.9146   -6.5001 H   0  0  0  0  0  0  0  0  0  0  0  0
   -1.9096   -1.8461   -6.2320 C   0  0  0  0  0  0  0  0  0  0  0  0
   -2.1316   -2.2951   -7.1906 H   0  0  0  0  0  0  0  0  0  0  0  0
   -2.9573   -1.4680   -5.3724 C   0  0  0  0  0  0  0  0  0  0  0  0
   -3.9825   -1.6261   -5.6774 H   0  0  0  0  0  0  0  0  0  0  0  0
   -2.6813   -0.8790   -4.1222 C   0  0  0  0  0  0  0  0  0  0  0  0
   -3.4957   -0.5811   -3.4772 H   0  0  0  0  0  0  0  0  0  0  0  0
   -1.3518   -0.6573   -3.7021 C   0  0  0  0  0  0  0  0  0  0  0  0
   -1.2663    0.1182    1.2910 C   0  0  0  0  0  0  0  0  0  0  0  0
   -0.1906    0.1931    1.8833 O   0  0  0  0  0  0  0  0  0  0  0  0
   -2.3930    0.6605    1.7722 N   0  0  0  0  0  0  0  0  0  0  0  0
   -3.2451    0.5077    1.2518 H   0  0  0  0  0  0  0  0  0  0  0  0
   -2.4787    1.3954    3.0311 C   0  0  0  0  0  0  0  0  0  0  0  0
   -1.7166    2.1767    3.0539 H   0  0  0  0  0  0  0  0  0  0  0  0
   -3.4649    1.8498    3.1344 H   0  0  0  0  0  0  0  0  0  0  0  0
   -2.3058    0.7133    3.8652 H   0  0  0  0  0  0  0  0  0  0  0  0
  5  6  2  0  0  0  0
  5  7  1  0  0  0  0
  2  3  1  0  0  0  0
  2  4  1  0  0  0  0
  2  5  1  0  0  0  0
  1  2  1  0  0  0  0
 29 30  2  0  0  0  0
 29 31  1  0  0  0  0
 26 27  1  0  0  0  0
 26 28  2  0  0  0  0
 24 25  1  0  0  0  0
 24 26  1  0  0  0  0
 22 23  1  0  0  0  0
 22 24  2  0  0  0  0
 20 21  1  0  0  0  0
 20 22  1  0  0  0  0
 19 20  2  0  0  0  0
 19 28  1  0  0  0  0
 17 18  1  0  0  0  0
 17 19  1  0  0  0  0
 15 16  1  0  0  0  0
 15 17  1  0  0  0  0
 14 15  2  0  0  0  0
 14 28  1  0  0  0  0
 11 12  1  0  0  0  0
 11 13  1  0  0  0  0
 11 14  1  0  0  0  0
  9 10  1  0  0  0  0
  9 11  1  0  0  0  0
  9 29  1  0  0  0  0
  7  8  1  0  0  0  0
  7  9  1  0  0  0  0
 33 34  1  0  0  0  0
 33 35  1  0  0  0  0
 33 36  1  0  0  0  0
 31 32  1  0  0  0  0
 31 33  1  0  0  0  0
M  END
$$$$
default_name
  -OEChem-02102213163D

 36 37  0     1  0  0  0  0  0999 V2000
   -4.0843   -4.0736    1.2944 H   0  0  0  0  0  0  0  0  0  0  0  0
   -4.0342   -3.2816    0.5484 C   0  0  0  0  0  0  0  0  0  0  0  0
   -4.8842   -2.6126    0.6694 H   0  0  0  0  0  0  0  0  0  0  0  0
   -4.0433   -3.7186   -0.4486 H   0  0  0  0  0  0  0  0  0  0  0  0
   -2.7532   -2.5046    0.7444 C   0  0  0  0  0  0  0  0  0  0  0  0
   -1.9803   -2.8096    1.6434 O   0  0  0  0  0  0  0  0  0  0  0  0
   -2.5332   -1.4966   -0.0966 N   0  0  0  0  0  0  0  0  0  0  0  0
   -3.2312   -1.2816   -0.7936 H   0  0  0  0  0  0  0  0  0  0  0  0
   -1.3593   -0.6196   -0.0536 C   0  0  1  0  0  0  0  0  0  0  0  0
   -0.4622   -1.2317   -0.1545 H   0  0  0  0  0  0  0  0  0  0  0  0
   -1.4074    0.3593   -1.2373 C   0  0  0  0  0  0  0  0  0  0  0  0
   -2.4510    0.5737   -1.4741 H   0  0  0  0  0  0  0  0  0  0  0  0
   -0.9388    1.2965   -0.9321 H   0  0  0  0  0  0  0  0  0  0  0  0
   -0.7374   -0.1212   -2.4888 C   0  0  0  0  0  0  0  0  0  0  0  0
    0.5680   -0.4533   -2.6044 C   0  0  0  0  0  0  0  0  0  0  0  0
    1.2939   -0.3920   -1.8011 H   0  0  0  0  0  0  0  0  0  0  0  0
    0.8222   -0.8972   -3.8873 N   0  0  0  0  0  0  0  0  0  0  0  0
    1.7335   -1.1952   -4.2033 H   0  0  0  0  0  0  0  0  0  0  0  0
   -0.3179   -0.8888   -4.6626 C   0  0  0  0  0  0  0  0  0  0  0  0
   -0.5779   -1.2649   -5.9882 C   0  0  0  0  0  0  0  0  0  0  0  0
    0.2148   -1.6474   -6.6142 H   0  0  0  0  0  0  0  0  0  0  0  0
   -1.8838   -1.1353   -6.4911 C   0  0  0  0  0  0  0  0  0  0  0  0
   -2.1029   -1.4194   -7.5115 H   0  0  0  0  0  0  0  0  0  0  0  0
   -2.9053   -0.6289   -5.6668 C   0  0  0  0  0  0  0  0  0  0  0  0
   -3.9068   -0.5230   -6.0603 H   0  0  0  0  0  0  0  0  0  0  0  0
   -2.6320   -0.2521   -4.3365 C   0  0  0  0  0  0  0  0  0  0  0  0
   -3.4230    0.1480   -3.7182 H   0  0  0  0  0  0  0  0  0  0  0  0
   -1.3322   -0.3758   -3.7997 C   0  0  0  0  0  0  0  0  0  0  0  0
   -1.2663    0.1182    1.2910 C   0  0  0  0  0  0  0  0  0  0  0  0
   -0.1906    0.1931    1.8833 O   0  0  0  0  0  0  0  0  0  0  0  0
   -2.3930    0.6605    1.7722 N   0  0  0  0  0  0  0  0  0  0  0  0
   -3.2451    0.5077    1.2518 H   0  0  0  0  0  0  0  0  0  0  0  0
   -2.4787    1.3954    3.0311 C   0  0  0  0  0  0  0  0  0  0  0  0
   -1.7166    2.1767    3.0539 H   0  0  0  0  0  0  0  0  0  0  0  0
   -3.4649    1.8498    3.1344 H   0  0  0  0  0  0  0  0  0  0  0  0
   -2.3058    0.7133    3.8652 H   0  0  0  0  0  0  0  0  0  0  0  0
  5  6  2  0  0  0  0
  5  7  1  0  0  0  0
  2  3  1  0  0  0  0
  2  4  1  0  0  0  0
  2  5  1  0  0  0  0
  1  2  1  0  0  0  0
 29 30  2  0  0  0  0
 29 31  1  0  0  0  0
 26 27  1  0  0  0  0
 26 28  2  0  0  0  0
 24 25  1  0  0  0  0
 24 26  1  0  0  0  0
 22 23  1  0  0  0  0
 22 24  2  0  0  0  0
 20 21  1  0  0  0  0
 20 22  1  0  0  0  0
 19 20  2  0  0  0  0
 19 28  1  0  0  0  0
 17 18  1  0  0  0  0
 17 19  1  0  0  0  0
 15 16  1  0  0  0  0
 15 17  1  0  0  0  0
 14 15  2  0  0  0  0
 14 28  1  0  0  0  0
 11 12  1  0  0  0  0
 11 13  1  0  0  0  0
 11 14  1  0  0  0  0
  9 10  1  0  0  0  0
  9 11  1  0  0  0  0
  9 29  1  0  0  0  0
  7  8  1  0  0  0  0
  7  9  1  0  0  0  0
 33 34  1  0  0  0  0
 33 35  1  0  0  0  0
 33 36  1  0  0  0  0
 31 32  1  0  0  0  0
 31 33  1  0  0  0  0
M  END
$$$$
default_name
  -OEChem-02102213163D

 36 37  0     1  0  0  0  0  0999 V2000
   -4.0843   -4.0736    1.2944 H   0  0  0  0  0  0  0  0  0  0  0  0
   -4.0342   -3.2816    0.5484 C   0  0  0  0  0  0  0  0  0  0  0  0
   -4.8842   -2.6126    0.6694 H   0  0  0  0  0  0  0  0  0  0  0  0
   -4.0433   -3.7186   -0.4486 H   0  0  0  0  0  0  0  0  0  0  0  0
   -2.7532   -2.5046    0.7444 C   0  0  0  0  0  0  0  0  0  0  0  0
   -1.9803   -2.8096    1.6434 O   0  0  0  0  0  0  0  0  0  0  0  0
   -2.5332   -1.4966   -0.0966 N   0  0  0  0  0  0  0  0  0  0  0  0
   -3.2312   -1.2816   -0.7936 H   0  0  0  0  0  0  0  0  0  0  0  0
   -1.3593   -0.6196   -0.0536 C   0  0  1  0  0  0  0  0  0  0  0  0
   -0.4622   -1.2317   -0.1545 H   0  0  0  0  0  0  0  0  0  0  0  0
   -1.4074    0.3593   -1.2373 C   0  0  0  0  0  0  0  0  0  0  0  0
   -2.4510    0.5737   -1.4741 H   0  0  0  0  0  0  0  0  0  0  0  0
   -0.9388    1.2965   -0.9321 H   0  0  0  0  0  0  0  0  0  0  0  0
   -0.7374   -0.1212   -2.4888 C   0  0  0  0  0  0  0  0  0  0  0  0
    0.4733   -0.7193   -2.5530 C   0  0  0  0  0  0  0  0  0  0  0  0
    1.1155   -0.9060   -1.6992 H   0  0  0  0  0  0  0  0  0  0  0  0
    0.7496   -1.0691   -3.8602 N   0  0  0  0  0  0  0  0  0  0  0  0
    1.6033   -1.5258   -4.1461 H   0  0  0  0  0  0  0  0  0  0  0  0
   -0.2834   -0.7264   -4.7065 C   0  0  0  0  0  0  0  0  0  0  0  0
   -0.4890   -0.8922   -6.0837 C   0  0  0  0  0  0  0  0  0  0  0  0
    0.2612   -1.3716   -6.6953 H   0  0  0  0  0  0  0  0  0  0  0  0
   -1.6838   -0.4244   -6.6569 C   0  0  0  0  0  0  0  0  0  0  0  0
   -1.8592   -0.5426   -7.7177 H   0  0  0  0  0  0  0  0  0  0  0  0
   -2.6493    0.2045   -5.8497 C   0  0  0  0  0  0  0  0  0  0  0  0
   -3.5635    0.5704   -6.2964 H   0  0  0  0  0  0  0  0  0  0  0  0
   -2.4312    0.3675   -4.4669 C   0  0  0  0  0  0  0  0  0  0  0  0
   -3.1753    0.8643   -3.8607 H   0  0  0  0  0  0  0  0  0  0  0  0
   -1.2444   -0.0969   -3.8598 C   0  0  0  0  0  0  0  0  0  0  0  0
   -1.2663    0.1182    1.2910 C   0  0  0  0  0  0  0  0  0  0  0  0
   -0.1906    0.1931    1.8833 O   0  0  0  0  0  0  0  0  0  0  0  0
   -2.3930    0.6605    1.7722 N   0  0  0  0  0  0  0  0  0  0  0  0
   -3.2451    0.5077    1.2518 H   0  0  0  0  0  0  0  0  0  0  0  0
   -2.4787    1.3954    3.0311 C   0  0  0  0  0  0  0  0  0  0  0  0
   -1.7166    2.1767    3.0539 H   0  0  0  0  0  0  0  0  0  0  0  0
   -3.4649    1.8498    3.1344 H   0  0  0  0  0  0  0  0  0  0  0  0
   -2.3058    0.7133    3.8652 H   0  0  0  0  0  0  0  0  0  0  0  0
  5  6  2  0  0  0  0
  5  7  1  0  0  0  0
  2  3  1  0  0  0  0
  2  4  1  0  0  0  0
  2  5  1  0  0  0  0
  1  2  1  0  0  0  0
 29 30  2  0  0  0  0
 29 31  1  0  0  0  0
 26 27  1  0  0  0  0
 26 28  2  0  0  0  0
 24 25  1  0  0  0  0
 24 26  1  0  0  0  0
 22 23  1  0  0  0  0
 22 24  2  0  0  0  0
 20 21  1  0  0  0  0
 20 22  1  0  0  0  0
 19 20  2  0  0  0  0
 19 28  1  0  0  0  0
 17 18  1  0  0  0  0
 17 19  1  0  0  0  0
 15 16  1  0  0  0  0
 15 17  1  0  0  0  0
 14 15  2  0  0  0  0
 14 28  1  0  0  0  0
 11 12  1  0  0  0  0
 11 13  1  0  0  0  0
 11 14  1  0  0  0  0
  9 10  1  0  0  0  0
  9 11  1  0  0  0  0
  9 29  1  0  0  0  0
  7  8  1  0  0  0  0
  7  9  1  0  0  0  0
 33 34  1  0  0  0  0
 33 35  1  0  0  0  0
 33 36  1  0  0  0  0
 31 32  1  0  0  0  0
 31 33  1  0  0  0  0
M  END
$$$$
default_name
  -OEChem-02102213163D

 36 37  0     1  0  0  0  0  0999 V2000
   -4.0843   -4.0736    1.2944 H   0  0  0  0  0  0  0  0  0  0  0  0
   -4.0342   -3.2816    0.5484 C   0  0  0  0  0  0  0  0  0  0  0  0
   -4.8842   -2.6126    0.6694 H   0  0  0  0  0  0  0  0  0  0  0  0
   -4.0433   -3.7186   -0.4486 H   0  0  0  0  0  0  0  0  0  0  0  0
   -2.7532   -2.5046    0.7444 C   0  0  0  0  0  0  0  0  0  0  0  0
   -1.9803   -2.8096    1.6434 O   0  0  0  0  0  0  0  0  0  0  0  0
   -2.5332   -1.4966   -0.0966 N   0  0  0  0  0  0  0  0  0  0  0  0
   -3.2312   -1.2816   -0.7936 H   0  0  0  0  0  0  0  0  0  0  0  0
   -1.3593   -0.6196   -0.0536 C   0  0  1  0  0  0  0  0  0  0  0  0
   -0.4622   -1.2317   -0.1545 H   0  0  0  0  0  0  0  0  0  0  0  0
   -1.4074    0.3593   -1.2373 C   0  0  0  0  0  0  0  0  0  0  0  0
   -2.4510    0.5737   -1.4741 H   0  0  0  0  0  0  0  0  0  0  0  0
   -0.9388    1.2965   -0.9321 H   0  0  0  0  0  0  0  0  0  0  0  0
   -0.7374   -0.1212   -2.4888 C   0  0  0  0  0  0  0  0  0  0  0  0
    0.3200   -0.9618   -2.5419 C   0  0  0  0  0  0  0  0  0  0  0  0
    0.8236   -1.3757   -1.6751 H   0  0  0  0  0  0  0  0  0  0  0  0
    0.6400   -1.2226   -3.8599 N   0  0  0  0  0  0  0  0  0  0  0  0
    1.4014   -1.8236   -4.1398 H   0  0  0  0  0  0  0  0  0  0  0  0
   -0.2114   -0.5719   -4.7273 C   0  0  0  0  0  0  0  0  0  0  0  0
   -0.3146   -0.5404   -6.1254 C   0  0  0  0  0  0  0  0  0  0  0  0
    0.3724   -1.1058   -6.7378 H   0  0  0  0  0  0  0  0  0  0  0  0
   -1.3231    0.2383   -6.7183 C   0  0  0  0  0  0  0  0  0  0  0  0
   -1.4173    0.2755   -7.7952 H   0  0  0  0  0  0  0  0  0  0  0  0
   -2.2067    0.9753   -5.9087 C   0  0  0  0  0  0  0  0  0  0  0  0
   -2.9759    1.5796   -6.3693 H   0  0  0  0  0  0  0  0  0  0  0  0
   -2.0925    0.9378   -4.5045 C   0  0  0  0  0  0  0  0  0  0  0  0
   -2.7694    1.5192   -3.8948 H   0  0  0  0  0  0  0  0  0  0  0  0
   -1.0942    0.1605   -3.8782 C   0  0  0  0  0  0  0  0  0  0  0  0
   -1.2663    0.1182    1.2910 C   0  0  0  0  0  0  0  0  0  0  0  0
   -0.1906    0.1931    1.8833 O   0  0  0  0  0  0  0  0  0  0  0  0
   -2.3930    0.6605    1.7722 N   0  0  0  0  0  0  0  0  0  0  0  0
   -3.2451    0.5077    1.2518 H   0  0  0  0  0  0  0  0  0  0  0  0
   -2.4787    1.3954    3.0311 C   0  0  0  0  0  0  0  0  0  0  0  0
   -1.7166    2.1767    3.0539 H   0  0  0  0  0  0  0  0  0  0  0  0
   -3.4649    1.8498    3.1344 H   0  0  0  0  0  0  0  0  0  0  0  0
   -2.3058    0.7133    3.8652 H   0  0  0  0  0  0  0  0  0  0  0  0
  5  6  2  0  0  0  0
  5  7  1  0  0  0  0
  2  3  1  0  0  0  0
  2  4  1  0  0  0  0
  2  5  1  0  0  0  0
  1  2  1  0  0  0  0
 29 30  2  0  0  0  0
 29 31  1  0  0  0  0
 26 27  1  0  0  0  0
 26 28  2  0  0  0  0
 24 25  1  0  0  0  0
 24 26  1  0  0  0  0
 22 23  1  0  0  0  0
 22 24  2  0  0  0  0
 20 21  1  0  0  0  0
 20 22  1  0  0  0  0
 19 20  2  0  0  0  0
 19 28  1  0  0  0  0
 17 18  1  0  0  0  0
 17 19  1  0  0  0  0
 15 16  1  0  0  0  0
 15 17  1  0  0  0  0
 14 15  2  0  0  0  0
 14 28  1  0  0  0  0
 11 12  1  0  0  0  0
 11 13  1  0  0  0  0
 11 14  1  0  0  0  0
  9 10  1  0  0  0  0
  9 11  1  0  0  0  0
  9 29  1  0  0  0  0
  7  8  1  0  0  0  0
  7  9  1  0  0  0  0
 33 34  1  0  0  0  0
 33 35  1  0  0  0  0
 33 36  1  0  0  0  0
 31 32  1  0  0  0  0
 31 33  1  0  0  0  0
M  END
$$$$
default_name
  -OEChem-02102213163D

 36 37  0     1  0  0  0  0  0999 V2000
   -4.0843   -4.0736    1.2944 H   0  0  0  0  0  0  0  0  0  0  0  0
   -4.0342   -3.2816    0.5484 C   0  0  0  0  0  0  0  0  0  0  0  0
   -4.8842   -2.6126    0.6694 H   0  0  0  0  0  0  0  0  0  0  0  0
   -4.0433   -3.7186   -0.4486 H   0  0  0  0  0  0  0  0  0  0  0  0
   -2.7532   -2.5046    0.7444 C   0  0  0  0  0  0  0  0  0  0  0  0
   -1.9803   -2.8096    1.6434 O   0  0  0  0  0  0  0  0  0  0  0  0
   -2.5332   -1.4966   -0.0966 N   0  0  0  0  0  0  0  0  0  0  0  0
   -3.2312   -1.2816   -0.7936 H   0  0  0  0  0  0  0  0  0  0  0  0
   -1.3593   -0.6196   -0.0536 C   0  0  1  0  0  0  0  0  0  0  0  0
   -0.4622   -1.2317   -0.1545 H   0  0  0  0  0  0  0  0  0  0  0  0
   -1.4074    0.3593   -1.2373 C   0  0  0  0  0  0  0  0  0  0  0  0
   -2.4510    0.5737   -1.4741 H   0  0  0  0  0  0  0  0  0  0  0  0
   -0.9388    1.2965   -0.9321 H   0  0  0  0  0  0  0  0  0  0  0  0
   -0.7374   -0.1212   -2.4888 C   0  0  0  0  0  0  0  0  0  0  0  0
    0.1187   -1.1642   -2.5720 C   0  0  0  0  0  0  0  0  0  0  0  0
    0.4381   -1.7691   -1.7304 H   0  0  0  0  0  0  0  0  0  0  0  0
    0.5010   -1.3472   -3.8865 N   0  0  0  0  0  0  0  0  0  0  0  0
    1.1414   -2.0683   -4.1850 H   0  0  0  0  0  0  0  0  0  0  0  0
   -0.1068   -0.4358   -4.7235 C   0  0  0  0  0  0  0  0  0  0  0  0
   -0.0667   -0.2335   -6.1105 C   0  0  0  0  0  0  0  0  0  0  0  0
    0.5408   -0.8681   -6.7389 H   0  0  0  0  0  0  0  0  0  0  0  0
   -0.8264    0.8075   -6.6710 C   0  0  0  0  0  0  0  0  0  0  0  0
   -0.8071    0.9791   -7.7387 H   0  0  0  0  0  0  0  0  0  0  0  0
   -1.6077    1.6310   -5.8399 C   0  0  0  0  0  0  0  0  0  0  0  0
   -2.1842    2.4360   -6.2743 H   0  0  0  0  0  0  0  0  0  0  0  0
   -1.6389    1.4197   -4.4468 C   0  0  0  0  0  0  0  0  0  0  0  0
   -2.2329    2.0680   -3.8183 H   0  0  0  0  0  0  0  0  0  0  0  0
   -0.8920    0.3788   -3.8538 C   0  0  0  0  0  0  0  0  0  0  0  0
   -1.2663    0.1182    1.2910 C   0  0  0  0  0  0  0  0  0  0  0  0
   -0.1906    0.1931    1.8833 O   0  0  0  0  0  0  0  0  0  0  0  0
   -2.3930    0.6605    1.7722 N   0  0  0  0  0  0  0  0  0  0  0  0
   -3.2451    0.5077    1.2518 H   0  0  0  0  0  0  0  0  0  0  0  0
   -2.4787    1.3954    3.0311 C   0  0  0  0  0  0  0  0  0  0  0  0
   -1.7166    2.1767    3.0539 H   0  0  0  0  0  0  0  0  0  0  0  0
   -3.4649    1.8498    3.1344 H   0  0  0  0  0  0  0  0  0  0  0  0
   -2.3058    0.7133    3.8652 H   0  0  0  0  0  0  0  0  0  0  0  0
  5  6  2  0  0  0  0
  5  7  1  0  0  0  0
  2  3  1  0  0  0  0
  2  4  1  0  0  0  0
  2  5  1  0  0  0  0
  1  2  1  0  0  0  0
 29 30  2  0  0  0  0
 29 31  1  0  0  0  0
 26 27  1  0  0  0  0
 26 28  2  0  0  0  0
 24 25  1  0  0  0  0
 24 26  1  0  0  0  0
 22 23  1  0  0  0  0
 22 24  2  0  0  0  0
 20 21  1  0  0  0  0
 20 22  1  0  0  0  0
 19 20  2  0  0  0  0
 19 28  1  0  0  0  0
 17 18  1  0  0  0  0
 17 19  1  0  0  0  0
 15 16  1  0  0  0  0
 15 17  1  0  0  0  0
 14 15  2  0  0  0  0
 14 28  1  0  0  0  0
 11 12  1  0  0  0  0
 11 13  1  0  0  0  0
 11 14  1  0  0  0  0
  9 10  1  0  0  0  0
  9 11  1  0  0  0  0
  9 29  1  0  0  0  0
  7  8  1  0  0  0  0
  7  9  1  0  0  0  0
 33 34  1  0  0  0  0
 33 35  1  0  0  0  0
 33 36  1  0  0  0  0
 31 32  1  0  0  0  0
 31 33  1  0  0  0  0
M  END
$$$$
default_name
  -OEChem-02102213163D

 36 37  0     1  0  0  0  0  0999 V2000
   -4.0843   -4.0736    1.2944 H   0  0  0  0  0  0  0  0  0  0  0  0
   -4.0342   -3.2816    0.5484 C   0  0  0  0  0  0  0  0  0  0  0  0
   -4.8842   -2.6126    0.6694 H   0  0  0  0  0  0  0  0  0  0  0  0
   -4.0433   -3.7186   -0.4486 H   0  0  0  0  0  0  0  0  0  0  0  0
   -2.7532   -2.5046    0.7444 C   0  0  0  0  0  0  0  0  0  0  0  0
   -1.9803   -2.8096    1.6434 O   0  0  0  0  0  0  0  0  0  0  0  0
   -2.5332   -1.4966   -0.0966 N   0  0  0  0  0  0  0  0  0  0  0  0
   -3.2312   -1.2816   -0.7936 H   0  0  0  0  0  0  0  0  0  0  0  0
   -1.3593   -0.6196   -0.0536 C   0  0  1  0  0  0  0  0  0  0  0  0
   -0.4622   -1.2317   -0.1545 H   0  0  0  0  0  0  0  0  0  0  0  0
   -1.4074    0.3593   -1.2373 C   0  0  0  0  0  0  0  0  0  0  0  0
   -2.4510    0.5737   -1.4741 H   0  0  0  0  0  0  0  0  0  0  0  0
   -0.9388    1.2965   -0.9321 H   0  0  0  0  0  0  0  0  0  0  0  0
   -0.7374   -0.1212   -2.4888 C   0  0  0  0  0  0  0  0  0  0  0  0
   -0.1170   -1.3126   -2.6412 C   0  0  0  0  0  0  0  0  0  0  0  0
   -0.0146   -2.0593   -1.8614 H   0  0  0  0  0  0  0  0  0  0  0  0
    0.3420   -1.4345   -3.9381 N   0  0  0  0  0  0  0  0  0  0  0  0
    0.8412   -2.2432   -4.2786 H   0  0  0  0  0  0  0  0  0  0  0  0
    0.0234   -0.3274   -4.6954 C   0  0  0  0  0  0  0  0  0  0  0  0
    0.2379    0.0077   -6.0400 C   0  0  0  0  0  0  0  0  0  0  0  0
    0.7549   -0.6748   -6.6985 H   0  0  0  0  0  0  0  0  0  0  0  0
   -0.2276    1.2445   -6.5182 C   0  0  0  0  0  0  0  0  0  0  0  0
   -0.0703    1.5204   -7.5521 H   0  0  0  0  0  0  0  0  0  0  0  0
   -0.8932    2.1269   -5.6477 C   0  0  0  0  0  0  0  0  0  0  0  0
   -1.2423    3.0810   -6.0177 H   0  0  0  0  0  0  0  0  0  0  0  0
   -1.1014    1.7805   -4.2976 C   0  0  0  0  0  0  0  0  0  0  0  0
   -1.6024    2.4733   -3.6364 H   0  0  0  0  0  0  0  0  0  0  0  0
   -0.6515    0.5432   -3.7882 C   0  0  0  0  0  0  0  0  0  0  0  0
   -1.2663    0.1182    1.2910 C   0  0  0  0  0  0  0  0  0  0  0  0
   -0.1906    0.1931    1.8833 O   0  0  0  0  0  0  0  0  0  0  0  0
   -2.3930    0.6605    1.7722 N   0  0  0  0  0  0  0  0  0  0  0  0
   -3.2451    0.5077    1.2518 H   0  0  0  0  0  0  0  0  0  0  0  0
   -2.4787    1.3954    3.0311 C   0  0  0  0  0  0  0  0  0  0  0  0
   -1.7166    2.1767    3.0539 H   0  0  0  0  0  0  0  0  0  0  0  0
   -3.4649    1.8498    3.1344 H   0  0  0  0  0  0  0  0  0  0  0  0
   -2.3058    0.7133    3.8652 H   0  0  0  0  0  0  0  0  0  0  0  0
  5  6  2  0  0  0  0
  5  7  1  0  0  0  0
  2  3  1  0  0  0  0
  2  4  1  0  0  0  0
  2  5  1  0  0  0  0
  1  2  1  0  0  0  0
 29 30  2  0  0  0  0
 29 31  1  0  0  0  0
 26 27  1  0  0  0  0
 26 28  2  0  0  0  0
 24 25  1  0  0  0  0
 24 26  1  0  0  0  0
 22 23  1  0  0  0  0
 22 24  2  0  0  0  0
 20 21  1  0  0  0  0
 20 22  1  0  0  0  0
 19 20  2  0  0  0  0
 19 28  1  0  0  0  0
 17 18  1  0  0  0  0
 17 19  1  0  0  0  0
 15 16  1  0  0  0  0
 15 17  1  0  0  0  0
 14 15  2  0  0  0  0
 14 28  1  0  0  0  0
 11 12  1  0  0  0  0
 11 13  1  0  0  0  0
 11 14  1  0  0  0  0
  9 10  1  0  0  0  0
  9 11  1  0  0  0  0
  9 29  1  0  0  0  0
  7  8  1  0  0  0  0
  7  9  1  0  0  0  0
 33 34  1  0  0  0  0
 33 35  1  0  0  0  0
 33 36  1  0  0  0  0
 31 32  1  0  0  0  0
 31 33  1  0  0  0  0
M  END
$$$$
default_name
  -OEChem-02102213163D

 36 37  0     1  0  0  0  0  0999 V2000
   -4.0843   -4.0736    1.2944 H   0  0  0  0  0  0  0  0  0  0  0  0
   -4.0342   -3.2816    0.5484 C   0  0  0  0  0  0  0  0  0  0  0  0
   -4.8842   -2.6126    0.6694 H   0  0  0  0  0  0  0  0  0  0  0  0
   -4.0433   -3.7186   -0.4486 H   0  0  0  0  0  0  0  0  0  0  0  0
   -2.7532   -2.5046    0.7444 C   0  0  0  0  0  0  0  0  0  0  0  0
   -1.9803   -2.8096    1.6434 O   0  0  0  0  0  0  0  0  0  0  0  0
   -2.5332   -1.4966   -0.0966 N   0  0  0  0  0  0  0  0  0  0  0  0
   -3.2312   -1.2816   -0.7936 H   0  0  0  0  0  0  0  0  0  0  0  0
   -1.3593   -0.6196   -0.0536 C   0  0  1  0  0  0  0  0  0  0  0  0
   -0.4622   -1.2317   -0.1545 H   0  0  0  0  0  0  0  0  0  0  0  0
   -1.4074    0.3593   -1.2373 C   0  0  0  0  0  0  0  0  0  0  0  0
   -2.4510    0.5737   -1.4741 H   0  0  0  0  0  0  0  0  0  0  0  0
   -0.9388    1.2965   -0.9321 H   0  0  0  0  0  0  0  0  0  0  0  0
   -0.7374   -0.1212   -2.4888 C   0  0  0  0  0  0  0  0  0  0  0  0
   -0.3711   -1.3971   -2.7447 C   0  0  0  0  0  0  0  0  0  0  0  0
   -0.5038   -2.2267   -2.0590 H   0  0  0  0  0  0  0  0  0  0  0  0
    0.1738   -1.4785   -4.0112 N   0  0  0  0  0  0  0  0  0  0  0  0
    0.5212   -2.3365   -4.4141 H   0  0  0  0  0  0  0  0  0  0  0  0
    0.1703   -0.2541   -4.6449 C   0  0  0  0  0  0  0  0  0  0  0  0
    0.5784    0.1666   -5.9188 C   0  0  0  0  0  0  0  0  0  0  0  0
    1.0001   -0.5391   -6.6193 H   0  0  0  0  0  0  0  0  0  0  0  0
    0.4326    1.5195   -6.2703 C   0  0  0  0  0  0  0  0  0  0  0  0
    0.7429    1.8624   -7.2481 H   0  0  0  0  0  0  0  0  0  0  0  0
   -0.1117    2.4293   -5.3455 C   0  0  0  0  0  0  0  0  0  0  0  0
   -0.2143    3.4708   -5.6171 H   0  0  0  0  0  0  0  0  0  0  0  0
   -0.5167    1.9956   -4.0671 C   0  0  0  0  0  0  0  0  0  0  0  0
   -0.9209    2.7075   -3.3615 H   0  0  0  0  0  0  0  0  0  0  0  0
   -0.3891    0.6424   -3.6858 C   0  0  0  0  0  0  0  0  0  0  0  0
   -1.2663    0.1182    1.2910 C   0  0  0  0  0  0  0  0  0  0  0  0
   -0.1906    0.1931    1.8833 O   0  0  0  0  0  0  0  0  0  0  0  0
   -2.3930    0.6605    1.7722 N   0  0  0  0  0  0  0  0  0  0  0  0
   -3.2451    0.5077    1.2518 H   0  0  0  0  0  0  0  0  0  0  0  0
   -2.4787    1.3954    3.0311 C   0  0  0  0  0  0  0  0  0  0  0  0
   -1.7166    2.1767    3.0539 H   0  0  0  0  0  0  0  0  0  0  0  0
   -3.4649    1.8498    3.1344 H   0  0  0  0  0  0  0  0  0  0  0  0
   -2.3058    0.7133    3.8652 H   0  0  0  0  0  0  0  0  0  0  0  0
  5  6  2  0  0  0  0
  5  7  1  0  0  0  0
  2  3  1  0  0  0  0
  2  4  1  0  0  0  0
  2  5  1  0  0  0  0
  1  2  1  0  0  0  0
 29 30  2  0  0  0  0
 29 31  1  0  0  0  0
 26 27  1  0  0  0  0
 26 28  2  0  0  0  0
 24 25  1  0  0  0  0
 24 26  1  0  0  0  0
 22 23  1  0  0  0  0
 22 24  2  0  0  0  0
 20 21  1  0  0  0  0
 20 22  1  0  0  0  0
 19 20  2  0  0  0  0
 19 28  1  0  0  0  0
 17 18  1  0  0  0  0
 17 19  1  0  0  0  0
 15 16  1  0  0  0  0
 15 17  1  0  0  0  0
 14 15  2  0  0  0  0
 14 28  1  0  0  0  0
 11 12  1  0  0  0  0
 11 13  1  0  0  0  0
 11 14  1  0  0  0  0
  9 10  1  0  0  0  0
  9 11  1  0  0  0  0
  9 29  1  0  0  0  0
  7  8  1  0  0  0  0
  7  9  1  0  0  0  0
 33 34  1  0  0  0  0
 33 35  1  0  0  0  0
 33 36  1  0  0  0  0
 31 32  1  0  0  0  0
 31 33  1  0  0  0  0
M  END
$$$$
default_name
  -OEChem-02102213163D

 36 37  0     1  0  0  0  0  0999 V2000
   -4.0843   -4.0736    1.2944 H   0  0  0  0  0  0  0  0  0  0  0  0
   -4.0342   -3.2816    0.5484 C   0  0  0  0  0  0  0  0  0  0  0  0
   -4.8842   -2.6126    0.6694 H   0  0  0  0  0  0  0  0  0  0  0  0
   -4.0433   -3.7186   -0.4486 H   0  0  0  0  0  0  0  0  0  0  0  0
   -2.7532   -2.5046    0.7444 C   0  0  0  0  0  0  0  0  0  0  0  0
   -1.9803   -2.8096    1.6434 O   0  0  0  0  0  0  0  0  0  0  0  0
   -2.5332   -1.4966   -0.0966 N   0  0  0  0  0  0  0  0  0  0  0  0
   -3.2312   -1.2816   -0.7936 H   0  0  0  0  0  0  0  0  0  0  0  0
   -1.3593   -0.6196   -0.0536 C   0  0  1  0  0  0  0  0  0  0  0  0
   -0.4622   -1.2317   -0.1545 H   0  0  0  0  0  0  0  0  0  0  0  0
   -1.4074    0.3593   -1.2373 C   0  0  0  0  0  0  0  0  0  0  0  0
   -2.4510    0.5737   -1.4741 H   0  0  0  0  0  0  0  0  0  0  0  0
   -0.9388    1.2965   -0.9321 H   0  0  0  0  0  0  0  0  0  0  0  0
   -0.7374   -0.1212   -2.4888 C   0  0  0  0  0  0  0  0  0  0  0  0
   -0.6261   -1.4118   -2.8756 C   0  0  0  0  0  0  0  0  0  0  0  0
   -0.9961   -2.2598   -2.3098 H   0  0  0  0  0  0  0  0  0  0  0  0
    0.0079   -1.4761   -4.1009 N   0  0  0  0  0  0  0  0  0  0  0  0
    0.2031   -2.3418   -4.5823 H   0  0  0  0  0  0  0  0  0  0  0  0
    0.3238   -0.2208   -4.5755 C   0  0  0  0  0  0  0  0  0  0  0  0
    0.9316    0.2326   -5.7551 C   0  0  0  0  0  0  0  0  0  0  0  0
    1.2598   -0.4701   -6.5068 H   0  0  0  0  0  0  0  0  0  0  0  0
    1.1092    1.6137   -5.9444 C   0  0  0  0  0  0  0  0  0  0  0  0
    1.5770    1.9818   -6.8475 H   0  0  0  0  0  0  0  0  0  0  0  0
    0.6834    2.5175   -4.9537 C   0  0  0  0  0  0  0  0  0  0  0  0
    0.8296    3.5788   -5.0998 H   0  0  0  0  0  0  0  0  0  0  0  0
    0.0756    2.0503   -3.7711 C   0  0  0  0  0  0  0  0  0  0  0  0
   -0.2348    2.7546   -3.0123 H   0  0  0  0  0  0  0  0  0  0  0  0
   -0.1228    0.6696   -3.5537 C   0  0  0  0  0  0  0  0  0  0  0  0
   -1.2663    0.1182    1.2910 C   0  0  0  0  0  0  0  0  0  0  0  0
   -0.1906    0.1931    1.8833 O   0  0  0  0  0  0  0  0  0  0  0  0
   -2.3930    0.6605    1.7722 N   0  0  0  0  0  0  0  0  0  0  0  0
   -3.2451    0.5077    1.2518 H   0  0  0  0  0  0  0  0  0  0  0  0
   -2.4787    1.3954    3.0311 C   0  0  0  0  0  0  0  0  0  0  0  0
   -1.7166    2.1767    3.0539 H   0  0  0  0  0  0  0  0  0  0  0  0
   -3.4649    1.8498    3.1344 H   0  0  0  0  0  0  0  0  0  0  0  0
   -2.3058    0.7133    3.8652 H   0  0  0  0  0  0  0  0  0  0  0  0
  5  6  2  0  0  0  0
  5  7  1  0  0  0  0
  2  3  1  0  0  0  0
  2  4  1  0  0  0  0
  2  5  1  0  0  0  0
  1  2  1  0  0  0  0
 29 30  2  0  0  0  0
 29 31  1  0  0  0  0
 26 27  1  0  0  0  0
 26 28  2  0  0  0  0
 24 25  1  0  0  0  0
 24 26  1  0  0  0  0
 22 23  1  0  0  0  0
 22 24  2  0  0  0  0
 20 21  1  0  0  0  0
 20 22  1  0  0  0  0
 19 20  2  0  0  0  0
 19 28  1  0  0  0  0
 17 18  1  0  0  0  0
 17 19  1  0  0  0  0
 15 16  1  0  0  0  0
 15 17  1  0  0  0  0
 14 15  2  0  0  0  0
 14 28  1  0  0  0  0
 11 12  1  0  0  0  0
 11 13  1  0  0  0  0
 11 14  1  0  0  0  0
  9 10  1  0  0  0  0
  9 11  1  0  0  0  0
  9 29  1  0  0  0  0
  7  8  1  0  0  0  0
  7  9  1  0  0  0  0
 33 34  1  0  0  0  0
 33 35  1  0  0  0  0
 33 36  1  0  0  0  0
 31 32  1  0  0  0  0
 31 33  1  0  0  0  0
M  END
$$$$
default_name
  -OEChem-02102213163D

 36 37  0     1  0  0  0  0  0999 V2000
   -4.0843   -4.0736    1.2944 H   0  0  0  0  0  0  0  0  0  0  0  0
   -4.0342   -3.2816    0.5484 C   0  0  0  0  0  0  0  0  0  0  0  0
   -4.8842   -2.6126    0.6694 H   0  0  0  0  0  0  0  0  0  0  0  0
   -4.0433   -3.7186   -0.4486 H   0  0  0  0  0  0  0  0  0  0  0  0
   -2.7532   -2.5046    0.7444 C   0  0  0  0  0  0  0  0  0  0  0  0
   -1.9803   -2.8096    1.6434 O   0  0  0  0  0  0  0  0  0  0  0  0
   -2.5332   -1.4966   -0.0966 N   0  0  0  0  0  0  0  0  0  0  0  0
   -3.2312   -1.2816   -0.7936 H   0  0  0  0  0  0  0  0  0  0  0  0
   -1.3593   -0.6196   -0.0536 C   0  0  1  0  0  0  0  0  0  0  0  0
   -0.4622   -1.2317   -0.1545 H   0  0  0  0  0  0  0  0  0  0  0  0
   -1.4074    0.3593   -1.2373 C   0  0  0  0  0  0  0  0  0  0  0  0
   -2.4510    0.5737   -1.4741 H   0  0  0  0  0  0  0  0  0  0  0  0
   -0.9388    1.2965   -0.9321 H   0  0  0  0  0  0  0  0  0  0  0  0
   -0.7374   -0.1212   -2.4888 C   0  0  0  0  0  0  0  0  0  0  0  0
   -0.8648   -1.3557   -3.0249 C   0  0  0  0  0  0  0  0  0  0  0  0
   -1.4580   -2.1563   -2.5968 H   0  0  0  0  0  0  0  0  0  0  0  0
   -0.1444   -1.4276   -4.2011 N   0  0  0  0  0  0  0  0  0  0  0  0
   -0.0913   -2.2587   -4.7718 H   0  0  0  0  0  0  0  0  0  0  0  0
    0.4735   -0.2300   -4.4918 C   0  0  0  0  0  0  0  0  0  0  0  0
    1.2734    0.2010   -5.5600 C   0  0  0  0  0  0  0  0  0  0  0  0
    1.5161   -0.4727   -6.3686 H   0  0  0  0  0  0  0  0  0  0  0  0
    1.7561    1.5208   -5.5624 C   0  0  0  0  0  0  0  0  0  0  0  0
    2.3753    1.8705   -6.3774 H   0  0  0  0  0  0  0  0  0  0  0  0
    1.4380    2.3855   -4.4991 C   0  0  0  0  0  0  0  0  0  0  0  0
    1.8184    3.3976   -4.5009 H   0  0  0  0  0  0  0  0  0  0  0  0
    0.6348    1.9409   -3.4297 C   0  0  0  0  0  0  0  0  0  0  0  0
    0.4091    2.6113   -2.6126 H   0  0  0  0  0  0  0  0  0  0  0  0
    0.1294    0.6231   -3.4008 C   0  0  0  0  0  0  0  0  0  0  0  0
   -1.2663    0.1182    1.2910 C   0  0  0  0  0  0  0  0  0  0  0  0
   -0.1906    0.1931    1.8833 O   0  0  0  0  0  0  0  0  0  0  0  0
   -2.3930    0.6605    1.7722 N   0  0  0  0  0  0  0  0  0  0  0  0
   -3.2451    0.5077    1.2518 H   0  0  0  0  0  0  0  0  0  0  0  0
   -2.4787    1.3954    3.0311 C   0  0  0  0  0  0  0  0  0  0  0  0
   -1.7166    2.1767    3.0539 H   0  0  0  0  0  0  0  0  0  0  0  0
   -3.4649    1.8498    3.1344 H   0  0  0  0  0  0  0  0  0  0  0  0
   -2.3058    0.7133    3.8652 H   0  0  0  0  0  0  0  0  0  0  0  0
  5  6  2  0  0  0  0
  5  7  1  0  0  0  0
  2  3  1  0  0  0  0
  2  4  1  0  0  0  0
  2  5  1  0  0  0  0
  1  2  1  0  0  0  0
 29 30  2  0  0  0  0
 29 31  1  0  0  0  0
 26 27  1  0  0  0  0
 26 28  2  0  0  0  0
 24 25  1  0  0  0  0
 24 26  1  0  0  0  0
 22 23  1  0  0  0  0
 22 24  2  0  0  0  0
 20 21  1  0  0  0  0
 20 22  1  0  0  0  0
 19 20  2  0  0  0  0
 19 28  1  0  0  0  0
 17 18  1  0  0  0  0
 17 19  1  0  0  0  0
 15 16  1  0  0  0  0
 15 17  1  0  0  0  0
 14 15  2  0  0  0  0
 14 28  1  0  0  0  0
 11 12  1  0  0  0  0
 11 13  1  0  0  0  0
 11 14  1  0  0  0  0
  9 10  1  0  0  0  0
  9 11  1  0  0  0  0
  9 29  1  0  0  0  0
  7  8  1  0  0  0  0
  7  9  1  0  0  0  0
 33 34  1  0  0  0  0
 33 35  1  0  0  0  0
 33 36  1  0  0  0  0
 31 32  1  0  0  0  0
 31 33  1  0  0  0  0
M  END
$$$$
default_name
  -OEChem-02102213163D

 36 37  0     1  0  0  0  0  0999 V2000
   -4.0843   -4.0736    1.2944 H   0  0  0  0  0  0  0  0  0  0  0  0
   -4.0342   -3.2816    0.5484 C   0  0  0  0  0  0  0  0  0  0  0  0
   -4.8842   -2.6126    0.6694 H   0  0  0  0  0  0  0  0  0  0  0  0
   -4.0433   -3.7186   -0.4486 H   0  0  0  0  0  0  0  0  0  0  0  0
   -2.7532   -2.5046    0.7444 C   0  0  0  0  0  0  0  0  0  0  0  0
   -1.9803   -2.8096    1.6434 O   0  0  0  0  0  0  0  0  0  0  0  0
   -2.5332   -1.4966   -0.0966 N   0  0  0  0  0  0  0  0  0  0  0  0
   -3.2312   -1.2816   -0.7936 H   0  0  0  0  0  0  0  0  0  0  0  0
   -1.3593   -0.6196   -0.0536 C   0  0  1  0  0  0  0  0  0  0  0  0
   -0.4622   -1.2317   -0.1545 H   0  0  0  0  0  0  0  0  0  0  0  0
   -1.4074    0.3593   -1.2373 C   0  0  0  0  0  0  0  0  0  0  0  0
   -2.4510    0.5737   -1.4741 H   0  0  0  0  0  0  0  0  0  0  0  0
   -0.9388    1.2965   -0.9321 H   0  0  0  0  0  0  0  0  0  0  0  0
   -0.7374   -0.1212   -2.4888 C   0  0  0  0  0  0  0  0  0  0  0  0
   -1.0708   -1.2327   -3.1824 C   0  0  0  0  0  0  0  0  0  0  0  0
   -1.8579   -1.9233   -2.9003 H   0  0  0  0  0  0  0  0  0  0  0  0
   -0.2727   -1.3363   -4.3048 N   0  0  0  0  0  0  0  0  0  0  0  0
   -0.3420   -2.0928   -4.9697 H   0  0  0  0  0  0  0  0  0  0  0  0
    0.6092   -0.2808   -4.3997 C   0  0  0  0  0  0  0  0  0  0  0  0
    1.5806    0.0740   -5.3468 C   0  0  0  0  0  0  0  0  0  0  0  0
    1.7518   -0.5465   -6.2141 H   0  0  0  0  0  0  0  0  0  0  0  0
    2.3291    1.2471   -5.1506 C   0  0  0  0  0  0  0  0  0  0  0  0
    3.0833    1.5361   -5.8700 H   0  0  0  0  0  0  0  0  0  0  0  0
    2.1006    2.0423   -4.0126 C   0  0  0  0  0  0  0  0  0  0  0  0
    2.6846    2.9396   -3.8614 H   0  0  0  0  0  0  0  0  0  0  0  0
    1.1231    1.6749   -3.0662 C   0  0  0  0  0  0  0  0  0  0  0  0
    0.9669    2.2876   -2.1897 H   0  0  0  0  0  0  0  0  0  0  0  0
    0.3503    0.5060   -3.2376 C   0  0  0  0  0  0  0  0  0  0  0  0
   -1.2663    0.1182    1.2910 C   0  0  0  0  0  0  0  0  0  0  0  0
   -0.1906    0.1931    1.8833 O   0  0  0  0  0  0  0  0  0  0  0  0
   -2.3930    0.6605    1.7722 N   0  0  0  0  0  0  0  0  0  0  0  0
   -3.2451    0.5077    1.2518 H   0  0  0  0  0  0  0  0  0  0  0  0
   -2.4787    1.3954    3.0311 C   0  0  0  0  0  0  0  0  0  0  0  0
   -1.7166    2.1767    3.0539 H   0  0  0  0  0  0  0  0  0  0  0  0
   -3.4649    1.8498    3.1344 H   0  0  0  0  0  0  0  0  0  0  0  0
   -2.3058    0.7133    3.8652 H   0  0  0  0  0  0  0  0  0  0  0  0
  5  6  2  0  0  0  0
  5  7  1  0  0  0  0
  2  3  1  0  0  0  0
  2  4  1  0  0  0  0
  2  5  1  0  0  0  0
  1  2  1  0  0  0  0
 29 30  2  0  0  0  0
 29 31  1  0  0  0  0
 26 27  1  0  0  0  0
 26 28  2  0  0  0  0
 24 25  1  0  0  0  0
 24 26  1  0  0  0  0
 22 23  1  0  0  0  0
 22 24  2  0  0  0  0
 20 21  1  0  0  0  0
 20 22  1  0  0  0  0
 19 20  2  0  0  0  0
 19 28  1  0  0  0  0
 17 18  1  0  0  0  0
 17 19  1  0  0  0  0
 15 16  1  0  0  0  0
 15 17  1  0  0  0  0
 14 15  2  0  0  0  0
 14 28  1  0  0  0  0
 11 12  1  0  0  0  0
 11 13  1  0  0  0  0
 11 14  1  0  0  0  0
  9 10  1  0  0  0  0
  9 11  1  0  0  0  0
  9 29  1  0  0  0  0
  7  8  1  0  0  0  0
  7  9  1  0  0  0  0
 33 34  1  0  0  0  0
 33 35  1  0  0  0  0
 33 36  1  0  0  0  0
 31 32  1  0  0  0  0
 31 33  1  0  0  0  0
M  END
$$$$
default_name
  -OEChem-02102213163D

 36 37  0     1  0  0  0  0  0999 V2000
   -4.0843   -4.0736    1.2944 H   0  0  0  0  0  0  0  0  0  0  0  0
   -4.0342   -3.2816    0.5484 C   0  0  0  0  0  0  0  0  0  0  0  0
   -4.8842   -2.6126    0.6694 H   0  0  0  0  0  0  0  0  0  0  0  0
   -4.0433   -3.7186   -0.4486 H   0  0  0  0  0  0  0  0  0  0  0  0
   -2.7532   -2.5046    0.7444 C   0  0  0  0  0  0  0  0  0  0  0  0
   -1.9803   -2.8096    1.6434 O   0  0  0  0  0  0  0  0  0  0  0  0
   -2.5332   -1.4966   -0.0966 N   0  0  0  0  0  0  0  0  0  0  0  0
   -3.2312   -1.2816   -0.7936 H   0  0  0  0  0  0  0  0  0  0  0  0
   -1.3593   -0.6196   -0.0536 C   0  0  1  0  0  0  0  0  0  0  0  0
   -0.4622   -1.2317   -0.1545 H   0  0  0  0  0  0  0  0  0  0  0  0
   -1.4074    0.3593   -1.2373 C   0  0  0  0  0  0  0  0  0  0  0  0
   -2.4510    0.5737   -1.4741 H   0  0  0  0  0  0  0  0  0  0  0  0
   -0.9388    1.2965   -0.9321 H   0  0  0  0  0  0  0  0  0  0  0  0
   -0.7374   -0.1212   -2.4888 C   0  0  0  0  0  0  0  0  0  0  0  0
   -1.2301   -1.0511   -3.3374 C   0  0  0  0  0  0  0  0  0  0  0  0
   -2.1687   -1.5767   -3.1998 H   0  0  0  0  0  0  0  0  0  0  0  0
   -0.3682   -1.2083   -4.4051 N   0  0  0  0  0  0  0  0  0  0  0  0
   -0.5318   -1.8555   -5.1624 H   0  0  0  0  0  0  0  0  0  0  0  0
    0.7217   -0.3699   -4.3053 C   0  0  0  0  0  0  0  0  0  0  0  0
    1.8321   -0.1397   -5.1301 C   0  0  0  0  0  0  0  0  0  0  0  0
    1.9506   -0.6866   -6.0539 H   0  0  0  0  0  0  0  0  0  0  0  0
    2.7893    0.8112   -4.7369 C   0  0  0  0  0  0  0  0  0  0  0  0
    3.6529    1.0013   -5.3598 H   0  0  0  0  0  0  0  0  0  0  0  0
    2.6261    1.5113   -3.5275 C   0  0  0  0  0  0  0  0  0  0  0  0
    3.3692    2.2359   -3.2247 H   0  0  0  0  0  0  0  0  0  0  0  0
    1.5071    1.2703   -2.7053 C   0  0  0  0  0  0  0  0  0  0  0  0
    1.4007    1.8054   -1.7724 H   0  0  0  0  0  0  0  0  0  0  0  0
    0.5248    0.3262   -3.0752 C   0  0  0  0  0  0  0  0  0  0  0  0
   -1.2663    0.1182    1.2910 C   0  0  0  0  0  0  0  0  0  0  0  0
   -0.1906    0.1931    1.8833 O   0  0  0  0  0  0  0  0  0  0  0  0
   -2.3930    0.6605    1.7722 N   0  0  0  0  0  0  0  0  0  0  0  0
   -3.2451    0.5077    1.2518 H   0  0  0  0  0  0  0  0  0  0  0  0
   -2.4787    1.3954    3.0311 C   0  0  0  0  0  0  0  0  0  0  0  0
   -1.7166    2.1767    3.0539 H   0  0  0  0  0  0  0  0  0  0  0  0
   -3.4649    1.8498    3.1344 H   0  0  0  0  0  0  0  0  0  0  0  0
   -2.3058    0.7133    3.8652 H   0  0  0  0  0  0  0  0  0  0  0  0
  5  6  2  0  0  0  0
  5  7  1  0  0  0  0
  2  3  1  0  0  0  0
  2  4  1  0  0  0  0
  2  5  1  0  0  0  0
  1  2  1  0  0  0  0
 29 30  2  0  0  0  0
 29 31  1  0  0  0  0
 26 27  1  0  0  0  0
 26 28  2  0  0  0  0
 24 25  1  0  0  0  0
 24 26  1  0  0  0  0
 22 23  1  0  0  0  0
 22 24  2  0  0  0  0
 20 21  1  0  0  0  0
 20 22  1  0  0  0  0
 19 20  2  0  0  0  0
 19 28  1  0  0  0  0
 17 18  1  0  0  0  0
 17 19  1  0  0  0  0
 15 16  1  0  0  0  0
 15 17  1  0  0  0  0
 14 15  2  0  0  0  0
 14 28  1  0  0  0  0
 11 12  1  0  0  0  0
 11 13  1  0  0  0  0
 11 14  1  0  0  0  0
  9 10  1  0  0  0  0
  9 11  1  0  0  0  0
  9 29  1  0  0  0  0
  7  8  1  0  0  0  0
  7  9  1  0  0  0  0
 33 34  1  0  0  0  0
 33 35  1  0  0  0  0
 33 36  1  0  0  0  0
 31 32  1  0  0  0  0
 31 33  1  0  0  0  0
M  END
$$$$
default_name
  -OEChem-02102213163D

 36 37  0     1  0  0  0  0  0999 V2000
   -4.0843   -4.0736    1.2944 H   0  0  0  0  0  0  0  0  0  0  0  0
   -4.0342   -3.2816    0.5484 C   0  0  0  0  0  0  0  0  0  0  0  0
   -4.8842   -2.6126    0.6694 H   0  0  0  0  0  0  0  0  0  0  0  0
   -4.0433   -3.7186   -0.4486 H   0  0  0  0  0  0  0  0  0  0  0  0
   -2.7532   -2.5046    0.7444 C   0  0  0  0  0  0  0  0  0  0  0  0
   -1.9803   -2.8096    1.6434 O   0  0  0  0  0  0  0  0  0  0  0  0
   -2.5332   -1.4966   -0.0966 N   0  0  0  0  0  0  0  0  0  0  0  0
   -3.2312   -1.2816   -0.7936 H   0  0  0  0  0  0  0  0  0  0  0  0
   -1.3593   -0.6196   -0.0536 C   0  0  1  0  0  0  0  0  0  0  0  0
   -0.4622   -1.2317   -0.1545 H   0  0  0  0  0  0  0  0  0  0  0  0
   -1.4074    0.3593   -1.2373 C   0  0  0  0  0  0  0  0  0  0  0  0
   -2.4510    0.5737   -1.4741 H   0  0  0  0  0  0  0  0  0  0  0  0
   -0.9388    1.2965   -0.9321 H   0  0  0  0  0  0  0  0  0  0  0  0
   -0.7374   -0.1212   -2.4888 C   0  0  0  0  0  0  0  0  0  0  0  0
   -1.3319   -0.8233   -3.4794 C   0  0  0  0  0  0  0  0  0  0  0  0
   -2.3691   -1.1401   -3.4747 H   0  0  0  0  0  0  0  0  0  0  0  0
   -0.4246   -1.0524   -4.4951 N   0  0  0  0  0  0  0  0  0  0  0  0
   -0.6480   -1.5630   -5.3369 H   0  0  0  0  0  0  0  0  0  0  0  0
    0.8032   -0.4912   -4.2151 C   0  0  0  0  0  0  0  0  0  0  0  0
    2.0109   -0.4256   -4.9246 C   0  0  0  0  0  0  0  0  0  0  0  0
    2.0990   -0.8835   -5.8989 H   0  0  0  0  0  0  0  0  0  0  0  0
    3.1053    0.2428   -4.3495 C   0  0  0  0  0  0  0  0  0  0  0  0
    4.0450    0.3026   -4.8816 H   0  0  0  0  0  0  0  0  0  0  0  0
    2.9787    0.8286   -3.0767 C   0  0  0  0  0  0  0  0  0  0  0  0
    3.8256    1.3346   -2.6344 H   0  0  0  0  0  0  0  0  0  0  0  0
    1.7605    0.7548   -2.3717 C   0  0  0  0  0  0  0  0  0  0  0  0
    1.6808    1.1976   -1.3891 H   0  0  0  0  0  0  0  0  0  0  0  0
    0.6410    0.0960   -2.9246 C   0  0  0  0  0  0  0  0  0  0  0  0
   -1.2663    0.1182    1.2910 C   0  0  0  0  0  0  0  0  0  0  0  0
   -0.1906    0.1931    1.8833 O   0  0  0  0  0  0  0  0  0  0  0  0
   -2.3930    0.6605    1.7722 N   0  0  0  0  0  0  0  0  0  0  0  0
   -3.2451    0.5077    1.2518 H   0  0  0  0  0  0  0  0  0  0  0  0
   -2.4787    1.3954    3.0311 C   0  0  0  0  0  0  0  0  0  0  0  0
   -1.7166    2.1767    3.0539 H   0  0  0  0  0  0  0  0  0  0  0  0
   -3.4649    1.8498    3.1344 H   0  0  0  0  0  0  0  0  0  0  0  0
   -2.3058    0.7133    3.8652 H   0  0  0  0  0  0  0  0  0  0  0  0
  5  6  2  0  0  0  0
  5  7  1  0  0  0  0
  2  3  1  0  0  0  0
  2  4  1  0  0  0  0
  2  5  1  0  0  0  0
  1  2  1  0  0  0  0
 29 30  2  0  0  0  0
 29 31  1  0  0  0  0
 26 27  1  0  0  0  0
 26 28  2  0  0  0  0
 24 25  1  0  0  0  0
 24 26  1  0  0  0  0
 22 23  1  0  0  0  0
 22 24  2  0  0  0  0
 20 21  1  0  0  0  0
 20 22  1  0  0  0  0
 19 20  2  0  0  0  0
 19 28  1  0  0  0  0
 17 18  1  0  0  0  0
 17 19  1  0  0  0  0
 15 16  1  0  0  0  0
 15 17  1  0  0  0  0
 14 15  2  0  0  0  0
 14 28  1  0  0  0  0
 11 12  1  0  0  0  0
 11 13  1  0  0  0  0
 11 14  1  0  0  0  0
  9 10  1  0  0  0  0
  9 11  1  0  0  0  0
  9 29  1  0  0  0  0
  7  8  1  0  0  0  0
  7  9  1  0  0  0  0
 33 34  1  0  0  0  0
 33 35  1  0  0  0  0
 33 36  1  0  0  0  0
 31 32  1  0  0  0  0
 31 33  1  0  0  0  0
M  END
$$$$
default_name
  -OEChem-02102213163D

 36 37  0     1  0  0  0  0  0999 V2000
   -4.0843   -4.0736    1.2944 H   0  0  0  0  0  0  0  0  0  0  0  0
   -4.0342   -3.2816    0.5484 C   0  0  0  0  0  0  0  0  0  0  0  0
   -4.8842   -2.6126    0.6694 H   0  0  0  0  0  0  0  0  0  0  0  0
   -4.0433   -3.7186   -0.4486 H   0  0  0  0  0  0  0  0  0  0  0  0
   -2.7532   -2.5046    0.7444 C   0  0  0  0  0  0  0  0  0  0  0  0
   -1.9803   -2.8096    1.6434 O   0  0  0  0  0  0  0  0  0  0  0  0
   -2.5332   -1.4966   -0.0966 N   0  0  0  0  0  0  0  0  0  0  0  0
   -3.2312   -1.2816   -0.7936 H   0  0  0  0  0  0  0  0  0  0  0  0
   -1.3593   -0.6196   -0.0536 C   0  0  1  0  0  0  0  0  0  0  0  0
   -0.4622   -1.2317   -0.1545 H   0  0  0  0  0  0  0  0  0  0  0  0
   -1.4074    0.3593   -1.2373 C   0  0  0  0  0  0  0  0  0  0  0  0
   -2.4510    0.5737   -1.4741 H   0  0  0  0  0  0  0  0  0  0  0  0
   -0.9388    1.2965   -0.9321 H   0  0  0  0  0  0  0  0  0  0  0  0
   -0.7374   -0.1212   -2.4888 C   0  0  0  0  0  0  0  0  0  0  0  0
   -1.3693   -0.5649   -3.5986 C   0  0  0  0  0  0  0  0  0  0  0  0
   -2.4455   -0.6432   -3.7063 H   0  0  0  0  0  0  0  0  0  0  0  0
   -0.4378   -0.8793   -4.5687 N   0  0  0  0  0  0  0  0  0  0  0  0
   -0.6824   -1.2352   -5.4812 H   0  0  0  0  0  0  0  0  0  0  0  0
    0.8482   -0.6364   -4.1352 C   0  0  0  0  0  0  0  0  0  0  0  0
    2.1048   -0.7641   -4.7444 C   0  0  0  0  0  0  0  0  0  0  0  0
    2.1870   -1.1237   -5.7596 H   0  0  0  0  0  0  0  0  0  0  0  0
    3.2554   -0.4194   -4.0149 C   0  0  0  0  0  0  0  0  0  0  0  0
    4.2332   -0.5123   -4.4680 H   0  0  0  0  0  0  0  0  0  0  0  0
    3.1343    0.0409   -2.6910 C   0  0  0  0  0  0  0  0  0  0  0  0
    4.0227    0.2971   -2.1305 H   0  0  0  0  0  0  0  0  0  0  0  0
    1.8663    0.1634   -2.0881 C   0  0  0  0  0  0  0  0  0  0  0  0
    1.7882    0.5056   -1.0659 H   0  0  0  0  0  0  0  0  0  0  0  0
    0.6910   -0.1688   -2.7961 C   0  0  0  0  0  0  0  0  0  0  0  0
   -1.2663    0.1182    1.2910 C   0  0  0  0  0  0  0  0  0  0  0  0
   -0.1906    0.1931    1.8833 O   0  0  0  0  0  0  0  0  0  0  0  0
   -2.3930    0.6605    1.7722 N   0  0  0  0  0  0  0  0  0  0  0  0
   -3.2451    0.5077    1.2518 H   0  0  0  0  0  0  0  0  0  0  0  0
   -2.4787    1.3954    3.0311 C   0  0  0  0  0  0  0  0  0  0  0  0
   -1.7166    2.1767    3.0539 H   0  0  0  0  0  0  0  0  0  0  0  0
   -3.4649    1.8498    3.1344 H   0  0  0  0  0  0  0  0  0  0  0  0
   -2.3058    0.7133    3.8652 H   0  0  0  0  0  0  0  0  0  0  0  0
  5  6  2  0  0  0  0
  5  7  1  0  0  0  0
  2  3  1  0  0  0  0
  2  4  1  0  0  0  0
  2  5  1  0  0  0  0
  1  2  1  0  0  0  0
 29 30  2  0  0  0  0
 29 31  1  0  0  0  0
 26 27  1  0  0  0  0
 26 28  2  0  0  0  0
 24 25  1  0  0  0  0
 24 26  1  0  0  0  0
 22 23  1  0  0  0  0
 22 24  2  0  0  0  0
 20 21  1  0  0  0  0
 20 22  1  0  0  0  0
 19 20  2  0  0  0  0
 19 28  1  0  0  0  0
 17 18  1  0  0  0  0
 17 19  1  0  0  0  0
 15 16  1  0  0  0  0
 15 17  1  0  0  0  0
 14 15  2  0  0  0  0
 14 28  1  0  0  0  0
 11 12  1  0  0  0  0
 11 13  1  0  0  0  0
 11 14  1  0  0  0  0
  9 10  1  0  0  0  0
  9 11  1  0  0  0  0
  9 29  1  0  0  0  0
  7  8  1  0  0  0  0
  7  9  1  0  0  0  0
 33 34  1  0  0  0  0
 33 35  1  0  0  0  0
 33 36  1  0  0  0  0
 31 32  1  0  0  0  0
 31 33  1  0  0  0  0
M  END
$$$$
default_name
  -OEChem-02102213163D

 36 37  0     1  0  0  0  0  0999 V2000
   -4.0843   -4.0736    1.2944 H   0  0  0  0  0  0  0  0  0  0  0  0
   -4.0342   -3.2816    0.5484 C   0  0  0  0  0  0  0  0  0  0  0  0
   -4.8842   -2.6126    0.6694 H   0  0  0  0  0  0  0  0  0  0  0  0
   -4.0433   -3.7186   -0.4486 H   0  0  0  0  0  0  0  0  0  0  0  0
   -2.7532   -2.5046    0.7444 C   0  0  0  0  0  0  0  0  0  0  0  0
   -1.9803   -2.8096    1.6434 O   0  0  0  0  0  0  0  0  0  0  0  0
   -2.5332   -1.4966   -0.0966 N   0  0  0  0  0  0  0  0  0  0  0  0
   -3.2312   -1.2816   -0.7936 H   0  0  0  0  0  0  0  0  0  0  0  0
   -1.3593   -0.6196   -0.0536 C   0  0  1  0  0  0  0  0  0  0  0  0
   -0.4622   -1.2317   -0.1545 H   0  0  0  0  0  0  0  0  0  0  0  0
   -1.4074    0.3593   -1.2373 C   0  0  0  0  0  0  0  0  0  0  0  0
   -2.4510    0.5737   -1.4741 H   0  0  0  0  0  0  0  0  0  0  0  0
   -0.9388    1.2965   -0.9321 H   0  0  0  0  0  0  0  0  0  0  0  0
   -0.7374   -0.1212   -2.4888 C   0  0  0  0  0  0  0  0  0  0  0  0
   -1.3396   -0.2934   -3.6869 C   0  0  0  0  0  0  0  0  0  0  0  0
   -2.3927   -0.1200   -3.8790 H   0  0  0  0  0  0  0  0  0  0  0  0
   -0.4071   -0.7007   -4.6208 N   0  0  0  0  0  0  0  0  0  0  0  0
   -0.6329   -0.8943   -5.5855 H   0  0  0  0  0  0  0  0  0  0  0  0
    0.8537   -0.7957   -4.0711 C   0  0  0  0  0  0  0  0  0  0  0  0
    2.1074   -1.1322   -4.6017 C   0  0  0  0  0  0  0  0  0  0  0  0
    2.2085   -1.3908   -5.6455 H   0  0  0  0  0  0  0  0  0  0  0  0
    3.2296   -1.1301   -3.7558 C   0  0  0  0  0  0  0  0  0  0  0  0
    4.2044   -1.3880   -4.1472 H   0  0  0  0  0  0  0  0  0  0  0  0
    3.0823   -0.7982   -2.3966 C   0  0  0  0  0  0  0  0  0  0  0  0
    3.9470   -0.8059   -1.7475 H   0  0  0  0  0  0  0  0  0  0  0  0
    1.8170   -0.4635   -1.8738 C   0  0  0  0  0  0  0  0  0  0  0  0
    1.7156   -0.2235   -0.8249 H   0  0  0  0  0  0  0  0  0  0  0  0
    0.6714   -0.4503   -2.6986 C   0  0  0  0  0  0  0  0  0  0  0  0
   -1.2663    0.1182    1.2910 C   0  0  0  0  0  0  0  0  0  0  0  0
   -0.1906    0.1931    1.8833 O   0  0  0  0  0  0  0  0  0  0  0  0
   -2.3930    0.6605    1.7722 N   0  0  0  0  0  0  0  0  0  0  0  0
   -3.2451    0.5077    1.2518 H   0  0  0  0  0  0  0  0  0  0  0  0
   -2.4787    1.3954    3.0311 C   0  0  0  0  0  0  0  0  0  0  0  0
   -1.7166    2.1767    3.0539 H   0  0  0  0  0  0  0  0  0  0  0  0
   -3.4649    1.8498    3.1344 H   0  0  0  0  0  0  0  0  0  0  0  0
   -2.3058    0.7133    3.8652 H   0  0  0  0  0  0  0  0  0  0  0  0
  5  6  2  0  0  0  0
  5  7  1  0  0  0  0
  2  3  1  0  0  0  0
  2  4  1  0  0  0  0
  2  5  1  0  0  0  0
  1  2  1  0  0  0  0
 29 30  2  0  0  0  0
 29 31  1  0  0  0  0
 26 27  1  0  0  0  0
 26 28  2  0  0  0  0
 24 25  1  0  0  0  0
 24 26  1  0  0  0  0
 22 23  1  0  0  0  0
 22 24  2  0  0  0  0
 20 21  1  0  0  0  0
 20 22  1  0  0  0  0
 19 20  2  0  0  0  0
 19 28  1  0  0  0  0
 17 18  1  0  0  0  0
 17 19  1  0  0  0  0
 15 16  1  0  0  0  0
 15 17  1  0  0  0  0
 14 15  2  0  0  0  0
 14 28  1  0  0  0  0
 11 12  1  0  0  0  0
 11 13  1  0  0  0  0
 11 14  1  0  0  0  0
  9 10  1  0  0  0  0
  9 11  1  0  0  0  0
  9 29  1  0  0  0  0
  7  8  1  0  0  0  0
  7  9  1  0  0  0  0
 33 34  1  0  0  0  0
 33 35  1  0  0  0  0
 33 36  1  0  0  0  0
 31 32  1  0  0  0  0
 31 33  1  0  0  0  0
M  END
$$$$
default_name
  -OEChem-02102213163D

 36 37  0     1  0  0  0  0  0999 V2000
   -4.0843   -4.0736    1.2944 H   0  0  0  0  0  0  0  0  0  0  0  0
   -4.0342   -3.2816    0.5484 C   0  0  0  0  0  0  0  0  0  0  0  0
   -4.8842   -2.6126    0.6694 H   0  0  0  0  0  0  0  0  0  0  0  0
   -4.0433   -3.7186   -0.4486 H   0  0  0  0  0  0  0  0  0  0  0  0
   -2.7532   -2.5046    0.7444 C   0  0  0  0  0  0  0  0  0  0  0  0
   -1.9803   -2.8096    1.6434 O   0  0  0  0  0  0  0  0  0  0  0  0
   -2.5332   -1.4966   -0.0966 N   0  0  0  0  0  0  0  0  0  0  0  0
   -3.2312   -1.2816   -0.7936 H   0  0  0  0  0  0  0  0  0  0  0  0
   -1.3593   -0.6196   -0.0536 C   0  0  1  0  0  0  0  0  0  0  0  0
   -0.4622   -1.2317   -0.1545 H   0  0  0  0  0  0  0  0  0  0  0  0
   -1.4074    0.3593   -1.2373 C   0  0  0  0  0  0  0  0  0  0  0  0
   -2.4510    0.5737   -1.4741 H   0  0  0  0  0  0  0  0  0  0  0  0
   -0.9388    1.2965   -0.9321 H   0  0  0  0  0  0  0  0  0  0  0  0
   -0.7374   -0.1212   -2.4888 C   0  0  0  0  0  0  0  0  0  0  0  0
   -1.2449   -0.0274   -3.7384 C   0  0  0  0  0  0  0  0  0  0  0  0
   -2.2143    0.3940   -3.9808 H   0  0  0  0  0  0  0  0  0  0  0  0
   -0.3345   -0.5288   -4.6479 N   0  0  0  0  0  0  0  0  0  0  0  0
   -0.5027   -0.5638   -5.6428 H   0  0  0  0  0  0  0  0  0  0  0  0
    0.8193   -0.9581   -4.0272 C   0  0  0  0  0  0  0  0  0  0  0  0
    2.0184   -1.5049   -4.5062 C   0  0  0  0  0  0  0  0  0  0  0  0
    2.1621   -1.6666   -5.5644 H   0  0  0  0  0  0  0  0  0  0  0  0
    3.0296   -1.8410   -3.5899 C   0  0  0  0  0  0  0  0  0  0  0  0
    3.9608   -2.2648   -3.9410 H   0  0  0  0  0  0  0  0  0  0  0  0
    2.8263   -1.6316   -2.2137 C   0  0  0  0  0  0  0  0  0  0  0  0
    3.6037   -1.8994   -1.5115 H   0  0  0  0  0  0  0  0  0  0  0  0
    1.6162   -1.0831   -1.7433 C   0  0  0  0  0  0  0  0  0  0  0  0
    1.4679   -0.9398   -0.6824 H   0  0  0  0  0  0  0  0  0  0  0  0
    0.5835   -0.7293   -2.6385 C   0  0  0  0  0  0  0  0  0  0  0  0
   -1.2663    0.1182    1.2910 C   0  0  0  0  0  0  0  0  0  0  0  0
   -0.1906    0.1931    1.8833 O   0  0  0  0  0  0  0  0  0  0  0  0
   -2.3930    0.6605    1.7722 N   0  0  0  0  0  0  0  0  0  0  0  0
   -3.2451    0.5077    1.2518 H   0  0  0  0  0  0  0  0  0  0  0  0
   -2.4787    1.3954    3.0311 C   0  0  0  0  0  0  0  0  0  0  0  0
   -1.7166    2.1767    3.0539 H   0  0  0  0  0  0  0  0  0  0  0  0
   -3.4649    1.8498    3.1344 H   0  0  0  0  0  0  0  0  0  0  0  0
   -2.3058    0.7133    3.8652 H   0  0  0  0  0  0  0  0  0  0  0  0
  5  6  2  0  0  0  0
  5  7  1  0  0  0  0
  2  3  1  0  0  0  0
  2  4  1  0  0  0  0
  2  5  1  0  0  0  0
  1  2  1  0  0  0  0
 29 30  2  0  0  0  0
 29 31  1  0  0  0  0
 26 27  1  0  0  0  0
 26 28  2  0  0  0  0
 24 25  1  0  0  0  0
 24 26  1  0  0  0  0
 22 23  1  0  0  0  0
 22 24  2  0  0  0  0
 20 21  1  0  0  0  0
 20 22  1  0  0  0  0
 19 20  2  0  0  0  0
 19 28  1  0  0  0  0
 17 18  1  0  0  0  0
 17 19  1  0  0  0  0
 15 16  1  0  0  0  0
 15 17  1  0  0  0  0
 14 15  2  0  0  0  0
 14 28  1  0  0  0  0
 11 12  1  0  0  0  0
 11 13  1  0  0  0  0
 11 14  1  0  0  0  0
  9 10  1  0  0  0  0
  9 11  1  0  0  0  0
  9 29  1  0  0  0  0
  7  8  1  0  0  0  0
  7  9  1  0  0  0  0
 33 34  1  0  0  0  0
 33 35  1  0  0  0  0
 33 36  1  0  0  0  0
 31 32  1  0  0  0  0
 31 33  1  0  0  0  0
M  END
$$$$
default_name
  -OEChem-02102213163D

 36 37  0     1  0  0  0  0  0999 V2000
   -4.0843   -4.0736    1.2944 H   0  0  0  0  0  0  0  0  0  0  0  0
   -4.0342   -3.2816    0.5484 C   0  0  0  0  0  0  0  0  0  0  0  0
   -4.8842   -2.6126    0.6694 H   0  0  0  0  0  0  0  0  0  0  0  0
   -4.0433   -3.7186   -0.4486 H   0  0  0  0  0  0  0  0  0  0  0  0
   -2.7532   -2.5046    0.7444 C   0  0  0  0  0  0  0  0  0  0  0  0
   -1.9803   -2.8096    1.6434 O   0  0  0  0  0  0  0  0  0  0  0  0
   -2.5332   -1.4966   -0.0966 N   0  0  0  0  0  0  0  0  0  0  0  0
   -3.2312   -1.2816   -0.7936 H   0  0  0  0  0  0  0  0  0  0  0  0
   -1.3593   -0.6196   -0.0536 C   0  0  1  0  0  0  0  0  0  0  0  0
   -0.4622   -1.2317   -0.1545 H   0  0  0  0  0  0  0  0  0  0  0  0
   -1.4074    0.3593   -1.2373 C   0  0  0  0  0  0  0  0  0  0  0  0
   -2.4510    0.5737   -1.4741 H   0  0  0  0  0  0  0  0  0  0  0  0
   -0.9388    1.2965   -0.9321 H   0  0  0  0  0  0  0  0  0  0  0  0
   -0.7374   -0.1212   -2.4888 C   0  0  0  0  0  0  0  0  0  0  0  0
   -1.0916    0.2151   -3.7494 C   0  0  0  0  0  0  0  0  0  0  0  0
   -1.9224    0.8637   -4.0049 H   0  0  0  0  0  0  0  0  0  0  0  0
   -0.2249   -0.3752   -4.6482 N   0  0  0  0  0  0  0  0  0  0  0  0
   -0.3007   -0.2660   -5.6490 H   0  0  0  0  0  0  0  0  0  0  0  0
    0.7473   -1.1126   -4.0064 C   0  0  0  0  0  0  0  0  0  0  0  0
    1.8440   -1.8567   -4.4645 C   0  0  0  0  0  0  0  0  0  0  0  0
    2.0509   -1.9325   -5.5219 H   0  0  0  0  0  0  0  0  0  0  0  0
    2.6689   -2.5037   -3.5286 C   0  0  0  0  0  0  0  0  0  0  0  0
    3.5188   -3.0829   -3.8634 H   0  0  0  0  0  0  0  0  0  0  0  0
    2.3837   -2.4024   -2.1546 C   0  0  0  0  0  0  0  0  0  0  0  0
    3.0161   -2.9086   -1.4385 H   0  0  0  0  0  0  0  0  0  0  0  0
    1.2775   -1.6534   -1.7057 C   0  0  0  0  0  0  0  0  0  0  0  0
    1.0619   -1.5947   -0.6483 H   0  0  0  0  0  0  0  0  0  0  0  0
    0.4334   -0.9867   -2.6200 C   0  0  0  0  0  0  0  0  0  0  0  0
   -1.2663    0.1182    1.2910 C   0  0  0  0  0  0  0  0  0  0  0  0
   -0.1906    0.1931    1.8833 O   0  0  0  0  0  0  0  0  0  0  0  0
   -2.3930    0.6605    1.7722 N   0  0  0  0  0  0  0  0  0  0  0  0
   -3.2451    0.5077    1.2518 H   0  0  0  0  0  0  0  0  0  0  0  0
   -2.4787    1.3954    3.0311 C   0  0  0  0  0  0  0  0  0  0  0  0
   -1.7166    2.1767    3.0539 H   0  0  0  0  0  0  0  0  0  0  0  0
   -3.4649    1.8498    3.1344 H   0  0  0  0  0  0  0  0  0  0  0  0
   -2.3058    0.7133    3.8652 H   0  0  0  0  0  0  0  0  0  0  0  0
  5  6  2  0  0  0  0
  5  7  1  0  0  0  0
  2  3  1  0  0  0  0
  2  4  1  0  0  0  0
  2  5  1  0  0  0  0
  1  2  1  0  0  0  0
 29 30  2  0  0  0  0
 29 31  1  0  0  0  0
 26 27  1  0  0  0  0
 26 28  2  0  0  0  0
 24 25  1  0  0  0  0
 24 26  1  0  0  0  0
 22 23  1  0  0  0  0
 22 24  2  0  0  0  0
 20 21  1  0  0  0  0
 20 22  1  0  0  0  0
 19 20  2  0  0  0  0
 19 28  1  0  0  0  0
 17 18  1  0  0  0  0
 17 19  1  0  0  0  0
 15 16  1  0  0  0  0
 15 17  1  0  0  0  0
 14 15  2  0  0  0  0
 14 28  1  0  0  0  0
 11 12  1  0  0  0  0
 11 13  1  0  0  0  0
 11 14  1  0  0  0  0
  9 10  1  0  0  0  0
  9 11  1  0  0  0  0
  9 29  1  0  0  0  0
  7  8  1  0  0  0  0
  7  9  1  0  0  0  0
 33 34  1  0  0  0  0
 33 35  1  0  0  0  0
 33 36  1  0  0  0  0
 31 32  1  0  0  0  0
 31 33  1  0  0  0  0
M  END
$$$$
default_name
  -OEChem-02102213163D

 36 37  0     1  0  0  0  0  0999 V2000
   -4.0843   -4.0736    1.2944 H   0  0  0  0  0  0  0  0  0  0  0  0
   -4.0342   -3.2816    0.5484 C   0  0  0  0  0  0  0  0  0  0  0  0
   -4.8842   -2.6126    0.6694 H   0  0  0  0  0  0  0  0  0  0  0  0
   -4.0433   -3.7186   -0.4486 H   0  0  0  0  0  0  0  0  0  0  0  0
   -2.7532   -2.5046    0.7444 C   0  0  0  0  0  0  0  0  0  0  0  0
   -1.9803   -2.8096    1.6434 O   0  0  0  0  0  0  0  0  0  0  0  0
   -2.5332   -1.4966   -0.0966 N   0  0  0  0  0  0  0  0  0  0  0  0
   -3.2312   -1.2816   -0.7936 H   0  0  0  0  0  0  0  0  0  0  0  0
   -1.3593   -0.6196   -0.0536 C   0  0  1  0  0  0  0  0  0  0  0  0
   -0.4622   -1.2317   -0.1545 H   0  0  0  0  0  0  0  0  0  0  0  0
   -1.4074    0.3593   -1.2373 C   0  0  0  0  0  0  0  0  0  0  0  0
   -2.4510    0.5737   -1.4741 H   0  0  0  0  0  0  0  0  0  0  0  0
   -0.9388    1.2965   -0.9321 H   0  0  0  0  0  0  0  0  0  0  0  0
   -0.7374   -0.1212   -2.4888 C   0  0  0  0  0  0  0  0  0  0  0  0
   -0.8903    0.4174   -3.7193 C   0  0  0  0  0  0  0  0  0  0  0  0
   -1.5370    1.2571   -3.9496 H   0  0  0  0  0  0  0  0  0  0  0  0
   -0.0859   -0.2506   -4.6217 N   0  0  0  0  0  0  0  0  0  0  0  0
   -0.0408   -0.0213   -5.6038 H   0  0  0  0  0  0  0  0  0  0  0  0
    0.6426   -1.2487   -4.0102 C   0  0  0  0  0  0  0  0  0  0  0  0
    1.5961   -2.1636   -4.4794 C   0  0  0  0  0  0  0  0  0  0  0  0
    1.8825   -2.1701   -5.5208 H   0  0  0  0  0  0  0  0  0  0  0  0
    2.1723   -3.0729   -3.5759 C   0  0  0  0  0  0  0  0  0  0  0  0
    2.9086   -3.7866   -3.9199 H   0  0  0  0  0  0  0  0  0  0  0  0
    1.7847   -3.0581   -2.2235 C   0  0  0  0  0  0  0  0  0  0  0  0
    2.2244   -3.7649   -1.5336 H   0  0  0  0  0  0  0  0  0  0  0  0
    0.8239   -2.1353   -1.7635 C   0  0  0  0  0  0  0  0  0  0  0  0
    0.5254   -2.1435   -0.7248 H   0  0  0  0  0  0  0  0  0  0  0  0
    0.2312   -1.2050   -2.6445 C   0  0  0  0  0  0  0  0  0  0  0  0
   -1.2663    0.1182    1.2910 C   0  0  0  0  0  0  0  0  0  0  0  0
   -0.1906    0.1931    1.8833 O   0  0  0  0  0  0  0  0  0  0  0  0
   -2.3930    0.6605    1.7722 N   0  0  0  0  0  0  0  0  0  0  0  0
   -3.2451    0.5077    1.2518 H   0  0  0  0  0  0  0  0  0  0  0  0
   -2.4787    1.3954    3.0311 C   0  0  0  0  0  0  0  0  0  0  0  0
   -1.7166    2.1767    3.0539 H   0  0  0  0  0  0  0  0  0  0  0  0
   -3.4649    1.8498    3.1344 H   0  0  0  0  0  0  0  0  0  0  0  0
   -2.3058    0.7133    3.8652 H   0  0  0  0  0  0  0  0  0  0  0  0
  5  6  2  0  0  0  0
  5  7  1  0  0  0  0
  2  3  1  0  0  0  0
  2  4  1  0  0  0  0
  2  5  1  0  0  0  0
  1  2  1  0  0  0  0
 29 30  2  0  0  0  0
 29 31  1  0  0  0  0
 26 27  1  0  0  0  0
 26 28  2  0  0  0  0
 24 25  1  0  0  0  0
 24 26  1  0  0  0  0
 22 23  1  0  0  0  0
 22 24  2  0  0  0  0
 20 21  1  0  0  0  0
 20 22  1  0  0  0  0
 19 20  2  0  0  0  0
 19 28  1  0  0  0  0
 17 18  1  0  0  0  0
 17 19  1  0  0  0  0
 15 16  1  0  0  0  0
 15 17  1  0  0  0  0
 14 15  2  0  0  0  0
 14 28  1  0  0  0  0
 11 12  1  0  0  0  0
 11 13  1  0  0  0  0
 11 14  1  0  0  0  0
  9 10  1  0  0  0  0
  9 11  1  0  0  0  0
  9 29  1  0  0  0  0
  7  8  1  0  0  0  0
  7  9  1  0  0  0  0
 33 34  1  0  0  0  0
 33 35  1  0  0  0  0
 33 36  1  0  0  0  0
 31 32  1  0  0  0  0
 31 33  1  0  0  0  0
M  END
$$$$
default_name
  -OEChem-02102213163D

 36 37  0     1  0  0  0  0  0999 V2000
   -4.0843   -4.0736    1.2944 H   0  0  0  0  0  0  0  0  0  0  0  0
   -4.0342   -3.2816    0.5484 C   0  0  0  0  0  0  0  0  0  0  0  0
   -4.8842   -2.6126    0.6694 H   0  0  0  0  0  0  0  0  0  0  0  0
   -4.0433   -3.7186   -0.4486 H   0  0  0  0  0  0  0  0  0  0  0  0
   -2.7532   -2.5046    0.7444 C   0  0  0  0  0  0  0  0  0  0  0  0
   -1.9803   -2.8096    1.6434 O   0  0  0  0  0  0  0  0  0  0  0  0
   -2.5332   -1.4966   -0.0966 N   0  0  0  0  0  0  0  0  0  0  0  0
   -3.2312   -1.2816   -0.7936 H   0  0  0  0  0  0  0  0  0  0  0  0
   -1.3593   -0.6196   -0.0536 C   0  0  1  0  0  0  0  0  0  0  0  0
   -0.4622   -1.2317   -0.1545 H   0  0  0  0  0  0  0  0  0  0  0  0
   -1.4074    0.3593   -1.2373 C   0  0  0  0  0  0  0  0  0  0  0  0
   -2.4122    0.7801   -1.3050 H   0  0  0  0  0  0  0  0  0  0  0  0
   -0.7180    1.1812   -1.0365 H   0  0  0  0  0  0  0  0  0  0  0  0
   -1.0631   -0.2347   -2.5694 C   0  0  0  0  0  0  0  0  0  0  0  0
   -1.0390    0.4319   -3.7453 C   0  0  0  0  0  0  0  0  0  0  0  0
   -1.2869    1.4809   -3.8654 H   0  0  0  0  0  0  0  0  0  0  0  0
   -0.6333   -0.4202   -4.7538 N   0  0  0  0  0  0  0  0  0  0  0  0
   -0.5462   -0.1387   -5.7194 H   0  0  0  0  0  0  0  0  0  0  0  0
   -0.3581   -1.6822   -4.2718 C   0  0  0  0  0  0  0  0  0  0  0  0
    0.1016   -2.8601   -4.8781 C   0  0  0  0  0  0  0  0  0  0  0  0
    0.3063   -2.8862   -5.9383 H   0  0  0  0  0  0  0  0  0  0  0  0
    0.2904   -4.0063   -4.0871 C   0  0  0  0  0  0  0  0  0  0  0  0
    0.6434   -4.9242   -4.5376 H   0  0  0  0  0  0  0  0  0  0  0  0
    0.0131   -3.9602   -2.7086 C   0  0  0  0  0  0  0  0  0  0  0  0
    0.1518   -4.8467   -2.1054 H   0  0  0  0  0  0  0  0  0  0  0  0
   -0.4504   -2.7713   -2.1103 C   0  0  0  0  0  0  0  0  0  0  0  0
   -0.6724   -2.7533   -1.0527 H   0  0  0  0  0  0  0  0  0  0  0  0
   -0.6444   -1.6013   -2.8761 C   0  0  0  0  0  0  0  0  0  0  0  0
   -1.2663    0.1182    1.2910 C   0  0  0  0  0  0  0  0  0  0  0  0
   -0.1906    0.1931    1.8833 O   0  0  0  0  0  0  0  0  0  0  0  0
   -2.3930    0.6605    1.7722 N   0  0  0  0  0  0  0  0  0  0  0  0
   -3.2451    0.5077    1.2518 H   0  0  0  0  0  0  0  0  0  0  0  0
   -2.4787    1.3954    3.0311 C   0  0  0  0  0  0  0  0  0  0  0  0
   -1.7166    2.1767    3.0539 H   0  0  0  0  0  0  0  0  0  0  0  0
   -3.4649    1.8498    3.1344 H   0  0  0  0  0  0  0  0  0  0  0  0
   -2.3058    0.7133    3.8652 H   0  0  0  0  0  0  0  0  0  0  0  0
  5  6  2  0  0  0  0
  5  7  1  0  0  0  0
  2  3  1  0  0  0  0
  2  4  1  0  0  0  0
  2  5  1  0  0  0  0
  1  2  1  0  0  0  0
 29 30  2  0  0  0  0
 29 31  1  0  0  0  0
 26 27  1  0  0  0  0
 26 28  2  0  0  0  0
 24 25  1  0  0  0  0
 24 26  1  0  0  0  0
 22 23  1  0  0  0  0
 22 24  2  0  0  0  0
 20 21  1  0  0  0  0
 20 22  1  0  0  0  0
 19 20  2  0  0  0  0
 19 28  1  0  0  0  0
 17 18  1  0  0  0  0
 17 19  1  0  0  0  0
 15 16  1  0  0  0  0
 15 17  1  0  0  0  0
 14 15  2  0  0  0  0
 14 28  1  0  0  0  0
 11 12  1  0  0  0  0
 11 13  1  0  0  0  0
 11 14  1  0  0  0  0
  9 10  1  0  0  0  0
  9 11  1  0  0  0  0
  9 29  1  0  0  0  0
  7  8  1  0  0  0  0
  7  9  1  0  0  0  0
 33 34  1  0  0  0  0
 33 35  1  0  0  0  0
 33 36  1  0  0  0  0
 31 32  1  0  0  0  0
 31 33  1  0  0  0  0
M  END
$$$$
default_name
  -OEChem-02102213163D

 36 37  0     1  0  0  0  0  0999 V2000
   -4.0843   -4.0736    1.2944 H   0  0  0  0  0  0  0  0  0  0  0  0
   -4.0342   -3.2816    0.5484 C   0  0  0  0  0  0  0  0  0  0  0  0
   -4.8842   -2.6126    0.6694 H   0  0  0  0  0  0  0  0  0  0  0  0
   -4.0433   -3.7186   -0.4486 H   0  0  0  0  0  0  0  0  0  0  0  0
   -2.7532   -2.5046    0.7444 C   0  0  0  0  0  0  0  0  0  0  0  0
   -1.9803   -2.8096    1.6434 O   0  0  0  0  0  0  0  0  0  0  0  0
   -2.5332   -1.4966   -0.0966 N   0  0  0  0  0  0  0  0  0  0  0  0
   -3.2312   -1.2816   -0.7936 H   0  0  0  0  0  0  0  0  0  0  0  0
   -1.3593   -0.6196   -0.0536 C   0  0  1  0  0  0  0  0  0  0  0  0
   -0.4622   -1.2317   -0.1545 H   0  0  0  0  0  0  0  0  0  0  0  0
   -1.4074    0.3593   -1.2373 C   0  0  0  0  0  0  0  0  0  0  0  0
   -2.4122    0.7801   -1.3050 H   0  0  0  0  0  0  0  0  0  0  0  0
   -0.7180    1.1812   -1.0365 H   0  0  0  0  0  0  0  0  0  0  0  0
   -1.0631   -0.2347   -2.5694 C   0  0  0  0  0  0  0  0  0  0  0  0
   -0.7596    0.4630   -3.6870 C   0  0  0  0  0  0  0  0  0  0  0  0
   -0.7484    1.5453   -3.7549 H   0  0  0  0  0  0  0  0  0  0  0  0
   -0.4500   -0.4114   -4.7103 N   0  0  0  0  0  0  0  0  0  0  0  0
   -0.1960   -0.1125   -5.6406 H   0  0  0  0  0  0  0  0  0  0  0  0
   -0.5229   -1.7242   -4.2957 C   0  0  0  0  0  0  0  0  0  0  0  0
   -0.2789   -2.9467   -4.9378 C   0  0  0  0  0  0  0  0  0  0  0  0
    0.0294   -2.9695   -5.9727 H   0  0  0  0  0  0  0  0  0  0  0  0
   -0.4430   -4.1416   -4.2164 C   0  0  0  0  0  0  0  0  0  0  0  0
   -0.2604   -5.0940   -4.6954 H   0  0  0  0  0  0  0  0  0  0  0  0
   -0.8519   -4.0975   -2.8710 C   0  0  0  0  0  0  0  0  0  0  0  0
   -0.9850   -5.0195   -2.3221 H   0  0  0  0  0  0  0  0  0  0  0  0
   -1.0962   -2.8631   -2.2363 C   0  0  0  0  0  0  0  0  0  0  0  0
   -1.4227   -2.8440   -1.2062 H   0  0  0  0  0  0  0  0  0  0  0  0
   -0.9345   -1.6451   -2.9316 C   0  0  0  0  0  0  0  0  0  0  0  0
   -1.2663    0.1182    1.2910 C   0  0  0  0  0  0  0  0  0  0  0  0
   -0.1906    0.1931    1.8833 O   0  0  0  0  0  0  0  0  0  0  0  0
   -2.3930    0.6605    1.7722 N   0  0  0  0  0  0  0  0  0  0  0  0
   -3.2451    0.5077    1.2518 H   0  0  0  0  0  0  0  0  0  0  0  0
   -2.4787    1.3954    3.0311 C   0  0  0  0  0  0  0  0  0  0  0  0
   -1.7166    2.1767    3.0539 H   0  0  0  0  0  0  0  0  0  0  0  0
   -3.4649    1.8498    3.1344 H   0  0  0  0  0  0  0  0  0  0  0  0
   -2.3058    0.7133    3.8652 H   0  0  0  0  0  0  0  0  0  0  0  0
  5  6  2  0  0  0  0
  5  7  1  0  0  0  0
  2  3  1  0  0  0  0
  2  4  1  0  0  0  0
  2  5  1  0  0  0  0
  1  2  1  0  0  0  0
 29 30  2  0  0  0  0
 29 31  1  0  0  0  0
 26 27  1  0  0  0  0
 26 28  2  0  0  0  0
 24 25  1  0  0  0  0
 24 26  1  0  0  0  0
 22 23  1  0  0  0  0
 22 24  2  0  0  0  0
 20 21  1  0  0  0  0
 20 22  1  0  0  0  0
 19 20  2  0  0  0  0
 19 28  1  0  0  0  0
 17 18  1  0  0  0  0
 17 19  1  0  0  0  0
 15 16  1  0  0  0  0
 15 17  1  0  0  0  0
 14 15  2  0  0  0  0
 14 28  1  0  0  0  0
 11 12  1  0  0  0  0
 11 13  1  0  0  0  0
 11 14  1  0  0  0  0
  9 10  1  0  0  0  0
  9 11  1  0  0  0  0
  9 29  1  0  0  0  0
  7  8  1  0  0  0  0
  7  9  1  0  0  0  0
 33 34  1  0  0  0  0
 33 35  1  0  0  0  0
 33 36  1  0  0  0  0
 31 32  1  0  0  0  0
 31 33  1  0  0  0  0
M  END
$$$$
default_name
  -OEChem-02102213163D

 36 37  0     1  0  0  0  0  0999 V2000
   -4.0843   -4.0736    1.2944 H   0  0  0  0  0  0  0  0  0  0  0  0
   -4.0342   -3.2816    0.5484 C   0  0  0  0  0  0  0  0  0  0  0  0
   -4.8842   -2.6126    0.6694 H   0  0  0  0  0  0  0  0  0  0  0  0
   -4.0433   -3.7186   -0.4486 H   0  0  0  0  0  0  0  0  0  0  0  0
   -2.7532   -2.5046    0.7444 C   0  0  0  0  0  0  0  0  0  0  0  0
   -1.9803   -2.8096    1.6434 O   0  0  0  0  0  0  0  0  0  0  0  0
   -2.5332   -1.4966   -0.0966 N   0  0  0  0  0  0  0  0  0  0  0  0
   -3.2312   -1.2816   -0.7936 H   0  0  0  0  0  0  0  0  0  0  0  0
   -1.3593   -0.6196   -0.0536 C   0  0  1  0  0  0  0  0  0  0  0  0
   -0.4622   -1.2317   -0.1545 H   0  0  0  0  0  0  0  0  0  0  0  0
   -1.4074    0.3593   -1.2373 C   0  0  0  0  0  0  0  0  0  0  0  0
   -2.4122    0.7801   -1.3050 H   0  0  0  0  0  0  0  0  0  0  0  0
   -0.7180    1.1812   -1.0365 H   0  0  0  0  0  0  0  0  0  0  0  0
   -1.0631   -0.2347   -2.5694 C   0  0  0  0  0  0  0  0  0  0  0  0
   -0.4887    0.4252   -3.6001 C   0  0  0  0  0  0  0  0  0  0  0  0
   -0.2247    1.4771   -3.5891 H   0  0  0  0  0  0  0  0  0  0  0  0
   -0.2754   -0.4476   -4.6490 N   0  0  0  0  0  0  0  0  0  0  0  0
    0.1401   -0.1724   -5.5270 H   0  0  0  0  0  0  0  0  0  0  0  0
   -0.6893   -1.7254   -4.3381 C   0  0  0  0  0  0  0  0  0  0  0  0
   -0.6603   -2.9392   -5.0397 C   0  0  0  0  0  0  0  0  0  0  0  0
   -0.2538   -2.9842   -6.0394 H   0  0  0  0  0  0  0  0  0  0  0  0
   -1.1693   -4.0958   -4.4245 C   0  0  0  0  0  0  0  0  0  0  0  0
   -1.1563   -5.0407   -4.9508 H   0  0  0  0  0  0  0  0  0  0  0  0
   -1.7024   -4.0215   -3.1247 C   0  0  0  0  0  0  0  0  0  0  0  0
   -2.1005   -4.9120   -2.6584 H   0  0  0  0  0  0  0  0  0  0  0  0
   -1.7282   -2.7957   -2.4297 C   0  0  0  0  0  0  0  0  0  0  0  0
   -2.1527   -2.7499   -1.4368 H   0  0  0  0  0  0  0  0  0  0  0  0
   -1.2191   -1.6174   -3.0175 C   0  0  0  0  0  0  0  0  0  0  0  0
   -1.2663    0.1182    1.2910 C   0  0  0  0  0  0  0  0  0  0  0  0
   -0.1906    0.1931    1.8833 O   0  0  0  0  0  0  0  0  0  0  0  0
   -2.3930    0.6605    1.7722 N   0  0  0  0  0  0  0  0  0  0  0  0
   -3.2451    0.5077    1.2518 H   0  0  0  0  0  0  0  0  0  0  0  0
   -2.4787    1.3954    3.0311 C   0  0  0  0  0  0  0  0  0  0  0  0
   -1.7166    2.1767    3.0539 H   0  0  0  0  0  0  0  0  0  0  0  0
   -3.4649    1.8498    3.1344 H   0  0  0  0  0  0  0  0  0  0  0  0
   -2.3058    0.7133    3.8652 H   0  0  0  0  0  0  0  0  0  0  0  0
  5  6  2  0  0  0  0
  5  7  1  0  0  0  0
  2  3  1  0  0  0  0
  2  4  1  0  0  0  0
  2  5  1  0  0  0  0
  1  2  1  0  0  0  0
 29 30  2  0  0  0  0
 29 31  1  0  0  0  0
 26 27  1  0  0  0  0
 26 28  2  0  0  0  0
 24 25  1  0  0  0  0
 24 26  1  0  0  0  0
 22 23  1  0  0  0  0
 22 24  2  0  0  0  0
 20 21  1  0  0  0  0
 20 22  1  0  0  0  0
 19 20  2  0  0  0  0
 19 28  1  0  0  0  0
 17 18  1  0  0  0  0
 17 19  1  0  0  0  0
 15 16  1  0  0  0  0
 15 17  1  0  0  0  0
 14 15  2  0  0  0  0
 14 28  1  0  0  0  0
 11 12  1  0  0  0  0
 11 13  1  0  0  0  0
 11 14  1  0  0  0  0
  9 10  1  0  0  0  0
  9 11  1  0  0  0  0
  9 29  1  0  0  0  0
  7  8  1  0  0  0  0
  7  9  1  0  0  0  0
 33 34  1  0  0  0  0
 33 35  1  0  0  0  0
 33 36  1  0  0  0  0
 31 32  1  0  0  0  0
 31 33  1  0  0  0  0
M  END
$$$$
default_name
  -OEChem-02102213163D

 36 37  0     1  0  0  0  0  0999 V2000
   -4.0843   -4.0736    1.2944 H   0  0  0  0  0  0  0  0  0  0  0  0
   -4.0342   -3.2816    0.5484 C   0  0  0  0  0  0  0  0  0  0  0  0
   -4.8842   -2.6126    0.6694 H   0  0  0  0  0  0  0  0  0  0  0  0
   -4.0433   -3.7186   -0.4486 H   0  0  0  0  0  0  0  0  0  0  0  0
   -2.7532   -2.5046    0.7444 C   0  0  0  0  0  0  0  0  0  0  0  0
   -1.9803   -2.8096    1.6434 O   0  0  0  0  0  0  0  0  0  0  0  0
   -2.5332   -1.4966   -0.0966 N   0  0  0  0  0  0  0  0  0  0  0  0
   -3.2312   -1.2816   -0.7936 H   0  0  0  0  0  0  0  0  0  0  0  0
   -1.3593   -0.6196   -0.0536 C   0  0  1  0  0  0  0  0  0  0  0  0
   -0.4622   -1.2317   -0.1545 H   0  0  0  0  0  0  0  0  0  0  0  0
   -1.4074    0.3593   -1.2373 C   0  0  0  0  0  0  0  0  0  0  0  0
   -2.4122    0.7801   -1.3050 H   0  0  0  0  0  0  0  0  0  0  0  0
   -0.7180    1.1812   -1.0365 H   0  0  0  0  0  0  0  0  0  0  0  0
   -1.0631   -0.2347   -2.5694 C   0  0  0  0  0  0  0  0  0  0  0  0
   -0.2445    0.3213   -3.4907 C   0  0  0  0  0  0  0  0  0  0  0  0
    0.2484    1.2808   -3.3793 H   0  0  0  0  0  0  0  0  0  0  0  0
   -0.1214   -0.5265   -4.5740 N   0  0  0  0  0  0  0  0  0  0  0  0
    0.4394   -0.3144   -5.3863 H   0  0  0  0  0  0  0  0  0  0  0  0
   -0.8459   -1.6858   -4.3963 C   0  0  0  0  0  0  0  0  0  0  0  0
   -1.0165   -2.8382   -5.1768 C   0  0  0  0  0  0  0  0  0  0  0  0
   -0.5238   -2.9292   -6.1337 H   0  0  0  0  0  0  0  0  0  0  0  0
   -1.8390   -3.8721   -4.6974 C   0  0  0  0  0  0  0  0  0  0  0  0
   -1.9832   -4.7679   -5.2861 H   0  0  0  0  0  0  0  0  0  0  0  0
   -2.4804   -3.7373   -3.4525 C   0  0  0  0  0  0  0  0  0  0  0  0
   -3.1189   -4.5316   -3.0912 H   0  0  0  0  0  0  0  0  0  0  0  0
   -2.3033   -2.5737   -2.6773 C   0  0  0  0  0  0  0  0  0  0  0  0
   -2.8124   -2.4773   -1.7289 H   0  0  0  0  0  0  0  0  0  0  0  0
   -1.4788   -1.5201   -3.1280 C   0  0  0  0  0  0  0  0  0  0  0  0
   -1.2663    0.1182    1.2910 C   0  0  0  0  0  0  0  0  0  0  0  0
   -0.1906    0.1931    1.8833 O   0  0  0  0  0  0  0  0  0  0  0  0
   -2.3930    0.6605    1.7722 N   0  0  0  0  0  0  0  0  0  0  0  0
   -3.2451    0.5077    1.2518 H   0  0  0  0  0  0  0  0  0  0  0  0
   -2.4787    1.3954    3.0311 C   0  0  0  0  0  0  0  0  0  0  0  0
   -1.7166    2.1767    3.0539 H   0  0  0  0  0  0  0  0  0  0  0  0
   -3.4649    1.8498    3.1344 H   0  0  0  0  0  0  0  0  0  0  0  0
   -2.3058    0.7133    3.8652 H   0  0  0  0  0  0  0  0  0  0  0  0
  5  6  2  0  0  0  0
  5  7  1  0  0  0  0
  2  3  1  0  0  0  0
  2  4  1  0  0  0  0
  2  5  1  0  0  0  0
  1  2  1  0  0  0  0
 29 30  2  0  0  0  0
 29 31  1  0  0  0  0
 26 27  1  0  0  0  0
 26 28  2  0  0  0  0
 24 25  1  0  0  0  0
 24 26  1  0  0  0  0
 22 23  1  0  0  0  0
 22 24  2  0  0  0  0
 20 21  1  0  0  0  0
 20 22  1  0  0  0  0
 19 20  2  0  0  0  0
 19 28  1  0  0  0  0
 17 18  1  0  0  0  0
 17 19  1  0  0  0  0
 15 16  1  0  0  0  0
 15 17  1  0  0  0  0
 14 15  2  0  0  0  0
 14 28  1  0  0  0  0
 11 12  1  0  0  0  0
 11 13  1  0  0  0  0
 11 14  1  0  0  0  0
  9 10  1  0  0  0  0
  9 11  1  0  0  0  0
  9 29  1  0  0  0  0
  7  8  1  0  0  0  0
  7  9  1  0  0  0  0
 33 34  1  0  0  0  0
 33 35  1  0  0  0  0
 33 36  1  0  0  0  0
 31 32  1  0  0  0  0
 31 33  1  0  0  0  0
M  END
$$$$
default_name
  -OEChem-02102213163D

 36 37  0     1  0  0  0  0  0999 V2000
   -4.0843   -4.0736    1.2944 H   0  0  0  0  0  0  0  0  0  0  0  0
   -4.0342   -3.2816    0.5484 C   0  0  0  0  0  0  0  0  0  0  0  0
   -4.8842   -2.6126    0.6694 H   0  0  0  0  0  0  0  0  0  0  0  0
   -4.0433   -3.7186   -0.4486 H   0  0  0  0  0  0  0  0  0  0  0  0
   -2.7532   -2.5046    0.7444 C   0  0  0  0  0  0  0  0  0  0  0  0
   -1.9803   -2.8096    1.6434 O   0  0  0  0  0  0  0  0  0  0  0  0
   -2.5332   -1.4966   -0.0966 N   0  0  0  0  0  0  0  0  0  0  0  0
   -3.2312   -1.2816   -0.7936 H   0  0  0  0  0  0  0  0  0  0  0  0
   -1.3593   -0.6196   -0.0536 C   0  0  1  0  0  0  0  0  0  0  0  0
   -0.4622   -1.2317   -0.1545 H   0  0  0  0  0  0  0  0  0  0  0  0
   -1.4074    0.3593   -1.2373 C   0  0  0  0  0  0  0  0  0  0  0  0
   -2.4122    0.7801   -1.3050 H   0  0  0  0  0  0  0  0  0  0  0  0
   -0.7180    1.1812   -1.0365 H   0  0  0  0  0  0  0  0  0  0  0  0
   -1.0631   -0.2347   -2.5694 C   0  0  0  0  0  0  0  0  0  0  0  0
   -0.0439    0.1582   -3.3661 C   0  0  0  0  0  0  0  0  0  0  0  0
    0.6388    0.9699   -3.1398 H   0  0  0  0  0  0  0  0  0  0  0  0
    0.0016   -0.6425   -4.4905 N   0  0  0  0  0  0  0  0  0  0  0  0
    0.6814   -0.5287   -5.2282 H   0  0  0  0  0  0  0  0  0  0  0  0
   -0.9822   -1.6081   -4.4662 C   0  0  0  0  0  0  0  0  0  0  0  0
   -1.3233   -2.6506   -5.3398 C   0  0  0  0  0  0  0  0  0  0  0  0
   -0.7623   -2.8084   -6.2492 H   0  0  0  0  0  0  0  0  0  0  0  0
   -2.4064   -3.4857   -5.0163 C   0  0  0  0  0  0  0  0  0  0  0  0
   -2.6847   -4.2942   -5.6787 H   0  0  0  0  0  0  0  0  0  0  0  0
   -3.1329   -3.2643   -3.8320 C   0  0  0  0  0  0  0  0  0  0  0  0
   -3.9706   -3.9041   -3.5912 H   0  0  0  0  0  0  0  0  0  0  0  0
   -2.7823   -2.2122   -2.9623 C   0  0  0  0  0  0  0  0  0  0  0  0
   -3.3570   -2.0449   -2.0625 H   0  0  0  0  0  0  0  0  0  0  0  0
   -1.6959   -1.3597   -3.2557 C   0  0  0  0  0  0  0  0  0  0  0  0
   -1.2663    0.1182    1.2910 C   0  0  0  0  0  0  0  0  0  0  0  0
   -0.1906    0.1931    1.8833 O   0  0  0  0  0  0  0  0  0  0  0  0
   -2.3930    0.6605    1.7722 N   0  0  0  0  0  0  0  0  0  0  0  0
   -3.2451    0.5077    1.2518 H   0  0  0  0  0  0  0  0  0  0  0  0
   -2.4787    1.3954    3.0311 C   0  0  0  0  0  0  0  0  0  0  0  0
   -1.7166    2.1767    3.0539 H   0  0  0  0  0  0  0  0  0  0  0  0
   -3.4649    1.8498    3.1344 H   0  0  0  0  0  0  0  0  0  0  0  0
   -2.3058    0.7133    3.8652 H   0  0  0  0  0  0  0  0  0  0  0  0
  5  6  2  0  0  0  0
  5  7  1  0  0  0  0
  2  3  1  0  0  0  0
  2  4  1  0  0  0  0
  2  5  1  0  0  0  0
  1  2  1  0  0  0  0
 29 30  2  0  0  0  0
 29 31  1  0  0  0  0
 26 27  1  0  0  0  0
 26 28  2  0  0  0  0
 24 25  1  0  0  0  0
 24 26  1  0  0  0  0
 22 23  1  0  0  0  0
 22 24  2  0  0  0  0
 20 21  1  0  0  0  0
 20 22  1  0  0  0  0
 19 20  2  0  0  0  0
 19 28  1  0  0  0  0
 17 18  1  0  0  0  0
 17 19  1  0  0  0  0
 15 16  1  0  0  0  0
 15 17  1  0  0  0  0
 14 15  2  0  0  0  0
 14 28  1  0  0  0  0
 11 12  1  0  0  0  0
 11 13  1  0  0  0  0
 11 14  1  0  0  0  0
  9 10  1  0  0  0  0
  9 11  1  0  0  0  0
  9 29  1  0  0  0  0
  7  8  1  0  0  0  0
  7  9  1  0  0  0  0
 33 34  1  0  0  0  0
 33 35  1  0  0  0  0
 33 36  1  0  0  0  0
 31 32  1  0  0  0  0
 31 33  1  0  0  0  0
M  END
$$$$
default_name
  -OEChem-02102213163D

 36 37  0     1  0  0  0  0  0999 V2000
   -4.0843   -4.0736    1.2944 H   0  0  0  0  0  0  0  0  0  0  0  0
   -4.0342   -3.2816    0.5484 C   0  0  0  0  0  0  0  0  0  0  0  0
   -4.8842   -2.6126    0.6694 H   0  0  0  0  0  0  0  0  0  0  0  0
   -4.0433   -3.7186   -0.4486 H   0  0  0  0  0  0  0  0  0  0  0  0
   -2.7532   -2.5046    0.7444 C   0  0  0  0  0  0  0  0  0  0  0  0
   -1.9803   -2.8096    1.6434 O   0  0  0  0  0  0  0  0  0  0  0  0
   -2.5332   -1.4966   -0.0966 N   0  0  0  0  0  0  0  0  0  0  0  0
   -3.2312   -1.2816   -0.7936 H   0  0  0  0  0  0  0  0  0  0  0  0
   -1.3593   -0.6196   -0.0536 C   0  0  1  0  0  0  0  0  0  0  0  0
   -0.4622   -1.2317   -0.1545 H   0  0  0  0  0  0  0  0  0  0  0  0
   -1.4074    0.3593   -1.2373 C   0  0  0  0  0  0  0  0  0  0  0  0
   -2.4122    0.7801   -1.3050 H   0  0  0  0  0  0  0  0  0  0  0  0
   -0.7180    1.1812   -1.0365 H   0  0  0  0  0  0  0  0  0  0  0  0
   -1.0631   -0.2347   -2.5694 C   0  0  0  0  0  0  0  0  0  0  0  0
    0.0997   -0.0529   -3.2349 C   0  0  0  0  0  0  0  0  0  0  0  0
    0.9197    0.5656   -2.8869 H   0  0  0  0  0  0  0  0  0  0  0  0
    0.0851   -0.7879   -4.4041 N   0  0  0  0  0  0  0  0  0  0  0  0
    0.8496   -0.8009   -5.0634 H   0  0  0  0  0  0  0  0  0  0  0  0
   -1.0887   -1.4975   -4.5430 C   0  0  0  0  0  0  0  0  0  0  0  0
   -1.5598   -2.3890   -5.5175 C   0  0  0  0  0  0  0  0  0  0  0  0
   -0.9531   -2.6300   -6.3780 H   0  0  0  0  0  0  0  0  0  0  0  0
   -2.8328   -2.9630   -5.3596 C   0  0  0  0  0  0  0  0  0  0  0  0
   -3.2131   -3.6520   -6.1016 H   0  0  0  0  0  0  0  0  0  0  0  0
   -3.6154   -2.6348   -4.2374 C   0  0  0  0  0  0  0  0  0  0  0  0
   -4.5976   -3.0722   -4.1241 H   0  0  0  0  0  0  0  0  0  0  0  0
   -3.1326   -1.7359   -3.2652 C   0  0  0  0  0  0  0  0  0  0  0  0
   -3.7494   -1.4821   -2.4148 H   0  0  0  0  0  0  0  0  0  0  0  0
   -1.8557   -1.1473   -3.3917 C   0  0  0  0  0  0  0  0  0  0  0  0
   -1.2663    0.1182    1.2910 C   0  0  0  0  0  0  0  0  0  0  0  0
   -0.1906    0.1931    1.8833 O   0  0  0  0  0  0  0  0  0  0  0  0
   -2.3930    0.6605    1.7722 N   0  0  0  0  0  0  0  0  0  0  0  0
   -3.2451    0.5077    1.2518 H   0  0  0  0  0  0  0  0  0  0  0  0
   -2.4787    1.3954    3.0311 C   0  0  0  0  0  0  0  0  0  0  0  0
   -1.7166    2.1767    3.0539 H   0  0  0  0  0  0  0  0  0  0  0  0
   -3.4649    1.8498    3.1344 H   0  0  0  0  0  0  0  0  0  0  0  0
   -2.3058    0.7133    3.8652 H   0  0  0  0  0  0  0  0  0  0  0  0
  5  6  2  0  0  0  0
  5  7  1  0  0  0  0
  2  3  1  0  0  0  0
  2  4  1  0  0  0  0
  2  5  1  0  0  0  0
  1  2  1  0  0  0  0
 29 30  2  0  0  0  0
 29 31  1  0  0  0  0
 26 27  1  0  0  0  0
 26 28  2  0  0  0  0
 24 25  1  0  0  0  0
 24 26  1  0  0  0  0
 22 23  1  0  0  0  0
 22 24  2  0  0  0  0
 20 21  1  0  0  0  0
 20 22  1  0  0  0  0
 19 20  2  0  0  0  0
 19 28  1  0  0  0  0
 17 18  1  0  0  0  0
 17 19  1  0  0  0  0
 15 16  1  0  0  0  0
 15 17  1  0  0  0  0
 14 15  2  0  0  0  0
 14 28  1  0  0  0  0
 11 12  1  0  0  0  0
 11 13  1  0  0  0  0
 11 14  1  0  0  0  0
  9 10  1  0  0  0  0
  9 11  1  0  0  0  0
  9 29  1  0  0  0  0
  7  8  1  0  0  0  0
  7  9  1  0  0  0  0
 33 34  1  0  0  0  0
 33 35  1  0  0  0  0
 33 36  1  0  0  0  0
 31 32  1  0  0  0  0
 31 33  1  0  0  0  0
M  END
$$$$
default_name
  -OEChem-02102213163D

 36 37  0     1  0  0  0  0  0999 V2000
   -4.0843   -4.0736    1.2944 H   0  0  0  0  0  0  0  0  0  0  0  0
   -4.0342   -3.2816    0.5484 C   0  0  0  0  0  0  0  0  0  0  0  0
   -4.8842   -2.6126    0.6694 H   0  0  0  0  0  0  0  0  0  0  0  0
   -4.0433   -3.7186   -0.4486 H   0  0  0  0  0  0  0  0  0  0  0  0
   -2.7532   -2.5046    0.7444 C   0  0  0  0  0  0  0  0  0  0  0  0
   -1.9803   -2.8096    1.6434 O   0  0  0  0  0  0  0  0  0  0  0  0
   -2.5332   -1.4966   -0.0966 N   0  0  0  0  0  0  0  0  0  0  0  0
   -3.2312   -1.2816   -0.7936 H   0  0  0  0  0  0  0  0  0  0  0  0
   -1.3593   -0.6196   -0.0536 C   0  0  1  0  0  0  0  0  0  0  0  0
   -0.4622   -1.2317   -0.1545 H   0  0  0  0  0  0  0  0  0  0  0  0
   -1.4074    0.3593   -1.2373 C   0  0  0  0  0  0  0  0  0  0  0  0
   -2.4122    0.7801   -1.3050 H   0  0  0  0  0  0  0  0  0  0  0  0
   -0.7180    1.1812   -1.0365 H   0  0  0  0  0  0  0  0  0  0  0  0
   -1.0631   -0.2347   -2.5694 C   0  0  0  0  0  0  0  0  0  0  0  0
    0.1763   -0.2977   -3.1059 C   0  0  0  0  0  0  0  0  0  0  0  0
    1.0721    0.0954   -2.6379 H   0  0  0  0  0  0  0  0  0  0  0  0
    0.1235   -0.9526   -4.3207 N   0  0  0  0  0  0  0  0  0  0  0  0
    0.9325   -1.1122   -4.9031 H   0  0  0  0  0  0  0  0  0  0  0  0
   -1.1583   -1.3616   -4.6216 C   0  0  0  0  0  0  0  0  0  0  0  0
   -1.7097   -2.0714   -5.6979 C   0  0  0  0  0  0  0  0  0  0  0  0
   -1.0831   -2.4061   -6.5115 H   0  0  0  0  0  0  0  0  0  0  0  0
   -3.0893   -2.3396   -5.7039 C   0  0  0  0  0  0  0  0  0  0  0  0
   -3.5324   -2.8849   -6.5262 H   0  0  0  0  0  0  0  0  0  0  0  0
   -3.8950   -1.8916   -4.6411 C   0  0  0  0  0  0  0  0  0  0  0  0
   -4.9572   -2.0928   -4.6538 H   0  0  0  0  0  0  0  0  0  0  0  0
   -3.3303   -1.1772   -3.5654 C   0  0  0  0  0  0  0  0  0  0  0  0
   -3.9627   -0.8273   -2.7620 H   0  0  0  0  0  0  0  0  0  0  0  0
   -1.9471   -0.8972   -3.5268 C   0  0  0  0  0  0  0  0  0  0  0  0
   -1.2663    0.1182    1.2910 C   0  0  0  0  0  0  0  0  0  0  0  0
   -0.1906    0.1931    1.8833 O   0  0  0  0  0  0  0  0  0  0  0  0
   -2.3930    0.6605    1.7722 N   0  0  0  0  0  0  0  0  0  0  0  0
   -3.2451    0.5077    1.2518 H   0  0  0  0  0  0  0  0  0  0  0  0
   -2.4787    1.3954    3.0311 C   0  0  0  0  0  0  0  0  0  0  0  0
   -1.7166    2.1767    3.0539 H   0  0  0  0  0  0  0  0  0  0  0  0
   -3.4649    1.8498    3.1344 H   0  0  0  0  0  0  0  0  0  0  0  0
   -2.3058    0.7133    3.8652 H   0  0  0  0  0  0  0  0  0  0  0  0
  5  6  2  0  0  0  0
  5  7  1  0  0  0  0
  2  3  1  0  0  0  0
  2  4  1  0  0  0  0
  2  5  1  0  0  0  0
  1  2  1  0  0  0  0
 29 30  2  0  0  0  0
 29 31  1  0  0  0  0
 26 27  1  0  0  0  0
 26 28  2  0  0  0  0
 24 25  1  0  0  0  0
 24 26  1  0  0  0  0
 22 23  1  0  0  0  0
 22 24  2  0  0  0  0
 20 21  1  0  0  0  0
 20 22  1  0  0  0  0
 19 20  2  0  0  0  0
 19 28  1  0  0  0  0
 17 18  1  0  0  0  0
 17 19  1  0  0  0  0
 15 16  1  0  0  0  0
 15 17  1  0  0  0  0
 14 15  2  0  0  0  0
 14 28  1  0  0  0  0
 11 12  1  0  0  0  0
 11 13  1  0  0  0  0
 11 14  1  0  0  0  0
  9 10  1  0  0  0  0
  9 11  1  0  0  0  0
  9 29  1  0  0  0  0
  7  8  1  0  0  0  0
  7  9  1  0  0  0  0
 33 34  1  0  0  0  0
 33 35  1  0  0  0  0
 33 36  1  0  0  0  0
 31 32  1  0  0  0  0
 31 33  1  0  0  0  0
M  END
$$$$
default_name
  -OEChem-02102213163D

 36 37  0     1  0  0  0  0  0999 V2000
   -4.0843   -4.0736    1.2944 H   0  0  0  0  0  0  0  0  0  0  0  0
   -4.0342   -3.2816    0.5484 C   0  0  0  0  0  0  0  0  0  0  0  0
   -4.8842   -2.6126    0.6694 H   0  0  0  0  0  0  0  0  0  0  0  0
   -4.0433   -3.7186   -0.4486 H   0  0  0  0  0  0  0  0  0  0  0  0
   -2.7532   -2.5046    0.7444 C   0  0  0  0  0  0  0  0  0  0  0  0
   -1.9803   -2.8096    1.6434 O   0  0  0  0  0  0  0  0  0  0  0  0
   -2.5332   -1.4966   -0.0966 N   0  0  0  0  0  0  0  0  0  0  0  0
   -3.2312   -1.2816   -0.7936 H   0  0  0  0  0  0  0  0  0  0  0  0
   -1.3593   -0.6196   -0.0536 C   0  0  1  0  0  0  0  0  0  0  0  0
   -0.4622   -1.2317   -0.1545 H   0  0  0  0  0  0  0  0  0  0  0  0
   -1.4074    0.3593   -1.2373 C   0  0  0  0  0  0  0  0  0  0  0  0
   -2.4122    0.7801   -1.3050 H   0  0  0  0  0  0  0  0  0  0  0  0
   -0.7180    1.1812   -1.0365 H   0  0  0  0  0  0  0  0  0  0  0  0
   -1.0631   -0.2347   -2.5694 C   0  0  0  0  0  0  0  0  0  0  0  0
    0.1807   -0.5594   -2.9881 C   0  0  0  0  0  0  0  0  0  0  0  0
    1.0856   -0.4087   -2.4096 H   0  0  0  0  0  0  0  0  0  0  0  0
    0.1141   -1.1255   -4.2461 N   0  0  0  0  0  0  0  0  0  0  0  0
    0.9246   -1.4415   -4.7583 H   0  0  0  0  0  0  0  0  0  0  0  0
   -1.1862   -1.2096   -4.6966 C   0  0  0  0  0  0  0  0  0  0  0  0
   -1.7630   -1.7194   -5.8686 C   0  0  0  0  0  0  0  0  0  0  0  0
   -1.1434   -2.1520   -6.6404 H   0  0  0  0  0  0  0  0  0  0  0  0
   -3.1582   -1.6579   -6.0256 C   0  0  0  0  0  0  0  0  0  0  0  0
   -3.6208   -2.0452   -6.9234 H   0  0  0  0  0  0  0  0  0  0  0  0
   -3.9527   -1.0854   -5.0155 C   0  0  0  0  0  0  0  0  0  0  0  0
   -5.0250   -1.0326   -5.1441 H   0  0  0  0  0  0  0  0  0  0  0  0
   -3.3619   -0.5743   -3.8425 C   0  0  0  0  0  0  0  0  0  0  0  0
   -3.9826   -0.1250   -3.0802 H   0  0  0  0  0  0  0  0  0  0  0  0
   -1.9641   -0.6266   -3.6518 C   0  0  0  0  0  0  0  0  0  0  0  0
   -1.2663    0.1182    1.2910 C   0  0  0  0  0  0  0  0  0  0  0  0
   -0.1906    0.1931    1.8833 O   0  0  0  0  0  0  0  0  0  0  0  0
   -2.3930    0.6605    1.7722 N   0  0  0  0  0  0  0  0  0  0  0  0
   -3.2451    0.5077    1.2518 H   0  0  0  0  0  0  0  0  0  0  0  0
   -2.4787    1.3954    3.0311 C   0  0  0  0  0  0  0  0  0  0  0  0
   -1.7166    2.1767    3.0539 H   0  0  0  0  0  0  0  0  0  0  0  0
   -3.4649    1.8498    3.1344 H   0  0  0  0  0  0  0  0  0  0  0  0
   -2.3058    0.7133    3.8652 H   0  0  0  0  0  0  0  0  0  0  0  0
  5  6  2  0  0  0  0
  5  7  1  0  0  0  0
  2  3  1  0  0  0  0
  2  4  1  0  0  0  0
  2  5  1  0  0  0  0
  1  2  1  0  0  0  0
 29 30  2  0  0  0  0
 29 31  1  0  0  0  0
 26 27  1  0  0  0  0
 26 28  2  0  0  0  0
 24 25  1  0  0  0  0
 24 26  1  0  0  0  0
 22 23  1  0  0  0  0
 22 24  2  0  0  0  0
 20 21  1  0  0  0  0
 20 22  1  0  0  0  0
 19 20  2  0  0  0  0
 19 28  1  0  0  0  0
 17 18  1  0  0  0  0
 17 19  1  0  0  0  0
 15 16  1  0  0  0  0
 15 17  1  0  0  0  0
 14 15  2  0  0  0  0
 14 28  1  0  0  0  0
 11 12  1  0  0  0  0
 11 13  1  0  0  0  0
 11 14  1  0  0  0  0
  9 10  1  0  0  0  0
  9 11  1  0  0  0  0
  9 29  1  0  0  0  0
  7  8  1  0  0  0  0
  7  9  1  0  0  0  0
 33 34  1  0  0  0  0
 33 35  1  0  0  0  0
 33 36  1  0  0  0  0
 31 32  1  0  0  0  0
 31 33  1  0  0  0  0
M  END
$$$$
default_name
  -OEChem-02102213163D

 36 37  0     1  0  0  0  0  0999 V2000
   -4.0843   -4.0736    1.2944 H   0  0  0  0  0  0  0  0  0  0  0  0
   -4.0342   -3.2816    0.5484 C   0  0  0  0  0  0  0  0  0  0  0  0
   -4.8842   -2.6126    0.6694 H   0  0  0  0  0  0  0  0  0  0  0  0
   -4.0433   -3.7186   -0.4486 H   0  0  0  0  0  0  0  0  0  0  0  0
   -2.7532   -2.5046    0.7444 C   0  0  0  0  0  0  0  0  0  0  0  0
   -1.9803   -2.8096    1.6434 O   0  0  0  0  0  0  0  0  0  0  0  0
   -2.5332   -1.4966   -0.0966 N   0  0  0  0  0  0  0  0  0  0  0  0
   -3.2312   -1.2816   -0.7936 H   0  0  0  0  0  0  0  0  0  0  0  0
   -1.3593   -0.6196   -0.0536 C   0  0  1  0  0  0  0  0  0  0  0  0
   -0.4622   -1.2317   -0.1545 H   0  0  0  0  0  0  0  0  0  0  0  0
   -1.4074    0.3593   -1.2373 C   0  0  0  0  0  0  0  0  0  0  0  0
   -2.4122    0.7801   -1.3050 H   0  0  0  0  0  0  0  0  0  0  0  0
   -0.7180    1.1812   -1.0365 H   0  0  0  0  0  0  0  0  0  0  0  0
   -1.0631   -0.2347   -2.5694 C   0  0  0  0  0  0  0  0  0  0  0  0
    0.1127   -0.8202   -2.8894 C   0  0  0  0  0  0  0  0  0  0  0  0
    0.9593   -0.9123   -2.2177 H   0  0  0  0  0  0  0  0  0  0  0  0
    0.0576   -1.2949   -4.1852 N   0  0  0  0  0  0  0  0  0  0  0  0
    0.8263   -1.7664   -4.6388 H   0  0  0  0  0  0  0  0  0  0  0  0
   -1.1705   -1.0519   -4.7628 C   0  0  0  0  0  0  0  0  0  0  0  0
   -1.7160   -1.3570   -6.0181 C   0  0  0  0  0  0  0  0  0  0  0  0
   -1.1300   -1.8850   -6.7560 H   0  0  0  0  0  0  0  0  0  0  0  0
   -3.0350   -0.9645   -6.3030 C   0  0  0  0  0  0  0  0  0  0  0  0
   -3.4722   -1.1902   -7.2663 H   0  0  0  0  0  0  0  0  0  0  0  0
   -3.7846   -0.2711   -5.3351 C   0  0  0  0  0  0  0  0  0  0  0  0
   -4.7961    0.0363   -5.5616 H   0  0  0  0  0  0  0  0  0  0  0  0
   -3.2253    0.0319   -4.0775 C   0  0  0  0  0  0  0  0  0  0  0  0
   -3.8075    0.5768   -3.3479 H   0  0  0  0  0  0  0  0  0  0  0  0
   -1.9054   -0.3539   -3.7583 C   0  0  0  0  0  0  0  0  0  0  0  0
   -1.2663    0.1182    1.2910 C   0  0  0  0  0  0  0  0  0  0  0  0
   -0.1906    0.1931    1.8833 O   0  0  0  0  0  0  0  0  0  0  0  0
   -2.3930    0.6605    1.7722 N   0  0  0  0  0  0  0  0  0  0  0  0
   -3.2451    0.5077    1.2518 H   0  0  0  0  0  0  0  0  0  0  0  0
   -2.4787    1.3954    3.0311 C   0  0  0  0  0  0  0  0  0  0  0  0
   -1.7166    2.1767    3.0539 H   0  0  0  0  0  0  0  0  0  0  0  0
   -3.4649    1.8498    3.1344 H   0  0  0  0  0  0  0  0  0  0  0  0
   -2.3058    0.7133    3.8652 H   0  0  0  0  0  0  0  0  0  0  0  0
  5  6  2  0  0  0  0
  5  7  1  0  0  0  0
  2  3  1  0  0  0  0
  2  4  1  0  0  0  0
  2  5  1  0  0  0  0
  1  2  1  0  0  0  0
 29 30  2  0  0  0  0
 29 31  1  0  0  0  0
 26 27  1  0  0  0  0
 26 28  2  0  0  0  0
 24 25  1  0  0  0  0
 24 26  1  0  0  0  0
 22 23  1  0  0  0  0
 22 24  2  0  0  0  0
 20 21  1  0  0  0  0
 20 22  1  0  0  0  0
 19 20  2  0  0  0  0
 19 28  1  0  0  0  0
 17 18  1  0  0  0  0
 17 19  1  0  0  0  0
 15 16  1  0  0  0  0
 15 17  1  0  0  0  0
 14 15  2  0  0  0  0
 14 28  1  0  0  0  0
 11 12  1  0  0  0  0
 11 13  1  0  0  0  0
 11 14  1  0  0  0  0
  9 10  1  0  0  0  0
  9 11  1  0  0  0  0
  9 29  1  0  0  0  0
  7  8  1  0  0  0  0
  7  9  1  0  0  0  0
 33 34  1  0  0  0  0
 33 35  1  0  0  0  0
 33 36  1  0  0  0  0
 31 32  1  0  0  0  0
 31 33  1  0  0  0  0
M  END
$$$$
default_name
  -OEChem-02102213163D

 36 37  0     1  0  0  0  0  0999 V2000
   -4.0843   -4.0736    1.2944 H   0  0  0  0  0  0  0  0  0  0  0  0
   -4.0342   -3.2816    0.5484 C   0  0  0  0  0  0  0  0  0  0  0  0
   -4.8842   -2.6126    0.6694 H   0  0  0  0  0  0  0  0  0  0  0  0
   -4.0433   -3.7186   -0.4486 H   0  0  0  0  0  0  0  0  0  0  0  0
   -2.7532   -2.5046    0.7444 C   0  0  0  0  0  0  0  0  0  0  0  0
   -1.9803   -2.8096    1.6434 O   0  0  0  0  0  0  0  0  0  0  0  0
   -2.5332   -1.4966   -0.0966 N   0  0  0  0  0  0  0  0  0  0  0  0
   -3.2312   -1.2816   -0.7936 H   0  0  0  0  0  0  0  0  0  0  0  0
   -1.3593   -0.6196   -0.0536 C   0  0  1  0  0  0  0  0  0  0  0  0
   -0.4622   -1.2317   -0.1545 H   0  0  0  0  0  0  0  0  0  0  0  0
   -1.4074    0.3593   -1.2373 C   0  0  0  0  0  0  0  0  0  0  0  0
   -2.4122    0.7801   -1.3050 H   0  0  0  0  0  0  0  0  0  0  0  0
   -0.7180    1.1812   -1.0365 H   0  0  0  0  0  0  0  0  0  0  0  0
   -1.0631   -0.2347   -2.5694 C   0  0  0  0  0  0  0  0  0  0  0  0
   -0.0230   -1.0623   -2.8165 C   0  0  0  0  0  0  0  0  0  0  0  0
    0.7017   -1.3810   -2.0753 H   0  0  0  0  0  0  0  0  0  0  0  0
   -0.0422   -1.4490   -4.1422 N   0  0  0  0  0  0  0  0  0  0  0  0
    0.6444   -2.0648   -4.5528 H   0  0  0  0  0  0  0  0  0  0  0  0
   -1.1122   -0.8993   -4.8158 C   0  0  0  0  0  0  0  0  0  0  0  0
   -1.5719   -1.0088   -6.1361 C   0  0  0  0  0  0  0  0  0  0  0  0
   -1.0438   -1.6233   -6.8504 H   0  0  0  0  0  0  0  0  0  0  0  0
   -2.7280   -0.3065   -6.5170 C   0  0  0  0  0  0  0  0  0  0  0  0
   -3.0968   -0.3781   -7.5313 H   0  0  0  0  0  0  0  0  0  0  0  0
   -3.4020    0.4958   -5.5782 C   0  0  0  0  0  0  0  0  0  0  0  0
   -4.2864    1.0410   -5.8778 H   0  0  0  0  0  0  0  0  0  0  0  0
   -2.9298    0.6000   -4.2544 C   0  0  0  0  0  0  0  0  0  0  0  0
   -3.4495    1.2303   -3.5468 H   0  0  0  0  0  0  0  0  0  0  0  0
   -1.7751   -0.0977   -3.8389 C   0  0  0  0  0  0  0  0  0  0  0  0
   -1.2663    0.1182    1.2910 C   0  0  0  0  0  0  0  0  0  0  0  0
   -0.1906    0.1931    1.8833 O   0  0  0  0  0  0  0  0  0  0  0  0
   -2.3930    0.6605    1.7722 N   0  0  0  0  0  0  0  0  0  0  0  0
   -3.2451    0.5077    1.2518 H   0  0  0  0  0  0  0  0  0  0  0  0
   -2.4787    1.3954    3.0311 C   0  0  0  0  0  0  0  0  0  0  0  0
   -1.7166    2.1767    3.0539 H   0  0  0  0  0  0  0  0  0  0  0  0
   -3.4649    1.8498    3.1344 H   0  0  0  0  0  0  0  0  0  0  0  0
   -2.3058    0.7133    3.8652 H   0  0  0  0  0  0  0  0  0  0  0  0
  5  6  2  0  0  0  0
  5  7  1  0  0  0  0
  2  3  1  0  0  0  0
  2  4  1  0  0  0  0
  2  5  1  0  0  0  0
  1  2  1  0  0  0  0
 29 30  2  0  0  0  0
 29 31  1  0  0  0  0
 26 27  1  0  0  0  0
 26 28  2  0  0  0  0
 24 25  1  0  0  0  0
 24 26  1  0  0  0  0
 22 23  1  0  0  0  0
 22 24  2  0  0  0  0
 20 21  1  0  0  0  0
 20 22  1  0  0  0  0
 19 20  2  0  0  0  0
 19 28  1  0  0  0  0
 17 18  1  0  0  0  0
 17 19  1  0  0  0  0
 15 16  1  0  0  0  0
 15 17  1  0  0  0  0
 14 15  2  0  0  0  0
 14 28  1  0  0  0  0
 11 12  1  0  0  0  0
 11 13  1  0  0  0  0
 11 14  1  0  0  0  0
  9 10  1  0  0  0  0
  9 11  1  0  0  0  0
  9 29  1  0  0  0  0
  7  8  1  0  0  0  0
  7  9  1  0  0  0  0
 33 34  1  0  0  0  0
 33 35  1  0  0  0  0
 33 36  1  0  0  0  0
 31 32  1  0  0  0  0
 31 33  1  0  0  0  0
M  END
$$$$
default_name
  -OEChem-02102213163D

 36 37  0     1  0  0  0  0  0999 V2000
   -4.0843   -4.0736    1.2944 H   0  0  0  0  0  0  0  0  0  0  0  0
   -4.0342   -3.2816    0.5484 C   0  0  0  0  0  0  0  0  0  0  0  0
   -4.8842   -2.6126    0.6694 H   0  0  0  0  0  0  0  0  0  0  0  0
   -4.0433   -3.7186   -0.4486 H   0  0  0  0  0  0  0  0  0  0  0  0
   -2.7532   -2.5046    0.7444 C   0  0  0  0  0  0  0  0  0  0  0  0
   -1.9803   -2.8096    1.6434 O   0  0  0  0  0  0  0  0  0  0  0  0
   -2.5332   -1.4966   -0.0966 N   0  0  0  0  0  0  0  0  0  0  0  0
   -3.2312   -1.2816   -0.7936 H   0  0  0  0  0  0  0  0  0  0  0  0
   -1.3593   -0.6196   -0.0536 C   0  0  1  0  0  0  0  0  0  0  0  0
   -0.4622   -1.2317   -0.1545 H   0  0  0  0  0  0  0  0  0  0  0  0
   -1.4074    0.3593   -1.2373 C   0  0  0  0  0  0  0  0  0  0  0  0
   -2.4122    0.7801   -1.3050 H   0  0  0  0  0  0  0  0  0  0  0  0
   -0.7180    1.1812   -1.0365 H   0  0  0  0  0  0  0  0  0  0  0  0
   -1.0631   -0.2347   -2.5694 C   0  0  0  0  0  0  0  0  0  0  0  0
   -0.2174   -1.2693   -2.7744 C   0  0  0  0  0  0  0  0  0  0  0  0
    0.3304   -1.7830   -1.9920 H   0  0  0  0  0  0  0  0  0  0  0  0
   -0.1785   -1.5775   -4.1201 N   0  0  0  0  0  0  0  0  0  0  0  0
    0.3912   -2.3162   -4.5062 H   0  0  0  0  0  0  0  0  0  0  0  0
   -1.0154   -0.7622   -4.8520 C   0  0  0  0  0  0  0  0  0  0  0  0
   -1.3405   -0.6987   -6.2146 C   0  0  0  0  0  0  0  0  0  0  0  0
   -0.8906   -1.3847   -6.9172 H   0  0  0  0  0  0  0  0  0  0  0  0
   -2.2582    0.2711   -6.6532 C   0  0  0  0  0  0  0  0  0  0  0  0
   -2.5202    0.3357   -7.7006 H   0  0  0  0  0  0  0  0  0  0  0  0
   -2.8312    1.1629   -5.7282 C   0  0  0  0  0  0  0  0  0  0  0  0
   -3.5304    1.9129   -6.0712 H   0  0  0  0  0  0  0  0  0  0  0  0
   -2.4956    1.0913   -4.3612 C   0  0  0  0  0  0  0  0  0  0  0  0
   -2.9329    1.7911   -3.6633 H   0  0  0  0  0  0  0  0  0  0  0  0
   -1.5819    0.1247   -3.8881 C   0  0  0  0  0  0  0  0  0  0  0  0
   -1.2663    0.1182    1.2910 C   0  0  0  0  0  0  0  0  0  0  0  0
   -0.1906    0.1931    1.8833 O   0  0  0  0  0  0  0  0  0  0  0  0
   -2.3930    0.6605    1.7722 N   0  0  0  0  0  0  0  0  0  0  0  0
   -3.2451    0.5077    1.2518 H   0  0  0  0  0  0  0  0  0  0  0  0
   -2.4787    1.3954    3.0311 C   0  0  0  0  0  0  0  0  0  0  0  0
   -1.7166    2.1767    3.0539 H   0  0  0  0  0  0  0  0  0  0  0  0
   -3.4649    1.8498    3.1344 H   0  0  0  0  0  0  0  0  0  0  0  0
   -2.3058    0.7133    3.8652 H   0  0  0  0  0  0  0  0  0  0  0  0
  5  6  2  0  0  0  0
  5  7  1  0  0  0  0
  2  3  1  0  0  0  0
  2  4  1  0  0  0  0
  2  5  1  0  0  0  0
  1  2  1  0  0  0  0
 29 30  2  0  0  0  0
 29 31  1  0  0  0  0
 26 27  1  0  0  0  0
 26 28  2  0  0  0  0
 24 25  1  0  0  0  0
 24 26  1  0  0  0  0
 22 23  1  0  0  0  0
 22 24  2  0  0  0  0
 20 21  1  0  0  0  0
 20 22  1  0  0  0  0
 19 20  2  0  0  0  0
 19 28  1  0  0  0  0
 17 18  1  0  0  0  0
 17 19  1  0  0  0  0
 15 16  1  0  0  0  0
 15 17  1  0  0  0  0
 14 15  2  0  0  0  0
 14 28  1  0  0  0  0
 11 12  1  0  0  0  0
 11 13  1  0  0  0  0
 11 14  1  0  0  0  0
  9 10  1  0  0  0  0
  9 11  1  0  0  0  0
  9 29  1  0  0  0  0
  7  8  1  0  0  0  0
  7  9  1  0  0  0  0
 33 34  1  0  0  0  0
 33 35  1  0  0  0  0
 33 36  1  0  0  0  0
 31 32  1  0  0  0  0
 31 33  1  0  0  0  0
M  END
$$$$
default_name
  -OEChem-02102213163D

 36 37  0     1  0  0  0  0  0999 V2000
   -4.0843   -4.0736    1.2944 H   0  0  0  0  0  0  0  0  0  0  0  0
   -4.0342   -3.2816    0.5484 C   0  0  0  0  0  0  0  0  0  0  0  0
   -4.8842   -2.6126    0.6694 H   0  0  0  0  0  0  0  0  0  0  0  0
   -4.0433   -3.7186   -0.4486 H   0  0  0  0  0  0  0  0  0  0  0  0
   -2.7532   -2.5046    0.7444 C   0  0  0  0  0  0  0  0  0  0  0  0
   -1.9803   -2.8096    1.6434 O   0  0  0  0  0  0  0  0  0  0  0  0
   -2.5332   -1.4966   -0.0966 N   0  0  0  0  0  0  0  0  0  0  0  0
   -3.2312   -1.2816   -0.7936 H   0  0  0  0  0  0  0  0  0  0  0  0
   -1.3593   -0.6196   -0.0536 C   0  0  1  0  0  0  0  0  0  0  0  0
   -0.4622   -1.2317   -0.1545 H   0  0  0  0  0  0  0  0  0  0  0  0
   -1.4074    0.3593   -1.2373 C   0  0  0  0  0  0  0  0  0  0  0  0
   -2.4122    0.7801   -1.3050 H   0  0  0  0  0  0  0  0  0  0  0  0
   -0.7180    1.1812   -1.0365 H   0  0  0  0  0  0  0  0  0  0  0  0
   -1.0631   -0.2347   -2.5694 C   0  0  0  0  0  0  0  0  0  0  0  0
   -0.4571   -1.4271   -2.7660 C   0  0  0  0  0  0  0  0  0  0  0  0
   -0.1293   -2.0909   -1.9735 H   0  0  0  0  0  0  0  0  0  0  0  0
   -0.3420   -1.6716   -4.1204 N   0  0  0  0  0  0  0  0  0  0  0  0
    0.0840   -2.5035   -4.5020 H   0  0  0  0  0  0  0  0  0  0  0  0
   -0.8866   -0.6498   -4.8688 C   0  0  0  0  0  0  0  0  0  0  0  0
   -1.0375   -0.4477   -6.2482 C   0  0  0  0  0  0  0  0  0  0  0  0
   -0.6809   -1.1855   -6.9518 H   0  0  0  0  0  0  0  0  0  0  0  0
   -1.6575    0.7290   -6.7021 C   0  0  0  0  0  0  0  0  0  0  0  0
   -1.7816    0.9025   -7.7625 H   0  0  0  0  0  0  0  0  0  0  0  0
   -2.1109    1.6850   -5.7748 C   0  0  0  0  0  0  0  0  0  0  0  0
   -2.5798    2.5927   -6.1286 H   0  0  0  0  0  0  0  0  0  0  0  0
   -1.9521    1.4722   -4.3906 C   0  0  0  0  0  0  0  0  0  0  0  0
   -2.2930    2.2208   -3.6895 H   0  0  0  0  0  0  0  0  0  0  0  0
   -1.3392    0.2979   -3.9026 C   0  0  0  0  0  0  0  0  0  0  0  0
   -1.2663    0.1182    1.2910 C   0  0  0  0  0  0  0  0  0  0  0  0
   -0.1906    0.1931    1.8833 O   0  0  0  0  0  0  0  0  0  0  0  0
   -2.3930    0.6605    1.7722 N   0  0  0  0  0  0  0  0  0  0  0  0
   -3.2451    0.5077    1.2518 H   0  0  0  0  0  0  0  0  0  0  0  0
   -2.4787    1.3954    3.0311 C   0  0  0  0  0  0  0  0  0  0  0  0
   -1.7166    2.1767    3.0539 H   0  0  0  0  0  0  0  0  0  0  0  0
   -3.4649    1.8498    3.1344 H   0  0  0  0  0  0  0  0  0  0  0  0
   -2.3058    0.7133    3.8652 H   0  0  0  0  0  0  0  0  0  0  0  0
  5  6  2  0  0  0  0
  5  7  1  0  0  0  0
  2  3  1  0  0  0  0
  2  4  1  0  0  0  0
  2  5  1  0  0  0  0
  1  2  1  0  0  0  0
 29 30  2  0  0  0  0
 29 31  1  0  0  0  0
 26 27  1  0  0  0  0
 26 28  2  0  0  0  0
 24 25  1  0  0  0  0
 24 26  1  0  0  0  0
 22 23  1  0  0  0  0
 22 24  2  0  0  0  0
 20 21  1  0  0  0  0
 20 22  1  0  0  0  0
 19 20  2  0  0  0  0
 19 28  1  0  0  0  0
 17 18  1  0  0  0  0
 17 19  1  0  0  0  0
 15 16  1  0  0  0  0
 15 17  1  0  0  0  0
 14 15  2  0  0  0  0
 14 28  1  0  0  0  0
 11 12  1  0  0  0  0
 11 13  1  0  0  0  0
 11 14  1  0  0  0  0
  9 10  1  0  0  0  0
  9 11  1  0  0  0  0
  9 29  1  0  0  0  0
  7  8  1  0  0  0  0
  7  9  1  0  0  0  0
 33 34  1  0  0  0  0
 33 35  1  0  0  0  0
 33 36  1  0  0  0  0
 31 32  1  0  0  0  0
 31 33  1  0  0  0  0
M  END
$$$$
default_name
  -OEChem-02102213163D

 36 37  0     1  0  0  0  0  0999 V2000
   -4.0843   -4.0736    1.2944 H   0  0  0  0  0  0  0  0  0  0  0  0
   -4.0342   -3.2816    0.5484 C   0  0  0  0  0  0  0  0  0  0  0  0
   -4.8842   -2.6126    0.6694 H   0  0  0  0  0  0  0  0  0  0  0  0
   -4.0433   -3.7186   -0.4486 H   0  0  0  0  0  0  0  0  0  0  0  0
   -2.7532   -2.5046    0.7444 C   0  0  0  0  0  0  0  0  0  0  0  0
   -1.9803   -2.8096    1.6434 O   0  0  0  0  0  0  0  0  0  0  0  0
   -2.5332   -1.4966   -0.0966 N   0  0  0  0  0  0  0  0  0  0  0  0
   -3.2312   -1.2816   -0.7936 H   0  0  0  0  0  0  0  0  0  0  0  0
   -1.3593   -0.6196   -0.0536 C   0  0  1  0  0  0  0  0  0  0  0  0
   -0.4622   -1.2317   -0.1545 H   0  0  0  0  0  0  0  0  0  0  0  0
   -1.4074    0.3593   -1.2373 C   0  0  0  0  0  0  0  0  0  0  0  0
   -2.4122    0.7801   -1.3050 H   0  0  0  0  0  0  0  0  0  0  0  0
   -0.7180    1.1812   -1.0365 H   0  0  0  0  0  0  0  0  0  0  0  0
   -1.0631   -0.2347   -2.5694 C   0  0  0  0  0  0  0  0  0  0  0  0
   -0.7257   -1.5248   -2.7919 C   0  0  0  0  0  0  0  0  0  0  0  0
   -0.6459   -2.2836   -2.0212 H   0  0  0  0  0  0  0  0  0  0  0  0
   -0.5215   -1.7248   -4.1431 N   0  0  0  0  0  0  0  0  0  0  0  0
   -0.2563   -2.6141   -4.5407 H   0  0  0  0  0  0  0  0  0  0  0  0
   -0.7347   -0.5699   -4.8651 C   0  0  0  0  0  0  0  0  0  0  0  0
   -0.6837   -0.2729   -6.2347 C   0  0  0  0  0  0  0  0  0  0  0  0
   -0.4290   -1.0393   -6.9519 H   0  0  0  0  0  0  0  0  0  0  0  0
   -0.9669    1.0361   -6.6605 C   0  0  0  0  0  0  0  0  0  0  0  0
   -0.9315    1.2839   -7.7128 H   0  0  0  0  0  0  0  0  0  0  0  0
   -1.2903    2.0263   -5.7148 C   0  0  0  0  0  0  0  0  0  0  0  0
   -1.4993    3.0341   -6.0461 H   0  0  0  0  0  0  0  0  0  0  0  0
   -1.3366    1.7169   -4.3406 C   0  0  0  0  0  0  0  0  0  0  0  0
   -1.5733    2.4902   -3.6236 H   0  0  0  0  0  0  0  0  0  0  0  0
   -1.0634    0.4103   -3.8814 C   0  0  0  0  0  0  0  0  0  0  0  0
   -1.2663    0.1182    1.2910 C   0  0  0  0  0  0  0  0  0  0  0  0
   -0.1906    0.1931    1.8833 O   0  0  0  0  0  0  0  0  0  0  0  0
   -2.3930    0.6605    1.7722 N   0  0  0  0  0  0  0  0  0  0  0  0
   -3.2451    0.5077    1.2518 H   0  0  0  0  0  0  0  0  0  0  0  0
   -2.4787    1.3954    3.0311 C   0  0  0  0  0  0  0  0  0  0  0  0
   -1.7166    2.1767    3.0539 H   0  0  0  0  0  0  0  0  0  0  0  0
   -3.4649    1.8498    3.1344 H   0  0  0  0  0  0  0  0  0  0  0  0
   -2.3058    0.7133    3.8652 H   0  0  0  0  0  0  0  0  0  0  0  0
  5  6  2  0  0  0  0
  5  7  1  0  0  0  0
  2  3  1  0  0  0  0
  2  4  1  0  0  0  0
  2  5  1  0  0  0  0
  1  2  1  0  0  0  0
 29 30  2  0  0  0  0
 29 31  1  0  0  0  0
 26 27  1  0  0  0  0
 26 28  2  0  0  0  0
 24 25  1  0  0  0  0
 24 26  1  0  0  0  0
 22 23  1  0  0  0  0
 22 24  2  0  0  0  0
 20 21  1  0  0  0  0
 20 22  1  0  0  0  0
 19 20  2  0  0  0  0
 19 28  1  0  0  0  0
 17 18  1  0  0  0  0
 17 19  1  0  0  0  0
 15 16  1  0  0  0  0
 15 17  1  0  0  0  0
 14 15  2  0  0  0  0
 14 28  1  0  0  0  0
 11 12  1  0  0  0  0
 11 13  1  0  0  0  0
 11 14  1  0  0  0  0
  9 10  1  0  0  0  0
  9 11  1  0  0  0  0
  9 29  1  0  0  0  0
  7  8  1  0  0  0  0
  7  9  1  0  0  0  0
 33 34  1  0  0  0  0
 33 35  1  0  0  0  0
 33 36  1  0  0  0  0
 31 32  1  0  0  0  0
 31 33  1  0  0  0  0
M  END
$$$$
default_name
  -OEChem-02102213163D

 36 37  0     1  0  0  0  0  0999 V2000
   -4.0843   -4.0736    1.2944 H   0  0  0  0  0  0  0  0  0  0  0  0
   -4.0342   -3.2816    0.5484 C   0  0  0  0  0  0  0  0  0  0  0  0
   -4.8842   -2.6126    0.6694 H   0  0  0  0  0  0  0  0  0  0  0  0
   -4.0433   -3.7186   -0.4486 H   0  0  0  0  0  0  0  0  0  0  0  0
   -2.7532   -2.5046    0.7444 C   0  0  0  0  0  0  0  0  0  0  0  0
   -1.9803   -2.8096    1.6434 O   0  0  0  0  0  0  0  0  0  0  0  0
   -2.5332   -1.4966   -0.0966 N   0  0  0  0  0  0  0  0  0  0  0  0
   -3.2312   -1.2816   -0.7936 H   0  0  0  0  0  0  0  0  0  0  0  0
   -1.3593   -0.6196   -0.0536 C   0  0  1  0  0  0  0  0  0  0  0  0
   -0.4622   -1.2317   -0.1545 H   0  0  0  0  0  0  0  0  0  0  0  0
   -1.4074    0.3593   -1.2373 C   0  0  0  0  0  0  0  0  0  0  0  0
   -2.4122    0.7801   -1.3050 H   0  0  0  0  0  0  0  0  0  0  0  0
   -0.7180    1.1812   -1.0365 H   0  0  0  0  0  0  0  0  0  0  0  0
   -1.0631   -0.2347   -2.5694 C   0  0  0  0  0  0  0  0  0  0  0  0
   -1.0050   -1.5558   -2.8502 C   0  0  0  0  0  0  0  0  0  0  0  0
   -1.1845   -2.3480   -2.1316 H   0  0  0  0  0  0  0  0  0  0  0  0
   -0.7048   -1.7336   -4.1865 N   0  0  0  0  0  0  0  0  0  0  0  0
   -0.6064   -2.6403   -4.6195 H   0  0  0  0  0  0  0  0  0  0  0  0
   -0.5699   -0.5279   -4.8413 C   0  0  0  0  0  0  0  0  0  0  0  0
   -0.3032   -0.1863   -6.1749 C   0  0  0  0  0  0  0  0  0  0  0  0
   -0.1521   -0.9561   -6.9174 H   0  0  0  0  0  0  0  0  0  0  0  0
   -0.2334    1.1713   -6.5312 C   0  0  0  0  0  0  0  0  0  0  0  0
   -0.0277    1.4537   -7.5549 H   0  0  0  0  0  0  0  0  0  0  0  0
   -0.4253    2.1636   -5.5525 C   0  0  0  0  0  0  0  0  0  0  0  0
   -0.3625    3.2069   -5.8294 H   0  0  0  0  0  0  0  0  0  0  0  0
   -0.6908    1.8087   -4.2147 C   0  0  0  0  0  0  0  0  0  0  0  0
   -0.8229    2.5809   -3.4702 H   0  0  0  0  0  0  0  0  0  0  0  0
   -0.7733    0.4541   -3.8259 C   0  0  0  0  0  0  0  0  0  0  0  0
   -1.2663    0.1182    1.2910 C   0  0  0  0  0  0  0  0  0  0  0  0
   -0.1906    0.1931    1.8833 O   0  0  0  0  0  0  0  0  0  0  0  0
   -2.3930    0.6605    1.7722 N   0  0  0  0  0  0  0  0  0  0  0  0
   -3.2451    0.5077    1.2518 H   0  0  0  0  0  0  0  0  0  0  0  0
   -2.4787    1.3954    3.0311 C   0  0  0  0  0  0  0  0  0  0  0  0
   -1.7166    2.1767    3.0539 H   0  0  0  0  0  0  0  0  0  0  0  0
   -3.4649    1.8498    3.1344 H   0  0  0  0  0  0  0  0  0  0  0  0
   -2.3058    0.7133    3.8652 H   0  0  0  0  0  0  0  0  0  0  0  0
  5  6  2  0  0  0  0
  5  7  1  0  0  0  0
  2  3  1  0  0  0  0
  2  4  1  0  0  0  0
  2  5  1  0  0  0  0
  1  2  1  0  0  0  0
 29 30  2  0  0  0  0
 29 31  1  0  0  0  0
 26 27  1  0  0  0  0
 26 28  2  0  0  0  0
 24 25  1  0  0  0  0
 24 26  1  0  0  0  0
 22 23  1  0  0  0  0
 22 24  2  0  0  0  0
 20 21  1  0  0  0  0
 20 22  1  0  0  0  0
 19 20  2  0  0  0  0
 19 28  1  0  0  0  0
 17 18  1  0  0  0  0
 17 19  1  0  0  0  0
 15 16  1  0  0  0  0
 15 17  1  0  0  0  0
 14 15  2  0  0  0  0
 14 28  1  0  0  0  0
 11 12  1  0  0  0  0
 11 13  1  0  0  0  0
 11 14  1  0  0  0  0
  9 10  1  0  0  0  0
  9 11  1  0  0  0  0
  9 29  1  0  0  0  0
  7  8  1  0  0  0  0
  7  9  1  0  0  0  0
 33 34  1  0  0  0  0
 33 35  1  0  0  0  0
 33 36  1  0  0  0  0
 31 32  1  0  0  0  0
 31 33  1  0  0  0  0
M  END
$$$$
default_name
  -OEChem-02102213163D

 36 37  0     1  0  0  0  0  0999 V2000
   -4.0843   -4.0736    1.2944 H   0  0  0  0  0  0  0  0  0  0  0  0
   -4.0342   -3.2816    0.5484 C   0  0  0  0  0  0  0  0  0  0  0  0
   -4.8842   -2.6126    0.6694 H   0  0  0  0  0  0  0  0  0  0  0  0
   -4.0433   -3.7186   -0.4486 H   0  0  0  0  0  0  0  0  0  0  0  0
   -2.7532   -2.5046    0.7444 C   0  0  0  0  0  0  0  0  0  0  0  0
   -1.9803   -2.8096    1.6434 O   0  0  0  0  0  0  0  0  0  0  0  0
   -2.5332   -1.4966   -0.0966 N   0  0  0  0  0  0  0  0  0  0  0  0
   -3.2312   -1.2816   -0.7936 H   0  0  0  0  0  0  0  0  0  0  0  0
   -1.3593   -0.6196   -0.0536 C   0  0  1  0  0  0  0  0  0  0  0  0
   -0.4622   -1.2317   -0.1545 H   0  0  0  0  0  0  0  0  0  0  0  0
   -1.4074    0.3593   -1.2373 C   0  0  0  0  0  0  0  0  0  0  0  0
   -2.4122    0.7801   -1.3050 H   0  0  0  0  0  0  0  0  0  0  0  0
   -0.7180    1.1812   -1.0365 H   0  0  0  0  0  0  0  0  0  0  0  0
   -1.0631   -0.2347   -2.5694 C   0  0  0  0  0  0  0  0  0  0  0  0
   -1.2760   -1.5181   -2.9371 C   0  0  0  0  0  0  0  0  0  0  0  0
   -1.7082   -2.2798   -2.2974 H   0  0  0  0  0  0  0  0  0  0  0  0
   -0.8794   -1.6974   -4.2478 N   0  0  0  0  0  0  0  0  0  0  0  0
   -0.9426   -2.5804   -4.7331 H   0  0  0  0  0  0  0  0  0  0  0  0
   -0.4035   -0.5266   -4.7988 C   0  0  0  0  0  0  0  0  0  0  0  0
    0.0782   -0.1938   -6.0730 C   0  0  0  0  0  0  0  0  0  0  0  0
    0.1311   -0.9414   -6.8507 H   0  0  0  0  0  0  0  0  0  0  0  0
    0.4929    1.1255   -6.3231 C   0  0  0  0  0  0  0  0  0  0  0  0
    0.8682    1.4004   -7.2996 H   0  0  0  0  0  0  0  0  0  0  0  0
    0.4252    2.0876   -5.2988 C   0  0  0  0  0  0  0  0  0  0  0  0
    0.7531    3.0994   -5.4931 H   0  0  0  0  0  0  0  0  0  0  0  0
   -0.0588    1.7413   -4.0213 C   0  0  0  0  0  0  0  0  0  0  0  0
   -0.0930    2.4868   -3.2395 H   0  0  0  0  0  0  0  0  0  0  0  0
   -0.4887    0.4264   -3.7400 C   0  0  0  0  0  0  0  0  0  0  0  0
   -1.2663    0.1182    1.2910 C   0  0  0  0  0  0  0  0  0  0  0  0
   -0.1906    0.1931    1.8833 O   0  0  0  0  0  0  0  0  0  0  0  0
   -2.3930    0.6605    1.7722 N   0  0  0  0  0  0  0  0  0  0  0  0
   -3.2451    0.5077    1.2518 H   0  0  0  0  0  0  0  0  0  0  0  0
   -2.4787    1.3954    3.0311 C   0  0  0  0  0  0  0  0  0  0  0  0
   -1.7166    2.1767    3.0539 H   0  0  0  0  0  0  0  0  0  0  0  0
   -3.4649    1.8498    3.1344 H   0  0  0  0  0  0  0  0  0  0  0  0
   -2.3058    0.7133    3.8652 H   0  0  0  0  0  0  0  0  0  0  0  0
  5  6  2  0  0  0  0
  5  7  1  0  0  0  0
  2  3  1  0  0  0  0
  2  4  1  0  0  0  0
  2  5  1  0  0  0  0
  1  2  1  0  0  0  0
 29 30  2  0  0  0  0
 29 31  1  0  0  0  0
 26 27  1  0  0  0  0
 26 28  2  0  0  0  0
 24 25  1  0  0  0  0
 24 26  1  0  0  0  0
 22 23  1  0  0  0  0
 22 24  2  0  0  0  0
 20 21  1  0  0  0  0
 20 22  1  0  0  0  0
 19 20  2  0  0  0  0
 19 28  1  0  0  0  0
 17 18  1  0  0  0  0
 17 19  1  0  0  0  0
 15 16  1  0  0  0  0
 15 17  1  0  0  0  0
 14 15  2  0  0  0  0
 14 28  1  0  0  0  0
 11 12  1  0  0  0  0
 11 13  1  0  0  0  0
 11 14  1  0  0  0  0
  9 10  1  0  0  0  0
  9 11  1  0  0  0  0
  9 29  1  0  0  0  0
  7  8  1  0  0  0  0
  7  9  1  0  0  0  0
 33 34  1  0  0  0  0
 33 35  1  0  0  0  0
 33 36  1  0  0  0  0
 31 32  1  0  0  0  0
 31 33  1  0  0  0  0
M  END
$$$$
default_name
  -OEChem-02102213163D

 36 37  0     1  0  0  0  0  0999 V2000
   -4.0843   -4.0736    1.2944 H   0  0  0  0  0  0  0  0  0  0  0  0
   -4.0342   -3.2816    0.5484 C   0  0  0  0  0  0  0  0  0  0  0  0
   -4.8842   -2.6126    0.6694 H   0  0  0  0  0  0  0  0  0  0  0  0
   -4.0433   -3.7186   -0.4486 H   0  0  0  0  0  0  0  0  0  0  0  0
   -2.7532   -2.5046    0.7444 C   0  0  0  0  0  0  0  0  0  0  0  0
   -1.9803   -2.8096    1.6434 O   0  0  0  0  0  0  0  0  0  0  0  0
   -2.5332   -1.4966   -0.0966 N   0  0  0  0  0  0  0  0  0  0  0  0
   -3.2312   -1.2816   -0.7936 H   0  0  0  0  0  0  0  0  0  0  0  0
   -1.3593   -0.6196   -0.0536 C   0  0  1  0  0  0  0  0  0  0  0  0
   -0.4622   -1.2317   -0.1545 H   0  0  0  0  0  0  0  0  0  0  0  0
   -1.4074    0.3593   -1.2373 C   0  0  0  0  0  0  0  0  0  0  0  0
   -2.4122    0.7801   -1.3050 H   0  0  0  0  0  0  0  0  0  0  0  0
   -0.7180    1.1812   -1.0365 H   0  0  0  0  0  0  0  0  0  0  0  0
   -1.0631   -0.2347   -2.5694 C   0  0  0  0  0  0  0  0  0  0  0  0
   -1.5201   -1.4141   -3.0466 C   0  0  0  0  0  0  0  0  0  0  0  0
   -2.1813   -2.0835   -2.5072 H   0  0  0  0  0  0  0  0  0  0  0  0
   -1.0334   -1.6185   -4.3228 N   0  0  0  0  0  0  0  0  0  0  0  0
   -1.2419   -2.4384   -4.8737 H   0  0  0  0  0  0  0  0  0  0  0  0
   -0.2468   -0.5662   -4.7407 C   0  0  0  0  0  0  0  0  0  0  0  0
    0.4345   -0.2948   -5.9359 C   0  0  0  0  0  0  0  0  0  0  0  0
    0.4011   -0.9964   -6.7565 H   0  0  0  0  0  0  0  0  0  0  0  0
    1.1625    0.9018   -6.0503 C   0  0  0  0  0  0  0  0  0  0  0  0
    1.6951    1.1276   -6.9642 H   0  0  0  0  0  0  0  0  0  0  0  0
    1.2032    1.8034   -4.9710 C   0  0  0  0  0  0  0  0  0  0  0  0
    1.7714    2.7189   -5.0603 H   0  0  0  0  0  0  0  0  0  0  0  0
    0.5163    1.5193   -3.7736 C   0  0  0  0  0  0  0  0  0  0  0  0
    0.5668    2.2143   -2.9475 H   0  0  0  0  0  0  0  0  0  0  0  0
   -0.2290    0.3290   -3.6295 C   0  0  0  0  0  0  0  0  0  0  0  0
   -1.2663    0.1182    1.2910 C   0  0  0  0  0  0  0  0  0  0  0  0
   -0.1906    0.1931    1.8833 O   0  0  0  0  0  0  0  0  0  0  0  0
   -2.3930    0.6605    1.7722 N   0  0  0  0  0  0  0  0  0  0  0  0
   -3.2451    0.5077    1.2518 H   0  0  0  0  0  0  0  0  0  0  0  0
   -2.4787    1.3954    3.0311 C   0  0  0  0  0  0  0  0  0  0  0  0
   -1.7166    2.1767    3.0539 H   0  0  0  0  0  0  0  0  0  0  0  0
   -3.4649    1.8498    3.1344 H   0  0  0  0  0  0  0  0  0  0  0  0
   -2.3058    0.7133    3.8652 H   0  0  0  0  0  0  0  0  0  0  0  0
  5  6  2  0  0  0  0
  5  7  1  0  0  0  0
  2  3  1  0  0  0  0
  2  4  1  0  0  0  0
  2  5  1  0  0  0  0
  1  2  1  0  0  0  0
 29 30  2  0  0  0  0
 29 31  1  0  0  0  0
 26 27  1  0  0  0  0
 26 28  2  0  0  0  0
 24 25  1  0  0  0  0
 24 26  1  0  0  0  0
 22 23  1  0  0  0  0
 22 24  2  0  0  0  0
 20 21  1  0  0  0  0
 20 22  1  0  0  0  0
 19 20  2  0  0  0  0
 19 28  1  0  0  0  0
 17 18  1  0  0  0  0
 17 19  1  0  0  0  0
 15 16  1  0  0  0  0
 15 17  1  0  0  0  0
 14 15  2  0  0  0  0
 14 28  1  0  0  0  0
 11 12  1  0  0  0  0
 11 13  1  0  0  0  0
 11 14  1  0  0  0  0
  9 10  1  0  0  0  0
  9 11  1  0  0  0  0
  9 29  1  0  0  0  0
  7  8  1  0  0  0  0
  7  9  1  0  0  0  0
 33 34  1  0  0  0  0
 33 35  1  0  0  0  0
 33 36  1  0  0  0  0
 31 32  1  0  0  0  0
 31 33  1  0  0  0  0
M  END
$$$$
default_name
  -OEChem-02102213163D

 36 37  0     1  0  0  0  0  0999 V2000
   -4.0843   -4.0736    1.2944 H   0  0  0  0  0  0  0  0  0  0  0  0
   -4.0342   -3.2816    0.5484 C   0  0  0  0  0  0  0  0  0  0  0  0
   -4.8842   -2.6126    0.6694 H   0  0  0  0  0  0  0  0  0  0  0  0
   -4.0433   -3.7186   -0.4486 H   0  0  0  0  0  0  0  0  0  0  0  0
   -2.7532   -2.5046    0.7444 C   0  0  0  0  0  0  0  0  0  0  0  0
   -1.9803   -2.8096    1.6434 O   0  0  0  0  0  0  0  0  0  0  0  0
   -2.5332   -1.4966   -0.0966 N   0  0  0  0  0  0  0  0  0  0  0  0
   -3.2312   -1.2816   -0.7936 H   0  0  0  0  0  0  0  0  0  0  0  0
   -1.3593   -0.6196   -0.0536 C   0  0  1  0  0  0  0  0  0  0  0  0
   -0.4622   -1.2317   -0.1545 H   0  0  0  0  0  0  0  0  0  0  0  0
   -1.4074    0.3593   -1.2373 C   0  0  0  0  0  0  0  0  0  0  0  0
   -2.4122    0.7801   -1.3050 H   0  0  0  0  0  0  0  0  0  0  0  0
   -0.7180    1.1812   -1.0365 H   0  0  0  0  0  0  0  0  0  0  0  0
   -1.0631   -0.2347   -2.5694 C   0  0  0  0  0  0  0  0  0  0  0  0
   -1.7208   -1.2510   -3.1712 C   0  0  0  0  0  0  0  0  0  0  0  0
   -2.5716   -1.7726   -2.7467 H   0  0  0  0  0  0  0  0  0  0  0  0
   -1.1564   -1.5025   -4.4063 N   0  0  0  0  0  0  0  0  0  0  0  0
   -1.4838   -2.2241   -5.0319 H   0  0  0  0  0  0  0  0  0  0  0  0
   -0.1106   -0.6440   -4.6708 C   0  0  0  0  0  0  0  0  0  0  0  0
    0.7413   -0.4825   -5.7729 C   0  0  0  0  0  0  0  0  0  0  0  0
    0.6396   -1.1172   -6.6409 H   0  0  0  0  0  0  0  0  0  0  0  0
    1.7299    0.5154   -5.7313 C   0  0  0  0  0  0  0  0  0  0  0  0
    2.3967    0.6539   -6.5717 H   0  0  0  0  0  0  0  0  0  0  0  0
    1.8557    1.3304   -4.5914 C   0  0  0  0  0  0  0  0  0  0  0  0
    2.6231    2.0914   -4.5603 H   0  0  0  0  0  0  0  0  0  0  0  0
    0.9953    1.1578   -3.4886 C   0  0  0  0  0  0  0  0  0  0  0  0
    1.1114    1.7818   -2.6139 H   0  0  0  0  0  0  0  0  0  0  0  0
   -0.0118    0.1686   -3.5019 C   0  0  0  0  0  0  0  0  0  0  0  0
   -1.2663    0.1182    1.2910 C   0  0  0  0  0  0  0  0  0  0  0  0
   -0.1906    0.1931    1.8833 O   0  0  0  0  0  0  0  0  0  0  0  0
   -2.3930    0.6605    1.7722 N   0  0  0  0  0  0  0  0  0  0  0  0
   -3.2451    0.5077    1.2518 H   0  0  0  0  0  0  0  0  0  0  0  0
   -2.4787    1.3954    3.0311 C   0  0  0  0  0  0  0  0  0  0  0  0
   -1.7166    2.1767    3.0539 H   0  0  0  0  0  0  0  0  0  0  0  0
   -3.4649    1.8498    3.1344 H   0  0  0  0  0  0  0  0  0  0  0  0
   -2.3058    0.7133    3.8652 H   0  0  0  0  0  0  0  0  0  0  0  0
  5  6  2  0  0  0  0
  5  7  1  0  0  0  0
  2  3  1  0  0  0  0
  2  4  1  0  0  0  0
  2  5  1  0  0  0  0
  1  2  1  0  0  0  0
 29 30  2  0  0  0  0
 29 31  1  0  0  0  0
 26 27  1  0  0  0  0
 26 28  2  0  0  0  0
 24 25  1  0  0  0  0
 24 26  1  0  0  0  0
 22 23  1  0  0  0  0
 22 24  2  0  0  0  0
 20 21  1  0  0  0  0
 20 22  1  0  0  0  0
 19 20  2  0  0  0  0
 19 28  1  0  0  0  0
 17 18  1  0  0  0  0
 17 19  1  0  0  0  0
 15 16  1  0  0  0  0
 15 17  1  0  0  0  0
 14 15  2  0  0  0  0
 14 28  1  0  0  0  0
 11 12  1  0  0  0  0
 11 13  1  0  0  0  0
 11 14  1  0  0  0  0
  9 10  1  0  0  0  0
  9 11  1  0  0  0  0
  9 29  1  0  0  0  0
  7  8  1  0  0  0  0
  7  9  1  0  0  0  0
 33 34  1  0  0  0  0
 33 35  1  0  0  0  0
 33 36  1  0  0  0  0
 31 32  1  0  0  0  0
 31 33  1  0  0  0  0
M  END
$$$$
default_name
  -OEChem-02102213163D

 36 37  0     1  0  0  0  0  0999 V2000
   -4.0843   -4.0736    1.2944 H   0  0  0  0  0  0  0  0  0  0  0  0
   -4.0342   -3.2816    0.5484 C   0  0  0  0  0  0  0  0  0  0  0  0
   -4.8842   -2.6126    0.6694 H   0  0  0  0  0  0  0  0  0  0  0  0
   -4.0433   -3.7186   -0.4486 H   0  0  0  0  0  0  0  0  0  0  0  0
   -2.7532   -2.5046    0.7444 C   0  0  0  0  0  0  0  0  0  0  0  0
   -1.9803   -2.8096    1.6434 O   0  0  0  0  0  0  0  0  0  0  0  0
   -2.5332   -1.4966   -0.0966 N   0  0  0  0  0  0  0  0  0  0  0  0
   -3.2312   -1.2816   -0.7936 H   0  0  0  0  0  0  0  0  0  0  0  0
   -1.3593   -0.6196   -0.0536 C   0  0  1  0  0  0  0  0  0  0  0  0
   -0.4622   -1.2317   -0.1545 H   0  0  0  0  0  0  0  0  0  0  0  0
   -1.4074    0.3593   -1.2373 C   0  0  0  0  0  0  0  0  0  0  0  0
   -2.4122    0.7801   -1.3050 H   0  0  0  0  0  0  0  0  0  0  0  0
   -0.7180    1.1812   -1.0365 H   0  0  0  0  0  0  0  0  0  0  0  0
   -1.0631   -0.2347   -2.5694 C   0  0  0  0  0  0  0  0  0  0  0  0
   -1.8643   -1.0399   -3.3024 C   0  0  0  0  0  0  0  0  0  0  0  0
   -2.8526   -1.3683   -2.9996 H   0  0  0  0  0  0  0  0  0  0  0  0
   -1.2399   -1.3571   -4.4927 N   0  0  0  0  0  0  0  0  0  0  0  0
   -1.6520   -1.9520   -5.1967 H   0  0  0  0  0  0  0  0  0  0  0  0
   -0.0040   -0.7546   -4.5939 C   0  0  0  0  0  0  0  0  0  0  0  0
    0.9777   -0.7440   -5.5952 C   0  0  0  0  0  0  0  0  0  0  0  0
    0.8304   -1.2956   -6.5121 H   0  0  0  0  0  0  0  0  0  0  0  0
    2.1564   -0.0073   -5.3880 C   0  0  0  0  0  0  0  0  0  0  0  0
    2.9251    0.0117   -6.1487 H   0  0  0  0  0  0  0  0  0  0  0  0
    2.3382    0.7009   -4.1860 C   0  0  0  0  0  0  0  0  0  0  0  0
    3.2502    1.2596   -4.0273 H   0  0  0  0  0  0  0  0  0  0  0  0
    1.3456    0.6815   -3.1857 C   0  0  0  0  0  0  0  0  0  0  0  0
    1.5037    1.2190   -2.2615 H   0  0  0  0  0  0  0  0  0  0  0  0
    0.1479   -0.0438   -3.3659 C   0  0  0  0  0  0  0  0  0  0  0  0
   -1.2663    0.1182    1.2910 C   0  0  0  0  0  0  0  0  0  0  0  0
   -0.1906    0.1931    1.8833 O   0  0  0  0  0  0  0  0  0  0  0  0
   -2.3930    0.6605    1.7722 N   0  0  0  0  0  0  0  0  0  0  0  0
   -3.2451    0.5077    1.2518 H   0  0  0  0  0  0  0  0  0  0  0  0
   -2.4787    1.3954    3.0311 C   0  0  0  0  0  0  0  0  0  0  0  0
   -1.7166    2.1767    3.0539 H   0  0  0  0  0  0  0  0  0  0  0  0
   -3.4649    1.8498    3.1344 H   0  0  0  0  0  0  0  0  0  0  0  0
   -2.3058    0.7133    3.8652 H   0  0  0  0  0  0  0  0  0  0  0  0
  5  6  2  0  0  0  0
  5  7  1  0  0  0  0
  2  3  1  0  0  0  0
  2  4  1  0  0  0  0
  2  5  1  0  0  0  0
  1  2  1  0  0  0  0
 29 30  2  0  0  0  0
 29 31  1  0  0  0  0
 26 27  1  0  0  0  0
 26 28  2  0  0  0  0
 24 25  1  0  0  0  0
 24 26  1  0  0  0  0
 22 23  1  0  0  0  0
 22 24  2  0  0  0  0
 20 21  1  0  0  0  0
 20 22  1  0  0  0  0
 19 20  2  0  0  0  0
 19 28  1  0  0  0  0
 17 18  1  0  0  0  0
 17 19  1  0  0  0  0
 15 16  1  0  0  0  0
 15 17  1  0  0  0  0
 14 15  2  0  0  0  0
 14 28  1  0  0  0  0
 11 12  1  0  0  0  0
 11 13  1  0  0  0  0
 11 14  1  0  0  0  0
  9 10  1  0  0  0  0
  9 11  1  0  0  0  0
  9 29  1  0  0  0  0
  7  8  1  0  0  0  0
  7  9  1  0  0  0  0
 33 34  1  0  0  0  0
 33 35  1  0  0  0  0
 33 36  1  0  0  0  0
 31 32  1  0  0  0  0
 31 33  1  0  0  0  0
M  END
$$$$
default_name
  -OEChem-02102213163D

 36 37  0     1  0  0  0  0  0999 V2000
   -4.0843   -4.0736    1.2944 H   0  0  0  0  0  0  0  0  0  0  0  0
   -4.0342   -3.2816    0.5484 C   0  0  0  0  0  0  0  0  0  0  0  0
   -4.8842   -2.6126    0.6694 H   0  0  0  0  0  0  0  0  0  0  0  0
   -4.0433   -3.7186   -0.4486 H   0  0  0  0  0  0  0  0  0  0  0  0
   -2.7532   -2.5046    0.7444 C   0  0  0  0  0  0  0  0  0  0  0  0
   -1.9803   -2.8096    1.6434 O   0  0  0  0  0  0  0  0  0  0  0  0
   -2.5332   -1.4966   -0.0966 N   0  0  0  0  0  0  0  0  0  0  0  0
   -3.2312   -1.2816   -0.7936 H   0  0  0  0  0  0  0  0  0  0  0  0
   -1.3593   -0.6196   -0.0536 C   0  0  1  0  0  0  0  0  0  0  0  0
   -0.4622   -1.2317   -0.1545 H   0  0  0  0  0  0  0  0  0  0  0  0
   -1.4074    0.3593   -1.2373 C   0  0  0  0  0  0  0  0  0  0  0  0
   -2.4122    0.7801   -1.3050 H   0  0  0  0  0  0  0  0  0  0  0  0
   -0.7180    1.1812   -1.0365 H   0  0  0  0  0  0  0  0  0  0  0  0
   -1.0631   -0.2347   -2.5694 C   0  0  0  0  0  0  0  0  0  0  0  0
   -1.9409   -0.7952   -3.4313 C   0  0  0  0  0  0  0  0  0  0  0  0
   -3.0050   -0.8981   -3.2487 H   0  0  0  0  0  0  0  0  0  0  0  0
   -1.2783   -1.1924   -4.5761 N   0  0  0  0  0  0  0  0  0  0  0  0
   -1.7350   -1.6407   -5.3569 H   0  0  0  0  0  0  0  0  0  0  0  0
    0.0656   -0.8905   -4.5153 C   0  0  0  0  0  0  0  0  0  0  0  0
    1.1277   -1.0616   -5.4148 C   0  0  0  0  0  0  0  0  0  0  0  0
    0.9604   -1.5195   -6.3786 H   0  0  0  0  0  0  0  0  0  0  0  0
    2.4128   -0.6307   -5.0438 C   0  0  0  0  0  0  0  0  0  0  0  0
    3.2443   -0.7554   -5.7241 H   0  0  0  0  0  0  0  0  0  0  0  0
    2.6178   -0.0423   -3.7824 C   0  0  0  0  0  0  0  0  0  0  0  0
    3.6098    0.2802   -3.4977 H   0  0  0  0  0  0  0  0  0  0  0  0
    1.5433    0.1229   -2.8855 C   0  0  0  0  0  0  0  0  0  0  0  0
    1.7171    0.5642   -1.9144 H   0  0  0  0  0  0  0  0  0  0  0  0
    0.2394   -0.2938   -3.2307 C   0  0  0  0  0  0  0  0  0  0  0  0
   -1.2663    0.1182    1.2910 C   0  0  0  0  0  0  0  0  0  0  0  0
   -0.1906    0.1931    1.8833 O   0  0  0  0  0  0  0  0  0  0  0  0
   -2.3930    0.6605    1.7722 N   0  0  0  0  0  0  0  0  0  0  0  0
   -3.2451    0.5077    1.2518 H   0  0  0  0  0  0  0  0  0  0  0  0
   -2.4787    1.3954    3.0311 C   0  0  0  0  0  0  0  0  0  0  0  0
   -1.7166    2.1767    3.0539 H   0  0  0  0  0  0  0  0  0  0  0  0
   -3.4649    1.8498    3.1344 H   0  0  0  0  0  0  0  0  0  0  0  0
   -2.3058    0.7133    3.8652 H   0  0  0  0  0  0  0  0  0  0  0  0
  5  6  2  0  0  0  0
  5  7  1  0  0  0  0
  2  3  1  0  0  0  0
  2  4  1  0  0  0  0
  2  5  1  0  0  0  0
  1  2  1  0  0  0  0
 29 30  2  0  0  0  0
 29 31  1  0  0  0  0
 26 27  1  0  0  0  0
 26 28  2  0  0  0  0
 24 25  1  0  0  0  0
 24 26  1  0  0  0  0
 22 23  1  0  0  0  0
 22 24  2  0  0  0  0
 20 21  1  0  0  0  0
 20 22  1  0  0  0  0
 19 20  2  0  0  0  0
 19 28  1  0  0  0  0
 17 18  1  0  0  0  0
 17 19  1  0  0  0  0
 15 16  1  0  0  0  0
 15 17  1  0  0  0  0
 14 15  2  0  0  0  0
 14 28  1  0  0  0  0
 11 12  1  0  0  0  0
 11 13  1  0  0  0  0
 11 14  1  0  0  0  0
  9 10  1  0  0  0  0
  9 11  1  0  0  0  0
  9 29  1  0  0  0  0
  7  8  1  0  0  0  0
  7  9  1  0  0  0  0
 33 34  1  0  0  0  0
 33 35  1  0  0  0  0
 33 36  1  0  0  0  0
 31 32  1  0  0  0  0
 31 33  1  0  0  0  0
M  END
$$$$
default_name
  -OEChem-02102213163D

 36 37  0     1  0  0  0  0  0999 V2000
   -4.0843   -4.0736    1.2944 H   0  0  0  0  0  0  0  0  0  0  0  0
   -4.0342   -3.2816    0.5484 C   0  0  0  0  0  0  0  0  0  0  0  0
   -4.8842   -2.6126    0.6694 H   0  0  0  0  0  0  0  0  0  0  0  0
   -4.0433   -3.7186   -0.4486 H   0  0  0  0  0  0  0  0  0  0  0  0
   -2.7532   -2.5046    0.7444 C   0  0  0  0  0  0  0  0  0  0  0  0
   -1.9803   -2.8096    1.6434 O   0  0  0  0  0  0  0  0  0  0  0  0
   -2.5332   -1.4966   -0.0966 N   0  0  0  0  0  0  0  0  0  0  0  0
   -3.2312   -1.2816   -0.7936 H   0  0  0  0  0  0  0  0  0  0  0  0
   -1.3593   -0.6196   -0.0536 C   0  0  1  0  0  0  0  0  0  0  0  0
   -0.4622   -1.2317   -0.1545 H   0  0  0  0  0  0  0  0  0  0  0  0
   -1.4074    0.3593   -1.2373 C   0  0  0  0  0  0  0  0  0  0  0  0
   -2.4122    0.7801   -1.3050 H   0  0  0  0  0  0  0  0  0  0  0  0
   -0.7180    1.1812   -1.0365 H   0  0  0  0  0  0  0  0  0  0  0  0
   -1.0631   -0.2347   -2.5694 C   0  0  0  0  0  0  0  0  0  0  0  0
   -1.9454   -0.5335   -3.5492 C   0  0  0  0  0  0  0  0  0  0  0  0
   -3.0185   -0.3940   -3.4769 H   0  0  0  0  0  0  0  0  0  0  0  0
   -1.2689   -1.0195   -4.6508 N   0  0  0  0  0  0  0  0  0  0  0  0
   -1.7271   -1.3113   -5.5017 H   0  0  0  0  0  0  0  0  0  0  0  0
    0.0934   -1.0425   -4.4404 C   0  0  0  0  0  0  0  0  0  0  0  0
    1.1810   -1.4136   -5.2441 C   0  0  0  0  0  0  0  0  0  0  0  0
    1.0207   -1.7736   -6.2497 H   0  0  0  0  0  0  0  0  0  0  0  0
    2.4818   -1.3123   -4.7220 C   0  0  0  0  0  0  0  0  0  0  0  0
    3.3327   -1.5951   -5.3269 H   0  0  0  0  0  0  0  0  0  0  0  0
    2.6755   -0.8485   -3.4079 C   0  0  0  0  0  0  0  0  0  0  0  0
    3.6775   -0.7801   -3.0074 H   0  0  0  0  0  0  0  0  0  0  0  0
    1.5749   -0.4801   -2.6085 C   0  0  0  0  0  0  0  0  0  0  0  0
    1.7369   -0.1381   -1.5961 H   0  0  0  0  0  0  0  0  0  0  0  0
    0.2564   -0.5644   -3.1057 C   0  0  0  0  0  0  0  0  0  0  0  0
   -1.2663    0.1182    1.2910 C   0  0  0  0  0  0  0  0  0  0  0  0
   -0.1906    0.1931    1.8833 O   0  0  0  0  0  0  0  0  0  0  0  0
   -2.3930    0.6605    1.7722 N   0  0  0  0  0  0  0  0  0  0  0  0
   -3.2451    0.5077    1.2518 H   0  0  0  0  0  0  0  0  0  0  0  0
   -2.4787    1.3954    3.0311 C   0  0  0  0  0  0  0  0  0  0  0  0
   -1.7166    2.1767    3.0539 H   0  0  0  0  0  0  0  0  0  0  0  0
   -3.4649    1.8498    3.1344 H   0  0  0  0  0  0  0  0  0  0  0  0
   -2.3058    0.7133    3.8652 H   0  0  0  0  0  0  0  0  0  0  0  0
  5  6  2  0  0  0  0
  5  7  1  0  0  0  0
  2  3  1  0  0  0  0
  2  4  1  0  0  0  0
  2  5  1  0  0  0  0
  1  2  1  0  0  0  0
 29 30  2  0  0  0  0
 29 31  1  0  0  0  0
 26 27  1  0  0  0  0
 26 28  2  0  0  0  0
 24 25  1  0  0  0  0
 24 26  1  0  0  0  0
 22 23  1  0  0  0  0
 22 24  2  0  0  0  0
 20 21  1  0  0  0  0
 20 22  1  0  0  0  0
 19 20  2  0  0  0  0
 19 28  1  0  0  0  0
 17 18  1  0  0  0  0
 17 19  1  0  0  0  0
 15 16  1  0  0  0  0
 15 17  1  0  0  0  0
 14 15  2  0  0  0  0
 14 28  1  0  0  0  0
 11 12  1  0  0  0  0
 11 13  1  0  0  0  0
 11 14  1  0  0  0  0
  9 10  1  0  0  0  0
  9 11  1  0  0  0  0
  9 29  1  0  0  0  0
  7  8  1  0  0  0  0
  7  9  1  0  0  0  0
 33 34  1  0  0  0  0
 33 35  1  0  0  0  0
 33 36  1  0  0  0  0
 31 32  1  0  0  0  0
 31 33  1  0  0  0  0
M  END
$$$$
default_name
  -OEChem-02102213163D

 36 37  0     1  0  0  0  0  0999 V2000
   -4.0843   -4.0736    1.2944 H   0  0  0  0  0  0  0  0  0  0  0  0
   -4.0342   -3.2816    0.5484 C   0  0  0  0  0  0  0  0  0  0  0  0
   -4.8842   -2.6126    0.6694 H   0  0  0  0  0  0  0  0  0  0  0  0
   -4.0433   -3.7186   -0.4486 H   0  0  0  0  0  0  0  0  0  0  0  0
   -2.7532   -2.5046    0.7444 C   0  0  0  0  0  0  0  0  0  0  0  0
   -1.9803   -2.8096    1.6434 O   0  0  0  0  0  0  0  0  0  0  0  0
   -2.5332   -1.4966   -0.0966 N   0  0  0  0  0  0  0  0  0  0  0  0
   -3.2312   -1.2816   -0.7936 H   0  0  0  0  0  0  0  0  0  0  0  0
   -1.3593   -0.6196   -0.0536 C   0  0  1  0  0  0  0  0  0  0  0  0
   -0.4622   -1.2317   -0.1545 H   0  0  0  0  0  0  0  0  0  0  0  0
   -1.4074    0.3593   -1.2373 C   0  0  0  0  0  0  0  0  0  0  0  0
   -2.4122    0.7801   -1.3050 H   0  0  0  0  0  0  0  0  0  0  0  0
   -0.7180    1.1812   -1.0365 H   0  0  0  0  0  0  0  0  0  0  0  0
   -1.0631   -0.2347   -2.5694 C   0  0  0  0  0  0  0  0  0  0  0  0
   -1.8774   -0.2727   -3.6479 C   0  0  0  0  0  0  0  0  0  0  0  0
   -2.8921    0.1096   -3.6688 H   0  0  0  0  0  0  0  0  0  0  0  0
   -1.2124   -0.8501   -4.7117 N   0  0  0  0  0  0  0  0  0  0  0  0
   -1.6288   -0.9864   -5.6212 H   0  0  0  0  0  0  0  0  0  0  0  0
    0.0777   -1.2001   -4.3741 C   0  0  0  0  0  0  0  0  0  0  0  0
    1.1339   -1.7761   -5.0946 C   0  0  0  0  0  0  0  0  0  0  0  0
    1.0073   -2.0406   -6.1341 H   0  0  0  0  0  0  0  0  0  0  0  0
    2.3586   -2.0058   -4.4446 C   0  0  0  0  0  0  0  0  0  0  0  0
    3.1841   -2.4501   -4.9841 H   0  0  0  0  0  0  0  0  0  0  0  0
    2.5074   -1.6628   -3.0883 C   0  0  0  0  0  0  0  0  0  0  0  0
    3.4487   -1.8490   -2.5899 H   0  0  0  0  0  0  0  0  0  0  0  0
    1.4383   -1.0863   -2.3735 C   0  0  0  0  0  0  0  0  0  0  0  0
    1.5618   -0.8399   -1.3284 H   0  0  0  0  0  0  0  0  0  0  0  0
    0.1977   -0.8372   -2.9992 C   0  0  0  0  0  0  0  0  0  0  0  0
   -1.2663    0.1182    1.2910 C   0  0  0  0  0  0  0  0  0  0  0  0
   -0.1906    0.1931    1.8833 O   0  0  0  0  0  0  0  0  0  0  0  0
   -2.3930    0.6605    1.7722 N   0  0  0  0  0  0  0  0  0  0  0  0
   -3.2451    0.5077    1.2518 H   0  0  0  0  0  0  0  0  0  0  0  0
   -2.4787    1.3954    3.0311 C   0  0  0  0  0  0  0  0  0  0  0  0
   -1.7166    2.1767    3.0539 H   0  0  0  0  0  0  0  0  0  0  0  0
   -3.4649    1.8498    3.1344 H   0  0  0  0  0  0  0  0  0  0  0  0
   -2.3058    0.7133    3.8652 H   0  0  0  0  0  0  0  0  0  0  0  0
  5  6  2  0  0  0  0
  5  7  1  0  0  0  0
  2  3  1  0  0  0  0
  2  4  1  0  0  0  0
  2  5  1  0  0  0  0
  1  2  1  0  0  0  0
 29 30  2  0  0  0  0
 29 31  1  0  0  0  0
 26 27  1  0  0  0  0
 26 28  2  0  0  0  0
 24 25  1  0  0  0  0
 24 26  1  0  0  0  0
 22 23  1  0  0  0  0
 22 24  2  0  0  0  0
 20 21  1  0  0  0  0
 20 22  1  0  0  0  0
 19 20  2  0  0  0  0
 19 28  1  0  0  0  0
 17 18  1  0  0  0  0
 17 19  1  0  0  0  0
 15 16  1  0  0  0  0
 15 17  1  0  0  0  0
 14 15  2  0  0  0  0
 14 28  1  0  0  0  0
 11 12  1  0  0  0  0
 11 13  1  0  0  0  0
 11 14  1  0  0  0  0
  9 10  1  0  0  0  0
  9 11  1  0  0  0  0
  9 29  1  0  0  0  0
  7  8  1  0  0  0  0
  7  9  1  0  0  0  0
 33 34  1  0  0  0  0
 33 35  1  0  0  0  0
 33 36  1  0  0  0  0
 31 32  1  0  0  0  0
 31 33  1  0  0  0  0
M  END
$$$$
default_name
  -OEChem-02102213163D

 36 37  0     1  0  0  0  0  0999 V2000
   -4.0843   -4.0736    1.2944 H   0  0  0  0  0  0  0  0  0  0  0  0
   -4.0342   -3.2816    0.5484 C   0  0  0  0  0  0  0  0  0  0  0  0
   -4.8842   -2.6126    0.6694 H   0  0  0  0  0  0  0  0  0  0  0  0
   -4.0433   -3.7186   -0.4486 H   0  0  0  0  0  0  0  0  0  0  0  0
   -2.7532   -2.5046    0.7444 C   0  0  0  0  0  0  0  0  0  0  0  0
   -1.9803   -2.8096    1.6434 O   0  0  0  0  0  0  0  0  0  0  0  0
   -2.5332   -1.4966   -0.0966 N   0  0  0  0  0  0  0  0  0  0  0  0
   -3.2312   -1.2816   -0.7936 H   0  0  0  0  0  0  0  0  0  0  0  0
   -1.3593   -0.6196   -0.0536 C   0  0  1  0  0  0  0  0  0  0  0  0
   -0.4622   -1.2317   -0.1545 H   0  0  0  0  0  0  0  0  0  0  0  0
   -1.4074    0.3593   -1.2373 C   0  0  0  0  0  0  0  0  0  0  0  0
   -2.4122    0.7801   -1.3050 H   0  0  0  0  0  0  0  0  0  0  0  0
   -0.7180    1.1812   -1.0365 H   0  0  0  0  0  0  0  0  0  0  0  0
   -1.0631   -0.2347   -2.5694 C   0  0  0  0  0  0  0  0  0  0  0  0
   -1.7416   -0.0305   -3.7208 C   0  0  0  0  0  0  0  0  0  0  0  0
   -2.6345    0.5783   -3.8113 H   0  0  0  0  0  0  0  0  0  0  0  0
   -1.1126   -0.6960   -4.7546 N   0  0  0  0  0  0  0  0  0  0  0  0
   -1.4468   -0.6881   -5.7072 H   0  0  0  0  0  0  0  0  0  0  0  0
    0.0195   -1.3527   -4.3211 C   0  0  0  0  0  0  0  0  0  0  0  0
    0.9898   -2.1242   -4.9766 C   0  0  0  0  0  0  0  0  0  0  0  0
    0.9211   -2.3023   -6.0397 H   0  0  0  0  0  0  0  0  0  0  0  0
    2.0516   -2.6637   -4.2306 C   0  0  0  0  0  0  0  0  0  0  0  0
    2.8087   -3.2622   -4.7190 H   0  0  0  0  0  0  0  0  0  0  0  0
    2.1249   -2.4297   -2.8453 C   0  0  0  0  0  0  0  0  0  0  0  0
    2.9389   -2.8536   -2.2737 H   0  0  0  0  0  0  0  0  0  0  0  0
    1.1429   -1.6544   -2.1965 C   0  0  0  0  0  0  0  0  0  0  0  0
    1.2038   -1.4934   -1.1296 H   0  0  0  0  0  0  0  0  0  0  0  0
    0.0673   -1.0934   -2.9187 C   0  0  0  0  0  0  0  0  0  0  0  0
   -1.2663    0.1182    1.2910 C   0  0  0  0  0  0  0  0  0  0  0  0
   -0.1906    0.1931    1.8833 O   0  0  0  0  0  0  0  0  0  0  0  0
   -2.3930    0.6605    1.7722 N   0  0  0  0  0  0  0  0  0  0  0  0
   -3.2451    0.5077    1.2518 H   0  0  0  0  0  0  0  0  0  0  0  0
   -2.4787    1.3954    3.0311 C   0  0  0  0  0  0  0  0  0  0  0  0
   -1.7166    2.1767    3.0539 H   0  0  0  0  0  0  0  0  0  0  0  0
   -3.4649    1.8498    3.1344 H   0  0  0  0  0  0  0  0  0  0  0  0
   -2.3058    0.7133    3.8652 H   0  0  0  0  0  0  0  0  0  0  0  0
  5  6  2  0  0  0  0
  5  7  1  0  0  0  0
  2  3  1  0  0  0  0
  2  4  1  0  0  0  0
  2  5  1  0  0  0  0
  1  2  1  0  0  0  0
 29 30  2  0  0  0  0
 29 31  1  0  0  0  0
 26 27  1  0  0  0  0
 26 28  2  0  0  0  0
 24 25  1  0  0  0  0
 24 26  1  0  0  0  0
 22 23  1  0  0  0  0
 22 24  2  0  0  0  0
 20 21  1  0  0  0  0
 20 22  1  0  0  0  0
 19 20  2  0  0  0  0
 19 28  1  0  0  0  0
 17 18  1  0  0  0  0
 17 19  1  0  0  0  0
 15 16  1  0  0  0  0
 15 17  1  0  0  0  0
 14 15  2  0  0  0  0
 14 28  1  0  0  0  0
 11 12  1  0  0  0  0
 11 13  1  0  0  0  0
 11 14  1  0  0  0  0
  9 10  1  0  0  0  0
  9 11  1  0  0  0  0
  9 29  1  0  0  0  0
  7  8  1  0  0  0  0
  7  9  1  0  0  0  0
 33 34  1  0  0  0  0
 33 35  1  0  0  0  0
 33 36  1  0  0  0  0
 31 32  1  0  0  0  0
 31 33  1  0  0  0  0
M  END
$$$$
default_name
  -OEChem-02102213163D

 36 37  0     1  0  0  0  0  0999 V2000
   -4.0843   -4.0736    1.2944 H   0  0  0  0  0  0  0  0  0  0  0  0
   -4.0342   -3.2816    0.5484 C   0  0  0  0  0  0  0  0  0  0  0  0
   -4.8842   -2.6126    0.6694 H   0  0  0  0  0  0  0  0  0  0  0  0
   -4.0433   -3.7186   -0.4486 H   0  0  0  0  0  0  0  0  0  0  0  0
   -2.7532   -2.5046    0.7444 C   0  0  0  0  0  0  0  0  0  0  0  0
   -1.9803   -2.8096    1.6434 O   0  0  0  0  0  0  0  0  0  0  0  0
   -2.5332   -1.4966   -0.0966 N   0  0  0  0  0  0  0  0  0  0  0  0
   -3.2312   -1.2816   -0.7936 H   0  0  0  0  0  0  0  0  0  0  0  0
   -1.3593   -0.6196   -0.0536 C   0  0  1  0  0  0  0  0  0  0  0  0
   -0.4622   -1.2317   -0.1545 H   0  0  0  0  0  0  0  0  0  0  0  0
   -1.4074    0.3593   -1.2373 C   0  0  0  0  0  0  0  0  0  0  0  0
   -2.4122    0.7801   -1.3050 H   0  0  0  0  0  0  0  0  0  0  0  0
   -0.7180    1.1812   -1.0365 H   0  0  0  0  0  0  0  0  0  0  0  0
   -1.0631   -0.2347   -2.5694 C   0  0  0  0  0  0  0  0  0  0  0  0
   -1.5473    0.1765   -3.7628 C   0  0  0  0  0  0  0  0  0  0  0  0
   -2.2633    0.9803   -3.8945 H   0  0  0  0  0  0  0  0  0  0  0  0
   -0.9763   -0.5675   -4.7767 N   0  0  0  0  0  0  0  0  0  0  0  0
   -1.1936   -0.4367   -5.7539 H   0  0  0  0  0  0  0  0  0  0  0  0
   -0.0773   -1.4899   -4.2850 C   0  0  0  0  0  0  0  0  0  0  0  0
    0.7584   -2.4344   -4.8982 C   0  0  0  0  0  0  0  0  0  0  0  0
    0.7679   -2.5409   -5.9729 H   0  0  0  0  0  0  0  0  0  0  0  0
    1.5817   -3.2413   -4.0945 C   0  0  0  0  0  0  0  0  0  0  0  0
    2.2321   -3.9760   -4.5497 H   0  0  0  0  0  0  0  0  0  0  0  0
    1.5540   -3.0969   -2.6953 C   0  0  0  0  0  0  0  0  0  0  0  0
    2.1830   -3.7255   -2.0803 H   0  0  0  0  0  0  0  0  0  0  0  0
    0.7086   -2.1456   -2.0897 C   0  0  0  0  0  0  0  0  0  0  0  0
    0.6872   -2.0542   -1.0131 H   0  0  0  0  0  0  0  0  0  0  0  0
   -0.1258   -1.3157   -2.8694 C   0  0  0  0  0  0  0  0  0  0  0  0
   -1.2663    0.1182    1.2910 C   0  0  0  0  0  0  0  0  0  0  0  0
   -0.1906    0.1931    1.8833 O   0  0  0  0  0  0  0  0  0  0  0  0
   -2.3930    0.6605    1.7722 N   0  0  0  0  0  0  0  0  0  0  0  0
   -3.2451    0.5077    1.2518 H   0  0  0  0  0  0  0  0  0  0  0  0
   -2.4787    1.3954    3.0311 C   0  0  0  0  0  0  0  0  0  0  0  0
   -1.7166    2.1767    3.0539 H   0  0  0  0  0  0  0  0  0  0  0  0
   -3.4649    1.8498    3.1344 H   0  0  0  0  0  0  0  0  0  0  0  0
   -2.3058    0.7133    3.8652 H   0  0  0  0  0  0  0  0  0  0  0  0
  5  6  2  0  0  0  0
  5  7  1  0  0  0  0
  2  3  1  0  0  0  0
  2  4  1  0  0  0  0
  2  5  1  0  0  0  0
  1  2  1  0  0  0  0
 29 30  2  0  0  0  0
 29 31  1  0  0  0  0
 26 27  1  0  0  0  0
 26 28  2  0  0  0  0
 24 25  1  0  0  0  0
 24 26  1  0  0  0  0
 22 23  1  0  0  0  0
 22 24  2  0  0  0  0
 20 21  1  0  0  0  0
 20 22  1  0  0  0  0
 19 20  2  0  0  0  0
 19 28  1  0  0  0  0
 17 18  1  0  0  0  0
 17 19  1  0  0  0  0
 15 16  1  0  0  0  0
 15 17  1  0  0  0  0
 14 15  2  0  0  0  0
 14 28  1  0  0  0  0
 11 12  1  0  0  0  0
 11 13  1  0  0  0  0
 11 14  1  0  0  0  0
  9 10  1  0  0  0  0
  9 11  1  0  0  0  0
  9 29  1  0  0  0  0
  7  8  1  0  0  0  0
  7  9  1  0  0  0  0
 33 34  1  0  0  0  0
 33 35  1  0  0  0  0
 33 36  1  0  0  0  0
 31 32  1  0  0  0  0
 31 33  1  0  0  0  0
M  END
$$$$
default_name
  -OEChem-02102213163D

 36 37  0     1  0  0  0  0  0999 V2000
   -4.0843   -4.0736    1.2944 H   0  0  0  0  0  0  0  0  0  0  0  0
   -4.0342   -3.2816    0.5484 C   0  0  0  0  0  0  0  0  0  0  0  0
   -4.8842   -2.6126    0.6694 H   0  0  0  0  0  0  0  0  0  0  0  0
   -4.0433   -3.7186   -0.4486 H   0  0  0  0  0  0  0  0  0  0  0  0
   -2.7532   -2.5046    0.7444 C   0  0  0  0  0  0  0  0  0  0  0  0
   -1.9803   -2.8096    1.6434 O   0  0  0  0  0  0  0  0  0  0  0  0
   -2.5332   -1.4966   -0.0966 N   0  0  0  0  0  0  0  0  0  0  0  0
   -3.2312   -1.2816   -0.7936 H   0  0  0  0  0  0  0  0  0  0  0  0
   -1.3593   -0.6196   -0.0536 C   0  0  1  0  0  0  0  0  0  0  0  0
   -0.4622   -1.2317   -0.1545 H   0  0  0  0  0  0  0  0  0  0  0  0
   -1.4074    0.3593   -1.2373 C   0  0  0  0  0  0  0  0  0  0  0  0
   -2.4122    0.7801   -1.3050 H   0  0  0  0  0  0  0  0  0  0  0  0
   -0.7180    1.1812   -1.0365 H   0  0  0  0  0  0  0  0  0  0  0  0
   -1.0631   -0.2347   -2.5694 C   0  0  0  0  0  0  0  0  0  0  0  0
   -1.3076    0.3342   -3.7712 C   0  0  0  0  0  0  0  0  0  0  0  0
   -1.8036    1.2882   -3.9130 H   0  0  0  0  0  0  0  0  0  0  0  0
   -0.8128   -0.4734   -4.7764 N   0  0  0  0  0  0  0  0  0  0  0  0
   -0.8864   -0.2493   -5.7580 H   0  0  0  0  0  0  0  0  0  0  0  0
   -0.2061   -1.6023   -4.2682 C   0  0  0  0  0  0  0  0  0  0  0  0
    0.4554   -2.6854   -4.8645 C   0  0  0  0  0  0  0  0  0  0  0  0
    0.5583   -2.7401   -5.9383 H   0  0  0  0  0  0  0  0  0  0  0  0
    0.9811   -3.6993   -4.0455 C   0  0  0  0  0  0  0  0  0  0  0  0
    1.4936   -4.5428   -4.4879 H   0  0  0  0  0  0  0  0  0  0  0  0
    0.8337   -3.6189   -2.6487 C   0  0  0  0  0  0  0  0  0  0  0  0
    1.2324   -4.4053   -2.0229 H   0  0  0  0  0  0  0  0  0  0  0  0
    0.1652   -2.5266   -2.0603 C   0  0  0  0  0  0  0  0  0  0  0  0
    0.0473   -2.4839   -0.9868 H   0  0  0  0  0  0  0  0  0  0  0  0
   -0.3686   -1.4890   -2.8549 C   0  0  0  0  0  0  0  0  0  0  0  0
   -1.2663    0.1182    1.2910 C   0  0  0  0  0  0  0  0  0  0  0  0
   -0.1906    0.1931    1.8833 O   0  0  0  0  0  0  0  0  0  0  0  0
   -2.3930    0.6605    1.7722 N   0  0  0  0  0  0  0  0  0  0  0  0
   -3.2451    0.5077    1.2518 H   0  0  0  0  0  0  0  0  0  0  0  0
   -2.4787    1.3954    3.0311 C   0  0  0  0  0  0  0  0  0  0  0  0
   -1.7166    2.1767    3.0539 H   0  0  0  0  0  0  0  0  0  0  0  0
   -3.4649    1.8498    3.1344 H   0  0  0  0  0  0  0  0  0  0  0  0
   -2.3058    0.7133    3.8652 H   0  0  0  0  0  0  0  0  0  0  0  0
  5  6  2  0  0  0  0
  5  7  1  0  0  0  0
  2  3  1  0  0  0  0
  2  4  1  0  0  0  0
  2  5  1  0  0  0  0
  1  2  1  0  0  0  0
 29 30  2  0  0  0  0
 29 31  1  0  0  0  0
 26 27  1  0  0  0  0
 26 28  2  0  0  0  0
 24 25  1  0  0  0  0
 24 26  1  0  0  0  0
 22 23  1  0  0  0  0
 22 24  2  0  0  0  0
 20 21  1  0  0  0  0
 20 22  1  0  0  0  0
 19 20  2  0  0  0  0
 19 28  1  0  0  0  0
 17 18  1  0  0  0  0
 17 19  1  0  0  0  0
 15 16  1  0  0  0  0
 15 17  1  0  0  0  0
 14 15  2  0  0  0  0
 14 28  1  0  0  0  0
 11 12  1  0  0  0  0
 11 13  1  0  0  0  0
 11 14  1  0  0  0  0
  9 10  1  0  0  0  0
  9 11  1  0  0  0  0
  9 29  1  0  0  0  0
  7  8  1  0  0  0  0
  7  9  1  0  0  0  0
 33 34  1  0  0  0  0
 33 35  1  0  0  0  0
 33 36  1  0  0  0  0
 31 32  1  0  0  0  0
 31 33  1  0  0  0  0
M  END
$$$$
default_name
  -OEChem-02102213163D

 36 37  0     1  0  0  0  0  0999 V2000
   -4.0843   -4.0736    1.2944 H   0  0  0  0  0  0  0  0  0  0  0  0
   -4.0342   -3.2816    0.5484 C   0  0  0  0  0  0  0  0  0  0  0  0
   -4.8842   -2.6126    0.6694 H   0  0  0  0  0  0  0  0  0  0  0  0
   -4.0433   -3.7186   -0.4486 H   0  0  0  0  0  0  0  0  0  0  0  0
   -2.7532   -2.5046    0.7444 C   0  0  0  0  0  0  0  0  0  0  0  0
   -1.9803   -2.8096    1.6434 O   0  0  0  0  0  0  0  0  0  0  0  0
   -2.5332   -1.4966   -0.0966 N   0  0  0  0  0  0  0  0  0  0  0  0
   -3.2312   -1.2816   -0.7936 H   0  0  0  0  0  0  0  0  0  0  0  0
   -1.3593   -0.6196   -0.0536 C   0  0  1  0  0  0  0  0  0  0  0  0
   -0.4622   -1.2317   -0.1545 H   0  0  0  0  0  0  0  0  0  0  0  0
   -1.4074    0.3593   -1.2373 C   0  0  0  0  0  0  0  0  0  0  0  0
   -2.3056    0.9732   -1.1496 H   0  0  0  0  0  0  0  0  0  0  0  0
   -0.5449    1.0249   -1.1727 H   0  0  0  0  0  0  0  0  0  0  0  0
   -1.4135   -0.2800   -2.5927 C   0  0  0  0  0  0  0  0  0  0  0  0
   -1.4526    0.3784   -3.7728 C   0  0  0  0  0  0  0  0  0  0  0  0
   -1.5037    1.4567   -3.8766 H   0  0  0  0  0  0  0  0  0  0  0  0
   -1.3972   -0.5289   -4.8127 N   0  0  0  0  0  0  0  0  0  0  0  0
   -1.4171   -0.2623   -5.7862 H   0  0  0  0  0  0  0  0  0  0  0  0
   -1.3022   -1.8246   -4.3512 C   0  0  0  0  0  0  0  0  0  0  0  0
   -1.1926   -3.0654   -4.9952 C   0  0  0  0  0  0  0  0  0  0  0  0
   -1.1757   -3.1228   -6.0737 H   0  0  0  0  0  0  0  0  0  0  0  0
   -1.1069   -4.2330   -4.2178 C   0  0  0  0  0  0  0  0  0  0  0  0
   -1.0229   -5.1990   -4.6971 H   0  0  0  0  0  0  0  0  0  0  0  0
   -1.1372   -4.1442   -2.8140 C   0  0  0  0  0  0  0  0  0  0  0  0
   -1.0794   -5.0457   -2.2199 H   0  0  0  0  0  0  0  0  0  0  0  0
   -1.2496   -2.8918   -2.1775 C   0  0  0  0  0  0  0  0  0  0  0  0
   -1.2852   -2.8389   -1.0986 H   0  0  0  0  0  0  0  0  0  0  0  0
   -1.3314   -1.7001   -2.9299 C   0  0  0  0  0  0  0  0  0  0  0  0
   -1.2663    0.1182    1.2910 C   0  0  0  0  0  0  0  0  0  0  0  0
   -0.1906    0.1931    1.8833 O   0  0  0  0  0  0  0  0  0  0  0  0
   -2.3930    0.6605    1.7722 N   0  0  0  0  0  0  0  0  0  0  0  0
   -3.2451    0.5077    1.2518 H   0  0  0  0  0  0  0  0  0  0  0  0
   -2.4787    1.3954    3.0311 C   0  0  0  0  0  0  0  0  0  0  0  0
   -1.7166    2.1767    3.0539 H   0  0  0  0  0  0  0  0  0  0  0  0
   -3.4649    1.8498    3.1344 H   0  0  0  0  0  0  0  0  0  0  0  0
   -2.3058    0.7133    3.8652 H   0  0  0  0  0  0  0  0  0  0  0  0
  5  6  2  0  0  0  0
  5  7  1  0  0  0  0
  2  3  1  0  0  0  0
  2  4  1  0  0  0  0
  2  5  1  0  0  0  0
  1  2  1  0  0  0  0
 29 30  2  0  0  0  0
 29 31  1  0  0  0  0
 26 27  1  0  0  0  0
 26 28  2  0  0  0  0
 24 25  1  0  0  0  0
 24 26  1  0  0  0  0
 22 23  1  0  0  0  0
 22 24  2  0  0  0  0
 20 21  1  0  0  0  0
 20 22  1  0  0  0  0
 19 20  2  0  0  0  0
 19 28  1  0  0  0  0
 17 18  1  0  0  0  0
 17 19  1  0  0  0  0
 15 16  1  0  0  0  0
 15 17  1  0  0  0  0
 14 15  2  0  0  0  0
 14 28  1  0  0  0  0
 11 12  1  0  0  0  0
 11 13  1  0  0  0  0
 11 14  1  0  0  0  0
  9 10  1  0  0  0  0
  9 11  1  0  0  0  0
  9 29  1  0  0  0  0
  7  8  1  0  0  0  0
  7  9  1  0  0  0  0
 33 34  1  0  0  0  0
 33 35  1  0  0  0  0
 33 36  1  0  0  0  0
 31 32  1  0  0  0  0
 31 33  1  0  0  0  0
M  END
$$$$
default_name
  -OEChem-02102213163D

 36 37  0     1  0  0  0  0  0999 V2000
   -4.0843   -4.0736    1.2944 H   0  0  0  0  0  0  0  0  0  0  0  0
   -4.0342   -3.2816    0.5484 C   0  0  0  0  0  0  0  0  0  0  0  0
   -4.8842   -2.6126    0.6694 H   0  0  0  0  0  0  0  0  0  0  0  0
   -4.0433   -3.7186   -0.4486 H   0  0  0  0  0  0  0  0  0  0  0  0
   -2.7532   -2.5046    0.7444 C   0  0  0  0  0  0  0  0  0  0  0  0
   -1.9803   -2.8096    1.6434 O   0  0  0  0  0  0  0  0  0  0  0  0
   -2.5332   -1.4966   -0.0966 N   0  0  0  0  0  0  0  0  0  0  0  0
   -3.2312   -1.2816   -0.7936 H   0  0  0  0  0  0  0  0  0  0  0  0
   -1.3593   -0.6196   -0.0536 C   0  0  1  0  0  0  0  0  0  0  0  0
   -0.4622   -1.2317   -0.1545 H   0  0  0  0  0  0  0  0  0  0  0  0
   -1.4074    0.3593   -1.2373 C   0  0  0  0  0  0  0  0  0  0  0  0
   -2.3056    0.9732   -1.1496 H   0  0  0  0  0  0  0  0  0  0  0  0
   -0.5449    1.0249   -1.1727 H   0  0  0  0  0  0  0  0  0  0  0  0
   -1.4135   -0.2800   -2.5927 C   0  0  0  0  0  0  0  0  0  0  0  0
   -1.1670    0.3524   -3.7619 C   0  0  0  0  0  0  0  0  0  0  0  0
   -0.9523    1.4111   -3.8576 H   0  0  0  0  0  0  0  0  0  0  0  0
   -1.2112   -0.5573   -4.8001 N   0  0  0  0  0  0  0  0  0  0  0  0
   -1.0606   -0.3073   -5.7665 H   0  0  0  0  0  0  0  0  0  0  0  0
   -1.4737   -1.8326   -4.3467 C   0  0  0  0  0  0  0  0  0  0  0  0
   -1.5873   -3.0736   -4.9896 C   0  0  0  0  0  0  0  0  0  0  0  0
   -1.4655   -3.1487   -6.0602 H   0  0  0  0  0  0  0  0  0  0  0  0
   -1.8636   -4.2177   -4.2216 C   0  0  0  0  0  0  0  0  0  0  0  0
   -1.9558   -5.1832   -4.7003 H   0  0  0  0  0  0  0  0  0  0  0  0
   -2.0269   -4.1043   -2.8288 C   0  0  0  0  0  0  0  0  0  0  0  0
   -2.2477   -4.9858   -2.2429 H   0  0  0  0  0  0  0  0  0  0  0  0
   -1.9125   -2.8515   -2.1935 C   0  0  0  0  0  0  0  0  0  0  0  0
   -2.0535   -2.7763   -1.1246 H   0  0  0  0  0  0  0  0  0  0  0  0
   -1.6295   -1.6846   -2.9359 C   0  0  0  0  0  0  0  0  0  0  0  0
   -1.2663    0.1182    1.2910 C   0  0  0  0  0  0  0  0  0  0  0  0
   -0.1906    0.1931    1.8833 O   0  0  0  0  0  0  0  0  0  0  0  0
   -2.3930    0.6605    1.7722 N   0  0  0  0  0  0  0  0  0  0  0  0
   -3.2451    0.5077    1.2518 H   0  0  0  0  0  0  0  0  0  0  0  0
   -2.4787    1.3954    3.0311 C   0  0  0  0  0  0  0  0  0  0  0  0
   -1.7166    2.1767    3.0539 H   0  0  0  0  0  0  0  0  0  0  0  0
   -3.4649    1.8498    3.1344 H   0  0  0  0  0  0  0  0  0  0  0  0
   -2.3058    0.7133    3.8652 H   0  0  0  0  0  0  0  0  0  0  0  0
  5  6  2  0  0  0  0
  5  7  1  0  0  0  0
  2  3  1  0  0  0  0
  2  4  1  0  0  0  0
  2  5  1  0  0  0  0
  1  2  1  0  0  0  0
 29 30  2  0  0  0  0
 29 31  1  0  0  0  0
 26 27  1  0  0  0  0
 26 28  2  0  0  0  0
 24 25  1  0  0  0  0
 24 26  1  0  0  0  0
 22 23  1  0  0  0  0
 22 24  2  0  0  0  0
 20 21  1  0  0  0  0
 20 22  1  0  0  0  0
 19 20  2  0  0  0  0
 19 28  1  0  0  0  0
 17 18  1  0  0  0  0
 17 19  1  0  0  0  0
 15 16  1  0  0  0  0
 15 17  1  0  0  0  0
 14 15  2  0  0  0  0
 14 28  1  0  0  0  0
 11 12  1  0  0  0  0
 11 13  1  0  0  0  0
 11 14  1  0  0  0  0
  9 10  1  0  0  0  0
  9 11  1  0  0  0  0
  9 29  1  0  0  0  0
  7  8  1  0  0  0  0
  7  9  1  0  0  0  0
 33 34  1  0  0  0  0
 33 35  1  0  0  0  0
 33 36  1  0  0  0  0
 31 32  1  0  0  0  0
 31 33  1  0  0  0  0
M  END
$$$$
default_name
  -OEChem-02102213163D

 36 37  0     1  0  0  0  0  0999 V2000
   -4.0843   -4.0736    1.2944 H   0  0  0  0  0  0  0  0  0  0  0  0
   -4.0342   -3.2816    0.5484 C   0  0  0  0  0  0  0  0  0  0  0  0
   -4.8842   -2.6126    0.6694 H   0  0  0  0  0  0  0  0  0  0  0  0
   -4.0433   -3.7186   -0.4486 H   0  0  0  0  0  0  0  0  0  0  0  0
   -2.7532   -2.5046    0.7444 C   0  0  0  0  0  0  0  0  0  0  0  0
   -1.9803   -2.8096    1.6434 O   0  0  0  0  0  0  0  0  0  0  0  0
   -2.5332   -1.4966   -0.0966 N   0  0  0  0  0  0  0  0  0  0  0  0
   -3.2312   -1.2816   -0.7936 H   0  0  0  0  0  0  0  0  0  0  0  0
   -1.3593   -0.6196   -0.0536 C   0  0  1  0  0  0  0  0  0  0  0  0
   -0.4622   -1.2317   -0.1545 H   0  0  0  0  0  0  0  0  0  0  0  0
   -1.4074    0.3593   -1.2373 C   0  0  0  0  0  0  0  0  0  0  0  0
   -2.3056    0.9732   -1.1496 H   0  0  0  0  0  0  0  0  0  0  0  0
   -0.5449    1.0249   -1.1727 H   0  0  0  0  0  0  0  0  0  0  0  0
   -1.4135   -0.2800   -2.5927 C   0  0  0  0  0  0  0  0  0  0  0  0
   -0.8984    0.2605   -3.7197 C   0  0  0  0  0  0  0  0  0  0  0  0
   -0.4326    1.2381   -3.7783 H   0  0  0  0  0  0  0  0  0  0  0  0
   -1.0396   -0.6283   -4.7674 N   0  0  0  0  0  0  0  0  0  0  0  0
   -0.7290   -0.4342   -5.7082 H   0  0  0  0  0  0  0  0  0  0  0  0
   -1.6417   -1.8001   -4.3612 C   0  0  0  0  0  0  0  0  0  0  0  0
   -1.9711   -2.9891   -5.0277 C   0  0  0  0  0  0  0  0  0  0  0  0
   -1.7530   -3.1058   -6.0791 H   0  0  0  0  0  0  0  0  0  0  0  0
   -2.5906   -4.0257   -4.3088 C   0  0  0  0  0  0  0  0  0  0  0  0
   -2.8529   -4.9496   -4.8065 H   0  0  0  0  0  0  0  0  0  0  0  0
   -2.8754   -3.8575   -2.9414 C   0  0  0  0  0  0  0  0  0  0  0  0
   -3.3597   -4.6544   -2.3941 H   0  0  0  0  0  0  0  0  0  0  0  0
   -2.5416   -2.6574   -2.2822 C   0  0  0  0  0  0  0  0  0  0  0  0
   -2.7781   -2.5361   -1.2346 H   0  0  0  0  0  0  0  0  0  0  0  0
   -1.9132   -1.5997   -2.9746 C   0  0  0  0  0  0  0  0  0  0  0  0
   -1.2663    0.1182    1.2910 C   0  0  0  0  0  0  0  0  0  0  0  0
   -0.1906    0.1931    1.8833 O   0  0  0  0  0  0  0  0  0  0  0  0
   -2.3930    0.6605    1.7722 N   0  0  0  0  0  0  0  0  0  0  0  0
   -3.2451    0.5077    1.2518 H   0  0  0  0  0  0  0  0  0  0  0  0
   -2.4787    1.3954    3.0311 C   0  0  0  0  0  0  0  0  0  0  0  0
   -1.7166    2.1767    3.0539 H   0  0  0  0  0  0  0  0  0  0  0  0
   -3.4649    1.8498    3.1344 H   0  0  0  0  0  0  0  0  0  0  0  0
   -2.3058    0.7133    3.8652 H   0  0  0  0  0  0  0  0  0  0  0  0
  5  6  2  0  0  0  0
  5  7  1  0  0  0  0
  2  3  1  0  0  0  0
  2  4  1  0  0  0  0
  2  5  1  0  0  0  0
  1  2  1  0  0  0  0
 29 30  2  0  0  0  0
 29 31  1  0  0  0  0
 26 27  1  0  0  0  0
 26 28  2  0  0  0  0
 24 25  1  0  0  0  0
 24 26  1  0  0  0  0
 22 23  1  0  0  0  0
 22 24  2  0  0  0  0
 20 21  1  0  0  0  0
 20 22  1  0  0  0  0
 19 20  2  0  0  0  0
 19 28  1  0  0  0  0
 17 18  1  0  0  0  0
 17 19  1  0  0  0  0
 15 16  1  0  0  0  0
 15 17  1  0  0  0  0
 14 15  2  0  0  0  0
 14 28  1  0  0  0  0
 11 12  1  0  0  0  0
 11 13  1  0  0  0  0
 11 14  1  0  0  0  0
  9 10  1  0  0  0  0
  9 11  1  0  0  0  0
  9 29  1  0  0  0  0
  7  8  1  0  0  0  0
  7  9  1  0  0  0  0
 33 34  1  0  0  0  0
 33 35  1  0  0  0  0
 33 36  1  0  0  0  0
 31 32  1  0  0  0  0
 31 33  1  0  0  0  0
M  END
$$$$
default_name
  -OEChem-02102213163D

 36 37  0     1  0  0  0  0  0999 V2000
   -4.0843   -4.0736    1.2944 H   0  0  0  0  0  0  0  0  0  0  0  0
   -4.0342   -3.2816    0.5484 C   0  0  0  0  0  0  0  0  0  0  0  0
   -4.8842   -2.6126    0.6694 H   0  0  0  0  0  0  0  0  0  0  0  0
   -4.0433   -3.7186   -0.4486 H   0  0  0  0  0  0  0  0  0  0  0  0
   -2.7532   -2.5046    0.7444 C   0  0  0  0  0  0  0  0  0  0  0  0
   -1.9803   -2.8096    1.6434 O   0  0  0  0  0  0  0  0  0  0  0  0
   -2.5332   -1.4966   -0.0966 N   0  0  0  0  0  0  0  0  0  0  0  0
   -3.2312   -1.2816   -0.7936 H   0  0  0  0  0  0  0  0  0  0  0  0
   -1.3593   -0.6196   -0.0536 C   0  0  1  0  0  0  0  0  0  0  0  0
   -0.4622   -1.2317   -0.1545 H   0  0  0  0  0  0  0  0  0  0  0  0
   -1.4074    0.3593   -1.2373 C   0  0  0  0  0  0  0  0  0  0  0  0
   -2.3056    0.9732   -1.1496 H   0  0  0  0  0  0  0  0  0  0  0  0
   -0.5449    1.0249   -1.1727 H   0  0  0  0  0  0  0  0  0  0  0  0
   -1.4135   -0.2800   -2.5927 C   0  0  0  0  0  0  0  0  0  0  0  0
   -0.6651    0.1089   -3.6493 C   0  0  0  0  0  0  0  0  0  0  0  0
    0.0202    0.9494   -3.6442 H   0  0  0  0  0  0  0  0  0  0  0  0
   -0.8940   -0.7370   -4.7168 N   0  0  0  0  0  0  0  0  0  0  0  0
   -0.4448   -0.6344   -5.6150 H   0  0  0  0  0  0  0  0  0  0  0  0
   -1.7948   -1.7295   -4.3938 C   0  0  0  0  0  0  0  0  0  0  0  0
   -2.3179   -2.8177   -5.1070 C   0  0  0  0  0  0  0  0  0  0  0  0
   -2.0185   -2.9972   -6.1291 H   0  0  0  0  0  0  0  0  0  0  0  0
   -3.2382   -3.6702   -4.4736 C   0  0  0  0  0  0  0  0  0  0  0  0
   -3.6530   -4.5140   -5.0083 H   0  0  0  0  0  0  0  0  0  0  0  0
   -3.6248   -3.4206   -3.1441 C   0  0  0  0  0  0  0  0  0  0  0  0
   -4.3395   -4.0742   -2.6634 H   0  0  0  0  0  0  0  0  0  0  0  0
   -3.0941   -2.3227   -2.4376 C   0  0  0  0  0  0  0  0  0  0  0  0
   -3.4096   -2.1346   -1.4212 H   0  0  0  0  0  0  0  0  0  0  0  0
   -2.1630   -1.4514   -3.0435 C   0  0  0  0  0  0  0  0  0  0  0  0
   -1.2663    0.1182    1.2910 C   0  0  0  0  0  0  0  0  0  0  0  0
   -0.1906    0.1931    1.8833 O   0  0  0  0  0  0  0  0  0  0  0  0
   -2.3930    0.6605    1.7722 N   0  0  0  0  0  0  0  0  0  0  0  0
   -3.2451    0.5077    1.2518 H   0  0  0  0  0  0  0  0  0  0  0  0
   -2.4787    1.3954    3.0311 C   0  0  0  0  0  0  0  0  0  0  0  0
   -1.7166    2.1767    3.0539 H   0  0  0  0  0  0  0  0  0  0  0  0
   -3.4649    1.8498    3.1344 H   0  0  0  0  0  0  0  0  0  0  0  0
   -2.3058    0.7133    3.8652 H   0  0  0  0  0  0  0  0  0  0  0  0
  5  6  2  0  0  0  0
  5  7  1  0  0  0  0
  2  3  1  0  0  0  0
  2  4  1  0  0  0  0
  2  5  1  0  0  0  0
  1  2  1  0  0  0  0
 29 30  2  0  0  0  0
 29 31  1  0  0  0  0
 26 27  1  0  0  0  0
 26 28  2  0  0  0  0
 24 25  1  0  0  0  0
 24 26  1  0  0  0  0
 22 23  1  0  0  0  0
 22 24  2  0  0  0  0
 20 21  1  0  0  0  0
 20 22  1  0  0  0  0
 19 20  2  0  0  0  0
 19 28  1  0  0  0  0
 17 18  1  0  0  0  0
 17 19  1  0  0  0  0
 15 16  1  0  0  0  0
 15 17  1  0  0  0  0
 14 15  2  0  0  0  0
 14 28  1  0  0  0  0
 11 12  1  0  0  0  0
 11 13  1  0  0  0  0
 11 14  1  0  0  0  0
  9 10  1  0  0  0  0
  9 11  1  0  0  0  0
  9 29  1  0  0  0  0
  7  8  1  0  0  0  0
  7  9  1  0  0  0  0
 33 34  1  0  0  0  0
 33 35  1  0  0  0  0
 33 36  1  0  0  0  0
 31 32  1  0  0  0  0
 31 33  1  0  0  0  0
M  END
$$$$
default_name
  -OEChem-02102213163D

 36 37  0     1  0  0  0  0  0999 V2000
   -4.0843   -4.0736    1.2944 H   0  0  0  0  0  0  0  0  0  0  0  0
   -4.0342   -3.2816    0.5484 C   0  0  0  0  0  0  0  0  0  0  0  0
   -4.8842   -2.6126    0.6694 H   0  0  0  0  0  0  0  0  0  0  0  0
   -4.0433   -3.7186   -0.4486 H   0  0  0  0  0  0  0  0  0  0  0  0
   -2.7532   -2.5046    0.7444 C   0  0  0  0  0  0  0  0  0  0  0  0
   -1.9803   -2.8096    1.6434 O   0  0  0  0  0  0  0  0  0  0  0  0
   -2.5332   -1.4966   -0.0966 N   0  0  0  0  0  0  0  0  0  0  0  0
   -3.2312   -1.2816   -0.7936 H   0  0  0  0  0  0  0  0  0  0  0  0
   -1.3593   -0.6196   -0.0536 C   0  0  1  0  0  0  0  0  0  0  0  0
   -0.4622   -1.2317   -0.1545 H   0  0  0  0  0  0  0  0  0  0  0  0
   -1.4074    0.3593   -1.2373 C   0  0  0  0  0  0  0  0  0  0  0  0
   -2.3056    0.9732   -1.1496 H   0  0  0  0  0  0  0  0  0  0  0  0
   -0.5449    1.0249   -1.1727 H   0  0  0  0  0  0  0  0  0  0  0  0
   -1.4135   -0.2800   -2.5927 C   0  0  0  0  0  0  0  0  0  0  0  0
   -0.4830   -0.0921   -3.5553 C   0  0  0  0  0  0  0  0  0  0  0  0
    0.3752    0.5647   -3.4643 H   0  0  0  0  0  0  0  0  0  0  0  0
   -0.7844   -0.8760   -4.6517 N   0  0  0  0  0  0  0  0  0  0  0  0
   -0.2274   -0.8942   -5.4935 H   0  0  0  0  0  0  0  0  0  0  0  0
   -1.9225   -1.6255   -4.4423 C   0  0  0  0  0  0  0  0  0  0  0  0
   -2.6039   -2.5711   -5.2220 C   0  0  0  0  0  0  0  0  0  0  0  0
   -2.2440   -2.8301   -6.2069 H   0  0  0  0  0  0  0  0  0  0  0  0
   -3.7624   -3.1755   -4.7046 C   0  0  0  0  0  0  0  0  0  0  0  0
   -4.3016   -3.9062   -5.2920 H   0  0  0  0  0  0  0  0  0  0  0  0
   -4.2240   -2.8234   -3.4231 C   0  0  0  0  0  0  0  0  0  0  0  0
   -5.1204   -3.2847   -3.0322 H   0  0  0  0  0  0  0  0  0  0  0  0
   -3.5322   -1.8703   -2.6490 C   0  0  0  0  0  0  0  0  0  0  0  0
   -3.9050   -1.5992   -1.6715 H   0  0  0  0  0  0  0  0  0  0  0  0
   -2.3620   -1.2498   -3.1377 C   0  0  0  0  0  0  0  0  0  0  0  0
   -1.2663    0.1182    1.2910 C   0  0  0  0  0  0  0  0  0  0  0  0
   -0.1906    0.1931    1.8833 O   0  0  0  0  0  0  0  0  0  0  0  0
   -2.3930    0.6605    1.7722 N   0  0  0  0  0  0  0  0  0  0  0  0
   -3.2451    0.5077    1.2518 H   0  0  0  0  0  0  0  0  0  0  0  0
   -2.4787    1.3954    3.0311 C   0  0  0  0  0  0  0  0  0  0  0  0
   -1.7166    2.1767    3.0539 H   0  0  0  0  0  0  0  0  0  0  0  0
   -3.4649    1.8498    3.1344 H   0  0  0  0  0  0  0  0  0  0  0  0
   -2.3058    0.7133    3.8652 H   0  0  0  0  0  0  0  0  0  0  0  0
  5  6  2  0  0  0  0
  5  7  1  0  0  0  0
  2  3  1  0  0  0  0
  2  4  1  0  0  0  0
  2  5  1  0  0  0  0
  1  2  1  0  0  0  0
 29 30  2  0  0  0  0
 29 31  1  0  0  0  0
 26 27  1  0  0  0  0
 26 28  2  0  0  0  0
 24 25  1  0  0  0  0
 24 26  1  0  0  0  0
 22 23  1  0  0  0  0
 22 24  2  0  0  0  0
 20 21  1  0  0  0  0
 20 22  1  0  0  0  0
 19 20  2  0  0  0  0
 19 28  1  0  0  0  0
 17 18  1  0  0  0  0
 17 19  1  0  0  0  0
 15 16  1  0  0  0  0
 15 17  1  0  0  0  0
 14 15  2  0  0  0  0
 14 28  1  0  0  0  0
 11 12  1  0  0  0  0
 11 13  1  0  0  0  0
 11 14  1  0  0  0  0
  9 10  1  0  0  0  0
  9 11  1  0  0  0  0
  9 29  1  0  0  0  0
  7  8  1  0  0  0  0
  7  9  1  0  0  0  0
 33 34  1  0  0  0  0
 33 35  1  0  0  0  0
 33 36  1  0  0  0  0
 31 32  1  0  0  0  0
 31 33  1  0  0  0  0
M  END
$$$$
default_name
  -OEChem-02102213163D

 36 37  0     1  0  0  0  0  0999 V2000
   -4.0843   -4.0736    1.2944 H   0  0  0  0  0  0  0  0  0  0  0  0
   -4.0342   -3.2816    0.5484 C   0  0  0  0  0  0  0  0  0  0  0  0
   -4.8842   -2.6126    0.6694 H   0  0  0  0  0  0  0  0  0  0  0  0
   -4.0433   -3.7186   -0.4486 H   0  0  0  0  0  0  0  0  0  0  0  0
   -2.7532   -2.5046    0.7444 C   0  0  0  0  0  0  0  0  0  0  0  0
   -1.9803   -2.8096    1.6434 O   0  0  0  0  0  0  0  0  0  0  0  0
   -2.5332   -1.4966   -0.0966 N   0  0  0  0  0  0  0  0  0  0  0  0
   -3.2312   -1.2816   -0.7936 H   0  0  0  0  0  0  0  0  0  0  0  0
   -1.3593   -0.6196   -0.0536 C   0  0  1  0  0  0  0  0  0  0  0  0
   -0.4622   -1.2317   -0.1545 H   0  0  0  0  0  0  0  0  0  0  0  0
   -1.4074    0.3593   -1.2373 C   0  0  0  0  0  0  0  0  0  0  0  0
   -2.3056    0.9732   -1.1496 H   0  0  0  0  0  0  0  0  0  0  0  0
   -0.5449    1.0249   -1.1727 H   0  0  0  0  0  0  0  0  0  0  0  0
   -1.4135   -0.2800   -2.5927 C   0  0  0  0  0  0  0  0  0  0  0  0
   -0.3645   -0.3288   -3.4442 C   0  0  0  0  0  0  0  0  0  0  0  0
    0.6081    0.1102   -3.2509 H   0  0  0  0  0  0  0  0  0  0  0  0
   -0.7183   -1.0359   -4.5766 N   0  0  0  0  0  0  0  0  0  0  0  0
   -0.0917   -1.1958   -5.3518 H   0  0  0  0  0  0  0  0  0  0  0  0
   -2.0162   -1.4951   -4.5034 C   0  0  0  0  0  0  0  0  0  0  0  0
   -2.8098   -2.2660   -5.3650 C   0  0  0  0  0  0  0  0  0  0  0  0
   -2.4142   -2.6160   -6.3071 H   0  0  0  0  0  0  0  0  0  0  0  0
   -4.1274   -2.5751   -4.9862 C   0  0  0  0  0  0  0  0  0  0  0  0
   -4.7546   -3.1676   -5.6384 H   0  0  0  0  0  0  0  0  0  0  0  0
   -4.6321   -2.1066   -3.7593 C   0  0  0  0  0  0  0  0  0  0  0  0
   -5.6491   -2.3398   -3.4756 H   0  0  0  0  0  0  0  0  0  0  0  0
   -3.8261   -1.3309   -2.9021 C   0  0  0  0  0  0  0  0  0  0  0  0
   -4.2306   -0.9662   -1.9686 H   0  0  0  0  0  0  0  0  0  0  0  0
   -2.4967   -1.0085   -3.2509 C   0  0  0  0  0  0  0  0  0  0  0  0
   -1.2663    0.1182    1.2910 C   0  0  0  0  0  0  0  0  0  0  0  0
   -0.1906    0.1931    1.8833 O   0  0  0  0  0  0  0  0  0  0  0  0
   -2.3930    0.6605    1.7722 N   0  0  0  0  0  0  0  0  0  0  0  0
   -3.2451    0.5077    1.2518 H   0  0  0  0  0  0  0  0  0  0  0  0
   -2.4787    1.3954    3.0311 C   0  0  0  0  0  0  0  0  0  0  0  0
   -1.7166    2.1767    3.0539 H   0  0  0  0  0  0  0  0  0  0  0  0
   -3.4649    1.8498    3.1344 H   0  0  0  0  0  0  0  0  0  0  0  0
   -2.3058    0.7133    3.8652 H   0  0  0  0  0  0  0  0  0  0  0  0
  5  6  2  0  0  0  0
  5  7  1  0  0  0  0
  2  3  1  0  0  0  0
  2  4  1  0  0  0  0
  2  5  1  0  0  0  0
  1  2  1  0  0  0  0
 29 30  2  0  0  0  0
 29 31  1  0  0  0  0
 26 27  1  0  0  0  0
 26 28  2  0  0  0  0
 24 25  1  0  0  0  0
 24 26  1  0  0  0  0
 22 23  1  0  0  0  0
 22 24  2  0  0  0  0
 20 21  1  0  0  0  0
 20 22  1  0  0  0  0
 19 20  2  0  0  0  0
 19 28  1  0  0  0  0
 17 18  1  0  0  0  0
 17 19  1  0  0  0  0
 15 16  1  0  0  0  0
 15 17  1  0  0  0  0
 14 15  2  0  0  0  0
 14 28  1  0  0  0  0
 11 12  1  0  0  0  0
 11 13  1  0  0  0  0
 11 14  1  0  0  0  0
  9 10  1  0  0  0  0
  9 11  1  0  0  0  0
  9 29  1  0  0  0  0
  7  8  1  0  0  0  0
  7  9  1  0  0  0  0
 33 34  1  0  0  0  0
 33 35  1  0  0  0  0
 33 36  1  0  0  0  0
 31 32  1  0  0  0  0
 31 33  1  0  0  0  0
M  END
$$$$
default_name
  -OEChem-02102213163D

 36 37  0     1  0  0  0  0  0999 V2000
   -4.0843   -4.0736    1.2944 H   0  0  0  0  0  0  0  0  0  0  0  0
   -4.0342   -3.2816    0.5484 C   0  0  0  0  0  0  0  0  0  0  0  0
   -4.8842   -2.6126    0.6694 H   0  0  0  0  0  0  0  0  0  0  0  0
   -4.0433   -3.7186   -0.4486 H   0  0  0  0  0  0  0  0  0  0  0  0
   -2.7532   -2.5046    0.7444 C   0  0  0  0  0  0  0  0  0  0  0  0
   -1.9803   -2.8096    1.6434 O   0  0  0  0  0  0  0  0  0  0  0  0
   -2.5332   -1.4966   -0.0966 N   0  0  0  0  0  0  0  0  0  0  0  0
   -3.2312   -1.2816   -0.7936 H   0  0  0  0  0  0  0  0  0  0  0  0
   -1.3593   -0.6196   -0.0536 C   0  0  1  0  0  0  0  0  0  0  0  0
   -0.4622   -1.2317   -0.1545 H   0  0  0  0  0  0  0  0  0  0  0  0
   -1.4074    0.3593   -1.2373 C   0  0  0  0  0  0  0  0  0  0  0  0
   -2.3056    0.9732   -1.1496 H   0  0  0  0  0  0  0  0  0  0  0  0
   -0.5449    1.0249   -1.1727 H   0  0  0  0  0  0  0  0  0  0  0  0
   -1.4135   -0.2800   -2.5927 C   0  0  0  0  0  0  0  0  0  0  0  0
   -0.3178   -0.5850   -3.3235 C   0  0  0  0  0  0  0  0  0  0  0  0
    0.7032   -0.3832   -3.0187 H   0  0  0  0  0  0  0  0  0  0  0  0
   -0.7002   -1.2057   -4.4966 N   0  0  0  0  0  0  0  0  0  0  0  0
   -0.0469   -1.5188   -5.1996 H   0  0  0  0  0  0  0  0  0  0  0  0
   -2.0694   -1.3474   -4.5729 C   0  0  0  0  0  0  0  0  0  0  0  0
   -2.9215   -1.9233   -5.5261 C   0  0  0  0  0  0  0  0  0  0  0  0
   -2.5174   -2.3695   -6.4229 H   0  0  0  0  0  0  0  0  0  0  0  0
   -4.3083   -1.9100   -5.2991 C   0  0  0  0  0  0  0  0  0  0  0  0
   -4.9809   -2.3485   -6.0237 H   0  0  0  0  0  0  0  0  0  0  0  0
   -4.8215   -1.3191   -4.1300 C   0  0  0  0  0  0  0  0  0  0  0  0
   -5.8897   -1.3037   -3.9632 H   0  0  0  0  0  0  0  0  0  0  0  0
   -3.9558   -0.7414   -3.1796 C   0  0  0  0  0  0  0  0  0  0  0  0
   -4.3641   -0.2790   -2.2922 H   0  0  0  0  0  0  0  0  0  0  0  0
   -2.5578   -0.7441   -3.3753 C   0  0  0  0  0  0  0  0  0  0  0  0
   -1.2663    0.1182    1.2910 C   0  0  0  0  0  0  0  0  0  0  0  0
   -0.1906    0.1931    1.8833 O   0  0  0  0  0  0  0  0  0  0  0  0
   -2.3930    0.6605    1.7722 N   0  0  0  0  0  0  0  0  0  0  0  0
   -3.2451    0.5077    1.2518 H   0  0  0  0  0  0  0  0  0  0  0  0
   -2.4787    1.3954    3.0311 C   0  0  0  0  0  0  0  0  0  0  0  0
   -1.7166    2.1767    3.0539 H   0  0  0  0  0  0  0  0  0  0  0  0
   -3.4649    1.8498    3.1344 H   0  0  0  0  0  0  0  0  0  0  0  0
   -2.3058    0.7133    3.8652 H   0  0  0  0  0  0  0  0  0  0  0  0
  5  6  2  0  0  0  0
  5  7  1  0  0  0  0
  2  3  1  0  0  0  0
  2  4  1  0  0  0  0
  2  5  1  0  0  0  0
  1  2  1  0  0  0  0
 29 30  2  0  0  0  0
 29 31  1  0  0  0  0
 26 27  1  0  0  0  0
 26 28  2  0  0  0  0
 24 25  1  0  0  0  0
 24 26  1  0  0  0  0
 22 23  1  0  0  0  0
 22 24  2  0  0  0  0
 20 21  1  0  0  0  0
 20 22  1  0  0  0  0
 19 20  2  0  0  0  0
 19 28  1  0  0  0  0
 17 18  1  0  0  0  0
 17 19  1  0  0  0  0
 15 16  1  0  0  0  0
 15 17  1  0  0  0  0
 14 15  2  0  0  0  0
 14 28  1  0  0  0  0
 11 12  1  0  0  0  0
 11 13  1  0  0  0  0
 11 14  1  0  0  0  0
  9 10  1  0  0  0  0
  9 11  1  0  0  0  0
  9 29  1  0  0  0  0
  7  8  1  0  0  0  0
  7  9  1  0  0  0  0
 33 34  1  0  0  0  0
 33 35  1  0  0  0  0
 33 36  1  0  0  0  0
 31 32  1  0  0  0  0
 31 33  1  0  0  0  0
M  END
$$$$
default_name
  -OEChem-02102213163D

 36 37  0     1  0  0  0  0  0999 V2000
   -4.0843   -4.0736    1.2944 H   0  0  0  0  0  0  0  0  0  0  0  0
   -4.0342   -3.2816    0.5484 C   0  0  0  0  0  0  0  0  0  0  0  0
   -4.8842   -2.6126    0.6694 H   0  0  0  0  0  0  0  0  0  0  0  0
   -4.0433   -3.7186   -0.4486 H   0  0  0  0  0  0  0  0  0  0  0  0
   -2.7532   -2.5046    0.7444 C   0  0  0  0  0  0  0  0  0  0  0  0
   -1.9803   -2.8096    1.6434 O   0  0  0  0  0  0  0  0  0  0  0  0
   -2.5332   -1.4966   -0.0966 N   0  0  0  0  0  0  0  0  0  0  0  0
   -3.2312   -1.2816   -0.7936 H   0  0  0  0  0  0  0  0  0  0  0  0
   -1.3593   -0.6196   -0.0536 C   0  0  1  0  0  0  0  0  0  0  0  0
   -0.4622   -1.2317   -0.1545 H   0  0  0  0  0  0  0  0  0  0  0  0
   -1.4074    0.3593   -1.2373 C   0  0  0  0  0  0  0  0  0  0  0  0
   -2.3056    0.9732   -1.1496 H   0  0  0  0  0  0  0  0  0  0  0  0
   -0.5449    1.0249   -1.1727 H   0  0  0  0  0  0  0  0  0  0  0  0
   -1.4135   -0.2800   -2.5927 C   0  0  0  0  0  0  0  0  0  0  0  0
   -0.3459   -0.8433   -3.2015 C   0  0  0  0  0  0  0  0  0  0  0  0
    0.6539   -0.8817   -2.7833 H   0  0  0  0  0  0  0  0  0  0  0  0
   -0.7312   -1.3739   -4.4171 N   0  0  0  0  0  0  0  0  0  0  0  0
   -0.0960   -1.8412   -5.0474 H   0  0  0  0  0  0  0  0  0  0  0  0
   -2.0786   -1.1923   -4.6460 C   0  0  0  0  0  0  0  0  0  0  0  0
   -2.9313   -1.5663   -5.6945 C   0  0  0  0  0  0  0  0  0  0  0  0
   -2.5466   -2.1074   -6.5465 H   0  0  0  0  0  0  0  0  0  0  0  0
   -4.2928   -1.2256   -5.6220 C   0  0  0  0  0  0  0  0  0  0  0  0
   -4.9653   -1.5048   -6.4218 H   0  0  0  0  0  0  0  0  0  0  0  0
   -4.7791   -0.5144   -4.5097 C   0  0  0  0  0  0  0  0  0  0  0  0
   -5.8257   -0.2471   -4.4619 H   0  0  0  0  0  0  0  0  0  0  0  0
   -3.9125   -0.1420   -3.4626 C   0  0  0  0  0  0  0  0  0  0  0  0
   -4.2965    0.4158   -2.6202 H   0  0  0  0  0  0  0  0  0  0  0  0
   -2.5411   -0.4745   -3.5026 C   0  0  0  0  0  0  0  0  0  0  0  0
   -1.2663    0.1182    1.2910 C   0  0  0  0  0  0  0  0  0  0  0  0
   -0.1906    0.1931    1.8833 O   0  0  0  0  0  0  0  0  0  0  0  0
   -2.3930    0.6605    1.7722 N   0  0  0  0  0  0  0  0  0  0  0  0
   -3.2451    0.5077    1.2518 H   0  0  0  0  0  0  0  0  0  0  0  0
   -2.4787    1.3954    3.0311 C   0  0  0  0  0  0  0  0  0  0  0  0
   -1.7166    2.1767    3.0539 H   0  0  0  0  0  0  0  0  0  0  0  0
   -3.4649    1.8498    3.1344 H   0  0  0  0  0  0  0  0  0  0  0  0
   -2.3058    0.7133    3.8652 H   0  0  0  0  0  0  0  0  0  0  0  0
  5  6  2  0  0  0  0
  5  7  1  0  0  0  0
  2  3  1  0  0  0  0
  2  4  1  0  0  0  0
  2  5  1  0  0  0  0
  1  2  1  0  0  0  0
 29 30  2  0  0  0  0
 29 31  1  0  0  0  0
 26 27  1  0  0  0  0
 26 28  2  0  0  0  0
 24 25  1  0  0  0  0
 24 26  1  0  0  0  0
 22 23  1  0  0  0  0
 22 24  2  0  0  0  0
 20 21  1  0  0  0  0
 20 22  1  0  0  0  0
 19 20  2  0  0  0  0
 19 28  1  0  0  0  0
 17 18  1  0  0  0  0
 17 19  1  0  0  0  0
 15 16  1  0  0  0  0
 15 17  1  0  0  0  0
 14 15  2  0  0  0  0
 14 28  1  0  0  0  0
 11 12  1  0  0  0  0
 11 13  1  0  0  0  0
 11 14  1  0  0  0  0
  9 10  1  0  0  0  0
  9 11  1  0  0  0  0
  9 29  1  0  0  0  0
  7  8  1  0  0  0  0
  7  9  1  0  0  0  0
 33 34  1  0  0  0  0
 33 35  1  0  0  0  0
 33 36  1  0  0  0  0
 31 32  1  0  0  0  0
 31 33  1  0  0  0  0
M  END
$$$$
default_name
  -OEChem-02102213163D

 36 37  0     1  0  0  0  0  0999 V2000
   -4.0843   -4.0736    1.2944 H   0  0  0  0  0  0  0  0  0  0  0  0
   -4.0342   -3.2816    0.5484 C   0  0  0  0  0  0  0  0  0  0  0  0
   -4.8842   -2.6126    0.6694 H   0  0  0  0  0  0  0  0  0  0  0  0
   -4.0433   -3.7186   -0.4486 H   0  0  0  0  0  0  0  0  0  0  0  0
   -2.7532   -2.5046    0.7444 C   0  0  0  0  0  0  0  0  0  0  0  0
   -1.9803   -2.8096    1.6434 O   0  0  0  0  0  0  0  0  0  0  0  0
   -2.5332   -1.4966   -0.0966 N   0  0  0  0  0  0  0  0  0  0  0  0
   -3.2312   -1.2816   -0.7936 H   0  0  0  0  0  0  0  0  0  0  0  0
   -1.3593   -0.6196   -0.0536 C   0  0  1  0  0  0  0  0  0  0  0  0
   -0.4622   -1.2317   -0.1545 H   0  0  0  0  0  0  0  0  0  0  0  0
   -1.4074    0.3593   -1.2373 C   0  0  0  0  0  0  0  0  0  0  0  0
   -2.3056    0.9732   -1.1496 H   0  0  0  0  0  0  0  0  0  0  0  0
   -0.5449    1.0249   -1.1727 H   0  0  0  0  0  0  0  0  0  0  0  0
   -1.4135   -0.2800   -2.5927 C   0  0  0  0  0  0  0  0  0  0  0  0
   -0.4471   -1.0861   -3.0866 C   0  0  0  0  0  0  0  0  0  0  0  0
    0.4636   -1.3515   -2.5608 H   0  0  0  0  0  0  0  0  0  0  0  0
   -0.8094   -1.5290   -4.3436 N   0  0  0  0  0  0  0  0  0  0  0  0
   -0.2357   -2.1409   -4.9054 H   0  0  0  0  0  0  0  0  0  0  0  0
   -2.0431   -1.0404   -4.7178 C   0  0  0  0  0  0  0  0  0  0  0  0
   -2.8386   -1.2193   -5.8586 C   0  0  0  0  0  0  0  0  0  0  0  0
   -2.4997   -1.8474   -6.6693 H   0  0  0  0  0  0  0  0  0  0  0  0
   -4.0820   -0.5685   -5.9329 C   0  0  0  0  0  0  0  0  0  0  0  0
   -4.7087   -0.6939   -6.8055 H   0  0  0  0  0  0  0  0  0  0  0  0
   -4.5079    0.2525   -4.8727 C   0  0  0  0  0  0  0  0  0  0  0  0
   -5.4615    0.7580   -4.9377 H   0  0  0  0  0  0  0  0  0  0  0  0
   -3.6991    0.4267   -3.7317 C   0  0  0  0  0  0  0  0  0  0  0  0
   -4.0323    1.0707   -2.9303 H   0  0  0  0  0  0  0  0  0  0  0  0
   -2.4479   -0.2181   -3.6239 C   0  0  0  0  0  0  0  0  0  0  0  0
   -1.2663    0.1182    1.2910 C   0  0  0  0  0  0  0  0  0  0  0  0
   -0.1906    0.1931    1.8833 O   0  0  0  0  0  0  0  0  0  0  0  0
   -2.3930    0.6605    1.7722 N   0  0  0  0  0  0  0  0  0  0  0  0
   -3.2451    0.5077    1.2518 H   0  0  0  0  0  0  0  0  0  0  0  0
   -2.4787    1.3954    3.0311 C   0  0  0  0  0  0  0  0  0  0  0  0
   -1.7166    2.1767    3.0539 H   0  0  0  0  0  0  0  0  0  0  0  0
   -3.4649    1.8498    3.1344 H   0  0  0  0  0  0  0  0  0  0  0  0
   -2.3058    0.7133    3.8652 H   0  0  0  0  0  0  0  0  0  0  0  0
  5  6  2  0  0  0  0
  5  7  1  0  0  0  0
  2  3  1  0  0  0  0
  2  4  1  0  0  0  0
  2  5  1  0  0  0  0
  1  2  1  0  0  0  0
 29 30  2  0  0  0  0
 29 31  1  0  0  0  0
 26 27  1  0  0  0  0
 26 28  2  0  0  0  0
 24 25  1  0  0  0  0
 24 26  1  0  0  0  0
 22 23  1  0  0  0  0
 22 24  2  0  0  0  0
 20 21  1  0  0  0  0
 20 22  1  0  0  0  0
 19 20  2  0  0  0  0
 19 28  1  0  0  0  0
 17 18  1  0  0  0  0
 17 19  1  0  0  0  0
 15 16  1  0  0  0  0
 15 17  1  0  0  0  0
 14 15  2  0  0  0  0
 14 28  1  0  0  0  0
 11 12  1  0  0  0  0
 11 13  1  0  0  0  0
 11 14  1  0  0  0  0
  9 10  1  0  0  0  0
  9 11  1  0  0  0  0
  9 29  1  0  0  0  0
  7  8  1  0  0  0  0
  7  9  1  0  0  0  0
 33 34  1  0  0  0  0
 33 35  1  0  0  0  0
 33 36  1  0  0  0  0
 31 32  1  0  0  0  0
 31 33  1  0  0  0  0
M  END
$$$$
default_name
  -OEChem-02102213163D

 36 37  0     1  0  0  0  0  0999 V2000
   -4.0843   -4.0736    1.2944 H   0  0  0  0  0  0  0  0  0  0  0  0
   -4.0342   -3.2816    0.5484 C   0  0  0  0  0  0  0  0  0  0  0  0
   -4.8842   -2.6126    0.6694 H   0  0  0  0  0  0  0  0  0  0  0  0
   -4.0433   -3.7186   -0.4486 H   0  0  0  0  0  0  0  0  0  0  0  0
   -2.7532   -2.5046    0.7444 C   0  0  0  0  0  0  0  0  0  0  0  0
   -1.9803   -2.8096    1.6434 O   0  0  0  0  0  0  0  0  0  0  0  0
   -2.5332   -1.4966   -0.0966 N   0  0  0  0  0  0  0  0  0  0  0  0
   -3.2312   -1.2816   -0.7936 H   0  0  0  0  0  0  0  0  0  0  0  0
   -1.3593   -0.6196   -0.0536 C   0  0  1  0  0  0  0  0  0  0  0  0
   -0.4622   -1.2317   -0.1545 H   0  0  0  0  0  0  0  0  0  0  0  0
   -1.4074    0.3593   -1.2373 C   0  0  0  0  0  0  0  0  0  0  0  0
   -2.3056    0.9732   -1.1496 H   0  0  0  0  0  0  0  0  0  0  0  0
   -0.5449    1.0249   -1.1727 H   0  0  0  0  0  0  0  0  0  0  0  0
   -1.4135   -0.2800   -2.5927 C   0  0  0  0  0  0  0  0  0  0  0  0
   -0.6143   -1.2968   -2.9864 C   0  0  0  0  0  0  0  0  0  0  0  0
    0.1453   -1.7604   -2.3665 H   0  0  0  0  0  0  0  0  0  0  0  0
   -0.9293   -1.6604   -4.2810 N   0  0  0  0  0  0  0  0  0  0  0  0
   -0.4564   -2.3975   -4.7833 H   0  0  0  0  0  0  0  0  0  0  0  0
   -1.9653   -0.9020   -4.7834 C   0  0  0  0  0  0  0  0  0  0  0  0
   -2.6498   -0.9060   -6.0072 C   0  0  0  0  0  0  0  0  0  0  0  0
   -2.3801   -1.6075   -6.7830 H   0  0  0  0  0  0  0  0  0  0  0  0
   -3.6902    0.0166   -6.2107 C   0  0  0  0  0  0  0  0  0  0  0  0
   -4.2287    0.0289   -7.1486 H   0  0  0  0  0  0  0  0  0  0  0  0
   -4.0263    0.9294   -5.1942 C   0  0  0  0  0  0  0  0  0  0  0  0
   -4.8219    1.6430   -5.3581 H   0  0  0  0  0  0  0  0  0  0  0  0
   -3.3301    0.9257   -3.9688 C   0  0  0  0  0  0  0  0  0  0  0  0
   -3.5896    1.6411   -3.2014 H   0  0  0  0  0  0  0  0  0  0  0  0
   -2.2844    0.0076   -3.7311 C   0  0  0  0  0  0  0  0  0  0  0  0
   -1.2663    0.1182    1.2910 C   0  0  0  0  0  0  0  0  0  0  0  0
   -0.1906    0.1931    1.8833 O   0  0  0  0  0  0  0  0  0  0  0  0
   -2.3930    0.6605    1.7722 N   0  0  0  0  0  0  0  0  0  0  0  0
   -3.2451    0.5077    1.2518 H   0  0  0  0  0  0  0  0  0  0  0  0
   -2.4787    1.3954    3.0311 C   0  0  0  0  0  0  0  0  0  0  0  0
   -1.7166    2.1767    3.0539 H   0  0  0  0  0  0  0  0  0  0  0  0
   -3.4649    1.8498    3.1344 H   0  0  0  0  0  0  0  0  0  0  0  0
   -2.3058    0.7133    3.8652 H   0  0  0  0  0  0  0  0  0  0  0  0
  5  6  2  0  0  0  0
  5  7  1  0  0  0  0
  2  3  1  0  0  0  0
  2  4  1  0  0  0  0
  2  5  1  0  0  0  0
  1  2  1  0  0  0  0
 29 30  2  0  0  0  0
 29 31  1  0  0  0  0
 26 27  1  0  0  0  0
 26 28  2  0  0  0  0
 24 25  1  0  0  0  0
 24 26  1  0  0  0  0
 22 23  1  0  0  0  0
 22 24  2  0  0  0  0
 20 21  1  0  0  0  0
 20 22  1  0  0  0  0
 19 20  2  0  0  0  0
 19 28  1  0  0  0  0
 17 18  1  0  0  0  0
 17 19  1  0  0  0  0
 15 16  1  0  0  0  0
 15 17  1  0  0  0  0
 14 15  2  0  0  0  0
 14 28  1  0  0  0  0
 11 12  1  0  0  0  0
 11 13  1  0  0  0  0
 11 14  1  0  0  0  0
  9 10  1  0  0  0  0
  9 11  1  0  0  0  0
  9 29  1  0  0  0  0
  7  8  1  0  0  0  0
  7  9  1  0  0  0  0
 33 34  1  0  0  0  0
 33 35  1  0  0  0  0
 33 36  1  0  0  0  0
 31 32  1  0  0  0  0
 31 33  1  0  0  0  0
M  END
$$$$
default_name
  -OEChem-02102213163D

 36 37  0     1  0  0  0  0  0999 V2000
   -4.0843   -4.0736    1.2944 H   0  0  0  0  0  0  0  0  0  0  0  0
   -4.0342   -3.2816    0.5484 C   0  0  0  0  0  0  0  0  0  0  0  0
   -4.8842   -2.6126    0.6694 H   0  0  0  0  0  0  0  0  0  0  0  0
   -4.0433   -3.7186   -0.4486 H   0  0  0  0  0  0  0  0  0  0  0  0
   -2.7532   -2.5046    0.7444 C   0  0  0  0  0  0  0  0  0  0  0  0
   -1.9803   -2.8096    1.6434 O   0  0  0  0  0  0  0  0  0  0  0  0
   -2.5332   -1.4966   -0.0966 N   0  0  0  0  0  0  0  0  0  0  0  0
   -3.2312   -1.2816   -0.7936 H   0  0  0  0  0  0  0  0  0  0  0  0
   -1.3593   -0.6196   -0.0536 C   0  0  1  0  0  0  0  0  0  0  0  0
   -0.4622   -1.2317   -0.1545 H   0  0  0  0  0  0  0  0  0  0  0  0
   -1.4074    0.3593   -1.2373 C   0  0  0  0  0  0  0  0  0  0  0  0
   -2.3056    0.9732   -1.1496 H   0  0  0  0  0  0  0  0  0  0  0  0
   -0.5449    1.0249   -1.1727 H   0  0  0  0  0  0  0  0  0  0  0  0
   -1.4135   -0.2800   -2.5927 C   0  0  0  0  0  0  0  0  0  0  0  0
   -0.8362   -1.4611   -2.9079 C   0  0  0  0  0  0  0  0  0  0  0  0
   -0.2794   -2.0808   -2.2134 H   0  0  0  0  0  0  0  0  0  0  0  0
   -1.0828   -1.7593   -4.2337 N   0  0  0  0  0  0  0  0  0  0  0  0
   -0.7432   -2.5936   -4.6895 H   0  0  0  0  0  0  0  0  0  0  0  0
   -1.8505   -0.7867   -4.8383 C   0  0  0  0  0  0  0  0  0  0  0  0
   -2.3776   -0.6478   -6.1303 C   0  0  0  0  0  0  0  0  0  0  0  0
   -2.1958   -1.4038   -6.8799 H   0  0  0  0  0  0  0  0  0  0  0  0
   -3.1441    0.4897   -6.4363 C   0  0  0  0  0  0  0  0  0  0  0  0
   -3.5579    0.6144   -7.4279 H   0  0  0  0  0  0  0  0  0  0  0  0
   -3.3672    1.4702   -5.4523 C   0  0  0  0  0  0  0  0  0  0  0  0
   -3.9505    2.3477   -5.6945 H   0  0  0  0  0  0  0  0  0  0  0  0
   -2.8307    1.3210   -4.1576 C   0  0  0  0  0  0  0  0  0  0  0  0
   -2.9985    2.0881   -3.4150 H   0  0  0  0  0  0  0  0  0  0  0  0
   -2.0618    0.1872   -3.8169 C   0  0  0  0  0  0  0  0  0  0  0  0
   -1.2663    0.1182    1.2910 C   0  0  0  0  0  0  0  0  0  0  0  0
   -0.1906    0.1931    1.8833 O   0  0  0  0  0  0  0  0  0  0  0  0
   -2.3930    0.6605    1.7722 N   0  0  0  0  0  0  0  0  0  0  0  0
   -3.2451    0.5077    1.2518 H   0  0  0  0  0  0  0  0  0  0  0  0
   -2.4787    1.3954    3.0311 C   0  0  0  0  0  0  0  0  0  0  0  0
   -1.7166    2.1767    3.0539 H   0  0  0  0  0  0  0  0  0  0  0  0
   -3.4649    1.8498    3.1344 H   0  0  0  0  0  0  0  0  0  0  0  0
   -2.3058    0.7133    3.8652 H   0  0  0  0  0  0  0  0  0  0  0  0
  5  6  2  0  0  0  0
  5  7  1  0  0  0  0
  2  3  1  0  0  0  0
  2  4  1  0  0  0  0
  2  5  1  0  0  0  0
  1  2  1  0  0  0  0
 29 30  2  0  0  0  0
 29 31  1  0  0  0  0
 26 27  1  0  0  0  0
 26 28  2  0  0  0  0
 24 25  1  0  0  0  0
 24 26  1  0  0  0  0
 22 23  1  0  0  0  0
 22 24  2  0  0  0  0
 20 21  1  0  0  0  0
 20 22  1  0  0  0  0
 19 20  2  0  0  0  0
 19 28  1  0  0  0  0
 17 18  1  0  0  0  0
 17 19  1  0  0  0  0
 15 16  1  0  0  0  0
 15 17  1  0  0  0  0
 14 15  2  0  0  0  0
 14 28  1  0  0  0  0
 11 12  1  0  0  0  0
 11 13  1  0  0  0  0
 11 14  1  0  0  0  0
  9 10  1  0  0  0  0
  9 11  1  0  0  0  0
  9 29  1  0  0  0  0
  7  8  1  0  0  0  0
  7  9  1  0  0  0  0
 33 34  1  0  0  0  0
 33 35  1  0  0  0  0
 33 36  1  0  0  0  0
 31 32  1  0  0  0  0
 31 33  1  0  0  0  0
M  END
$$$$
default_name
  -OEChem-02102213163D

 36 37  0     1  0  0  0  0  0999 V2000
   -4.0843   -4.0736    1.2944 H   0  0  0  0  0  0  0  0  0  0  0  0
   -4.0342   -3.2816    0.5484 C   0  0  0  0  0  0  0  0  0  0  0  0
   -4.8842   -2.6126    0.6694 H   0  0  0  0  0  0  0  0  0  0  0  0
   -4.0433   -3.7186   -0.4486 H   0  0  0  0  0  0  0  0  0  0  0  0
   -2.7532   -2.5046    0.7444 C   0  0  0  0  0  0  0  0  0  0  0  0
   -1.9803   -2.8096    1.6434 O   0  0  0  0  0  0  0  0  0  0  0  0
   -2.5332   -1.4966   -0.0966 N   0  0  0  0  0  0  0  0  0  0  0  0
   -3.2312   -1.2816   -0.7936 H   0  0  0  0  0  0  0  0  0  0  0  0
   -1.3593   -0.6196   -0.0536 C   0  0  1  0  0  0  0  0  0  0  0  0
   -0.4622   -1.2317   -0.1545 H   0  0  0  0  0  0  0  0  0  0  0  0
   -1.4074    0.3593   -1.2373 C   0  0  0  0  0  0  0  0  0  0  0  0
   -2.3056    0.9732   -1.1496 H   0  0  0  0  0  0  0  0  0  0  0  0
   -0.5449    1.0249   -1.1727 H   0  0  0  0  0  0  0  0  0  0  0  0
   -1.4135   -0.2800   -2.5927 C   0  0  0  0  0  0  0  0  0  0  0  0
   -1.0976   -1.5678   -2.8564 C   0  0  0  0  0  0  0  0  0  0  0  0
   -0.7815   -2.2906   -2.1122 H   0  0  0  0  0  0  0  0  0  0  0  0
   -1.2594   -1.8187   -4.2048 N   0  0  0  0  0  0  0  0  0  0  0  0
   -1.0765   -2.7158   -4.6304 H   0  0  0  0  0  0  0  0  0  0  0  0
   -1.7065   -0.7022   -4.8788 C   0  0  0  0  0  0  0  0  0  0  0  0
   -2.0407   -0.4622   -6.2194 C   0  0  0  0  0  0  0  0  0  0  0  0
   -1.9594   -1.2503   -6.9534 H   0  0  0  0  0  0  0  0  0  0  0  0
   -2.4810    0.8186   -6.5945 C   0  0  0  0  0  0  0  0  0  0  0  0
   -2.7421    1.0226   -7.6241 H   0  0  0  0  0  0  0  0  0  0  0  0
   -2.5754    1.8379   -5.6294 C   0  0  0  0  0  0  0  0  0  0  0  0
   -2.9067    2.8241   -5.9239 H   0  0  0  0  0  0  0  0  0  0  0  0
   -2.2350    1.5858   -4.2852 C   0  0  0  0  0  0  0  0  0  0  0  0
   -2.2993    2.3814   -3.5565 H   0  0  0  0  0  0  0  0  0  0  0  0
   -1.7953    0.3085   -3.8753 C   0  0  0  0  0  0  0  0  0  0  0  0
   -1.2663    0.1182    1.2910 C   0  0  0  0  0  0  0  0  0  0  0  0
   -0.1906    0.1931    1.8833 O   0  0  0  0  0  0  0  0  0  0  0  0
   -2.3930    0.6605    1.7722 N   0  0  0  0  0  0  0  0  0  0  0  0
   -3.2451    0.5077    1.2518 H   0  0  0  0  0  0  0  0  0  0  0  0
   -2.4787    1.3954    3.0311 C   0  0  0  0  0  0  0  0  0  0  0  0
   -1.7166    2.1767    3.0539 H   0  0  0  0  0  0  0  0  0  0  0  0
   -3.4649    1.8498    3.1344 H   0  0  0  0  0  0  0  0  0  0  0  0
   -2.3058    0.7133    3.8652 H   0  0  0  0  0  0  0  0  0  0  0  0
  5  6  2  0  0  0  0
  5  7  1  0  0  0  0
  2  3  1  0  0  0  0
  2  4  1  0  0  0  0
  2  5  1  0  0  0  0
  1  2  1  0  0  0  0
 29 30  2  0  0  0  0
 29 31  1  0  0  0  0
 26 27  1  0  0  0  0
 26 28  2  0  0  0  0
 24 25  1  0  0  0  0
 24 26  1  0  0  0  0
 22 23  1  0  0  0  0
 22 24  2  0  0  0  0
 20 21  1  0  0  0  0
 20 22  1  0  0  0  0
 19 20  2  0  0  0  0
 19 28  1  0  0  0  0
 17 18  1  0  0  0  0
 17 19  1  0  0  0  0
 15 16  1  0  0  0  0
 15 17  1  0  0  0  0
 14 15  2  0  0  0  0
 14 28  1  0  0  0  0
 11 12  1  0  0  0  0
 11 13  1  0  0  0  0
 11 14  1  0  0  0  0
  9 10  1  0  0  0  0
  9 11  1  0  0  0  0
  9 29  1  0  0  0  0
  7  8  1  0  0  0  0
  7  9  1  0  0  0  0
 33 34  1  0  0  0  0
 33 35  1  0  0  0  0
 33 36  1  0  0  0  0
 31 32  1  0  0  0  0
 31 33  1  0  0  0  0
M  END
$$$$
default_name
  -OEChem-02102213163D

 36 37  0     1  0  0  0  0  0999 V2000
   -4.0843   -4.0736    1.2944 H   0  0  0  0  0  0  0  0  0  0  0  0
   -4.0342   -3.2816    0.5484 C   0  0  0  0  0  0  0  0  0  0  0  0
   -4.8842   -2.6126    0.6694 H   0  0  0  0  0  0  0  0  0  0  0  0
   -4.0433   -3.7186   -0.4486 H   0  0  0  0  0  0  0  0  0  0  0  0
   -2.7532   -2.5046    0.7444 C   0  0  0  0  0  0  0  0  0  0  0  0
   -1.9803   -2.8096    1.6434 O   0  0  0  0  0  0  0  0  0  0  0  0
   -2.5332   -1.4966   -0.0966 N   0  0  0  0  0  0  0  0  0  0  0  0
   -3.2312   -1.2816   -0.7936 H   0  0  0  0  0  0  0  0  0  0  0  0
   -1.3593   -0.6196   -0.0536 C   0  0  1  0  0  0  0  0  0  0  0  0
   -0.4622   -1.2317   -0.1545 H   0  0  0  0  0  0  0  0  0  0  0  0
   -1.4074    0.3593   -1.2373 C   0  0  0  0  0  0  0  0  0  0  0  0
   -2.3056    0.9732   -1.1496 H   0  0  0  0  0  0  0  0  0  0  0  0
   -0.5449    1.0249   -1.1727 H   0  0  0  0  0  0  0  0  0  0  0  0
   -1.4135   -0.2800   -2.5927 C   0  0  0  0  0  0  0  0  0  0  0  0
   -1.3808   -1.6096   -2.8354 C   0  0  0  0  0  0  0  0  0  0  0  0
   -1.3268   -2.3756   -2.0696 H   0  0  0  0  0  0  0  0  0  0  0  0
   -1.4471   -1.8348   -4.1964 N   0  0  0  0  0  0  0  0  0  0  0  0
   -1.4335   -2.7557   -4.6099 H   0  0  0  0  0  0  0  0  0  0  0  0
   -1.5433   -0.6544   -4.9021 C   0  0  0  0  0  0  0  0  0  0  0  0
   -1.6620   -0.3618   -6.2684 C   0  0  0  0  0  0  0  0  0  0  0  0
   -1.6871   -1.1575   -6.9984 H   0  0  0  0  0  0  0  0  0  0  0  0
   -1.7460    0.9810   -6.6744 C   0  0  0  0  0  0  0  0  0  0  0  0
   -1.8369    1.2257   -7.7240 H   0  0  0  0  0  0  0  0  0  0  0  0
   -1.7050    2.0077   -5.7134 C   0  0  0  0  0  0  0  0  0  0  0  0
   -1.7616    3.0397   -6.0308 H   0  0  0  0  0  0  0  0  0  0  0  0
   -1.5835    1.7020   -4.3429 C   0  0  0  0  0  0  0  0  0  0  0  0
   -1.5397    2.5008   -3.6162 H   0  0  0  0  0  0  0  0  0  0  0  0
   -1.5031    0.3632   -3.9024 C   0  0  0  0  0  0  0  0  0  0  0  0
   -1.2663    0.1182    1.2910 C   0  0  0  0  0  0  0  0  0  0  0  0
   -0.1906    0.1931    1.8833 O   0  0  0  0  0  0  0  0  0  0  0  0
   -2.3930    0.6605    1.7722 N   0  0  0  0  0  0  0  0  0  0  0  0
   -3.2451    0.5077    1.2518 H   0  0  0  0  0  0  0  0  0  0  0  0
   -2.4787    1.3954    3.0311 C   0  0  0  0  0  0  0  0  0  0  0  0
   -1.7166    2.1767    3.0539 H   0  0  0  0  0  0  0  0  0  0  0  0
   -3.4649    1.8498    3.1344 H   0  0  0  0  0  0  0  0  0  0  0  0
   -2.3058    0.7133    3.8652 H   0  0  0  0  0  0  0  0  0  0  0  0
  5  6  2  0  0  0  0
  5  7  1  0  0  0  0
  2  3  1  0  0  0  0
  2  4  1  0  0  0  0
  2  5  1  0  0  0  0
  1  2  1  0  0  0  0
 29 30  2  0  0  0  0
 29 31  1  0  0  0  0
 26 27  1  0  0  0  0
 26 28  2  0  0  0  0
 24 25  1  0  0  0  0
 24 26  1  0  0  0  0
 22 23  1  0  0  0  0
 22 24  2  0  0  0  0
 20 21  1  0  0  0  0
 20 22  1  0  0  0  0
 19 20  2  0  0  0  0
 19 28  1  0  0  0  0
 17 18  1  0  0  0  0
 17 19  1  0  0  0  0
 15 16  1  0  0  0  0
 15 17  1  0  0  0  0
 14 15  2  0  0  0  0
 14 28  1  0  0  0  0
 11 12  1  0  0  0  0
 11 13  1  0  0  0  0
 11 14  1  0  0  0  0
  9 10  1  0  0  0  0
  9 11  1  0  0  0  0
  9 29  1  0  0  0  0
  7  8  1  0  0  0  0
  7  9  1  0  0  0  0
 33 34  1  0  0  0  0
 33 35  1  0  0  0  0
 33 36  1  0  0  0  0
 31 32  1  0  0  0  0
 31 33  1  0  0  0  0
M  END
$$$$
default_name
  -OEChem-02102213163D

 36 37  0     1  0  0  0  0  0999 V2000
   -4.0843   -4.0736    1.2944 H   0  0  0  0  0  0  0  0  0  0  0  0
   -4.0342   -3.2816    0.5484 C   0  0  0  0  0  0  0  0  0  0  0  0
   -4.8842   -2.6126    0.6694 H   0  0  0  0  0  0  0  0  0  0  0  0
   -4.0433   -3.7186   -0.4486 H   0  0  0  0  0  0  0  0  0  0  0  0
   -2.7532   -2.5046    0.7444 C   0  0  0  0  0  0  0  0  0  0  0  0
   -1.9803   -2.8096    1.6434 O   0  0  0  0  0  0  0  0  0  0  0  0
   -2.5332   -1.4966   -0.0966 N   0  0  0  0  0  0  0  0  0  0  0  0
   -3.2312   -1.2816   -0.7936 H   0  0  0  0  0  0  0  0  0  0  0  0
   -1.3593   -0.6196   -0.0536 C   0  0  1  0  0  0  0  0  0  0  0  0
   -0.4622   -1.2317   -0.1545 H   0  0  0  0  0  0  0  0  0  0  0  0
   -1.4074    0.3593   -1.2373 C   0  0  0  0  0  0  0  0  0  0  0  0
   -2.3056    0.9732   -1.1496 H   0  0  0  0  0  0  0  0  0  0  0  0
   -0.5449    1.0249   -1.1727 H   0  0  0  0  0  0  0  0  0  0  0  0
   -1.4135   -0.2800   -2.5927 C   0  0  0  0  0  0  0  0  0  0  0  0
   -1.6665   -1.5836   -2.8463 C   0  0  0  0  0  0  0  0  0  0  0  0
   -1.8781   -2.3301   -2.0886 H   0  0  0  0  0  0  0  0  0  0  0  0
   -1.6332   -1.8064   -4.2090 N   0  0  0  0  0  0  0  0  0  0  0  0
   -1.7900   -2.7107   -4.6295 H   0  0  0  0  0  0  0  0  0  0  0  0
   -1.3718   -0.6464   -4.9067 C   0  0  0  0  0  0  0  0  0  0  0  0
   -1.2673   -0.3536   -6.2741 C   0  0  0  0  0  0  0  0  0  0  0  0
   -1.3973   -1.1316   -7.0120 H   0  0  0  0  0  0  0  0  0  0  0  0
   -0.9893    0.9657   -6.6706 C   0  0  0  0  0  0  0  0  0  0  0  0
   -0.9040    1.2100   -7.7208 H   0  0  0  0  0  0  0  0  0  0  0  0
   -0.8152    1.9678   -5.6986 C   0  0  0  0  0  0  0  0  0  0  0  0
   -0.5932    2.9798   -6.0078 H   0  0  0  0  0  0  0  0  0  0  0  0
   -0.9206    1.6617   -4.3269 C   0  0  0  0  0  0  0  0  0  0  0  0
   -0.7714    2.4383   -3.5902 H   0  0  0  0  0  0  0  0  0  0  0  0
   -1.2050    0.3476   -3.8964 C   0  0  0  0  0  0  0  0  0  0  0  0
   -1.2663    0.1182    1.2910 C   0  0  0  0  0  0  0  0  0  0  0  0
   -0.1906    0.1931    1.8833 O   0  0  0  0  0  0  0  0  0  0  0  0
   -2.3930    0.6605    1.7722 N   0  0  0  0  0  0  0  0  0  0  0  0
   -3.2451    0.5077    1.2518 H   0  0  0  0  0  0  0  0  0  0  0  0
   -2.4787    1.3954    3.0311 C   0  0  0  0  0  0  0  0  0  0  0  0
   -1.7166    2.1767    3.0539 H   0  0  0  0  0  0  0  0  0  0  0  0
   -3.4649    1.8498    3.1344 H   0  0  0  0  0  0  0  0  0  0  0  0
   -2.3058    0.7133    3.8652 H   0  0  0  0  0  0  0  0  0  0  0  0
  5  6  2  0  0  0  0
  5  7  1  0  0  0  0
  2  3  1  0  0  0  0
  2  4  1  0  0  0  0
  2  5  1  0  0  0  0
  1  2  1  0  0  0  0
 29 30  2  0  0  0  0
 29 31  1  0  0  0  0
 26 27  1  0  0  0  0
 26 28  2  0  0  0  0
 24 25  1  0  0  0  0
 24 26  1  0  0  0  0
 22 23  1  0  0  0  0
 22 24  2  0  0  0  0
 20 21  1  0  0  0  0
 20 22  1  0  0  0  0
 19 20  2  0  0  0  0
 19 28  1  0  0  0  0
 17 18  1  0  0  0  0
 17 19  1  0  0  0  0
 15 16  1  0  0  0  0
 15 17  1  0  0  0  0
 14 15  2  0  0  0  0
 14 28  1  0  0  0  0
 11 12  1  0  0  0  0
 11 13  1  0  0  0  0
 11 14  1  0  0  0  0
  9 10  1  0  0  0  0
  9 11  1  0  0  0  0
  9 29  1  0  0  0  0
  7  8  1  0  0  0  0
  7  9  1  0  0  0  0
 33 34  1  0  0  0  0
 33 35  1  0  0  0  0
 33 36  1  0  0  0  0
 31 32  1  0  0  0  0
 31 33  1  0  0  0  0
M  END
$$$$
default_name
  -OEChem-02102213163D

 36 37  0     1  0  0  0  0  0999 V2000
   -4.0843   -4.0736    1.2944 H   0  0  0  0  0  0  0  0  0  0  0  0
   -4.0342   -3.2816    0.5484 C   0  0  0  0  0  0  0  0  0  0  0  0
   -4.8842   -2.6126    0.6694 H   0  0  0  0  0  0  0  0  0  0  0  0
   -4.0433   -3.7186   -0.4486 H   0  0  0  0  0  0  0  0  0  0  0  0
   -2.7532   -2.5046    0.7444 C   0  0  0  0  0  0  0  0  0  0  0  0
   -1.9803   -2.8096    1.6434 O   0  0  0  0  0  0  0  0  0  0  0  0
   -2.5332   -1.4966   -0.0966 N   0  0  0  0  0  0  0  0  0  0  0  0
   -3.2312   -1.2816   -0.7936 H   0  0  0  0  0  0  0  0  0  0  0  0
   -1.3593   -0.6196   -0.0536 C   0  0  1  0  0  0  0  0  0  0  0  0
   -0.4622   -1.2317   -0.1545 H   0  0  0  0  0  0  0  0  0  0  0  0
   -1.4074    0.3593   -1.2373 C   0  0  0  0  0  0  0  0  0  0  0  0
   -2.3056    0.9732   -1.1496 H   0  0  0  0  0  0  0  0  0  0  0  0
   -0.5449    1.0249   -1.1727 H   0  0  0  0  0  0  0  0  0  0  0  0
   -1.4135   -0.2800   -2.5927 C   0  0  0  0  0  0  0  0  0  0  0  0
   -1.9351   -1.4917   -2.8885 C   0  0  0  0  0  0  0  0  0  0  0  0
   -2.3979   -2.1570   -2.1679 H   0  0  0  0  0  0  0  0  0  0  0  0
   -1.8048   -1.7354   -4.2417 N   0  0  0  0  0  0  0  0  0  0  0  0
   -2.1217   -2.5837   -4.6879 H   0  0  0  0  0  0  0  0  0  0  0  0
   -1.2038   -0.6788   -4.8922 C   0  0  0  0  0  0  0  0  0  0  0  0
   -0.8835   -0.4381   -6.2360 C   0  0  0  0  0  0  0  0  0  0  0  0
   -1.1098   -1.1745   -6.9930 H   0  0  0  0  0  0  0  0  0  0  0  0
   -0.2623    0.7737   -6.5833 C   0  0  0  0  0  0  0  0  0  0  0  0
   -0.0069    0.9763   -7.6147 H   0  0  0  0  0  0  0  0  0  0  0  0
    0.0332    1.7210   -5.5860 C   0  0  0  0  0  0  0  0  0  0  0  0
    0.5187    2.6484   -5.8566 H   0  0  0  0  0  0  0  0  0  0  0  0
   -0.2914    1.4676   -4.2382 C   0  0  0  0  0  0  0  0  0  0  0  0
   -0.0468    2.1981   -3.4802 H   0  0  0  0  0  0  0  0  0  0  0  0
   -0.9213    0.2628   -3.8577 C   0  0  0  0  0  0  0  0  0  0  0  0
   -1.2663    0.1182    1.2910 C   0  0  0  0  0  0  0  0  0  0  0  0
   -0.1906    0.1931    1.8833 O   0  0  0  0  0  0  0  0  0  0  0  0
   -2.3930    0.6605    1.7722 N   0  0  0  0  0  0  0  0  0  0  0  0
   -3.2451    0.5077    1.2518 H   0  0  0  0  0  0  0  0  0  0  0  0
   -2.4787    1.3954    3.0311 C   0  0  0  0  0  0  0  0  0  0  0  0
   -1.7166    2.1767    3.0539 H   0  0  0  0  0  0  0  0  0  0  0  0
   -3.4649    1.8498    3.1344 H   0  0  0  0  0  0  0  0  0  0  0  0
   -2.3058    0.7133    3.8652 H   0  0  0  0  0  0  0  0  0  0  0  0
  5  6  2  0  0  0  0
  5  7  1  0  0  0  0
  2  3  1  0  0  0  0
  2  4  1  0  0  0  0
  2  5  1  0  0  0  0
  1  2  1  0  0  0  0
 29 30  2  0  0  0  0
 29 31  1  0  0  0  0
 26 27  1  0  0  0  0
 26 28  2  0  0  0  0
 24 25  1  0  0  0  0
 24 26  1  0  0  0  0
 22 23  1  0  0  0  0
 22 24  2  0  0  0  0
 20 21  1  0  0  0  0
 20 22  1  0  0  0  0
 19 20  2  0  0  0  0
 19 28  1  0  0  0  0
 17 18  1  0  0  0  0
 17 19  1  0  0  0  0
 15 16  1  0  0  0  0
 15 17  1  0  0  0  0
 14 15  2  0  0  0  0
 14 28  1  0  0  0  0
 11 12  1  0  0  0  0
 11 13  1  0  0  0  0
 11 14  1  0  0  0  0
  9 10  1  0  0  0  0
  9 11  1  0  0  0  0
  9 29  1  0  0  0  0
  7  8  1  0  0  0  0
  7  9  1  0  0  0  0
 33 34  1  0  0  0  0
 33 35  1  0  0  0  0
 33 36  1  0  0  0  0
 31 32  1  0  0  0  0
 31 33  1  0  0  0  0
M  END
$$$$
default_name
  -OEChem-02102213163D

 36 37  0     1  0  0  0  0  0999 V2000
   -4.0843   -4.0736    1.2944 H   0  0  0  0  0  0  0  0  0  0  0  0
   -4.0342   -3.2816    0.5484 C   0  0  0  0  0  0  0  0  0  0  0  0
   -4.8842   -2.6126    0.6694 H   0  0  0  0  0  0  0  0  0  0  0  0
   -4.0433   -3.7186   -0.4486 H   0  0  0  0  0  0  0  0  0  0  0  0
   -2.7532   -2.5046    0.7444 C   0  0  0  0  0  0  0  0  0  0  0  0
   -1.9803   -2.8096    1.6434 O   0  0  0  0  0  0  0  0  0  0  0  0
   -2.5332   -1.4966   -0.0966 N   0  0  0  0  0  0  0  0  0  0  0  0
   -3.2312   -1.2816   -0.7936 H   0  0  0  0  0  0  0  0  0  0  0  0
   -1.3593   -0.6196   -0.0536 C   0  0  1  0  0  0  0  0  0  0  0  0
   -0.4622   -1.2317   -0.1545 H   0  0  0  0  0  0  0  0  0  0  0  0
   -1.4074    0.3593   -1.2373 C   0  0  0  0  0  0  0  0  0  0  0  0
   -2.3056    0.9732   -1.1496 H   0  0  0  0  0  0  0  0  0  0  0  0
   -0.5449    1.0249   -1.1727 H   0  0  0  0  0  0  0  0  0  0  0  0
   -1.4135   -0.2800   -2.5927 C   0  0  0  0  0  0  0  0  0  0  0  0
   -2.1684   -1.3401   -2.9590 C   0  0  0  0  0  0  0  0  0  0  0  0
   -2.8507   -1.8683   -2.3020 H   0  0  0  0  0  0  0  0  0  0  0  0
   -1.9504   -1.6267   -4.2923 N   0  0  0  0  0  0  0  0  0  0  0  0
   -2.4058   -2.3836   -4.7810 H   0  0  0  0  0  0  0  0  0  0  0  0
   -1.0507   -0.7494   -4.8595 C   0  0  0  0  0  0  0  0  0  0  0  0
   -0.5367   -0.6095   -6.1567 C   0  0  0  0  0  0  0  0  0  0  0  0
   -0.8443   -1.2831   -6.9430 H   0  0  0  0  0  0  0  0  0  0  0  0
    0.3853    0.4182   -6.4186 C   0  0  0  0  0  0  0  0  0  0  0  0
    0.7932    0.5408   -7.4129 H   0  0  0  0  0  0  0  0  0  0  0  0
    0.7826    1.2841   -5.3833 C   0  0  0  0  0  0  0  0  0  0  0  0
    1.4986    2.0683   -5.5873 H   0  0  0  0  0  0  0  0  0  0  0  0
    0.2610    1.1329   -4.0828 C   0  0  0  0  0  0  0  0  0  0  0  0
    0.5847    1.7965   -3.2937 H   0  0  0  0  0  0  0  0  0  0  0  0
   -0.6715    0.1145   -3.7889 C   0  0  0  0  0  0  0  0  0  0  0  0
   -1.2663    0.1182    1.2910 C   0  0  0  0  0  0  0  0  0  0  0  0
   -0.1906    0.1931    1.8833 O   0  0  0  0  0  0  0  0  0  0  0  0
   -2.3930    0.6605    1.7722 N   0  0  0  0  0  0  0  0  0  0  0  0
   -3.2451    0.5077    1.2518 H   0  0  0  0  0  0  0  0  0  0  0  0
   -2.4787    1.3954    3.0311 C   0  0  0  0  0  0  0  0  0  0  0  0
   -1.7166    2.1767    3.0539 H   0  0  0  0  0  0  0  0  0  0  0  0
   -3.4649    1.8498    3.1344 H   0  0  0  0  0  0  0  0  0  0  0  0
   -2.3058    0.7133    3.8652 H   0  0  0  0  0  0  0  0  0  0  0  0
  5  6  2  0  0  0  0
  5  7  1  0  0  0  0
  2  3  1  0  0  0  0
  2  4  1  0  0  0  0
  2  5  1  0  0  0  0
  1  2  1  0  0  0  0
 29 30  2  0  0  0  0
 29 31  1  0  0  0  0
 26 27  1  0  0  0  0
 26 28  2  0  0  0  0
 24 25  1  0  0  0  0
 24 26  1  0  0  0  0
 22 23  1  0  0  0  0
 22 24  2  0  0  0  0
 20 21  1  0  0  0  0
 20 22  1  0  0  0  0
 19 20  2  0  0  0  0
 19 28  1  0  0  0  0
 17 18  1  0  0  0  0
 17 19  1  0  0  0  0
 15 16  1  0  0  0  0
 15 17  1  0  0  0  0
 14 15  2  0  0  0  0
 14 28  1  0  0  0  0
 11 12  1  0  0  0  0
 11 13  1  0  0  0  0
 11 14  1  0  0  0  0
  9 10  1  0  0  0  0
  9 11  1  0  0  0  0
  9 29  1  0  0  0  0
  7  8  1  0  0  0  0
  7  9  1  0  0  0  0
 33 34  1  0  0  0  0
 33 35  1  0  0  0  0
 33 36  1  0  0  0  0
 31 32  1  0  0  0  0
 31 33  1  0  0  0  0
M  END
$$$$
default_name
  -OEChem-02102213163D

 36 37  0     1  0  0  0  0  0999 V2000
   -4.0843   -4.0736    1.2944 H   0  0  0  0  0  0  0  0  0  0  0  0
   -4.0342   -3.2816    0.5484 C   0  0  0  0  0  0  0  0  0  0  0  0
   -4.8842   -2.6126    0.6694 H   0  0  0  0  0  0  0  0  0  0  0  0
   -4.0433   -3.7186   -0.4486 H   0  0  0  0  0  0  0  0  0  0  0  0
   -2.7532   -2.5046    0.7444 C   0  0  0  0  0  0  0  0  0  0  0  0
   -1.9803   -2.8096    1.6434 O   0  0  0  0  0  0  0  0  0  0  0  0
   -2.5332   -1.4966   -0.0966 N   0  0  0  0  0  0  0  0  0  0  0  0
   -3.2312   -1.2816   -0.7936 H   0  0  0  0  0  0  0  0  0  0  0  0
   -1.3593   -0.6196   -0.0536 C   0  0  1  0  0  0  0  0  0  0  0  0
   -0.4622   -1.2317   -0.1545 H   0  0  0  0  0  0  0  0  0  0  0  0
   -1.4074    0.3593   -1.2373 C   0  0  0  0  0  0  0  0  0  0  0  0
   -2.3056    0.9732   -1.1496 H   0  0  0  0  0  0  0  0  0  0  0  0
   -0.5449    1.0249   -1.1727 H   0  0  0  0  0  0  0  0  0  0  0  0
   -1.4135   -0.2800   -2.5927 C   0  0  0  0  0  0  0  0  0  0  0  0
   -2.3505   -1.1391   -3.0530 C   0  0  0  0  0  0  0  0  0  0  0  0
   -3.2057   -1.4836   -2.4819 H   0  0  0  0  0  0  0  0  0  0  0  0
   -2.0599   -1.4877   -4.3574 N   0  0  0  0  0  0  0  0  0  0  0  0
   -2.6232   -2.1238   -4.9026 H   0  0  0  0  0  0  0  0  0  0  0  0
   -0.9229   -0.8535   -4.8110 C   0  0  0  0  0  0  0  0  0  0  0  0
   -0.2507   -0.8561   -6.0416 C   0  0  0  0  0  0  0  0  0  0  0  0
   -0.6187   -1.4502   -6.8652 H   0  0  0  0  0  0  0  0  0  0  0  0
    0.9095   -0.0766   -6.1876 C   0  0  0  0  0  0  0  0  0  0  0  0
    1.4418   -0.0670   -7.1291 H   0  0  0  0  0  0  0  0  0  0  0  0
    1.3818    0.6869   -5.1044 C   0  0  0  0  0  0  0  0  0  0  0  0
    2.2794    1.2788   -5.2184 H   0  0  0  0  0  0  0  0  0  0  0  0
    0.6991    0.6805   -3.8714 C   0  0  0  0  0  0  0  0  0  0  0  0
    1.0802    1.2611   -3.0433 H   0  0  0  0  0  0  0  0  0  0  0  0
   -0.4724   -0.0871   -3.6947 C   0  0  0  0  0  0  0  0  0  0  0  0
   -1.2663    0.1182    1.2910 C   0  0  0  0  0  0  0  0  0  0  0  0
   -0.1906    0.1931    1.8833 O   0  0  0  0  0  0  0  0  0  0  0  0
   -2.3930    0.6605    1.7722 N   0  0  0  0  0  0  0  0  0  0  0  0
   -3.2451    0.5077    1.2518 H   0  0  0  0  0  0  0  0  0  0  0  0
   -2.4787    1.3954    3.0311 C   0  0  0  0  0  0  0  0  0  0  0  0
   -1.7166    2.1767    3.0539 H   0  0  0  0  0  0  0  0  0  0  0  0
   -3.4649    1.8498    3.1344 H   0  0  0  0  0  0  0  0  0  0  0  0
   -2.3058    0.7133    3.8652 H   0  0  0  0  0  0  0  0  0  0  0  0
  5  6  2  0  0  0  0
  5  7  1  0  0  0  0
  2  3  1  0  0  0  0
  2  4  1  0  0  0  0
  2  5  1  0  0  0  0
  1  2  1  0  0  0  0
 29 30  2  0  0  0  0
 29 31  1  0  0  0  0
 26 27  1  0  0  0  0
 26 28  2  0  0  0  0
 24 25  1  0  0  0  0
 24 26  1  0  0  0  0
 22 23  1  0  0  0  0
 22 24  2  0  0  0  0
 20 21  1  0  0  0  0
 20 22  1  0  0  0  0
 19 20  2  0  0  0  0
 19 28  1  0  0  0  0
 17 18  1  0  0  0  0
 17 19  1  0  0  0  0
 15 16  1  0  0  0  0
 15 17  1  0  0  0  0
 14 15  2  0  0  0  0
 14 28  1  0  0  0  0
 11 12  1  0  0  0  0
 11 13  1  0  0  0  0
 11 14  1  0  0  0  0
  9 10  1  0  0  0  0
  9 11  1  0  0  0  0
  9 29  1  0  0  0  0
  7  8  1  0  0  0  0
  7  9  1  0  0  0  0
 33 34  1  0  0  0  0
 33 35  1  0  0  0  0
 33 36  1  0  0  0  0
 31 32  1  0  0  0  0
 31 33  1  0  0  0  0
M  END
$$$$
default_name
  -OEChem-02102213163D

 36 37  0     1  0  0  0  0  0999 V2000
   -4.0843   -4.0736    1.2944 H   0  0  0  0  0  0  0  0  0  0  0  0
   -4.0342   -3.2816    0.5484 C   0  0  0  0  0  0  0  0  0  0  0  0
   -4.8842   -2.6126    0.6694 H   0  0  0  0  0  0  0  0  0  0  0  0
   -4.0433   -3.7186   -0.4486 H   0  0  0  0  0  0  0  0  0  0  0  0
   -2.7532   -2.5046    0.7444 C   0  0  0  0  0  0  0  0  0  0  0  0
   -1.9803   -2.8096    1.6434 O   0  0  0  0  0  0  0  0  0  0  0  0
   -2.5332   -1.4966   -0.0966 N   0  0  0  0  0  0  0  0  0  0  0  0
   -3.2312   -1.2816   -0.7936 H   0  0  0  0  0  0  0  0  0  0  0  0
   -1.3593   -0.6196   -0.0536 C   0  0  1  0  0  0  0  0  0  0  0  0
   -0.4622   -1.2317   -0.1545 H   0  0  0  0  0  0  0  0  0  0  0  0
   -1.4074    0.3593   -1.2373 C   0  0  0  0  0  0  0  0  0  0  0  0
   -2.3056    0.9732   -1.1496 H   0  0  0  0  0  0  0  0  0  0  0  0
   -0.5449    1.0249   -1.1727 H   0  0  0  0  0  0  0  0  0  0  0  0
   -1.4135   -0.2800   -2.5927 C   0  0  0  0  0  0  0  0  0  0  0  0
   -2.4689   -0.9024   -3.1641 C   0  0  0  0  0  0  0  0  0  0  0  0
   -3.4386   -1.0291   -2.6952 H   0  0  0  0  0  0  0  0  0  0  0  0
   -2.1260   -1.3278   -4.4325 N   0  0  0  0  0  0  0  0  0  0  0  0
   -2.7589   -1.8221   -5.0443 H   0  0  0  0  0  0  0  0  0  0  0  0
   -0.8293   -0.9838   -4.7500 C   0  0  0  0  0  0  0  0  0  0  0  0
   -0.0448   -1.1612   -5.8987 C   0  0  0  0  0  0  0  0  0  0  0  0
   -0.4486   -1.6643   -6.7650 H   0  0  0  0  0  0  0  0  0  0  0  0
    1.2745   -0.6769   -5.9060 C   0  0  0  0  0  0  0  0  0  0  0  0
    1.8947   -0.8056   -6.7827 H   0  0  0  0  0  0  0  0  0  0  0  0
    1.7900   -0.0299   -4.7681 C   0  0  0  0  0  0  0  0  0  0  0  0
    2.8082    0.3338   -4.7751 H   0  0  0  0  0  0  0  0  0  0  0  0
    0.9930    0.1411   -3.6183 C   0  0  0  0  0  0  0  0  0  0  0  0
    1.4057    0.6281   -2.7462 H   0  0  0  0  0  0  0  0  0  0  0  0
   -0.3378   -0.3284   -3.5815 C   0  0  0  0  0  0  0  0  0  0  0  0
   -1.2663    0.1182    1.2910 C   0  0  0  0  0  0  0  0  0  0  0  0
   -0.1906    0.1931    1.8833 O   0  0  0  0  0  0  0  0  0  0  0  0
   -2.3930    0.6605    1.7722 N   0  0  0  0  0  0  0  0  0  0  0  0
   -3.2451    0.5077    1.2518 H   0  0  0  0  0  0  0  0  0  0  0  0
   -2.4787    1.3954    3.0311 C   0  0  0  0  0  0  0  0  0  0  0  0
   -1.7166    2.1767    3.0539 H   0  0  0  0  0  0  0  0  0  0  0  0
   -3.4649    1.8498    3.1344 H   0  0  0  0  0  0  0  0  0  0  0  0
   -2.3058    0.7133    3.8652 H   0  0  0  0  0  0  0  0  0  0  0  0
  5  6  2  0  0  0  0
  5  7  1  0  0  0  0
  2  3  1  0  0  0  0
  2  4  1  0  0  0  0
  2  5  1  0  0  0  0
  1  2  1  0  0  0  0
 29 30  2  0  0  0  0
 29 31  1  0  0  0  0
 26 27  1  0  0  0  0
 26 28  2  0  0  0  0
 24 25  1  0  0  0  0
 24 26  1  0  0  0  0
 22 23  1  0  0  0  0
 22 24  2  0  0  0  0
 20 21  1  0  0  0  0
 20 22  1  0  0  0  0
 19 20  2  0  0  0  0
 19 28  1  0  0  0  0
 17 18  1  0  0  0  0
 17 19  1  0  0  0  0
 15 16  1  0  0  0  0
 15 17  1  0  0  0  0
 14 15  2  0  0  0  0
 14 28  1  0  0  0  0
 11 12  1  0  0  0  0
 11 13  1  0  0  0  0
 11 14  1  0  0  0  0
  9 10  1  0  0  0  0
  9 11  1  0  0  0  0
  9 29  1  0  0  0  0
  7  8  1  0  0  0  0
  7  9  1  0  0  0  0
 33 34  1  0  0  0  0
 33 35  1  0  0  0  0
 33 36  1  0  0  0  0
 31 32  1  0  0  0  0
 31 33  1  0  0  0  0
M  END
$$$$
default_name
  -OEChem-02102213163D

 36 37  0     1  0  0  0  0  0999 V2000
   -4.0843   -4.0736    1.2944 H   0  0  0  0  0  0  0  0  0  0  0  0
   -4.0342   -3.2816    0.5484 C   0  0  0  0  0  0  0  0  0  0  0  0
   -4.8842   -2.6126    0.6694 H   0  0  0  0  0  0  0  0  0  0  0  0
   -4.0433   -3.7186   -0.4486 H   0  0  0  0  0  0  0  0  0  0  0  0
   -2.7532   -2.5046    0.7444 C   0  0  0  0  0  0  0  0  0  0  0  0
   -1.9803   -2.8096    1.6434 O   0  0  0  0  0  0  0  0  0  0  0  0
   -2.5332   -1.4966   -0.0966 N   0  0  0  0  0  0  0  0  0  0  0  0
   -3.2312   -1.2816   -0.7936 H   0  0  0  0  0  0  0  0  0  0  0  0
   -1.3593   -0.6196   -0.0536 C   0  0  1  0  0  0  0  0  0  0  0  0
   -0.4622   -1.2317   -0.1545 H   0  0  0  0  0  0  0  0  0  0  0  0
   -1.4074    0.3593   -1.2373 C   0  0  0  0  0  0  0  0  0  0  0  0
   -2.3056    0.9732   -1.1496 H   0  0  0  0  0  0  0  0  0  0  0  0
   -0.5449    1.0249   -1.1727 H   0  0  0  0  0  0  0  0  0  0  0  0
   -1.4135   -0.2800   -2.5927 C   0  0  0  0  0  0  0  0  0  0  0  0
   -2.5157   -0.6462   -3.2847 C   0  0  0  0  0  0  0  0  0  0  0  0
   -3.5337   -0.5357   -2.9275 H   0  0  0  0  0  0  0  0  0  0  0  0
   -2.1442   -1.1580   -4.5125 N   0  0  0  0  0  0  0  0  0  0  0  0
   -2.8038   -1.4991   -5.1964 H   0  0  0  0  0  0  0  0  0  0  0  0
   -0.7760   -1.1316   -4.6805 C   0  0  0  0  0  0  0  0  0  0  0  0
    0.0669   -1.5039   -5.7375 C   0  0  0  0  0  0  0  0  0  0  0  0
   -0.3454   -1.9108   -6.6492 H   0  0  0  0  0  0  0  0  0  0  0  0
    1.4554   -1.3420   -5.5931 C   0  0  0  0  0  0  0  0  0  0  0  0
    2.1211   -1.6247   -6.3974 H   0  0  0  0  0  0  0  0  0  0  0  0
    1.9793   -0.8174   -4.3974 C   0  0  0  0  0  0  0  0  0  0  0  0
    3.0488   -0.7023   -4.2874 H   0  0  0  0  0  0  0  0  0  0  0  0
    1.1228   -0.4484   -3.3408 C   0  0  0  0  0  0  0  0  0  0  0  0
    1.5392   -0.0591   -2.4227 H   0  0  0  0  0  0  0  0  0  0  0  0
   -0.2767   -0.5928   -3.4570 C   0  0  0  0  0  0  0  0  0  0  0  0
   -1.2663    0.1182    1.2910 C   0  0  0  0  0  0  0  0  0  0  0  0
   -0.1906    0.1931    1.8833 O   0  0  0  0  0  0  0  0  0  0  0  0
   -2.3930    0.6605    1.7722 N   0  0  0  0  0  0  0  0  0  0  0  0
   -3.2451    0.5077    1.2518 H   0  0  0  0  0  0  0  0  0  0  0  0
   -2.4787    1.3954    3.0311 C   0  0  0  0  0  0  0  0  0  0  0  0
   -1.7166    2.1767    3.0539 H   0  0  0  0  0  0  0  0  0  0  0  0
   -3.4649    1.8498    3.1344 H   0  0  0  0  0  0  0  0  0  0  0  0
   -2.3058    0.7133    3.8652 H   0  0  0  0  0  0  0  0  0  0  0  0
  5  6  2  0  0  0  0
  5  7  1  0  0  0  0
  2  3  1  0  0  0  0
  2  4  1  0  0  0  0
  2  5  1  0  0  0  0
  1  2  1  0  0  0  0
 29 30  2  0  0  0  0
 29 31  1  0  0  0  0
 26 27  1  0  0  0  0
 26 28  2  0  0  0  0
 24 25  1  0  0  0  0
 24 26  1  0  0  0  0
 22 23  1  0  0  0  0
 22 24  2  0  0  0  0
 20 21  1  0  0  0  0
 20 22  1  0  0  0  0
 19 20  2  0  0  0  0
 19 28  1  0  0  0  0
 17 18  1  0  0  0  0
 17 19  1  0  0  0  0
 15 16  1  0  0  0  0
 15 17  1  0  0  0  0
 14 15  2  0  0  0  0
 14 28  1  0  0  0  0
 11 12  1  0  0  0  0
 11 13  1  0  0  0  0
 11 14  1  0  0  0  0
  9 10  1  0  0  0  0
  9 11  1  0  0  0  0
  9 29  1  0  0  0  0
  7  8  1  0  0  0  0
  7  9  1  0  0  0  0
 33 34  1  0  0  0  0
 33 35  1  0  0  0  0
 33 36  1  0  0  0  0
 31 32  1  0  0  0  0
 31 33  1  0  0  0  0
M  END
$$$$
default_name
  -OEChem-02102213163D

 36 37  0     1  0  0  0  0  0999 V2000
   -4.0843   -4.0736    1.2944 H   0  0  0  0  0  0  0  0  0  0  0  0
   -4.0342   -3.2816    0.5484 C   0  0  0  0  0  0  0  0  0  0  0  0
   -4.8842   -2.6126    0.6694 H   0  0  0  0  0  0  0  0  0  0  0  0
   -4.0433   -3.7186   -0.4486 H   0  0  0  0  0  0  0  0  0  0  0  0
   -2.7532   -2.5046    0.7444 C   0  0  0  0  0  0  0  0  0  0  0  0
   -1.9803   -2.8096    1.6434 O   0  0  0  0  0  0  0  0  0  0  0  0
   -2.5332   -1.4966   -0.0966 N   0  0  0  0  0  0  0  0  0  0  0  0
   -3.2312   -1.2816   -0.7936 H   0  0  0  0  0  0  0  0  0  0  0  0
   -1.3593   -0.6196   -0.0536 C   0  0  1  0  0  0  0  0  0  0  0  0
   -0.4622   -1.2317   -0.1545 H   0  0  0  0  0  0  0  0  0  0  0  0
   -1.4074    0.3593   -1.2373 C   0  0  0  0  0  0  0  0  0  0  0  0
   -2.3056    0.9732   -1.1496 H   0  0  0  0  0  0  0  0  0  0  0  0
   -0.5449    1.0249   -1.1727 H   0  0  0  0  0  0  0  0  0  0  0  0
   -1.4135   -0.2800   -2.5927 C   0  0  0  0  0  0  0  0  0  0  0  0
   -2.4875   -0.3879   -3.4067 C   0  0  0  0  0  0  0  0  0  0  0  0
   -3.4844   -0.0372   -3.1629 H   0  0  0  0  0  0  0  0  0  0  0  0
   -2.1131   -0.9898   -4.5920 N   0  0  0  0  0  0  0  0  0  0  0  0
   -2.7547   -1.1768   -5.3487 H   0  0  0  0  0  0  0  0  0  0  0  0
   -0.7669   -1.2867   -4.6074 C   0  0  0  0  0  0  0  0  0  0  0  0
    0.0767   -1.8610   -5.5691 C   0  0  0  0  0  0  0  0  0  0  0  0
   -0.3162   -2.1729   -6.5256 H   0  0  0  0  0  0  0  0  0  0  0  0
    1.4399   -2.0264   -5.2702 C   0  0  0  0  0  0  0  0  0  0  0  0
    2.1054   -2.4684   -5.9993 H   0  0  0  0  0  0  0  0  0  0  0  0
    1.9369   -1.6221   -4.0177 C   0  0  0  0  0  0  0  0  0  0  0  0
    2.9848   -1.7589   -3.7887 H   0  0  0  0  0  0  0  0  0  0  0  0
    1.0794   -1.0478   -3.0579 C   0  0  0  0  0  0  0  0  0  0  0  0
    1.4716   -0.7539   -2.0946 H   0  0  0  0  0  0  0  0  0  0  0  0
   -0.2934   -0.8624   -3.3298 C   0  0  0  0  0  0  0  0  0  0  0  0
   -1.2663    0.1182    1.2910 C   0  0  0  0  0  0  0  0  0  0  0  0
   -0.1906    0.1931    1.8833 O   0  0  0  0  0  0  0  0  0  0  0  0
   -2.3930    0.6605    1.7722 N   0  0  0  0  0  0  0  0  0  0  0  0
   -3.2451    0.5077    1.2518 H   0  0  0  0  0  0  0  0  0  0  0  0
   -2.4787    1.3954    3.0311 C   0  0  0  0  0  0  0  0  0  0  0  0
   -1.7166    2.1767    3.0539 H   0  0  0  0  0  0  0  0  0  0  0  0
   -3.4649    1.8498    3.1344 H   0  0  0  0  0  0  0  0  0  0  0  0
   -2.3058    0.7133    3.8652 H   0  0  0  0  0  0  0  0  0  0  0  0
  5  6  2  0  0  0  0
  5  7  1  0  0  0  0
  2  3  1  0  0  0  0
  2  4  1  0  0  0  0
  2  5  1  0  0  0  0
  1  2  1  0  0  0  0
 29 30  2  0  0  0  0
 29 31  1  0  0  0  0
 26 27  1  0  0  0  0
 26 28  2  0  0  0  0
 24 25  1  0  0  0  0
 24 26  1  0  0  0  0
 22 23  1  0  0  0  0
 22 24  2  0  0  0  0
 20 21  1  0  0  0  0
 20 22  1  0  0  0  0
 19 20  2  0  0  0  0
 19 28  1  0  0  0  0
 17 18  1  0  0  0  0
 17 19  1  0  0  0  0
 15 16  1  0  0  0  0
 15 17  1  0  0  0  0
 14 15  2  0  0  0  0
 14 28  1  0  0  0  0
 11 12  1  0  0  0  0
 11 13  1  0  0  0  0
 11 14  1  0  0  0  0
  9 10  1  0  0  0  0
  9 11  1  0  0  0  0
  9 29  1  0  0  0  0
  7  8  1  0  0  0  0
  7  9  1  0  0  0  0
 33 34  1  0  0  0  0
 33 35  1  0  0  0  0
 33 36  1  0  0  0  0
 31 32  1  0  0  0  0
 31 33  1  0  0  0  0
M  END
$$$$
default_name
  -OEChem-02102213163D

 36 37  0     1  0  0  0  0  0999 V2000
   -4.0843   -4.0736    1.2944 H   0  0  0  0  0  0  0  0  0  0  0  0
   -4.0342   -3.2816    0.5484 C   0  0  0  0  0  0  0  0  0  0  0  0
   -4.8842   -2.6126    0.6694 H   0  0  0  0  0  0  0  0  0  0  0  0
   -4.0433   -3.7186   -0.4486 H   0  0  0  0  0  0  0  0  0  0  0  0
   -2.7532   -2.5046    0.7444 C   0  0  0  0  0  0  0  0  0  0  0  0
   -1.9803   -2.8096    1.6434 O   0  0  0  0  0  0  0  0  0  0  0  0
   -2.5332   -1.4966   -0.0966 N   0  0  0  0  0  0  0  0  0  0  0  0
   -3.2312   -1.2816   -0.7936 H   0  0  0  0  0  0  0  0  0  0  0  0
   -1.3593   -0.6196   -0.0536 C   0  0  1  0  0  0  0  0  0  0  0  0
   -0.4622   -1.2317   -0.1545 H   0  0  0  0  0  0  0  0  0  0  0  0
   -1.4074    0.3593   -1.2373 C   0  0  0  0  0  0  0  0  0  0  0  0
   -2.3056    0.9732   -1.1496 H   0  0  0  0  0  0  0  0  0  0  0  0
   -0.5449    1.0249   -1.1727 H   0  0  0  0  0  0  0  0  0  0  0  0
   -1.4135   -0.2800   -2.5927 C   0  0  0  0  0  0  0  0  0  0  0  0
   -2.3864   -0.1451   -3.5217 C   0  0  0  0  0  0  0  0  0  0  0  0
   -3.2941    0.4326   -3.3853 H   0  0  0  0  0  0  0  0  0  0  0  0
   -2.0350   -0.8347   -4.6655 N   0  0  0  0  0  0  0  0  0  0  0  0
   -2.6150   -0.8771   -5.4907 H   0  0  0  0  0  0  0  0  0  0  0  0
   -0.8024   -1.4386   -4.5356 C   0  0  0  0  0  0  0  0  0  0  0  0
   -0.0159   -2.2079   -5.4050 C   0  0  0  0  0  0  0  0  0  0  0  0
   -0.3630   -2.4329   -6.4028 H   0  0  0  0  0  0  0  0  0  0  0  0
    1.2291   -2.6835   -4.9593 C   0  0  0  0  0  0  0  0  0  0  0  0
    1.8489   -3.2794   -5.6156 H   0  0  0  0  0  0  0  0  0  0  0  0
    1.6657   -2.3890   -3.6547 C   0  0  0  0  0  0  0  0  0  0  0  0
    2.6205   -2.7639   -3.3130 H   0  0  0  0  0  0  0  0  0  0  0  0
    0.8660   -1.6165   -2.7887 C   0  0  0  0  0  0  0  0  0  0  0  0
    1.2074   -1.4088   -1.7845 H   0  0  0  0  0  0  0  0  0  0  0  0
   -0.3866   -1.1188   -3.2084 C   0  0  0  0  0  0  0  0  0  0  0  0
   -1.2663    0.1182    1.2910 C   0  0  0  0  0  0  0  0  0  0  0  0
   -0.1906    0.1931    1.8833 O   0  0  0  0  0  0  0  0  0  0  0  0
   -2.3930    0.6605    1.7722 N   0  0  0  0  0  0  0  0  0  0  0  0
   -3.2451    0.5077    1.2518 H   0  0  0  0  0  0  0  0  0  0  0  0
   -2.4787    1.3954    3.0311 C   0  0  0  0  0  0  0  0  0  0  0  0
   -1.7166    2.1767    3.0539 H   0  0  0  0  0  0  0  0  0  0  0  0
   -3.4649    1.8498    3.1344 H   0  0  0  0  0  0  0  0  0  0  0  0
   -2.3058    0.7133    3.8652 H   0  0  0  0  0  0  0  0  0  0  0  0
  5  6  2  0  0  0  0
  5  7  1  0  0  0  0
  2  3  1  0  0  0  0
  2  4  1  0  0  0  0
  2  5  1  0  0  0  0
  1  2  1  0  0  0  0
 29 30  2  0  0  0  0
 29 31  1  0  0  0  0
 26 27  1  0  0  0  0
 26 28  2  0  0  0  0
 24 25  1  0  0  0  0
 24 26  1  0  0  0  0
 22 23  1  0  0  0  0
 22 24  2  0  0  0  0
 20 21  1  0  0  0  0
 20 22  1  0  0  0  0
 19 20  2  0  0  0  0
 19 28  1  0  0  0  0
 17 18  1  0  0  0  0
 17 19  1  0  0  0  0
 15 16  1  0  0  0  0
 15 17  1  0  0  0  0
 14 15  2  0  0  0  0
 14 28  1  0  0  0  0
 11 12  1  0  0  0  0
 11 13  1  0  0  0  0
 11 14  1  0  0  0  0
  9 10  1  0  0  0  0
  9 11  1  0  0  0  0
  9 29  1  0  0  0  0
  7  8  1  0  0  0  0
  7  9  1  0  0  0  0
 33 34  1  0  0  0  0
 33 35  1  0  0  0  0
 33 36  1  0  0  0  0
 31 32  1  0  0  0  0
 31 33  1  0  0  0  0
M  END
$$$$
default_name
  -OEChem-02102213163D

 36 37  0     1  0  0  0  0  0999 V2000
   -4.0843   -4.0736    1.2944 H   0  0  0  0  0  0  0  0  0  0  0  0
   -4.0342   -3.2816    0.5484 C   0  0  0  0  0  0  0  0  0  0  0  0
   -4.8842   -2.6126    0.6694 H   0  0  0  0  0  0  0  0  0  0  0  0
   -4.0433   -3.7186   -0.4486 H   0  0  0  0  0  0  0  0  0  0  0  0
   -2.7532   -2.5046    0.7444 C   0  0  0  0  0  0  0  0  0  0  0  0
   -1.9803   -2.8096    1.6434 O   0  0  0  0  0  0  0  0  0  0  0  0
   -2.5332   -1.4966   -0.0966 N   0  0  0  0  0  0  0  0  0  0  0  0
   -3.2312   -1.2816   -0.7936 H   0  0  0  0  0  0  0  0  0  0  0  0
   -1.3593   -0.6196   -0.0536 C   0  0  1  0  0  0  0  0  0  0  0  0
   -0.4622   -1.2317   -0.1545 H   0  0  0  0  0  0  0  0  0  0  0  0
   -1.4074    0.3593   -1.2373 C   0  0  0  0  0  0  0  0  0  0  0  0
   -2.3056    0.9732   -1.1496 H   0  0  0  0  0  0  0  0  0  0  0  0
   -0.5449    1.0249   -1.1727 H   0  0  0  0  0  0  0  0  0  0  0  0
   -1.4135   -0.2800   -2.5927 C   0  0  0  0  0  0  0  0  0  0  0  0
   -2.2192    0.0656   -3.6218 C   0  0  0  0  0  0  0  0  0  0  0  0
   -2.9757    0.8415   -3.5797 H   0  0  0  0  0  0  0  0  0  0  0  0
   -1.9150   -0.7033   -4.7280 N   0  0  0  0  0  0  0  0  0  0  0  0
   -2.3942   -0.6205   -5.6128 H   0  0  0  0  0  0  0  0  0  0  0  0
   -0.8802   -1.5769   -4.4700 C   0  0  0  0  0  0  0  0  0  0  0  0
   -0.2048   -2.5212   -5.2564 C   0  0  0  0  0  0  0  0  0  0  0  0
   -0.4827   -2.6728   -6.2891 H   0  0  0  0  0  0  0  0  0  0  0  0
    0.8373   -3.2686   -4.6815 C   0  0  0  0  0  0  0  0  0  0  0  0
    1.3688   -4.0022   -5.2725 H   0  0  0  0  0  0  0  0  0  0  0  0
    1.1841   -3.0659   -3.3332 C   0  0  0  0  0  0  0  0  0  0  0  0
    1.9809   -3.6490   -2.8926 H   0  0  0  0  0  0  0  0  0  0  0  0
    0.4971   -2.1154   -2.5516 C   0  0  0  0  0  0  0  0  0  0  0  0
    0.7647   -1.9792   -1.5134 H   0  0  0  0  0  0  0  0  0  0  0  0
   -0.5501   -1.3445   -3.1012 C   0  0  0  0  0  0  0  0  0  0  0  0
   -1.2663    0.1182    1.2910 C   0  0  0  0  0  0  0  0  0  0  0  0
   -0.1906    0.1931    1.8833 O   0  0  0  0  0  0  0  0  0  0  0  0
   -2.3930    0.6605    1.7722 N   0  0  0  0  0  0  0  0  0  0  0  0
   -3.2451    0.5077    1.2518 H   0  0  0  0  0  0  0  0  0  0  0  0
   -2.4787    1.3954    3.0311 C   0  0  0  0  0  0  0  0  0  0  0  0
   -1.7166    2.1767    3.0539 H   0  0  0  0  0  0  0  0  0  0  0  0
   -3.4649    1.8498    3.1344 H   0  0  0  0  0  0  0  0  0  0  0  0
   -2.3058    0.7133    3.8652 H   0  0  0  0  0  0  0  0  0  0  0  0
  5  6  2  0  0  0  0
  5  7  1  0  0  0  0
  2  3  1  0  0  0  0
  2  4  1  0  0  0  0
  2  5  1  0  0  0  0
  1  2  1  0  0  0  0
 29 30  2  0  0  0  0
 29 31  1  0  0  0  0
 26 27  1  0  0  0  0
 26 28  2  0  0  0  0
 24 25  1  0  0  0  0
 24 26  1  0  0  0  0
 22 23  1  0  0  0  0
 22 24  2  0  0  0  0
 20 21  1  0  0  0  0
 20 22  1  0  0  0  0
 19 20  2  0  0  0  0
 19 28  1  0  0  0  0
 17 18  1  0  0  0  0
 17 19  1  0  0  0  0
 15 16  1  0  0  0  0
 15 17  1  0  0  0  0
 14 15  2  0  0  0  0
 14 28  1  0  0  0  0
 11 12  1  0  0  0  0
 11 13  1  0  0  0  0
 11 14  1  0  0  0  0
  9 10  1  0  0  0  0
  9 11  1  0  0  0  0
  9 29  1  0  0  0  0
  7  8  1  0  0  0  0
  7  9  1  0  0  0  0
 33 34  1  0  0  0  0
 33 35  1  0  0  0  0
 33 36  1  0  0  0  0
 31 32  1  0  0  0  0
 31 33  1  0  0  0  0
M  END
$$$$
default_name
  -OEChem-02102213163D

 36 37  0     1  0  0  0  0  0999 V2000
   -4.0843   -4.0736    1.2944 H   0  0  0  0  0  0  0  0  0  0  0  0
   -4.0342   -3.2816    0.5484 C   0  0  0  0  0  0  0  0  0  0  0  0
   -4.8842   -2.6126    0.6694 H   0  0  0  0  0  0  0  0  0  0  0  0
   -4.0433   -3.7186   -0.4486 H   0  0  0  0  0  0  0  0  0  0  0  0
   -2.7532   -2.5046    0.7444 C   0  0  0  0  0  0  0  0  0  0  0  0
   -1.9803   -2.8096    1.6434 O   0  0  0  0  0  0  0  0  0  0  0  0
   -2.5332   -1.4966   -0.0966 N   0  0  0  0  0  0  0  0  0  0  0  0
   -3.2312   -1.2816   -0.7936 H   0  0  0  0  0  0  0  0  0  0  0  0
   -1.3593   -0.6196   -0.0536 C   0  0  1  0  0  0  0  0  0  0  0  0
   -0.4622   -1.2317   -0.1545 H   0  0  0  0  0  0  0  0  0  0  0  0
   -1.4074    0.3593   -1.2373 C   0  0  0  0  0  0  0  0  0  0  0  0
   -2.3056    0.9732   -1.1496 H   0  0  0  0  0  0  0  0  0  0  0  0
   -0.5449    1.0249   -1.1727 H   0  0  0  0  0  0  0  0  0  0  0  0
   -1.4135   -0.2800   -2.5927 C   0  0  0  0  0  0  0  0  0  0  0  0
   -1.9973    0.2299   -3.7003 C   0  0  0  0  0  0  0  0  0  0  0  0
   -2.5510    1.1619   -3.7327 H   0  0  0  0  0  0  0  0  0  0  0  0
   -1.7616   -0.6045   -4.7754 N   0  0  0  0  0  0  0  0  0  0  0  0
   -2.1074   -0.4244   -5.7066 H   0  0  0  0  0  0  0  0  0  0  0  0
   -0.9950   -1.6923   -4.4150 C   0  0  0  0  0  0  0  0  0  0  0  0
   -0.4769   -2.7795   -5.1334 C   0  0  0  0  0  0  0  0  0  0  0  0
   -0.6669   -2.8765   -6.1922 H   0  0  0  0  0  0  0  0  0  0  0  0
    0.2912   -3.7417   -4.4559 C   0  0  0  0  0  0  0  0  0  0  0  0
    0.6981   -4.5876   -4.9933 H   0  0  0  0  0  0  0  0  0  0  0  0
    0.5250   -3.6067   -3.0751 C   0  0  0  0  0  0  0  0  0  0  0  0
    1.1096   -4.3537   -2.5562 H   0  0  0  0  0  0  0  0  0  0  0  0
   -0.0023   -2.5108   -2.3629 C   0  0  0  0  0  0  0  0  0  0  0  0
    0.1736   -2.4262   -1.2999 H   0  0  0  0  0  0  0  0  0  0  0  0
   -0.7727   -1.5241   -3.0155 C   0  0  0  0  0  0  0  0  0  0  0  0
   -1.2663    0.1182    1.2910 C   0  0  0  0  0  0  0  0  0  0  0  0
   -0.1906    0.1931    1.8833 O   0  0  0  0  0  0  0  0  0  0  0  0
   -2.3930    0.6605    1.7722 N   0  0  0  0  0  0  0  0  0  0  0  0
   -3.2451    0.5077    1.2518 H   0  0  0  0  0  0  0  0  0  0  0  0
   -2.4787    1.3954    3.0311 C   0  0  0  0  0  0  0  0  0  0  0  0
   -1.7166    2.1767    3.0539 H   0  0  0  0  0  0  0  0  0  0  0  0
   -3.4649    1.8498    3.1344 H   0  0  0  0  0  0  0  0  0  0  0  0
   -2.3058    0.7133    3.8652 H   0  0  0  0  0  0  0  0  0  0  0  0
  5  6  2  0  0  0  0
  5  7  1  0  0  0  0
  2  3  1  0  0  0  0
  2  4  1  0  0  0  0
  2  5  1  0  0  0  0
  1  2  1  0  0  0  0
 29 30  2  0  0  0  0
 29 31  1  0  0  0  0
 26 27  1  0  0  0  0
 26 28  2  0  0  0  0
 24 25  1  0  0  0  0
 24 26  1  0  0  0  0
 22 23  1  0  0  0  0
 22 24  2  0  0  0  0
 20 21  1  0  0  0  0
 20 22  1  0  0  0  0
 19 20  2  0  0  0  0
 19 28  1  0  0  0  0
 17 18  1  0  0  0  0
 17 19  1  0  0  0  0
 15 16  1  0  0  0  0
 15 17  1  0  0  0  0
 14 15  2  0  0  0  0
 14 28  1  0  0  0  0
 11 12  1  0  0  0  0
 11 13  1  0  0  0  0
 11 14  1  0  0  0  0
  9 10  1  0  0  0  0
  9 11  1  0  0  0  0
  9 29  1  0  0  0  0
  7  8  1  0  0  0  0
  7  9  1  0  0  0  0
 33 34  1  0  0  0  0
 33 35  1  0  0  0  0
 33 36  1  0  0  0  0
 31 32  1  0  0  0  0
 31 33  1  0  0  0  0
M  END
$$$$
default_name
  -OEChem-02102213163D

 36 37  0     1  0  0  0  0  0999 V2000
   -4.0843   -4.0736    1.2944 H   0  0  0  0  0  0  0  0  0  0  0  0
   -4.0342   -3.2816    0.5484 C   0  0  0  0  0  0  0  0  0  0  0  0
   -4.8842   -2.6126    0.6694 H   0  0  0  0  0  0  0  0  0  0  0  0
   -4.0433   -3.7186   -0.4486 H   0  0  0  0  0  0  0  0  0  0  0  0
   -2.7532   -2.5046    0.7444 C   0  0  0  0  0  0  0  0  0  0  0  0
   -1.9803   -2.8096    1.6434 O   0  0  0  0  0  0  0  0  0  0  0  0
   -2.5332   -1.4966   -0.0966 N   0  0  0  0  0  0  0  0  0  0  0  0
   -3.2312   -1.2816   -0.7936 H   0  0  0  0  0  0  0  0  0  0  0  0
   -1.3593   -0.6196   -0.0536 C   0  0  1  0  0  0  0  0  0  0  0  0
   -0.4622   -1.2317   -0.1545 H   0  0  0  0  0  0  0  0  0  0  0  0
   -1.4074    0.3593   -1.2373 C   0  0  0  0  0  0  0  0  0  0  0  0
   -2.3056    0.9732   -1.1496 H   0  0  0  0  0  0  0  0  0  0  0  0
   -0.5449    1.0249   -1.1727 H   0  0  0  0  0  0  0  0  0  0  0  0
   -1.4135   -0.2800   -2.5927 C   0  0  0  0  0  0  0  0  0  0  0  0
   -1.7358    0.3366   -3.7518 C   0  0  0  0  0  0  0  0  0  0  0  0
   -2.0489    1.3717   -3.8340 H   0  0  0  0  0  0  0  0  0  0  0  0
   -1.5849   -0.5450   -4.8042 N   0  0  0  0  0  0  0  0  0  0  0  0
   -1.7741   -0.3022   -5.7657 H   0  0  0  0  0  0  0  0  0  0  0  0
   -1.1389   -1.7767   -4.3745 C   0  0  0  0  0  0  0  0  0  0  0  0
   -0.8139   -2.9651   -5.0443 C   0  0  0  0  0  0  0  0  0  0  0  0
   -0.9033   -3.0300   -6.1187 H   0  0  0  0  0  0  0  0  0  0  0  0
   -0.3719   -4.0707   -4.2977 C   0  0  0  0  0  0  0  0  0  0  0  0
   -0.1177   -4.9958   -4.7970 H   0  0  0  0  0  0  0  0  0  0  0  0
   -0.2668   -3.9745   -2.8980 C   0  0  0  0  0  0  0  0  0  0  0  0
    0.0657   -4.8301   -2.3268 H   0  0  0  0  0  0  0  0  0  0  0  0
   -0.5981   -2.7756   -2.2352 C   0  0  0  0  0  0  0  0  0  0  0  0
   -0.5256   -2.7194   -1.1584 H   0  0  0  0  0  0  0  0  0  0  0  0
   -1.0391   -1.6454   -2.9571 C   0  0  0  0  0  0  0  0  0  0  0  0
   -1.2663    0.1182    1.2910 C   0  0  0  0  0  0  0  0  0  0  0  0
   -0.1906    0.1931    1.8833 O   0  0  0  0  0  0  0  0  0  0  0  0
   -2.3930    0.6605    1.7722 N   0  0  0  0  0  0  0  0  0  0  0  0
   -3.2451    0.5077    1.2518 H   0  0  0  0  0  0  0  0  0  0  0  0
   -2.4787    1.3954    3.0311 C   0  0  0  0  0  0  0  0  0  0  0  0
   -1.7166    2.1767    3.0539 H   0  0  0  0  0  0  0  0  0  0  0  0
   -3.4649    1.8498    3.1344 H   0  0  0  0  0  0  0  0  0  0  0  0
   -2.3058    0.7133    3.8652 H   0  0  0  0  0  0  0  0  0  0  0  0
  5  6  2  0  0  0  0
  5  7  1  0  0  0  0
  2  3  1  0  0  0  0
  2  4  1  0  0  0  0
  2  5  1  0  0  0  0
  1  2  1  0  0  0  0
 29 30  2  0  0  0  0
 29 31  1  0  0  0  0
 26 27  1  0  0  0  0
 26 28  2  0  0  0  0
 24 25  1  0  0  0  0
 24 26  1  0  0  0  0
 22 23  1  0  0  0  0
 22 24  2  0  0  0  0
 20 21  1  0  0  0  0
 20 22  1  0  0  0  0
 19 20  2  0  0  0  0
 19 28  1  0  0  0  0
 17 18  1  0  0  0  0
 17 19  1  0  0  0  0
 15 16  1  0  0  0  0
 15 17  1  0  0  0  0
 14 15  2  0  0  0  0
 14 28  1  0  0  0  0
 11 12  1  0  0  0  0
 11 13  1  0  0  0  0
 11 14  1  0  0  0  0
  9 10  1  0  0  0  0
  9 11  1  0  0  0  0
  9 29  1  0  0  0  0
  7  8  1  0  0  0  0
  7  9  1  0  0  0  0
 33 34  1  0  0  0  0
 33 35  1  0  0  0  0
 33 36  1  0  0  0  0
 31 32  1  0  0  0  0
 31 33  1  0  0  0  0
M  END
$$$$
default_name
  -OEChem-02102213163D

 36 37  0     1  0  0  0  0  0999 V2000
   -4.0843   -4.0736    1.2944 H   0  0  0  0  0  0  0  0  0  0  0  0
   -4.0342   -3.2816    0.5484 C   0  0  0  0  0  0  0  0  0  0  0  0
   -4.8842   -2.6126    0.6694 H   0  0  0  0  0  0  0  0  0  0  0  0
   -4.0433   -3.7186   -0.4486 H   0  0  0  0  0  0  0  0  0  0  0  0
   -2.7532   -2.5046    0.7444 C   0  0  0  0  0  0  0  0  0  0  0  0
   -1.9803   -2.8096    1.6434 O   0  0  0  0  0  0  0  0  0  0  0  0
   -2.5332   -1.4966   -0.0966 N   0  0  0  0  0  0  0  0  0  0  0  0
   -3.2312   -1.2816   -0.7936 H   0  0  0  0  0  0  0  0  0  0  0  0
   -1.3593   -0.6196   -0.0536 C   0  0  1  0  0  0  0  0  0  0  0  0
   -0.4622   -1.2317   -0.1545 H   0  0  0  0  0  0  0  0  0  0  0  0
   -1.4074    0.3593   -1.2373 C   0  0  0  0  0  0  0  0  0  0  0  0
   -2.1385    1.1397   -1.0187 H   0  0  0  0  0  0  0  0  0  0  0  0
   -0.4313    0.8384   -1.3316 H   0  0  0  0  0  0  0  0  0  0  0  0
   -1.7649   -0.2542   -2.5571 C   0  0  0  0  0  0  0  0  0  0  0  0
   -1.8674    0.4089   -3.7307 C   0  0  0  0  0  0  0  0  0  0  0  0
   -1.7197    1.4765   -3.8514 H   0  0  0  0  0  0  0  0  0  0  0  0
   -2.1664   -0.4821   -4.7427 N   0  0  0  0  0  0  0  0  0  0  0  0
   -2.2940   -0.2086   -5.7061 H   0  0  0  0  0  0  0  0  0  0  0  0
   -2.2556   -1.7746   -4.2711 C   0  0  0  0  0  0  0  0  0  0  0  0
   -2.5029   -3.0066   -4.8934 C   0  0  0  0  0  0  0  0  0  0  0  0
   -2.6767   -3.0570   -5.9582 H   0  0  0  0  0  0  0  0  0  0  0  0
   -2.5233   -4.1744   -4.1118 C   0  0  0  0  0  0  0  0  0  0  0  0
   -2.7135   -5.1335   -4.5743 H   0  0  0  0  0  0  0  0  0  0  0  0
   -2.3023   -4.0935   -2.7247 C   0  0  0  0  0  0  0  0  0  0  0  0
   -2.3271   -4.9934   -2.1259 H   0  0  0  0  0  0  0  0  0  0  0  0
   -2.0567   -2.8494   -2.1096 C   0  0  0  0  0  0  0  0  0  0  0  0
   -1.9017   -2.7997   -1.0412 H   0  0  0  0  0  0  0  0  0  0  0  0
   -2.0236   -1.6590   -2.8678 C   0  0  0  0  0  0  0  0  0  0  0  0
   -1.2663    0.1182    1.2910 C   0  0  0  0  0  0  0  0  0  0  0  0
   -0.1906    0.1931    1.8833 O   0  0  0  0  0  0  0  0  0  0  0  0
   -2.3930    0.6605    1.7722 N   0  0  0  0  0  0  0  0  0  0  0  0
   -3.2451    0.5077    1.2518 H   0  0  0  0  0  0  0  0  0  0  0  0
   -2.4787    1.3954    3.0311 C   0  0  0  0  0  0  0  0  0  0  0  0
   -1.7166    2.1767    3.0539 H   0  0  0  0  0  0  0  0  0  0  0  0
   -3.4649    1.8498    3.1344 H   0  0  0  0  0  0  0  0  0  0  0  0
   -2.3058    0.7133    3.8652 H   0  0  0  0  0  0  0  0  0  0  0  0
  5  6  2  0  0  0  0
  5  7  1  0  0  0  0
  2  3  1  0  0  0  0
  2  4  1  0  0  0  0
  2  5  1  0  0  0  0
  1  2  1  0  0  0  0
 29 30  2  0  0  0  0
 29 31  1  0  0  0  0
 26 27  1  0  0  0  0
 26 28  2  0  0  0  0
 24 25  1  0  0  0  0
 24 26  1  0  0  0  0
 22 23  1  0  0  0  0
 22 24  2  0  0  0  0
 20 21  1  0  0  0  0
 20 22  1  0  0  0  0
 19 20  2  0  0  0  0
 19 28  1  0  0  0  0
 17 18  1  0  0  0  0
 17 19  1  0  0  0  0
 15 16  1  0  0  0  0
 15 17  1  0  0  0  0
 14 15  2  0  0  0  0
 14 28  1  0  0  0  0
 11 12  1  0  0  0  0
 11 13  1  0  0  0  0
 11 14  1  0  0  0  0
  9 10  1  0  0  0  0
  9 11  1  0  0  0  0
  9 29  1  0  0  0  0
  7  8  1  0  0  0  0
  7  9  1  0  0  0  0
 33 34  1  0  0  0  0
 33 35  1  0  0  0  0
 33 36  1  0  0  0  0
 31 32  1  0  0  0  0
 31 33  1  0  0  0  0
M  END
$$$$
default_name
  -OEChem-02102213163D

 36 37  0     1  0  0  0  0  0999 V2000
   -4.0843   -4.0736    1.2944 H   0  0  0  0  0  0  0  0  0  0  0  0
   -4.0342   -3.2816    0.5484 C   0  0  0  0  0  0  0  0  0  0  0  0
   -4.8842   -2.6126    0.6694 H   0  0  0  0  0  0  0  0  0  0  0  0
   -4.0433   -3.7186   -0.4486 H   0  0  0  0  0  0  0  0  0  0  0  0
   -2.7532   -2.5046    0.7444 C   0  0  0  0  0  0  0  0  0  0  0  0
   -1.9803   -2.8096    1.6434 O   0  0  0  0  0  0  0  0  0  0  0  0
   -2.5332   -1.4966   -0.0966 N   0  0  0  0  0  0  0  0  0  0  0  0
   -3.2312   -1.2816   -0.7936 H   0  0  0  0  0  0  0  0  0  0  0  0
   -1.3593   -0.6196   -0.0536 C   0  0  1  0  0  0  0  0  0  0  0  0
   -0.4622   -1.2317   -0.1545 H   0  0  0  0  0  0  0  0  0  0  0  0
   -1.4074    0.3593   -1.2373 C   0  0  0  0  0  0  0  0  0  0  0  0
   -2.1385    1.1397   -1.0187 H   0  0  0  0  0  0  0  0  0  0  0  0
   -0.4313    0.8384   -1.3316 H   0  0  0  0  0  0  0  0  0  0  0  0
   -1.7649   -0.2542   -2.5571 C   0  0  0  0  0  0  0  0  0  0  0  0
   -1.5949    0.3262   -3.7661 C   0  0  0  0  0  0  0  0  0  0  0  0
   -1.1930    1.3214   -3.9220 H   0  0  0  0  0  0  0  0  0  0  0  0
   -1.9903   -0.5473   -4.7601 N   0  0  0  0  0  0  0  0  0  0  0  0
   -1.9553   -0.3242   -5.7441 H   0  0  0  0  0  0  0  0  0  0  0  0
   -2.4221   -1.7481   -4.2383 C   0  0  0  0  0  0  0  0  0  0  0  0
   -2.8849   -2.9358   -4.8228 C   0  0  0  0  0  0  0  0  0  0  0  0
   -2.9596   -3.0245   -5.8967 H   0  0  0  0  0  0  0  0  0  0  0  0
   -3.2519   -4.0080   -3.9918 C   0  0  0  0  0  0  0  0  0  0  0  0
   -3.6121   -4.9314   -4.4248 H   0  0  0  0  0  0  0  0  0  0  0  0
   -3.1563   -3.8763   -2.5943 C   0  0  0  0  0  0  0  0  0  0  0  0
   -3.4476   -4.7008   -1.9584 H   0  0  0  0  0  0  0  0  0  0  0  0
   -2.6916   -2.6772   -2.0177 C   0  0  0  0  0  0  0  0  0  0  0  0
   -2.6358   -2.5846   -0.9424 H   0  0  0  0  0  0  0  0  0  0  0  0
   -2.3095   -1.5841   -2.8252 C   0  0  0  0  0  0  0  0  0  0  0  0
   -1.2663    0.1182    1.2910 C   0  0  0  0  0  0  0  0  0  0  0  0
   -0.1906    0.1931    1.8833 O   0  0  0  0  0  0  0  0  0  0  0  0
   -2.3930    0.6605    1.7722 N   0  0  0  0  0  0  0  0  0  0  0  0
   -3.2451    0.5077    1.2518 H   0  0  0  0  0  0  0  0  0  0  0  0
   -2.4787    1.3954    3.0311 C   0  0  0  0  0  0  0  0  0  0  0  0
   -1.7166    2.1767    3.0539 H   0  0  0  0  0  0  0  0  0  0  0  0
   -3.4649    1.8498    3.1344 H   0  0  0  0  0  0  0  0  0  0  0  0
   -2.3058    0.7133    3.8652 H   0  0  0  0  0  0  0  0  0  0  0  0
  5  6  2  0  0  0  0
  5  7  1  0  0  0  0
  2  3  1  0  0  0  0
  2  4  1  0  0  0  0
  2  5  1  0  0  0  0
  1  2  1  0  0  0  0
 29 30  2  0  0  0  0
 29 31  1  0  0  0  0
 26 27  1  0  0  0  0
 26 28  2  0  0  0  0
 24 25  1  0  0  0  0
 24 26  1  0  0  0  0
 22 23  1  0  0  0  0
 22 24  2  0  0  0  0
 20 21  1  0  0  0  0
 20 22  1  0  0  0  0
 19 20  2  0  0  0  0
 19 28  1  0  0  0  0
 17 18  1  0  0  0  0
 17 19  1  0  0  0  0
 15 16  1  0  0  0  0
 15 17  1  0  0  0  0
 14 15  2  0  0  0  0
 14 28  1  0  0  0  0
 11 12  1  0  0  0  0
 11 13  1  0  0  0  0
 11 14  1  0  0  0  0
  9 10  1  0  0  0  0
  9 11  1  0  0  0  0
  9 29  1  0  0  0  0
  7  8  1  0  0  0  0
  7  9  1  0  0  0  0
 33 34  1  0  0  0  0
 33 35  1  0  0  0  0
 33 36  1  0  0  0  0
 31 32  1  0  0  0  0
 31 33  1  0  0  0  0
M  END
$$$$
default_name
  -OEChem-02102213163D

 36 37  0     1  0  0  0  0  0999 V2000
   -4.0843   -4.0736    1.2944 H   0  0  0  0  0  0  0  0  0  0  0  0
   -4.0342   -3.2816    0.5484 C   0  0  0  0  0  0  0  0  0  0  0  0
   -4.8842   -2.6126    0.6694 H   0  0  0  0  0  0  0  0  0  0  0  0
   -4.0433   -3.7186   -0.4486 H   0  0  0  0  0  0  0  0  0  0  0  0
   -2.7532   -2.5046    0.7444 C   0  0  0  0  0  0  0  0  0  0  0  0
   -1.9803   -2.8096    1.6434 O   0  0  0  0  0  0  0  0  0  0  0  0
   -2.5332   -1.4966   -0.0966 N   0  0  0  0  0  0  0  0  0  0  0  0
   -3.2312   -1.2816   -0.7936 H   0  0  0  0  0  0  0  0  0  0  0  0
   -1.3593   -0.6196   -0.0536 C   0  0  1  0  0  0  0  0  0  0  0  0
   -0.4622   -1.2317   -0.1545 H   0  0  0  0  0  0  0  0  0  0  0  0
   -1.4074    0.3593   -1.2373 C   0  0  0  0  0  0  0  0  0  0  0  0
   -2.1385    1.1397   -1.0187 H   0  0  0  0  0  0  0  0  0  0  0  0
   -0.4313    0.8384   -1.3316 H   0  0  0  0  0  0  0  0  0  0  0  0
   -1.7649   -0.2542   -2.5571 C   0  0  0  0  0  0  0  0  0  0  0  0
   -1.3466    0.1821   -3.7664 C   0  0  0  0  0  0  0  0  0  0  0  0
   -0.7122    1.0472   -3.9248 H   0  0  0  0  0  0  0  0  0  0  0  0
   -1.8332   -0.6515   -4.7543 N   0  0  0  0  0  0  0  0  0  0  0  0
   -1.6505   -0.5154   -5.7378 H   0  0  0  0  0  0  0  0  0  0  0  0
   -2.5803   -1.6826   -4.2259 C   0  0  0  0  0  0  0  0  0  0  0  0
   -3.2452   -2.7759   -4.7996 C   0  0  0  0  0  0  0  0  0  0  0  0
   -3.2319   -2.9248   -5.8693 H   0  0  0  0  0  0  0  0  0  0  0  0
   -3.9304   -3.6738   -3.9633 C   0  0  0  0  0  0  0  0  0  0  0  0
   -4.4498   -4.5222   -4.3881 H   0  0  0  0  0  0  0  0  0  0  0  0
   -3.9455   -3.4638   -2.5723 C   0  0  0  0  0  0  0  0  0  0  0  0
   -4.4809   -4.1524   -1.9334 H   0  0  0  0  0  0  0  0  0  0  0  0
   -3.2755   -2.3604   -2.0068 C   0  0  0  0  0  0  0  0  0  0  0  0
   -3.3062   -2.2034   -0.9379 H   0  0  0  0  0  0  0  0  0  0  0  0
   -2.5730   -1.4439   -2.8190 C   0  0  0  0  0  0  0  0  0  0  0  0
   -1.2663    0.1182    1.2910 C   0  0  0  0  0  0  0  0  0  0  0  0
   -0.1906    0.1931    1.8833 O   0  0  0  0  0  0  0  0  0  0  0  0
   -2.3930    0.6605    1.7722 N   0  0  0  0  0  0  0  0  0  0  0  0
   -3.2451    0.5077    1.2518 H   0  0  0  0  0  0  0  0  0  0  0  0
   -2.4787    1.3954    3.0311 C   0  0  0  0  0  0  0  0  0  0  0  0
   -1.7166    2.1767    3.0539 H   0  0  0  0  0  0  0  0  0  0  0  0
   -3.4649    1.8498    3.1344 H   0  0  0  0  0  0  0  0  0  0  0  0
   -2.3058    0.7133    3.8652 H   0  0  0  0  0  0  0  0  0  0  0  0
  5  6  2  0  0  0  0
  5  7  1  0  0  0  0
  2  3  1  0  0  0  0
  2  4  1  0  0  0  0
  2  5  1  0  0  0  0
  1  2  1  0  0  0  0
 29 30  2  0  0  0  0
 29 31  1  0  0  0  0
 26 27  1  0  0  0  0
 26 28  2  0  0  0  0
 24 25  1  0  0  0  0
 24 26  1  0  0  0  0
 22 23  1  0  0  0  0
 22 24  2  0  0  0  0
 20 21  1  0  0  0  0
 20 22  1  0  0  0  0
 19 20  2  0  0  0  0
 19 28  1  0  0  0  0
 17 18  1  0  0  0  0
 17 19  1  0  0  0  0
 15 16  1  0  0  0  0
 15 17  1  0  0  0  0
 14 15  2  0  0  0  0
 14 28  1  0  0  0  0
 11 12  1  0  0  0  0
 11 13  1  0  0  0  0
 11 14  1  0  0  0  0
  9 10  1  0  0  0  0
  9 11  1  0  0  0  0
  9 29  1  0  0  0  0
  7  8  1  0  0  0  0
  7  9  1  0  0  0  0
 33 34  1  0  0  0  0
 33 35  1  0  0  0  0
 33 36  1  0  0  0  0
 31 32  1  0  0  0  0
 31 33  1  0  0  0  0
M  END
$$$$
default_name
  -OEChem-02102213163D

 36 37  0     1  0  0  0  0  0999 V2000
   -4.0843   -4.0736    1.2944 H   0  0  0  0  0  0  0  0  0  0  0  0
   -4.0342   -3.2816    0.5484 C   0  0  0  0  0  0  0  0  0  0  0  0
   -4.8842   -2.6126    0.6694 H   0  0  0  0  0  0  0  0  0  0  0  0
   -4.0433   -3.7186   -0.4486 H   0  0  0  0  0  0  0  0  0  0  0  0
   -2.7532   -2.5046    0.7444 C   0  0  0  0  0  0  0  0  0  0  0  0
   -1.9803   -2.8096    1.6434 O   0  0  0  0  0  0  0  0  0  0  0  0
   -2.5332   -1.4966   -0.0966 N   0  0  0  0  0  0  0  0  0  0  0  0
   -3.2312   -1.2816   -0.7936 H   0  0  0  0  0  0  0  0  0  0  0  0
   -1.3593   -0.6196   -0.0536 C   0  0  1  0  0  0  0  0  0  0  0  0
   -0.4622   -1.2317   -0.1545 H   0  0  0  0  0  0  0  0  0  0  0  0
   -1.4074    0.3593   -1.2373 C   0  0  0  0  0  0  0  0  0  0  0  0
   -2.1385    1.1397   -1.0187 H   0  0  0  0  0  0  0  0  0  0  0  0
   -0.4313    0.8384   -1.3316 H   0  0  0  0  0  0  0  0  0  0  0  0
   -1.7649   -0.2542   -2.5571 C   0  0  0  0  0  0  0  0  0  0  0  0
   -1.1397   -0.0138   -3.7314 C   0  0  0  0  0  0  0  0  0  0  0  0
   -0.3100    0.6726   -3.8596 H   0  0  0  0  0  0  0  0  0  0  0  0
   -1.7058   -0.7875   -4.7256 N   0  0  0  0  0  0  0  0  0  0  0  0
   -1.4003   -0.7691   -5.6876 H   0  0  0  0  0  0  0  0  0  0  0  0
   -2.7196   -1.5825   -4.2347 C   0  0  0  0  0  0  0  0  0  0  0  0
   -3.5592   -2.5379   -4.8251 C   0  0  0  0  0  0  0  0  0  0  0  0
   -3.4751   -2.7648   -5.8778 H   0  0  0  0  0  0  0  0  0  0  0  0
   -4.5127   -3.1946   -4.0284 C   0  0  0  0  0  0  0  0  0  0  0  0
   -5.1696   -3.9337   -4.4667 H   0  0  0  0  0  0  0  0  0  0  0  0
   -4.6162   -2.8841   -2.6601 C   0  0  0  0  0  0  0  0  0  0  0  0
   -5.3567   -3.3857   -2.0525 H   0  0  0  0  0  0  0  0  0  0  0  0
   -3.7683   -1.9207   -2.0777 C   0  0  0  0  0  0  0  0  0  0  0  0
   -3.8674   -1.6820   -1.0283 H   0  0  0  0  0  0  0  0  0  0  0  0
   -2.7963   -1.2481   -2.8495 C   0  0  0  0  0  0  0  0  0  0  0  0
   -1.2663    0.1182    1.2910 C   0  0  0  0  0  0  0  0  0  0  0  0
   -0.1906    0.1931    1.8833 O   0  0  0  0  0  0  0  0  0  0  0  0
   -2.3930    0.6605    1.7722 N   0  0  0  0  0  0  0  0  0  0  0  0
   -3.2451    0.5077    1.2518 H   0  0  0  0  0  0  0  0  0  0  0  0
   -2.4787    1.3954    3.0311 C   0  0  0  0  0  0  0  0  0  0  0  0
   -1.7166    2.1767    3.0539 H   0  0  0  0  0  0  0  0  0  0  0  0
   -3.4649    1.8498    3.1344 H   0  0  0  0  0  0  0  0  0  0  0  0
   -2.3058    0.7133    3.8652 H   0  0  0  0  0  0  0  0  0  0  0  0
  5  6  2  0  0  0  0
  5  7  1  0  0  0  0
  2  3  1  0  0  0  0
  2  4  1  0  0  0  0
  2  5  1  0  0  0  0
  1  2  1  0  0  0  0
 29 30  2  0  0  0  0
 29 31  1  0  0  0  0
 26 27  1  0  0  0  0
 26 28  2  0  0  0  0
 24 25  1  0  0  0  0
 24 26  1  0  0  0  0
 22 23  1  0  0  0  0
 22 24  2  0  0  0  0
 20 21  1  0  0  0  0
 20 22  1  0  0  0  0
 19 20  2  0  0  0  0
 19 28  1  0  0  0  0
 17 18  1  0  0  0  0
 17 19  1  0  0  0  0
 15 16  1  0  0  0  0
 15 17  1  0  0  0  0
 14 15  2  0  0  0  0
 14 28  1  0  0  0  0
 11 12  1  0  0  0  0
 11 13  1  0  0  0  0
 11 14  1  0  0  0  0
  9 10  1  0  0  0  0
  9 11  1  0  0  0  0
  9 29  1  0  0  0  0
  7  8  1  0  0  0  0
  7  9  1  0  0  0  0
 33 34  1  0  0  0  0
 33 35  1  0  0  0  0
 33 36  1  0  0  0  0
 31 32  1  0  0  0  0
 31 33  1  0  0  0  0
M  END
$$$$
default_name
  -OEChem-02102213163D

 36 37  0     1  0  0  0  0  0999 V2000
   -4.0843   -4.0736    1.2944 H   0  0  0  0  0  0  0  0  0  0  0  0
   -4.0342   -3.2816    0.5484 C   0  0  0  0  0  0  0  0  0  0  0  0
   -4.8842   -2.6126    0.6694 H   0  0  0  0  0  0  0  0  0  0  0  0
   -4.0433   -3.7186   -0.4486 H   0  0  0  0  0  0  0  0  0  0  0  0
   -2.7532   -2.5046    0.7444 C   0  0  0  0  0  0  0  0  0  0  0  0
   -1.9803   -2.8096    1.6434 O   0  0  0  0  0  0  0  0  0  0  0  0
   -2.5332   -1.4966   -0.0966 N   0  0  0  0  0  0  0  0  0  0  0  0
   -3.2312   -1.2816   -0.7936 H   0  0  0  0  0  0  0  0  0  0  0  0
   -1.3593   -0.6196   -0.0536 C   0  0  1  0  0  0  0  0  0  0  0  0
   -0.4622   -1.2317   -0.1545 H   0  0  0  0  0  0  0  0  0  0  0  0
   -1.4074    0.3593   -1.2373 C   0  0  0  0  0  0  0  0  0  0  0  0
   -2.1385    1.1397   -1.0187 H   0  0  0  0  0  0  0  0  0  0  0  0
   -0.4313    0.8384   -1.3316 H   0  0  0  0  0  0  0  0  0  0  0  0
   -1.7649   -0.2542   -2.5571 C   0  0  0  0  0  0  0  0  0  0  0  0
   -0.9882   -0.2479   -3.6636 C   0  0  0  0  0  0  0  0  0  0  0  0
   -0.0137    0.2231   -3.7309 H   0  0  0  0  0  0  0  0  0  0  0  0
   -1.6168   -0.9462   -4.6759 N   0  0  0  0  0  0  0  0  0  0  0  0
   -1.2219   -1.0681   -5.5969 H   0  0  0  0  0  0  0  0  0  0  0  0
   -2.8303   -1.4546   -4.2641 C   0  0  0  0  0  0  0  0  0  0  0  0
   -3.8056   -2.2381   -4.8978 C   0  0  0  0  0  0  0  0  0  0  0  0
   -3.6726   -2.5554   -5.9216 H   0  0  0  0  0  0  0  0  0  0  0  0
   -4.9590   -2.6029   -4.1825 C   0  0  0  0  0  0  0  0  0  0  0  0
   -5.7224   -3.2060   -4.6552 H   0  0  0  0  0  0  0  0  0  0  0  0
   -5.1226   -2.1768   -2.8517 C   0  0  0  0  0  0  0  0  0  0  0  0
   -6.0153   -2.4528   -2.3078 H   0  0  0  0  0  0  0  0  0  0  0  0
   -4.1367   -1.3879   -2.2255 C   0  0  0  0  0  0  0  0  0  0  0  0
   -4.2811   -1.0562   -1.2071 H   0  0  0  0  0  0  0  0  0  0  0  0
   -2.9641   -1.0099   -2.9148 C   0  0  0  0  0  0  0  0  0  0  0  0
   -1.2663    0.1182    1.2910 C   0  0  0  0  0  0  0  0  0  0  0  0
   -0.1906    0.1931    1.8833 O   0  0  0  0  0  0  0  0  0  0  0  0
   -2.3930    0.6605    1.7722 N   0  0  0  0  0  0  0  0  0  0  0  0
   -3.2451    0.5077    1.2518 H   0  0  0  0  0  0  0  0  0  0  0  0
   -2.4787    1.3954    3.0311 C   0  0  0  0  0  0  0  0  0  0  0  0
   -1.7166    2.1767    3.0539 H   0  0  0  0  0  0  0  0  0  0  0  0
   -3.4649    1.8498    3.1344 H   0  0  0  0  0  0  0  0  0  0  0  0
   -2.3058    0.7133    3.8652 H   0  0  0  0  0  0  0  0  0  0  0  0
  5  6  2  0  0  0  0
  5  7  1  0  0  0  0
  2  3  1  0  0  0  0
  2  4  1  0  0  0  0
  2  5  1  0  0  0  0
  1  2  1  0  0  0  0
 29 30  2  0  0  0  0
 29 31  1  0  0  0  0
 26 27  1  0  0  0  0
 26 28  2  0  0  0  0
 24 25  1  0  0  0  0
 24 26  1  0  0  0  0
 22 23  1  0  0  0  0
 22 24  2  0  0  0  0
 20 21  1  0  0  0  0
 20 22  1  0  0  0  0
 19 20  2  0  0  0  0
 19 28  1  0  0  0  0
 17 18  1  0  0  0  0
 17 19  1  0  0  0  0
 15 16  1  0  0  0  0
 15 17  1  0  0  0  0
 14 15  2  0  0  0  0
 14 28  1  0  0  0  0
 11 12  1  0  0  0  0
 11 13  1  0  0  0  0
 11 14  1  0  0  0  0
  9 10  1  0  0  0  0
  9 11  1  0  0  0  0
  9 29  1  0  0  0  0
  7  8  1  0  0  0  0
  7  9  1  0  0  0  0
 33 34  1  0  0  0  0
 33 35  1  0  0  0  0
 33 36  1  0  0  0  0
 31 32  1  0  0  0  0
 31 33  1  0  0  0  0
M  END
$$$$
default_name
  -OEChem-02102213163D

 36 37  0     1  0  0  0  0  0999 V2000
   -4.0843   -4.0736    1.2944 H   0  0  0  0  0  0  0  0  0  0  0  0
   -4.0342   -3.2816    0.5484 C   0  0  0  0  0  0  0  0  0  0  0  0
   -4.8842   -2.6126    0.6694 H   0  0  0  0  0  0  0  0  0  0  0  0
   -4.0433   -3.7186   -0.4486 H   0  0  0  0  0  0  0  0  0  0  0  0
   -2.7532   -2.5046    0.7444 C   0  0  0  0  0  0  0  0  0  0  0  0
   -1.9803   -2.8096    1.6434 O   0  0  0  0  0  0  0  0  0  0  0  0
   -2.5332   -1.4966   -0.0966 N   0  0  0  0  0  0  0  0  0  0  0  0
   -3.2312   -1.2816   -0.7936 H   0  0  0  0  0  0  0  0  0  0  0  0
   -1.3593   -0.6196   -0.0536 C   0  0  1  0  0  0  0  0  0  0  0  0
   -0.4622   -1.2317   -0.1545 H   0  0  0  0  0  0  0  0  0  0  0  0
   -1.4074    0.3593   -1.2373 C   0  0  0  0  0  0  0  0  0  0  0  0
   -2.1385    1.1397   -1.0187 H   0  0  0  0  0  0  0  0  0  0  0  0
   -0.4313    0.8384   -1.3316 H   0  0  0  0  0  0  0  0  0  0  0  0
   -1.7649   -0.2542   -2.5571 C   0  0  0  0  0  0  0  0  0  0  0  0
   -0.9024   -0.5045   -3.5676 C   0  0  0  0  0  0  0  0  0  0  0  0
    0.1564   -0.2706   -3.5475 H   0  0  0  0  0  0  0  0  0  0  0  0
   -1.5723   -1.1167   -4.6087 N   0  0  0  0  0  0  0  0  0  0  0  0
   -1.1272   -1.3921   -5.4720 H   0  0  0  0  0  0  0  0  0  0  0  0
   -2.9051   -1.3077   -4.3122 C   0  0  0  0  0  0  0  0  0  0  0  0
   -3.9676   -1.8968   -5.0125 C   0  0  0  0  0  0  0  0  0  0  0  0
   -3.8111   -2.3107   -5.9978 H   0  0  0  0  0  0  0  0  0  0  0  0
   -5.2389   -1.9393   -4.4152 C   0  0  0  0  0  0  0  0  0  0  0  0
   -6.0705   -2.3888   -4.9407 H   0  0  0  0  0  0  0  0  0  0  0  0
   -5.4301   -1.3900   -3.1341 C   0  0  0  0  0  0  0  0  0  0  0  0
   -6.4118   -1.4174   -2.6817 H   0  0  0  0  0  0  0  0  0  0  0  0
   -4.3554   -0.7985   -2.4403 C   0  0  0  0  0  0  0  0  0  0  0  0
   -4.5190   -0.3684   -1.4624 H   0  0  0  0  0  0  0  0  0  0  0  0
   -3.0650   -0.7456   -3.0103 C   0  0  0  0  0  0  0  0  0  0  0  0
   -1.2663    0.1182    1.2910 C   0  0  0  0  0  0  0  0  0  0  0  0
   -0.1906    0.1931    1.8833 O   0  0  0  0  0  0  0  0  0  0  0  0
   -2.3930    0.6605    1.7722 N   0  0  0  0  0  0  0  0  0  0  0  0
   -3.2451    0.5077    1.2518 H   0  0  0  0  0  0  0  0  0  0  0  0
   -2.4787    1.3954    3.0311 C   0  0  0  0  0  0  0  0  0  0  0  0
   -1.7166    2.1767    3.0539 H   0  0  0  0  0  0  0  0  0  0  0  0
   -3.4649    1.8498    3.1344 H   0  0  0  0  0  0  0  0  0  0  0  0
   -2.3058    0.7133    3.8652 H   0  0  0  0  0  0  0  0  0  0  0  0
  5  6  2  0  0  0  0
  5  7  1  0  0  0  0
  2  3  1  0  0  0  0
  2  4  1  0  0  0  0
  2  5  1  0  0  0  0
  1  2  1  0  0  0  0
 29 30  2  0  0  0  0
 29 31  1  0  0  0  0
 26 27  1  0  0  0  0
 26 28  2  0  0  0  0
 24 25  1  0  0  0  0
 24 26  1  0  0  0  0
 22 23  1  0  0  0  0
 22 24  2  0  0  0  0
 20 21  1  0  0  0  0
 20 22  1  0  0  0  0
 19 20  2  0  0  0  0
 19 28  1  0  0  0  0
 17 18  1  0  0  0  0
 17 19  1  0  0  0  0
 15 16  1  0  0  0  0
 15 17  1  0  0  0  0
 14 15  2  0  0  0  0
 14 28  1  0  0  0  0
 11 12  1  0  0  0  0
 11 13  1  0  0  0  0
 11 14  1  0  0  0  0
  9 10  1  0  0  0  0
  9 11  1  0  0  0  0
  9 29  1  0  0  0  0
  7  8  1  0  0  0  0
  7  9  1  0  0  0  0
 33 34  1  0  0  0  0
 33 35  1  0  0  0  0
 33 36  1  0  0  0  0
 31 32  1  0  0  0  0
 31 33  1  0  0  0  0
M  END
$$$$
default_name
  -OEChem-02102213163D

 36 37  0     1  0  0  0  0  0999 V2000
   -4.0843   -4.0736    1.2944 H   0  0  0  0  0  0  0  0  0  0  0  0
   -4.0342   -3.2816    0.5484 C   0  0  0  0  0  0  0  0  0  0  0  0
   -4.8842   -2.6126    0.6694 H   0  0  0  0  0  0  0  0  0  0  0  0
   -4.0433   -3.7186   -0.4486 H   0  0  0  0  0  0  0  0  0  0  0  0
   -2.7532   -2.5046    0.7444 C   0  0  0  0  0  0  0  0  0  0  0  0
   -1.9803   -2.8096    1.6434 O   0  0  0  0  0  0  0  0  0  0  0  0
   -2.5332   -1.4966   -0.0966 N   0  0  0  0  0  0  0  0  0  0  0  0
   -3.2312   -1.2816   -0.7936 H   0  0  0  0  0  0  0  0  0  0  0  0
   -1.3593   -0.6196   -0.0536 C   0  0  1  0  0  0  0  0  0  0  0  0
   -0.4622   -1.2317   -0.1545 H   0  0  0  0  0  0  0  0  0  0  0  0
   -1.4074    0.3593   -1.2373 C   0  0  0  0  0  0  0  0  0  0  0  0
   -2.1385    1.1397   -1.0187 H   0  0  0  0  0  0  0  0  0  0  0  0
   -0.4313    0.8384   -1.3316 H   0  0  0  0  0  0  0  0  0  0  0  0
   -1.7649   -0.2542   -2.5571 C   0  0  0  0  0  0  0  0  0  0  0  0
   -0.8882   -0.7659   -3.4499 C   0  0  0  0  0  0  0  0  0  0  0  0
    0.1887   -0.7750   -3.3218 H   0  0  0  0  0  0  0  0  0  0  0  0
   -1.5752   -1.2874   -4.5286 N   0  0  0  0  0  0  0  0  0  0  0  0
   -1.1229   -1.7188   -5.3213 H   0  0  0  0  0  0  0  0  0  0  0  0
   -2.9386   -1.1516   -4.3757 C   0  0  0  0  0  0  0  0  0  0  0  0
   -4.0340   -1.5373   -5.1617 C   0  0  0  0  0  0  0  0  0  0  0  0
   -3.8810   -2.0475   -6.1012 H   0  0  0  0  0  0  0  0  0  0  0  0
   -5.3334   -1.2488   -4.7105 C   0  0  0  0  0  0  0  0  0  0  0  0
   -6.1903   -1.5377   -5.3040 H   0  0  0  0  0  0  0  0  0  0  0  0
   -5.5180   -0.5773   -3.4881 C   0  0  0  0  0  0  0  0  0  0  0  0
   -6.5191   -0.3499   -3.1489 H   0  0  0  0  0  0  0  0  0  0  0  0
   -4.4096   -0.1926   -2.7073 C   0  0  0  0  0  0  0  0  0  0  0  0
   -4.5651    0.3345   -1.7767 H   0  0  0  0  0  0  0  0  0  0  0  0
   -3.0921   -0.4732   -3.1296 C   0  0  0  0  0  0  0  0  0  0  0  0
   -1.2663    0.1182    1.2910 C   0  0  0  0  0  0  0  0  0  0  0  0
   -0.1906    0.1931    1.8833 O   0  0  0  0  0  0  0  0  0  0  0  0
   -2.3930    0.6605    1.7722 N   0  0  0  0  0  0  0  0  0  0  0  0
   -3.2451    0.5077    1.2518 H   0  0  0  0  0  0  0  0  0  0  0  0
   -2.4787    1.3954    3.0311 C   0  0  0  0  0  0  0  0  0  0  0  0
   -1.7166    2.1767    3.0539 H   0  0  0  0  0  0  0  0  0  0  0  0
   -3.4649    1.8498    3.1344 H   0  0  0  0  0  0  0  0  0  0  0  0
   -2.3058    0.7133    3.8652 H   0  0  0  0  0  0  0  0  0  0  0  0
  5  6  2  0  0  0  0
  5  7  1  0  0  0  0
  2  3  1  0  0  0  0
  2  4  1  0  0  0  0
  2  5  1  0  0  0  0
  1  2  1  0  0  0  0
 29 30  2  0  0  0  0
 29 31  1  0  0  0  0
 26 27  1  0  0  0  0
 26 28  2  0  0  0  0
 24 25  1  0  0  0  0
 24 26  1  0  0  0  0
 22 23  1  0  0  0  0
 22 24  2  0  0  0  0
 20 21  1  0  0  0  0
 20 22  1  0  0  0  0
 19 20  2  0  0  0  0
 19 28  1  0  0  0  0
 17 18  1  0  0  0  0
 17 19  1  0  0  0  0
 15 16  1  0  0  0  0
 15 17  1  0  0  0  0
 14 15  2  0  0  0  0
 14 28  1  0  0  0  0
 11 12  1  0  0  0  0
 11 13  1  0  0  0  0
 11 14  1  0  0  0  0
  9 10  1  0  0  0  0
  9 11  1  0  0  0  0
  9 29  1  0  0  0  0
  7  8  1  0  0  0  0
  7  9  1  0  0  0  0
 33 34  1  0  0  0  0
 33 35  1  0  0  0  0
 33 36  1  0  0  0  0
 31 32  1  0  0  0  0
 31 33  1  0  0  0  0
M  END
$$$$
default_name
  -OEChem-02102213163D

 36 37  0     1  0  0  0  0  0999 V2000
   -4.0843   -4.0736    1.2944 H   0  0  0  0  0  0  0  0  0  0  0  0
   -4.0342   -3.2816    0.5484 C   0  0  0  0  0  0  0  0  0  0  0  0
   -4.8842   -2.6126    0.6694 H   0  0  0  0  0  0  0  0  0  0  0  0
   -4.0433   -3.7186   -0.4486 H   0  0  0  0  0  0  0  0  0  0  0  0
   -2.7532   -2.5046    0.7444 C   0  0  0  0  0  0  0  0  0  0  0  0
   -1.9803   -2.8096    1.6434 O   0  0  0  0  0  0  0  0  0  0  0  0
   -2.5332   -1.4966   -0.0966 N   0  0  0  0  0  0  0  0  0  0  0  0
   -3.2312   -1.2816   -0.7936 H   0  0  0  0  0  0  0  0  0  0  0  0
   -1.3593   -0.6196   -0.0536 C   0  0  1  0  0  0  0  0  0  0  0  0
   -0.4622   -1.2317   -0.1545 H   0  0  0  0  0  0  0  0  0  0  0  0
   -1.4074    0.3593   -1.2373 C   0  0  0  0  0  0  0  0  0  0  0  0
   -2.1385    1.1397   -1.0187 H   0  0  0  0  0  0  0  0  0  0  0  0
   -0.4313    0.8384   -1.3316 H   0  0  0  0  0  0  0  0  0  0  0  0
   -1.7649   -0.2542   -2.5571 C   0  0  0  0  0  0  0  0  0  0  0  0
   -0.9465   -1.0144   -3.3186 C   0  0  0  0  0  0  0  0  0  0  0  0
    0.0810   -1.2556   -3.0692 H   0  0  0  0  0  0  0  0  0  0  0  0
   -1.6255   -1.4466   -4.4409 N   0  0  0  0  0  0  0  0  0  0  0  0
   -1.2091   -2.0261   -5.1551 H   0  0  0  0  0  0  0  0  0  0  0  0
   -2.9288   -0.9972   -4.4501 C   0  0  0  0  0  0  0  0  0  0  0  0
   -4.0005   -1.1841   -5.3349 C   0  0  0  0  0  0  0  0  0  0  0  0
   -3.8775   -1.7838   -6.2248 H   0  0  0  0  0  0  0  0  0  0  0  0
   -5.2360   -0.5786   -5.0485 C   0  0  0  0  0  0  0  0  0  0  0  0
   -6.0735   -0.7107   -5.7200 H   0  0  0  0  0  0  0  0  0  0  0  0
   -5.3801    0.2059   -3.8896 C   0  0  0  0  0  0  0  0  0  0  0  0
   -6.3300    0.6767   -3.6774 H   0  0  0  0  0  0  0  0  0  0  0  0
   -4.2955    0.3885   -3.0083 C   0  0  0  0  0  0  0  0  0  0  0  0
   -4.4161    1.0045   -2.1285 H   0  0  0  0  0  0  0  0  0  0  0  0
   -3.0435   -0.2113   -3.2645 C   0  0  0  0  0  0  0  0  0  0  0  0
   -1.2663    0.1182    1.2910 C   0  0  0  0  0  0  0  0  0  0  0  0
   -0.1906    0.1931    1.8833 O   0  0  0  0  0  0  0  0  0  0  0  0
   -2.3930    0.6605    1.7722 N   0  0  0  0  0  0  0  0  0  0  0  0
   -3.2451    0.5077    1.2518 H   0  0  0  0  0  0  0  0  0  0  0  0
   -2.4787    1.3954    3.0311 C   0  0  0  0  0  0  0  0  0  0  0  0
   -1.7166    2.1767    3.0539 H   0  0  0  0  0  0  0  0  0  0  0  0
   -3.4649    1.8498    3.1344 H   0  0  0  0  0  0  0  0  0  0  0  0
   -2.3058    0.7133    3.8652 H   0  0  0  0  0  0  0  0  0  0  0  0
  5  6  2  0  0  0  0
  5  7  1  0  0  0  0
  2  3  1  0  0  0  0
  2  4  1  0  0  0  0
  2  5  1  0  0  0  0
  1  2  1  0  0  0  0
 29 30  2  0  0  0  0
 29 31  1  0  0  0  0
 26 27  1  0  0  0  0
 26 28  2  0  0  0  0
 24 25  1  0  0  0  0
 24 26  1  0  0  0  0
 22 23  1  0  0  0  0
 22 24  2  0  0  0  0
 20 21  1  0  0  0  0
 20 22  1  0  0  0  0
 19 20  2  0  0  0  0
 19 28  1  0  0  0  0
 17 18  1  0  0  0  0
 17 19  1  0  0  0  0
 15 16  1  0  0  0  0
 15 17  1  0  0  0  0
 14 15  2  0  0  0  0
 14 28  1  0  0  0  0
 11 12  1  0  0  0  0
 11 13  1  0  0  0  0
 11 14  1  0  0  0  0
  9 10  1  0  0  0  0
  9 11  1  0  0  0  0
  9 29  1  0  0  0  0
  7  8  1  0  0  0  0
  7  9  1  0  0  0  0
 33 34  1  0  0  0  0
 33 35  1  0  0  0  0
 33 36  1  0  0  0  0
 31 32  1  0  0  0  0
 31 33  1  0  0  0  0
M  END
$$$$
default_name
  -OEChem-02102213163D

 36 37  0     1  0  0  0  0  0999 V2000
   -4.0843   -4.0736    1.2944 H   0  0  0  0  0  0  0  0  0  0  0  0
   -4.0342   -3.2816    0.5484 C   0  0  0  0  0  0  0  0  0  0  0  0
   -4.8842   -2.6126    0.6694 H   0  0  0  0  0  0  0  0  0  0  0  0
   -4.0433   -3.7186   -0.4486 H   0  0  0  0  0  0  0  0  0  0  0  0
   -2.7532   -2.5046    0.7444 C   0  0  0  0  0  0  0  0  0  0  0  0
   -1.9803   -2.8096    1.6434 O   0  0  0  0  0  0  0  0  0  0  0  0
   -2.5332   -1.4966   -0.0966 N   0  0  0  0  0  0  0  0  0  0  0  0
   -3.2312   -1.2816   -0.7936 H   0  0  0  0  0  0  0  0  0  0  0  0
   -1.3593   -0.6196   -0.0536 C   0  0  1  0  0  0  0  0  0  0  0  0
   -0.4622   -1.2317   -0.1545 H   0  0  0  0  0  0  0  0  0  0  0  0
   -1.4074    0.3593   -1.2373 C   0  0  0  0  0  0  0  0  0  0  0  0
   -2.1385    1.1397   -1.0187 H   0  0  0  0  0  0  0  0  0  0  0  0
   -0.4313    0.8384   -1.3316 H   0  0  0  0  0  0  0  0  0  0  0  0
   -1.7649   -0.2542   -2.5571 C   0  0  0  0  0  0  0  0  0  0  0  0
   -1.0733   -1.2330   -3.1826 C   0  0  0  0  0  0  0  0  0  0  0  0
   -0.1593   -1.6797   -2.8069 H   0  0  0  0  0  0  0  0  0  0  0  0
   -1.7196   -1.5836   -4.3517 N   0  0  0  0  0  0  0  0  0  0  0  0
   -1.3800   -2.2930   -4.9847 H   0  0  0  0  0  0  0  0  0  0  0  0
   -2.8762   -0.8549   -4.5305 C   0  0  0  0  0  0  0  0  0  0  0  0
   -3.8692   -0.8612   -5.5206 C   0  0  0  0  0  0  0  0  0  0  0  0
   -3.8010   -1.5375   -6.3600 H   0  0  0  0  0  0  0  0  0  0  0  0
   -4.9533    0.0258   -5.4060 C   0  0  0  0  0  0  0  0  0  0  0  0
   -5.7282    0.0358   -6.1606 H   0  0  0  0  0  0  0  0  0  0  0  0
   -5.0259    0.9061   -4.3110 C   0  0  0  0  0  0  0  0  0  0  0  0
   -5.8574    1.5927   -4.2312 H   0  0  0  0  0  0  0  0  0  0  0  0
   -4.0210    0.9052   -3.3229 C   0  0  0  0  0  0  0  0  0  0  0  0
   -4.0822    1.5959   -2.4939 H   0  0  0  0  0  0  0  0  0  0  0  0
   -2.9226    0.0222   -3.4058 C   0  0  0  0  0  0  0  0  0  0  0  0
   -1.2663    0.1182    1.2910 C   0  0  0  0  0  0  0  0  0  0  0  0
   -0.1906    0.1931    1.8833 O   0  0  0  0  0  0  0  0  0  0  0  0
   -2.3930    0.6605    1.7722 N   0  0  0  0  0  0  0  0  0  0  0  0
   -3.2451    0.5077    1.2518 H   0  0  0  0  0  0  0  0  0  0  0  0
   -2.4787    1.3954    3.0311 C   0  0  0  0  0  0  0  0  0  0  0  0
   -1.7166    2.1767    3.0539 H   0  0  0  0  0  0  0  0  0  0  0  0
   -3.4649    1.8498    3.1344 H   0  0  0  0  0  0  0  0  0  0  0  0
   -2.3058    0.7133    3.8652 H   0  0  0  0  0  0  0  0  0  0  0  0
  5  6  2  0  0  0  0
  5  7  1  0  0  0  0
  2  3  1  0  0  0  0
  2  4  1  0  0  0  0
  2  5  1  0  0  0  0
  1  2  1  0  0  0  0
 29 30  2  0  0  0  0
 29 31  1  0  0  0  0
 26 27  1  0  0  0  0
 26 28  2  0  0  0  0
 24 25  1  0  0  0  0
 24 26  1  0  0  0  0
 22 23  1  0  0  0  0
 22 24  2  0  0  0  0
 20 21  1  0  0  0  0
 20 22  1  0  0  0  0
 19 20  2  0  0  0  0
 19 28  1  0  0  0  0
 17 18  1  0  0  0  0
 17 19  1  0  0  0  0
 15 16  1  0  0  0  0
 15 17  1  0  0  0  0
 14 15  2  0  0  0  0
 14 28  1  0  0  0  0
 11 12  1  0  0  0  0
 11 13  1  0  0  0  0
 11 14  1  0  0  0  0
  9 10  1  0  0  0  0
  9 11  1  0  0  0  0
  9 29  1  0  0  0  0
  7  8  1  0  0  0  0
  7  9  1  0  0  0  0
 33 34  1  0  0  0  0
 33 35  1  0  0  0  0
 33 36  1  0  0  0  0
 31 32  1  0  0  0  0
 31 33  1  0  0  0  0
M  END
$$$$
default_name
  -OEChem-02102213163D

 36 37  0     1  0  0  0  0  0999 V2000
   -4.0843   -4.0736    1.2944 H   0  0  0  0  0  0  0  0  0  0  0  0
   -4.0342   -3.2816    0.5484 C   0  0  0  0  0  0  0  0  0  0  0  0
   -4.8842   -2.6126    0.6694 H   0  0  0  0  0  0  0  0  0  0  0  0
   -4.0433   -3.7186   -0.4486 H   0  0  0  0  0  0  0  0  0  0  0  0
   -2.7532   -2.5046    0.7444 C   0  0  0  0  0  0  0  0  0  0  0  0
   -1.9803   -2.8096    1.6434 O   0  0  0  0  0  0  0  0  0  0  0  0
   -2.5332   -1.4966   -0.0966 N   0  0  0  0  0  0  0  0  0  0  0  0
   -3.2312   -1.2816   -0.7936 H   0  0  0  0  0  0  0  0  0  0  0  0
   -1.3593   -0.6196   -0.0536 C   0  0  1  0  0  0  0  0  0  0  0  0
   -0.4622   -1.2317   -0.1545 H   0  0  0  0  0  0  0  0  0  0  0  0
   -1.4074    0.3593   -1.2373 C   0  0  0  0  0  0  0  0  0  0  0  0
   -2.1385    1.1397   -1.0187 H   0  0  0  0  0  0  0  0  0  0  0  0
   -0.4313    0.8384   -1.3316 H   0  0  0  0  0  0  0  0  0  0  0  0
   -1.7649   -0.2542   -2.5571 C   0  0  0  0  0  0  0  0  0  0  0  0
   -1.2601   -1.4069   -3.0512 C   0  0  0  0  0  0  0  0  0  0  0  0
   -0.5158   -2.0184   -2.5529 H   0  0  0  0  0  0  0  0  0  0  0  0
   -1.8512   -1.6889   -4.2671 N   0  0  0  0  0  0  0  0  0  0  0  0
   -1.6240   -2.5014   -4.8217 H   0  0  0  0  0  0  0  0  0  0  0  0
   -2.7844   -0.7344   -4.6114 C   0  0  0  0  0  0  0  0  0  0  0  0
   -3.6492   -0.5908   -5.7059 C   0  0  0  0  0  0  0  0  0  0  0  0
   -3.6566   -1.3253   -6.4978 H   0  0  0  0  0  0  0  0  0  0  0  0
   -4.5046    0.5230   -5.7587 C   0  0  0  0  0  0  0  0  0  0  0  0
   -5.1777    0.6509   -6.5957 H   0  0  0  0  0  0  0  0  0  0  0  0
   -4.4795    1.4758   -4.7239 C   0  0  0  0  0  0  0  0  0  0  0  0
   -5.1334    2.3355   -4.7727 H   0  0  0  0  0  0  0  0  0  0  0  0
   -3.6048    1.3223   -3.6296 C   0  0  0  0  0  0  0  0  0  0  0  0
   -3.5861    2.0686   -2.8480 H   0  0  0  0  0  0  0  0  0  0  0  0
   -2.7376    0.2116   -3.5440 C   0  0  0  0  0  0  0  0  0  0  0  0
   -1.2663    0.1182    1.2910 C   0  0  0  0  0  0  0  0  0  0  0  0
   -0.1906    0.1931    1.8833 O   0  0  0  0  0  0  0  0  0  0  0  0
   -2.3930    0.6605    1.7722 N   0  0  0  0  0  0  0  0  0  0  0  0
   -3.2451    0.5077    1.2518 H   0  0  0  0  0  0  0  0  0  0  0  0
   -2.4787    1.3954    3.0311 C   0  0  0  0  0  0  0  0  0  0  0  0
   -1.7166    2.1767    3.0539 H   0  0  0  0  0  0  0  0  0  0  0  0
   -3.4649    1.8498    3.1344 H   0  0  0  0  0  0  0  0  0  0  0  0
   -2.3058    0.7133    3.8652 H   0  0  0  0  0  0  0  0  0  0  0  0
  5  6  2  0  0  0  0
  5  7  1  0  0  0  0
  2  3  1  0  0  0  0
  2  4  1  0  0  0  0
  2  5  1  0  0  0  0
  1  2  1  0  0  0  0
 29 30  2  0  0  0  0
 29 31  1  0  0  0  0
 26 27  1  0  0  0  0
 26 28  2  0  0  0  0
 24 25  1  0  0  0  0
 24 26  1  0  0  0  0
 22 23  1  0  0  0  0
 22 24  2  0  0  0  0
 20 21  1  0  0  0  0
 20 22  1  0  0  0  0
 19 20  2  0  0  0  0
 19 28  1  0  0  0  0
 17 18  1  0  0  0  0
 17 19  1  0  0  0  0
 15 16  1  0  0  0  0
 15 17  1  0  0  0  0
 14 15  2  0  0  0  0
 14 28  1  0  0  0  0
 11 12  1  0  0  0  0
 11 13  1  0  0  0  0
 11 14  1  0  0  0  0
  9 10  1  0  0  0  0
  9 11  1  0  0  0  0
  9 29  1  0  0  0  0
  7  8  1  0  0  0  0
  7  9  1  0  0  0  0
 33 34  1  0  0  0  0
 33 35  1  0  0  0  0
 33 36  1  0  0  0  0
 31 32  1  0  0  0  0
 31 33  1  0  0  0  0
M  END
$$$$
default_name
  -OEChem-02102213163D

 36 37  0     1  0  0  0  0  0999 V2000
   -4.0843   -4.0736    1.2944 H   0  0  0  0  0  0  0  0  0  0  0  0
   -4.0342   -3.2816    0.5484 C   0  0  0  0  0  0  0  0  0  0  0  0
   -4.8842   -2.6126    0.6694 H   0  0  0  0  0  0  0  0  0  0  0  0
   -4.0433   -3.7186   -0.4486 H   0  0  0  0  0  0  0  0  0  0  0  0
   -2.7532   -2.5046    0.7444 C   0  0  0  0  0  0  0  0  0  0  0  0
   -1.9803   -2.8096    1.6434 O   0  0  0  0  0  0  0  0  0  0  0  0
   -2.5332   -1.4966   -0.0966 N   0  0  0  0  0  0  0  0  0  0  0  0
   -3.2312   -1.2816   -0.7936 H   0  0  0  0  0  0  0  0  0  0  0  0
   -1.3593   -0.6196   -0.0536 C   0  0  1  0  0  0  0  0  0  0  0  0
   -0.4622   -1.2317   -0.1545 H   0  0  0  0  0  0  0  0  0  0  0  0
   -1.4074    0.3593   -1.2373 C   0  0  0  0  0  0  0  0  0  0  0  0
   -2.1385    1.1397   -1.0187 H   0  0  0  0  0  0  0  0  0  0  0  0
   -0.4313    0.8384   -1.3316 H   0  0  0  0  0  0  0  0  0  0  0  0
   -1.7649   -0.2542   -2.5571 C   0  0  0  0  0  0  0  0  0  0  0  0
   -1.4941   -1.5241   -2.9333 C   0  0  0  0  0  0  0  0  0  0  0  0
   -0.9643   -2.2486   -2.3244 H   0  0  0  0  0  0  0  0  0  0  0  0
   -2.0112   -1.7555   -4.1928 N   0  0  0  0  0  0  0  0  0  0  0  0
   -1.9245   -2.6369   -4.6773 H   0  0  0  0  0  0  0  0  0  0  0  0
   -2.6597   -0.6438   -4.6873 C   0  0  0  0  0  0  0  0  0  0  0  0
   -3.3554   -0.3911   -5.8783 C   0  0  0  0  0  0  0  0  0  0  0  0
   -3.4542   -1.1618   -6.6286 H   0  0  0  0  0  0  0  0  0  0  0  0
   -3.9205    0.8793   -6.0826 C   0  0  0  0  0  0  0  0  0  0  0  0
   -4.4598    1.0927   -6.9956 H   0  0  0  0  0  0  0  0  0  0  0  0
   -3.7781    1.8760   -5.0999 C   0  0  0  0  0  0  0  0  0  0  0  0
   -4.2074    2.8546   -5.2648 H   0  0  0  0  0  0  0  0  0  0  0  0
   -3.0751    1.6114   -3.9075 C   0  0  0  0  0  0  0  0  0  0  0  0
   -2.9617    2.3902   -3.1667 H   0  0  0  0  0  0  0  0  0  0  0  0
   -2.5012    0.3438   -3.6695 C   0  0  0  0  0  0  0  0  0  0  0  0
   -1.2663    0.1182    1.2910 C   0  0  0  0  0  0  0  0  0  0  0  0
   -0.1906    0.1931    1.8833 O   0  0  0  0  0  0  0  0  0  0  0  0
   -2.3930    0.6605    1.7722 N   0  0  0  0  0  0  0  0  0  0  0  0
   -3.2451    0.5077    1.2518 H   0  0  0  0  0  0  0  0  0  0  0  0
   -2.4787    1.3954    3.0311 C   0  0  0  0  0  0  0  0  0  0  0  0
   -1.7166    2.1767    3.0539 H   0  0  0  0  0  0  0  0  0  0  0  0
   -3.4649    1.8498    3.1344 H   0  0  0  0  0  0  0  0  0  0  0  0
   -2.3058    0.7133    3.8652 H   0  0  0  0  0  0  0  0  0  0  0  0
  5  6  2  0  0  0  0
  5  7  1  0  0  0  0
  2  3  1  0  0  0  0
  2  4  1  0  0  0  0
  2  5  1  0  0  0  0
  1  2  1  0  0  0  0
 29 30  2  0  0  0  0
 29 31  1  0  0  0  0
 26 27  1  0  0  0  0
 26 28  2  0  0  0  0
 24 25  1  0  0  0  0
 24 26  1  0  0  0  0
 22 23  1  0  0  0  0
 22 24  2  0  0  0  0
 20 21  1  0  0  0  0
 20 22  1  0  0  0  0
 19 20  2  0  0  0  0
 19 28  1  0  0  0  0
 17 18  1  0  0  0  0
 17 19  1  0  0  0  0
 15 16  1  0  0  0  0
 15 17  1  0  0  0  0
 14 15  2  0  0  0  0
 14 28  1  0  0  0  0
 11 12  1  0  0  0  0
 11 13  1  0  0  0  0
 11 14  1  0  0  0  0
  9 10  1  0  0  0  0
  9 11  1  0  0  0  0
  9 29  1  0  0  0  0
  7  8  1  0  0  0  0
  7  9  1  0  0  0  0
 33 34  1  0  0  0  0
 33 35  1  0  0  0  0
 33 36  1  0  0  0  0
 31 32  1  0  0  0  0
 31 33  1  0  0  0  0
M  END
$$$$
default_name
  -OEChem-02102213163D

 36 37  0     1  0  0  0  0  0999 V2000
   -4.0843   -4.0736    1.2944 H   0  0  0  0  0  0  0  0  0  0  0  0
   -4.0342   -3.2816    0.5484 C   0  0  0  0  0  0  0  0  0  0  0  0
   -4.8842   -2.6126    0.6694 H   0  0  0  0  0  0  0  0  0  0  0  0
   -4.0433   -3.7186   -0.4486 H   0  0  0  0  0  0  0  0  0  0  0  0
   -2.7532   -2.5046    0.7444 C   0  0  0  0  0  0  0  0  0  0  0  0
   -1.9803   -2.8096    1.6434 O   0  0  0  0  0  0  0  0  0  0  0  0
   -2.5332   -1.4966   -0.0966 N   0  0  0  0  0  0  0  0  0  0  0  0
   -3.2312   -1.2816   -0.7936 H   0  0  0  0  0  0  0  0  0  0  0  0
   -1.3593   -0.6196   -0.0536 C   0  0  1  0  0  0  0  0  0  0  0  0
   -0.4622   -1.2317   -0.1545 H   0  0  0  0  0  0  0  0  0  0  0  0
   -1.4074    0.3593   -1.2373 C   0  0  0  0  0  0  0  0  0  0  0  0
   -2.1385    1.1397   -1.0187 H   0  0  0  0  0  0  0  0  0  0  0  0
   -0.4313    0.8384   -1.3316 H   0  0  0  0  0  0  0  0  0  0  0  0
   -1.7649   -0.2542   -2.5571 C   0  0  0  0  0  0  0  0  0  0  0  0
   -1.7593   -1.5768   -2.8369 C   0  0  0  0  0  0  0  0  0  0  0  0
   -1.4742   -2.3546   -2.1370 H   0  0  0  0  0  0  0  0  0  0  0  0
   -2.1889   -1.7787   -4.1339 N   0  0  0  0  0  0  0  0  0  0  0  0
   -2.2609   -2.6904   -4.5613 H   0  0  0  0  0  0  0  0  0  0  0  0
   -2.5106   -0.5895   -4.7529 C   0  0  0  0  0  0  0  0  0  0  0  0
   -3.0079   -0.2759   -6.0260 C   0  0  0  0  0  0  0  0  0  0  0  0
   -3.2075   -1.0581   -6.7437 H   0  0  0  0  0  0  0  0  0  0  0  0
   -3.2409    1.0703   -6.3555 C   0  0  0  0  0  0  0  0  0  0  0  0
   -3.6232    1.3312   -7.3331 H   0  0  0  0  0  0  0  0  0  0  0  0
   -2.9696    2.0795   -5.4136 C   0  0  0  0  0  0  0  0  0  0  0  0
   -3.1425    3.1145   -5.6742 H   0  0  0  0  0  0  0  0  0  0  0  0
   -2.4682    1.7528   -4.1376 C   0  0  0  0  0  0  0  0  0  0  0  0
   -2.2515    2.5388   -3.4282 H   0  0  0  0  0  0  0  0  0  0  0  0
   -2.2293    0.4098   -3.7738 C   0  0  0  0  0  0  0  0  0  0  0  0
   -1.2663    0.1182    1.2910 C   0  0  0  0  0  0  0  0  0  0  0  0
   -0.1906    0.1931    1.8833 O   0  0  0  0  0  0  0  0  0  0  0  0
   -2.3930    0.6605    1.7722 N   0  0  0  0  0  0  0  0  0  0  0  0
   -3.2451    0.5077    1.2518 H   0  0  0  0  0  0  0  0  0  0  0  0
   -2.4787    1.3954    3.0311 C   0  0  0  0  0  0  0  0  0  0  0  0
   -1.7166    2.1767    3.0539 H   0  0  0  0  0  0  0  0  0  0  0  0
   -3.4649    1.8498    3.1344 H   0  0  0  0  0  0  0  0  0  0  0  0
   -2.3058    0.7133    3.8652 H   0  0  0  0  0  0  0  0  0  0  0  0
  5  6  2  0  0  0  0
  5  7  1  0  0  0  0
  2  3  1  0  0  0  0
  2  4  1  0  0  0  0
  2  5  1  0  0  0  0
  1  2  1  0  0  0  0
 29 30  2  0  0  0  0
 29 31  1  0  0  0  0
 26 27  1  0  0  0  0
 26 28  2  0  0  0  0
 24 25  1  0  0  0  0
 24 26  1  0  0  0  0
 22 23  1  0  0  0  0
 22 24  2  0  0  0  0
 20 21  1  0  0  0  0
 20 22  1  0  0  0  0
 19 20  2  0  0  0  0
 19 28  1  0  0  0  0
 17 18  1  0  0  0  0
 17 19  1  0  0  0  0
 15 16  1  0  0  0  0
 15 17  1  0  0  0  0
 14 15  2  0  0  0  0
 14 28  1  0  0  0  0
 11 12  1  0  0  0  0
 11 13  1  0  0  0  0
 11 14  1  0  0  0  0
  9 10  1  0  0  0  0
  9 11  1  0  0  0  0
  9 29  1  0  0  0  0
  7  8  1  0  0  0  0
  7  9  1  0  0  0  0
 33 34  1  0  0  0  0
 33 35  1  0  0  0  0
 33 36  1  0  0  0  0
 31 32  1  0  0  0  0
 31 33  1  0  0  0  0
M  END
$$$$
default_name
  -OEChem-02102213163D

 36 37  0     1  0  0  0  0  0999 V2000
   -4.0843   -4.0736    1.2944 H   0  0  0  0  0  0  0  0  0  0  0  0
   -4.0342   -3.2816    0.5484 C   0  0  0  0  0  0  0  0  0  0  0  0
   -4.8842   -2.6126    0.6694 H   0  0  0  0  0  0  0  0  0  0  0  0
   -4.0433   -3.7186   -0.4486 H   0  0  0  0  0  0  0  0  0  0  0  0
   -2.7532   -2.5046    0.7444 C   0  0  0  0  0  0  0  0  0  0  0  0
   -1.9803   -2.8096    1.6434 O   0  0  0  0  0  0  0  0  0  0  0  0
   -2.5332   -1.4966   -0.0966 N   0  0  0  0  0  0  0  0  0  0  0  0
   -3.2312   -1.2816   -0.7936 H   0  0  0  0  0  0  0  0  0  0  0  0
   -1.3593   -0.6196   -0.0536 C   0  0  1  0  0  0  0  0  0  0  0  0
   -0.4622   -1.2317   -0.1545 H   0  0  0  0  0  0  0  0  0  0  0  0
   -1.4074    0.3593   -1.2373 C   0  0  0  0  0  0  0  0  0  0  0  0
   -2.1385    1.1397   -1.0187 H   0  0  0  0  0  0  0  0  0  0  0  0
   -0.4313    0.8384   -1.3316 H   0  0  0  0  0  0  0  0  0  0  0  0
   -1.7649   -0.2542   -2.5571 C   0  0  0  0  0  0  0  0  0  0  0  0
   -2.0377   -1.5613   -2.7687 C   0  0  0  0  0  0  0  0  0  0  0  0
   -2.0108   -2.3292   -2.0034 H   0  0  0  0  0  0  0  0  0  0  0  0
   -2.3720   -1.7569   -4.0944 N   0  0  0  0  0  0  0  0  0  0  0  0
   -2.6103   -2.6583   -4.4816 H   0  0  0  0  0  0  0  0  0  0  0  0
   -2.3473   -0.5751   -4.8039 C   0  0  0  0  0  0  0  0  0  0  0  0
   -2.6302   -0.2529   -6.1390 C   0  0  0  0  0  0  0  0  0  0  0  0
   -2.9335   -1.0212   -6.8350 H   0  0  0  0  0  0  0  0  0  0  0  0
   -2.5119    1.0830   -6.5589 C   0  0  0  0  0  0  0  0  0  0  0  0
   -2.7250    1.3500   -7.5852 H   0  0  0  0  0  0  0  0  0  0  0  0
   -2.1090    2.0724   -5.6434 C   0  0  0  0  0  0  0  0  0  0  0  0
   -2.0112    3.0976   -5.9728 H   0  0  0  0  0  0  0  0  0  0  0  0
   -1.8253    1.7368   -4.3043 C   0  0  0  0  0  0  0  0  0  0  0  0
   -1.5039    2.5044   -3.6147 H   0  0  0  0  0  0  0  0  0  0  0  0
   -1.9406    0.4052   -3.8499 C   0  0  0  0  0  0  0  0  0  0  0  0
   -1.2663    0.1182    1.2910 C   0  0  0  0  0  0  0  0  0  0  0  0
   -0.1906    0.1931    1.8833 O   0  0  0  0  0  0  0  0  0  0  0  0
   -2.3930    0.6605    1.7722 N   0  0  0  0  0  0  0  0  0  0  0  0
   -3.2451    0.5077    1.2518 H   0  0  0  0  0  0  0  0  0  0  0  0
   -2.4787    1.3954    3.0311 C   0  0  0  0  0  0  0  0  0  0  0  0
   -1.7166    2.1767    3.0539 H   0  0  0  0  0  0  0  0  0  0  0  0
   -3.4649    1.8498    3.1344 H   0  0  0  0  0  0  0  0  0  0  0  0
   -2.3058    0.7133    3.8652 H   0  0  0  0  0  0  0  0  0  0  0  0
  5  6  2  0  0  0  0
  5  7  1  0  0  0  0
  2  3  1  0  0  0  0
  2  4  1  0  0  0  0
  2  5  1  0  0  0  0
  1  2  1  0  0  0  0
 29 30  2  0  0  0  0
 29 31  1  0  0  0  0
 26 27  1  0  0  0  0
 26 28  2  0  0  0  0
 24 25  1  0  0  0  0
 24 26  1  0  0  0  0
 22 23  1  0  0  0  0
 22 24  2  0  0  0  0
 20 21  1  0  0  0  0
 20 22  1  0  0  0  0
 19 20  2  0  0  0  0
 19 28  1  0  0  0  0
 17 18  1  0  0  0  0
 17 19  1  0  0  0  0
 15 16  1  0  0  0  0
 15 17  1  0  0  0  0
 14 15  2  0  0  0  0
 14 28  1  0  0  0  0
 11 12  1  0  0  0  0
 11 13  1  0  0  0  0
 11 14  1  0  0  0  0
  9 10  1  0  0  0  0
  9 11  1  0  0  0  0
  9 29  1  0  0  0  0
  7  8  1  0  0  0  0
  7  9  1  0  0  0  0
 33 34  1  0  0  0  0
 33 35  1  0  0  0  0
 33 36  1  0  0  0  0
 31 32  1  0  0  0  0
 31 33  1  0  0  0  0
M  END
$$$$
default_name
  -OEChem-02102213163D

 36 37  0     1  0  0  0  0  0999 V2000
   -4.0843   -4.0736    1.2944 H   0  0  0  0  0  0  0  0  0  0  0  0
   -4.0342   -3.2816    0.5484 C   0  0  0  0  0  0  0  0  0  0  0  0
   -4.8842   -2.6126    0.6694 H   0  0  0  0  0  0  0  0  0  0  0  0
   -4.0433   -3.7186   -0.4486 H   0  0  0  0  0  0  0  0  0  0  0  0
   -2.7532   -2.5046    0.7444 C   0  0  0  0  0  0  0  0  0  0  0  0
   -1.9803   -2.8096    1.6434 O   0  0  0  0  0  0  0  0  0  0  0  0
   -2.5332   -1.4966   -0.0966 N   0  0  0  0  0  0  0  0  0  0  0  0
   -3.2312   -1.2816   -0.7936 H   0  0  0  0  0  0  0  0  0  0  0  0
   -1.3593   -0.6196   -0.0536 C   0  0  1  0  0  0  0  0  0  0  0  0
   -0.4622   -1.2317   -0.1545 H   0  0  0  0  0  0  0  0  0  0  0  0
   -1.4074    0.3593   -1.2373 C   0  0  0  0  0  0  0  0  0  0  0  0
   -2.1385    1.1397   -1.0187 H   0  0  0  0  0  0  0  0  0  0  0  0
   -0.4313    0.8384   -1.3316 H   0  0  0  0  0  0  0  0  0  0  0  0
   -1.7649   -0.2542   -2.5571 C   0  0  0  0  0  0  0  0  0  0  0  0
   -2.3103   -1.4786   -2.7333 C   0  0  0  0  0  0  0  0  0  0  0  0
   -2.5374   -2.1741   -1.9328 H   0  0  0  0  0  0  0  0  0  0  0  0
   -2.5481   -1.6918   -4.0770 N   0  0  0  0  0  0  0  0  0  0  0  0
   -2.9490   -2.5427   -4.4436 H   0  0  0  0  0  0  0  0  0  0  0  0
   -2.1808   -0.6015   -4.8367 C   0  0  0  0  0  0  0  0  0  0  0  0
   -2.2482   -0.3238   -6.2096 C   0  0  0  0  0  0  0  0  0  0  0  0
   -2.6506   -1.0537   -6.8966 H   0  0  0  0  0  0  0  0  0  0  0  0
   -1.7833    0.9166   -6.6789 C   0  0  0  0  0  0  0  0  0  0  0  0
   -1.8264    1.1479   -7.7346 H   0  0  0  0  0  0  0  0  0  0  0  0
   -1.2550    1.8552   -5.7738 C   0  0  0  0  0  0  0  0  0  0  0  0
   -0.8908    2.8050   -6.1403 H   0  0  0  0  0  0  0  0  0  0  0  0
   -1.1903    1.5646   -4.3963 C   0  0  0  0  0  0  0  0  0  0  0  0
   -0.7699    2.2892   -3.7135 H   0  0  0  0  0  0  0  0  0  0  0  0
   -1.6548    0.3303   -3.8925 C   0  0  0  0  0  0  0  0  0  0  0  0
   -1.2663    0.1182    1.2910 C   0  0  0  0  0  0  0  0  0  0  0  0
   -0.1906    0.1931    1.8833 O   0  0  0  0  0  0  0  0  0  0  0  0
   -2.3930    0.6605    1.7722 N   0  0  0  0  0  0  0  0  0  0  0  0
   -3.2451    0.5077    1.2518 H   0  0  0  0  0  0  0  0  0  0  0  0
   -2.4787    1.3954    3.0311 C   0  0  0  0  0  0  0  0  0  0  0  0
   -1.7166    2.1767    3.0539 H   0  0  0  0  0  0  0  0  0  0  0  0
   -3.4649    1.8498    3.1344 H   0  0  0  0  0  0  0  0  0  0  0  0
   -2.3058    0.7133    3.8652 H   0  0  0  0  0  0  0  0  0  0  0  0
  5  6  2  0  0  0  0
  5  7  1  0  0  0  0
  2  3  1  0  0  0  0
  2  4  1  0  0  0  0
  2  5  1  0  0  0  0
  1  2  1  0  0  0  0
 29 30  2  0  0  0  0
 29 31  1  0  0  0  0
 26 27  1  0  0  0  0
 26 28  2  0  0  0  0
 24 25  1  0  0  0  0
 24 26  1  0  0  0  0
 22 23  1  0  0  0  0
 22 24  2  0  0  0  0
 20 21  1  0  0  0  0
 20 22  1  0  0  0  0
 19 20  2  0  0  0  0
 19 28  1  0  0  0  0
 17 18  1  0  0  0  0
 17 19  1  0  0  0  0
 15 16  1  0  0  0  0
 15 17  1  0  0  0  0
 14 15  2  0  0  0  0
 14 28  1  0  0  0  0
 11 12  1  0  0  0  0
 11 13  1  0  0  0  0
 11 14  1  0  0  0  0
  9 10  1  0  0  0  0
  9 11  1  0  0  0  0
  9 29  1  0  0  0  0
  7  8  1  0  0  0  0
  7  9  1  0  0  0  0
 33 34  1  0  0  0  0
 33 35  1  0  0  0  0
 33 36  1  0  0  0  0
 31 32  1  0  0  0  0
 31 33  1  0  0  0  0
M  END
$$$$
default_name
  -OEChem-02102213163D

 36 37  0     1  0  0  0  0  0999 V2000
   -4.0843   -4.0736    1.2944 H   0  0  0  0  0  0  0  0  0  0  0  0
   -4.0342   -3.2816    0.5484 C   0  0  0  0  0  0  0  0  0  0  0  0
   -4.8842   -2.6126    0.6694 H   0  0  0  0  0  0  0  0  0  0  0  0
   -4.0433   -3.7186   -0.4486 H   0  0  0  0  0  0  0  0  0  0  0  0
   -2.7532   -2.5046    0.7444 C   0  0  0  0  0  0  0  0  0  0  0  0
   -1.9803   -2.8096    1.6434 O   0  0  0  0  0  0  0  0  0  0  0  0
   -2.5332   -1.4966   -0.0966 N   0  0  0  0  0  0  0  0  0  0  0  0
   -3.2312   -1.2816   -0.7936 H   0  0  0  0  0  0  0  0  0  0  0  0
   -1.3593   -0.6196   -0.0536 C   0  0  1  0  0  0  0  0  0  0  0  0
   -0.4622   -1.2317   -0.1545 H   0  0  0  0  0  0  0  0  0  0  0  0
   -1.4074    0.3593   -1.2373 C   0  0  0  0  0  0  0  0  0  0  0  0
   -2.1385    1.1397   -1.0187 H   0  0  0  0  0  0  0  0  0  0  0  0
   -0.4313    0.8384   -1.3316 H   0  0  0  0  0  0  0  0  0  0  0  0
   -1.7649   -0.2542   -2.5571 C   0  0  0  0  0  0  0  0  0  0  0  0
   -2.5585   -1.3344   -2.7331 C   0  0  0  0  0  0  0  0  0  0  0  0
   -3.0183   -1.8999   -1.9300 H   0  0  0  0  0  0  0  0  0  0  0  0
   -2.7052   -1.5876   -4.0828 N   0  0  0  0  0  0  0  0  0  0  0  0
   -3.2538   -2.3515   -4.4499 H   0  0  0  0  0  0  0  0  0  0  0  0
   -2.0225   -0.6670   -4.8491 C   0  0  0  0  0  0  0  0  0  0  0  0
   -1.8880   -0.4837   -6.2328 C   0  0  0  0  0  0  0  0  0  0  0  0
   -2.3783   -1.1533   -6.9240 H   0  0  0  0  0  0  0  0  0  0  0  0
   -1.1047    0.5823   -6.7074 C   0  0  0  0  0  0  0  0  0  0  0  0
   -0.9887    0.7387   -7.7713 H   0  0  0  0  0  0  0  0  0  0  0  0
   -0.4658    1.4427   -5.7959 C   0  0  0  0  0  0  0  0  0  0  0  0
    0.1426    2.2566   -6.1653 H   0  0  0  0  0  0  0  0  0  0  0  0
   -0.6065    1.2478   -4.4072 C   0  0  0  0  0  0  0  0  0  0  0  0
   -0.0995    1.9080   -3.7180 H   0  0  0  0  0  0  0  0  0  0  0  0
   -1.3912    0.1901   -3.8987 C   0  0  0  0  0  0  0  0  0  0  0  0
   -1.2663    0.1182    1.2910 C   0  0  0  0  0  0  0  0  0  0  0  0
   -0.1906    0.1931    1.8833 O   0  0  0  0  0  0  0  0  0  0  0  0
   -2.3930    0.6605    1.7722 N   0  0  0  0  0  0  0  0  0  0  0  0
   -3.2451    0.5077    1.2518 H   0  0  0  0  0  0  0  0  0  0  0  0
   -2.4787    1.3954    3.0311 C   0  0  0  0  0  0  0  0  0  0  0  0
   -1.7166    2.1767    3.0539 H   0  0  0  0  0  0  0  0  0  0  0  0
   -3.4649    1.8498    3.1344 H   0  0  0  0  0  0  0  0  0  0  0  0
   -2.3058    0.7133    3.8652 H   0  0  0  0  0  0  0  0  0  0  0  0
  5  6  2  0  0  0  0
  5  7  1  0  0  0  0
  2  3  1  0  0  0  0
  2  4  1  0  0  0  0
  2  5  1  0  0  0  0
  1  2  1  0  0  0  0
 29 30  2  0  0  0  0
 29 31  1  0  0  0  0
 26 27  1  0  0  0  0
 26 28  2  0  0  0  0
 24 25  1  0  0  0  0
 24 26  1  0  0  0  0
 22 23  1  0  0  0  0
 22 24  2  0  0  0  0
 20 21  1  0  0  0  0
 20 22  1  0  0  0  0
 19 20  2  0  0  0  0
 19 28  1  0  0  0  0
 17 18  1  0  0  0  0
 17 19  1  0  0  0  0
 15 16  1  0  0  0  0
 15 17  1  0  0  0  0
 14 15  2  0  0  0  0
 14 28  1  0  0  0  0
 11 12  1  0  0  0  0
 11 13  1  0  0  0  0
 11 14  1  0  0  0  0
  9 10  1  0  0  0  0
  9 11  1  0  0  0  0
  9 29  1  0  0  0  0
  7  8  1  0  0  0  0
  7  9  1  0  0  0  0
 33 34  1  0  0  0  0
 33 35  1  0  0  0  0
 33 36  1  0  0  0  0
 31 32  1  0  0  0  0
 31 33  1  0  0  0  0
M  END
$$$$
default_name
  -OEChem-02102213163D

 36 37  0     1  0  0  0  0  0999 V2000
   -4.0843   -4.0736    1.2944 H   0  0  0  0  0  0  0  0  0  0  0  0
   -4.0342   -3.2816    0.5484 C   0  0  0  0  0  0  0  0  0  0  0  0
   -4.8842   -2.6126    0.6694 H   0  0  0  0  0  0  0  0  0  0  0  0
   -4.0433   -3.7186   -0.4486 H   0  0  0  0  0  0  0  0  0  0  0  0
   -2.7532   -2.5046    0.7444 C   0  0  0  0  0  0  0  0  0  0  0  0
   -1.9803   -2.8096    1.6434 O   0  0  0  0  0  0  0  0  0  0  0  0
   -2.5332   -1.4966   -0.0966 N   0  0  0  0  0  0  0  0  0  0  0  0
   -3.2312   -1.2816   -0.7936 H   0  0  0  0  0  0  0  0  0  0  0  0
   -1.3593   -0.6196   -0.0536 C   0  0  1  0  0  0  0  0  0  0  0  0
   -0.4622   -1.2317   -0.1545 H   0  0  0  0  0  0  0  0  0  0  0  0
   -1.4074    0.3593   -1.2373 C   0  0  0  0  0  0  0  0  0  0  0  0
   -2.1385    1.1397   -1.0187 H   0  0  0  0  0  0  0  0  0  0  0  0
   -0.4313    0.8384   -1.3316 H   0  0  0  0  0  0  0  0  0  0  0  0
   -1.7649   -0.2542   -2.5571 C   0  0  0  0  0  0  0  0  0  0  0  0
   -2.7654   -1.1386   -2.7681 C   0  0  0  0  0  0  0  0  0  0  0  0
   -3.4205   -1.5253   -1.9952 H   0  0  0  0  0  0  0  0  0  0  0  0
   -2.8326   -1.4516   -4.1116 N   0  0  0  0  0  0  0  0  0  0  0  0
   -3.5040   -2.0978   -4.5000 H   0  0  0  0  0  0  0  0  0  0  0  0
   -1.8833   -0.7671   -4.8403 C   0  0  0  0  0  0  0  0  0  0  0  0
   -1.5739   -0.7217   -6.2073 C   0  0  0  0  0  0  0  0  0  0  0  0
   -2.1351   -1.3133   -6.9155 H   0  0  0  0  0  0  0  0  0  0  0  0
   -0.5225    0.1031   -6.6423 C   0  0  0  0  0  0  0  0  0  0  0  0
   -0.2689    0.1501   -7.6928 H   0  0  0  0  0  0  0  0  0  0  0  0
    0.2048    0.8631   -5.7081 C   0  0  0  0  0  0  0  0  0  0  0  0
    1.0184    1.4899   -6.0462 H   0  0  0  0  0  0  0  0  0  0  0  0
   -0.1136    0.8080   -4.3363 C   0  0  0  0  0  0  0  0  0  0  0  0
    0.4617    1.3867   -3.6276 H   0  0  0  0  0  0  0  0  0  0  0  0
   -1.1679   -0.0057   -3.8682 C   0  0  0  0  0  0  0  0  0  0  0  0
   -1.2663    0.1182    1.2910 C   0  0  0  0  0  0  0  0  0  0  0  0
   -0.1906    0.1931    1.8833 O   0  0  0  0  0  0  0  0  0  0  0  0
   -2.3930    0.6605    1.7722 N   0  0  0  0  0  0  0  0  0  0  0  0
   -3.2451    0.5077    1.2518 H   0  0  0  0  0  0  0  0  0  0  0  0
   -2.4787    1.3954    3.0311 C   0  0  0  0  0  0  0  0  0  0  0  0
   -1.7166    2.1767    3.0539 H   0  0  0  0  0  0  0  0  0  0  0  0
   -3.4649    1.8498    3.1344 H   0  0  0  0  0  0  0  0  0  0  0  0
   -2.3058    0.7133    3.8652 H   0  0  0  0  0  0  0  0  0  0  0  0
  5  6  2  0  0  0  0
  5  7  1  0  0  0  0
  2  3  1  0  0  0  0
  2  4  1  0  0  0  0
  2  5  1  0  0  0  0
  1  2  1  0  0  0  0
 29 30  2  0  0  0  0
 29 31  1  0  0  0  0
 26 27  1  0  0  0  0
 26 28  2  0  0  0  0
 24 25  1  0  0  0  0
 24 26  1  0  0  0  0
 22 23  1  0  0  0  0
 22 24  2  0  0  0  0
 20 21  1  0  0  0  0
 20 22  1  0  0  0  0
 19 20  2  0  0  0  0
 19 28  1  0  0  0  0
 17 18  1  0  0  0  0
 17 19  1  0  0  0  0
 15 16  1  0  0  0  0
 15 17  1  0  0  0  0
 14 15  2  0  0  0  0
 14 28  1  0  0  0  0
 11 12  1  0  0  0  0
 11 13  1  0  0  0  0
 11 14  1  0  0  0  0
  9 10  1  0  0  0  0
  9 11  1  0  0  0  0
  9 29  1  0  0  0  0
  7  8  1  0  0  0  0
  7  9  1  0  0  0  0
 33 34  1  0  0  0  0
 33 35  1  0  0  0  0
 33 36  1  0  0  0  0
 31 32  1  0  0  0  0
 31 33  1  0  0  0  0
M  END
$$$$
default_name
  -OEChem-02102213163D

 36 37  0     1  0  0  0  0  0999 V2000
   -4.0843   -4.0736    1.2944 H   0  0  0  0  0  0  0  0  0  0  0  0
   -4.0342   -3.2816    0.5484 C   0  0  0  0  0  0  0  0  0  0  0  0
   -4.8842   -2.6126    0.6694 H   0  0  0  0  0  0  0  0  0  0  0  0
   -4.0433   -3.7186   -0.4486 H   0  0  0  0  0  0  0  0  0  0  0  0
   -2.7532   -2.5046    0.7444 C   0  0  0  0  0  0  0  0  0  0  0  0
   -1.9803   -2.8096    1.6434 O   0  0  0  0  0  0  0  0  0  0  0  0
   -2.5332   -1.4966   -0.0966 N   0  0  0  0  0  0  0  0  0  0  0  0
   -3.2312   -1.2816   -0.7936 H   0  0  0  0  0  0  0  0  0  0  0  0
   -1.3593   -0.6196   -0.0536 C   0  0  1  0  0  0  0  0  0  0  0  0
   -0.4622   -1.2317   -0.1545 H   0  0  0  0  0  0  0  0  0  0  0  0
   -1.4074    0.3593   -1.2373 C   0  0  0  0  0  0  0  0  0  0  0  0
   -2.1385    1.1397   -1.0187 H   0  0  0  0  0  0  0  0  0  0  0  0
   -0.4313    0.8384   -1.3316 H   0  0  0  0  0  0  0  0  0  0  0  0
   -1.7649   -0.2542   -2.5571 C   0  0  0  0  0  0  0  0  0  0  0  0
   -2.9169   -0.9044   -2.8359 C   0  0  0  0  0  0  0  0  0  0  0  0
   -3.7168   -1.0758   -2.1239 H   0  0  0  0  0  0  0  0  0  0  0  0
   -2.9216   -1.2929   -4.1612 N   0  0  0  0  0  0  0  0  0  0  0  0
   -3.6824   -1.7988   -4.5907 H   0  0  0  0  0  0  0  0  0  0  0  0
   -1.7725   -0.8950   -4.8109 C   0  0  0  0  0  0  0  0  0  0  0  0
   -1.3275   -1.0215   -6.1346 C   0  0  0  0  0  0  0  0  0  0  0  0
   -1.9376   -1.5228   -6.8717 H   0  0  0  0  0  0  0  0  0  0  0  0
   -0.0762   -0.4885   -6.4882 C   0  0  0  0  0  0  0  0  0  0  0  0
    0.2839   -0.5775   -7.5043 H   0  0  0  0  0  0  0  0  0  0  0  0
    0.7112    0.1557   -5.5164 C   0  0  0  0  0  0  0  0  0  0  0  0
    1.6770    0.5570   -5.7909 H   0  0  0  0  0  0  0  0  0  0  0  0
    0.2547    0.2753   -4.1884 C   0  0  0  0  0  0  0  0  0  0  0  0
    0.8754    0.7608   -3.4488 H   0  0  0  0  0  0  0  0  0  0  0  0
   -1.0001   -0.2439   -3.8029 C   0  0  0  0  0  0  0  0  0  0  0  0
   -1.2663    0.1182    1.2910 C   0  0  0  0  0  0  0  0  0  0  0  0
   -0.1906    0.1931    1.8833 O   0  0  0  0  0  0  0  0  0  0  0  0
   -2.3930    0.6605    1.7722 N   0  0  0  0  0  0  0  0  0  0  0  0
   -3.2451    0.5077    1.2518 H   0  0  0  0  0  0  0  0  0  0  0  0
   -2.4787    1.3954    3.0311 C   0  0  0  0  0  0  0  0  0  0  0  0
   -1.7166    2.1767    3.0539 H   0  0  0  0  0  0  0  0  0  0  0  0
   -3.4649    1.8498    3.1344 H   0  0  0  0  0  0  0  0  0  0  0  0
   -2.3058    0.7133    3.8652 H   0  0  0  0  0  0  0  0  0  0  0  0
  5  6  2  0  0  0  0
  5  7  1  0  0  0  0
  2  3  1  0  0  0  0
  2  4  1  0  0  0  0
  2  5  1  0  0  0  0
  1  2  1  0  0  0  0
 29 30  2  0  0  0  0
 29 31  1  0  0  0  0
 26 27  1  0  0  0  0
 26 28  2  0  0  0  0
 24 25  1  0  0  0  0
 24 26  1  0  0  0  0
 22 23  1  0  0  0  0
 22 24  2  0  0  0  0
 20 21  1  0  0  0  0
 20 22  1  0  0  0  0
 19 20  2  0  0  0  0
 19 28  1  0  0  0  0
 17 18  1  0  0  0  0
 17 19  1  0  0  0  0
 15 16  1  0  0  0  0
 15 17  1  0  0  0  0
 14 15  2  0  0  0  0
 14 28  1  0  0  0  0
 11 12  1  0  0  0  0
 11 13  1  0  0  0  0
 11 14  1  0  0  0  0
  9 10  1  0  0  0  0
  9 11  1  0  0  0  0
  9 29  1  0  0  0  0
  7  8  1  0  0  0  0
  7  9  1  0  0  0  0
 33 34  1  0  0  0  0
 33 35  1  0  0  0  0
 33 36  1  0  0  0  0
 31 32  1  0  0  0  0
 31 33  1  0  0  0  0
M  END
$$$$
default_name
  -OEChem-02102213163D

 36 37  0     1  0  0  0  0  0999 V2000
   -4.0843   -4.0736    1.2944 H   0  0  0  0  0  0  0  0  0  0  0  0
   -4.0342   -3.2816    0.5484 C   0  0  0  0  0  0  0  0  0  0  0  0
   -4.8842   -2.6126    0.6694 H   0  0  0  0  0  0  0  0  0  0  0  0
   -4.0433   -3.7186   -0.4486 H   0  0  0  0  0  0  0  0  0  0  0  0
   -2.7532   -2.5046    0.7444 C   0  0  0  0  0  0  0  0  0  0  0  0
   -1.9803   -2.8096    1.6434 O   0  0  0  0  0  0  0  0  0  0  0  0
   -2.5332   -1.4966   -0.0966 N   0  0  0  0  0  0  0  0  0  0  0  0
   -3.2312   -1.2816   -0.7936 H   0  0  0  0  0  0  0  0  0  0  0  0
   -1.3593   -0.6196   -0.0536 C   0  0  1  0  0  0  0  0  0  0  0  0
   -0.4622   -1.2317   -0.1545 H   0  0  0  0  0  0  0  0  0  0  0  0
   -1.4074    0.3593   -1.2373 C   0  0  0  0  0  0  0  0  0  0  0  0
   -2.1385    1.1397   -1.0187 H   0  0  0  0  0  0  0  0  0  0  0  0
   -0.4313    0.8384   -1.3316 H   0  0  0  0  0  0  0  0  0  0  0  0
   -1.7649   -0.2542   -2.5571 C   0  0  0  0  0  0  0  0  0  0  0  0
   -3.0027   -0.6479   -2.9319 C   0  0  0  0  0  0  0  0  0  0  0  0
   -3.8869   -0.5821   -2.3073 H   0  0  0  0  0  0  0  0  0  0  0  0
   -2.9662   -1.1224   -4.2284 N   0  0  0  0  0  0  0  0  0  0  0  0
   -3.7771   -1.4748   -4.7156 H   0  0  0  0  0  0  0  0  0  0  0  0
   -1.6978   -1.0420   -4.7628 C   0  0  0  0  0  0  0  0  0  0  0  0
   -1.1656   -1.3628   -6.0198 C   0  0  0  0  0  0  0  0  0  0  0  0
   -1.7991   -1.7675   -6.7954 H   0  0  0  0  0  0  0  0  0  0  0  0
    0.2037   -1.1522   -6.2555 C   0  0  0  0  0  0  0  0  0  0  0  0
    0.6321   -1.3947   -7.2187 H   0  0  0  0  0  0  0  0  0  0  0  0
    1.0188   -0.6311   -5.2340 C   0  0  0  0  0  0  0  0  0  0  0  0
    2.0734   -0.4784   -5.4170 H   0  0  0  0  0  0  0  0  0  0  0  0
    0.4735   -0.3141   -3.9737 C   0  0  0  0  0  0  0  0  0  0  0  0
    1.1134    0.0730   -3.1935 H   0  0  0  0  0  0  0  0  0  0  0  0
   -0.8993   -0.5082   -3.7074 C   0  0  0  0  0  0  0  0  0  0  0  0
   -1.2663    0.1182    1.2910 C   0  0  0  0  0  0  0  0  0  0  0  0
   -0.1906    0.1931    1.8833 O   0  0  0  0  0  0  0  0  0  0  0  0
   -2.3930    0.6605    1.7722 N   0  0  0  0  0  0  0  0  0  0  0  0
   -3.2451    0.5077    1.2518 H   0  0  0  0  0  0  0  0  0  0  0  0
   -2.4787    1.3954    3.0311 C   0  0  0  0  0  0  0  0  0  0  0  0
   -1.7166    2.1767    3.0539 H   0  0  0  0  0  0  0  0  0  0  0  0
   -3.4649    1.8498    3.1344 H   0  0  0  0  0  0  0  0  0  0  0  0
   -2.3058    0.7133    3.8652 H   0  0  0  0  0  0  0  0  0  0  0  0
  5  6  2  0  0  0  0
  5  7  1  0  0  0  0
  2  3  1  0  0  0  0
  2  4  1  0  0  0  0
  2  5  1  0  0  0  0
  1  2  1  0  0  0  0
 29 30  2  0  0  0  0
 29 31  1  0  0  0  0
 26 27  1  0  0  0  0
 26 28  2  0  0  0  0
 24 25  1  0  0  0  0
 24 26  1  0  0  0  0
 22 23  1  0  0  0  0
 22 24  2  0  0  0  0
 20 21  1  0  0  0  0
 20 22  1  0  0  0  0
 19 20  2  0  0  0  0
 19 28  1  0  0  0  0
 17 18  1  0  0  0  0
 17 19  1  0  0  0  0
 15 16  1  0  0  0  0
 15 17  1  0  0  0  0
 14 15  2  0  0  0  0
 14 28  1  0  0  0  0
 11 12  1  0  0  0  0
 11 13  1  0  0  0  0
 11 14  1  0  0  0  0
  9 10  1  0  0  0  0
  9 11  1  0  0  0  0
  9 29  1  0  0  0  0
  7  8  1  0  0  0  0
  7  9  1  0  0  0  0
 33 34  1  0  0  0  0
 33 35  1  0  0  0  0
 33 36  1  0  0  0  0
 31 32  1  0  0  0  0
 31 33  1  0  0  0  0
M  END
$$$$
default_name
  -OEChem-02102213163D

 36 37  0     1  0  0  0  0  0999 V2000
   -4.0843   -4.0736    1.2944 H   0  0  0  0  0  0  0  0  0  0  0  0
   -4.0342   -3.2816    0.5484 C   0  0  0  0  0  0  0  0  0  0  0  0
   -4.8842   -2.6126    0.6694 H   0  0  0  0  0  0  0  0  0  0  0  0
   -4.0433   -3.7186   -0.4486 H   0  0  0  0  0  0  0  0  0  0  0  0
   -2.7532   -2.5046    0.7444 C   0  0  0  0  0  0  0  0  0  0  0  0
   -1.9803   -2.8096    1.6434 O   0  0  0  0  0  0  0  0  0  0  0  0
   -2.5332   -1.4966   -0.0966 N   0  0  0  0  0  0  0  0  0  0  0  0
   -3.2312   -1.2816   -0.7936 H   0  0  0  0  0  0  0  0  0  0  0  0
   -1.3593   -0.6196   -0.0536 C   0  0  1  0  0  0  0  0  0  0  0  0
   -0.4622   -1.2317   -0.1545 H   0  0  0  0  0  0  0  0  0  0  0  0
   -1.4074    0.3593   -1.2373 C   0  0  0  0  0  0  0  0  0  0  0  0
   -2.1385    1.1397   -1.0187 H   0  0  0  0  0  0  0  0  0  0  0  0
   -0.4313    0.8384   -1.3316 H   0  0  0  0  0  0  0  0  0  0  0  0
   -1.7649   -0.2542   -2.5571 C   0  0  0  0  0  0  0  0  0  0  0  0
   -3.0169   -0.3865   -3.0496 C   0  0  0  0  0  0  0  0  0  0  0  0
   -3.9192   -0.0777   -2.5330 H   0  0  0  0  0  0  0  0  0  0  0  0
   -2.9632   -0.9517   -4.3086 N   0  0  0  0  0  0  0  0  0  0  0  0
   -3.7814   -1.1481   -4.8664 H   0  0  0  0  0  0  0  0  0  0  0  0
   -1.6642   -1.1980   -4.6994 C   0  0  0  0  0  0  0  0  0  0  0  0
   -1.0991   -1.7223   -5.8707 C   0  0  0  0  0  0  0  0  0  0  0  0
   -1.7292   -2.0306   -6.6920 H   0  0  0  0  0  0  0  0  0  0  0  0
    0.2982   -1.8427   -5.9602 C   0  0  0  0  0  0  0  0  0  0  0  0
    0.7518   -2.2458   -6.8555 H   0  0  0  0  0  0  0  0  0  0  0  0
    1.1066   -1.4438   -4.8800 C   0  0  0  0  0  0  0  0  0  0  0  0
    2.1808   -1.5459   -4.9498 H   0  0  0  0  0  0  0  0  0  0  0  0
    0.5276   -0.9200   -3.7067 C   0  0  0  0  0  0  0  0  0  0  0  0
    1.1594   -0.6298   -2.8792 H   0  0  0  0  0  0  0  0  0  0  0  0
   -0.8722   -0.7806   -3.5881 C   0  0  0  0  0  0  0  0  0  0  0  0
   -1.2663    0.1182    1.2910 C   0  0  0  0  0  0  0  0  0  0  0  0
   -0.1906    0.1931    1.8833 O   0  0  0  0  0  0  0  0  0  0  0  0
   -2.3930    0.6605    1.7722 N   0  0  0  0  0  0  0  0  0  0  0  0
   -3.2451    0.5077    1.2518 H   0  0  0  0  0  0  0  0  0  0  0  0
   -2.4787    1.3954    3.0311 C   0  0  0  0  0  0  0  0  0  0  0  0
   -1.7166    2.1767    3.0539 H   0  0  0  0  0  0  0  0  0  0  0  0
   -3.4649    1.8498    3.1344 H   0  0  0  0  0  0  0  0  0  0  0  0
   -2.3058    0.7133    3.8652 H   0  0  0  0  0  0  0  0  0  0  0  0
  5  6  2  0  0  0  0
  5  7  1  0  0  0  0
  2  3  1  0  0  0  0
  2  4  1  0  0  0  0
  2  5  1  0  0  0  0
  1  2  1  0  0  0  0
 29 30  2  0  0  0  0
 29 31  1  0  0  0  0
 26 27  1  0  0  0  0
 26 28  2  0  0  0  0
 24 25  1  0  0  0  0
 24 26  1  0  0  0  0
 22 23  1  0  0  0  0
 22 24  2  0  0  0  0
 20 21  1  0  0  0  0
 20 22  1  0  0  0  0
 19 20  2  0  0  0  0
 19 28  1  0  0  0  0
 17 18  1  0  0  0  0
 17 19  1  0  0  0  0
 15 16  1  0  0  0  0
 15 17  1  0  0  0  0
 14 15  2  0  0  0  0
 14 28  1  0  0  0  0
 11 12  1  0  0  0  0
 11 13  1  0  0  0  0
 11 14  1  0  0  0  0
  9 10  1  0  0  0  0
  9 11  1  0  0  0  0
  9 29  1  0  0  0  0
  7  8  1  0  0  0  0
  7  9  1  0  0  0  0
 33 34  1  0  0  0  0
 33 35  1  0  0  0  0
 33 36  1  0  0  0  0
 31 32  1  0  0  0  0
 31 33  1  0  0  0  0
M  END
$$$$
default_name
  -OEChem-02102213163D

 36 37  0     1  0  0  0  0  0999 V2000
   -4.0843   -4.0736    1.2944 H   0  0  0  0  0  0  0  0  0  0  0  0
   -4.0342   -3.2816    0.5484 C   0  0  0  0  0  0  0  0  0  0  0  0
   -4.8842   -2.6126    0.6694 H   0  0  0  0  0  0  0  0  0  0  0  0
   -4.0433   -3.7186   -0.4486 H   0  0  0  0  0  0  0  0  0  0  0  0
   -2.7532   -2.5046    0.7444 C   0  0  0  0  0  0  0  0  0  0  0  0
   -1.9803   -2.8096    1.6434 O   0  0  0  0  0  0  0  0  0  0  0  0
   -2.5332   -1.4966   -0.0966 N   0  0  0  0  0  0  0  0  0  0  0  0
   -3.2312   -1.2816   -0.7936 H   0  0  0  0  0  0  0  0  0  0  0  0
   -1.3593   -0.6196   -0.0536 C   0  0  1  0  0  0  0  0  0  0  0  0
   -0.4622   -1.2317   -0.1545 H   0  0  0  0  0  0  0  0  0  0  0  0
   -1.4074    0.3593   -1.2373 C   0  0  0  0  0  0  0  0  0  0  0  0
   -2.1385    1.1397   -1.0187 H   0  0  0  0  0  0  0  0  0  0  0  0
   -0.4313    0.8384   -1.3316 H   0  0  0  0  0  0  0  0  0  0  0  0
   -1.7649   -0.2542   -2.5571 C   0  0  0  0  0  0  0  0  0  0  0  0
   -2.9587   -0.1380   -3.1809 C   0  0  0  0  0  0  0  0  0  0  0  0
   -3.8115    0.4029   -2.7856 H   0  0  0  0  0  0  0  0  0  0  0  0
   -2.9130   -0.7924   -4.3962 N   0  0  0  0  0  0  0  0  0  0  0  0
   -3.6952   -0.8408   -5.0326 H   0  0  0  0  0  0  0  0  0  0  0  0
   -1.6741   -1.3525   -4.6249 C   0  0  0  0  0  0  0  0  0  0  0  0
   -1.1327   -2.0755   -5.6975 C   0  0  0  0  0  0  0  0  0  0  0  0
   -1.7327   -2.2944   -6.5685 H   0  0  0  0  0  0  0  0  0  0  0  0
    0.2008   -2.5129   -5.6222 C   0  0  0  0  0  0  0  0  0  0  0  0
    0.6350   -3.0728   -6.4394 H   0  0  0  0  0  0  0  0  0  0  0  0
    0.9688   -2.2270   -4.4786 C   0  0  0  0  0  0  0  0  0  0  0  0
    1.9917   -2.5725   -4.4213 H   0  0  0  0  0  0  0  0  0  0  0  0
    0.4136   -1.5011   -3.4057 C   0  0  0  0  0  0  0  0  0  0  0  0
    1.0104   -1.2998   -2.5274 H   0  0  0  0  0  0  0  0  0  0  0  0
   -0.9207   -1.0425   -3.4532 C   0  0  0  0  0  0  0  0  0  0  0  0
   -1.2663    0.1182    1.2910 C   0  0  0  0  0  0  0  0  0  0  0  0
   -0.1906    0.1931    1.8833 O   0  0  0  0  0  0  0  0  0  0  0  0
   -2.3930    0.6605    1.7722 N   0  0  0  0  0  0  0  0  0  0  0  0
   -3.2451    0.5077    1.2518 H   0  0  0  0  0  0  0  0  0  0  0  0
   -2.4787    1.3954    3.0311 C   0  0  0  0  0  0  0  0  0  0  0  0
   -1.7166    2.1767    3.0539 H   0  0  0  0  0  0  0  0  0  0  0  0
   -3.4649    1.8498    3.1344 H   0  0  0  0  0  0  0  0  0  0  0  0
   -2.3058    0.7133    3.8652 H   0  0  0  0  0  0  0  0  0  0  0  0
  5  6  2  0  0  0  0
  5  7  1  0  0  0  0
  2  3  1  0  0  0  0
  2  4  1  0  0  0  0
  2  5  1  0  0  0  0
  1  2  1  0  0  0  0
 29 30  2  0  0  0  0
 29 31  1  0  0  0  0
 26 27  1  0  0  0  0
 26 28  2  0  0  0  0
 24 25  1  0  0  0  0
 24 26  1  0  0  0  0
 22 23  1  0  0  0  0
 22 24  2  0  0  0  0
 20 21  1  0  0  0  0
 20 22  1  0  0  0  0
 19 20  2  0  0  0  0
 19 28  1  0  0  0  0
 17 18  1  0  0  0  0
 17 19  1  0  0  0  0
 15 16  1  0  0  0  0
 15 17  1  0  0  0  0
 14 15  2  0  0  0  0
 14 28  1  0  0  0  0
 11 12  1  0  0  0  0
 11 13  1  0  0  0  0
 11 14  1  0  0  0  0
  9 10  1  0  0  0  0
  9 11  1  0  0  0  0
  9 29  1  0  0  0  0
  7  8  1  0  0  0  0
  7  9  1  0  0  0  0
 33 34  1  0  0  0  0
 33 35  1  0  0  0  0
 33 36  1  0  0  0  0
 31 32  1  0  0  0  0
 31 33  1  0  0  0  0
M  END
$$$$
default_name
  -OEChem-02102213163D

 36 37  0     1  0  0  0  0  0999 V2000
   -4.0843   -4.0736    1.2944 H   0  0  0  0  0  0  0  0  0  0  0  0
   -4.0342   -3.2816    0.5484 C   0  0  0  0  0  0  0  0  0  0  0  0
   -4.8842   -2.6126    0.6694 H   0  0  0  0  0  0  0  0  0  0  0  0
   -4.0433   -3.7186   -0.4486 H   0  0  0  0  0  0  0  0  0  0  0  0
   -2.7532   -2.5046    0.7444 C   0  0  0  0  0  0  0  0  0  0  0  0
   -1.9803   -2.8096    1.6434 O   0  0  0  0  0  0  0  0  0  0  0  0
   -2.5332   -1.4966   -0.0966 N   0  0  0  0  0  0  0  0  0  0  0  0
   -3.2312   -1.2816   -0.7936 H   0  0  0  0  0  0  0  0  0  0  0  0
   -1.3593   -0.6196   -0.0536 C   0  0  1  0  0  0  0  0  0  0  0  0
   -0.4622   -1.2317   -0.1545 H   0  0  0  0  0  0  0  0  0  0  0  0
   -1.4074    0.3593   -1.2373 C   0  0  0  0  0  0  0  0  0  0  0  0
   -2.1385    1.1397   -1.0187 H   0  0  0  0  0  0  0  0  0  0  0  0
   -0.4313    0.8384   -1.3316 H   0  0  0  0  0  0  0  0  0  0  0  0
   -1.7649   -0.2542   -2.5571 C   0  0  0  0  0  0  0  0  0  0  0  0
   -2.8318    0.0807   -3.3169 C   0  0  0  0  0  0  0  0  0  0  0  0
   -3.5712    0.8270   -3.0479 H   0  0  0  0  0  0  0  0  0  0  0  0
   -2.8188   -0.6555   -4.4854 N   0  0  0  0  0  0  0  0  0  0  0  0
   -3.5243   -0.5739   -5.2030 H   0  0  0  0  0  0  0  0  0  0  0  0
   -1.7267   -1.4948   -4.5445 C   0  0  0  0  0  0  0  0  0  0  0  0
   -1.2639   -2.3984   -5.5118 C   0  0  0  0  0  0  0  0  0  0  0  0
   -1.8092   -2.5407   -6.4332 H   0  0  0  0  0  0  0  0  0  0  0  0
   -0.0819   -3.1172   -5.2647 C   0  0  0  0  0  0  0  0  0  0  0  0
    0.2897   -3.8193   -5.9988 H   0  0  0  0  0  0  0  0  0  0  0  0
    0.6145   -2.9272   -4.0571 C   0  0  0  0  0  0  0  0  0  0  0  0
    1.5190   -3.4885   -3.8675 H   0  0  0  0  0  0  0  0  0  0  0  0
    0.1391   -2.0178   -3.0911 C   0  0  0  0  0  0  0  0  0  0  0  0
    0.6765   -1.8913   -2.1620 H   0  0  0  0  0  0  0  0  0  0  0  0
   -1.0416   -1.2761   -3.3119 C   0  0  0  0  0  0  0  0  0  0  0  0
   -1.2663    0.1182    1.2910 C   0  0  0  0  0  0  0  0  0  0  0  0
   -0.1906    0.1931    1.8833 O   0  0  0  0  0  0  0  0  0  0  0  0
   -2.3930    0.6605    1.7722 N   0  0  0  0  0  0  0  0  0  0  0  0
   -3.2451    0.5077    1.2518 H   0  0  0  0  0  0  0  0  0  0  0  0
   -2.4787    1.3954    3.0311 C   0  0  0  0  0  0  0  0  0  0  0  0
   -1.7166    2.1767    3.0539 H   0  0  0  0  0  0  0  0  0  0  0  0
   -3.4649    1.8498    3.1344 H   0  0  0  0  0  0  0  0  0  0  0  0
   -2.3058    0.7133    3.8652 H   0  0  0  0  0  0  0  0  0  0  0  0
  5  6  2  0  0  0  0
  5  7  1  0  0  0  0
  2  3  1  0  0  0  0
  2  4  1  0  0  0  0
  2  5  1  0  0  0  0
  1  2  1  0  0  0  0
 29 30  2  0  0  0  0
 29 31  1  0  0  0  0
 26 27  1  0  0  0  0
 26 28  2  0  0  0  0
 24 25  1  0  0  0  0
 24 26  1  0  0  0  0
 22 23  1  0  0  0  0
 22 24  2  0  0  0  0
 20 21  1  0  0  0  0
 20 22  1  0  0  0  0
 19 20  2  0  0  0  0
 19 28  1  0  0  0  0
 17 18  1  0  0  0  0
 17 19  1  0  0  0  0
 15 16  1  0  0  0  0
 15 17  1  0  0  0  0
 14 15  2  0  0  0  0
 14 28  1  0  0  0  0
 11 12  1  0  0  0  0
 11 13  1  0  0  0  0
 11 14  1  0  0  0  0
  9 10  1  0  0  0  0
  9 11  1  0  0  0  0
  9 29  1  0  0  0  0
  7  8  1  0  0  0  0
  7  9  1  0  0  0  0
 33 34  1  0  0  0  0
 33 35  1  0  0  0  0
 33 36  1  0  0  0  0
 31 32  1  0  0  0  0
 31 33  1  0  0  0  0
M  END
$$$$
default_name
  -OEChem-02102213163D

 36 37  0     1  0  0  0  0  0999 V2000
   -4.0843   -4.0736    1.2944 H   0  0  0  0  0  0  0  0  0  0  0  0
   -4.0342   -3.2816    0.5484 C   0  0  0  0  0  0  0  0  0  0  0  0
   -4.8842   -2.6126    0.6694 H   0  0  0  0  0  0  0  0  0  0  0  0
   -4.0433   -3.7186   -0.4486 H   0  0  0  0  0  0  0  0  0  0  0  0
   -2.7532   -2.5046    0.7444 C   0  0  0  0  0  0  0  0  0  0  0  0
   -1.9803   -2.8096    1.6434 O   0  0  0  0  0  0  0  0  0  0  0  0
   -2.5332   -1.4966   -0.0966 N   0  0  0  0  0  0  0  0  0  0  0  0
   -3.2312   -1.2816   -0.7936 H   0  0  0  0  0  0  0  0  0  0  0  0
   -1.3593   -0.6196   -0.0536 C   0  0  1  0  0  0  0  0  0  0  0  0
   -0.4622   -1.2317   -0.1545 H   0  0  0  0  0  0  0  0  0  0  0  0
   -1.4074    0.3593   -1.2373 C   0  0  0  0  0  0  0  0  0  0  0  0
   -2.1385    1.1397   -1.0187 H   0  0  0  0  0  0  0  0  0  0  0  0
   -0.4313    0.8384   -1.3316 H   0  0  0  0  0  0  0  0  0  0  0  0
   -1.7649   -0.2542   -2.5571 C   0  0  0  0  0  0  0  0  0  0  0  0
   -2.6450    0.2545   -3.4483 C   0  0  0  0  0  0  0  0  0  0  0  0
   -3.2147    1.1657   -3.3019 H   0  0  0  0  0  0  0  0  0  0  0  0
   -2.6873   -0.5501   -4.5700 N   0  0  0  0  0  0  0  0  0  0  0  0
   -3.2803   -0.3655   -5.3659 H   0  0  0  0  0  0  0  0  0  0  0  0
   -1.8184   -1.6153   -4.4636 C   0  0  0  0  0  0  0  0  0  0  0  0
   -1.4839   -2.6688   -5.3265 C   0  0  0  0  0  0  0  0  0  0  0  0
   -1.9536   -2.7529   -6.2955 H   0  0  0  0  0  0  0  0  0  0  0  0
   -0.5305   -3.6145   -4.9120 C   0  0  0  0  0  0  0  0  0  0  0  0
   -0.2607   -4.4344   -5.5637 H   0  0  0  0  0  0  0  0  0  0  0  0
    0.0681   -3.4969   -3.6443 C   0  0  0  0  0  0  0  0  0  0  0  0
    0.7950   -4.2313   -3.3260 H   0  0  0  0  0  0  0  0  0  0  0  0
   -0.2772   -2.4350   -2.7844 C   0  0  0  0  0  0  0  0  0  0  0  0
    0.1804   -2.3639   -1.8079 H   0  0  0  0  0  0  0  0  0  0  0  0
   -1.2266   -1.4654   -3.1737 C   0  0  0  0  0  0  0  0  0  0  0  0
   -1.2663    0.1182    1.2910 C   0  0  0  0  0  0  0  0  0  0  0  0
   -0.1906    0.1931    1.8833 O   0  0  0  0  0  0  0  0  0  0  0  0
   -2.3930    0.6605    1.7722 N   0  0  0  0  0  0  0  0  0  0  0  0
   -3.2451    0.5077    1.2518 H   0  0  0  0  0  0  0  0  0  0  0  0
   -2.4787    1.3954    3.0311 C   0  0  0  0  0  0  0  0  0  0  0  0
   -1.7166    2.1767    3.0539 H   0  0  0  0  0  0  0  0  0  0  0  0
   -3.4649    1.8498    3.1344 H   0  0  0  0  0  0  0  0  0  0  0  0
   -2.3058    0.7133    3.8652 H   0  0  0  0  0  0  0  0  0  0  0  0
  5  6  2  0  0  0  0
  5  7  1  0  0  0  0
  2  3  1  0  0  0  0
  2  4  1  0  0  0  0
  2  5  1  0  0  0  0
  1  2  1  0  0  0  0
 29 30  2  0  0  0  0
 29 31  1  0  0  0  0
 26 27  1  0  0  0  0
 26 28  2  0  0  0  0
 24 25  1  0  0  0  0
 24 26  1  0  0  0  0
 22 23  1  0  0  0  0
 22 24  2  0  0  0  0
 20 21  1  0  0  0  0
 20 22  1  0  0  0  0
 19 20  2  0  0  0  0
 19 28  1  0  0  0  0
 17 18  1  0  0  0  0
 17 19  1  0  0  0  0
 15 16  1  0  0  0  0
 15 17  1  0  0  0  0
 14 15  2  0  0  0  0
 14 28  1  0  0  0  0
 11 12  1  0  0  0  0
 11 13  1  0  0  0  0
 11 14  1  0  0  0  0
  9 10  1  0  0  0  0
  9 11  1  0  0  0  0
  9 29  1  0  0  0  0
  7  8  1  0  0  0  0
  7  9  1  0  0  0  0
 33 34  1  0  0  0  0
 33 35  1  0  0  0  0
 33 36  1  0  0  0  0
 31 32  1  0  0  0  0
 31 33  1  0  0  0  0
M  END
$$$$
default_name
  -OEChem-02102213163D

 36 37  0     1  0  0  0  0  0999 V2000
   -4.0843   -4.0736    1.2944 H   0  0  0  0  0  0  0  0  0  0  0  0
   -4.0342   -3.2816    0.5484 C   0  0  0  0  0  0  0  0  0  0  0  0
   -4.8842   -2.6126    0.6694 H   0  0  0  0  0  0  0  0  0  0  0  0
   -4.0433   -3.7186   -0.4486 H   0  0  0  0  0  0  0  0  0  0  0  0
   -2.7532   -2.5046    0.7444 C   0  0  0  0  0  0  0  0  0  0  0  0
   -1.9803   -2.8096    1.6434 O   0  0  0  0  0  0  0  0  0  0  0  0
   -2.5332   -1.4966   -0.0966 N   0  0  0  0  0  0  0  0  0  0  0  0
   -3.2312   -1.2816   -0.7936 H   0  0  0  0  0  0  0  0  0  0  0  0
   -1.3593   -0.6196   -0.0536 C   0  0  1  0  0  0  0  0  0  0  0  0
   -0.4622   -1.2317   -0.1545 H   0  0  0  0  0  0  0  0  0  0  0  0
   -1.4074    0.3593   -1.2373 C   0  0  0  0  0  0  0  0  0  0  0  0
   -2.1385    1.1397   -1.0187 H   0  0  0  0  0  0  0  0  0  0  0  0
   -0.4313    0.8384   -1.3316 H   0  0  0  0  0  0  0  0  0  0  0  0
   -1.7649   -0.2542   -2.5571 C   0  0  0  0  0  0  0  0  0  0  0  0
   -2.4110    0.3718   -3.5662 C   0  0  0  0  0  0  0  0  0  0  0  0
   -2.7661    1.3959   -3.5304 H   0  0  0  0  0  0  0  0  0  0  0  0
   -2.5272   -0.4836   -4.6443 N   0  0  0  0  0  0  0  0  0  0  0  0
   -2.9798   -0.2300   -5.5103 H   0  0  0  0  0  0  0  0  0  0  0  0
   -1.9431   -1.7058   -4.3877 C   0  0  0  0  0  0  0  0  0  0  0  0
   -1.7777   -2.8685   -5.1541 C   0  0  0  0  0  0  0  0  0  0  0  0
   -2.1560   -2.9164   -6.1647 H   0  0  0  0  0  0  0  0  0  0  0  0
   -1.1146   -3.9707   -4.5881 C   0  0  0  0  0  0  0  0  0  0  0  0
   -0.9787   -4.8763   -5.1638 H   0  0  0  0  0  0  0  0  0  0  0  0
   -0.6332   -3.8971   -3.2682 C   0  0  0  0  0  0  0  0  0  0  0  0
   -0.1310   -4.7504   -2.8339 H   0  0  0  0  0  0  0  0  0  0  0  0
   -0.8069   -2.7241   -2.5065 C   0  0  0  0  0  0  0  0  0  0  0  0
   -0.4440   -2.6855   -1.4892 H   0  0  0  0  0  0  0  0  0  0  0  0
   -1.4631   -1.5976   -3.0482 C   0  0  0  0  0  0  0  0  0  0  0  0
   -1.2663    0.1182    1.2910 C   0  0  0  0  0  0  0  0  0  0  0  0
   -0.1906    0.1931    1.8833 O   0  0  0  0  0  0  0  0  0  0  0  0
   -2.3930    0.6605    1.7722 N   0  0  0  0  0  0  0  0  0  0  0  0
   -3.2451    0.5077    1.2518 H   0  0  0  0  0  0  0  0  0  0  0  0
   -2.4787    1.3954    3.0311 C   0  0  0  0  0  0  0  0  0  0  0  0
   -1.7166    2.1767    3.0539 H   0  0  0  0  0  0  0  0  0  0  0  0
   -3.4649    1.8498    3.1344 H   0  0  0  0  0  0  0  0  0  0  0  0
   -2.3058    0.7133    3.8652 H   0  0  0  0  0  0  0  0  0  0  0  0
  5  6  2  0  0  0  0
  5  7  1  0  0  0  0
  2  3  1  0  0  0  0
  2  4  1  0  0  0  0
  2  5  1  0  0  0  0
  1  2  1  0  0  0  0
 29 30  2  0  0  0  0
 29 31  1  0  0  0  0
 26 27  1  0  0  0  0
 26 28  2  0  0  0  0
 24 25  1  0  0  0  0
 24 26  1  0  0  0  0
 22 23  1  0  0  0  0
 22 24  2  0  0  0  0
 20 21  1  0  0  0  0
 20 22  1  0  0  0  0
 19 20  2  0  0  0  0
 19 28  1  0  0  0  0
 17 18  1  0  0  0  0
 17 19  1  0  0  0  0
 15 16  1  0  0  0  0
 15 17  1  0  0  0  0
 14 15  2  0  0  0  0
 14 28  1  0  0  0  0
 11 12  1  0  0  0  0
 11 13  1  0  0  0  0
 11 14  1  0  0  0  0
  9 10  1  0  0  0  0
  9 11  1  0  0  0  0
  9 29  1  0  0  0  0
  7  8  1  0  0  0  0
  7  9  1  0  0  0  0
 33 34  1  0  0  0  0
 33 35  1  0  0  0  0
 33 36  1  0  0  0  0
 31 32  1  0  0  0  0
 31 33  1  0  0  0  0
M  END
$$$$
default_name
  -OEChem-02102213163D

 36 37  0     1  0  0  0  0  0999 V2000
   -4.0843   -4.0736    1.2944 H   0  0  0  0  0  0  0  0  0  0  0  0
   -4.0342   -3.2816    0.5484 C   0  0  0  0  0  0  0  0  0  0  0  0
   -4.8842   -2.6126    0.6694 H   0  0  0  0  0  0  0  0  0  0  0  0
   -4.0433   -3.7186   -0.4486 H   0  0  0  0  0  0  0  0  0  0  0  0
   -2.7532   -2.5046    0.7444 C   0  0  0  0  0  0  0  0  0  0  0  0
   -1.9803   -2.8096    1.6434 O   0  0  0  0  0  0  0  0  0  0  0  0
   -2.5332   -1.4966   -0.0966 N   0  0  0  0  0  0  0  0  0  0  0  0
   -3.2312   -1.2816   -0.7936 H   0  0  0  0  0  0  0  0  0  0  0  0
   -1.3593   -0.6196   -0.0536 C   0  0  1  0  0  0  0  0  0  0  0  0
   -0.4622   -1.2317   -0.1545 H   0  0  0  0  0  0  0  0  0  0  0  0
   -1.4074    0.3593   -1.2373 C   0  0  0  0  0  0  0  0  0  0  0  0
   -2.1385    1.1397   -1.0187 H   0  0  0  0  0  0  0  0  0  0  0  0
   -0.4313    0.8384   -1.3316 H   0  0  0  0  0  0  0  0  0  0  0  0
   -1.7649   -0.2542   -2.5571 C   0  0  0  0  0  0  0  0  0  0  0  0
   -2.1458    0.4244   -3.6625 C   0  0  0  0  0  0  0  0  0  0  0  0
   -2.2562    1.5019   -3.7179 H   0  0  0  0  0  0  0  0  0  0  0  0
   -2.3496   -0.4604   -4.7032 N   0  0  0  0  0  0  0  0  0  0  0  0
   -2.6434   -0.1765   -5.6264 H   0  0  0  0  0  0  0  0  0  0  0  0
   -2.0922   -1.7601   -4.3221 C   0  0  0  0  0  0  0  0  0  0  0  0
   -2.1253   -2.9837   -5.0064 C   0  0  0  0  0  0  0  0  0  0  0  0
   -2.4026   -3.0201   -6.0496 H   0  0  0  0  0  0  0  0  0  0  0  0
   -1.7943   -4.1617   -4.3152 C   0  0  0  0  0  0  0  0  0  0  0  0
   -1.8153   -5.1147   -4.8263 H   0  0  0  0  0  0  0  0  0  0  0  0
   -1.4417   -4.1005   -2.9546 C   0  0  0  0  0  0  0  0  0  0  0  0
   -1.1959   -5.0103   -2.4245 H   0  0  0  0  0  0  0  0  0  0  0  0
   -1.4138   -2.8654   -2.2764 C   0  0  0  0  0  0  0  0  0  0  0  0
   -1.1542   -2.8342   -1.2277 H   0  0  0  0  0  0  0  0  0  0  0  0
   -1.7349   -1.6637   -2.9439 C   0  0  0  0  0  0  0  0  0  0  0  0
   -1.2663    0.1182    1.2910 C   0  0  0  0  0  0  0  0  0  0  0  0
   -0.1906    0.1931    1.8833 O   0  0  0  0  0  0  0  0  0  0  0  0
   -2.3930    0.6605    1.7722 N   0  0  0  0  0  0  0  0  0  0  0  0
   -3.2451    0.5077    1.2518 H   0  0  0  0  0  0  0  0  0  0  0  0
   -2.4787    1.3954    3.0311 C   0  0  0  0  0  0  0  0  0  0  0  0
   -1.7166    2.1767    3.0539 H   0  0  0  0  0  0  0  0  0  0  0  0
   -3.4649    1.8498    3.1344 H   0  0  0  0  0  0  0  0  0  0  0  0
   -2.3058    0.7133    3.8652 H   0  0  0  0  0  0  0  0  0  0  0  0
  5  6  2  0  0  0  0
  5  7  1  0  0  0  0
  2  3  1  0  0  0  0
  2  4  1  0  0  0  0
  2  5  1  0  0  0  0
  1  2  1  0  0  0  0
 29 30  2  0  0  0  0
 29 31  1  0  0  0  0
 26 27  1  0  0  0  0
 26 28  2  0  0  0  0
 24 25  1  0  0  0  0
 24 26  1  0  0  0  0
 22 23  1  0  0  0  0
 22 24  2  0  0  0  0
 20 21  1  0  0  0  0
 20 22  1  0  0  0  0
 19 20  2  0  0  0  0
 19 28  1  0  0  0  0
 17 18  1  0  0  0  0
 17 19  1  0  0  0  0
 15 16  1  0  0  0  0
 15 17  1  0  0  0  0
 14 15  2  0  0  0  0
 14 28  1  0  0  0  0
 11 12  1  0  0  0  0
 11 13  1  0  0  0  0
 11 14  1  0  0  0  0
  9 10  1  0  0  0  0
  9 11  1  0  0  0  0
  9 29  1  0  0  0  0
  7  8  1  0  0  0  0
  7  9  1  0  0  0  0
 33 34  1  0  0  0  0
 33 35  1  0  0  0  0
 33 36  1  0  0  0  0
 31 32  1  0  0  0  0
 31 33  1  0  0  0  0
M  END
$$$$
default_name
  -OEChem-02102213163D

 36 37  0     1  0  0  0  0  0999 V2000
   -4.0843   -4.0736    1.2944 H   0  0  0  0  0  0  0  0  0  0  0  0
   -4.0342   -3.2816    0.5484 C   0  0  0  0  0  0  0  0  0  0  0  0
   -4.8842   -2.6126    0.6694 H   0  0  0  0  0  0  0  0  0  0  0  0
   -4.0433   -3.7186   -0.4486 H   0  0  0  0  0  0  0  0  0  0  0  0
   -2.7532   -2.5046    0.7444 C   0  0  0  0  0  0  0  0  0  0  0  0
   -1.9803   -2.8096    1.6434 O   0  0  0  0  0  0  0  0  0  0  0  0
   -2.5332   -1.4966   -0.0966 N   0  0  0  0  0  0  0  0  0  0  0  0
   -3.2312   -1.2816   -0.7936 H   0  0  0  0  0  0  0  0  0  0  0  0
   -1.3593   -0.6196   -0.0536 C   0  0  1  0  0  0  0  0  0  0  0  0
   -0.4622   -1.2317   -0.1545 H   0  0  0  0  0  0  0  0  0  0  0  0
   -1.4074    0.3593   -1.2373 C   0  0  0  0  0  0  0  0  0  0  0  0
   -1.9224    1.2682   -0.9212 H   0  0  0  0  0  0  0  0  0  0  0  0
   -0.3850    0.6343   -1.5023 H   0  0  0  0  0  0  0  0  0  0  0  0
   -2.0933   -0.1589   -2.4649 C   0  0  0  0  0  0  0  0  0  0  0  0
   -2.2551    0.5214   -3.6219 C   0  0  0  0  0  0  0  0  0  0  0  0
   -1.9202    1.5389   -3.7917 H   0  0  0  0  0  0  0  0  0  0  0  0
   -2.8886   -0.2831   -4.5487 N   0  0  0  0  0  0  0  0  0  0  0  0
   -3.1171    0.0188   -5.4846 H   0  0  0  0  0  0  0  0  0  0  0  0
   -3.1533   -1.5356   -4.0370 C   0  0  0  0  0  0  0  0  0  0  0  0
   -3.7401   -2.6879   -4.5794 C   0  0  0  0  0  0  0  0  0  0  0  0
   -4.0944   -2.6932   -5.5998 H   0  0  0  0  0  0  0  0  0  0  0  0
   -3.8623   -3.8347   -3.7764 C   0  0  0  0  0  0  0  0  0  0  0  0
   -4.3132   -4.7323   -4.1774 H   0  0  0  0  0  0  0  0  0  0  0  0
   -3.4029   -3.8115   -2.4468 C   0  0  0  0  0  0  0  0  0  0  0  0
   -3.5065   -4.6934   -1.8299 H   0  0  0  0  0  0  0  0  0  0  0  0
   -2.8166   -2.6471   -1.9114 C   0  0  0  0  0  0  0  0  0  0  0  0
   -2.4800   -2.6386   -0.8844 H   0  0  0  0  0  0  0  0  0  0  0  0
   -2.6738   -1.4809   -2.6940 C   0  0  0  0  0  0  0  0  0  0  0  0
   -1.2663    0.1182    1.2910 C   0  0  0  0  0  0  0  0  0  0  0  0
   -0.1906    0.1931    1.8833 O   0  0  0  0  0  0  0  0  0  0  0  0
   -2.3930    0.6605    1.7722 N   0  0  0  0  0  0  0  0  0  0  0  0
   -3.2451    0.5077    1.2518 H   0  0  0  0  0  0  0  0  0  0  0  0
   -2.4787    1.3954    3.0311 C   0  0  0  0  0  0  0  0  0  0  0  0
   -1.7166    2.1767    3.0539 H   0  0  0  0  0  0  0  0  0  0  0  0
   -3.4649    1.8498    3.1344 H   0  0  0  0  0  0  0  0  0  0  0  0
   -2.3058    0.7133    3.8652 H   0  0  0  0  0  0  0  0  0  0  0  0
  5  6  2  0  0  0  0
  5  7  1  0  0  0  0
  2  3  1  0  0  0  0
  2  4  1  0  0  0  0
  2  5  1  0  0  0  0
  1  2  1  0  0  0  0
 29 30  2  0  0  0  0
 29 31  1  0  0  0  0
 26 27  1  0  0  0  0
 26 28  2  0  0  0  0
 24 25  1  0  0  0  0
 24 26  1  0  0  0  0
 22 23  1  0  0  0  0
 22 24  2  0  0  0  0
 20 21  1  0  0  0  0
 20 22  1  0  0  0  0
 19 20  2  0  0  0  0
 19 28  1  0  0  0  0
 17 18  1  0  0  0  0
 17 19  1  0  0  0  0
 15 16  1  0  0  0  0
 15 17  1  0  0  0  0
 14 15  2  0  0  0  0
 14 28  1  0  0  0  0
 11 12  1  0  0  0  0
 11 13  1  0  0  0  0
 11 14  1  0  0  0  0
  9 10  1  0  0  0  0
  9 11  1  0  0  0  0
  9 29  1  0  0  0  0
  7  8  1  0  0  0  0
  7  9  1  0  0  0  0
 33 34  1  0  0  0  0
 33 35  1  0  0  0  0
 33 36  1  0  0  0  0
 31 32  1  0  0  0  0
 31 33  1  0  0  0  0
M  END
$$$$
default_name
  -OEChem-02102213163D

 36 37  0     1  0  0  0  0  0999 V2000
   -4.0843   -4.0736    1.2944 H   0  0  0  0  0  0  0  0  0  0  0  0
   -4.0342   -3.2816    0.5484 C   0  0  0  0  0  0  0  0  0  0  0  0
   -4.8842   -2.6126    0.6694 H   0  0  0  0  0  0  0  0  0  0  0  0
   -4.0433   -3.7186   -0.4486 H   0  0  0  0  0  0  0  0  0  0  0  0
   -2.7532   -2.5046    0.7444 C   0  0  0  0  0  0  0  0  0  0  0  0
   -1.9803   -2.8096    1.6434 O   0  0  0  0  0  0  0  0  0  0  0  0
   -2.5332   -1.4966   -0.0966 N   0  0  0  0  0  0  0  0  0  0  0  0
   -3.2312   -1.2816   -0.7936 H   0  0  0  0  0  0  0  0  0  0  0  0
   -1.3593   -0.6196   -0.0536 C   0  0  1  0  0  0  0  0  0  0  0  0
   -0.4622   -1.2317   -0.1545 H   0  0  0  0  0  0  0  0  0  0  0  0
   -1.4074    0.3593   -1.2373 C   0  0  0  0  0  0  0  0  0  0  0  0
   -1.9224    1.2682   -0.9212 H   0  0  0  0  0  0  0  0  0  0  0  0
   -0.3850    0.6343   -1.5023 H   0  0  0  0  0  0  0  0  0  0  0  0
   -2.0933   -0.1589   -2.4649 C   0  0  0  0  0  0  0  0  0  0  0  0
   -2.0141    0.3862   -3.6995 C   0  0  0  0  0  0  0  0  0  0  0  0
   -1.4540    1.2822   -3.9438 H   0  0  0  0  0  0  0  0  0  0  0  0
   -2.7343   -0.3820   -4.5932 N   0  0  0  0  0  0  0  0  0  0  0  0
   -2.8192   -0.1619   -5.5748 H   0  0  0  0  0  0  0  0  0  0  0  0
   -3.3035   -1.4767   -3.9779 C   0  0  0  0  0  0  0  0  0  0  0  0
   -4.0833   -2.5426   -4.4490 C   0  0  0  0  0  0  0  0  0  0  0  0
   -4.3510   -2.6054   -5.4935 H   0  0  0  0  0  0  0  0  0  0  0  0
   -4.5131   -3.5269   -3.5426 C   0  0  0  0  0  0  0  0  0  0  0  0
   -5.1162   -4.3558   -3.8876 H   0  0  0  0  0  0  0  0  0  0  0  0
   -4.1631   -3.4290   -2.1835 C   0  0  0  0  0  0  0  0  0  0  0  0
   -4.5029   -4.1840   -1.4881 H   0  0  0  0  0  0  0  0  0  0  0  0
   -3.3805   -2.3521   -1.7208 C   0  0  0  0  0  0  0  0  0  0  0  0
   -3.1299   -2.2818   -0.6719 H   0  0  0  0  0  0  0  0  0  0  0  0
   -2.9280   -1.3506   -2.6070 C   0  0  0  0  0  0  0  0  0  0  0  0
   -1.2663    0.1182    1.2910 C   0  0  0  0  0  0  0  0  0  0  0  0
   -0.1906    0.1931    1.8833 O   0  0  0  0  0  0  0  0  0  0  0  0
   -2.3930    0.6605    1.7722 N   0  0  0  0  0  0  0  0  0  0  0  0
   -3.2451    0.5077    1.2518 H   0  0  0  0  0  0  0  0  0  0  0  0
   -2.4787    1.3954    3.0311 C   0  0  0  0  0  0  0  0  0  0  0  0
   -1.7166    2.1767    3.0539 H   0  0  0  0  0  0  0  0  0  0  0  0
   -3.4649    1.8498    3.1344 H   0  0  0  0  0  0  0  0  0  0  0  0
   -2.3058    0.7133    3.8652 H   0  0  0  0  0  0  0  0  0  0  0  0
  5  6  2  0  0  0  0
  5  7  1  0  0  0  0
  2  3  1  0  0  0  0
  2  4  1  0  0  0  0
  2  5  1  0  0  0  0
  1  2  1  0  0  0  0
 29 30  2  0  0  0  0
 29 31  1  0  0  0  0
 26 27  1  0  0  0  0
 26 28  2  0  0  0  0
 24 25  1  0  0  0  0
 24 26  1  0  0  0  0
 22 23  1  0  0  0  0
 22 24  2  0  0  0  0
 20 21  1  0  0  0  0
 20 22  1  0  0  0  0
 19 20  2  0  0  0  0
 19 28  1  0  0  0  0
 17 18  1  0  0  0  0
 17 19  1  0  0  0  0
 15 16  1  0  0  0  0
 15 17  1  0  0  0  0
 14 15  2  0  0  0  0
 14 28  1  0  0  0  0
 11 12  1  0  0  0  0
 11 13  1  0  0  0  0
 11 14  1  0  0  0  0
  9 10  1  0  0  0  0
  9 11  1  0  0  0  0
  9 29  1  0  0  0  0
  7  8  1  0  0  0  0
  7  9  1  0  0  0  0
 33 34  1  0  0  0  0
 33 35  1  0  0  0  0
 33 36  1  0  0  0  0
 31 32  1  0  0  0  0
 31 33  1  0  0  0  0
M  END
$$$$
default_name
  -OEChem-02102213163D

 36 37  0     1  0  0  0  0  0999 V2000
   -4.0843   -4.0736    1.2944 H   0  0  0  0  0  0  0  0  0  0  0  0
   -4.0342   -3.2816    0.5484 C   0  0  0  0  0  0  0  0  0  0  0  0
   -4.8842   -2.6126    0.6694 H   0  0  0  0  0  0  0  0  0  0  0  0
   -4.0433   -3.7186   -0.4486 H   0  0  0  0  0  0  0  0  0  0  0  0
   -2.7532   -2.5046    0.7444 C   0  0  0  0  0  0  0  0  0  0  0  0
   -1.9803   -2.8096    1.6434 O   0  0  0  0  0  0  0  0  0  0  0  0
   -2.5332   -1.4966   -0.0966 N   0  0  0  0  0  0  0  0  0  0  0  0
   -3.2312   -1.2816   -0.7936 H   0  0  0  0  0  0  0  0  0  0  0  0
   -1.3593   -0.6196   -0.0536 C   0  0  1  0  0  0  0  0  0  0  0  0
   -0.4622   -1.2317   -0.1545 H   0  0  0  0  0  0  0  0  0  0  0  0
   -1.4074    0.3593   -1.2373 C   0  0  0  0  0  0  0  0  0  0  0  0
   -1.9224    1.2682   -0.9212 H   0  0  0  0  0  0  0  0  0  0  0  0
   -0.3850    0.6343   -1.5023 H   0  0  0  0  0  0  0  0  0  0  0  0
   -2.0933   -0.1589   -2.4649 C   0  0  0  0  0  0  0  0  0  0  0  0
   -1.8030    0.1953   -3.7369 C   0  0  0  0  0  0  0  0  0  0  0  0
   -1.0445    0.9174   -4.0187 H   0  0  0  0  0  0  0  0  0  0  0  0
   -2.6023   -0.5155   -4.6106 N   0  0  0  0  0  0  0  0  0  0  0  0
   -2.5617   -0.4102   -5.6138 H   0  0  0  0  0  0  0  0  0  0  0  0
   -3.4413   -1.3809   -3.9413 C   0  0  0  0  0  0  0  0  0  0  0  0
   -4.3957   -2.3141   -4.3709 C   0  0  0  0  0  0  0  0  0  0  0  0
   -4.5897   -2.4535   -5.4242 H   0  0  0  0  0  0  0  0  0  0  0  0
   -5.0975   -3.0640   -3.4115 C   0  0  0  0  0  0  0  0  0  0  0  0
   -5.8381   -3.7876   -3.7241 H   0  0  0  0  0  0  0  0  0  0  0  0
   -4.8399   -2.8672   -2.0425 C   0  0  0  0  0  0  0  0  0  0  0  0
   -5.3880   -3.4403   -1.3075 H   0  0  0  0  0  0  0  0  0  0  0  0
   -3.8797   -1.9250   -1.6222 C   0  0  0  0  0  0  0  0  0  0  0  0
   -3.7011   -1.7742   -0.5670 H   0  0  0  0  0  0  0  0  0  0  0  0
   -3.1537   -1.1606   -2.5611 C   0  0  0  0  0  0  0  0  0  0  0  0
   -1.2663    0.1182    1.2910 C   0  0  0  0  0  0  0  0  0  0  0  0
   -0.1906    0.1931    1.8833 O   0  0  0  0  0  0  0  0  0  0  0  0
   -2.3930    0.6605    1.7722 N   0  0  0  0  0  0  0  0  0  0  0  0
   -3.2451    0.5077    1.2518 H   0  0  0  0  0  0  0  0  0  0  0  0
   -2.4787    1.3954    3.0311 C   0  0  0  0  0  0  0  0  0  0  0  0
   -1.7166    2.1767    3.0539 H   0  0  0  0  0  0  0  0  0  0  0  0
   -3.4649    1.8498    3.1344 H   0  0  0  0  0  0  0  0  0  0  0  0
   -2.3058    0.7133    3.8652 H   0  0  0  0  0  0  0  0  0  0  0  0
  5  6  2  0  0  0  0
  5  7  1  0  0  0  0
  2  3  1  0  0  0  0
  2  4  1  0  0  0  0
  2  5  1  0  0  0  0
  1  2  1  0  0  0  0
 29 30  2  0  0  0  0
 29 31  1  0  0  0  0
 26 27  1  0  0  0  0
 26 28  2  0  0  0  0
 24 25  1  0  0  0  0
 24 26  1  0  0  0  0
 22 23  1  0  0  0  0
 22 24  2  0  0  0  0
 20 21  1  0  0  0  0
 20 22  1  0  0  0  0
 19 20  2  0  0  0  0
 19 28  1  0  0  0  0
 17 18  1  0  0  0  0
 17 19  1  0  0  0  0
 15 16  1  0  0  0  0
 15 17  1  0  0  0  0
 14 15  2  0  0  0  0
 14 28  1  0  0  0  0
 11 12  1  0  0  0  0
 11 13  1  0  0  0  0
 11 14  1  0  0  0  0
  9 10  1  0  0  0  0
  9 11  1  0  0  0  0
  9 29  1  0  0  0  0
  7  8  1  0  0  0  0
  7  9  1  0  0  0  0
 33 34  1  0  0  0  0
 33 35  1  0  0  0  0
 33 36  1  0  0  0  0
 31 32  1  0  0  0  0
 31 33  1  0  0  0  0
M  END
$$$$
default_name
  -OEChem-02102213163D

 36 37  0     1  0  0  0  0  0999 V2000
   -4.0843   -4.0736    1.2944 H   0  0  0  0  0  0  0  0  0  0  0  0
   -4.0342   -3.2816    0.5484 C   0  0  0  0  0  0  0  0  0  0  0  0
   -4.8842   -2.6126    0.6694 H   0  0  0  0  0  0  0  0  0  0  0  0
   -4.0433   -3.7186   -0.4486 H   0  0  0  0  0  0  0  0  0  0  0  0
   -2.7532   -2.5046    0.7444 C   0  0  0  0  0  0  0  0  0  0  0  0
   -1.9803   -2.8096    1.6434 O   0  0  0  0  0  0  0  0  0  0  0  0
   -2.5332   -1.4966   -0.0966 N   0  0  0  0  0  0  0  0  0  0  0  0
   -3.2312   -1.2816   -0.7936 H   0  0  0  0  0  0  0  0  0  0  0  0
   -1.3593   -0.6196   -0.0536 C   0  0  1  0  0  0  0  0  0  0  0  0
   -0.4622   -1.2317   -0.1545 H   0  0  0  0  0  0  0  0  0  0  0  0
   -1.4074    0.3593   -1.2373 C   0  0  0  0  0  0  0  0  0  0  0  0
   -1.9224    1.2682   -0.9212 H   0  0  0  0  0  0  0  0  0  0  0  0
   -0.3850    0.6343   -1.5023 H   0  0  0  0  0  0  0  0  0  0  0  0
   -2.0933   -0.1589   -2.4649 C   0  0  0  0  0  0  0  0  0  0  0  0
   -1.6362   -0.0383   -3.7315 C   0  0  0  0  0  0  0  0  0  0  0  0
   -0.7196    0.4694   -4.0111 H   0  0  0  0  0  0  0  0  0  0  0  0
   -2.5015   -0.6746   -4.5998 N   0  0  0  0  0  0  0  0  0  0  0  0
   -2.3622   -0.7093   -5.5991 H   0  0  0  0  0  0  0  0  0  0  0  0
   -3.5574   -1.2549   -3.9297 C   0  0  0  0  0  0  0  0  0  0  0  0
   -4.6560   -2.0179   -4.3505 C   0  0  0  0  0  0  0  0  0  0  0  0
   -4.7942   -2.2480   -5.3967 H   0  0  0  0  0  0  0  0  0  0  0  0
   -5.5755   -2.4774   -3.3920 C   0  0  0  0  0  0  0  0  0  0  0  0
   -6.4295   -3.0664   -3.6982 H   0  0  0  0  0  0  0  0  0  0  0  0
   -5.3871   -2.1644   -2.0334 C   0  0  0  0  0  0  0  0  0  0  0  0
   -6.1014   -2.5128   -1.3004 H   0  0  0  0  0  0  0  0  0  0  0  0
   -4.2802   -1.3950   -1.6221 C   0  0  0  0  0  0  0  0  0  0  0  0
   -4.1546   -1.1504   -0.5769 H   0  0  0  0  0  0  0  0  0  0  0  0
   -3.3355   -0.9238   -2.5594 C   0  0  0  0  0  0  0  0  0  0  0  0
   -1.2663    0.1182    1.2910 C   0  0  0  0  0  0  0  0  0  0  0  0
   -0.1906    0.1931    1.8833 O   0  0  0  0  0  0  0  0  0  0  0  0
   -2.3930    0.6605    1.7722 N   0  0  0  0  0  0  0  0  0  0  0  0
   -3.2451    0.5077    1.2518 H   0  0  0  0  0  0  0  0  0  0  0  0
   -2.4787    1.3954    3.0311 C   0  0  0  0  0  0  0  0  0  0  0  0
   -1.7166    2.1767    3.0539 H   0  0  0  0  0  0  0  0  0  0  0  0
   -3.4649    1.8498    3.1344 H   0  0  0  0  0  0  0  0  0  0  0  0
   -2.3058    0.7133    3.8652 H   0  0  0  0  0  0  0  0  0  0  0  0
  5  6  2  0  0  0  0
  5  7  1  0  0  0  0
  2  3  1  0  0  0  0
  2  4  1  0  0  0  0
  2  5  1  0  0  0  0
  1  2  1  0  0  0  0
 29 30  2  0  0  0  0
 29 31  1  0  0  0  0
 26 27  1  0  0  0  0
 26 28  2  0  0  0  0
 24 25  1  0  0  0  0
 24 26  1  0  0  0  0
 22 23  1  0  0  0  0
 22 24  2  0  0  0  0
 20 21  1  0  0  0  0
 20 22  1  0  0  0  0
 19 20  2  0  0  0  0
 19 28  1  0  0  0  0
 17 18  1  0  0  0  0
 17 19  1  0  0  0  0
 15 16  1  0  0  0  0
 15 17  1  0  0  0  0
 14 15  2  0  0  0  0
 14 28  1  0  0  0  0
 11 12  1  0  0  0  0
 11 13  1  0  0  0  0
 11 14  1  0  0  0  0
  9 10  1  0  0  0  0
  9 11  1  0  0  0  0
  9 29  1  0  0  0  0
  7  8  1  0  0  0  0
  7  9  1  0  0  0  0
 33 34  1  0  0  0  0
 33 35  1  0  0  0  0
 33 36  1  0  0  0  0
 31 32  1  0  0  0  0
 31 33  1  0  0  0  0
M  END
$$$$
default_name
  -OEChem-02102213163D

 36 37  0     1  0  0  0  0  0999 V2000
   -4.0843   -4.0736    1.2944 H   0  0  0  0  0  0  0  0  0  0  0  0
   -4.0342   -3.2816    0.5484 C   0  0  0  0  0  0  0  0  0  0  0  0
   -4.8842   -2.6126    0.6694 H   0  0  0  0  0  0  0  0  0  0  0  0
   -4.0433   -3.7186   -0.4486 H   0  0  0  0  0  0  0  0  0  0  0  0
   -2.7532   -2.5046    0.7444 C   0  0  0  0  0  0  0  0  0  0  0  0
   -1.9803   -2.8096    1.6434 O   0  0  0  0  0  0  0  0  0  0  0  0
   -2.5332   -1.4966   -0.0966 N   0  0  0  0  0  0  0  0  0  0  0  0
   -3.2312   -1.2816   -0.7936 H   0  0  0  0  0  0  0  0  0  0  0  0
   -1.3593   -0.6196   -0.0536 C   0  0  1  0  0  0  0  0  0  0  0  0
   -0.4622   -1.2317   -0.1545 H   0  0  0  0  0  0  0  0  0  0  0  0
   -1.4074    0.3593   -1.2373 C   0  0  0  0  0  0  0  0  0  0  0  0
   -1.9224    1.2682   -0.9212 H   0  0  0  0  0  0  0  0  0  0  0  0
   -0.3850    0.6343   -1.5023 H   0  0  0  0  0  0  0  0  0  0  0  0
   -2.0933   -0.1589   -2.4649 C   0  0  0  0  0  0  0  0  0  0  0  0
   -1.5251   -0.2986   -3.6836 C   0  0  0  0  0  0  0  0  0  0  0  0
   -0.5014   -0.0314   -3.9216 H   0  0  0  0  0  0  0  0  0  0  0  0
   -2.4388   -0.8483   -4.5615 N   0  0  0  0  0  0  0  0  0  0  0  0
   -2.2341   -1.0388   -5.5315 H   0  0  0  0  0  0  0  0  0  0  0  0
   -3.6438   -1.1072   -3.9437 C   0  0  0  0  0  0  0  0  0  0  0  0
   -4.8465   -1.6742   -4.3891 C   0  0  0  0  0  0  0  0  0  0  0  0
   -4.9507   -2.0029   -5.4127 H   0  0  0  0  0  0  0  0  0  0  0  0
   -5.9146   -1.8072   -3.4855 C   0  0  0  0  0  0  0  0  0  0  0  0
   -6.8501   -2.2412   -3.8114 H   0  0  0  0  0  0  0  0  0  0  0  0
   -5.7674   -1.3684   -2.1569 C   0  0  0  0  0  0  0  0  0  0  0  0
   -6.5945   -1.4649   -1.4672 H   0  0  0  0  0  0  0  0  0  0  0  0
   -4.5547   -0.7981   -1.7207 C   0  0  0  0  0  0  0  0  0  0  0  0
   -4.4595   -0.4529   -0.7010 H   0  0  0  0  0  0  0  0  0  0  0  0
   -3.4611   -0.6563   -2.6022 C   0  0  0  0  0  0  0  0  0  0  0  0
   -1.2663    0.1182    1.2910 C   0  0  0  0  0  0  0  0  0  0  0  0
   -0.1906    0.1931    1.8833 O   0  0  0  0  0  0  0  0  0  0  0  0
   -2.3930    0.6605    1.7722 N   0  0  0  0  0  0  0  0  0  0  0  0
   -3.2451    0.5077    1.2518 H   0  0  0  0  0  0  0  0  0  0  0  0
   -2.4787    1.3954    3.0311 C   0  0  0  0  0  0  0  0  0  0  0  0
   -1.7166    2.1767    3.0539 H   0  0  0  0  0  0  0  0  0  0  0  0
   -3.4649    1.8498    3.1344 H   0  0  0  0  0  0  0  0  0  0  0  0
   -2.3058    0.7133    3.8652 H   0  0  0  0  0  0  0  0  0  0  0  0
  5  6  2  0  0  0  0
  5  7  1  0  0  0  0
  2  3  1  0  0  0  0
  2  4  1  0  0  0  0
  2  5  1  0  0  0  0
  1  2  1  0  0  0  0
 29 30  2  0  0  0  0
 29 31  1  0  0  0  0
 26 27  1  0  0  0  0
 26 28  2  0  0  0  0
 24 25  1  0  0  0  0
 24 26  1  0  0  0  0
 22 23  1  0  0  0  0
 22 24  2  0  0  0  0
 20 21  1  0  0  0  0
 20 22  1  0  0  0  0
 19 20  2  0  0  0  0
 19 28  1  0  0  0  0
 17 18  1  0  0  0  0
 17 19  1  0  0  0  0
 15 16  1  0  0  0  0
 15 17  1  0  0  0  0
 14 15  2  0  0  0  0
 14 28  1  0  0  0  0
 11 12  1  0  0  0  0
 11 13  1  0  0  0  0
 11 14  1  0  0  0  0
  9 10  1  0  0  0  0
  9 11  1  0  0  0  0
  9 29  1  0  0  0  0
  7  8  1  0  0  0  0
  7  9  1  0  0  0  0
 33 34  1  0  0  0  0
 33 35  1  0  0  0  0
 33 36  1  0  0  0  0
 31 32  1  0  0  0  0
 31 33  1  0  0  0  0
M  END
$$$$
default_name
  -OEChem-02102213163D

 36 37  0     1  0  0  0  0  0999 V2000
   -4.0843   -4.0736    1.2944 H   0  0  0  0  0  0  0  0  0  0  0  0
   -4.0342   -3.2816    0.5484 C   0  0  0  0  0  0  0  0  0  0  0  0
   -4.8842   -2.6126    0.6694 H   0  0  0  0  0  0  0  0  0  0  0  0
   -4.0433   -3.7186   -0.4486 H   0  0  0  0  0  0  0  0  0  0  0  0
   -2.7532   -2.5046    0.7444 C   0  0  0  0  0  0  0  0  0  0  0  0
   -1.9803   -2.8096    1.6434 O   0  0  0  0  0  0  0  0  0  0  0  0
   -2.5332   -1.4966   -0.0966 N   0  0  0  0  0  0  0  0  0  0  0  0
   -3.2312   -1.2816   -0.7936 H   0  0  0  0  0  0  0  0  0  0  0  0
   -1.3593   -0.6196   -0.0536 C   0  0  1  0  0  0  0  0  0  0  0  0
   -0.4622   -1.2317   -0.1545 H   0  0  0  0  0  0  0  0  0  0  0  0
   -1.4074    0.3593   -1.2373 C   0  0  0  0  0  0  0  0  0  0  0  0
   -1.9224    1.2682   -0.9212 H   0  0  0  0  0  0  0  0  0  0  0  0
   -0.3850    0.6343   -1.5023 H   0  0  0  0  0  0  0  0  0  0  0  0
   -2.0933   -0.1589   -2.4649 C   0  0  0  0  0  0  0  0  0  0  0  0
   -1.4773   -0.5679   -3.5967 C   0  0  0  0  0  0  0  0  0  0  0  0
   -0.4048   -0.5507   -3.7564 H   0  0  0  0  0  0  0  0  0  0  0  0
   -2.4185   -1.0248   -4.4983 N   0  0  0  0  0  0  0  0  0  0  0  0
   -2.1864   -1.3762   -5.4158 H   0  0  0  0  0  0  0  0  0  0  0  0
   -3.6947   -0.9478   -3.9825 C   0  0  0  0  0  0  0  0  0  0  0  0
   -4.9541   -1.3065   -4.4842 C   0  0  0  0  0  0  0  0  0  0  0  0
   -5.0485   -1.7348   -5.4713 H   0  0  0  0  0  0  0  0  0  0  0  0
   -6.0917   -1.0990   -3.6855 C   0  0  0  0  0  0  0  0  0  0  0  0
   -7.0714   -1.3685   -4.0562 H   0  0  0  0  0  0  0  0  0  0  0  0
   -5.9550   -0.5335   -2.4045 C   0  0  0  0  0  0  0  0  0  0  0  0
   -6.8337   -0.3679   -1.7966 H   0  0  0  0  0  0  0  0  0  0  0  0
   -4.6844   -0.1750   -1.9112 C   0  0  0  0  0  0  0  0  0  0  0  0
   -4.5950    0.2707   -0.9308 H   0  0  0  0  0  0  0  0  0  0  0  0
   -3.5218   -0.3764   -2.6864 C   0  0  0  0  0  0  0  0  0  0  0  0
   -1.2663    0.1182    1.2910 C   0  0  0  0  0  0  0  0  0  0  0  0
   -0.1906    0.1931    1.8833 O   0  0  0  0  0  0  0  0  0  0  0  0
   -2.3930    0.6605    1.7722 N   0  0  0  0  0  0  0  0  0  0  0  0
   -3.2451    0.5077    1.2518 H   0  0  0  0  0  0  0  0  0  0  0  0
   -2.4787    1.3954    3.0311 C   0  0  0  0  0  0  0  0  0  0  0  0
   -1.7166    2.1767    3.0539 H   0  0  0  0  0  0  0  0  0  0  0  0
   -3.4649    1.8498    3.1344 H   0  0  0  0  0  0  0  0  0  0  0  0
   -2.3058    0.7133    3.8652 H   0  0  0  0  0  0  0  0  0  0  0  0
  5  6  2  0  0  0  0
  5  7  1  0  0  0  0
  2  3  1  0  0  0  0
  2  4  1  0  0  0  0
  2  5  1  0  0  0  0
  1  2  1  0  0  0  0
 29 30  2  0  0  0  0
 29 31  1  0  0  0  0
 26 27  1  0  0  0  0
 26 28  2  0  0  0  0
 24 25  1  0  0  0  0
 24 26  1  0  0  0  0
 22 23  1  0  0  0  0
 22 24  2  0  0  0  0
 20 21  1  0  0  0  0
 20 22  1  0  0  0  0
 19 20  2  0  0  0  0
 19 28  1  0  0  0  0
 17 18  1  0  0  0  0
 17 19  1  0  0  0  0
 15 16  1  0  0  0  0
 15 17  1  0  0  0  0
 14 15  2  0  0  0  0
 14 28  1  0  0  0  0
 11 12  1  0  0  0  0
 11 13  1  0  0  0  0
 11 14  1  0  0  0  0
  9 10  1  0  0  0  0
  9 11  1  0  0  0  0
  9 29  1  0  0  0  0
  7  8  1  0  0  0  0
  7  9  1  0  0  0  0
 33 34  1  0  0  0  0
 33 35  1  0  0  0  0
 33 36  1  0  0  0  0
 31 32  1  0  0  0  0
 31 33  1  0  0  0  0
M  END
$$$$
default_name
  -OEChem-02102213163D

 36 37  0     1  0  0  0  0  0999 V2000
   -4.0843   -4.0736    1.2944 H   0  0  0  0  0  0  0  0  0  0  0  0
   -4.0342   -3.2816    0.5484 C   0  0  0  0  0  0  0  0  0  0  0  0
   -4.8842   -2.6126    0.6694 H   0  0  0  0  0  0  0  0  0  0  0  0
   -4.0433   -3.7186   -0.4486 H   0  0  0  0  0  0  0  0  0  0  0  0
   -2.7532   -2.5046    0.7444 C   0  0  0  0  0  0  0  0  0  0  0  0
   -1.9803   -2.8096    1.6434 O   0  0  0  0  0  0  0  0  0  0  0  0
   -2.5332   -1.4966   -0.0966 N   0  0  0  0  0  0  0  0  0  0  0  0
   -3.2312   -1.2816   -0.7936 H   0  0  0  0  0  0  0  0  0  0  0  0
   -1.3593   -0.6196   -0.0536 C   0  0  1  0  0  0  0  0  0  0  0  0
   -0.4622   -1.2317   -0.1545 H   0  0  0  0  0  0  0  0  0  0  0  0
   -1.4074    0.3593   -1.2373 C   0  0  0  0  0  0  0  0  0  0  0  0
   -1.9224    1.2682   -0.9212 H   0  0  0  0  0  0  0  0  0  0  0  0
   -0.3850    0.6343   -1.5023 H   0  0  0  0  0  0  0  0  0  0  0  0
   -2.0933   -0.1589   -2.4649 C   0  0  0  0  0  0  0  0  0  0  0  0
   -1.4960   -0.8279   -3.4765 C   0  0  0  0  0  0  0  0  0  0  0  0
   -0.4364   -1.0533   -3.5266 H   0  0  0  0  0  0  0  0  0  0  0  0
   -2.4420   -1.1921   -4.4145 N   0  0  0  0  0  0  0  0  0  0  0  0
   -2.2221   -1.6985   -5.2598 H   0  0  0  0  0  0  0  0  0  0  0  0
   -3.7067   -0.7877   -4.0434 C   0  0  0  0  0  0  0  0  0  0  0  0
   -4.9716   -0.9396   -4.6293 C   0  0  0  0  0  0  0  0  0  0  0  0
   -5.0808   -1.4621   -5.5683 H   0  0  0  0  0  0  0  0  0  0  0  0
   -6.0947   -0.4010   -3.9784 C   0  0  0  0  0  0  0  0  0  0  0  0
   -7.0782   -0.5075   -4.4159 H   0  0  0  0  0  0  0  0  0  0  0  0
   -5.9371    0.2833   -2.7593 C   0  0  0  0  0  0  0  0  0  0  0  0
   -6.8028    0.7034   -2.2662 H   0  0  0  0  0  0  0  0  0  0  0  0
   -4.6606    0.4317   -2.1807 C   0  0  0  0  0  0  0  0  0  0  0  0
   -4.5519    0.9713   -1.2506 H   0  0  0  0  0  0  0  0  0  0  0  0
   -3.5137   -0.1031   -2.8063 C   0  0  0  0  0  0  0  0  0  0  0  0
   -1.2663    0.1182    1.2910 C   0  0  0  0  0  0  0  0  0  0  0  0
   -0.1906    0.1931    1.8833 O   0  0  0  0  0  0  0  0  0  0  0  0
   -2.3930    0.6605    1.7722 N   0  0  0  0  0  0  0  0  0  0  0  0
   -3.2451    0.5077    1.2518 H   0  0  0  0  0  0  0  0  0  0  0  0
   -2.4787    1.3954    3.0311 C   0  0  0  0  0  0  0  0  0  0  0  0
   -1.7166    2.1767    3.0539 H   0  0  0  0  0  0  0  0  0  0  0  0
   -3.4649    1.8498    3.1344 H   0  0  0  0  0  0  0  0  0  0  0  0
   -2.3058    0.7133    3.8652 H   0  0  0  0  0  0  0  0  0  0  0  0
  5  6  2  0  0  0  0
  5  7  1  0  0  0  0
  2  3  1  0  0  0  0
  2  4  1  0  0  0  0
  2  5  1  0  0  0  0
  1  2  1  0  0  0  0
 29 30  2  0  0  0  0
 29 31  1  0  0  0  0
 26 27  1  0  0  0  0
 26 28  2  0  0  0  0
 24 25  1  0  0  0  0
 24 26  1  0  0  0  0
 22 23  1  0  0  0  0
 22 24  2  0  0  0  0
 20 21  1  0  0  0  0
 20 22  1  0  0  0  0
 19 20  2  0  0  0  0
 19 28  1  0  0  0  0
 17 18  1  0  0  0  0
 17 19  1  0  0  0  0
 15 16  1  0  0  0  0
 15 17  1  0  0  0  0
 14 15  2  0  0  0  0
 14 28  1  0  0  0  0
 11 12  1  0  0  0  0
 11 13  1  0  0  0  0
 11 14  1  0  0  0  0
  9 10  1  0  0  0  0
  9 11  1  0  0  0  0
  9 29  1  0  0  0  0
  7  8  1  0  0  0  0
  7  9  1  0  0  0  0
 33 34  1  0  0  0  0
 33 35  1  0  0  0  0
 33 36  1  0  0  0  0
 31 32  1  0  0  0  0
 31 33  1  0  0  0  0
M  END
$$$$
default_name
  -OEChem-02102213163D

 36 37  0     1  0  0  0  0  0999 V2000
   -4.0843   -4.0736    1.2944 H   0  0  0  0  0  0  0  0  0  0  0  0
   -4.0342   -3.2816    0.5484 C   0  0  0  0  0  0  0  0  0  0  0  0
   -4.8842   -2.6126    0.6694 H   0  0  0  0  0  0  0  0  0  0  0  0
   -4.0433   -3.7186   -0.4486 H   0  0  0  0  0  0  0  0  0  0  0  0
   -2.7532   -2.5046    0.7444 C   0  0  0  0  0  0  0  0  0  0  0  0
   -1.9803   -2.8096    1.6434 O   0  0  0  0  0  0  0  0  0  0  0  0
   -2.5332   -1.4966   -0.0966 N   0  0  0  0  0  0  0  0  0  0  0  0
   -3.2312   -1.2816   -0.7936 H   0  0  0  0  0  0  0  0  0  0  0  0
   -1.3593   -0.6196   -0.0536 C   0  0  1  0  0  0  0  0  0  0  0  0
   -0.4622   -1.2317   -0.1545 H   0  0  0  0  0  0  0  0  0  0  0  0
   -1.4074    0.3593   -1.2373 C   0  0  0  0  0  0  0  0  0  0  0  0
   -1.9224    1.2682   -0.9212 H   0  0  0  0  0  0  0  0  0  0  0  0
   -0.3850    0.6343   -1.5023 H   0  0  0  0  0  0  0  0  0  0  0  0
   -2.0933   -0.1589   -2.4649 C   0  0  0  0  0  0  0  0  0  0  0  0
   -1.5799   -1.0608   -3.3312 C   0  0  0  0  0  0  0  0  0  0  0  0
   -0.5940   -1.5048   -3.2479 H   0  0  0  0  0  0  0  0  0  0  0  0
   -2.5076   -1.3389   -4.3159 N   0  0  0  0  0  0  0  0  0  0  0  0
   -2.3389   -1.9837   -5.0741 H   0  0  0  0  0  0  0  0  0  0  0  0
   -3.6788   -0.6377   -4.1223 C   0  0  0  0  0  0  0  0  0  0  0  0
   -4.8978   -0.5988   -4.8144 C   0  0  0  0  0  0  0  0  0  0  0  0
   -5.0456   -1.2033   -5.6972 H   0  0  0  0  0  0  0  0  0  0  0  0
   -5.9234    0.2391   -4.3443 C   0  0  0  0  0  0  0  0  0  0  0  0
   -6.8700    0.2829   -4.8659 H   0  0  0  0  0  0  0  0  0  0  0  0
   -5.7148    1.0265   -3.1973 C   0  0  0  0  0  0  0  0  0  0  0  0
   -6.5037    1.6760   -2.8439 H   0  0  0  0  0  0  0  0  0  0  0  0
   -4.4849    0.9808   -2.5107 C   0  0  0  0  0  0  0  0  0  0  0  0
   -4.3331    1.6009   -1.6386 H   0  0  0  0  0  0  0  0  0  0  0  0
   -3.4371    0.1450   -2.9538 C   0  0  0  0  0  0  0  0  0  0  0  0
   -1.2663    0.1182    1.2910 C   0  0  0  0  0  0  0  0  0  0  0  0
   -0.1906    0.1931    1.8833 O   0  0  0  0  0  0  0  0  0  0  0  0
   -2.3930    0.6605    1.7722 N   0  0  0  0  0  0  0  0  0  0  0  0
   -3.2451    0.5077    1.2518 H   0  0  0  0  0  0  0  0  0  0  0  0
   -2.4787    1.3954    3.0311 C   0  0  0  0  0  0  0  0  0  0  0  0
   -1.7166    2.1767    3.0539 H   0  0  0  0  0  0  0  0  0  0  0  0
   -3.4649    1.8498    3.1344 H   0  0  0  0  0  0  0  0  0  0  0  0
   -2.3058    0.7133    3.8652 H   0  0  0  0  0  0  0  0  0  0  0  0
  5  6  2  0  0  0  0
  5  7  1  0  0  0  0
  2  3  1  0  0  0  0
  2  4  1  0  0  0  0
  2  5  1  0  0  0  0
  1  2  1  0  0  0  0
 29 30  2  0  0  0  0
 29 31  1  0  0  0  0
 26 27  1  0  0  0  0
 26 28  2  0  0  0  0
 24 25  1  0  0  0  0
 24 26  1  0  0  0  0
 22 23  1  0  0  0  0
 22 24  2  0  0  0  0
 20 21  1  0  0  0  0
 20 22  1  0  0  0  0
 19 20  2  0  0  0  0
 19 28  1  0  0  0  0
 17 18  1  0  0  0  0
 17 19  1  0  0  0  0
 15 16  1  0  0  0  0
 15 17  1  0  0  0  0
 14 15  2  0  0  0  0
 14 28  1  0  0  0  0
 11 12  1  0  0  0  0
 11 13  1  0  0  0  0
 11 14  1  0  0  0  0
  9 10  1  0  0  0  0
  9 11  1  0  0  0  0
  9 29  1  0  0  0  0
  7  8  1  0  0  0  0
  7  9  1  0  0  0  0
 33 34  1  0  0  0  0
 33 35  1  0  0  0  0
 33 36  1  0  0  0  0
 31 32  1  0  0  0  0
 31 33  1  0  0  0  0
M  END
$$$$
default_name
  -OEChem-02102213163D

 36 37  0     1  0  0  0  0  0999 V2000
   -4.0843   -4.0736    1.2944 H   0  0  0  0  0  0  0  0  0  0  0  0
   -4.0342   -3.2816    0.5484 C   0  0  0  0  0  0  0  0  0  0  0  0
   -4.8842   -2.6126    0.6694 H   0  0  0  0  0  0  0  0  0  0  0  0
   -4.0433   -3.7186   -0.4486 H   0  0  0  0  0  0  0  0  0  0  0  0
   -2.7532   -2.5046    0.7444 C   0  0  0  0  0  0  0  0  0  0  0  0
   -1.9803   -2.8096    1.6434 O   0  0  0  0  0  0  0  0  0  0  0  0
   -2.5332   -1.4966   -0.0966 N   0  0  0  0  0  0  0  0  0  0  0  0
   -3.2312   -1.2816   -0.7936 H   0  0  0  0  0  0  0  0  0  0  0  0
   -1.3593   -0.6196   -0.0536 C   0  0  1  0  0  0  0  0  0  0  0  0
   -0.4622   -1.2317   -0.1545 H   0  0  0  0  0  0  0  0  0  0  0  0
   -1.4074    0.3593   -1.2373 C   0  0  0  0  0  0  0  0  0  0  0  0
   -1.9224    1.2682   -0.9212 H   0  0  0  0  0  0  0  0  0  0  0  0
   -0.3850    0.6343   -1.5023 H   0  0  0  0  0  0  0  0  0  0  0  0
   -2.0933   -0.1589   -2.4649 C   0  0  0  0  0  0  0  0  0  0  0  0
   -1.7234   -1.2508   -3.1709 C   0  0  0  0  0  0  0  0  0  0  0  0
   -0.8669   -1.8745   -2.9393 H   0  0  0  0  0  0  0  0  0  0  0  0
   -2.6110   -1.4550   -4.2091 N   0  0  0  0  0  0  0  0  0  0  0  0
   -2.5288   -2.2125   -4.8714 H   0  0  0  0  0  0  0  0  0  0  0  0
   -3.6131   -0.5081   -4.2138 C   0  0  0  0  0  0  0  0  0  0  0  0
   -4.7376   -0.3072   -5.0270 C   0  0  0  0  0  0  0  0  0  0  0  0
   -4.9452   -0.9761   -5.8493 H   0  0  0  0  0  0  0  0  0  0  0  0
   -5.5896    0.7777   -4.7583 C   0  0  0  0  0  0  0  0  0  0  0  0
   -6.4611    0.9490   -5.3755 H   0  0  0  0  0  0  0  0  0  0  0  0
   -5.3034    1.6454   -3.6884 C   0  0  0  0  0  0  0  0  0  0  0  0
   -5.9569    2.4836   -3.4903 H   0  0  0  0  0  0  0  0  0  0  0  0
   -4.1692    1.4349   -2.8788 C   0  0  0  0  0  0  0  0  0  0  0  0
   -3.9536    2.1167   -2.0684 H   0  0  0  0  0  0  0  0  0  0  0  0
   -3.2973    0.3508   -3.1188 C   0  0  0  0  0  0  0  0  0  0  0  0
   -1.2663    0.1182    1.2910 C   0  0  0  0  0  0  0  0  0  0  0  0
   -0.1906    0.1931    1.8833 O   0  0  0  0  0  0  0  0  0  0  0  0
   -2.3930    0.6605    1.7722 N   0  0  0  0  0  0  0  0  0  0  0  0
   -3.2451    0.5077    1.2518 H   0  0  0  0  0  0  0  0  0  0  0  0
   -2.4787    1.3954    3.0311 C   0  0  0  0  0  0  0  0  0  0  0  0
   -1.7166    2.1767    3.0539 H   0  0  0  0  0  0  0  0  0  0  0  0
   -3.4649    1.8498    3.1344 H   0  0  0  0  0  0  0  0  0  0  0  0
   -2.3058    0.7133    3.8652 H   0  0  0  0  0  0  0  0  0  0  0  0
  5  6  2  0  0  0  0
  5  7  1  0  0  0  0
  2  3  1  0  0  0  0
  2  4  1  0  0  0  0
  2  5  1  0  0  0  0
  1  2  1  0  0  0  0
 29 30  2  0  0  0  0
 29 31  1  0  0  0  0
 26 27  1  0  0  0  0
 26 28  2  0  0  0  0
 24 25  1  0  0  0  0
 24 26  1  0  0  0  0
 22 23  1  0  0  0  0
 22 24  2  0  0  0  0
 20 21  1  0  0  0  0
 20 22  1  0  0  0  0
 19 20  2  0  0  0  0
 19 28  1  0  0  0  0
 17 18  1  0  0  0  0
 17 19  1  0  0  0  0
 15 16  1  0  0  0  0
 15 17  1  0  0  0  0
 14 15  2  0  0  0  0
 14 28  1  0  0  0  0
 11 12  1  0  0  0  0
 11 13  1  0  0  0  0
 11 14  1  0  0  0  0
  9 10  1  0  0  0  0
  9 11  1  0  0  0  0
  9 29  1  0  0  0  0
  7  8  1  0  0  0  0
  7  9  1  0  0  0  0
 33 34  1  0  0  0  0
 33 35  1  0  0  0  0
 33 36  1  0  0  0  0
 31 32  1  0  0  0  0
 31 33  1  0  0  0  0
M  END
$$$$
default_name
  -OEChem-02102213163D

 36 37  0     1  0  0  0  0  0999 V2000
   -4.0843   -4.0736    1.2944 H   0  0  0  0  0  0  0  0  0  0  0  0
   -4.0342   -3.2816    0.5484 C   0  0  0  0  0  0  0  0  0  0  0  0
   -4.8842   -2.6126    0.6694 H   0  0  0  0  0  0  0  0  0  0  0  0
   -4.0433   -3.7186   -0.4486 H   0  0  0  0  0  0  0  0  0  0  0  0
   -2.7532   -2.5046    0.7444 C   0  0  0  0  0  0  0  0  0  0  0  0
   -1.9803   -2.8096    1.6434 O   0  0  0  0  0  0  0  0  0  0  0  0
   -2.5332   -1.4966   -0.0966 N   0  0  0  0  0  0  0  0  0  0  0  0
   -3.2312   -1.2816   -0.7936 H   0  0  0  0  0  0  0  0  0  0  0  0
   -1.3593   -0.6196   -0.0536 C   0  0  1  0  0  0  0  0  0  0  0  0
   -0.4622   -1.2317   -0.1545 H   0  0  0  0  0  0  0  0  0  0  0  0
   -1.4074    0.3593   -1.2373 C   0  0  0  0  0  0  0  0  0  0  0  0
   -1.9224    1.2682   -0.9212 H   0  0  0  0  0  0  0  0  0  0  0  0
   -0.3850    0.6343   -1.5023 H   0  0  0  0  0  0  0  0  0  0  0  0
   -2.0933   -0.1589   -2.4649 C   0  0  0  0  0  0  0  0  0  0  0  0
   -1.9166   -1.3850   -3.0063 C   0  0  0  0  0  0  0  0  0  0  0  0
   -1.2365   -2.1372   -2.6219 H   0  0  0  0  0  0  0  0  0  0  0  0
   -2.7450   -1.5326   -4.1015 N   0  0  0  0  0  0  0  0  0  0  0  0
   -2.7789   -2.3692   -4.6655 H   0  0  0  0  0  0  0  0  0  0  0  0
   -3.5139   -0.4077   -4.3116 C   0  0  0  0  0  0  0  0  0  0  0  0
   -4.5021   -0.0846   -5.2526 C   0  0  0  0  0  0  0  0  0  0  0  0
   -4.7864   -0.7960   -6.0140 H   0  0  0  0  0  0  0  0  0  0  0  0
   -5.1158    1.1782   -5.1920 C   0  0  0  0  0  0  0  0  0  0  0  0
   -5.8793    1.4453   -5.9101 H   0  0  0  0  0  0  0  0  0  0  0  0
   -4.7308    2.0977   -4.1993 C   0  0  0  0  0  0  0  0  0  0  0  0
   -5.1997    3.0713   -4.1615 H   0  0  0  0  0  0  0  0  0  0  0  0
   -3.7350    1.7630   -3.2598 C   0  0  0  0  0  0  0  0  0  0  0  0
   -3.4392    2.4836   -2.5107 H   0  0  0  0  0  0  0  0  0  0  0  0
   -3.1039    0.5005   -3.2901 C   0  0  0  0  0  0  0  0  0  0  0  0
   -1.2663    0.1182    1.2910 C   0  0  0  0  0  0  0  0  0  0  0  0
   -0.1906    0.1931    1.8833 O   0  0  0  0  0  0  0  0  0  0  0  0
   -2.3930    0.6605    1.7722 N   0  0  0  0  0  0  0  0  0  0  0  0
   -3.2451    0.5077    1.2518 H   0  0  0  0  0  0  0  0  0  0  0  0
   -2.4787    1.3954    3.0311 C   0  0  0  0  0  0  0  0  0  0  0  0
   -1.7166    2.1767    3.0539 H   0  0  0  0  0  0  0  0  0  0  0  0
   -3.4649    1.8498    3.1344 H   0  0  0  0  0  0  0  0  0  0  0  0
   -2.3058    0.7133    3.8652 H   0  0  0  0  0  0  0  0  0  0  0  0
  5  6  2  0  0  0  0
  5  7  1  0  0  0  0
  2  3  1  0  0  0  0
  2  4  1  0  0  0  0
  2  5  1  0  0  0  0
  1  2  1  0  0  0  0
 29 30  2  0  0  0  0
 29 31  1  0  0  0  0
 26 27  1  0  0  0  0
 26 28  2  0  0  0  0
 24 25  1  0  0  0  0
 24 26  1  0  0  0  0
 22 23  1  0  0  0  0
 22 24  2  0  0  0  0
 20 21  1  0  0  0  0
 20 22  1  0  0  0  0
 19 20  2  0  0  0  0
 19 28  1  0  0  0  0
 17 18  1  0  0  0  0
 17 19  1  0  0  0  0
 15 16  1  0  0  0  0
 15 17  1  0  0  0  0
 14 15  2  0  0  0  0
 14 28  1  0  0  0  0
 11 12  1  0  0  0  0
 11 13  1  0  0  0  0
 11 14  1  0  0  0  0
  9 10  1  0  0  0  0
  9 11  1  0  0  0  0
  9 29  1  0  0  0  0
  7  8  1  0  0  0  0
  7  9  1  0  0  0  0
 33 34  1  0  0  0  0
 33 35  1  0  0  0  0
 33 36  1  0  0  0  0
 31 32  1  0  0  0  0
 31 33  1  0  0  0  0
M  END
$$$$
default_name
  -OEChem-02102213163D

 36 37  0     1  0  0  0  0  0999 V2000
   -4.0843   -4.0736    1.2944 H   0  0  0  0  0  0  0  0  0  0  0  0
   -4.0342   -3.2816    0.5484 C   0  0  0  0  0  0  0  0  0  0  0  0
   -4.8842   -2.6126    0.6694 H   0  0  0  0  0  0  0  0  0  0  0  0
   -4.0433   -3.7186   -0.4486 H   0  0  0  0  0  0  0  0  0  0  0  0
   -2.7532   -2.5046    0.7444 C   0  0  0  0  0  0  0  0  0  0  0  0
   -1.9803   -2.8096    1.6434 O   0  0  0  0  0  0  0  0  0  0  0  0
   -2.5332   -1.4966   -0.0966 N   0  0  0  0  0  0  0  0  0  0  0  0
   -3.2312   -1.2816   -0.7936 H   0  0  0  0  0  0  0  0  0  0  0  0
   -1.3593   -0.6196   -0.0536 C   0  0  1  0  0  0  0  0  0  0  0  0
   -0.4622   -1.2317   -0.1545 H   0  0  0  0  0  0  0  0  0  0  0  0
   -1.4074    0.3593   -1.2373 C   0  0  0  0  0  0  0  0  0  0  0  0
   -1.9224    1.2682   -0.9212 H   0  0  0  0  0  0  0  0  0  0  0  0
   -0.3850    0.6343   -1.5023 H   0  0  0  0  0  0  0  0  0  0  0  0
   -2.0933   -0.1589   -2.4649 C   0  0  0  0  0  0  0  0  0  0  0  0
   -2.1463   -1.4541   -2.8488 C   0  0  0  0  0  0  0  0  0  0  0  0
   -1.6776   -2.2750   -2.3173 H   0  0  0  0  0  0  0  0  0  0  0  0
   -2.9005   -1.5664   -4.0003 N   0  0  0  0  0  0  0  0  0  0  0  0
   -3.0721   -2.4432   -4.4704 H   0  0  0  0  0  0  0  0  0  0  0  0
   -3.3880   -0.3433   -4.4091 C   0  0  0  0  0  0  0  0  0  0  0  0
   -4.2072    0.0537   -5.4758 C   0  0  0  0  0  0  0  0  0  0  0  0
   -4.5800   -0.6751   -6.1803 H   0  0  0  0  0  0  0  0  0  0  0  0
   -4.5345    1.4132   -5.6160 C   0  0  0  0  0  0  0  0  0  0  0  0
   -5.1643    1.7381   -6.4332 H   0  0  0  0  0  0  0  0  0  0  0  0
   -4.0361    2.3528   -4.6951 C   0  0  0  0  0  0  0  0  0  0  0  0
   -4.2837    3.3988   -4.8116 H   0  0  0  0  0  0  0  0  0  0  0  0
   -3.2120    1.9427   -3.6279 C   0  0  0  0  0  0  0  0  0  0  0  0
   -2.8250    2.6766   -2.9354 H   0  0  0  0  0  0  0  0  0  0  0  0
   -2.8700    0.5838   -3.4559 C   0  0  0  0  0  0  0  0  0  0  0  0
   -1.2663    0.1182    1.2910 C   0  0  0  0  0  0  0  0  0  0  0  0
   -0.1906    0.1931    1.8833 O   0  0  0  0  0  0  0  0  0  0  0  0
   -2.3930    0.6605    1.7722 N   0  0  0  0  0  0  0  0  0  0  0  0
   -3.2451    0.5077    1.2518 H   0  0  0  0  0  0  0  0  0  0  0  0
   -2.4787    1.3954    3.0311 C   0  0  0  0  0  0  0  0  0  0  0  0
   -1.7166    2.1767    3.0539 H   0  0  0  0  0  0  0  0  0  0  0  0
   -3.4649    1.8498    3.1344 H   0  0  0  0  0  0  0  0  0  0  0  0
   -2.3058    0.7133    3.8652 H   0  0  0  0  0  0  0  0  0  0  0  0
  5  6  2  0  0  0  0
  5  7  1  0  0  0  0
  2  3  1  0  0  0  0
  2  4  1  0  0  0  0
  2  5  1  0  0  0  0
  1  2  1  0  0  0  0
 29 30  2  0  0  0  0
 29 31  1  0  0  0  0
 26 27  1  0  0  0  0
 26 28  2  0  0  0  0
 24 25  1  0  0  0  0
 24 26  1  0  0  0  0
 22 23  1  0  0  0  0
 22 24  2  0  0  0  0
 20 21  1  0  0  0  0
 20 22  1  0  0  0  0
 19 20  2  0  0  0  0
 19 28  1  0  0  0  0
 17 18  1  0  0  0  0
 17 19  1  0  0  0  0
 15 16  1  0  0  0  0
 15 17  1  0  0  0  0
 14 15  2  0  0  0  0
 14 28  1  0  0  0  0
 11 12  1  0  0  0  0
 11 13  1  0  0  0  0
 11 14  1  0  0  0  0
  9 10  1  0  0  0  0
  9 11  1  0  0  0  0
  9 29  1  0  0  0  0
  7  8  1  0  0  0  0
  7  9  1  0  0  0  0
 33 34  1  0  0  0  0
 33 35  1  0  0  0  0
 33 36  1  0  0  0  0
 31 32  1  0  0  0  0
 31 33  1  0  0  0  0
M  END
$$$$
default_name
  -OEChem-02102213163D

 36 37  0     1  0  0  0  0  0999 V2000
   -4.0843   -4.0736    1.2944 H   0  0  0  0  0  0  0  0  0  0  0  0
   -4.0342   -3.2816    0.5484 C   0  0  0  0  0  0  0  0  0  0  0  0
   -4.8842   -2.6126    0.6694 H   0  0  0  0  0  0  0  0  0  0  0  0
   -4.0433   -3.7186   -0.4486 H   0  0  0  0  0  0  0  0  0  0  0  0
   -2.7532   -2.5046    0.7444 C   0  0  0  0  0  0  0  0  0  0  0  0
   -1.9803   -2.8096    1.6434 O   0  0  0  0  0  0  0  0  0  0  0  0
   -2.5332   -1.4966   -0.0966 N   0  0  0  0  0  0  0  0  0  0  0  0
   -3.2312   -1.2816   -0.7936 H   0  0  0  0  0  0  0  0  0  0  0  0
   -1.3593   -0.6196   -0.0536 C   0  0  1  0  0  0  0  0  0  0  0  0
   -0.4622   -1.2317   -0.1545 H   0  0  0  0  0  0  0  0  0  0  0  0
   -1.4074    0.3593   -1.2373 C   0  0  0  0  0  0  0  0  0  0  0  0
   -1.9224    1.2682   -0.9212 H   0  0  0  0  0  0  0  0  0  0  0  0
   -0.3850    0.6343   -1.5023 H   0  0  0  0  0  0  0  0  0  0  0  0
   -2.0933   -0.1589   -2.4649 C   0  0  0  0  0  0  0  0  0  0  0  0
   -2.3970   -1.4534   -2.7090 C   0  0  0  0  0  0  0  0  0  0  0  0
   -2.1602   -2.2785   -2.0462 H   0  0  0  0  0  0  0  0  0  0  0  0
   -3.0670   -1.5541   -3.9125 N   0  0  0  0  0  0  0  0  0  0  0  0
   -3.3885   -2.4293   -4.2995 H   0  0  0  0  0  0  0  0  0  0  0  0
   -3.2441   -0.3193   -4.4997 C   0  0  0  0  0  0  0  0  0  0  0  0
   -3.8730    0.0983   -5.6813 C   0  0  0  0  0  0  0  0  0  0  0  0
   -4.3402   -0.6218   -6.3368 H   0  0  0  0  0  0  0  0  0  0  0  0
   -3.8853    1.4667   -6.0014 C   0  0  0  0  0  0  0  0  0  0  0  0
   -4.3647    1.8073   -6.9092 H   0  0  0  0  0  0  0  0  0  0  0  0
   -3.2667    2.3931   -5.1421 C   0  0  0  0  0  0  0  0  0  0  0  0
   -3.2712    3.4440   -5.3964 H   0  0  0  0  0  0  0  0  0  0  0  0
   -2.6358    1.9618   -3.9580 C   0  0  0  0  0  0  0  0  0  0  0  0
   -2.1528    2.6824   -3.3134 H   0  0  0  0  0  0  0  0  0  0  0  0
   -2.6116    0.5951   -3.6051 C   0  0  0  0  0  0  0  0  0  0  0  0
   -1.2663    0.1182    1.2910 C   0  0  0  0  0  0  0  0  0  0  0  0
   -0.1906    0.1931    1.8833 O   0  0  0  0  0  0  0  0  0  0  0  0
   -2.3930    0.6605    1.7722 N   0  0  0  0  0  0  0  0  0  0  0  0
   -3.2451    0.5077    1.2518 H   0  0  0  0  0  0  0  0  0  0  0  0
   -2.4787    1.3954    3.0311 C   0  0  0  0  0  0  0  0  0  0  0  0
   -1.7166    2.1767    3.0539 H   0  0  0  0  0  0  0  0  0  0  0  0
   -3.4649    1.8498    3.1344 H   0  0  0  0  0  0  0  0  0  0  0  0
   -2.3058    0.7133    3.8652 H   0  0  0  0  0  0  0  0  0  0  0  0
  5  6  2  0  0  0  0
  5  7  1  0  0  0  0
  2  3  1  0  0  0  0
  2  4  1  0  0  0  0
  2  5  1  0  0  0  0
  1  2  1  0  0  0  0
 29 30  2  0  0  0  0
 29 31  1  0  0  0  0
 26 27  1  0  0  0  0
 26 28  2  0  0  0  0
 24 25  1  0  0  0  0
 24 26  1  0  0  0  0
 22 23  1  0  0  0  0
 22 24  2  0  0  0  0
 20 21  1  0  0  0  0
 20 22  1  0  0  0  0
 19 20  2  0  0  0  0
 19 28  1  0  0  0  0
 17 18  1  0  0  0  0
 17 19  1  0  0  0  0
 15 16  1  0  0  0  0
 15 17  1  0  0  0  0
 14 15  2  0  0  0  0
 14 28  1  0  0  0  0
 11 12  1  0  0  0  0
 11 13  1  0  0  0  0
 11 14  1  0  0  0  0
  9 10  1  0  0  0  0
  9 11  1  0  0  0  0
  9 29  1  0  0  0  0
  7  8  1  0  0  0  0
  7  9  1  0  0  0  0
 33 34  1  0  0  0  0
 33 35  1  0  0  0  0
 33 36  1  0  0  0  0
 31 32  1  0  0  0  0
 31 33  1  0  0  0  0
M  END
$$$$
default_name
  -OEChem-02102213163D

 36 37  0     1  0  0  0  0  0999 V2000
   -4.0843   -4.0736    1.2944 H   0  0  0  0  0  0  0  0  0  0  0  0
   -4.0342   -3.2816    0.5484 C   0  0  0  0  0  0  0  0  0  0  0  0
   -4.8842   -2.6126    0.6694 H   0  0  0  0  0  0  0  0  0  0  0  0
   -4.0433   -3.7186   -0.4486 H   0  0  0  0  0  0  0  0  0  0  0  0
   -2.7532   -2.5046    0.7444 C   0  0  0  0  0  0  0  0  0  0  0  0
   -1.9803   -2.8096    1.6434 O   0  0  0  0  0  0  0  0  0  0  0  0
   -2.5332   -1.4966   -0.0966 N   0  0  0  0  0  0  0  0  0  0  0  0
   -3.2312   -1.2816   -0.7936 H   0  0  0  0  0  0  0  0  0  0  0  0
   -1.3593   -0.6196   -0.0536 C   0  0  1  0  0  0  0  0  0  0  0  0
   -0.4622   -1.2317   -0.1545 H   0  0  0  0  0  0  0  0  0  0  0  0
   -1.4074    0.3593   -1.2373 C   0  0  0  0  0  0  0  0  0  0  0  0
   -1.9224    1.2682   -0.9212 H   0  0  0  0  0  0  0  0  0  0  0  0
   -0.3850    0.6343   -1.5023 H   0  0  0  0  0  0  0  0  0  0  0  0
   -2.0933   -0.1589   -2.4649 C   0  0  0  0  0  0  0  0  0  0  0  0
   -2.6515   -1.3831   -2.5964 C   0  0  0  0  0  0  0  0  0  0  0  0
   -2.6513   -2.1474   -1.8271 H   0  0  0  0  0  0  0  0  0  0  0  0
   -3.2330   -1.4965   -3.8440 N   0  0  0  0  0  0  0  0  0  0  0  0
   -3.7064   -2.3286   -4.1643 H   0  0  0  0  0  0  0  0  0  0  0  0
   -3.0919   -0.3374   -4.5771 C   0  0  0  0  0  0  0  0  0  0  0  0
   -3.5224    0.0463   -5.8553 C   0  0  0  0  0  0  0  0  0  0  0  0
   -4.0833   -0.6398   -6.4728 H   0  0  0  0  0  0  0  0  0  0  0  0
   -3.2123    1.3351   -6.3219 C   0  0  0  0  0  0  0  0  0  0  0  0
   -3.5351    1.6482   -7.3056 H   0  0  0  0  0  0  0  0  0  0  0  0
   -2.4749    2.2160   -5.5098 C   0  0  0  0  0  0  0  0  0  0  0  0
   -2.2313    3.2037   -5.8760 H   0  0  0  0  0  0  0  0  0  0  0  0
   -2.0456    1.8189   -4.2275 C   0  0  0  0  0  0  0  0  0  0  0  0
   -1.4684    2.5008   -3.6192 H   0  0  0  0  0  0  0  0  0  0  0  0
   -2.3463    0.5335   -3.7273 C   0  0  0  0  0  0  0  0  0  0  0  0
   -1.2663    0.1182    1.2910 C   0  0  0  0  0  0  0  0  0  0  0  0
   -0.1906    0.1931    1.8833 O   0  0  0  0  0  0  0  0  0  0  0  0
   -2.3930    0.6605    1.7722 N   0  0  0  0  0  0  0  0  0  0  0  0
   -3.2451    0.5077    1.2518 H   0  0  0  0  0  0  0  0  0  0  0  0
   -2.4787    1.3954    3.0311 C   0  0  0  0  0  0  0  0  0  0  0  0
   -1.7166    2.1767    3.0539 H   0  0  0  0  0  0  0  0  0  0  0  0
   -3.4649    1.8498    3.1344 H   0  0  0  0  0  0  0  0  0  0  0  0
   -2.3058    0.7133    3.8652 H   0  0  0  0  0  0  0  0  0  0  0  0
  5  6  2  0  0  0  0
  5  7  1  0  0  0  0
  2  3  1  0  0  0  0
  2  4  1  0  0  0  0
  2  5  1  0  0  0  0
  1  2  1  0  0  0  0
 29 30  2  0  0  0  0
 29 31  1  0  0  0  0
 26 27  1  0  0  0  0
 26 28  2  0  0  0  0
 24 25  1  0  0  0  0
 24 26  1  0  0  0  0
 22 23  1  0  0  0  0
 22 24  2  0  0  0  0
 20 21  1  0  0  0  0
 20 22  1  0  0  0  0
 19 20  2  0  0  0  0
 19 28  1  0  0  0  0
 17 18  1  0  0  0  0
 17 19  1  0  0  0  0
 15 16  1  0  0  0  0
 15 17  1  0  0  0  0
 14 15  2  0  0  0  0
 14 28  1  0  0  0  0
 11 12  1  0  0  0  0
 11 13  1  0  0  0  0
 11 14  1  0  0  0  0
  9 10  1  0  0  0  0
  9 11  1  0  0  0  0
  9 29  1  0  0  0  0
  7  8  1  0  0  0  0
  7  9  1  0  0  0  0
 33 34  1  0  0  0  0
 33 35  1  0  0  0  0
 33 36  1  0  0  0  0
 31 32  1  0  0  0  0
 31 33  1  0  0  0  0
M  END
$$$$
default_name
  -OEChem-02102213163D

 36 37  0     1  0  0  0  0  0999 V2000
   -4.0843   -4.0736    1.2944 H   0  0  0  0  0  0  0  0  0  0  0  0
   -4.0342   -3.2816    0.5484 C   0  0  0  0  0  0  0  0  0  0  0  0
   -4.8842   -2.6126    0.6694 H   0  0  0  0  0  0  0  0  0  0  0  0
   -4.0433   -3.7186   -0.4486 H   0  0  0  0  0  0  0  0  0  0  0  0
   -2.7532   -2.5046    0.7444 C   0  0  0  0  0  0  0  0  0  0  0  0
   -1.9803   -2.8096    1.6434 O   0  0  0  0  0  0  0  0  0  0  0  0
   -2.5332   -1.4966   -0.0966 N   0  0  0  0  0  0  0  0  0  0  0  0
   -3.2312   -1.2816   -0.7936 H   0  0  0  0  0  0  0  0  0  0  0  0
   -1.3593   -0.6196   -0.0536 C   0  0  1  0  0  0  0  0  0  0  0  0
   -0.4622   -1.2317   -0.1545 H   0  0  0  0  0  0  0  0  0  0  0  0
   -1.4074    0.3593   -1.2373 C   0  0  0  0  0  0  0  0  0  0  0  0
   -1.9224    1.2682   -0.9212 H   0  0  0  0  0  0  0  0  0  0  0  0
   -0.3850    0.6343   -1.5023 H   0  0  0  0  0  0  0  0  0  0  0  0
   -2.0933   -0.1589   -2.4649 C   0  0  0  0  0  0  0  0  0  0  0  0
   -2.8925   -1.2479   -2.5188 C   0  0  0  0  0  0  0  0  0  0  0  0
   -3.1175   -1.8908   -1.6749 H   0  0  0  0  0  0  0  0  0  0  0  0
   -3.3873   -1.3976   -3.7996 N   0  0  0  0  0  0  0  0  0  0  0  0
   -4.0043   -2.1480   -4.0742 H   0  0  0  0  0  0  0  0  0  0  0  0
   -2.9418   -0.3963   -4.6361 C   0  0  0  0  0  0  0  0  0  0  0  0
   -3.1792   -0.0989   -5.9857 C   0  0  0  0  0  0  0  0  0  0  0  0
   -3.8267   -0.7276   -6.5791 H   0  0  0  0  0  0  0  0  0  0  0  0
   -2.5614    1.0274   -6.5557 C   0  0  0  0  0  0  0  0  0  0  0  0
   -2.7321    1.2717   -7.5954 H   0  0  0  0  0  0  0  0  0  0  0  0
   -1.7147    1.8335   -5.7731 C   0  0  0  0  0  0  0  0  0  0  0  0
   -1.2349    2.6944   -6.2178 H   0  0  0  0  0  0  0  0  0  0  0  0
   -1.4817    1.5240   -4.4180 C   0  0  0  0  0  0  0  0  0  0  0  0
   -0.8185    2.1440   -3.8317 H   0  0  0  0  0  0  0  0  0  0  0  0
   -2.0921    0.4032   -3.8144 C   0  0  0  0  0  0  0  0  0  0  0  0
   -1.2663    0.1182    1.2910 C   0  0  0  0  0  0  0  0  0  0  0  0
   -0.1906    0.1931    1.8833 O   0  0  0  0  0  0  0  0  0  0  0  0
   -2.3930    0.6605    1.7722 N   0  0  0  0  0  0  0  0  0  0  0  0
   -3.2451    0.5077    1.2518 H   0  0  0  0  0  0  0  0  0  0  0  0
   -2.4787    1.3954    3.0311 C   0  0  0  0  0  0  0  0  0  0  0  0
   -1.7166    2.1767    3.0539 H   0  0  0  0  0  0  0  0  0  0  0  0
   -3.4649    1.8498    3.1344 H   0  0  0  0  0  0  0  0  0  0  0  0
   -2.3058    0.7133    3.8652 H   0  0  0  0  0  0  0  0  0  0  0  0
  5  6  2  0  0  0  0
  5  7  1  0  0  0  0
  2  3  1  0  0  0  0
  2  4  1  0  0  0  0
  2  5  1  0  0  0  0
  1  2  1  0  0  0  0
 29 30  2  0  0  0  0
 29 31  1  0  0  0  0
 26 27  1  0  0  0  0
 26 28  2  0  0  0  0
 24 25  1  0  0  0  0
 24 26  1  0  0  0  0
 22 23  1  0  0  0  0
 22 24  2  0  0  0  0
 20 21  1  0  0  0  0
 20 22  1  0  0  0  0
 19 20  2  0  0  0  0
 19 28  1  0  0  0  0
 17 18  1  0  0  0  0
 17 19  1  0  0  0  0
 15 16  1  0  0  0  0
 15 17  1  0  0  0  0
 14 15  2  0  0  0  0
 14 28  1  0  0  0  0
 11 12  1  0  0  0  0
 11 13  1  0  0  0  0
 11 14  1  0  0  0  0
  9 10  1  0  0  0  0
  9 11  1  0  0  0  0
  9 29  1  0  0  0  0
  7  8  1  0  0  0  0
  7  9  1  0  0  0  0
 33 34  1  0  0  0  0
 33 35  1  0  0  0  0
 33 36  1  0  0  0  0
 31 32  1  0  0  0  0
 31 33  1  0  0  0  0
M  END
$$$$
default_name
  -OEChem-02102213163D

 36 37  0     1  0  0  0  0  0999 V2000
   -4.0843   -4.0736    1.2944 H   0  0  0  0  0  0  0  0  0  0  0  0
   -4.0342   -3.2816    0.5484 C   0  0  0  0  0  0  0  0  0  0  0  0
   -4.8842   -2.6126    0.6694 H   0  0  0  0  0  0  0  0  0  0  0  0
   -4.0433   -3.7186   -0.4486 H   0  0  0  0  0  0  0  0  0  0  0  0
   -2.7532   -2.5046    0.7444 C   0  0  0  0  0  0  0  0  0  0  0  0
   -1.9803   -2.8096    1.6434 O   0  0  0  0  0  0  0  0  0  0  0  0
   -2.5332   -1.4966   -0.0966 N   0  0  0  0  0  0  0  0  0  0  0  0
   -3.2312   -1.2816   -0.7936 H   0  0  0  0  0  0  0  0  0  0  0  0
   -1.3593   -0.6196   -0.0536 C   0  0  1  0  0  0  0  0  0  0  0  0
   -0.4622   -1.2317   -0.1545 H   0  0  0  0  0  0  0  0  0  0  0  0
   -1.4074    0.3593   -1.2373 C   0  0  0  0  0  0  0  0  0  0  0  0
   -1.9224    1.2682   -0.9212 H   0  0  0  0  0  0  0  0  0  0  0  0
   -0.3850    0.6343   -1.5023 H   0  0  0  0  0  0  0  0  0  0  0  0
   -2.0933   -0.1589   -2.4649 C   0  0  0  0  0  0  0  0  0  0  0  0
   -3.1036   -1.0570   -2.4815 C   0  0  0  0  0  0  0  0  0  0  0  0
   -3.5270   -1.5260   -1.6001 H   0  0  0  0  0  0  0  0  0  0  0  0
   -3.5193   -1.2641   -3.7822 N   0  0  0  0  0  0  0  0  0  0  0  0
   -4.2618   -1.8996   -4.0351 H   0  0  0  0  0  0  0  0  0  0  0  0
   -2.8039   -0.4921   -4.6727 C   0  0  0  0  0  0  0  0  0  0  0  0
   -2.8668   -0.3274   -6.0638 C   0  0  0  0  0  0  0  0  0  0  0  0
   -3.5881   -0.8795   -6.6484 H   0  0  0  0  0  0  0  0  0  0  0  0
   -1.9771    0.5644   -6.6867 C   0  0  0  0  0  0  0  0  0  0  0  0
   -2.0102    0.7035   -7.7589 H   0  0  0  0  0  0  0  0  0  0  0  0
   -1.0380    1.2717   -5.9140 C   0  0  0  0  0  0  0  0  0  0  0  0
   -0.3498    1.9506   -6.3984 H   0  0  0  0  0  0  0  0  0  0  0  0
   -0.9825    1.0969   -4.5167 C   0  0  0  0  0  0  0  0  0  0  0  0
   -0.2473    1.6364   -3.9366 H   0  0  0  0  0  0  0  0  0  0  0  0
   -1.8664    0.2132   -3.8603 C   0  0  0  0  0  0  0  0  0  0  0  0
   -1.2663    0.1182    1.2910 C   0  0  0  0  0  0  0  0  0  0  0  0
   -0.1906    0.1931    1.8833 O   0  0  0  0  0  0  0  0  0  0  0  0
   -2.3930    0.6605    1.7722 N   0  0  0  0  0  0  0  0  0  0  0  0
   -3.2451    0.5077    1.2518 H   0  0  0  0  0  0  0  0  0  0  0  0
   -2.4787    1.3954    3.0311 C   0  0  0  0  0  0  0  0  0  0  0  0
   -1.7166    2.1767    3.0539 H   0  0  0  0  0  0  0  0  0  0  0  0
   -3.4649    1.8498    3.1344 H   0  0  0  0  0  0  0  0  0  0  0  0
   -2.3058    0.7133    3.8652 H   0  0  0  0  0  0  0  0  0  0  0  0
  5  6  2  0  0  0  0
  5  7  1  0  0  0  0
  2  3  1  0  0  0  0
  2  4  1  0  0  0  0
  2  5  1  0  0  0  0
  1  2  1  0  0  0  0
 29 30  2  0  0  0  0
 29 31  1  0  0  0  0
 26 27  1  0  0  0  0
 26 28  2  0  0  0  0
 24 25  1  0  0  0  0
 24 26  1  0  0  0  0
 22 23  1  0  0  0  0
 22 24  2  0  0  0  0
 20 21  1  0  0  0  0
 20 22  1  0  0  0  0
 19 20  2  0  0  0  0
 19 28  1  0  0  0  0
 17 18  1  0  0  0  0
 17 19  1  0  0  0  0
 15 16  1  0  0  0  0
 15 17  1  0  0  0  0
 14 15  2  0  0  0  0
 14 28  1  0  0  0  0
 11 12  1  0  0  0  0
 11 13  1  0  0  0  0
 11 14  1  0  0  0  0
  9 10  1  0  0  0  0
  9 11  1  0  0  0  0
  9 29  1  0  0  0  0
  7  8  1  0  0  0  0
  7  9  1  0  0  0  0
 33 34  1  0  0  0  0
 33 35  1  0  0  0  0
 33 36  1  0  0  0  0
 31 32  1  0  0  0  0
 31 33  1  0  0  0  0
M  END
$$$$
default_name
  -OEChem-02102213163D

 36 37  0     1  0  0  0  0  0999 V2000
   -4.0843   -4.0736    1.2944 H   0  0  0  0  0  0  0  0  0  0  0  0
   -4.0342   -3.2816    0.5484 C   0  0  0  0  0  0  0  0  0  0  0  0
   -4.8842   -2.6126    0.6694 H   0  0  0  0  0  0  0  0  0  0  0  0
   -4.0433   -3.7186   -0.4486 H   0  0  0  0  0  0  0  0  0  0  0  0
   -2.7532   -2.5046    0.7444 C   0  0  0  0  0  0  0  0  0  0  0  0
   -1.9803   -2.8096    1.6434 O   0  0  0  0  0  0  0  0  0  0  0  0
   -2.5332   -1.4966   -0.0966 N   0  0  0  0  0  0  0  0  0  0  0  0
   -3.2312   -1.2816   -0.7936 H   0  0  0  0  0  0  0  0  0  0  0  0
   -1.3593   -0.6196   -0.0536 C   0  0  1  0  0  0  0  0  0  0  0  0
   -0.4622   -1.2317   -0.1545 H   0  0  0  0  0  0  0  0  0  0  0  0
   -1.4074    0.3593   -1.2373 C   0  0  0  0  0  0  0  0  0  0  0  0
   -1.9224    1.2682   -0.9212 H   0  0  0  0  0  0  0  0  0  0  0  0
   -0.3850    0.6343   -1.5023 H   0  0  0  0  0  0  0  0  0  0  0  0
   -2.0933   -0.1589   -2.4649 C   0  0  0  0  0  0  0  0  0  0  0  0
   -3.2704   -0.8234   -2.4869 C   0  0  0  0  0  0  0  0  0  0  0  0
   -3.8520   -1.0780   -1.6076 H   0  0  0  0  0  0  0  0  0  0  0  0
   -3.6201   -1.1050   -3.7930 N   0  0  0  0  0  0  0  0  0  0  0  0
   -4.4613   -1.6005   -4.0499 H   0  0  0  0  0  0  0  0  0  0  0  0
   -2.6879   -0.6181   -4.6843 C   0  0  0  0  0  0  0  0  0  0  0  0
   -2.6065   -0.6236   -6.0842 C   0  0  0  0  0  0  0  0  0  0  0  0
   -3.3835   -1.0850   -6.6759 H   0  0  0  0  0  0  0  0  0  0  0  0
   -1.4991   -0.0222   -6.7062 C   0  0  0  0  0  0  0  0  0  0  0  0
   -1.4188   -0.0177   -7.7849 H   0  0  0  0  0  0  0  0  0  0  0  0
   -0.4908    0.5689   -5.9231 C   0  0  0  0  0  0  0  0  0  0  0  0
    0.3636    1.0232   -6.4055 H   0  0  0  0  0  0  0  0  0  0  0  0
   -0.5820    0.5669   -4.5167 C   0  0  0  0  0  0  0  0  0  0  0  0
    0.2061    1.0126   -3.9266 H   0  0  0  0  0  0  0  0  0  0  0  0
   -1.6845   -0.0236   -3.8619 C   0  0  0  0  0  0  0  0  0  0  0  0
   -1.2663    0.1182    1.2910 C   0  0  0  0  0  0  0  0  0  0  0  0
   -0.1906    0.1931    1.8833 O   0  0  0  0  0  0  0  0  0  0  0  0
   -2.3930    0.6605    1.7722 N   0  0  0  0  0  0  0  0  0  0  0  0
   -3.2451    0.5077    1.2518 H   0  0  0  0  0  0  0  0  0  0  0  0
   -2.4787    1.3954    3.0311 C   0  0  0  0  0  0  0  0  0  0  0  0
   -1.7166    2.1767    3.0539 H   0  0  0  0  0  0  0  0  0  0  0  0
   -3.4649    1.8498    3.1344 H   0  0  0  0  0  0  0  0  0  0  0  0
   -2.3058    0.7133    3.8652 H   0  0  0  0  0  0  0  0  0  0  0  0
  5  6  2  0  0  0  0
  5  7  1  0  0  0  0
  2  3  1  0  0  0  0
  2  4  1  0  0  0  0
  2  5  1  0  0  0  0
  1  2  1  0  0  0  0
 29 30  2  0  0  0  0
 29 31  1  0  0  0  0
 26 27  1  0  0  0  0
 26 28  2  0  0  0  0
 24 25  1  0  0  0  0
 24 26  1  0  0  0  0
 22 23  1  0  0  0  0
 22 24  2  0  0  0  0
 20 21  1  0  0  0  0
 20 22  1  0  0  0  0
 19 20  2  0  0  0  0
 19 28  1  0  0  0  0
 17 18  1  0  0  0  0
 17 19  1  0  0  0  0
 15 16  1  0  0  0  0
 15 17  1  0  0  0  0
 14 15  2  0  0  0  0
 14 28  1  0  0  0  0
 11 12  1  0  0  0  0
 11 13  1  0  0  0  0
 11 14  1  0  0  0  0
  9 10  1  0  0  0  0
  9 11  1  0  0  0  0
  9 29  1  0  0  0  0
  7  8  1  0  0  0  0
  7  9  1  0  0  0  0
 33 34  1  0  0  0  0
 33 35  1  0  0  0  0
 33 36  1  0  0  0  0
 31 32  1  0  0  0  0
 31 33  1  0  0  0  0
M  END
$$$$
default_name
  -OEChem-02102213163D

 36 37  0     1  0  0  0  0  0999 V2000
   -4.0843   -4.0736    1.2944 H   0  0  0  0  0  0  0  0  0  0  0  0
   -4.0342   -3.2816    0.5484 C   0  0  0  0  0  0  0  0  0  0  0  0
   -4.8842   -2.6126    0.6694 H   0  0  0  0  0  0  0  0  0  0  0  0
   -4.0433   -3.7186   -0.4486 H   0  0  0  0  0  0  0  0  0  0  0  0
   -2.7532   -2.5046    0.7444 C   0  0  0  0  0  0  0  0  0  0  0  0
   -1.9803   -2.8096    1.6434 O   0  0  0  0  0  0  0  0  0  0  0  0
   -2.5332   -1.4966   -0.0966 N   0  0  0  0  0  0  0  0  0  0  0  0
   -3.2312   -1.2816   -0.7936 H   0  0  0  0  0  0  0  0  0  0  0  0
   -1.3593   -0.6196   -0.0536 C   0  0  1  0  0  0  0  0  0  0  0  0
   -0.4622   -1.2317   -0.1545 H   0  0  0  0  0  0  0  0  0  0  0  0
   -1.4074    0.3593   -1.2373 C   0  0  0  0  0  0  0  0  0  0  0  0
   -1.9224    1.2682   -0.9212 H   0  0  0  0  0  0  0  0  0  0  0  0
   -0.3850    0.6343   -1.5023 H   0  0  0  0  0  0  0  0  0  0  0  0
   -2.0933   -0.1589   -2.4649 C   0  0  0  0  0  0  0  0  0  0  0  0
   -3.3815   -0.5631   -2.5347 C   0  0  0  0  0  0  0  0  0  0  0  0
   -4.0702   -0.5772   -1.6971 H   0  0  0  0  0  0  0  0  0  0  0  0
   -3.6828   -0.9313   -3.8313 N   0  0  0  0  0  0  0  0  0  0  0  0
   -4.5894   -1.2711   -4.1174 H   0  0  0  0  0  0  0  0  0  0  0  0
   -2.6014   -0.7658   -4.6703 C   0  0  0  0  0  0  0  0  0  0  0  0
   -2.4160   -0.9673   -6.0456 C   0  0  0  0  0  0  0  0  0  0  0  0
   -3.2270   -1.3301   -6.6599 H   0  0  0  0  0  0  0  0  0  0  0  0
   -1.1600   -0.6924   -6.6128 C   0  0  0  0  0  0  0  0  0  0  0  0
   -0.9982   -0.8429   -7.6716 H   0  0  0  0  0  0  0  0  0  0  0  0
   -0.1104   -0.2271   -5.7996 C   0  0  0  0  0  0  0  0  0  0  0  0
    0.8567   -0.0247   -6.2387 H   0  0  0  0  0  0  0  0  0  0  0  0
   -0.3075   -0.0300   -4.4181 C   0  0  0  0  0  0  0  0  0  0  0  0
    0.5110    0.3151   -3.8026 H   0  0  0  0  0  0  0  0  0  0  0  0
   -1.5590   -0.2911   -3.8192 C   0  0  0  0  0  0  0  0  0  0  0  0
   -1.2663    0.1182    1.2910 C   0  0  0  0  0  0  0  0  0  0  0  0
   -0.1906    0.1931    1.8833 O   0  0  0  0  0  0  0  0  0  0  0  0
   -2.3930    0.6605    1.7722 N   0  0  0  0  0  0  0  0  0  0  0  0
   -3.2451    0.5077    1.2518 H   0  0  0  0  0  0  0  0  0  0  0  0
   -2.4787    1.3954    3.0311 C   0  0  0  0  0  0  0  0  0  0  0  0
   -1.7166    2.1767    3.0539 H   0  0  0  0  0  0  0  0  0  0  0  0
   -3.4649    1.8498    3.1344 H   0  0  0  0  0  0  0  0  0  0  0  0
   -2.3058    0.7133    3.8652 H   0  0  0  0  0  0  0  0  0  0  0  0
  5  6  2  0  0  0  0
  5  7  1  0  0  0  0
  2  3  1  0  0  0  0
  2  4  1  0  0  0  0
  2  5  1  0  0  0  0
  1  2  1  0  0  0  0
 29 30  2  0  0  0  0
 29 31  1  0  0  0  0
 26 27  1  0  0  0  0
 26 28  2  0  0  0  0
 24 25  1  0  0  0  0
 24 26  1  0  0  0  0
 22 23  1  0  0  0  0
 22 24  2  0  0  0  0
 20 21  1  0  0  0  0
 20 22  1  0  0  0  0
 19 20  2  0  0  0  0
 19 28  1  0  0  0  0
 17 18  1  0  0  0  0
 17 19  1  0  0  0  0
 15 16  1  0  0  0  0
 15 17  1  0  0  0  0
 14 15  2  0  0  0  0
 14 28  1  0  0  0  0
 11 12  1  0  0  0  0
 11 13  1  0  0  0  0
 11 14  1  0  0  0  0
  9 10  1  0  0  0  0
  9 11  1  0  0  0  0
  9 29  1  0  0  0  0
  7  8  1  0  0  0  0
  7  9  1  0  0  0  0
 33 34  1  0  0  0  0
 33 35  1  0  0  0  0
 33 36  1  0  0  0  0
 31 32  1  0  0  0  0
 31 33  1  0  0  0  0
M  END
$$$$
default_name
  -OEChem-02102213163D

 36 37  0     1  0  0  0  0  0999 V2000
   -4.0843   -4.0736    1.2944 H   0  0  0  0  0  0  0  0  0  0  0  0
   -4.0342   -3.2816    0.5484 C   0  0  0  0  0  0  0  0  0  0  0  0
   -4.8842   -2.6126    0.6694 H   0  0  0  0  0  0  0  0  0  0  0  0
   -4.0433   -3.7186   -0.4486 H   0  0  0  0  0  0  0  0  0  0  0  0
   -2.7532   -2.5046    0.7444 C   0  0  0  0  0  0  0  0  0  0  0  0
   -1.9803   -2.8096    1.6434 O   0  0  0  0  0  0  0  0  0  0  0  0
   -2.5332   -1.4966   -0.0966 N   0  0  0  0  0  0  0  0  0  0  0  0
   -3.2312   -1.2816   -0.7936 H   0  0  0  0  0  0  0  0  0  0  0  0
   -1.3593   -0.6196   -0.0536 C   0  0  1  0  0  0  0  0  0  0  0  0
   -0.4622   -1.2317   -0.1545 H   0  0  0  0  0  0  0  0  0  0  0  0
   -1.4074    0.3593   -1.2373 C   0  0  0  0  0  0  0  0  0  0  0  0
   -1.9224    1.2682   -0.9212 H   0  0  0  0  0  0  0  0  0  0  0  0
   -0.3850    0.6343   -1.5023 H   0  0  0  0  0  0  0  0  0  0  0  0
   -2.0933   -0.1589   -2.4649 C   0  0  0  0  0  0  0  0  0  0  0  0
   -3.4293   -0.2938   -2.6217 C   0  0  0  0  0  0  0  0  0  0  0  0
   -4.1668   -0.0578   -1.8624 H   0  0  0  0  0  0  0  0  0  0  0  0
   -3.7031   -0.7548   -3.8945 N   0  0  0  0  0  0  0  0  0  0  0  0
   -4.6371   -0.9337   -4.2332 H   0  0  0  0  0  0  0  0  0  0  0  0
   -2.5505   -0.9252   -4.6315 C   0  0  0  0  0  0  0  0  0  0  0  0
   -2.3084   -1.3351   -5.9505 C   0  0  0  0  0  0  0  0  0  0  0  0
   -3.1293   -1.5982   -6.6013 H   0  0  0  0  0  0  0  0  0  0  0  0
   -0.9829   -1.4006   -6.4128 C   0  0  0  0  0  0  0  0  0  0  0  0
   -0.7769   -1.7156   -7.4268 H   0  0  0  0  0  0  0  0  0  0  0  0
    0.0772   -1.0619   -5.5520 C   0  0  0  0  0  0  0  0  0  0  0  0
    1.0960   -1.1217   -5.9093 H   0  0  0  0  0  0  0  0  0  0  0  0
   -0.1778   -0.6531   -4.2276 C   0  0  0  0  0  0  0  0  0  0  0  0
    0.6465   -0.4086   -3.5728 H   0  0  0  0  0  0  0  0  0  0  0  0
   -1.4982   -0.5710   -3.7350 C   0  0  0  0  0  0  0  0  0  0  0  0
   -1.2663    0.1182    1.2910 C   0  0  0  0  0  0  0  0  0  0  0  0
   -0.1906    0.1931    1.8833 O   0  0  0  0  0  0  0  0  0  0  0  0
   -2.3930    0.6605    1.7722 N   0  0  0  0  0  0  0  0  0  0  0  0
   -3.2451    0.5077    1.2518 H   0  0  0  0  0  0  0  0  0  0  0  0
   -2.4787    1.3954    3.0311 C   0  0  0  0  0  0  0  0  0  0  0  0
   -1.7166    2.1767    3.0539 H   0  0  0  0  0  0  0  0  0  0  0  0
   -3.4649    1.8498    3.1344 H   0  0  0  0  0  0  0  0  0  0  0  0
   -2.3058    0.7133    3.8652 H   0  0  0  0  0  0  0  0  0  0  0  0
  5  6  2  0  0  0  0
  5  7  1  0  0  0  0
  2  3  1  0  0  0  0
  2  4  1  0  0  0  0
  2  5  1  0  0  0  0
  1  2  1  0  0  0  0
 29 30  2  0  0  0  0
 29 31  1  0  0  0  0
 26 27  1  0  0  0  0
 26 28  2  0  0  0  0
 24 25  1  0  0  0  0
 24 26  1  0  0  0  0
 22 23  1  0  0  0  0
 22 24  2  0  0  0  0
 20 21  1  0  0  0  0
 20 22  1  0  0  0  0
 19 20  2  0  0  0  0
 19 28  1  0  0  0  0
 17 18  1  0  0  0  0
 17 19  1  0  0  0  0
 15 16  1  0  0  0  0
 15 17  1  0  0  0  0
 14 15  2  0  0  0  0
 14 28  1  0  0  0  0
 11 12  1  0  0  0  0
 11 13  1  0  0  0  0
 11 14  1  0  0  0  0
  9 10  1  0  0  0  0
  9 11  1  0  0  0  0
  9 29  1  0  0  0  0
  7  8  1  0  0  0  0
  7  9  1  0  0  0  0
 33 34  1  0  0  0  0
 33 35  1  0  0  0  0
 33 36  1  0  0  0  0
 31 32  1  0  0  0  0
 31 33  1  0  0  0  0
M  END
$$$$
default_name
  -OEChem-02102213163D

 36 37  0     1  0  0  0  0  0999 V2000
   -4.0843   -4.0736    1.2944 H   0  0  0  0  0  0  0  0  0  0  0  0
   -4.0342   -3.2816    0.5484 C   0  0  0  0  0  0  0  0  0  0  0  0
   -4.8842   -2.6126    0.6694 H   0  0  0  0  0  0  0  0  0  0  0  0
   -4.0433   -3.7186   -0.4486 H   0  0  0  0  0  0  0  0  0  0  0  0
   -2.7532   -2.5046    0.7444 C   0  0  0  0  0  0  0  0  0  0  0  0
   -1.9803   -2.8096    1.6434 O   0  0  0  0  0  0  0  0  0  0  0  0
   -2.5332   -1.4966   -0.0966 N   0  0  0  0  0  0  0  0  0  0  0  0
   -3.2312   -1.2816   -0.7936 H   0  0  0  0  0  0  0  0  0  0  0  0
   -1.3593   -0.6196   -0.0536 C   0  0  1  0  0  0  0  0  0  0  0  0
   -0.4622   -1.2317   -0.1545 H   0  0  0  0  0  0  0  0  0  0  0  0
   -1.4074    0.3593   -1.2373 C   0  0  0  0  0  0  0  0  0  0  0  0
   -1.9224    1.2682   -0.9212 H   0  0  0  0  0  0  0  0  0  0  0  0
   -0.3850    0.6343   -1.5023 H   0  0  0  0  0  0  0  0  0  0  0  0
   -2.0933   -0.1589   -2.4649 C   0  0  0  0  0  0  0  0  0  0  0  0
   -3.4106   -0.0338   -2.7419 C   0  0  0  0  0  0  0  0  0  0  0  0
   -4.1352    0.4447   -2.0922 H   0  0  0  0  0  0  0  0  0  0  0  0
   -3.6796   -0.5875   -3.9782 N   0  0  0  0  0  0  0  0  0  0  0  0
   -4.6014   -0.6114   -4.3892 H   0  0  0  0  0  0  0  0  0  0  0  0
   -2.5385   -1.0853   -4.5706 C   0  0  0  0  0  0  0  0  0  0  0  0
   -2.2909   -1.7019   -5.8054 C   0  0  0  0  0  0  0  0  0  0  0  0
   -3.0969   -1.8709   -6.5043 H   0  0  0  0  0  0  0  0  0  0  0  0
   -0.9799   -2.0985   -6.1198 C   0  0  0  0  0  0  0  0  0  0  0  0
   -0.7701   -2.5766   -7.0671 H   0  0  0  0  0  0  0  0  0  0  0  0
    0.0593   -1.8788   -5.1972 C   0  0  0  0  0  0  0  0  0  0  0  0
    1.0650   -2.1930   -5.4397 H   0  0  0  0  0  0  0  0  0  0  0  0
   -0.2016   -1.2598   -3.9582 C   0  0  0  0  0  0  0  0  0  0  0  0
    0.6035   -1.1091   -3.2530 H   0  0  0  0  0  0  0  0  0  0  0  0
   -1.5064   -0.8443   -3.6150 C   0  0  0  0  0  0  0  0  0  0  0  0
   -1.2663    0.1182    1.2910 C   0  0  0  0  0  0  0  0  0  0  0  0
   -0.1906    0.1931    1.8833 O   0  0  0  0  0  0  0  0  0  0  0  0
   -2.3930    0.6605    1.7722 N   0  0  0  0  0  0  0  0  0  0  0  0
   -3.2451    0.5077    1.2518 H   0  0  0  0  0  0  0  0  0  0  0  0
   -2.4787    1.3954    3.0311 C   0  0  0  0  0  0  0  0  0  0  0  0
   -1.7166    2.1767    3.0539 H   0  0  0  0  0  0  0  0  0  0  0  0
   -3.4649    1.8498    3.1344 H   0  0  0  0  0  0  0  0  0  0  0  0
   -2.3058    0.7133    3.8652 H   0  0  0  0  0  0  0  0  0  0  0  0
  5  6  2  0  0  0  0
  5  7  1  0  0  0  0
  2  3  1  0  0  0  0
  2  4  1  0  0  0  0
  2  5  1  0  0  0  0
  1  2  1  0  0  0  0
 29 30  2  0  0  0  0
 29 31  1  0  0  0  0
 26 27  1  0  0  0  0
 26 28  2  0  0  0  0
 24 25  1  0  0  0  0
 24 26  1  0  0  0  0
 22 23  1  0  0  0  0
 22 24  2  0  0  0  0
 20 21  1  0  0  0  0
 20 22  1  0  0  0  0
 19 20  2  0  0  0  0
 19 28  1  0  0  0  0
 17 18  1  0  0  0  0
 17 19  1  0  0  0  0
 15 16  1  0  0  0  0
 15 17  1  0  0  0  0
 14 15  2  0  0  0  0
 14 28  1  0  0  0  0
 11 12  1  0  0  0  0
 11 13  1  0  0  0  0
 11 14  1  0  0  0  0
  9 10  1  0  0  0  0
  9 11  1  0  0  0  0
  9 29  1  0  0  0  0
  7  8  1  0  0  0  0
  7  9  1  0  0  0  0
 33 34  1  0  0  0  0
 33 35  1  0  0  0  0
 33 36  1  0  0  0  0
 31 32  1  0  0  0  0
 31 33  1  0  0  0  0
M  END
$$$$
default_name
  -OEChem-02102213163D

 36 37  0     1  0  0  0  0  0999 V2000
   -4.0843   -4.0736    1.2944 H   0  0  0  0  0  0  0  0  0  0  0  0
   -4.0342   -3.2816    0.5484 C   0  0  0  0  0  0  0  0  0  0  0  0
   -4.8842   -2.6126    0.6694 H   0  0  0  0  0  0  0  0  0  0  0  0
   -4.0433   -3.7186   -0.4486 H   0  0  0  0  0  0  0  0  0  0  0  0
   -2.7532   -2.5046    0.7444 C   0  0  0  0  0  0  0  0  0  0  0  0
   -1.9803   -2.8096    1.6434 O   0  0  0  0  0  0  0  0  0  0  0  0
   -2.5332   -1.4966   -0.0966 N   0  0  0  0  0  0  0  0  0  0  0  0
   -3.2312   -1.2816   -0.7936 H   0  0  0  0  0  0  0  0  0  0  0  0
   -1.3593   -0.6196   -0.0536 C   0  0  1  0  0  0  0  0  0  0  0  0
   -0.4622   -1.2317   -0.1545 H   0  0  0  0  0  0  0  0  0  0  0  0
   -1.4074    0.3593   -1.2373 C   0  0  0  0  0  0  0  0  0  0  0  0
   -1.9224    1.2682   -0.9212 H   0  0  0  0  0  0  0  0  0  0  0  0
   -0.3850    0.6343   -1.5023 H   0  0  0  0  0  0  0  0  0  0  0  0
   -2.0933   -0.1589   -2.4649 C   0  0  0  0  0  0  0  0  0  0  0  0
   -3.3267    0.1991   -2.8871 C   0  0  0  0  0  0  0  0  0  0  0  0
   -3.9776    0.8962   -2.3708 H   0  0  0  0  0  0  0  0  0  0  0  0
   -3.6139   -0.4407   -4.0769 N   0  0  0  0  0  0  0  0  0  0  0  0
   -4.4846   -0.3262   -4.5749 H   0  0  0  0  0  0  0  0  0  0  0  0
   -2.5664   -1.2353   -4.4917 C   0  0  0  0  0  0  0  0  0  0  0  0
   -2.3647   -2.0428   -5.6203 C   0  0  0  0  0  0  0  0  0  0  0  0
   -3.1321   -2.1296   -6.3754 H   0  0  0  0  0  0  0  0  0  0  0  0
   -1.1511   -2.7386   -5.7539 C   0  0  0  0  0  0  0  0  0  0  0  0
   -0.9783   -3.3670   -6.6172 H   0  0  0  0  0  0  0  0  0  0  0  0
   -0.1630   -2.6219   -4.7593 C   0  0  0  0  0  0  0  0  0  0  0  0
    0.7659   -3.1656   -4.8620 H   0  0  0  0  0  0  0  0  0  0  0  0
   -0.3773   -1.8090   -3.6282 C   0  0  0  0  0  0  0  0  0  0  0  0
    0.3847   -1.7387   -2.8650 H   0  0  0  0  0  0  0  0  0  0  0  0
   -1.5829   -1.0924   -3.4675 C   0  0  0  0  0  0  0  0  0  0  0  0
   -1.2663    0.1182    1.2910 C   0  0  0  0  0  0  0  0  0  0  0  0
   -0.1906    0.1931    1.8833 O   0  0  0  0  0  0  0  0  0  0  0  0
   -2.3930    0.6605    1.7722 N   0  0  0  0  0  0  0  0  0  0  0  0
   -3.2451    0.5077    1.2518 H   0  0  0  0  0  0  0  0  0  0  0  0
   -2.4787    1.3954    3.0311 C   0  0  0  0  0  0  0  0  0  0  0  0
   -1.7166    2.1767    3.0539 H   0  0  0  0  0  0  0  0  0  0  0  0
   -3.4649    1.8498    3.1344 H   0  0  0  0  0  0  0  0  0  0  0  0
   -2.3058    0.7133    3.8652 H   0  0  0  0  0  0  0  0  0  0  0  0
  5  6  2  0  0  0  0
  5  7  1  0  0  0  0
  2  3  1  0  0  0  0
  2  4  1  0  0  0  0
  2  5  1  0  0  0  0
  1  2  1  0  0  0  0
 29 30  2  0  0  0  0
 29 31  1  0  0  0  0
 26 27  1  0  0  0  0
 26 28  2  0  0  0  0
 24 25  1  0  0  0  0
 24 26  1  0  0  0  0
 22 23  1  0  0  0  0
 22 24  2  0  0  0  0
 20 21  1  0  0  0  0
 20 22  1  0  0  0  0
 19 20  2  0  0  0  0
 19 28  1  0  0  0  0
 17 18  1  0  0  0  0
 17 19  1  0  0  0  0
 15 16  1  0  0  0  0
 15 17  1  0  0  0  0
 14 15  2  0  0  0  0
 14 28  1  0  0  0  0
 11 12  1  0  0  0  0
 11 13  1  0  0  0  0
 11 14  1  0  0  0  0
  9 10  1  0  0  0  0
  9 11  1  0  0  0  0
  9 29  1  0  0  0  0
  7  8  1  0  0  0  0
  7  9  1  0  0  0  0
 33 34  1  0  0  0  0
 33 35  1  0  0  0  0
 33 36  1  0  0  0  0
 31 32  1  0  0  0  0
 31 33  1  0  0  0  0
M  END
$$$$
default_name
  -OEChem-02102213163D

 36 37  0     1  0  0  0  0  0999 V2000
   -4.0843   -4.0736    1.2944 H   0  0  0  0  0  0  0  0  0  0  0  0
   -4.0342   -3.2816    0.5484 C   0  0  0  0  0  0  0  0  0  0  0  0
   -4.8842   -2.6126    0.6694 H   0  0  0  0  0  0  0  0  0  0  0  0
   -4.0433   -3.7186   -0.4486 H   0  0  0  0  0  0  0  0  0  0  0  0
   -2.7532   -2.5046    0.7444 C   0  0  0  0  0  0  0  0  0  0  0  0
   -1.9803   -2.8096    1.6434 O   0  0  0  0  0  0  0  0  0  0  0  0
   -2.5332   -1.4966   -0.0966 N   0  0  0  0  0  0  0  0  0  0  0  0
   -3.2312   -1.2816   -0.7936 H   0  0  0  0  0  0  0  0  0  0  0  0
   -1.3593   -0.6196   -0.0536 C   0  0  1  0  0  0  0  0  0  0  0  0
   -0.4622   -1.2317   -0.1545 H   0  0  0  0  0  0  0  0  0  0  0  0
   -1.4074    0.3593   -1.2373 C   0  0  0  0  0  0  0  0  0  0  0  0
   -1.9224    1.2682   -0.9212 H   0  0  0  0  0  0  0  0  0  0  0  0
   -0.3850    0.6343   -1.5023 H   0  0  0  0  0  0  0  0  0  0  0  0
   -2.0933   -0.1589   -2.4649 C   0  0  0  0  0  0  0  0  0  0  0  0
   -3.1832    0.3891   -3.0475 C   0  0  0  0  0  0  0  0  0  0  0  0
   -3.7046    1.2659   -2.6794 H   0  0  0  0  0  0  0  0  0  0  0  0
   -3.5106   -0.3246   -4.1836 N   0  0  0  0  0  0  0  0  0  0  0  0
   -4.2947   -0.0974   -4.7776 H   0  0  0  0  0  0  0  0  0  0  0  0
   -2.6321   -1.3649   -4.4002 C   0  0  0  0  0  0  0  0  0  0  0  0
   -2.5249   -2.3344   -5.4077 C   0  0  0  0  0  0  0  0  0  0  0  0
   -3.2326   -2.3569   -6.2233 H   0  0  0  0  0  0  0  0  0  0  0  0
   -1.4850   -3.2773   -5.3400 C   0  0  0  0  0  0  0  0  0  0  0  0
   -1.3872   -4.0331   -6.1075 H   0  0  0  0  0  0  0  0  0  0  0  0
   -0.5744   -3.2408   -4.2681 C   0  0  0  0  0  0  0  0  0  0  0  0
    0.2192   -3.9733   -4.2156 H   0  0  0  0  0  0  0  0  0  0  0  0
   -0.6930   -2.2630   -3.2601 C   0  0  0  0  0  0  0  0  0  0  0  0
    0.0052   -2.2546   -2.4352 H   0  0  0  0  0  0  0  0  0  0  0  0
   -1.7227   -1.2982   -3.3025 C   0  0  0  0  0  0  0  0  0  0  0  0
   -1.2663    0.1182    1.2910 C   0  0  0  0  0  0  0  0  0  0  0  0
   -0.1906    0.1931    1.8833 O   0  0  0  0  0  0  0  0  0  0  0  0
   -2.3930    0.6605    1.7722 N   0  0  0  0  0  0  0  0  0  0  0  0
   -3.2451    0.5077    1.2518 H   0  0  0  0  0  0  0  0  0  0  0  0
   -2.4787    1.3954    3.0311 C   0  0  0  0  0  0  0  0  0  0  0  0
   -1.7166    2.1767    3.0539 H   0  0  0  0  0  0  0  0  0  0  0  0
   -3.4649    1.8498    3.1344 H   0  0  0  0  0  0  0  0  0  0  0  0
   -2.3058    0.7133    3.8652 H   0  0  0  0  0  0  0  0  0  0  0  0
  5  6  2  0  0  0  0
  5  7  1  0  0  0  0
  2  3  1  0  0  0  0
  2  4  1  0  0  0  0
  2  5  1  0  0  0  0
  1  2  1  0  0  0  0
 29 30  2  0  0  0  0
 29 31  1  0  0  0  0
 26 27  1  0  0  0  0
 26 28  2  0  0  0  0
 24 25  1  0  0  0  0
 24 26  1  0  0  0  0
 22 23  1  0  0  0  0
 22 24  2  0  0  0  0
 20 21  1  0  0  0  0
 20 22  1  0  0  0  0
 19 20  2  0  0  0  0
 19 28  1  0  0  0  0
 17 18  1  0  0  0  0
 17 19  1  0  0  0  0
 15 16  1  0  0  0  0
 15 17  1  0  0  0  0
 14 15  2  0  0  0  0
 14 28  1  0  0  0  0
 11 12  1  0  0  0  0
 11 13  1  0  0  0  0
 11 14  1  0  0  0  0
  9 10  1  0  0  0  0
  9 11  1  0  0  0  0
  9 29  1  0  0  0  0
  7  8  1  0  0  0  0
  7  9  1  0  0  0  0
 33 34  1  0  0  0  0
 33 35  1  0  0  0  0
 33 36  1  0  0  0  0
 31 32  1  0  0  0  0
 31 33  1  0  0  0  0
M  END
$$$$
default_name
  -OEChem-02102213163D

 36 37  0     1  0  0  0  0  0999 V2000
   -4.0843   -4.0736    1.2944 H   0  0  0  0  0  0  0  0  0  0  0  0
   -4.0342   -3.2816    0.5484 C   0  0  0  0  0  0  0  0  0  0  0  0
   -4.8842   -2.6126    0.6694 H   0  0  0  0  0  0  0  0  0  0  0  0
   -4.0433   -3.7186   -0.4486 H   0  0  0  0  0  0  0  0  0  0  0  0
   -2.7532   -2.5046    0.7444 C   0  0  0  0  0  0  0  0  0  0  0  0
   -1.9803   -2.8096    1.6434 O   0  0  0  0  0  0  0  0  0  0  0  0
   -2.5332   -1.4966   -0.0966 N   0  0  0  0  0  0  0  0  0  0  0  0
   -3.2312   -1.2816   -0.7936 H   0  0  0  0  0  0  0  0  0  0  0  0
   -1.3593   -0.6196   -0.0536 C   0  0  1  0  0  0  0  0  0  0  0  0
   -0.4622   -1.2317   -0.1545 H   0  0  0  0  0  0  0  0  0  0  0  0
   -1.4074    0.3593   -1.2373 C   0  0  0  0  0  0  0  0  0  0  0  0
   -1.9224    1.2682   -0.9212 H   0  0  0  0  0  0  0  0  0  0  0  0
   -0.3850    0.6343   -1.5023 H   0  0  0  0  0  0  0  0  0  0  0  0
   -2.0933   -0.1589   -2.4649 C   0  0  0  0  0  0  0  0  0  0  0  0
   -2.9900    0.5233   -3.2120 C   0  0  0  0  0  0  0  0  0  0  0  0
   -3.3350    1.5286   -2.9968 H   0  0  0  0  0  0  0  0  0  0  0  0
   -3.3766   -0.2470   -4.2913 N   0  0  0  0  0  0  0  0  0  0  0  0
   -4.0446    0.0593   -4.9835 H   0  0  0  0  0  0  0  0  0  0  0  0
   -2.7313   -1.4653   -4.3024 C   0  0  0  0  0  0  0  0  0  0  0  0
   -2.7605   -2.5570   -5.1821 C   0  0  0  0  0  0  0  0  0  0  0  0
   -3.3914   -2.5370   -6.0585 H   0  0  0  0  0  0  0  0  0  0  0  0
   -1.9587   -3.6777   -4.9062 C   0  0  0  0  0  0  0  0  0  0  0  0
   -1.9690   -4.5294   -5.5729 H   0  0  0  0  0  0  0  0  0  0  0  0
   -1.1470   -3.6932   -3.7572 C   0  0  0  0  0  0  0  0  0  0  0  0
   -0.5381   -4.5609   -3.5444 H   0  0  0  0  0  0  0  0  0  0  0  0
   -1.1272   -2.5911   -2.8790 C   0  0  0  0  0  0  0  0  0  0  0  0
   -0.5092   -2.6214   -1.9929 H   0  0  0  0  0  0  0  0  0  0  0  0
   -1.9161   -1.4479   -3.1313 C   0  0  0  0  0  0  0  0  0  0  0  0
   -1.2663    0.1182    1.2910 C   0  0  0  0  0  0  0  0  0  0  0  0
   -0.1906    0.1931    1.8833 O   0  0  0  0  0  0  0  0  0  0  0  0
   -2.3930    0.6605    1.7722 N   0  0  0  0  0  0  0  0  0  0  0  0
   -3.2451    0.5077    1.2518 H   0  0  0  0  0  0  0  0  0  0  0  0
   -2.4787    1.3954    3.0311 C   0  0  0  0  0  0  0  0  0  0  0  0
   -1.7166    2.1767    3.0539 H   0  0  0  0  0  0  0  0  0  0  0  0
   -3.4649    1.8498    3.1344 H   0  0  0  0  0  0  0  0  0  0  0  0
   -2.3058    0.7133    3.8652 H   0  0  0  0  0  0  0  0  0  0  0  0
  5  6  2  0  0  0  0
  5  7  1  0  0  0  0
  2  3  1  0  0  0  0
  2  4  1  0  0  0  0
  2  5  1  0  0  0  0
  1  2  1  0  0  0  0
 29 30  2  0  0  0  0
 29 31  1  0  0  0  0
 26 27  1  0  0  0  0
 26 28  2  0  0  0  0
 24 25  1  0  0  0  0
 24 26  1  0  0  0  0
 22 23  1  0  0  0  0
 22 24  2  0  0  0  0
 20 21  1  0  0  0  0
 20 22  1  0  0  0  0
 19 20  2  0  0  0  0
 19 28  1  0  0  0  0
 17 18  1  0  0  0  0
 17 19  1  0  0  0  0
 15 16  1  0  0  0  0
 15 17  1  0  0  0  0
 14 15  2  0  0  0  0
 14 28  1  0  0  0  0
 11 12  1  0  0  0  0
 11 13  1  0  0  0  0
 11 14  1  0  0  0  0
  9 10  1  0  0  0  0
  9 11  1  0  0  0  0
  9 29  1  0  0  0  0
  7  8  1  0  0  0  0
  7  9  1  0  0  0  0
 33 34  1  0  0  0  0
 33 35  1  0  0  0  0
 33 36  1  0  0  0  0
 31 32  1  0  0  0  0
 31 33  1  0  0  0  0
M  END
$$$$
default_name
  -OEChem-02102213163D

 36 37  0     1  0  0  0  0  0999 V2000
   -4.0843   -4.0736    1.2944 H   0  0  0  0  0  0  0  0  0  0  0  0
   -4.0342   -3.2816    0.5484 C   0  0  0  0  0  0  0  0  0  0  0  0
   -4.8842   -2.6126    0.6694 H   0  0  0  0  0  0  0  0  0  0  0  0
   -4.0433   -3.7186   -0.4486 H   0  0  0  0  0  0  0  0  0  0  0  0
   -2.7532   -2.5046    0.7444 C   0  0  0  0  0  0  0  0  0  0  0  0
   -1.9803   -2.8096    1.6434 O   0  0  0  0  0  0  0  0  0  0  0  0
   -2.5332   -1.4966   -0.0966 N   0  0  0  0  0  0  0  0  0  0  0  0
   -3.2312   -1.2816   -0.7936 H   0  0  0  0  0  0  0  0  0  0  0  0
   -1.3593   -0.6196   -0.0536 C   0  0  1  0  0  0  0  0  0  0  0  0
   -0.4622   -1.2317   -0.1545 H   0  0  0  0  0  0  0  0  0  0  0  0
   -1.4074    0.3593   -1.2373 C   0  0  0  0  0  0  0  0  0  0  0  0
   -1.9224    1.2682   -0.9212 H   0  0  0  0  0  0  0  0  0  0  0  0
   -0.3850    0.6343   -1.5023 H   0  0  0  0  0  0  0  0  0  0  0  0
   -2.0933   -0.1589   -2.4649 C   0  0  0  0  0  0  0  0  0  0  0  0
   -2.7603    0.5924   -3.3696 C   0  0  0  0  0  0  0  0  0  0  0  0
   -2.8939    1.6664   -3.3015 H   0  0  0  0  0  0  0  0  0  0  0  0
   -3.2211   -0.2132   -4.3924 N   0  0  0  0  0  0  0  0  0  0  0  0
   -3.7514    0.1333   -5.1785 H   0  0  0  0  0  0  0  0  0  0  0  0
   -2.8572   -1.5297   -4.2049 C   0  0  0  0  0  0  0  0  0  0  0  0
   -3.0554   -2.6953   -4.9589 C   0  0  0  0  0  0  0  0  0  0  0  0
   -3.5977   -2.6579   -5.8922 H   0  0  0  0  0  0  0  0  0  0  0  0
   -2.5400   -3.9127   -4.4822 C   0  0  0  0  0  0  0  0  0  0  0  0
   -2.6840   -4.8222   -5.0498 H   0  0  0  0  0  0  0  0  0  0  0  0
   -1.8417   -3.9482   -3.2614 C   0  0  0  0  0  0  0  0  0  0  0  0
   -1.4541   -4.8885   -2.8943 H   0  0  0  0  0  0  0  0  0  0  0  0
   -1.6502   -2.7708   -2.5109 C   0  0  0  0  0  0  0  0  0  0  0  0
   -1.1234   -2.8144   -1.5682 H   0  0  0  0  0  0  0  0  0  0  0  0
   -2.1500   -1.5312   -2.9654 C   0  0  0  0  0  0  0  0  0  0  0  0
   -1.2663    0.1182    1.2910 C   0  0  0  0  0  0  0  0  0  0  0  0
   -0.1906    0.1931    1.8833 O   0  0  0  0  0  0  0  0  0  0  0  0
   -2.3930    0.6605    1.7722 N   0  0  0  0  0  0  0  0  0  0  0  0
   -3.2451    0.5077    1.2518 H   0  0  0  0  0  0  0  0  0  0  0  0
   -2.4787    1.3954    3.0311 C   0  0  0  0  0  0  0  0  0  0  0  0
   -1.7166    2.1767    3.0539 H   0  0  0  0  0  0  0  0  0  0  0  0
   -3.4649    1.8498    3.1344 H   0  0  0  0  0  0  0  0  0  0  0  0
   -2.3058    0.7133    3.8652 H   0  0  0  0  0  0  0  0  0  0  0  0
  5  6  2  0  0  0  0
  5  7  1  0  0  0  0
  2  3  1  0  0  0  0
  2  4  1  0  0  0  0
  2  5  1  0  0  0  0
  1  2  1  0  0  0  0
 29 30  2  0  0  0  0
 29 31  1  0  0  0  0
 26 27  1  0  0  0  0
 26 28  2  0  0  0  0
 24 25  1  0  0  0  0
 24 26  1  0  0  0  0
 22 23  1  0  0  0  0
 22 24  2  0  0  0  0
 20 21  1  0  0  0  0
 20 22  1  0  0  0  0
 19 20  2  0  0  0  0
 19 28  1  0  0  0  0
 17 18  1  0  0  0  0
 17 19  1  0  0  0  0
 15 16  1  0  0  0  0
 15 17  1  0  0  0  0
 14 15  2  0  0  0  0
 14 28  1  0  0  0  0
 11 12  1  0  0  0  0
 11 13  1  0  0  0  0
 11 14  1  0  0  0  0
  9 10  1  0  0  0  0
  9 11  1  0  0  0  0
  9 29  1  0  0  0  0
  7  8  1  0  0  0  0
  7  9  1  0  0  0  0
 33 34  1  0  0  0  0
 33 35  1  0  0  0  0
 33 36  1  0  0  0  0
 31 32  1  0  0  0  0
 31 33  1  0  0  0  0
M  END
$$$$
default_name
  -OEChem-02102213163D

 36 37  0     1  0  0  0  0  0999 V2000
   -4.0843   -4.0736    1.2944 H   0  0  0  0  0  0  0  0  0  0  0  0
   -4.0342   -3.2816    0.5484 C   0  0  0  0  0  0  0  0  0  0  0  0
   -4.8842   -2.6126    0.6694 H   0  0  0  0  0  0  0  0  0  0  0  0
   -4.0433   -3.7186   -0.4486 H   0  0  0  0  0  0  0  0  0  0  0  0
   -2.7532   -2.5046    0.7444 C   0  0  0  0  0  0  0  0  0  0  0  0
   -1.9803   -2.8096    1.6434 O   0  0  0  0  0  0  0  0  0  0  0  0
   -2.5332   -1.4966   -0.0966 N   0  0  0  0  0  0  0  0  0  0  0  0
   -3.2312   -1.2816   -0.7936 H   0  0  0  0  0  0  0  0  0  0  0  0
   -1.3593   -0.6196   -0.0536 C   0  0  1  0  0  0  0  0  0  0  0  0
   -0.4622   -1.2317   -0.1545 H   0  0  0  0  0  0  0  0  0  0  0  0
   -1.4074    0.3593   -1.2373 C   0  0  0  0  0  0  0  0  0  0  0  0
   -1.9224    1.2682   -0.9212 H   0  0  0  0  0  0  0  0  0  0  0  0
   -0.3850    0.6343   -1.5023 H   0  0  0  0  0  0  0  0  0  0  0  0
   -2.0933   -0.1589   -2.4649 C   0  0  0  0  0  0  0  0  0  0  0  0
   -2.5096    0.5917   -3.5094 C   0  0  0  0  0  0  0  0  0  0  0  0
   -2.4114    1.6699   -3.5726 H   0  0  0  0  0  0  0  0  0  0  0  0
   -3.0546   -0.2255   -4.4803 N   0  0  0  0  0  0  0  0  0  0  0  0
   -3.4350    0.1194   -5.3495 H   0  0  0  0  0  0  0  0  0  0  0  0
   -3.0011   -1.5537   -4.1144 C   0  0  0  0  0  0  0  0  0  0  0  0
   -3.3895   -2.7399   -4.7534 C   0  0  0  0  0  0  0  0  0  0  0  0
   -3.8375   -2.7111   -5.7358 H   0  0  0  0  0  0  0  0  0  0  0  0
   -3.1893   -3.9663   -4.0968 C   0  0  0  0  0  0  0  0  0  0  0  0
   -3.4836   -4.8914   -4.5738 H   0  0  0  0  0  0  0  0  0  0  0  0
   -2.6111   -3.9886   -2.8144 C   0  0  0  0  0  0  0  0  0  0  0  0
   -2.4666   -4.9337   -2.3095 H   0  0  0  0  0  0  0  0  0  0  0  0
   -2.2264   -2.7899   -2.1809 C   0  0  0  0  0  0  0  0  0  0  0  0
   -1.7956   -2.8202   -1.1901 H   0  0  0  0  0  0  0  0  0  0  0  0
   -2.4084   -1.5425   -2.8163 C   0  0  0  0  0  0  0  0  0  0  0  0
   -1.2663    0.1182    1.2910 C   0  0  0  0  0  0  0  0  0  0  0  0
   -0.1906    0.1931    1.8833 O   0  0  0  0  0  0  0  0  0  0  0  0
   -2.3930    0.6605    1.7722 N   0  0  0  0  0  0  0  0  0  0  0  0
   -3.2451    0.5077    1.2518 H   0  0  0  0  0  0  0  0  0  0  0  0
   -2.4787    1.3954    3.0311 C   0  0  0  0  0  0  0  0  0  0  0  0
   -1.7166    2.1767    3.0539 H   0  0  0  0  0  0  0  0  0  0  0  0
   -3.4649    1.8498    3.1344 H   0  0  0  0  0  0  0  0  0  0  0  0
   -2.3058    0.7133    3.8652 H   0  0  0  0  0  0  0  0  0  0  0  0
  5  6  2  0  0  0  0
  5  7  1  0  0  0  0
  2  3  1  0  0  0  0
  2  4  1  0  0  0  0
  2  5  1  0  0  0  0
  1  2  1  0  0  0  0
 29 30  2  0  0  0  0
 29 31  1  0  0  0  0
 26 27  1  0  0  0  0
 26 28  2  0  0  0  0
 24 25  1  0  0  0  0
 24 26  1  0  0  0  0
 22 23  1  0  0  0  0
 22 24  2  0  0  0  0
 20 21  1  0  0  0  0
 20 22  1  0  0  0  0
 19 20  2  0  0  0  0
 19 28  1  0  0  0  0
 17 18  1  0  0  0  0
 17 19  1  0  0  0  0
 15 16  1  0  0  0  0
 15 17  1  0  0  0  0
 14 15  2  0  0  0  0
 14 28  1  0  0  0  0
 11 12  1  0  0  0  0
 11 13  1  0  0  0  0
 11 14  1  0  0  0  0
  9 10  1  0  0  0  0
  9 11  1  0  0  0  0
  9 29  1  0  0  0  0
  7  8  1  0  0  0  0
  7  9  1  0  0  0  0
 33 34  1  0  0  0  0
 33 35  1  0  0  0  0
 33 36  1  0  0  0  0
 31 32  1  0  0  0  0
 31 33  1  0  0  0  0
M  END
$$$$
default_name
  -OEChem-02102213163D

 36 37  0     1  0  0  0  0  0999 V2000
   -4.0843   -4.0736    1.2944 H   0  0  0  0  0  0  0  0  0  0  0  0
   -4.0342   -3.2816    0.5484 C   0  0  0  0  0  0  0  0  0  0  0  0
   -4.8842   -2.6126    0.6694 H   0  0  0  0  0  0  0  0  0  0  0  0
   -4.0433   -3.7186   -0.4486 H   0  0  0  0  0  0  0  0  0  0  0  0
   -2.7532   -2.5046    0.7444 C   0  0  0  0  0  0  0  0  0  0  0  0
   -1.9803   -2.8096    1.6434 O   0  0  0  0  0  0  0  0  0  0  0  0
   -2.5332   -1.4966   -0.0966 N   0  0  0  0  0  0  0  0  0  0  0  0
   -3.2312   -1.2816   -0.7936 H   0  0  0  0  0  0  0  0  0  0  0  0
   -1.3593   -0.6196   -0.0536 C   0  0  1  0  0  0  0  0  0  0  0  0
   -0.4622   -1.2317   -0.1545 H   0  0  0  0  0  0  0  0  0  0  0  0
   -1.4074    0.3593   -1.2373 C   0  0  0  0  0  0  0  0  0  0  0  0
   -1.6719    1.3501   -0.8636 H   0  0  0  0  0  0  0  0  0  0  0  0
   -0.4091    0.4265   -1.6732 H   0  0  0  0  0  0  0  0  0  0  0  0
   -2.3763   -0.0006   -2.3225 C   0  0  0  0  0  0  0  0  0  0  0  0
   -2.5891    0.7082   -3.4538 C   0  0  0  0  0  0  0  0  0  0  0  0
   -2.0917    1.6396   -3.7014 H   0  0  0  0  0  0  0  0  0  0  0  0
   -3.5145    0.0547   -4.2439 N   0  0  0  0  0  0  0  0  0  0  0  0
   -3.8303    0.4042   -5.1368 H   0  0  0  0  0  0  0  0  0  0  0  0
   -3.9342   -1.1238   -3.6647 C   0  0  0  0  0  0  0  0  0  0  0  0
   -4.8199   -2.1307   -4.0748 C   0  0  0  0  0  0  0  0  0  0  0  0
   -5.3322   -2.0564   -5.0227 H   0  0  0  0  0  0  0  0  0  0  0  0
   -5.0326   -3.2368   -3.2343 C   0  0  0  0  0  0  0  0  0  0  0  0
   -5.7130   -4.0226   -3.5336 H   0  0  0  0  0  0  0  0  0  0  0  0
   -4.3640   -3.3174   -1.9991 C   0  0  0  0  0  0  0  0  0  0  0  0
   -4.5370   -4.1661   -1.3519 H   0  0  0  0  0  0  0  0  0  0  0  0
   -3.4776   -2.2985   -1.5962 C   0  0  0  0  0  0  0  0  0  0  0  0
   -2.9806   -2.3664   -0.6389 H   0  0  0  0  0  0  0  0  0  0  0  0
   -3.2376   -1.1777   -2.4204 C   0  0  0  0  0  0  0  0  0  0  0  0
   -1.2663    0.1182    1.2910 C   0  0  0  0  0  0  0  0  0  0  0  0
   -0.1906    0.1931    1.8833 O   0  0  0  0  0  0  0  0  0  0  0  0
   -2.3930    0.6605    1.7722 N   0  0  0  0  0  0  0  0  0  0  0  0
   -3.2451    0.5077    1.2518 H   0  0  0  0  0  0  0  0  0  0  0  0
   -2.4787    1.3954    3.0311 C   0  0  0  0  0  0  0  0  0  0  0  0
   -1.7166    2.1767    3.0539 H   0  0  0  0  0  0  0  0  0  0  0  0
   -3.4649    1.8498    3.1344 H   0  0  0  0  0  0  0  0  0  0  0  0
   -2.3058    0.7133    3.8652 H   0  0  0  0  0  0  0  0  0  0  0  0
  5  6  2  0  0  0  0
  5  7  1  0  0  0  0
  2  3  1  0  0  0  0
  2  4  1  0  0  0  0
  2  5  1  0  0  0  0
  1  2  1  0  0  0  0
 29 30  2  0  0  0  0
 29 31  1  0  0  0  0
 26 27  1  0  0  0  0
 26 28  2  0  0  0  0
 24 25  1  0  0  0  0
 24 26  1  0  0  0  0
 22 23  1  0  0  0  0
 22 24  2  0  0  0  0
 20 21  1  0  0  0  0
 20 22  1  0  0  0  0
 19 20  2  0  0  0  0
 19 28  1  0  0  0  0
 17 18  1  0  0  0  0
 17 19  1  0  0  0  0
 15 16  1  0  0  0  0
 15 17  1  0  0  0  0
 14 15  2  0  0  0  0
 14 28  1  0  0  0  0
 11 12  1  0  0  0  0
 11 13  1  0  0  0  0
 11 14  1  0  0  0  0
  9 10  1  0  0  0  0
  9 11  1  0  0  0  0
  9 29  1  0  0  0  0
  7  8  1  0  0  0  0
  7  9  1  0  0  0  0
 33 34  1  0  0  0  0
 33 35  1  0  0  0  0
 33 36  1  0  0  0  0
 31 32  1  0  0  0  0
 31 33  1  0  0  0  0
M  END
$$$$
default_name
  -OEChem-02102213163D

 36 37  0     1  0  0  0  0  0999 V2000
   -4.0843   -4.0736    1.2944 H   0  0  0  0  0  0  0  0  0  0  0  0
   -4.0342   -3.2816    0.5484 C   0  0  0  0  0  0  0  0  0  0  0  0
   -4.8842   -2.6126    0.6694 H   0  0  0  0  0  0  0  0  0  0  0  0
   -4.0433   -3.7186   -0.4486 H   0  0  0  0  0  0  0  0  0  0  0  0
   -2.7532   -2.5046    0.7444 C   0  0  0  0  0  0  0  0  0  0  0  0
   -1.9803   -2.8096    1.6434 O   0  0  0  0  0  0  0  0  0  0  0  0
   -2.5332   -1.4966   -0.0966 N   0  0  0  0  0  0  0  0  0  0  0  0
   -3.2312   -1.2816   -0.7936 H   0  0  0  0  0  0  0  0  0  0  0  0
   -1.3593   -0.6196   -0.0536 C   0  0  1  0  0  0  0  0  0  0  0  0
   -0.4622   -1.2317   -0.1545 H   0  0  0  0  0  0  0  0  0  0  0  0
   -1.4074    0.3593   -1.2373 C   0  0  0  0  0  0  0  0  0  0  0  0
   -1.6719    1.3501   -0.8636 H   0  0  0  0  0  0  0  0  0  0  0  0
   -0.4091    0.4265   -1.6732 H   0  0  0  0  0  0  0  0  0  0  0  0
   -2.3763   -0.0006   -2.3225 C   0  0  0  0  0  0  0  0  0  0  0  0
   -2.3960    0.5282   -3.5665 C   0  0  0  0  0  0  0  0  0  0  0  0
   -1.7176    1.2962   -3.9216 H   0  0  0  0  0  0  0  0  0  0  0  0
   -3.3924   -0.0727   -4.3106 N   0  0  0  0  0  0  0  0  0  0  0  0
   -3.5934    0.1684   -5.2701 H   0  0  0  0  0  0  0  0  0  0  0  0
   -4.0578   -1.0366   -3.5833 C   0  0  0  0  0  0  0  0  0  0  0  0
   -5.1009   -1.9209   -3.8934 C   0  0  0  0  0  0  0  0  0  0  0  0
   -5.5450   -1.9199   -4.8780 H   0  0  0  0  0  0  0  0  0  0  0  0
   -5.5614   -2.8071   -2.9047 C   0  0  0  0  0  0  0  0  0  0  0  0
   -6.3659   -3.4957   -3.1254 H   0  0  0  0  0  0  0  0  0  0  0  0
   -4.9787   -2.7929   -1.6243 C   0  0  0  0  0  0  0  0  0  0  0  0
   -5.3417   -3.4707   -0.8640 H   0  0  0  0  0  0  0  0  0  0  0  0
   -3.9321   -1.8983   -1.3231 C   0  0  0  0  0  0  0  0  0  0  0  0
   -3.5023   -1.8886   -0.3315 H   0  0  0  0  0  0  0  0  0  0  0  0
   -3.4428   -1.0000   -2.2961 C   0  0  0  0  0  0  0  0  0  0  0  0
   -1.2663    0.1182    1.2910 C   0  0  0  0  0  0  0  0  0  0  0  0
   -0.1906    0.1931    1.8833 O   0  0  0  0  0  0  0  0  0  0  0  0
   -2.3930    0.6605    1.7722 N   0  0  0  0  0  0  0  0  0  0  0  0
   -3.2451    0.5077    1.2518 H   0  0  0  0  0  0  0  0  0  0  0  0
   -2.4787    1.3954    3.0311 C   0  0  0  0  0  0  0  0  0  0  0  0
   -1.7166    2.1767    3.0539 H   0  0  0  0  0  0  0  0  0  0  0  0
   -3.4649    1.8498    3.1344 H   0  0  0  0  0  0  0  0  0  0  0  0
   -2.3058    0.7133    3.8652 H   0  0  0  0  0  0  0  0  0  0  0  0
  5  6  2  0  0  0  0
  5  7  1  0  0  0  0
  2  3  1  0  0  0  0
  2  4  1  0  0  0  0
  2  5  1  0  0  0  0
  1  2  1  0  0  0  0
 29 30  2  0  0  0  0
 29 31  1  0  0  0  0
 26 27  1  0  0  0  0
 26 28  2  0  0  0  0
 24 25  1  0  0  0  0
 24 26  1  0  0  0  0
 22 23  1  0  0  0  0
 22 24  2  0  0  0  0
 20 21  1  0  0  0  0
 20 22  1  0  0  0  0
 19 20  2  0  0  0  0
 19 28  1  0  0  0  0
 17 18  1  0  0  0  0
 17 19  1  0  0  0  0
 15 16  1  0  0  0  0
 15 17  1  0  0  0  0
 14 15  2  0  0  0  0
 14 28  1  0  0  0  0
 11 12  1  0  0  0  0
 11 13  1  0  0  0  0
 11 14  1  0  0  0  0
  9 10  1  0  0  0  0
  9 11  1  0  0  0  0
  9 29  1  0  0  0  0
  7  8  1  0  0  0  0
  7  9  1  0  0  0  0
 33 34  1  0  0  0  0
 33 35  1  0  0  0  0
 33 36  1  0  0  0  0
 31 32  1  0  0  0  0
 31 33  1  0  0  0  0
M  END
$$$$
default_name
  -OEChem-02102213163D

 36 37  0     1  0  0  0  0  0999 V2000
   -4.0843   -4.0736    1.2944 H   0  0  0  0  0  0  0  0  0  0  0  0
   -4.0342   -3.2816    0.5484 C   0  0  0  0  0  0  0  0  0  0  0  0
   -4.8842   -2.6126    0.6694 H   0  0  0  0  0  0  0  0  0  0  0  0
   -4.0433   -3.7186   -0.4486 H   0  0  0  0  0  0  0  0  0  0  0  0
   -2.7532   -2.5046    0.7444 C   0  0  0  0  0  0  0  0  0  0  0  0
   -1.9803   -2.8096    1.6434 O   0  0  0  0  0  0  0  0  0  0  0  0
   -2.5332   -1.4966   -0.0966 N   0  0  0  0  0  0  0  0  0  0  0  0
   -3.2312   -1.2816   -0.7936 H   0  0  0  0  0  0  0  0  0  0  0  0
   -1.3593   -0.6196   -0.0536 C   0  0  1  0  0  0  0  0  0  0  0  0
   -0.4622   -1.2317   -0.1545 H   0  0  0  0  0  0  0  0  0  0  0  0
   -1.4074    0.3593   -1.2373 C   0  0  0  0  0  0  0  0  0  0  0  0
   -1.6719    1.3501   -0.8636 H   0  0  0  0  0  0  0  0  0  0  0  0
   -0.4091    0.4265   -1.6732 H   0  0  0  0  0  0  0  0  0  0  0  0
   -2.3763   -0.0006   -2.3225 C   0  0  0  0  0  0  0  0  0  0  0  0
   -2.2363    0.2993   -3.6333 C   0  0  0  0  0  0  0  0  0  0  0  0
   -1.4068    0.8575   -4.0535 H   0  0  0  0  0  0  0  0  0  0  0  0
   -3.2943   -0.2297   -4.3461 N   0  0  0  0  0  0  0  0  0  0  0  0
   -3.4005   -0.1261   -5.3447 H   0  0  0  0  0  0  0  0  0  0  0  0
   -4.1658   -0.9156   -3.5270 C   0  0  0  0  0  0  0  0  0  0  0  0
   -5.3443   -1.6353   -3.7708 C   0  0  0  0  0  0  0  0  0  0  0  0
   -5.7339   -1.7239   -4.7743 H   0  0  0  0  0  0  0  0  0  0  0  0
   -6.0122   -2.2378   -2.6911 C   0  0  0  0  0  0  0  0  0  0  0  0
   -6.9232   -2.7960   -2.8599 H   0  0  0  0  0  0  0  0  0  0  0  0
   -5.4974   -2.1083   -1.3881 C   0  0  0  0  0  0  0  0  0  0  0  0
   -6.0190   -2.5665   -0.5592 H   0  0  0  0  0  0  0  0  0  0  0  0
   -4.3131   -1.3809   -1.1545 C   0  0  0  0  0  0  0  0  0  0  0  0
   -3.9358   -1.2780   -0.1470 H   0  0  0  0  0  0  0  0  0  0  0  0
   -3.6155   -0.7691   -2.2185 C   0  0  0  0  0  0  0  0  0  0  0  0
   -1.2663    0.1182    1.2910 C   0  0  0  0  0  0  0  0  0  0  0  0
   -0.1906    0.1931    1.8833 O   0  0  0  0  0  0  0  0  0  0  0  0
   -2.3930    0.6605    1.7722 N   0  0  0  0  0  0  0  0  0  0  0  0
   -3.2451    0.5077    1.2518 H   0  0  0  0  0  0  0  0  0  0  0  0
   -2.4787    1.3954    3.0311 C   0  0  0  0  0  0  0  0  0  0  0  0
   -1.7166    2.1767    3.0539 H   0  0  0  0  0  0  0  0  0  0  0  0
   -3.4649    1.8498    3.1344 H   0  0  0  0  0  0  0  0  0  0  0  0
   -2.3058    0.7133    3.8652 H   0  0  0  0  0  0  0  0  0  0  0  0
  5  6  2  0  0  0  0
  5  7  1  0  0  0  0
  2  3  1  0  0  0  0
  2  4  1  0  0  0  0
  2  5  1  0  0  0  0
  1  2  1  0  0  0  0
 29 30  2  0  0  0  0
 29 31  1  0  0  0  0
 26 27  1  0  0  0  0
 26 28  2  0  0  0  0
 24 25  1  0  0  0  0
 24 26  1  0  0  0  0
 22 23  1  0  0  0  0
 22 24  2  0  0  0  0
 20 21  1  0  0  0  0
 20 22  1  0  0  0  0
 19 20  2  0  0  0  0
 19 28  1  0  0  0  0
 17 18  1  0  0  0  0
 17 19  1  0  0  0  0
 15 16  1  0  0  0  0
 15 17  1  0  0  0  0
 14 15  2  0  0  0  0
 14 28  1  0  0  0  0
 11 12  1  0  0  0  0
 11 13  1  0  0  0  0
 11 14  1  0  0  0  0
  9 10  1  0  0  0  0
  9 11  1  0  0  0  0
  9 29  1  0  0  0  0
  7  8  1  0  0  0  0
  7  9  1  0  0  0  0
 33 34  1  0  0  0  0
 33 35  1  0  0  0  0
 33 36  1  0  0  0  0
 31 32  1  0  0  0  0
 31 33  1  0  0  0  0
M  END
$$$$
default_name
  -OEChem-02102213163D

 36 37  0     1  0  0  0  0  0999 V2000
   -4.0843   -4.0736    1.2944 H   0  0  0  0  0  0  0  0  0  0  0  0
   -4.0342   -3.2816    0.5484 C   0  0  0  0  0  0  0  0  0  0  0  0
   -4.8842   -2.6126    0.6694 H   0  0  0  0  0  0  0  0  0  0  0  0
   -4.0433   -3.7186   -0.4486 H   0  0  0  0  0  0  0  0  0  0  0  0
   -2.7532   -2.5046    0.7444 C   0  0  0  0  0  0  0  0  0  0  0  0
   -1.9803   -2.8096    1.6434 O   0  0  0  0  0  0  0  0  0  0  0  0
   -2.5332   -1.4966   -0.0966 N   0  0  0  0  0  0  0  0  0  0  0  0
   -3.2312   -1.2816   -0.7936 H   0  0  0  0  0  0  0  0  0  0  0  0
   -1.3593   -0.6196   -0.0536 C   0  0  1  0  0  0  0  0  0  0  0  0
   -0.4622   -1.2317   -0.1545 H   0  0  0  0  0  0  0  0  0  0  0  0
   -1.4074    0.3593   -1.2373 C   0  0  0  0  0  0  0  0  0  0  0  0
   -1.6719    1.3501   -0.8636 H   0  0  0  0  0  0  0  0  0  0  0  0
   -0.4091    0.4265   -1.6732 H   0  0  0  0  0  0  0  0  0  0  0  0
   -2.3763   -0.0006   -2.3225 C   0  0  0  0  0  0  0  0  0  0  0  0
   -2.1207    0.0371   -3.6495 C   0  0  0  0  0  0  0  0  0  0  0  0
   -1.1807    0.3535   -4.0882 H   0  0  0  0  0  0  0  0  0  0  0  0
   -3.2268   -0.4058   -4.3480 N   0  0  0  0  0  0  0  0  0  0  0  0
   -3.2647   -0.4591   -5.3555 H   0  0  0  0  0  0  0  0  0  0  0  0
   -4.2510   -0.7690   -3.4996 C   0  0  0  0  0  0  0  0  0  0  0  0
   -5.5336   -1.2932   -3.7154 C   0  0  0  0  0  0  0  0  0  0  0  0
   -5.8861   -1.4819   -4.7187 H   0  0  0  0  0  0  0  0  0  0  0  0
   -6.3542   -1.5677   -2.6080 C   0  0  0  0  0  0  0  0  0  0  0  0
   -7.3468   -1.9713   -2.7551 H   0  0  0  0  0  0  0  0  0  0  0  0
   -5.8849   -1.3103   -1.3069 C   0  0  0  0  0  0  0  0  0  0  0  0
   -6.5227   -1.5152   -0.4582 H   0  0  0  0  0  0  0  0  0  0  0  0
   -4.5947   -0.7815   -1.1020 C   0  0  0  0  0  0  0  0  0  0  0  0
   -4.2516   -0.5760   -0.0979 H   0  0  0  0  0  0  0  0  0  0  0  0
   -3.7438   -0.5008   -2.1929 C   0  0  0  0  0  0  0  0  0  0  0  0
   -1.2663    0.1182    1.2910 C   0  0  0  0  0  0  0  0  0  0  0  0
   -0.1906    0.1931    1.8833 O   0  0  0  0  0  0  0  0  0  0  0  0
   -2.3930    0.6605    1.7722 N   0  0  0  0  0  0  0  0  0  0  0  0
   -3.2451    0.5077    1.2518 H   0  0  0  0  0  0  0  0  0  0  0  0
   -2.4787    1.3954    3.0311 C   0  0  0  0  0  0  0  0  0  0  0  0
   -1.7166    2.1767    3.0539 H   0  0  0  0  0  0  0  0  0  0  0  0
   -3.4649    1.8498    3.1344 H   0  0  0  0  0  0  0  0  0  0  0  0
   -2.3058    0.7133    3.8652 H   0  0  0  0  0  0  0  0  0  0  0  0
  5  6  2  0  0  0  0
  5  7  1  0  0  0  0
  2  3  1  0  0  0  0
  2  4  1  0  0  0  0
  2  5  1  0  0  0  0
  1  2  1  0  0  0  0
 29 30  2  0  0  0  0
 29 31  1  0  0  0  0
 26 27  1  0  0  0  0
 26 28  2  0  0  0  0
 24 25  1  0  0  0  0
 24 26  1  0  0  0  0
 22 23  1  0  0  0  0
 22 24  2  0  0  0  0
 20 21  1  0  0  0  0
 20 22  1  0  0  0  0
 19 20  2  0  0  0  0
 19 28  1  0  0  0  0
 17 18  1  0  0  0  0
 17 19  1  0  0  0  0
 15 16  1  0  0  0  0
 15 17  1  0  0  0  0
 14 15  2  0  0  0  0
 14 28  1  0  0  0  0
 11 12  1  0  0  0  0
 11 13  1  0  0  0  0
 11 14  1  0  0  0  0
  9 10  1  0  0  0  0
  9 11  1  0  0  0  0
  9 29  1  0  0  0  0
  7  8  1  0  0  0  0
  7  9  1  0  0  0  0
 33 34  1  0  0  0  0
 33 35  1  0  0  0  0
 33 36  1  0  0  0  0
 31 32  1  0  0  0  0
 31 33  1  0  0  0  0
M  END
$$$$
default_name
  -OEChem-02102213163D

 36 37  0     1  0  0  0  0  0999 V2000
   -4.0843   -4.0736    1.2944 H   0  0  0  0  0  0  0  0  0  0  0  0
   -4.0342   -3.2816    0.5484 C   0  0  0  0  0  0  0  0  0  0  0  0
   -4.8842   -2.6126    0.6694 H   0  0  0  0  0  0  0  0  0  0  0  0
   -4.0433   -3.7186   -0.4486 H   0  0  0  0  0  0  0  0  0  0  0  0
   -2.7532   -2.5046    0.7444 C   0  0  0  0  0  0  0  0  0  0  0  0
   -1.9803   -2.8096    1.6434 O   0  0  0  0  0  0  0  0  0  0  0  0
   -2.5332   -1.4966   -0.0966 N   0  0  0  0  0  0  0  0  0  0  0  0
   -3.2312   -1.2816   -0.7936 H   0  0  0  0  0  0  0  0  0  0  0  0
   -1.3593   -0.6196   -0.0536 C   0  0  1  0  0  0  0  0  0  0  0  0
   -0.4622   -1.2317   -0.1545 H   0  0  0  0  0  0  0  0  0  0  0  0
   -1.4074    0.3593   -1.2373 C   0  0  0  0  0  0  0  0  0  0  0  0
   -1.6719    1.3501   -0.8636 H   0  0  0  0  0  0  0  0  0  0  0  0
   -0.4091    0.4265   -1.6732 H   0  0  0  0  0  0  0  0  0  0  0  0
   -2.3763   -0.0006   -2.3225 C   0  0  0  0  0  0  0  0  0  0  0  0
   -2.0572   -0.2406   -3.6141 C   0  0  0  0  0  0  0  0  0  0  0  0
   -1.0546   -0.1816   -4.0234 H   0  0  0  0  0  0  0  0  0  0  0  0
   -3.1944   -0.5889   -4.3162 N   0  0  0  0  0  0  0  0  0  0  0  0
   -3.1953   -0.8081   -5.3017 H   0  0  0  0  0  0  0  0  0  0  0  0
   -4.3075   -0.6068   -3.5029 C   0  0  0  0  0  0  0  0  0  0  0  0
   -5.6557   -0.9180   -3.7308 C   0  0  0  0  0  0  0  0  0  0  0  0
   -5.9912   -1.2103   -4.7149 H   0  0  0  0  0  0  0  0  0  0  0  0
   -6.5641   -0.8424   -2.6611 C   0  0  0  0  0  0  0  0  0  0  0  0
   -7.6080   -1.0777   -2.8183 H   0  0  0  0  0  0  0  0  0  0  0  0
   -6.1146   -0.4534   -1.3860 C   0  0  0  0  0  0  0  0  0  0  0  0
   -6.8185   -0.3884   -0.5678 H   0  0  0  0  0  0  0  0  0  0  0  0
   -4.7576   -0.1410   -1.1690 C   0  0  0  0  0  0  0  0  0  0  0  0
   -4.4281    0.1694   -0.1876 H   0  0  0  0  0  0  0  0  0  0  0  0
   -3.8191   -0.2132   -2.2211 C   0  0  0  0  0  0  0  0  0  0  0  0
   -1.2663    0.1182    1.2910 C   0  0  0  0  0  0  0  0  0  0  0  0
   -0.1906    0.1931    1.8833 O   0  0  0  0  0  0  0  0  0  0  0  0
   -2.3930    0.6605    1.7722 N   0  0  0  0  0  0  0  0  0  0  0  0
   -3.2451    0.5077    1.2518 H   0  0  0  0  0  0  0  0  0  0  0  0
   -2.4787    1.3954    3.0311 C   0  0  0  0  0  0  0  0  0  0  0  0
   -1.7166    2.1767    3.0539 H   0  0  0  0  0  0  0  0  0  0  0  0
   -3.4649    1.8498    3.1344 H   0  0  0  0  0  0  0  0  0  0  0  0
   -2.3058    0.7133    3.8652 H   0  0  0  0  0  0  0  0  0  0  0  0
  5  6  2  0  0  0  0
  5  7  1  0  0  0  0
  2  3  1  0  0  0  0
  2  4  1  0  0  0  0
  2  5  1  0  0  0  0
  1  2  1  0  0  0  0
 29 30  2  0  0  0  0
 29 31  1  0  0  0  0
 26 27  1  0  0  0  0
 26 28  2  0  0  0  0
 24 25  1  0  0  0  0
 24 26  1  0  0  0  0
 22 23  1  0  0  0  0
 22 24  2  0  0  0  0
 20 21  1  0  0  0  0
 20 22  1  0  0  0  0
 19 20  2  0  0  0  0
 19 28  1  0  0  0  0
 17 18  1  0  0  0  0
 17 19  1  0  0  0  0
 15 16  1  0  0  0  0
 15 17  1  0  0  0  0
 14 15  2  0  0  0  0
 14 28  1  0  0  0  0
 11 12  1  0  0  0  0
 11 13  1  0  0  0  0
 11 14  1  0  0  0  0
  9 10  1  0  0  0  0
  9 11  1  0  0  0  0
  9 29  1  0  0  0  0
  7  8  1  0  0  0  0
  7  9  1  0  0  0  0
 33 34  1  0  0  0  0
 33 35  1  0  0  0  0
 33 36  1  0  0  0  0
 31 32  1  0  0  0  0
 31 33  1  0  0  0  0
M  END
$$$$
default_name
  -OEChem-02102213163D

 36 37  0     1  0  0  0  0  0999 V2000
   -4.0843   -4.0736    1.2944 H   0  0  0  0  0  0  0  0  0  0  0  0
   -4.0342   -3.2816    0.5484 C   0  0  0  0  0  0  0  0  0  0  0  0
   -4.8842   -2.6126    0.6694 H   0  0  0  0  0  0  0  0  0  0  0  0
   -4.0433   -3.7186   -0.4486 H   0  0  0  0  0  0  0  0  0  0  0  0
   -2.7532   -2.5046    0.7444 C   0  0  0  0  0  0  0  0  0  0  0  0
   -1.9803   -2.8096    1.6434 O   0  0  0  0  0  0  0  0  0  0  0  0
   -2.5332   -1.4966   -0.0966 N   0  0  0  0  0  0  0  0  0  0  0  0
   -3.2312   -1.2816   -0.7936 H   0  0  0  0  0  0  0  0  0  0  0  0
   -1.3593   -0.6196   -0.0536 C   0  0  1  0  0  0  0  0  0  0  0  0
   -0.4622   -1.2317   -0.1545 H   0  0  0  0  0  0  0  0  0  0  0  0
   -1.4074    0.3593   -1.2373 C   0  0  0  0  0  0  0  0  0  0  0  0
   -1.6719    1.3501   -0.8636 H   0  0  0  0  0  0  0  0  0  0  0  0
   -0.4091    0.4265   -1.6732 H   0  0  0  0  0  0  0  0  0  0  0  0
   -2.3763   -0.0006   -2.3225 C   0  0  0  0  0  0  0  0  0  0  0  0
   -2.0501   -0.5148   -3.5295 C   0  0  0  0  0  0  0  0  0  0  0  0
   -1.0371   -0.7112   -3.8633 H   0  0  0  0  0  0  0  0  0  0  0  0
   -3.1994   -0.7664   -4.2529 N   0  0  0  0  0  0  0  0  0  0  0  0
   -3.1970   -1.1492   -5.1870 H   0  0  0  0  0  0  0  0  0  0  0  0
   -4.3314   -0.4402   -3.5368 C   0  0  0  0  0  0  0  0  0  0  0  0
   -5.7023   -0.5353   -3.8160 C   0  0  0  0  0  0  0  0  0  0  0  0
   -6.0421   -0.9276   -4.7633 H   0  0  0  0  0  0  0  0  0  0  0  0
   -6.6276   -0.1113   -2.8469 C   0  0  0  0  0  0  0  0  0  0  0  0
   -7.6889   -0.1762   -3.0451 H   0  0  0  0  0  0  0  0  0  0  0  0
   -6.1710    0.4043   -1.6201 C   0  0  0  0  0  0  0  0  0  0  0  0
   -6.8862    0.7370   -0.8806 H   0  0  0  0  0  0  0  0  0  0  0  0
   -4.7907    0.4971   -1.3510 C   0  0  0  0  0  0  0  0  0  0  0  0
   -4.4533    0.9075   -0.4099 H   0  0  0  0  0  0  0  0  0  0  0  0
   -3.8361    0.0739   -2.3011 C   0  0  0  0  0  0  0  0  0  0  0  0
   -1.2663    0.1182    1.2910 C   0  0  0  0  0  0  0  0  0  0  0  0
   -0.1906    0.1931    1.8833 O   0  0  0  0  0  0  0  0  0  0  0  0
   -2.3930    0.6605    1.7722 N   0  0  0  0  0  0  0  0  0  0  0  0
   -3.2451    0.5077    1.2518 H   0  0  0  0  0  0  0  0  0  0  0  0
   -2.4787    1.3954    3.0311 C   0  0  0  0  0  0  0  0  0  0  0  0
   -1.7166    2.1767    3.0539 H   0  0  0  0  0  0  0  0  0  0  0  0
   -3.4649    1.8498    3.1344 H   0  0  0  0  0  0  0  0  0  0  0  0
   -2.3058    0.7133    3.8652 H   0  0  0  0  0  0  0  0  0  0  0  0
  5  6  2  0  0  0  0
  5  7  1  0  0  0  0
  2  3  1  0  0  0  0
  2  4  1  0  0  0  0
  2  5  1  0  0  0  0
  1  2  1  0  0  0  0
 29 30  2  0  0  0  0
 29 31  1  0  0  0  0
 26 27  1  0  0  0  0
 26 28  2  0  0  0  0
 24 25  1  0  0  0  0
 24 26  1  0  0  0  0
 22 23  1  0  0  0  0
 22 24  2  0  0  0  0
 20 21  1  0  0  0  0
 20 22  1  0  0  0  0
 19 20  2  0  0  0  0
 19 28  1  0  0  0  0
 17 18  1  0  0  0  0
 17 19  1  0  0  0  0
 15 16  1  0  0  0  0
 15 17  1  0  0  0  0
 14 15  2  0  0  0  0
 14 28  1  0  0  0  0
 11 12  1  0  0  0  0
 11 13  1  0  0  0  0
 11 14  1  0  0  0  0
  9 10  1  0  0  0  0
  9 11  1  0  0  0  0
  9 29  1  0  0  0  0
  7  8  1  0  0  0  0
  7  9  1  0  0  0  0
 33 34  1  0  0  0  0
 33 35  1  0  0  0  0
 33 36  1  0  0  0  0
 31 32  1  0  0  0  0
 31 33  1  0  0  0  0
M  END
$$$$
default_name
  -OEChem-02102213163D

 36 37  0     1  0  0  0  0  0999 V2000
   -4.0843   -4.0736    1.2944 H   0  0  0  0  0  0  0  0  0  0  0  0
   -4.0342   -3.2816    0.5484 C   0  0  0  0  0  0  0  0  0  0  0  0
   -4.8842   -2.6126    0.6694 H   0  0  0  0  0  0  0  0  0  0  0  0
   -4.0433   -3.7186   -0.4486 H   0  0  0  0  0  0  0  0  0  0  0  0
   -2.7532   -2.5046    0.7444 C   0  0  0  0  0  0  0  0  0  0  0  0
   -1.9803   -2.8096    1.6434 O   0  0  0  0  0  0  0  0  0  0  0  0
   -2.5332   -1.4966   -0.0966 N   0  0  0  0  0  0  0  0  0  0  0  0
   -3.2312   -1.2816   -0.7936 H   0  0  0  0  0  0  0  0  0  0  0  0
   -1.3593   -0.6196   -0.0536 C   0  0  1  0  0  0  0  0  0  0  0  0
   -0.4622   -1.2317   -0.1545 H   0  0  0  0  0  0  0  0  0  0  0  0
   -1.4074    0.3593   -1.2373 C   0  0  0  0  0  0  0  0  0  0  0  0
   -1.6719    1.3501   -0.8636 H   0  0  0  0  0  0  0  0  0  0  0  0
   -0.4091    0.4265   -1.6732 H   0  0  0  0  0  0  0  0  0  0  0  0
   -2.3763   -0.0006   -2.3225 C   0  0  0  0  0  0  0  0  0  0  0  0
   -2.0999   -0.7668   -3.4014 C   0  0  0  0  0  0  0  0  0  0  0  0
   -1.1294   -1.1992   -3.6191 H   0  0  0  0  0  0  0  0  0  0  0  0
   -3.2414   -0.9264   -4.1623 N   0  0  0  0  0  0  0  0  0  0  0  0
   -3.2697   -1.4592   -5.0193 H   0  0  0  0  0  0  0  0  0  0  0  0
   -4.3213   -0.2804   -3.5989 C   0  0  0  0  0  0  0  0  0  0  0  0
   -5.6704   -0.1712   -3.9653 C   0  0  0  0  0  0  0  0  0  0  0  0
   -6.0353   -0.6531   -4.8604 H   0  0  0  0  0  0  0  0  0  0  0  0
   -6.5404    0.5756   -3.1526 C   0  0  0  0  0  0  0  0  0  0  0  0
   -7.5840    0.6717   -3.4200 H   0  0  0  0  0  0  0  0  0  0  0  0
   -6.0502    1.2040   -1.9933 C   0  0  0  0  0  0  0  0  0  0  0  0
   -6.7212    1.7845   -1.3753 H   0  0  0  0  0  0  0  0  0  0  0  0
   -4.6918    1.0891   -1.6357 C   0  0  0  0  0  0  0  0  0  0  0  0
   -4.3255    1.5880   -0.7497 H   0  0  0  0  0  0  0  0  0  0  0  0
   -3.7938    0.3411   -2.4276 C   0  0  0  0  0  0  0  0  0  0  0  0
   -1.2663    0.1182    1.2910 C   0  0  0  0  0  0  0  0  0  0  0  0
   -0.1906    0.1931    1.8833 O   0  0  0  0  0  0  0  0  0  0  0  0
   -2.3930    0.6605    1.7722 N   0  0  0  0  0  0  0  0  0  0  0  0
   -3.2451    0.5077    1.2518 H   0  0  0  0  0  0  0  0  0  0  0  0
   -2.4787    1.3954    3.0311 C   0  0  0  0  0  0  0  0  0  0  0  0
   -1.7166    2.1767    3.0539 H   0  0  0  0  0  0  0  0  0  0  0  0
   -3.4649    1.8498    3.1344 H   0  0  0  0  0  0  0  0  0  0  0  0
   -2.3058    0.7133    3.8652 H   0  0  0  0  0  0  0  0  0  0  0  0
  5  6  2  0  0  0  0
  5  7  1  0  0  0  0
  2  3  1  0  0  0  0
  2  4  1  0  0  0  0
  2  5  1  0  0  0  0
  1  2  1  0  0  0  0
 29 30  2  0  0  0  0
 29 31  1  0  0  0  0
 26 27  1  0  0  0  0
 26 28  2  0  0  0  0
 24 25  1  0  0  0  0
 24 26  1  0  0  0  0
 22 23  1  0  0  0  0
 22 24  2  0  0  0  0
 20 21  1  0  0  0  0
 20 22  1  0  0  0  0
 19 20  2  0  0  0  0
 19 28  1  0  0  0  0
 17 18  1  0  0  0  0
 17 19  1  0  0  0  0
 15 16  1  0  0  0  0
 15 17  1  0  0  0  0
 14 15  2  0  0  0  0
 14 28  1  0  0  0  0
 11 12  1  0  0  0  0
 11 13  1  0  0  0  0
 11 14  1  0  0  0  0
  9 10  1  0  0  0  0
  9 11  1  0  0  0  0
  9 29  1  0  0  0  0
  7  8  1  0  0  0  0
  7  9  1  0  0  0  0
 33 34  1  0  0  0  0
 33 35  1  0  0  0  0
 33 36  1  0  0  0  0
 31 32  1  0  0  0  0
 31 33  1  0  0  0  0
M  END
$$$$
default_name
  -OEChem-02102213163D

 36 37  0     1  0  0  0  0  0999 V2000
   -4.0843   -4.0736    1.2944 H   0  0  0  0  0  0  0  0  0  0  0  0
   -4.0342   -3.2816    0.5484 C   0  0  0  0  0  0  0  0  0  0  0  0
   -4.8842   -2.6126    0.6694 H   0  0  0  0  0  0  0  0  0  0  0  0
   -4.0433   -3.7186   -0.4486 H   0  0  0  0  0  0  0  0  0  0  0  0
   -2.7532   -2.5046    0.7444 C   0  0  0  0  0  0  0  0  0  0  0  0
   -1.9803   -2.8096    1.6434 O   0  0  0  0  0  0  0  0  0  0  0  0
   -2.5332   -1.4966   -0.0966 N   0  0  0  0  0  0  0  0  0  0  0  0
   -3.2312   -1.2816   -0.7936 H   0  0  0  0  0  0  0  0  0  0  0  0
   -1.3593   -0.6196   -0.0536 C   0  0  1  0  0  0  0  0  0  0  0  0
   -0.4622   -1.2317   -0.1545 H   0  0  0  0  0  0  0  0  0  0  0  0
   -1.4074    0.3593   -1.2373 C   0  0  0  0  0  0  0  0  0  0  0  0
   -1.6719    1.3501   -0.8636 H   0  0  0  0  0  0  0  0  0  0  0  0
   -0.4091    0.4265   -1.6732 H   0  0  0  0  0  0  0  0  0  0  0  0
   -2.3763   -0.0006   -2.3225 C   0  0  0  0  0  0  0  0  0  0  0  0
   -2.2031   -0.9795   -3.2387 C   0  0  0  0  0  0  0  0  0  0  0  0
   -1.3252   -1.6125   -3.3072 H   0  0  0  0  0  0  0  0  0  0  0  0
   -3.3177   -1.0579   -4.0506 N   0  0  0  0  0  0  0  0  0  0  0  0
   -3.4084   -1.7169   -4.8099 H   0  0  0  0  0  0  0  0  0  0  0  0
   -4.2776   -0.1383   -3.6850 C   0  0  0  0  0  0  0  0  0  0  0  0
   -5.5620    0.1496   -4.1685 C   0  0  0  0  0  0  0  0  0  0  0  0
   -5.9712   -0.4055   -4.9998 H   0  0  0  0  0  0  0  0  0  0  0  0
   -6.3084    1.1716   -3.5574 C   0  0  0  0  0  0  0  0  0  0  0  0
   -7.3005    1.4084   -3.9175 H   0  0  0  0  0  0  0  0  0  0  0  0
   -5.7604    1.8915   -2.4800 C   0  0  0  0  0  0  0  0  0  0  0  0
   -6.3348    2.6826   -2.0182 H   0  0  0  0  0  0  0  0  0  0  0  0
   -4.4676    1.5948   -2.0036 C   0  0  0  0  0  0  0  0  0  0  0  0
   -4.0534    2.1644   -1.1839 H   0  0  0  0  0  0  0  0  0  0  0  0
   -3.6950    0.5701   -2.5917 C   0  0  0  0  0  0  0  0  0  0  0  0
   -1.2663    0.1182    1.2910 C   0  0  0  0  0  0  0  0  0  0  0  0
   -0.1906    0.1931    1.8833 O   0  0  0  0  0  0  0  0  0  0  0  0
   -2.3930    0.6605    1.7722 N   0  0  0  0  0  0  0  0  0  0  0  0
   -3.2451    0.5077    1.2518 H   0  0  0  0  0  0  0  0  0  0  0  0
   -2.4787    1.3954    3.0311 C   0  0  0  0  0  0  0  0  0  0  0  0
   -1.7166    2.1767    3.0539 H   0  0  0  0  0  0  0  0  0  0  0  0
   -3.4649    1.8498    3.1344 H   0  0  0  0  0  0  0  0  0  0  0  0
   -2.3058    0.7133    3.8652 H   0  0  0  0  0  0  0  0  0  0  0  0
  5  6  2  0  0  0  0
  5  7  1  0  0  0  0
  2  3  1  0  0  0  0
  2  4  1  0  0  0  0
  2  5  1  0  0  0  0
  1  2  1  0  0  0  0
 29 30  2  0  0  0  0
 29 31  1  0  0  0  0
 26 27  1  0  0  0  0
 26 28  2  0  0  0  0
 24 25  1  0  0  0  0
 24 26  1  0  0  0  0
 22 23  1  0  0  0  0
 22 24  2  0  0  0  0
 20 21  1  0  0  0  0
 20 22  1  0  0  0  0
 19 20  2  0  0  0  0
 19 28  1  0  0  0  0
 17 18  1  0  0  0  0
 17 19  1  0  0  0  0
 15 16  1  0  0  0  0
 15 17  1  0  0  0  0
 14 15  2  0  0  0  0
 14 28  1  0  0  0  0
 11 12  1  0  0  0  0
 11 13  1  0  0  0  0
 11 14  1  0  0  0  0
  9 10  1  0  0  0  0
  9 11  1  0  0  0  0
  9 29  1  0  0  0  0
  7  8  1  0  0  0  0
  7  9  1  0  0  0  0
 33 34  1  0  0  0  0
 33 35  1  0  0  0  0
 33 36  1  0  0  0  0
 31 32  1  0  0  0  0
 31 33  1  0  0  0  0
M  END
$$$$
default_name
  -OEChem-02102213163D

 36 37  0     1  0  0  0  0  0999 V2000
   -4.0843   -4.0736    1.2944 H   0  0  0  0  0  0  0  0  0  0  0  0
   -4.0342   -3.2816    0.5484 C   0  0  0  0  0  0  0  0  0  0  0  0
   -4.8842   -2.6126    0.6694 H   0  0  0  0  0  0  0  0  0  0  0  0
   -4.0433   -3.7186   -0.4486 H   0  0  0  0  0  0  0  0  0  0  0  0
   -2.7532   -2.5046    0.7444 C   0  0  0  0  0  0  0  0  0  0  0  0
   -1.9803   -2.8096    1.6434 O   0  0  0  0  0  0  0  0  0  0  0  0
   -2.5332   -1.4966   -0.0966 N   0  0  0  0  0  0  0  0  0  0  0  0
   -3.2312   -1.2816   -0.7936 H   0  0  0  0  0  0  0  0  0  0  0  0
   -1.3593   -0.6196   -0.0536 C   0  0  1  0  0  0  0  0  0  0  0  0
   -0.4622   -1.2317   -0.1545 H   0  0  0  0  0  0  0  0  0  0  0  0
   -1.4074    0.3593   -1.2373 C   0  0  0  0  0  0  0  0  0  0  0  0
   -1.6719    1.3501   -0.8636 H   0  0  0  0  0  0  0  0  0  0  0  0
   -0.4091    0.4265   -1.6732 H   0  0  0  0  0  0  0  0  0  0  0  0
   -2.3763   -0.0006   -2.3225 C   0  0  0  0  0  0  0  0  0  0  0  0
   -2.3529   -1.1384   -3.0523 C   0  0  0  0  0  0  0  0  0  0  0  0
   -1.6111   -1.9227   -2.9489 H   0  0  0  0  0  0  0  0  0  0  0  0
   -3.4229   -1.1519   -3.9255 N   0  0  0  0  0  0  0  0  0  0  0  0
   -3.6037   -1.9048   -4.5732 H   0  0  0  0  0  0  0  0  0  0  0  0
   -4.2035   -0.0237   -3.7892 C   0  0  0  0  0  0  0  0  0  0  0  0
   -5.3846    0.4051   -4.4116 C   0  0  0  0  0  0  0  0  0  0  0  0
   -5.8542   -0.2017   -5.1718 H   0  0  0  0  0  0  0  0  0  0  0  0
   -5.9475    1.6361   -4.0338 C   0  0  0  0  0  0  0  0  0  0  0  0
   -6.8576    1.9836   -4.5037 H   0  0  0  0  0  0  0  0  0  0  0  0
   -5.3214    2.4197   -3.0472 C   0  0  0  0  0  0  0  0  0  0  0  0
   -5.7534    3.3701   -2.7655 H   0  0  0  0  0  0  0  0  0  0  0  0
   -4.1334    1.9797   -2.4296 C   0  0  0  0  0  0  0  0  0  0  0  0
   -3.6555    2.5976   -1.6828 H   0  0  0  0  0  0  0  0  0  0  0  0
   -3.5464    0.7453   -2.7825 C   0  0  0  0  0  0  0  0  0  0  0  0
   -1.2663    0.1182    1.2910 C   0  0  0  0  0  0  0  0  0  0  0  0
   -0.1906    0.1931    1.8833 O   0  0  0  0  0  0  0  0  0  0  0  0
   -2.3930    0.6605    1.7722 N   0  0  0  0  0  0  0  0  0  0  0  0
   -3.2451    0.5077    1.2518 H   0  0  0  0  0  0  0  0  0  0  0  0
   -2.4787    1.3954    3.0311 C   0  0  0  0  0  0  0  0  0  0  0  0
   -1.7166    2.1767    3.0539 H   0  0  0  0  0  0  0  0  0  0  0  0
   -3.4649    1.8498    3.1344 H   0  0  0  0  0  0  0  0  0  0  0  0
   -2.3058    0.7133    3.8652 H   0  0  0  0  0  0  0  0  0  0  0  0
  5  6  2  0  0  0  0
  5  7  1  0  0  0  0
  2  3  1  0  0  0  0
  2  4  1  0  0  0  0
  2  5  1  0  0  0  0
  1  2  1  0  0  0  0
 29 30  2  0  0  0  0
 29 31  1  0  0  0  0
 26 27  1  0  0  0  0
 26 28  2  0  0  0  0
 24 25  1  0  0  0  0
 24 26  1  0  0  0  0
 22 23  1  0  0  0  0
 22 24  2  0  0  0  0
 20 21  1  0  0  0  0
 20 22  1  0  0  0  0
 19 20  2  0  0  0  0
 19 28  1  0  0  0  0
 17 18  1  0  0  0  0
 17 19  1  0  0  0  0
 15 16  1  0  0  0  0
 15 17  1  0  0  0  0
 14 15  2  0  0  0  0
 14 28  1  0  0  0  0
 11 12  1  0  0  0  0
 11 13  1  0  0  0  0
 11 14  1  0  0  0  0
  9 10  1  0  0  0  0
  9 11  1  0  0  0  0
  9 29  1  0  0  0  0
  7  8  1  0  0  0  0
  7  9  1  0  0  0  0
 33 34  1  0  0  0  0
 33 35  1  0  0  0  0
 33 36  1  0  0  0  0
 31 32  1  0  0  0  0
 31 33  1  0  0  0  0
M  END
$$$$
default_name
  -OEChem-02102213163D

 36 37  0     1  0  0  0  0  0999 V2000
   -4.0843   -4.0736    1.2944 H   0  0  0  0  0  0  0  0  0  0  0  0
   -4.0342   -3.2816    0.5484 C   0  0  0  0  0  0  0  0  0  0  0  0
   -4.8842   -2.6126    0.6694 H   0  0  0  0  0  0  0  0  0  0  0  0
   -4.0433   -3.7186   -0.4486 H   0  0  0  0  0  0  0  0  0  0  0  0
   -2.7532   -2.5046    0.7444 C   0  0  0  0  0  0  0  0  0  0  0  0
   -1.9803   -2.8096    1.6434 O   0  0  0  0  0  0  0  0  0  0  0  0
   -2.5332   -1.4966   -0.0966 N   0  0  0  0  0  0  0  0  0  0  0  0
   -3.2312   -1.2816   -0.7936 H   0  0  0  0  0  0  0  0  0  0  0  0
   -1.3593   -0.6196   -0.0536 C   0  0  1  0  0  0  0  0  0  0  0  0
   -0.4622   -1.2317   -0.1545 H   0  0  0  0  0  0  0  0  0  0  0  0
   -1.4074    0.3593   -1.2373 C   0  0  0  0  0  0  0  0  0  0  0  0
   -1.6719    1.3501   -0.8636 H   0  0  0  0  0  0  0  0  0  0  0  0
   -0.4091    0.4265   -1.6732 H   0  0  0  0  0  0  0  0  0  0  0  0
   -2.3763   -0.0006   -2.3225 C   0  0  0  0  0  0  0  0  0  0  0  0
   -2.5389   -1.2325   -2.8550 C   0  0  0  0  0  0  0  0  0  0  0  0
   -1.9677   -2.1089   -2.5688 H   0  0  0  0  0  0  0  0  0  0  0  0
   -3.5499   -1.2020   -3.7954 N   0  0  0  0  0  0  0  0  0  0  0  0
   -3.8423   -2.0101   -4.3253 H   0  0  0  0  0  0  0  0  0  0  0  0
   -4.1040    0.0557   -3.9044 C   0  0  0  0  0  0  0  0  0  0  0  0
   -5.1502    0.5780   -4.6782 C   0  0  0  0  0  0  0  0  0  0  0  0
   -5.6923   -0.0555   -5.3648 H   0  0  0  0  0  0  0  0  0  0  0  0
   -5.4822    1.9375   -4.5492 C   0  0  0  0  0  0  0  0  0  0  0  0
   -6.2856    2.3581   -5.1387 H   0  0  0  0  0  0  0  0  0  0  0  0
   -4.7631    2.7528   -3.6562 C   0  0  0  0  0  0  0  0  0  0  0  0
   -5.0164    3.8001   -3.5661 H   0  0  0  0  0  0  0  0  0  0  0  0
   -3.7120    2.2176   -2.8848 C   0  0  0  0  0  0  0  0  0  0  0  0
   -3.1590    2.8580   -2.2124 H   0  0  0  0  0  0  0  0  0  0  0  0
   -3.3582    0.8547   -2.9868 C   0  0  0  0  0  0  0  0  0  0  0  0
   -1.2663    0.1182    1.2910 C   0  0  0  0  0  0  0  0  0  0  0  0
   -0.1906    0.1931    1.8833 O   0  0  0  0  0  0  0  0  0  0  0  0
   -2.3930    0.6605    1.7722 N   0  0  0  0  0  0  0  0  0  0  0  0
   -3.2451    0.5077    1.2518 H   0  0  0  0  0  0  0  0  0  0  0  0
   -2.4787    1.3954    3.0311 C   0  0  0  0  0  0  0  0  0  0  0  0
   -1.7166    2.1767    3.0539 H   0  0  0  0  0  0  0  0  0  0  0  0
   -3.4649    1.8498    3.1344 H   0  0  0  0  0  0  0  0  0  0  0  0
   -2.3058    0.7133    3.8652 H   0  0  0  0  0  0  0  0  0  0  0  0
  5  6  2  0  0  0  0
  5  7  1  0  0  0  0
  2  3  1  0  0  0  0
  2  4  1  0  0  0  0
  2  5  1  0  0  0  0
  1  2  1  0  0  0  0
 29 30  2  0  0  0  0
 29 31  1  0  0  0  0
 26 27  1  0  0  0  0
 26 28  2  0  0  0  0
 24 25  1  0  0  0  0
 24 26  1  0  0  0  0
 22 23  1  0  0  0  0
 22 24  2  0  0  0  0
 20 21  1  0  0  0  0
 20 22  1  0  0  0  0
 19 20  2  0  0  0  0
 19 28  1  0  0  0  0
 17 18  1  0  0  0  0
 17 19  1  0  0  0  0
 15 16  1  0  0  0  0
 15 17  1  0  0  0  0
 14 15  2  0  0  0  0
 14 28  1  0  0  0  0
 11 12  1  0  0  0  0
 11 13  1  0  0  0  0
 11 14  1  0  0  0  0
  9 10  1  0  0  0  0
  9 11  1  0  0  0  0
  9 29  1  0  0  0  0
  7  8  1  0  0  0  0
  7  9  1  0  0  0  0
 33 34  1  0  0  0  0
 33 35  1  0  0  0  0
 33 36  1  0  0  0  0
 31 32  1  0  0  0  0
 31 33  1  0  0  0  0
M  END
$$$$
default_name
  -OEChem-02102213163D

 36 37  0     1  0  0  0  0  0999 V2000
   -4.0843   -4.0736    1.2944 H   0  0  0  0  0  0  0  0  0  0  0  0
   -4.0342   -3.2816    0.5484 C   0  0  0  0  0  0  0  0  0  0  0  0
   -4.8842   -2.6126    0.6694 H   0  0  0  0  0  0  0  0  0  0  0  0
   -4.0433   -3.7186   -0.4486 H   0  0  0  0  0  0  0  0  0  0  0  0
   -2.7532   -2.5046    0.7444 C   0  0  0  0  0  0  0  0  0  0  0  0
   -1.9803   -2.8096    1.6434 O   0  0  0  0  0  0  0  0  0  0  0  0
   -2.5332   -1.4966   -0.0966 N   0  0  0  0  0  0  0  0  0  0  0  0
   -3.2312   -1.2816   -0.7936 H   0  0  0  0  0  0  0  0  0  0  0  0
   -1.3593   -0.6196   -0.0536 C   0  0  1  0  0  0  0  0  0  0  0  0
   -0.4622   -1.2317   -0.1545 H   0  0  0  0  0  0  0  0  0  0  0  0
   -1.4074    0.3593   -1.2373 C   0  0  0  0  0  0  0  0  0  0  0  0
   -1.6719    1.3501   -0.8636 H   0  0  0  0  0  0  0  0  0  0  0  0
   -0.4091    0.4265   -1.6732 H   0  0  0  0  0  0  0  0  0  0  0  0
   -2.3763   -0.0006   -2.3225 C   0  0  0  0  0  0  0  0  0  0  0  0
   -2.7484   -1.2556   -2.6602 C   0  0  0  0  0  0  0  0  0  0  0  0
   -2.3707   -2.1583   -2.1926 H   0  0  0  0  0  0  0  0  0  0  0  0
   -3.6901   -1.2049   -3.6693 N   0  0  0  0  0  0  0  0  0  0  0  0
   -4.1079   -2.0256   -4.0830 H   0  0  0  0  0  0  0  0  0  0  0  0
   -3.9858    0.0944   -4.0228 C   0  0  0  0  0  0  0  0  0  0  0  0
   -4.8749    0.6564   -4.9501 C   0  0  0  0  0  0  0  0  0  0  0  0
   -5.4966    0.0230   -5.5657 H   0  0  0  0  0  0  0  0  0  0  0  0
   -4.9442    2.0551   -5.0685 C   0  0  0  0  0  0  0  0  0  0  0  0
   -5.6234    2.5064   -5.7791 H   0  0  0  0  0  0  0  0  0  0  0  0
   -4.1236    2.8680   -4.2654 C   0  0  0  0  0  0  0  0  0  0  0  0
   -4.1742    3.9434   -4.3657 H   0  0  0  0  0  0  0  0  0  0  0  0
   -3.2321    2.2922   -3.3380 C   0  0  0  0  0  0  0  0  0  0  0  0
   -2.5977    2.9278   -2.7368 H   0  0  0  0  0  0  0  0  0  0  0  0
   -3.1432    0.8910   -3.1908 C   0  0  0  0  0  0  0  0  0  0  0  0
   -1.2663    0.1182    1.2910 C   0  0  0  0  0  0  0  0  0  0  0  0
   -0.1906    0.1931    1.8833 O   0  0  0  0  0  0  0  0  0  0  0  0
   -2.3930    0.6605    1.7722 N   0  0  0  0  0  0  0  0  0  0  0  0
   -3.2451    0.5077    1.2518 H   0  0  0  0  0  0  0  0  0  0  0  0
   -2.4787    1.3954    3.0311 C   0  0  0  0  0  0  0  0  0  0  0  0
   -1.7166    2.1767    3.0539 H   0  0  0  0  0  0  0  0  0  0  0  0
   -3.4649    1.8498    3.1344 H   0  0  0  0  0  0  0  0  0  0  0  0
   -2.3058    0.7133    3.8652 H   0  0  0  0  0  0  0  0  0  0  0  0
  5  6  2  0  0  0  0
  5  7  1  0  0  0  0
  2  3  1  0  0  0  0
  2  4  1  0  0  0  0
  2  5  1  0  0  0  0
  1  2  1  0  0  0  0
 29 30  2  0  0  0  0
 29 31  1  0  0  0  0
 26 27  1  0  0  0  0
 26 28  2  0  0  0  0
 24 25  1  0  0  0  0
 24 26  1  0  0  0  0
 22 23  1  0  0  0  0
 22 24  2  0  0  0  0
 20 21  1  0  0  0  0
 20 22  1  0  0  0  0
 19 20  2  0  0  0  0
 19 28  1  0  0  0  0
 17 18  1  0  0  0  0
 17 19  1  0  0  0  0
 15 16  1  0  0  0  0
 15 17  1  0  0  0  0
 14 15  2  0  0  0  0
 14 28  1  0  0  0  0
 11 12  1  0  0  0  0
 11 13  1  0  0  0  0
 11 14  1  0  0  0  0
  9 10  1  0  0  0  0
  9 11  1  0  0  0  0
  9 29  1  0  0  0  0
  7  8  1  0  0  0  0
  7  9  1  0  0  0  0
 33 34  1  0  0  0  0
 33 35  1  0  0  0  0
 33 36  1  0  0  0  0
 31 32  1  0  0  0  0
 31 33  1  0  0  0  0
M  END
$$$$
default_name
  -OEChem-02102213163D

 36 37  0     1  0  0  0  0  0999 V2000
   -4.0843   -4.0736    1.2944 H   0  0  0  0  0  0  0  0  0  0  0  0
   -4.0342   -3.2816    0.5484 C   0  0  0  0  0  0  0  0  0  0  0  0
   -4.8842   -2.6126    0.6694 H   0  0  0  0  0  0  0  0  0  0  0  0
   -4.0433   -3.7186   -0.4486 H   0  0  0  0  0  0  0  0  0  0  0  0
   -2.7532   -2.5046    0.7444 C   0  0  0  0  0  0  0  0  0  0  0  0
   -1.9803   -2.8096    1.6434 O   0  0  0  0  0  0  0  0  0  0  0  0
   -2.5332   -1.4966   -0.0966 N   0  0  0  0  0  0  0  0  0  0  0  0
   -3.2312   -1.2816   -0.7936 H   0  0  0  0  0  0  0  0  0  0  0  0
   -1.3593   -0.6196   -0.0536 C   0  0  1  0  0  0  0  0  0  0  0  0
   -0.4622   -1.2317   -0.1545 H   0  0  0  0  0  0  0  0  0  0  0  0
   -1.4074    0.3593   -1.2373 C   0  0  0  0  0  0  0  0  0  0  0  0
   -1.6719    1.3501   -0.8636 H   0  0  0  0  0  0  0  0  0  0  0  0
   -0.4091    0.4265   -1.6732 H   0  0  0  0  0  0  0  0  0  0  0  0
   -2.3763   -0.0006   -2.3225 C   0  0  0  0  0  0  0  0  0  0  0  0
   -2.9673   -1.2061   -2.4812 C   0  0  0  0  0  0  0  0  0  0  0  0
   -2.7926   -2.0675   -1.8460 H   0  0  0  0  0  0  0  0  0  0  0  0
   -3.8339   -1.1603   -3.5557 N   0  0  0  0  0  0  0  0  0  0  0  0
   -4.3825   -1.9502   -3.8628 H   0  0  0  0  0  0  0  0  0  0  0  0
   -3.8570    0.0899   -4.1363 C   0  0  0  0  0  0  0  0  0  0  0  0
   -4.5773    0.6351   -5.2088 C   0  0  0  0  0  0  0  0  0  0  0  0
   -5.2803    0.0286   -5.7607 H   0  0  0  0  0  0  0  0  0  0  0  0
   -4.3703    1.9810   -5.5564 C   0  0  0  0  0  0  0  0  0  0  0  0
   -4.9162    2.4184   -6.3814 H   0  0  0  0  0  0  0  0  0  0  0  0
   -3.4463    2.7575   -4.8334 C   0  0  0  0  0  0  0  0  0  0  0  0
   -3.2841    3.7902   -5.1096 H   0  0  0  0  0  0  0  0  0  0  0  0
   -2.7264    2.1985   -3.7585 C   0  0  0  0  0  0  0  0  0  0  0  0
   -2.0099    2.8024   -3.2200 H   0  0  0  0  0  0  0  0  0  0  0  0
   -2.9161    0.8516   -3.3806 C   0  0  0  0  0  0  0  0  0  0  0  0
   -1.2663    0.1182    1.2910 C   0  0  0  0  0  0  0  0  0  0  0  0
   -0.1906    0.1931    1.8833 O   0  0  0  0  0  0  0  0  0  0  0  0
   -2.3930    0.6605    1.7722 N   0  0  0  0  0  0  0  0  0  0  0  0
   -3.2451    0.5077    1.2518 H   0  0  0  0  0  0  0  0  0  0  0  0
   -2.4787    1.3954    3.0311 C   0  0  0  0  0  0  0  0  0  0  0  0
   -1.7166    2.1767    3.0539 H   0  0  0  0  0  0  0  0  0  0  0  0
   -3.4649    1.8498    3.1344 H   0  0  0  0  0  0  0  0  0  0  0  0
   -2.3058    0.7133    3.8652 H   0  0  0  0  0  0  0  0  0  0  0  0
  5  6  2  0  0  0  0
  5  7  1  0  0  0  0
  2  3  1  0  0  0  0
  2  4  1  0  0  0  0
  2  5  1  0  0  0  0
  1  2  1  0  0  0  0
 29 30  2  0  0  0  0
 29 31  1  0  0  0  0
 26 27  1  0  0  0  0
 26 28  2  0  0  0  0
 24 25  1  0  0  0  0
 24 26  1  0  0  0  0
 22 23  1  0  0  0  0
 22 24  2  0  0  0  0
 20 21  1  0  0  0  0
 20 22  1  0  0  0  0
 19 20  2  0  0  0  0
 19 28  1  0  0  0  0
 17 18  1  0  0  0  0
 17 19  1  0  0  0  0
 15 16  1  0  0  0  0
 15 17  1  0  0  0  0
 14 15  2  0  0  0  0
 14 28  1  0  0  0  0
 11 12  1  0  0  0  0
 11 13  1  0  0  0  0
 11 14  1  0  0  0  0
  9 10  1  0  0  0  0
  9 11  1  0  0  0  0
  9 29  1  0  0  0  0
  7  8  1  0  0  0  0
  7  9  1  0  0  0  0
 33 34  1  0  0  0  0
 33 35  1  0  0  0  0
 33 36  1  0  0  0  0
 31 32  1  0  0  0  0
 31 33  1  0  0  0  0
M  END
$$$$
default_name
  -OEChem-02102213163D

 36 37  0     1  0  0  0  0  0999 V2000
   -4.0843   -4.0736    1.2944 H   0  0  0  0  0  0  0  0  0  0  0  0
   -4.0342   -3.2816    0.5484 C   0  0  0  0  0  0  0  0  0  0  0  0
   -4.8842   -2.6126    0.6694 H   0  0  0  0  0  0  0  0  0  0  0  0
   -4.0433   -3.7186   -0.4486 H   0  0  0  0  0  0  0  0  0  0  0  0
   -2.7532   -2.5046    0.7444 C   0  0  0  0  0  0  0  0  0  0  0  0
   -1.9803   -2.8096    1.6434 O   0  0  0  0  0  0  0  0  0  0  0  0
   -2.5332   -1.4966   -0.0966 N   0  0  0  0  0  0  0  0  0  0  0  0
   -3.2312   -1.2816   -0.7936 H   0  0  0  0  0  0  0  0  0  0  0  0
   -1.3593   -0.6196   -0.0536 C   0  0  1  0  0  0  0  0  0  0  0  0
   -0.4622   -1.2317   -0.1545 H   0  0  0  0  0  0  0  0  0  0  0  0
   -1.4074    0.3593   -1.2373 C   0  0  0  0  0  0  0  0  0  0  0  0
   -1.6719    1.3501   -0.8636 H   0  0  0  0  0  0  0  0  0  0  0  0
   -0.4091    0.4265   -1.6732 H   0  0  0  0  0  0  0  0  0  0  0  0
   -2.3763   -0.0006   -2.3225 C   0  0  0  0  0  0  0  0  0  0  0  0
   -3.1805   -1.0872   -2.3302 C   0  0  0  0  0  0  0  0  0  0  0  0
   -3.2047   -1.8428   -1.5526 H   0  0  0  0  0  0  0  0  0  0  0  0
   -3.9715   -1.0713   -3.4624 N   0  0  0  0  0  0  0  0  0  0  0  0
   -4.6472   -1.7891   -3.6799 H   0  0  0  0  0  0  0  0  0  0  0  0
   -3.7263    0.0424   -4.2371 C   0  0  0  0  0  0  0  0  0  0  0  0
   -4.2778    0.5155   -5.4365 C   0  0  0  0  0  0  0  0  0  0  0  0
   -5.0582   -0.0392   -5.9365 H   0  0  0  0  0  0  0  0  0  0  0  0
   -3.7995    1.7202   -5.9796 C   0  0  0  0  0  0  0  0  0  0  0  0
   -4.2121    2.1000   -6.9044 H   0  0  0  0  0  0  0  0  0  0  0  0
   -2.7776    2.4288   -5.3215 C   0  0  0  0  0  0  0  0  0  0  0  0
   -2.4068    3.3509   -5.7472 H   0  0  0  0  0  0  0  0  0  0  0  0
   -2.2293    1.9428   -4.1175 C   0  0  0  0  0  0  0  0  0  0  0  0
   -1.4356    2.4901   -3.6293 H   0  0  0  0  0  0  0  0  0  0  0  0
   -2.6923    0.7392   -3.5431 C   0  0  0  0  0  0  0  0  0  0  0  0
   -1.2663    0.1182    1.2910 C   0  0  0  0  0  0  0  0  0  0  0  0
   -0.1906    0.1931    1.8833 O   0  0  0  0  0  0  0  0  0  0  0  0
   -2.3930    0.6605    1.7722 N   0  0  0  0  0  0  0  0  0  0  0  0
   -3.2451    0.5077    1.2518 H   0  0  0  0  0  0  0  0  0  0  0  0
   -2.4787    1.3954    3.0311 C   0  0  0  0  0  0  0  0  0  0  0  0
   -1.7166    2.1767    3.0539 H   0  0  0  0  0  0  0  0  0  0  0  0
   -3.4649    1.8498    3.1344 H   0  0  0  0  0  0  0  0  0  0  0  0
   -2.3058    0.7133    3.8652 H   0  0  0  0  0  0  0  0  0  0  0  0
  5  6  2  0  0  0  0
  5  7  1  0  0  0  0
  2  3  1  0  0  0  0
  2  4  1  0  0  0  0
  2  5  1  0  0  0  0
  1  2  1  0  0  0  0
 29 30  2  0  0  0  0
 29 31  1  0  0  0  0
 26 27  1  0  0  0  0
 26 28  2  0  0  0  0
 24 25  1  0  0  0  0
 24 26  1  0  0  0  0
 22 23  1  0  0  0  0
 22 24  2  0  0  0  0
 20 21  1  0  0  0  0
 20 22  1  0  0  0  0
 19 20  2  0  0  0  0
 19 28  1  0  0  0  0
 17 18  1  0  0  0  0
 17 19  1  0  0  0  0
 15 16  1  0  0  0  0
 15 17  1  0  0  0  0
 14 15  2  0  0  0  0
 14 28  1  0  0  0  0
 11 12  1  0  0  0  0
 11 13  1  0  0  0  0
 11 14  1  0  0  0  0
  9 10  1  0  0  0  0
  9 11  1  0  0  0  0
  9 29  1  0  0  0  0
  7  8  1  0  0  0  0
  7  9  1  0  0  0  0
 33 34  1  0  0  0  0
 33 35  1  0  0  0  0
 33 36  1  0  0  0  0
 31 32  1  0  0  0  0
 31 33  1  0  0  0  0
M  END
$$$$
default_name
  -OEChem-02102213163D

 36 37  0     1  0  0  0  0  0999 V2000
   -4.0843   -4.0736    1.2944 H   0  0  0  0  0  0  0  0  0  0  0  0
   -4.0342   -3.2816    0.5484 C   0  0  0  0  0  0  0  0  0  0  0  0
   -4.8842   -2.6126    0.6694 H   0  0  0  0  0  0  0  0  0  0  0  0
   -4.0433   -3.7186   -0.4486 H   0  0  0  0  0  0  0  0  0  0  0  0
   -2.7532   -2.5046    0.7444 C   0  0  0  0  0  0  0  0  0  0  0  0
   -1.9803   -2.8096    1.6434 O   0  0  0  0  0  0  0  0  0  0  0  0
   -2.5332   -1.4966   -0.0966 N   0  0  0  0  0  0  0  0  0  0  0  0
   -3.2312   -1.2816   -0.7936 H   0  0  0  0  0  0  0  0  0  0  0  0
   -1.3593   -0.6196   -0.0536 C   0  0  1  0  0  0  0  0  0  0  0  0
   -0.4622   -1.2317   -0.1545 H   0  0  0  0  0  0  0  0  0  0  0  0
   -1.4074    0.3593   -1.2373 C   0  0  0  0  0  0  0  0  0  0  0  0
   -1.6719    1.3501   -0.8636 H   0  0  0  0  0  0  0  0  0  0  0  0
   -0.4091    0.4265   -1.6732 H   0  0  0  0  0  0  0  0  0  0  0  0
   -2.3763   -0.0006   -2.3225 C   0  0  0  0  0  0  0  0  0  0  0  0
   -3.3736   -0.9072   -2.2175 C   0  0  0  0  0  0  0  0  0  0  0  0
   -3.5788   -1.4994   -1.3324 H   0  0  0  0  0  0  0  0  0  0  0  0
   -4.0935   -0.9439   -3.3957 N   0  0  0  0  0  0  0  0  0  0  0  0
   -4.8841   -1.5533   -3.5466 H   0  0  0  0  0  0  0  0  0  0  0  0
   -3.6028   -0.0448   -4.3185 C   0  0  0  0  0  0  0  0  0  0  0  0
   -3.9967    0.3057   -5.6179 C   0  0  0  0  0  0  0  0  0  0  0  0
   -4.8454   -0.1757   -6.0812 H   0  0  0  0  0  0  0  0  0  0  0  0
   -3.2707    1.2905   -6.3092 C   0  0  0  0  0  0  0  0  0  0  0  0
   -3.5592    1.5730   -7.3126 H   0  0  0  0  0  0  0  0  0  0  0  0
   -2.1629    1.9042   -5.6964 C   0  0  0  0  0  0  0  0  0  0  0  0
   -1.6021    2.6555   -6.2350 H   0  0  0  0  0  0  0  0  0  0  0  0
   -1.7748    1.5426   -4.3906 C   0  0  0  0  0  0  0  0  0  0  0  0
   -0.9139    2.0124   -3.9366 H   0  0  0  0  0  0  0  0  0  0  0  0
   -2.4870    0.5615   -3.6674 C   0  0  0  0  0  0  0  0  0  0  0  0
   -1.2663    0.1182    1.2910 C   0  0  0  0  0  0  0  0  0  0  0  0
   -0.1906    0.1931    1.8833 O   0  0  0  0  0  0  0  0  0  0  0  0
   -2.3930    0.6605    1.7722 N   0  0  0  0  0  0  0  0  0  0  0  0
   -3.2451    0.5077    1.2518 H   0  0  0  0  0  0  0  0  0  0  0  0
   -2.4787    1.3954    3.0311 C   0  0  0  0  0  0  0  0  0  0  0  0
   -1.7166    2.1767    3.0539 H   0  0  0  0  0  0  0  0  0  0  0  0
   -3.4649    1.8498    3.1344 H   0  0  0  0  0  0  0  0  0  0  0  0
   -2.3058    0.7133    3.8652 H   0  0  0  0  0  0  0  0  0  0  0  0
  5  6  2  0  0  0  0
  5  7  1  0  0  0  0
  2  3  1  0  0  0  0
  2  4  1  0  0  0  0
  2  5  1  0  0  0  0
  1  2  1  0  0  0  0
 29 30  2  0  0  0  0
 29 31  1  0  0  0  0
 26 27  1  0  0  0  0
 26 28  2  0  0  0  0
 24 25  1  0  0  0  0
 24 26  1  0  0  0  0
 22 23  1  0  0  0  0
 22 24  2  0  0  0  0
 20 21  1  0  0  0  0
 20 22  1  0  0  0  0
 19 20  2  0  0  0  0
 19 28  1  0  0  0  0
 17 18  1  0  0  0  0
 17 19  1  0  0  0  0
 15 16  1  0  0  0  0
 15 17  1  0  0  0  0
 14 15  2  0  0  0  0
 14 28  1  0  0  0  0
 11 12  1  0  0  0  0
 11 13  1  0  0  0  0
 11 14  1  0  0  0  0
  9 10  1  0  0  0  0
  9 11  1  0  0  0  0
  9 29  1  0  0  0  0
  7  8  1  0  0  0  0
  7  9  1  0  0  0  0
 33 34  1  0  0  0  0
 33 35  1  0  0  0  0
 33 36  1  0  0  0  0
 31 32  1  0  0  0  0
 31 33  1  0  0  0  0
M  END
$$$$
default_name
  -OEChem-02102213163D

 36 37  0     1  0  0  0  0  0999 V2000
   -4.0843   -4.0736    1.2944 H   0  0  0  0  0  0  0  0  0  0  0  0
   -4.0342   -3.2816    0.5484 C   0  0  0  0  0  0  0  0  0  0  0  0
   -4.8842   -2.6126    0.6694 H   0  0  0  0  0  0  0  0  0  0  0  0
   -4.0433   -3.7186   -0.4486 H   0  0  0  0  0  0  0  0  0  0  0  0
   -2.7532   -2.5046    0.7444 C   0  0  0  0  0  0  0  0  0  0  0  0
   -1.9803   -2.8096    1.6434 O   0  0  0  0  0  0  0  0  0  0  0  0
   -2.5332   -1.4966   -0.0966 N   0  0  0  0  0  0  0  0  0  0  0  0
   -3.2312   -1.2816   -0.7936 H   0  0  0  0  0  0  0  0  0  0  0  0
   -1.3593   -0.6196   -0.0536 C   0  0  1  0  0  0  0  0  0  0  0  0
   -0.4622   -1.2317   -0.1545 H   0  0  0  0  0  0  0  0  0  0  0  0
   -1.4074    0.3593   -1.2373 C   0  0  0  0  0  0  0  0  0  0  0  0
   -1.6719    1.3501   -0.8636 H   0  0  0  0  0  0  0  0  0  0  0  0
   -0.4091    0.4265   -1.6732 H   0  0  0  0  0  0  0  0  0  0  0  0
   -2.3763   -0.0006   -2.3225 C   0  0  0  0  0  0  0  0  0  0  0  0
   -3.5334   -0.6783   -2.1508 C   0  0  0  0  0  0  0  0  0  0  0  0
   -3.8896   -1.0607   -1.2005 H   0  0  0  0  0  0  0  0  0  0  0  0
   -4.1916   -0.7868   -3.3601 N   0  0  0  0  0  0  0  0  0  0  0  0
   -5.0770   -1.2588   -3.4720 H   0  0  0  0  0  0  0  0  0  0  0  0
   -3.4948   -0.1659   -4.3748 C   0  0  0  0  0  0  0  0  0  0  0  0
   -3.7533    0.0200   -5.7405 C   0  0  0  0  0  0  0  0  0  0  0  0
   -4.6565   -0.3716   -6.1849 H   0  0  0  0  0  0  0  0  0  0  0  0
   -2.8199    0.7212   -6.5228 C   0  0  0  0  0  0  0  0  0  0  0  0
   -3.0019    0.8733   -7.5781 H   0  0  0  0  0  0  0  0  0  0  0  0
   -1.6442    1.2197   -5.9325 C   0  0  0  0  0  0  0  0  0  0  0  0
   -0.9248    1.7513   -6.5398 H   0  0  0  0  0  0  0  0  0  0  0  0
   -1.3938    1.0252   -4.5592 C   0  0  0  0  0  0  0  0  0  0  0  0
   -0.4804    1.4018   -4.1212 H   0  0  0  0  0  0  0  0  0  0  0  0
   -2.3144    0.3306   -3.7450 C   0  0  0  0  0  0  0  0  0  0  0  0
   -1.2663    0.1182    1.2910 C   0  0  0  0  0  0  0  0  0  0  0  0
   -0.1906    0.1931    1.8833 O   0  0  0  0  0  0  0  0  0  0  0  0
   -2.3930    0.6605    1.7722 N   0  0  0  0  0  0  0  0  0  0  0  0
   -3.2451    0.5077    1.2518 H   0  0  0  0  0  0  0  0  0  0  0  0
   -2.4787    1.3954    3.0311 C   0  0  0  0  0  0  0  0  0  0  0  0
   -1.7166    2.1767    3.0539 H   0  0  0  0  0  0  0  0  0  0  0  0
   -3.4649    1.8498    3.1344 H   0  0  0  0  0  0  0  0  0  0  0  0
   -2.3058    0.7133    3.8652 H   0  0  0  0  0  0  0  0  0  0  0  0
  5  6  2  0  0  0  0
  5  7  1  0  0  0  0
  2  3  1  0  0  0  0
  2  4  1  0  0  0  0
  2  5  1  0  0  0  0
  1  2  1  0  0  0  0
 29 30  2  0  0  0  0
 29 31  1  0  0  0  0
 26 27  1  0  0  0  0
 26 28  2  0  0  0  0
 24 25  1  0  0  0  0
 24 26  1  0  0  0  0
 22 23  1  0  0  0  0
 22 24  2  0  0  0  0
 20 21  1  0  0  0  0
 20 22  1  0  0  0  0
 19 20  2  0  0  0  0
 19 28  1  0  0  0  0
 17 18  1  0  0  0  0
 17 19  1  0  0  0  0
 15 16  1  0  0  0  0
 15 17  1  0  0  0  0
 14 15  2  0  0  0  0
 14 28  1  0  0  0  0
 11 12  1  0  0  0  0
 11 13  1  0  0  0  0
 11 14  1  0  0  0  0
  9 10  1  0  0  0  0
  9 11  1  0  0  0  0
  9 29  1  0  0  0  0
  7  8  1  0  0  0  0
  7  9  1  0  0  0  0
 33 34  1  0  0  0  0
 33 35  1  0  0  0  0
 33 36  1  0  0  0  0
 31 32  1  0  0  0  0
 31 33  1  0  0  0  0
M  END
$$$$
default_name
  -OEChem-02102213163D

 36 37  0     1  0  0  0  0  0999 V2000
   -4.0843   -4.0736    1.2944 H   0  0  0  0  0  0  0  0  0  0  0  0
   -4.0342   -3.2816    0.5484 C   0  0  0  0  0  0  0  0  0  0  0  0
   -4.8842   -2.6126    0.6694 H   0  0  0  0  0  0  0  0  0  0  0  0
   -4.0433   -3.7186   -0.4486 H   0  0  0  0  0  0  0  0  0  0  0  0
   -2.7532   -2.5046    0.7444 C   0  0  0  0  0  0  0  0  0  0  0  0
   -1.9803   -2.8096    1.6434 O   0  0  0  0  0  0  0  0  0  0  0  0
   -2.5332   -1.4966   -0.0966 N   0  0  0  0  0  0  0  0  0  0  0  0
   -3.2312   -1.2816   -0.7936 H   0  0  0  0  0  0  0  0  0  0  0  0
   -1.3593   -0.6196   -0.0536 C   0  0  1  0  0  0  0  0  0  0  0  0
   -0.4622   -1.2317   -0.1545 H   0  0  0  0  0  0  0  0  0  0  0  0
   -1.4074    0.3593   -1.2373 C   0  0  0  0  0  0  0  0  0  0  0  0
   -1.6719    1.3501   -0.8636 H   0  0  0  0  0  0  0  0  0  0  0  0
   -0.4091    0.4265   -1.6732 H   0  0  0  0  0  0  0  0  0  0  0  0
   -2.3763   -0.0006   -2.3225 C   0  0  0  0  0  0  0  0  0  0  0  0
   -3.6490   -0.4161   -2.1346 C   0  0  0  0  0  0  0  0  0  0  0  0
   -4.1157   -0.5567   -1.1658 H   0  0  0  0  0  0  0  0  0  0  0  0
   -4.2592   -0.6108   -3.3582 N   0  0  0  0  0  0  0  0  0  0  0  0
   -5.2128   -0.9258   -3.4613 H   0  0  0  0  0  0  0  0  0  0  0  0
   -3.4096   -0.3125   -4.4022 C   0  0  0  0  0  0  0  0  0  0  0  0
   -3.5641   -0.3221   -5.7959 C   0  0  0  0  0  0  0  0  0  0  0  0
   -4.5043   -0.6136   -6.2405 H   0  0  0  0  0  0  0  0  0  0  0  0
   -2.4779    0.0510   -6.6059 C   0  0  0  0  0  0  0  0  0  0  0  0
   -2.5782    0.0486   -7.6829 H   0  0  0  0  0  0  0  0  0  0  0  0
   -1.2567    0.4217   -6.0137 C   0  0  0  0  0  0  0  0  0  0  0  0
   -0.4211    0.7000   -6.6409 H   0  0  0  0  0  0  0  0  0  0  0  0
   -1.1122    0.4258   -4.6118 C   0  0  0  0  0  0  0  0  0  0  0  0
   -0.1646    0.6998   -4.1703 H   0  0  0  0  0  0  0  0  0  0  0  0
   -2.1861    0.0622   -3.7706 C   0  0  0  0  0  0  0  0  0  0  0  0
   -1.2663    0.1182    1.2910 C   0  0  0  0  0  0  0  0  0  0  0  0
   -0.1906    0.1931    1.8833 O   0  0  0  0  0  0  0  0  0  0  0  0
   -2.3930    0.6605    1.7722 N   0  0  0  0  0  0  0  0  0  0  0  0
   -3.2451    0.5077    1.2518 H   0  0  0  0  0  0  0  0  0  0  0  0
   -2.4787    1.3954    3.0311 C   0  0  0  0  0  0  0  0  0  0  0  0
   -1.7166    2.1767    3.0539 H   0  0  0  0  0  0  0  0  0  0  0  0
   -3.4649    1.8498    3.1344 H   0  0  0  0  0  0  0  0  0  0  0  0
   -2.3058    0.7133    3.8652 H   0  0  0  0  0  0  0  0  0  0  0  0
  5  6  2  0  0  0  0
  5  7  1  0  0  0  0
  2  3  1  0  0  0  0
  2  4  1  0  0  0  0
  2  5  1  0  0  0  0
  1  2  1  0  0  0  0
 29 30  2  0  0  0  0
 29 31  1  0  0  0  0
 26 27  1  0  0  0  0
 26 28  2  0  0  0  0
 24 25  1  0  0  0  0
 24 26  1  0  0  0  0
 22 23  1  0  0  0  0
 22 24  2  0  0  0  0
 20 21  1  0  0  0  0
 20 22  1  0  0  0  0
 19 20  2  0  0  0  0
 19 28  1  0  0  0  0
 17 18  1  0  0  0  0
 17 19  1  0  0  0  0
 15 16  1  0  0  0  0
 15 17  1  0  0  0  0
 14 15  2  0  0  0  0
 14 28  1  0  0  0  0
 11 12  1  0  0  0  0
 11 13  1  0  0  0  0
 11 14  1  0  0  0  0
  9 10  1  0  0  0  0
  9 11  1  0  0  0  0
  9 29  1  0  0  0  0
  7  8  1  0  0  0  0
  7  9  1  0  0  0  0
 33 34  1  0  0  0  0
 33 35  1  0  0  0  0
 33 36  1  0  0  0  0
 31 32  1  0  0  0  0
 31 33  1  0  0  0  0
M  END
$$$$
default_name
  -OEChem-02102213163D

 36 37  0     1  0  0  0  0  0999 V2000
   -4.0843   -4.0736    1.2944 H   0  0  0  0  0  0  0  0  0  0  0  0
   -4.0342   -3.2816    0.5484 C   0  0  0  0  0  0  0  0  0  0  0  0
   -4.8842   -2.6126    0.6694 H   0  0  0  0  0  0  0  0  0  0  0  0
   -4.0433   -3.7186   -0.4486 H   0  0  0  0  0  0  0  0  0  0  0  0
   -2.7532   -2.5046    0.7444 C   0  0  0  0  0  0  0  0  0  0  0  0
   -1.9803   -2.8096    1.6434 O   0  0  0  0  0  0  0  0  0  0  0  0
   -2.5332   -1.4966   -0.0966 N   0  0  0  0  0  0  0  0  0  0  0  0
   -3.2312   -1.2816   -0.7936 H   0  0  0  0  0  0  0  0  0  0  0  0
   -1.3593   -0.6196   -0.0536 C   0  0  1  0  0  0  0  0  0  0  0  0
   -0.4622   -1.2317   -0.1545 H   0  0  0  0  0  0  0  0  0  0  0  0
   -1.4074    0.3593   -1.2373 C   0  0  0  0  0  0  0  0  0  0  0  0
   -1.6719    1.3501   -0.8636 H   0  0  0  0  0  0  0  0  0  0  0  0
   -0.4091    0.4265   -1.6732 H   0  0  0  0  0  0  0  0  0  0  0  0
   -2.3763   -0.0006   -2.3225 C   0  0  0  0  0  0  0  0  0  0  0  0
   -3.7125   -0.1384   -2.1700 C   0  0  0  0  0  0  0  0  0  0  0  0
   -4.2418   -0.0216   -1.2306 H   0  0  0  0  0  0  0  0  0  0  0  0
   -4.2916   -0.4277   -3.3900 N   0  0  0  0  0  0  0  0  0  0  0  0
   -5.2822   -0.5768   -3.5150 H   0  0  0  0  0  0  0  0  0  0  0  0
   -3.3531   -0.4746   -4.3989 C   0  0  0  0  0  0  0  0  0  0  0  0
   -3.4420   -0.6973   -5.7805 C   0  0  0  0  0  0  0  0  0  0  0  0
   -4.3992   -0.8852   -6.2443 H   0  0  0  0  0  0  0  0  0  0  0  0
   -2.2680   -0.6743   -6.5528 C   0  0  0  0  0  0  0  0  0  0  0  0
   -2.3171   -0.8449   -7.6197 H   0  0  0  0  0  0  0  0  0  0  0  0
   -1.0270   -0.4353   -5.9346 C   0  0  0  0  0  0  0  0  0  0  0  0
   -0.1253   -0.4267   -6.5312 H   0  0  0  0  0  0  0  0  0  0  0  0
   -0.9493   -0.2147   -4.5448 C   0  0  0  0  0  0  0  0  0  0  0  0
    0.0119   -0.0456   -4.0806 H   0  0  0  0  0  0  0  0  0  0  0  0
   -2.1108   -0.2253   -3.7424 C   0  0  0  0  0  0  0  0  0  0  0  0
   -1.2663    0.1182    1.2910 C   0  0  0  0  0  0  0  0  0  0  0  0
   -0.1906    0.1931    1.8833 O   0  0  0  0  0  0  0  0  0  0  0  0
   -2.3930    0.6605    1.7722 N   0  0  0  0  0  0  0  0  0  0  0  0
   -3.2451    0.5077    1.2518 H   0  0  0  0  0  0  0  0  0  0  0  0
   -2.4787    1.3954    3.0311 C   0  0  0  0  0  0  0  0  0  0  0  0
   -1.7166    2.1767    3.0539 H   0  0  0  0  0  0  0  0  0  0  0  0
   -3.4649    1.8498    3.1344 H   0  0  0  0  0  0  0  0  0  0  0  0
   -2.3058    0.7133    3.8652 H   0  0  0  0  0  0  0  0  0  0  0  0
  5  6  2  0  0  0  0
  5  7  1  0  0  0  0
  2  3  1  0  0  0  0
  2  4  1  0  0  0  0
  2  5  1  0  0  0  0
  1  2  1  0  0  0  0
 29 30  2  0  0  0  0
 29 31  1  0  0  0  0
 26 27  1  0  0  0  0
 26 28  2  0  0  0  0
 24 25  1  0  0  0  0
 24 26  1  0  0  0  0
 22 23  1  0  0  0  0
 22 24  2  0  0  0  0
 20 21  1  0  0  0  0
 20 22  1  0  0  0  0
 19 20  2  0  0  0  0
 19 28  1  0  0  0  0
 17 18  1  0  0  0  0
 17 19  1  0  0  0  0
 15 16  1  0  0  0  0
 15 17  1  0  0  0  0
 14 15  2  0  0  0  0
 14 28  1  0  0  0  0
 11 12  1  0  0  0  0
 11 13  1  0  0  0  0
 11 14  1  0  0  0  0
  9 10  1  0  0  0  0
  9 11  1  0  0  0  0
  9 29  1  0  0  0  0
  7  8  1  0  0  0  0
  7  9  1  0  0  0  0
 33 34  1  0  0  0  0
 33 35  1  0  0  0  0
 33 36  1  0  0  0  0
 31 32  1  0  0  0  0
 31 33  1  0  0  0  0
M  END
$$$$
default_name
  -OEChem-02102213163D

 36 37  0     1  0  0  0  0  0999 V2000
   -4.0843   -4.0736    1.2944 H   0  0  0  0  0  0  0  0  0  0  0  0
   -4.0342   -3.2816    0.5484 C   0  0  0  0  0  0  0  0  0  0  0  0
   -4.8842   -2.6126    0.6694 H   0  0  0  0  0  0  0  0  0  0  0  0
   -4.0433   -3.7186   -0.4486 H   0  0  0  0  0  0  0  0  0  0  0  0
   -2.7532   -2.5046    0.7444 C   0  0  0  0  0  0  0  0  0  0  0  0
   -1.9803   -2.8096    1.6434 O   0  0  0  0  0  0  0  0  0  0  0  0
   -2.5332   -1.4966   -0.0966 N   0  0  0  0  0  0  0  0  0  0  0  0
   -3.2312   -1.2816   -0.7936 H   0  0  0  0  0  0  0  0  0  0  0  0
   -1.3593   -0.6196   -0.0536 C   0  0  1  0  0  0  0  0  0  0  0  0
   -0.4622   -1.2317   -0.1545 H   0  0  0  0  0  0  0  0  0  0  0  0
   -1.4074    0.3593   -1.2373 C   0  0  0  0  0  0  0  0  0  0  0  0
   -1.6719    1.3501   -0.8636 H   0  0  0  0  0  0  0  0  0  0  0  0
   -0.4091    0.4265   -1.6732 H   0  0  0  0  0  0  0  0  0  0  0  0
   -2.3763   -0.0006   -2.3225 C   0  0  0  0  0  0  0  0  0  0  0  0
   -3.7196    0.1358   -2.2546 C   0  0  0  0  0  0  0  0  0  0  0  0
   -4.2593    0.5080   -1.3907 H   0  0  0  0  0  0  0  0  0  0  0  0
   -4.2866   -0.2502   -3.4534 N   0  0  0  0  0  0  0  0  0  0  0  0
   -5.2805   -0.2357   -3.6297 H   0  0  0  0  0  0  0  0  0  0  0  0
   -3.3291   -0.6413   -4.3650 C   0  0  0  0  0  0  0  0  0  0  0  0
   -3.3953   -1.0800   -5.6953 C   0  0  0  0  0  0  0  0  0  0  0  0
   -4.3483   -1.1679   -6.1959 H   0  0  0  0  0  0  0  0  0  0  0  0
   -2.2045   -1.4053   -6.3670 C   0  0  0  0  0  0  0  0  0  0  0  0
   -2.2362   -1.7464   -7.3929 H   0  0  0  0  0  0  0  0  0  0  0  0
   -0.9706   -1.2929   -5.7005 C   0  0  0  0  0  0  0  0  0  0  0  0
   -0.0576   -1.5522   -6.2184 H   0  0  0  0  0  0  0  0  0  0  0  0
   -0.9162   -0.8528   -4.3627 C   0  0  0  0  0  0  0  0  0  0  0  0
    0.0371   -0.7837   -3.8583 H   0  0  0  0  0  0  0  0  0  0  0  0
   -2.0938   -0.5125   -3.6624 C   0  0  0  0  0  0  0  0  0  0  0  0
   -1.2663    0.1182    1.2910 C   0  0  0  0  0  0  0  0  0  0  0  0
   -0.1906    0.1931    1.8833 O   0  0  0  0  0  0  0  0  0  0  0  0
   -2.3930    0.6605    1.7722 N   0  0  0  0  0  0  0  0  0  0  0  0
   -3.2451    0.5077    1.2518 H   0  0  0  0  0  0  0  0  0  0  0  0
   -2.4787    1.3954    3.0311 C   0  0  0  0  0  0  0  0  0  0  0  0
   -1.7166    2.1767    3.0539 H   0  0  0  0  0  0  0  0  0  0  0  0
   -3.4649    1.8498    3.1344 H   0  0  0  0  0  0  0  0  0  0  0  0
   -2.3058    0.7133    3.8652 H   0  0  0  0  0  0  0  0  0  0  0  0
  5  6  2  0  0  0  0
  5  7  1  0  0  0  0
  2  3  1  0  0  0  0
  2  4  1  0  0  0  0
  2  5  1  0  0  0  0
  1  2  1  0  0  0  0
 29 30  2  0  0  0  0
 29 31  1  0  0  0  0
 26 27  1  0  0  0  0
 26 28  2  0  0  0  0
 24 25  1  0  0  0  0
 24 26  1  0  0  0  0
 22 23  1  0  0  0  0
 22 24  2  0  0  0  0
 20 21  1  0  0  0  0
 20 22  1  0  0  0  0
 19 20  2  0  0  0  0
 19 28  1  0  0  0  0
 17 18  1  0  0  0  0
 17 19  1  0  0  0  0
 15 16  1  0  0  0  0
 15 17  1  0  0  0  0
 14 15  2  0  0  0  0
 14 28  1  0  0  0  0
 11 12  1  0  0  0  0
 11 13  1  0  0  0  0
 11 14  1  0  0  0  0
  9 10  1  0  0  0  0
  9 11  1  0  0  0  0
  9 29  1  0  0  0  0
  7  8  1  0  0  0  0
  7  9  1  0  0  0  0
 33 34  1  0  0  0  0
 33 35  1  0  0  0  0
 33 36  1  0  0  0  0
 31 32  1  0  0  0  0
 31 33  1  0  0  0  0
M  END
$$$$
default_name
  -OEChem-02102213163D

 36 37  0     1  0  0  0  0  0999 V2000
   -4.0843   -4.0736    1.2944 H   0  0  0  0  0  0  0  0  0  0  0  0
   -4.0342   -3.2816    0.5484 C   0  0  0  0  0  0  0  0  0  0  0  0
   -4.8842   -2.6126    0.6694 H   0  0  0  0  0  0  0  0  0  0  0  0
   -4.0433   -3.7186   -0.4486 H   0  0  0  0  0  0  0  0  0  0  0  0
   -2.7532   -2.5046    0.7444 C   0  0  0  0  0  0  0  0  0  0  0  0
   -1.9803   -2.8096    1.6434 O   0  0  0  0  0  0  0  0  0  0  0  0
   -2.5332   -1.4966   -0.0966 N   0  0  0  0  0  0  0  0  0  0  0  0
   -3.2312   -1.2816   -0.7936 H   0  0  0  0  0  0  0  0  0  0  0  0
   -1.3593   -0.6196   -0.0536 C   0  0  1  0  0  0  0  0  0  0  0  0
   -0.4622   -1.2317   -0.1545 H   0  0  0  0  0  0  0  0  0  0  0  0
   -1.4074    0.3593   -1.2373 C   0  0  0  0  0  0  0  0  0  0  0  0
   -1.6719    1.3501   -0.8636 H   0  0  0  0  0  0  0  0  0  0  0  0
   -0.4091    0.4265   -1.6732 H   0  0  0  0  0  0  0  0  0  0  0  0
   -2.3763   -0.0006   -2.3225 C   0  0  0  0  0  0  0  0  0  0  0  0
   -3.6698    0.3878   -2.3826 C   0  0  0  0  0  0  0  0  0  0  0  0
   -4.1670    0.9960   -1.6349 H   0  0  0  0  0  0  0  0  0  0  0  0
   -4.2445   -0.0902   -3.5440 N   0  0  0  0  0  0  0  0  0  0  0  0
   -5.2078    0.0743   -3.7974 H   0  0  0  0  0  0  0  0  0  0  0  0
   -3.3393   -0.8010   -4.3030 C   0  0  0  0  0  0  0  0  0  0  0  0
   -3.4272   -1.4441   -5.5460 C   0  0  0  0  0  0  0  0  0  0  0  0
   -4.3552   -1.4424   -6.0988 H   0  0  0  0  0  0  0  0  0  0  0  0
   -2.2917   -2.0922   -6.0613 C   0  0  0  0  0  0  0  0  0  0  0  0
   -2.3411   -2.5944   -7.0180 H   0  0  0  0  0  0  0  0  0  0  0  0
   -1.0914   -2.0927   -5.3273 C   0  0  0  0  0  0  0  0  0  0  0  0
   -0.2226   -2.5997   -5.7237 H   0  0  0  0  0  0  0  0  0  0  0  0
   -1.0151   -1.4448   -4.0781 C   0  0  0  0  0  0  0  0  0  0  0  0
   -0.0907   -1.4642   -3.5185 H   0  0  0  0  0  0  0  0  0  0  0  0
   -2.1361   -0.7796   -3.5360 C   0  0  0  0  0  0  0  0  0  0  0  0
   -1.2663    0.1182    1.2910 C   0  0  0  0  0  0  0  0  0  0  0  0
   -0.1906    0.1931    1.8833 O   0  0  0  0  0  0  0  0  0  0  0  0
   -2.3930    0.6605    1.7722 N   0  0  0  0  0  0  0  0  0  0  0  0
   -3.2451    0.5077    1.2518 H   0  0  0  0  0  0  0  0  0  0  0  0
   -2.4787    1.3954    3.0311 C   0  0  0  0  0  0  0  0  0  0  0  0
   -1.7166    2.1767    3.0539 H   0  0  0  0  0  0  0  0  0  0  0  0
   -3.4649    1.8498    3.1344 H   0  0  0  0  0  0  0  0  0  0  0  0
   -2.3058    0.7133    3.8652 H   0  0  0  0  0  0  0  0  0  0  0  0
  5  6  2  0  0  0  0
  5  7  1  0  0  0  0
  2  3  1  0  0  0  0
  2  4  1  0  0  0  0
  2  5  1  0  0  0  0
  1  2  1  0  0  0  0
 29 30  2  0  0  0  0
 29 31  1  0  0  0  0
 26 27  1  0  0  0  0
 26 28  2  0  0  0  0
 24 25  1  0  0  0  0
 24 26  1  0  0  0  0
 22 23  1  0  0  0  0
 22 24  2  0  0  0  0
 20 21  1  0  0  0  0
 20 22  1  0  0  0  0
 19 20  2  0  0  0  0
 19 28  1  0  0  0  0
 17 18  1  0  0  0  0
 17 19  1  0  0  0  0
 15 16  1  0  0  0  0
 15 17  1  0  0  0  0
 14 15  2  0  0  0  0
 14 28  1  0  0  0  0
 11 12  1  0  0  0  0
 11 13  1  0  0  0  0
 11 14  1  0  0  0  0
  9 10  1  0  0  0  0
  9 11  1  0  0  0  0
  9 29  1  0  0  0  0
  7  8  1  0  0  0  0
  7  9  1  0  0  0  0
 33 34  1  0  0  0  0
 33 35  1  0  0  0  0
 33 36  1  0  0  0  0
 31 32  1  0  0  0  0
 31 33  1  0  0  0  0
M  END
$$$$
default_name
  -OEChem-02102213163D

 36 37  0     1  0  0  0  0  0999 V2000
   -4.0843   -4.0736    1.2944 H   0  0  0  0  0  0  0  0  0  0  0  0
   -4.0342   -3.2816    0.5484 C   0  0  0  0  0  0  0  0  0  0  0  0
   -4.8842   -2.6126    0.6694 H   0  0  0  0  0  0  0  0  0  0  0  0
   -4.0433   -3.7186   -0.4486 H   0  0  0  0  0  0  0  0  0  0  0  0
   -2.7532   -2.5046    0.7444 C   0  0  0  0  0  0  0  0  0  0  0  0
   -1.9803   -2.8096    1.6434 O   0  0  0  0  0  0  0  0  0  0  0  0
   -2.5332   -1.4966   -0.0966 N   0  0  0  0  0  0  0  0  0  0  0  0
   -3.2312   -1.2816   -0.7936 H   0  0  0  0  0  0  0  0  0  0  0  0
   -1.3593   -0.6196   -0.0536 C   0  0  1  0  0  0  0  0  0  0  0  0
   -0.4622   -1.2317   -0.1545 H   0  0  0  0  0  0  0  0  0  0  0  0
   -1.4074    0.3593   -1.2373 C   0  0  0  0  0  0  0  0  0  0  0  0
   -1.6719    1.3501   -0.8636 H   0  0  0  0  0  0  0  0  0  0  0  0
   -0.4091    0.4265   -1.6732 H   0  0  0  0  0  0  0  0  0  0  0  0
   -2.3763   -0.0006   -2.3225 C   0  0  0  0  0  0  0  0  0  0  0  0
   -3.5665    0.6005   -2.5454 C   0  0  0  0  0  0  0  0  0  0  0  0
   -3.9712    1.4092   -1.9468 H   0  0  0  0  0  0  0  0  0  0  0  0
   -4.1683    0.0413   -3.6557 N   0  0  0  0  0  0  0  0  0  0  0  0
   -5.0690    0.3320   -4.0068 H   0  0  0  0  0  0  0  0  0  0  0  0
   -3.3829   -0.9431   -4.2169 C   0  0  0  0  0  0  0  0  0  0  0  0
   -3.5356   -1.7649   -5.3428 C   0  0  0  0  0  0  0  0  0  0  0  0
   -4.4192   -1.6900   -5.9594 H   0  0  0  0  0  0  0  0  0  0  0  0
   -2.5237   -2.6883   -5.6565 C   0  0  0  0  0  0  0  0  0  0  0  0
   -2.6246   -3.3311   -6.5205 H   0  0  0  0  0  0  0  0  0  0  0  0
   -1.3812   -2.7801   -4.8406 C   0  0  0  0  0  0  0  0  0  0  0  0
   -0.6090   -3.4978   -5.0808 H   0  0  0  0  0  0  0  0  0  0  0  0
   -1.2393   -1.9505   -3.7102 C   0  0  0  0  0  0  0  0  0  0  0  0
   -0.3628   -2.0407   -3.0843 H   0  0  0  0  0  0  0  0  0  0  0  0
   -2.2349   -1.0086   -3.3718 C   0  0  0  0  0  0  0  0  0  0  0  0
   -1.2663    0.1182    1.2910 C   0  0  0  0  0  0  0  0  0  0  0  0
   -0.1906    0.1931    1.8833 O   0  0  0  0  0  0  0  0  0  0  0  0
   -2.3930    0.6605    1.7722 N   0  0  0  0  0  0  0  0  0  0  0  0
   -3.2451    0.5077    1.2518 H   0  0  0  0  0  0  0  0  0  0  0  0
   -2.4787    1.3954    3.0311 C   0  0  0  0  0  0  0  0  0  0  0  0
   -1.7166    2.1767    3.0539 H   0  0  0  0  0  0  0  0  0  0  0  0
   -3.4649    1.8498    3.1344 H   0  0  0  0  0  0  0  0  0  0  0  0
   -2.3058    0.7133    3.8652 H   0  0  0  0  0  0  0  0  0  0  0  0
  5  6  2  0  0  0  0
  5  7  1  0  0  0  0
  2  3  1  0  0  0  0
  2  4  1  0  0  0  0
  2  5  1  0  0  0  0
  1  2  1  0  0  0  0
 29 30  2  0  0  0  0
 29 31  1  0  0  0  0
 26 27  1  0  0  0  0
 26 28  2  0  0  0  0
 24 25  1  0  0  0  0
 24 26  1  0  0  0  0
 22 23  1  0  0  0  0
 22 24  2  0  0  0  0
 20 21  1  0  0  0  0
 20 22  1  0  0  0  0
 19 20  2  0  0  0  0
 19 28  1  0  0  0  0
 17 18  1  0  0  0  0
 17 19  1  0  0  0  0
 15 16  1  0  0  0  0
 15 17  1  0  0  0  0
 14 15  2  0  0  0  0
 14 28  1  0  0  0  0
 11 12  1  0  0  0  0
 11 13  1  0  0  0  0
 11 14  1  0  0  0  0
  9 10  1  0  0  0  0
  9 11  1  0  0  0  0
  9 29  1  0  0  0  0
  7  8  1  0  0  0  0
  7  9  1  0  0  0  0
 33 34  1  0  0  0  0
 33 35  1  0  0  0  0
 33 36  1  0  0  0  0
 31 32  1  0  0  0  0
 31 33  1  0  0  0  0
M  END
$$$$
default_name
  -OEChem-02102213163D

 36 37  0     1  0  0  0  0  0999 V2000
   -4.0843   -4.0736    1.2944 H   0  0  0  0  0  0  0  0  0  0  0  0
   -4.0342   -3.2816    0.5484 C   0  0  0  0  0  0  0  0  0  0  0  0
   -4.8842   -2.6126    0.6694 H   0  0  0  0  0  0  0  0  0  0  0  0
   -4.0433   -3.7186   -0.4486 H   0  0  0  0  0  0  0  0  0  0  0  0
   -2.7532   -2.5046    0.7444 C   0  0  0  0  0  0  0  0  0  0  0  0
   -1.9803   -2.8096    1.6434 O   0  0  0  0  0  0  0  0  0  0  0  0
   -2.5332   -1.4966   -0.0966 N   0  0  0  0  0  0  0  0  0  0  0  0
   -3.2312   -1.2816   -0.7936 H   0  0  0  0  0  0  0  0  0  0  0  0
   -1.3593   -0.6196   -0.0536 C   0  0  1  0  0  0  0  0  0  0  0  0
   -0.4622   -1.2317   -0.1545 H   0  0  0  0  0  0  0  0  0  0  0  0
   -1.4074    0.3593   -1.2373 C   0  0  0  0  0  0  0  0  0  0  0  0
   -1.6719    1.3501   -0.8636 H   0  0  0  0  0  0  0  0  0  0  0  0
   -0.4091    0.4265   -1.6732 H   0  0  0  0  0  0  0  0  0  0  0  0
   -2.3763   -0.0006   -2.3225 C   0  0  0  0  0  0  0  0  0  0  0  0
   -3.4168    0.7593   -2.7318 C   0  0  0  0  0  0  0  0  0  0  0  0
   -3.6853    1.7195   -2.3051 H   0  0  0  0  0  0  0  0  0  0  0  0
   -4.0631    0.1353   -3.7808 N   0  0  0  0  0  0  0  0  0  0  0  0
   -4.8737    0.5199   -4.2435 H   0  0  0  0  0  0  0  0  0  0  0  0
   -3.4571   -1.0577   -4.1127 C   0  0  0  0  0  0  0  0  0  0  0  0
   -3.7130   -2.0204   -5.0997 C   0  0  0  0  0  0  0  0  0  0  0  0
   -4.5362   -1.8938   -5.7874 H   0  0  0  0  0  0  0  0  0  0  0  0
   -2.8846   -3.1528   -5.1801 C   0  0  0  0  0  0  0  0  0  0  0  0
   -3.0675   -3.9063   -5.9343 H   0  0  0  0  0  0  0  0  0  0  0  0
   -1.8202   -3.3084   -4.2734 C   0  0  0  0  0  0  0  0  0  0  0  0
   -1.1904   -4.1852   -4.3336 H   0  0  0  0  0  0  0  0  0  0  0  0
   -1.5735   -2.3354   -3.2841 C   0  0  0  0  0  0  0  0  0  0  0  0
   -0.7606   -2.4739   -2.5854 H   0  0  0  0  0  0  0  0  0  0  0  0
   -2.3835   -1.1838   -3.1810 C   0  0  0  0  0  0  0  0  0  0  0  0
   -1.2663    0.1182    1.2910 C   0  0  0  0  0  0  0  0  0  0  0  0
   -0.1906    0.1931    1.8833 O   0  0  0  0  0  0  0  0  0  0  0  0
   -2.3930    0.6605    1.7722 N   0  0  0  0  0  0  0  0  0  0  0  0
   -3.2451    0.5077    1.2518 H   0  0  0  0  0  0  0  0  0  0  0  0
   -2.4787    1.3954    3.0311 C   0  0  0  0  0  0  0  0  0  0  0  0
   -1.7166    2.1767    3.0539 H   0  0  0  0  0  0  0  0  0  0  0  0
   -3.4649    1.8498    3.1344 H   0  0  0  0  0  0  0  0  0  0  0  0
   -2.3058    0.7133    3.8652 H   0  0  0  0  0  0  0  0  0  0  0  0
  5  6  2  0  0  0  0
  5  7  1  0  0  0  0
  2  3  1  0  0  0  0
  2  4  1  0  0  0  0
  2  5  1  0  0  0  0
  1  2  1  0  0  0  0
 29 30  2  0  0  0  0
 29 31  1  0  0  0  0
 26 27  1  0  0  0  0
 26 28  2  0  0  0  0
 24 25  1  0  0  0  0
 24 26  1  0  0  0  0
 22 23  1  0  0  0  0
 22 24  2  0  0  0  0
 20 21  1  0  0  0  0
 20 22  1  0  0  0  0
 19 20  2  0  0  0  0
 19 28  1  0  0  0  0
 17 18  1  0  0  0  0
 17 19  1  0  0  0  0
 15 16  1  0  0  0  0
 15 17  1  0  0  0  0
 14 15  2  0  0  0  0
 14 28  1  0  0  0  0
 11 12  1  0  0  0  0
 11 13  1  0  0  0  0
 11 14  1  0  0  0  0
  9 10  1  0  0  0  0
  9 11  1  0  0  0  0
  9 29  1  0  0  0  0
  7  8  1  0  0  0  0
  7  9  1  0  0  0  0
 33 34  1  0  0  0  0
 33 35  1  0  0  0  0
 33 36  1  0  0  0  0
 31 32  1  0  0  0  0
 31 33  1  0  0  0  0
M  END
$$$$
default_name
  -OEChem-02102213163D

 36 37  0     1  0  0  0  0  0999 V2000
   -4.0843   -4.0736    1.2944 H   0  0  0  0  0  0  0  0  0  0  0  0
   -4.0342   -3.2816    0.5484 C   0  0  0  0  0  0  0  0  0  0  0  0
   -4.8842   -2.6126    0.6694 H   0  0  0  0  0  0  0  0  0  0  0  0
   -4.0433   -3.7186   -0.4486 H   0  0  0  0  0  0  0  0  0  0  0  0
   -2.7532   -2.5046    0.7444 C   0  0  0  0  0  0  0  0  0  0  0  0
   -1.9803   -2.8096    1.6434 O   0  0  0  0  0  0  0  0  0  0  0  0
   -2.5332   -1.4966   -0.0966 N   0  0  0  0  0  0  0  0  0  0  0  0
   -3.2312   -1.2816   -0.7936 H   0  0  0  0  0  0  0  0  0  0  0  0
   -1.3593   -0.6196   -0.0536 C   0  0  1  0  0  0  0  0  0  0  0  0
   -0.4622   -1.2317   -0.1545 H   0  0  0  0  0  0  0  0  0  0  0  0
   -1.4074    0.3593   -1.2373 C   0  0  0  0  0  0  0  0  0  0  0  0
   -1.6719    1.3501   -0.8636 H   0  0  0  0  0  0  0  0  0  0  0  0
   -0.4091    0.4265   -1.6732 H   0  0  0  0  0  0  0  0  0  0  0  0
   -2.3763   -0.0006   -2.3225 C   0  0  0  0  0  0  0  0  0  0  0  0
   -3.2308    0.8535   -2.9291 C   0  0  0  0  0  0  0  0  0  0  0  0
   -3.3287    1.9057   -2.6852 H   0  0  0  0  0  0  0  0  0  0  0  0
   -3.9360    0.1855   -3.9108 N   0  0  0  0  0  0  0  0  0  0  0  0
   -4.6351    0.6252   -4.4915 H   0  0  0  0  0  0  0  0  0  0  0  0
   -3.5566   -1.1371   -3.9975 C   0  0  0  0  0  0  0  0  0  0  0  0
   -3.9474   -2.1933   -4.8331 C   0  0  0  0  0  0  0  0  0  0  0  0
   -4.6981   -2.0400   -5.5944 H   0  0  0  0  0  0  0  0  0  0  0  0
   -3.3499   -3.4541   -4.6647 C   0  0  0  0  0  0  0  0  0  0  0  0
   -3.6395   -4.2808   -5.2993 H   0  0  0  0  0  0  0  0  0  0  0  0
   -2.3785   -3.6415   -3.6644 C   0  0  0  0  0  0  0  0  0  0  0  0
   -1.9274   -4.6153   -3.5329 H   0  0  0  0  0  0  0  0  0  0  0  0
   -1.9949   -2.5733   -2.8290 C   0  0  0  0  0  0  0  0  0  0  0  0
   -1.2571   -2.7342   -2.0557 H   0  0  0  0  0  0  0  0  0  0  0  0
   -2.5717   -1.2933   -2.9767 C   0  0  0  0  0  0  0  0  0  0  0  0
   -1.2663    0.1182    1.2910 C   0  0  0  0  0  0  0  0  0  0  0  0
   -0.1906    0.1931    1.8833 O   0  0  0  0  0  0  0  0  0  0  0  0
   -2.3930    0.6605    1.7722 N   0  0  0  0  0  0  0  0  0  0  0  0
   -3.2451    0.5077    1.2518 H   0  0  0  0  0  0  0  0  0  0  0  0
   -2.4787    1.3954    3.0311 C   0  0  0  0  0  0  0  0  0  0  0  0
   -1.7166    2.1767    3.0539 H   0  0  0  0  0  0  0  0  0  0  0  0
   -3.4649    1.8498    3.1344 H   0  0  0  0  0  0  0  0  0  0  0  0
   -2.3058    0.7133    3.8652 H   0  0  0  0  0  0  0  0  0  0  0  0
  5  6  2  0  0  0  0
  5  7  1  0  0  0  0
  2  3  1  0  0  0  0
  2  4  1  0  0  0  0
  2  5  1  0  0  0  0
  1  2  1  0  0  0  0
 29 30  2  0  0  0  0
 29 31  1  0  0  0  0
 26 27  1  0  0  0  0
 26 28  2  0  0  0  0
 24 25  1  0  0  0  0
 24 26  1  0  0  0  0
 22 23  1  0  0  0  0
 22 24  2  0  0  0  0
 20 21  1  0  0  0  0
 20 22  1  0  0  0  0
 19 20  2  0  0  0  0
 19 28  1  0  0  0  0
 17 18  1  0  0  0  0
 17 19  1  0  0  0  0
 15 16  1  0  0  0  0
 15 17  1  0  0  0  0
 14 15  2  0  0  0  0
 14 28  1  0  0  0  0
 11 12  1  0  0  0  0
 11 13  1  0  0  0  0
 11 14  1  0  0  0  0
  9 10  1  0  0  0  0
  9 11  1  0  0  0  0
  9 29  1  0  0  0  0
  7  8  1  0  0  0  0
  7  9  1  0  0  0  0
 33 34  1  0  0  0  0
 33 35  1  0  0  0  0
 33 36  1  0  0  0  0
 31 32  1  0  0  0  0
 31 33  1  0  0  0  0
M  END
$$$$
default_name
  -OEChem-02102213163D

 36 37  0     1  0  0  0  0  0999 V2000
   -4.0843   -4.0736    1.2944 H   0  0  0  0  0  0  0  0  0  0  0  0
   -4.0342   -3.2816    0.5484 C   0  0  0  0  0  0  0  0  0  0  0  0
   -4.8842   -2.6126    0.6694 H   0  0  0  0  0  0  0  0  0  0  0  0
   -4.0433   -3.7186   -0.4486 H   0  0  0  0  0  0  0  0  0  0  0  0
   -2.7532   -2.5046    0.7444 C   0  0  0  0  0  0  0  0  0  0  0  0
   -1.9803   -2.8096    1.6434 O   0  0  0  0  0  0  0  0  0  0  0  0
   -2.5332   -1.4966   -0.0966 N   0  0  0  0  0  0  0  0  0  0  0  0
   -3.2312   -1.2816   -0.7936 H   0  0  0  0  0  0  0  0  0  0  0  0
   -1.3593   -0.6196   -0.0536 C   0  0  1  0  0  0  0  0  0  0  0  0
   -0.4622   -1.2317   -0.1545 H   0  0  0  0  0  0  0  0  0  0  0  0
   -1.4074    0.3593   -1.2373 C   0  0  0  0  0  0  0  0  0  0  0  0
   -1.6719    1.3501   -0.8636 H   0  0  0  0  0  0  0  0  0  0  0  0
   -0.4091    0.4265   -1.6732 H   0  0  0  0  0  0  0  0  0  0  0  0
   -2.3763   -0.0006   -2.3225 C   0  0  0  0  0  0  0  0  0  0  0  0
   -3.0212    0.8766   -3.1239 C   0  0  0  0  0  0  0  0  0  0  0  0
   -2.9257    1.9551   -3.0614 H   0  0  0  0  0  0  0  0  0  0  0  0
   -3.7959    0.1884   -4.0370 N   0  0  0  0  0  0  0  0  0  0  0  0
   -4.3695    0.6407   -4.7337 H   0  0  0  0  0  0  0  0  0  0  0  0
   -3.6748   -1.1759   -3.8791 C   0  0  0  0  0  0  0  0  0  0  0  0
   -4.2228   -2.2717   -4.5612 C   0  0  0  0  0  0  0  0  0  0  0  0
   -4.8939   -2.1185   -5.3935 H   0  0  0  0  0  0  0  0  0  0  0  0
   -3.8879   -3.5717   -4.1454 C   0  0  0  0  0  0  0  0  0  0  0  0
   -4.3017   -4.4290   -4.6589 H   0  0  0  0  0  0  0  0  0  0  0  0
   -3.0181   -3.7567   -3.0552 C   0  0  0  0  0  0  0  0  0  0  0  0
   -2.7696   -4.7586   -2.7334 H   0  0  0  0  0  0  0  0  0  0  0  0
   -2.4748   -2.6479   -2.3757 C   0  0  0  0  0  0  0  0  0  0  0  0
   -1.8184   -2.8041   -1.5314 H   0  0  0  0  0  0  0  0  0  0  0  0
   -2.7867   -1.3295   -2.7727 C   0  0  0  0  0  0  0  0  0  0  0  0
   -1.2663    0.1182    1.2910 C   0  0  0  0  0  0  0  0  0  0  0  0
   -0.1906    0.1931    1.8833 O   0  0  0  0  0  0  0  0  0  0  0  0
   -2.3930    0.6605    1.7722 N   0  0  0  0  0  0  0  0  0  0  0  0
   -3.2451    0.5077    1.2518 H   0  0  0  0  0  0  0  0  0  0  0  0
   -2.4787    1.3954    3.0311 C   0  0  0  0  0  0  0  0  0  0  0  0
   -1.7166    2.1767    3.0539 H   0  0  0  0  0  0  0  0  0  0  0  0
   -3.4649    1.8498    3.1344 H   0  0  0  0  0  0  0  0  0  0  0  0
   -2.3058    0.7133    3.8652 H   0  0  0  0  0  0  0  0  0  0  0  0
  5  6  2  0  0  0  0
  5  7  1  0  0  0  0
  2  3  1  0  0  0  0
  2  4  1  0  0  0  0
  2  5  1  0  0  0  0
  1  2  1  0  0  0  0
 29 30  2  0  0  0  0
 29 31  1  0  0  0  0
 26 27  1  0  0  0  0
 26 28  2  0  0  0  0
 24 25  1  0  0  0  0
 24 26  1  0  0  0  0
 22 23  1  0  0  0  0
 22 24  2  0  0  0  0
 20 21  1  0  0  0  0
 20 22  1  0  0  0  0
 19 20  2  0  0  0  0
 19 28  1  0  0  0  0
 17 18  1  0  0  0  0
 17 19  1  0  0  0  0
 15 16  1  0  0  0  0
 15 17  1  0  0  0  0
 14 15  2  0  0  0  0
 14 28  1  0  0  0  0
 11 12  1  0  0  0  0
 11 13  1  0  0  0  0
 11 14  1  0  0  0  0
  9 10  1  0  0  0  0
  9 11  1  0  0  0  0
  9 29  1  0  0  0  0
  7  8  1  0  0  0  0
  7  9  1  0  0  0  0
 33 34  1  0  0  0  0
 33 35  1  0  0  0  0
 33 36  1  0  0  0  0
 31 32  1  0  0  0  0
 31 33  1  0  0  0  0
M  END
$$$$
default_name
  -OEChem-02102213163D

 36 37  0     1  0  0  0  0  0999 V2000
   -4.0843   -4.0736    1.2944 H   0  0  0  0  0  0  0  0  0  0  0  0
   -4.0342   -3.2816    0.5484 C   0  0  0  0  0  0  0  0  0  0  0  0
   -4.8842   -2.6126    0.6694 H   0  0  0  0  0  0  0  0  0  0  0  0
   -4.0433   -3.7186   -0.4486 H   0  0  0  0  0  0  0  0  0  0  0  0
   -2.7532   -2.5046    0.7444 C   0  0  0  0  0  0  0  0  0  0  0  0
   -1.9803   -2.8096    1.6434 O   0  0  0  0  0  0  0  0  0  0  0  0
   -2.5332   -1.4966   -0.0966 N   0  0  0  0  0  0  0  0  0  0  0  0
   -3.2312   -1.2816   -0.7936 H   0  0  0  0  0  0  0  0  0  0  0  0
   -1.3593   -0.6196   -0.0536 C   0  0  1  0  0  0  0  0  0  0  0  0
   -0.4622   -1.2317   -0.1545 H   0  0  0  0  0  0  0  0  0  0  0  0
   -1.4074    0.3593   -1.2373 C   0  0  0  0  0  0  0  0  0  0  0  0
   -1.6719    1.3501   -0.8636 H   0  0  0  0  0  0  0  0  0  0  0  0
   -0.4091    0.4265   -1.6732 H   0  0  0  0  0  0  0  0  0  0  0  0
   -2.3763   -0.0006   -2.3225 C   0  0  0  0  0  0  0  0  0  0  0  0
   -2.8024    0.8271   -3.3028 C   0  0  0  0  0  0  0  0  0  0  0  0
   -2.5037    1.8643   -3.4080 H   0  0  0  0  0  0  0  0  0  0  0  0
   -3.6521    0.1438   -4.1506 N   0  0  0  0  0  0  0  0  0  0  0  0
   -4.0950    0.5653   -4.9539 H   0  0  0  0  0  0  0  0  0  0  0  0
   -3.8036   -1.1714   -3.7656 C   0  0  0  0  0  0  0  0  0  0  0  0
   -4.5203   -2.2504   -4.3025 C   0  0  0  0  0  0  0  0  0  0  0  0
   -5.1102   -2.1241   -5.1985 H   0  0  0  0  0  0  0  0  0  0  0  0
   -4.4618   -3.4976   -3.6575 C   0  0  0  0  0  0  0  0  0  0  0  0
   -5.0089   -4.3410   -4.0566 H   0  0  0  0  0  0  0  0  0  0  0  0
   -3.6953   -3.6462   -2.4872 C   0  0  0  0  0  0  0  0  0  0  0  0
   -3.6597   -4.6054   -1.9895 H   0  0  0  0  0  0  0  0  0  0  0  0
   -2.9805   -2.5542   -1.9553 C   0  0  0  0  0  0  0  0  0  0  0  0
   -2.4063   -2.6786   -1.0482 H   0  0  0  0  0  0  0  0  0  0  0  0
   -3.0138   -1.2901   -2.5830 C   0  0  0  0  0  0  0  0  0  0  0  0
   -1.2663    0.1182    1.2910 C   0  0  0  0  0  0  0  0  0  0  0  0
   -0.1906    0.1931    1.8833 O   0  0  0  0  0  0  0  0  0  0  0  0
   -2.3930    0.6605    1.7722 N   0  0  0  0  0  0  0  0  0  0  0  0
   -3.2451    0.5077    1.2518 H   0  0  0  0  0  0  0  0  0  0  0  0
   -2.4787    1.3954    3.0311 C   0  0  0  0  0  0  0  0  0  0  0  0
   -1.7166    2.1767    3.0539 H   0  0  0  0  0  0  0  0  0  0  0  0
   -3.4649    1.8498    3.1344 H   0  0  0  0  0  0  0  0  0  0  0  0
   -2.3058    0.7133    3.8652 H   0  0  0  0  0  0  0  0  0  0  0  0
  5  6  2  0  0  0  0
  5  7  1  0  0  0  0
  2  3  1  0  0  0  0
  2  4  1  0  0  0  0
  2  5  1  0  0  0  0
  1  2  1  0  0  0  0
 29 30  2  0  0  0  0
 29 31  1  0  0  0  0
 26 27  1  0  0  0  0
 26 28  2  0  0  0  0
 24 25  1  0  0  0  0
 24 26  1  0  0  0  0
 22 23  1  0  0  0  0
 22 24  2  0  0  0  0
 20 21  1  0  0  0  0
 20 22  1  0  0  0  0
 19 20  2  0  0  0  0
 19 28  1  0  0  0  0
 17 18  1  0  0  0  0
 17 19  1  0  0  0  0
 15 16  1  0  0  0  0
 15 17  1  0  0  0  0
 14 15  2  0  0  0  0
 14 28  1  0  0  0  0
 11 12  1  0  0  0  0
 11 13  1  0  0  0  0
 11 14  1  0  0  0  0
  9 10  1  0  0  0  0
  9 11  1  0  0  0  0
  9 29  1  0  0  0  0
  7  8  1  0  0  0  0
  7  9  1  0  0  0  0
 33 34  1  0  0  0  0
 33 35  1  0  0  0  0
 33 36  1  0  0  0  0
 31 32  1  0  0  0  0
 31 33  1  0  0  0  0
M  END
$$$$
default_name
  -OEChem-02102213163D

 36 37  0     1  0  0  0  0  0999 V2000
   -4.0843   -4.0736    1.2944 H   0  0  0  0  0  0  0  0  0  0  0  0
   -4.0342   -3.2816    0.5484 C   0  0  0  0  0  0  0  0  0  0  0  0
   -4.8842   -2.6126    0.6694 H   0  0  0  0  0  0  0  0  0  0  0  0
   -4.0433   -3.7186   -0.4486 H   0  0  0  0  0  0  0  0  0  0  0  0
   -2.7532   -2.5046    0.7444 C   0  0  0  0  0  0  0  0  0  0  0  0
   -1.9803   -2.8096    1.6434 O   0  0  0  0  0  0  0  0  0  0  0  0
   -2.5332   -1.4966   -0.0966 N   0  0  0  0  0  0  0  0  0  0  0  0
   -3.2312   -1.2816   -0.7936 H   0  0  0  0  0  0  0  0  0  0  0  0
   -1.3593   -0.6196   -0.0536 C   0  0  1  0  0  0  0  0  0  0  0  0
   -0.4622   -1.2317   -0.1545 H   0  0  0  0  0  0  0  0  0  0  0  0
   -1.4074    0.3593   -1.2373 C   0  0  0  0  0  0  0  0  0  0  0  0
   -1.4042    1.3798   -0.8500 H   0  0  0  0  0  0  0  0  0  0  0  0
   -0.5020    0.2292   -1.8326 H   0  0  0  0  0  0  0  0  0  0  0  0
   -2.5946    0.2099   -2.1396 C   0  0  0  0  0  0  0  0  0  0  0  0
   -2.8469    0.9566   -3.2379 C   0  0  0  0  0  0  0  0  0  0  0  0
   -2.2223    1.7718   -3.5868 H   0  0  0  0  0  0  0  0  0  0  0  0
   -4.0014    0.5083   -3.8490 N   0  0  0  0  0  0  0  0  0  0  0  0
   -4.3850    0.9216   -4.6864 H   0  0  0  0  0  0  0  0  0  0  0  0
   -4.5451   -0.5675   -3.1797 C   0  0  0  0  0  0  0  0  0  0  0  0
   -5.6686   -1.3733   -3.4138 C   0  0  0  0  0  0  0  0  0  0  0  0
   -6.3058   -1.1898   -4.2664 H   0  0  0  0  0  0  0  0  0  0  0  0
   -5.9546   -2.4217   -2.5227 C   0  0  0  0  0  0  0  0  0  0  0  0
   -6.8174   -3.0529   -2.6867 H   0  0  0  0  0  0  0  0  0  0  0  0
   -5.1200   -2.6450   -1.4123 C   0  0  0  0  0  0  0  0  0  0  0  0
   -5.3485   -3.4475   -0.7246 H   0  0  0  0  0  0  0  0  0  0  0  0
   -3.9946   -1.8275   -1.1857 C   0  0  0  0  0  0  0  0  0  0  0  0
   -3.3694   -2.0016   -0.3215 H   0  0  0  0  0  0  0  0  0  0  0  0
   -3.6767   -0.7703   -2.0656 C   0  0  0  0  0  0  0  0  0  0  0  0
   -1.2663    0.1182    1.2910 C   0  0  0  0  0  0  0  0  0  0  0  0
   -0.1906    0.1931    1.8833 O   0  0  0  0  0  0  0  0  0  0  0  0
   -2.3930    0.6605    1.7722 N   0  0  0  0  0  0  0  0  0  0  0  0
   -3.2451    0.5077    1.2518 H   0  0  0  0  0  0  0  0  0  0  0  0
   -2.4787    1.3954    3.0311 C   0  0  0  0  0  0  0  0  0  0  0  0
   -1.7166    2.1767    3.0539 H   0  0  0  0  0  0  0  0  0  0  0  0
   -3.4649    1.8498    3.1344 H   0  0  0  0  0  0  0  0  0  0  0  0
   -2.3058    0.7133    3.8652 H   0  0  0  0  0  0  0  0  0  0  0  0
  5  6  2  0  0  0  0
  5  7  1  0  0  0  0
  2  3  1  0  0  0  0
  2  4  1  0  0  0  0
  2  5  1  0  0  0  0
  1  2  1  0  0  0  0
 29 30  2  0  0  0  0
 29 31  1  0  0  0  0
 26 27  1  0  0  0  0
 26 28  2  0  0  0  0
 24 25  1  0  0  0  0
 24 26  1  0  0  0  0
 22 23  1  0  0  0  0
 22 24  2  0  0  0  0
 20 21  1  0  0  0  0
 20 22  1  0  0  0  0
 19 20  2  0  0  0  0
 19 28  1  0  0  0  0
 17 18  1  0  0  0  0
 17 19  1  0  0  0  0
 15 16  1  0  0  0  0
 15 17  1  0  0  0  0
 14 15  2  0  0  0  0
 14 28  1  0  0  0  0
 11 12  1  0  0  0  0
 11 13  1  0  0  0  0
 11 14  1  0  0  0  0
  9 10  1  0  0  0  0
  9 11  1  0  0  0  0
  9 29  1  0  0  0  0
  7  8  1  0  0  0  0
  7  9  1  0  0  0  0
 33 34  1  0  0  0  0
 33 35  1  0  0  0  0
 33 36  1  0  0  0  0
 31 32  1  0  0  0  0
 31 33  1  0  0  0  0
M  END
$$$$
default_name
  -OEChem-02102213163D

 36 37  0     1  0  0  0  0  0999 V2000
   -4.0843   -4.0736    1.2944 H   0  0  0  0  0  0  0  0  0  0  0  0
   -4.0342   -3.2816    0.5484 C   0  0  0  0  0  0  0  0  0  0  0  0
   -4.8842   -2.6126    0.6694 H   0  0  0  0  0  0  0  0  0  0  0  0
   -4.0433   -3.7186   -0.4486 H   0  0  0  0  0  0  0  0  0  0  0  0
   -2.7532   -2.5046    0.7444 C   0  0  0  0  0  0  0  0  0  0  0  0
   -1.9803   -2.8096    1.6434 O   0  0  0  0  0  0  0  0  0  0  0  0
   -2.5332   -1.4966   -0.0966 N   0  0  0  0  0  0  0  0  0  0  0  0
   -3.2312   -1.2816   -0.7936 H   0  0  0  0  0  0  0  0  0  0  0  0
   -1.3593   -0.6196   -0.0536 C   0  0  1  0  0  0  0  0  0  0  0  0
   -0.4622   -1.2317   -0.1545 H   0  0  0  0  0  0  0  0  0  0  0  0
   -1.4074    0.3593   -1.2373 C   0  0  0  0  0  0  0  0  0  0  0  0
   -1.4042    1.3798   -0.8500 H   0  0  0  0  0  0  0  0  0  0  0  0
   -0.5020    0.2292   -1.8326 H   0  0  0  0  0  0  0  0  0  0  0  0
   -2.5946    0.2099   -2.1396 C   0  0  0  0  0  0  0  0  0  0  0  0
   -2.7148    0.7426   -3.3762 C   0  0  0  0  0  0  0  0  0  0  0  0
   -1.9656    1.3624   -3.8567 H   0  0  0  0  0  0  0  0  0  0  0  0
   -3.9199    0.3596   -3.9316 N   0  0  0  0  0  0  0  0  0  0  0  0
   -4.2251    0.6443   -4.8509 H   0  0  0  0  0  0  0  0  0  0  0  0
   -4.6336   -0.4580   -3.0814 C   0  0  0  0  0  0  0  0  0  0  0  0
   -5.8683   -1.1131   -3.1941 C   0  0  0  0  0  0  0  0  0  0  0  0
   -6.4602   -1.0147   -4.0922 H   0  0  0  0  0  0  0  0  0  0  0  0
   -6.3254   -1.8977   -2.1215 C   0  0  0  0  0  0  0  0  0  0  0  0
   -7.2758   -2.4095   -2.1901 H   0  0  0  0  0  0  0  0  0  0  0  0
   -5.5475   -2.0114   -0.9548 C   0  0  0  0  0  0  0  0  0  0  0  0
   -5.9068   -2.6094   -0.1287 H   0  0  0  0  0  0  0  0  0  0  0  0
   -4.3089   -1.3469   -0.8517 C   0  0  0  0  0  0  0  0  0  0  0  0
   -3.7275   -1.4319    0.0554 H   0  0  0  0  0  0  0  0  0  0  0  0
   -3.8191   -0.5563   -1.9137 C   0  0  0  0  0  0  0  0  0  0  0  0
   -1.2663    0.1182    1.2910 C   0  0  0  0  0  0  0  0  0  0  0  0
   -0.1906    0.1931    1.8833 O   0  0  0  0  0  0  0  0  0  0  0  0
   -2.3930    0.6605    1.7722 N   0  0  0  0  0  0  0  0  0  0  0  0
   -3.2451    0.5077    1.2518 H   0  0  0  0  0  0  0  0  0  0  0  0
   -2.4787    1.3954    3.0311 C   0  0  0  0  0  0  0  0  0  0  0  0
   -1.7166    2.1767    3.0539 H   0  0  0  0  0  0  0  0  0  0  0  0
   -3.4649    1.8498    3.1344 H   0  0  0  0  0  0  0  0  0  0  0  0
   -2.3058    0.7133    3.8652 H   0  0  0  0  0  0  0  0  0  0  0  0
  5  6  2  0  0  0  0
  5  7  1  0  0  0  0
  2  3  1  0  0  0  0
  2  4  1  0  0  0  0
  2  5  1  0  0  0  0
  1  2  1  0  0  0  0
 29 30  2  0  0  0  0
 29 31  1  0  0  0  0
 26 27  1  0  0  0  0
 26 28  2  0  0  0  0
 24 25  1  0  0  0  0
 24 26  1  0  0  0  0
 22 23  1  0  0  0  0
 22 24  2  0  0  0  0
 20 21  1  0  0  0  0
 20 22  1  0  0  0  0
 19 20  2  0  0  0  0
 19 28  1  0  0  0  0
 17 18  1  0  0  0  0
 17 19  1  0  0  0  0
 15 16  1  0  0  0  0
 15 17  1  0  0  0  0
 14 15  2  0  0  0  0
 14 28  1  0  0  0  0
 11 12  1  0  0  0  0
 11 13  1  0  0  0  0
 11 14  1  0  0  0  0
  9 10  1  0  0  0  0
  9 11  1  0  0  0  0
  9 29  1  0  0  0  0
  7  8  1  0  0  0  0
  7  9  1  0  0  0  0
 33 34  1  0  0  0  0
 33 35  1  0  0  0  0
 33 36  1  0  0  0  0
 31 32  1  0  0  0  0
 31 33  1  0  0  0  0
M  END
$$$$
default_name
  -OEChem-02102213163D

 36 37  0     1  0  0  0  0  0999 V2000
   -4.0843   -4.0736    1.2944 H   0  0  0  0  0  0  0  0  0  0  0  0
   -4.0342   -3.2816    0.5484 C   0  0  0  0  0  0  0  0  0  0  0  0
   -4.8842   -2.6126    0.6694 H   0  0  0  0  0  0  0  0  0  0  0  0
   -4.0433   -3.7186   -0.4486 H   0  0  0  0  0  0  0  0  0  0  0  0
   -2.7532   -2.5046    0.7444 C   0  0  0  0  0  0  0  0  0  0  0  0
   -1.9803   -2.8096    1.6434 O   0  0  0  0  0  0  0  0  0  0  0  0
   -2.5332   -1.4966   -0.0966 N   0  0  0  0  0  0  0  0  0  0  0  0
   -3.2312   -1.2816   -0.7936 H   0  0  0  0  0  0  0  0  0  0  0  0
   -1.3593   -0.6196   -0.0536 C   0  0  1  0  0  0  0  0  0  0  0  0
   -0.4622   -1.2317   -0.1545 H   0  0  0  0  0  0  0  0  0  0  0  0
   -1.4074    0.3593   -1.2373 C   0  0  0  0  0  0  0  0  0  0  0  0
   -1.4042    1.3798   -0.8500 H   0  0  0  0  0  0  0  0  0  0  0  0
   -0.5020    0.2292   -1.8326 H   0  0  0  0  0  0  0  0  0  0  0  0
   -2.5946    0.2099   -2.1396 C   0  0  0  0  0  0  0  0  0  0  0  0
   -2.6170    0.4869   -3.4626 C   0  0  0  0  0  0  0  0  0  0  0  0
   -1.7745    0.8716   -4.0269 H   0  0  0  0  0  0  0  0  0  0  0  0
   -3.8622    0.1864   -3.9788 N   0  0  0  0  0  0  0  0  0  0  0  0
   -4.1096    0.3178   -4.9487 H   0  0  0  0  0  0  0  0  0  0  0  0
   -4.7046   -0.3183   -3.0111 C   0  0  0  0  0  0  0  0  0  0  0  0
   -6.0264   -0.7855   -3.0404 C   0  0  0  0  0  0  0  0  0  0  0  0
   -6.5866   -0.7858   -3.9638 H   0  0  0  0  0  0  0  0  0  0  0  0
   -6.6123   -1.2516   -1.8510 C   0  0  0  0  0  0  0  0  0  0  0  0
   -7.6311   -1.6148   -1.8542 H   0  0  0  0  0  0  0  0  0  0  0  0
   -5.8734   -1.2389   -0.6538 C   0  0  0  0  0  0  0  0  0  0  0  0
   -6.3309   -1.5907    0.2605 H   0  0  0  0  0  0  0  0  0  0  0  0
   -4.5462   -0.7652   -0.6358 C   0  0  0  0  0  0  0  0  0  0  0  0
   -3.9944   -0.7485    0.2933 H   0  0  0  0  0  0  0  0  0  0  0  0
   -3.9271   -0.2962   -1.8146 C   0  0  0  0  0  0  0  0  0  0  0  0
   -1.2663    0.1182    1.2910 C   0  0  0  0  0  0  0  0  0  0  0  0
   -0.1906    0.1931    1.8833 O   0  0  0  0  0  0  0  0  0  0  0  0
   -2.3930    0.6605    1.7722 N   0  0  0  0  0  0  0  0  0  0  0  0
   -3.2451    0.5077    1.2518 H   0  0  0  0  0  0  0  0  0  0  0  0
   -2.4787    1.3954    3.0311 C   0  0  0  0  0  0  0  0  0  0  0  0
   -1.7166    2.1767    3.0539 H   0  0  0  0  0  0  0  0  0  0  0  0
   -3.4649    1.8498    3.1344 H   0  0  0  0  0  0  0  0  0  0  0  0
   -2.3058    0.7133    3.8652 H   0  0  0  0  0  0  0  0  0  0  0  0
  5  6  2  0  0  0  0
  5  7  1  0  0  0  0
  2  3  1  0  0  0  0
  2  4  1  0  0  0  0
  2  5  1  0  0  0  0
  1  2  1  0  0  0  0
 29 30  2  0  0  0  0
 29 31  1  0  0  0  0
 26 27  1  0  0  0  0
 26 28  2  0  0  0  0
 24 25  1  0  0  0  0
 24 26  1  0  0  0  0
 22 23  1  0  0  0  0
 22 24  2  0  0  0  0
 20 21  1  0  0  0  0
 20 22  1  0  0  0  0
 19 20  2  0  0  0  0
 19 28  1  0  0  0  0
 17 18  1  0  0  0  0
 17 19  1  0  0  0  0
 15 16  1  0  0  0  0
 15 17  1  0  0  0  0
 14 15  2  0  0  0  0
 14 28  1  0  0  0  0
 11 12  1  0  0  0  0
 11 13  1  0  0  0  0
 11 14  1  0  0  0  0
  9 10  1  0  0  0  0
  9 11  1  0  0  0  0
  9 29  1  0  0  0  0
  7  8  1  0  0  0  0
  7  9  1  0  0  0  0
 33 34  1  0  0  0  0
 33 35  1  0  0  0  0
 33 36  1  0  0  0  0
 31 32  1  0  0  0  0
 31 33  1  0  0  0  0
M  END
$$$$
default_name
  -OEChem-02102213163D

 36 37  0     1  0  0  0  0  0999 V2000
   -4.0843   -4.0736    1.2944 H   0  0  0  0  0  0  0  0  0  0  0  0
   -4.0342   -3.2816    0.5484 C   0  0  0  0  0  0  0  0  0  0  0  0
   -4.8842   -2.6126    0.6694 H   0  0  0  0  0  0  0  0  0  0  0  0
   -4.0433   -3.7186   -0.4486 H   0  0  0  0  0  0  0  0  0  0  0  0
   -2.7532   -2.5046    0.7444 C   0  0  0  0  0  0  0  0  0  0  0  0
   -1.9803   -2.8096    1.6434 O   0  0  0  0  0  0  0  0  0  0  0  0
   -2.5332   -1.4966   -0.0966 N   0  0  0  0  0  0  0  0  0  0  0  0
   -3.2312   -1.2816   -0.7936 H   0  0  0  0  0  0  0  0  0  0  0  0
   -1.3593   -0.6196   -0.0536 C   0  0  1  0  0  0  0  0  0  0  0  0
   -0.4622   -1.2317   -0.1545 H   0  0  0  0  0  0  0  0  0  0  0  0
   -1.4074    0.3593   -1.2373 C   0  0  0  0  0  0  0  0  0  0  0  0
   -1.4042    1.3798   -0.8500 H   0  0  0  0  0  0  0  0  0  0  0  0
   -0.5020    0.2292   -1.8326 H   0  0  0  0  0  0  0  0  0  0  0  0
   -2.5946    0.2099   -2.1396 C   0  0  0  0  0  0  0  0  0  0  0  0
   -2.5601    0.2070   -3.4910 C   0  0  0  0  0  0  0  0  0  0  0  0
   -1.6620    0.3328   -4.0857 H   0  0  0  0  0  0  0  0  0  0  0  0
   -3.8323    0.0004   -3.9875 N   0  0  0  0  0  0  0  0  0  0  0  0
   -4.0464   -0.0356   -4.9734 H   0  0  0  0  0  0  0  0  0  0  0  0
   -4.7532   -0.1578   -2.9737 C   0  0  0  0  0  0  0  0  0  0  0  0
   -6.1320   -0.4130   -2.9631 C   0  0  0  0  0  0  0  0  0  0  0  0
   -6.6763   -0.5188   -3.8900 H   0  0  0  0  0  0  0  0  0  0  0  0
   -6.7957   -0.5274   -1.7296 C   0  0  0  0  0  0  0  0  0  0  0  0
   -7.8592   -0.7229   -1.7019 H   0  0  0  0  0  0  0  0  0  0  0  0
   -6.0757   -0.3803   -0.5299 C   0  0  0  0  0  0  0  0  0  0  0  0
   -6.5919   -0.4608    0.4167 H   0  0  0  0  0  0  0  0  0  0  0  0
   -4.6904   -0.1220   -0.5526 C   0  0  0  0  0  0  0  0  0  0  0  0
   -4.1518    0.0020    0.3761 H   0  0  0  0  0  0  0  0  0  0  0  0
   -3.9935   -0.0078   -1.7750 C   0  0  0  0  0  0  0  0  0  0  0  0
   -1.2663    0.1182    1.2910 C   0  0  0  0  0  0  0  0  0  0  0  0
   -0.1906    0.1931    1.8833 O   0  0  0  0  0  0  0  0  0  0  0  0
   -2.3930    0.6605    1.7722 N   0  0  0  0  0  0  0  0  0  0  0  0
   -3.2451    0.5077    1.2518 H   0  0  0  0  0  0  0  0  0  0  0  0
   -2.4787    1.3954    3.0311 C   0  0  0  0  0  0  0  0  0  0  0  0
   -1.7166    2.1767    3.0539 H   0  0  0  0  0  0  0  0  0  0  0  0
   -3.4649    1.8498    3.1344 H   0  0  0  0  0  0  0  0  0  0  0  0
   -2.3058    0.7133    3.8652 H   0  0  0  0  0  0  0  0  0  0  0  0
  5  6  2  0  0  0  0
  5  7  1  0  0  0  0
  2  3  1  0  0  0  0
  2  4  1  0  0  0  0
  2  5  1  0  0  0  0
  1  2  1  0  0  0  0
 29 30  2  0  0  0  0
 29 31  1  0  0  0  0
 26 27  1  0  0  0  0
 26 28  2  0  0  0  0
 24 25  1  0  0  0  0
 24 26  1  0  0  0  0
 22 23  1  0  0  0  0
 22 24  2  0  0  0  0
 20 21  1  0  0  0  0
 20 22  1  0  0  0  0
 19 20  2  0  0  0  0
 19 28  1  0  0  0  0
 17 18  1  0  0  0  0
 17 19  1  0  0  0  0
 15 16  1  0  0  0  0
 15 17  1  0  0  0  0
 14 15  2  0  0  0  0
 14 28  1  0  0  0  0
 11 12  1  0  0  0  0
 11 13  1  0  0  0  0
 11 14  1  0  0  0  0
  9 10  1  0  0  0  0
  9 11  1  0  0  0  0
  9 29  1  0  0  0  0
  7  8  1  0  0  0  0
  7  9  1  0  0  0  0
 33 34  1  0  0  0  0
 33 35  1  0  0  0  0
 33 36  1  0  0  0  0
 31 32  1  0  0  0  0
 31 33  1  0  0  0  0
M  END
$$$$
default_name
  -OEChem-02102213163D

 36 37  0     1  0  0  0  0  0999 V2000
   -4.0843   -4.0736    1.2944 H   0  0  0  0  0  0  0  0  0  0  0  0
   -4.0342   -3.2816    0.5484 C   0  0  0  0  0  0  0  0  0  0  0  0
   -4.8842   -2.6126    0.6694 H   0  0  0  0  0  0  0  0  0  0  0  0
   -4.0433   -3.7186   -0.4486 H   0  0  0  0  0  0  0  0  0  0  0  0
   -2.7532   -2.5046    0.7444 C   0  0  0  0  0  0  0  0  0  0  0  0
   -1.9803   -2.8096    1.6434 O   0  0  0  0  0  0  0  0  0  0  0  0
   -2.5332   -1.4966   -0.0966 N   0  0  0  0  0  0  0  0  0  0  0  0
   -3.2312   -1.2816   -0.7936 H   0  0  0  0  0  0  0  0  0  0  0  0
   -1.3593   -0.6196   -0.0536 C   0  0  1  0  0  0  0  0  0  0  0  0
   -0.4622   -1.2317   -0.1545 H   0  0  0  0  0  0  0  0  0  0  0  0
   -1.4074    0.3593   -1.2373 C   0  0  0  0  0  0  0  0  0  0  0  0
   -1.4042    1.3798   -0.8500 H   0  0  0  0  0  0  0  0  0  0  0  0
   -0.5020    0.2292   -1.8326 H   0  0  0  0  0  0  0  0  0  0  0  0
   -2.5946    0.2099   -2.1396 C   0  0  0  0  0  0  0  0  0  0  0  0
   -2.5481   -0.0780   -3.4596 C   0  0  0  0  0  0  0  0  0  0  0  0
   -1.6357   -0.2172   -4.0292 H   0  0  0  0  0  0  0  0  0  0  0  0
   -3.8321   -0.1857   -3.9569 N   0  0  0  0  0  0  0  0  0  0  0  0
   -4.0398   -0.3918   -4.9231 H   0  0  0  0  0  0  0  0  0  0  0  0
   -4.7761    0.0123   -2.9718 C   0  0  0  0  0  0  0  0  0  0  0  0
   -6.1780   -0.0209   -2.9676 C   0  0  0  0  0  0  0  0  0  0  0  0
   -6.7233   -0.2317   -3.8758 H   0  0  0  0  0  0  0  0  0  0  0  0
   -6.8632    0.2257   -1.7656 C   0  0  0  0  0  0  0  0  0  0  0  0
   -7.9444    0.2053   -1.7435 H   0  0  0  0  0  0  0  0  0  0  0  0
   -6.1405    0.5060   -0.5916 C   0  0  0  0  0  0  0  0  0  0  0  0
   -6.6719    0.7033    0.3292 H   0  0  0  0  0  0  0  0  0  0  0  0
   -4.7316    0.5387   -0.6079 C   0  0  0  0  0  0  0  0  0  0  0  0
   -4.1890    0.7684    0.2981 H   0  0  0  0  0  0  0  0  0  0  0  0
   -4.0138    0.2893   -1.7976 C   0  0  0  0  0  0  0  0  0  0  0  0
   -1.2663    0.1182    1.2910 C   0  0  0  0  0  0  0  0  0  0  0  0
   -0.1906    0.1931    1.8833 O   0  0  0  0  0  0  0  0  0  0  0  0
   -2.3930    0.6605    1.7722 N   0  0  0  0  0  0  0  0  0  0  0  0
   -3.2451    0.5077    1.2518 H   0  0  0  0  0  0  0  0  0  0  0  0
   -2.4787    1.3954    3.0311 C   0  0  0  0  0  0  0  0  0  0  0  0
   -1.7166    2.1767    3.0539 H   0  0  0  0  0  0  0  0  0  0  0  0
   -3.4649    1.8498    3.1344 H   0  0  0  0  0  0  0  0  0  0  0  0
   -2.3058    0.7133    3.8652 H   0  0  0  0  0  0  0  0  0  0  0  0
  5  6  2  0  0  0  0
  5  7  1  0  0  0  0
  2  3  1  0  0  0  0
  2  4  1  0  0  0  0
  2  5  1  0  0  0  0
  1  2  1  0  0  0  0
 29 30  2  0  0  0  0
 29 31  1  0  0  0  0
 26 27  1  0  0  0  0
 26 28  2  0  0  0  0
 24 25  1  0  0  0  0
 24 26  1  0  0  0  0
 22 23  1  0  0  0  0
 22 24  2  0  0  0  0
 20 21  1  0  0  0  0
 20 22  1  0  0  0  0
 19 20  2  0  0  0  0
 19 28  1  0  0  0  0
 17 18  1  0  0  0  0
 17 19  1  0  0  0  0
 15 16  1  0  0  0  0
 15 17  1  0  0  0  0
 14 15  2  0  0  0  0
 14 28  1  0  0  0  0
 11 12  1  0  0  0  0
 11 13  1  0  0  0  0
 11 14  1  0  0  0  0
  9 10  1  0  0  0  0
  9 11  1  0  0  0  0
  9 29  1  0  0  0  0
  7  8  1  0  0  0  0
  7  9  1  0  0  0  0
 33 34  1  0  0  0  0
 33 35  1  0  0  0  0
 33 36  1  0  0  0  0
 31 32  1  0  0  0  0
 31 33  1  0  0  0  0
M  END
$$$$
default_name
  -OEChem-02102213163D

 36 37  0     1  0  0  0  0  0999 V2000
   -4.0843   -4.0736    1.2944 H   0  0  0  0  0  0  0  0  0  0  0  0
   -4.0342   -3.2816    0.5484 C   0  0  0  0  0  0  0  0  0  0  0  0
   -4.8842   -2.6126    0.6694 H   0  0  0  0  0  0  0  0  0  0  0  0
   -4.0433   -3.7186   -0.4486 H   0  0  0  0  0  0  0  0  0  0  0  0
   -2.7532   -2.5046    0.7444 C   0  0  0  0  0  0  0  0  0  0  0  0
   -1.9803   -2.8096    1.6434 O   0  0  0  0  0  0  0  0  0  0  0  0
   -2.5332   -1.4966   -0.0966 N   0  0  0  0  0  0  0  0  0  0  0  0
   -3.2312   -1.2816   -0.7936 H   0  0  0  0  0  0  0  0  0  0  0  0
   -1.3593   -0.6196   -0.0536 C   0  0  1  0  0  0  0  0  0  0  0  0
   -0.4622   -1.2317   -0.1545 H   0  0  0  0  0  0  0  0  0  0  0  0
   -1.4074    0.3593   -1.2373 C   0  0  0  0  0  0  0  0  0  0  0  0
   -1.4042    1.3798   -0.8500 H   0  0  0  0  0  0  0  0  0  0  0  0
   -0.5020    0.2292   -1.8326 H   0  0  0  0  0  0  0  0  0  0  0  0
   -2.5946    0.2099   -2.1396 C   0  0  0  0  0  0  0  0  0  0  0  0
   -2.5817   -0.3488   -3.3706 C   0  0  0  0  0  0  0  0  0  0  0  0
   -1.6975   -0.7409   -3.8611 H   0  0  0  0  0  0  0  0  0  0  0  0
   -3.8617   -0.3592   -3.8891 N   0  0  0  0  0  0  0  0  0  0  0  0
   -4.0902   -0.7267   -4.8012 H   0  0  0  0  0  0  0  0  0  0  0  0
   -4.7718    0.1807   -3.0054 C   0  0  0  0  0  0  0  0  0  0  0  0
   -6.1611    0.3641   -3.0535 C   0  0  0  0  0  0  0  0  0  0  0  0
   -6.7242    0.0559   -3.9221 H   0  0  0  0  0  0  0  0  0  0  0  0
   -6.8101    0.9562   -1.9565 C   0  0  0  0  0  0  0  0  0  0  0  0
   -7.8810    1.1067   -1.9762 H   0  0  0  0  0  0  0  0  0  0  0  0
   -6.0633    1.3595   -0.8345 C   0  0  0  0  0  0  0  0  0  0  0  0
   -6.5656    1.8222    0.0038 H   0  0  0  0  0  0  0  0  0  0  0  0
   -4.6670    1.1720   -0.7978 C   0  0  0  0  0  0  0  0  0  0  0  0
   -4.1036    1.4985    0.0647 H   0  0  0  0  0  0  0  0  0  0  0  0
   -3.9864    0.5747   -1.8809 C   0  0  0  0  0  0  0  0  0  0  0  0
   -1.2663    0.1182    1.2910 C   0  0  0  0  0  0  0  0  0  0  0  0
   -0.1906    0.1931    1.8833 O   0  0  0  0  0  0  0  0  0  0  0  0
   -2.3930    0.6605    1.7722 N   0  0  0  0  0  0  0  0  0  0  0  0
   -3.2451    0.5077    1.2518 H   0  0  0  0  0  0  0  0  0  0  0  0
   -2.4787    1.3954    3.0311 C   0  0  0  0  0  0  0  0  0  0  0  0
   -1.7166    2.1767    3.0539 H   0  0  0  0  0  0  0  0  0  0  0  0
   -3.4649    1.8498    3.1344 H   0  0  0  0  0  0  0  0  0  0  0  0
   -2.3058    0.7133    3.8652 H   0  0  0  0  0  0  0  0  0  0  0  0
  5  6  2  0  0  0  0
  5  7  1  0  0  0  0
  2  3  1  0  0  0  0
  2  4  1  0  0  0  0
  2  5  1  0  0  0  0
  1  2  1  0  0  0  0
 29 30  2  0  0  0  0
 29 31  1  0  0  0  0
 26 27  1  0  0  0  0
 26 28  2  0  0  0  0
 24 25  1  0  0  0  0
 24 26  1  0  0  0  0
 22 23  1  0  0  0  0
 22 24  2  0  0  0  0
 20 21  1  0  0  0  0
 20 22  1  0  0  0  0
 19 20  2  0  0  0  0
 19 28  1  0  0  0  0
 17 18  1  0  0  0  0
 17 19  1  0  0  0  0
 15 16  1  0  0  0  0
 15 17  1  0  0  0  0
 14 15  2  0  0  0  0
 14 28  1  0  0  0  0
 11 12  1  0  0  0  0
 11 13  1  0  0  0  0
 11 14  1  0  0  0  0
  9 10  1  0  0  0  0
  9 11  1  0  0  0  0
  9 29  1  0  0  0  0
  7  8  1  0  0  0  0
  7  9  1  0  0  0  0
 33 34  1  0  0  0  0
 33 35  1  0  0  0  0
 33 36  1  0  0  0  0
 31 32  1  0  0  0  0
 31 33  1  0  0  0  0
M  END
$$$$
default_name
  -OEChem-02102213163D

 36 37  0     1  0  0  0  0  0999 V2000
   -4.0843   -4.0736    1.2944 H   0  0  0  0  0  0  0  0  0  0  0  0
   -4.0342   -3.2816    0.5484 C   0  0  0  0  0  0  0  0  0  0  0  0
   -4.8842   -2.6126    0.6694 H   0  0  0  0  0  0  0  0  0  0  0  0
   -4.0433   -3.7186   -0.4486 H   0  0  0  0  0  0  0  0  0  0  0  0
   -2.7532   -2.5046    0.7444 C   0  0  0  0  0  0  0  0  0  0  0  0
   -1.9803   -2.8096    1.6434 O   0  0  0  0  0  0  0  0  0  0  0  0
   -2.5332   -1.4966   -0.0966 N   0  0  0  0  0  0  0  0  0  0  0  0
   -3.2312   -1.2816   -0.7936 H   0  0  0  0  0  0  0  0  0  0  0  0
   -1.3593   -0.6196   -0.0536 C   0  0  1  0  0  0  0  0  0  0  0  0
   -0.4622   -1.2317   -0.1545 H   0  0  0  0  0  0  0  0  0  0  0  0
   -1.4074    0.3593   -1.2373 C   0  0  0  0  0  0  0  0  0  0  0  0
   -1.4042    1.3798   -0.8500 H   0  0  0  0  0  0  0  0  0  0  0  0
   -0.5020    0.2292   -1.8326 H   0  0  0  0  0  0  0  0  0  0  0  0
   -2.5946    0.2099   -2.1396 C   0  0  0  0  0  0  0  0  0  0  0  0
   -2.6586   -0.5869   -3.2299 C   0  0  0  0  0  0  0  0  0  0  0  0
   -1.8431   -1.2027   -3.5930 H   0  0  0  0  0  0  0  0  0  0  0  0
   -3.9191   -0.5083   -3.7889 N   0  0  0  0  0  0  0  0  0  0  0  0
   -4.1942   -1.0173   -4.6162 H   0  0  0  0  0  0  0  0  0  0  0  0
   -4.7405    0.3358   -3.0722 C   0  0  0  0  0  0  0  0  0  0  0  0
   -6.0827    0.7158   -3.2150 C   0  0  0  0  0  0  0  0  0  0  0  0
   -6.6792    0.3243   -4.0259 H   0  0  0  0  0  0  0  0  0  0  0  0
   -6.6400    1.6145   -2.2894 C   0  0  0  0  0  0  0  0  0  0  0  0
   -7.6734    1.9197   -2.3842 H   0  0  0  0  0  0  0  0  0  0  0  0
   -5.8496    2.1221   -1.2421 C   0  0  0  0  0  0  0  0  0  0  0  0
   -6.2801    2.8198   -0.5371 H   0  0  0  0  0  0  0  0  0  0  0  0
   -4.5010    1.7347   -1.1095 C   0  0  0  0  0  0  0  0  0  0  0  0
   -3.9013    2.1426   -0.3082 H   0  0  0  0  0  0  0  0  0  0  0  0
   -3.9134    0.8291   -2.0191 C   0  0  0  0  0  0  0  0  0  0  0  0
   -1.2663    0.1182    1.2910 C   0  0  0  0  0  0  0  0  0  0  0  0
   -0.1906    0.1931    1.8833 O   0  0  0  0  0  0  0  0  0  0  0  0
   -2.3930    0.6605    1.7722 N   0  0  0  0  0  0  0  0  0  0  0  0
   -3.2451    0.5077    1.2518 H   0  0  0  0  0  0  0  0  0  0  0  0
   -2.4787    1.3954    3.0311 C   0  0  0  0  0  0  0  0  0  0  0  0
   -1.7166    2.1767    3.0539 H   0  0  0  0  0  0  0  0  0  0  0  0
   -3.4649    1.8498    3.1344 H   0  0  0  0  0  0  0  0  0  0  0  0
   -2.3058    0.7133    3.8652 H   0  0  0  0  0  0  0  0  0  0  0  0
  5  6  2  0  0  0  0
  5  7  1  0  0  0  0
  2  3  1  0  0  0  0
  2  4  1  0  0  0  0
  2  5  1  0  0  0  0
  1  2  1  0  0  0  0
 29 30  2  0  0  0  0
 29 31  1  0  0  0  0
 26 27  1  0  0  0  0
 26 28  2  0  0  0  0
 24 25  1  0  0  0  0
 24 26  1  0  0  0  0
 22 23  1  0  0  0  0
 22 24  2  0  0  0  0
 20 21  1  0  0  0  0
 20 22  1  0  0  0  0
 19 20  2  0  0  0  0
 19 28  1  0  0  0  0
 17 18  1  0  0  0  0
 17 19  1  0  0  0  0
 15 16  1  0  0  0  0
 15 17  1  0  0  0  0
 14 15  2  0  0  0  0
 14 28  1  0  0  0  0
 11 12  1  0  0  0  0
 11 13  1  0  0  0  0
 11 14  1  0  0  0  0
  9 10  1  0  0  0  0
  9 11  1  0  0  0  0
  9 29  1  0  0  0  0
  7  8  1  0  0  0  0
  7  9  1  0  0  0  0
 33 34  1  0  0  0  0
 33 35  1  0  0  0  0
 33 36  1  0  0  0  0
 31 32  1  0  0  0  0
 31 33  1  0  0  0  0
M  END
$$$$
default_name
  -OEChem-02102213163D

 36 37  0     1  0  0  0  0  0999 V2000
   -4.0843   -4.0736    1.2944 H   0  0  0  0  0  0  0  0  0  0  0  0
   -4.0342   -3.2816    0.5484 C   0  0  0  0  0  0  0  0  0  0  0  0
   -4.8842   -2.6126    0.6694 H   0  0  0  0  0  0  0  0  0  0  0  0
   -4.0433   -3.7186   -0.4486 H   0  0  0  0  0  0  0  0  0  0  0  0
   -2.7532   -2.5046    0.7444 C   0  0  0  0  0  0  0  0  0  0  0  0
   -1.9803   -2.8096    1.6434 O   0  0  0  0  0  0  0  0  0  0  0  0
   -2.5332   -1.4966   -0.0966 N   0  0  0  0  0  0  0  0  0  0  0  0
   -3.2312   -1.2816   -0.7936 H   0  0  0  0  0  0  0  0  0  0  0  0
   -1.3593   -0.6196   -0.0536 C   0  0  1  0  0  0  0  0  0  0  0  0
   -0.4622   -1.2317   -0.1545 H   0  0  0  0  0  0  0  0  0  0  0  0
   -1.4074    0.3593   -1.2373 C   0  0  0  0  0  0  0  0  0  0  0  0
   -1.4042    1.3798   -0.8500 H   0  0  0  0  0  0  0  0  0  0  0  0
   -0.5020    0.2292   -1.8326 H   0  0  0  0  0  0  0  0  0  0  0  0
   -2.5946    0.2099   -2.1396 C   0  0  0  0  0  0  0  0  0  0  0  0
   -2.7737   -0.7760   -3.0472 C   0  0  0  0  0  0  0  0  0  0  0  0
   -2.0627   -1.5711   -3.2430 H   0  0  0  0  0  0  0  0  0  0  0  0
   -4.0003   -0.6228   -3.6630 N   0  0  0  0  0  0  0  0  0  0  0  0
   -4.3447   -1.2438   -4.3806 H   0  0  0  0  0  0  0  0  0  0  0  0
   -4.6844    0.4670   -3.1678 C   0  0  0  0  0  0  0  0  0  0  0  0
   -5.9479    1.0101   -3.4411 C   0  0  0  0  0  0  0  0  0  0  0  0
   -6.5912    0.5552   -4.1799 H   0  0  0  0  0  0  0  0  0  0  0  0
   -6.3646    2.1555   -2.7414 C   0  0  0  0  0  0  0  0  0  0  0  0
   -7.3355    2.5890   -2.9396 H   0  0  0  0  0  0  0  0  0  0  0  0
   -5.5137    2.7419   -1.7867 C   0  0  0  0  0  0  0  0  0  0  0  0
   -5.8350    3.6279   -1.2567 H   0  0  0  0  0  0  0  0  0  0  0  0
   -4.2450    2.1885   -1.5216 C   0  0  0  0  0  0  0  0  0  0  0  0
   -3.5958    2.6567   -0.7953 H   0  0  0  0  0  0  0  0  0  0  0  0
   -3.7997    1.0351   -2.2029 C   0  0  0  0  0  0  0  0  0  0  0  0
   -1.2663    0.1182    1.2910 C   0  0  0  0  0  0  0  0  0  0  0  0
   -0.1906    0.1931    1.8833 O   0  0  0  0  0  0  0  0  0  0  0  0
   -2.3930    0.6605    1.7722 N   0  0  0  0  0  0  0  0  0  0  0  0
   -3.2451    0.5077    1.2518 H   0  0  0  0  0  0  0  0  0  0  0  0
   -2.4787    1.3954    3.0311 C   0  0  0  0  0  0  0  0  0  0  0  0
   -1.7166    2.1767    3.0539 H   0  0  0  0  0  0  0  0  0  0  0  0
   -3.4649    1.8498    3.1344 H   0  0  0  0  0  0  0  0  0  0  0  0
   -2.3058    0.7133    3.8652 H   0  0  0  0  0  0  0  0  0  0  0  0
  5  6  2  0  0  0  0
  5  7  1  0  0  0  0
  2  3  1  0  0  0  0
  2  4  1  0  0  0  0
  2  5  1  0  0  0  0
  1  2  1  0  0  0  0
 29 30  2  0  0  0  0
 29 31  1  0  0  0  0
 26 27  1  0  0  0  0
 26 28  2  0  0  0  0
 24 25  1  0  0  0  0
 24 26  1  0  0  0  0
 22 23  1  0  0  0  0
 22 24  2  0  0  0  0
 20 21  1  0  0  0  0
 20 22  1  0  0  0  0
 19 20  2  0  0  0  0
 19 28  1  0  0  0  0
 17 18  1  0  0  0  0
 17 19  1  0  0  0  0
 15 16  1  0  0  0  0
 15 17  1  0  0  0  0
 14 15  2  0  0  0  0
 14 28  1  0  0  0  0
 11 12  1  0  0  0  0
 11 13  1  0  0  0  0
 11 14  1  0  0  0  0
  9 10  1  0  0  0  0
  9 11  1  0  0  0  0
  9 29  1  0  0  0  0
  7  8  1  0  0  0  0
  7  9  1  0  0  0  0
 33 34  1  0  0  0  0
 33 35  1  0  0  0  0
 33 36  1  0  0  0  0
 31 32  1  0  0  0  0
 31 33  1  0  0  0  0
M  END
$$$$
default_name
  -OEChem-02102213163D

 36 37  0     1  0  0  0  0  0999 V2000
   -4.0843   -4.0736    1.2944 H   0  0  0  0  0  0  0  0  0  0  0  0
   -4.0342   -3.2816    0.5484 C   0  0  0  0  0  0  0  0  0  0  0  0
   -4.8842   -2.6126    0.6694 H   0  0  0  0  0  0  0  0  0  0  0  0
   -4.0433   -3.7186   -0.4486 H   0  0  0  0  0  0  0  0  0  0  0  0
   -2.7532   -2.5046    0.7444 C   0  0  0  0  0  0  0  0  0  0  0  0
   -1.9803   -2.8096    1.6434 O   0  0  0  0  0  0  0  0  0  0  0  0
   -2.5332   -1.4966   -0.0966 N   0  0  0  0  0  0  0  0  0  0  0  0
   -3.2312   -1.2816   -0.7936 H   0  0  0  0  0  0  0  0  0  0  0  0
   -1.3593   -0.6196   -0.0536 C   0  0  1  0  0  0  0  0  0  0  0  0
   -0.4622   -1.2317   -0.1545 H   0  0  0  0  0  0  0  0  0  0  0  0
   -1.4074    0.3593   -1.2373 C   0  0  0  0  0  0  0  0  0  0  0  0
   -1.4042    1.3798   -0.8500 H   0  0  0  0  0  0  0  0  0  0  0  0
   -0.5020    0.2292   -1.8326 H   0  0  0  0  0  0  0  0  0  0  0  0
   -2.5946    0.2099   -2.1396 C   0  0  0  0  0  0  0  0  0  0  0  0
   -2.9190   -0.9033   -2.8348 C   0  0  0  0  0  0  0  0  0  0  0  0
   -2.3412   -1.8210   -2.8352 H   0  0  0  0  0  0  0  0  0  0  0  0
   -4.0999   -0.6950   -3.5200 N   0  0  0  0  0  0  0  0  0  0  0  0
   -4.5315   -1.3909   -4.1105 H   0  0  0  0  0  0  0  0  0  0  0  0
   -4.6073    0.5653   -3.2856 C   0  0  0  0  0  0  0  0  0  0  0  0
   -5.7661    1.2271   -3.7163 C   0  0  0  0  0  0  0  0  0  0  0  0
   -6.4662    0.7330   -4.3739 H   0  0  0  0  0  0  0  0  0  0  0  0
   -6.0026    2.5425   -3.2819 C   0  0  0  0  0  0  0  0  0  0  0  0
   -6.8906    3.0691   -3.6047 H   0  0  0  0  0  0  0  0  0  0  0  0
   -5.0787    3.1765   -2.4312 C   0  0  0  0  0  0  0  0  0  0  0  0
   -5.2605    4.1916   -2.1061 H   0  0  0  0  0  0  0  0  0  0  0  0
   -3.9163    2.5025   -2.0061 C   0  0  0  0  0  0  0  0  0  0  0  0
   -3.2081    3.0058   -1.3633 H   0  0  0  0  0  0  0  0  0  0  0  0
   -3.6530    1.1786   -2.4197 C   0  0  0  0  0  0  0  0  0  0  0  0
   -1.2663    0.1182    1.2910 C   0  0  0  0  0  0  0  0  0  0  0  0
   -0.1906    0.1931    1.8833 O   0  0  0  0  0  0  0  0  0  0  0  0
   -2.3930    0.6605    1.7722 N   0  0  0  0  0  0  0  0  0  0  0  0
   -3.2451    0.5077    1.2518 H   0  0  0  0  0  0  0  0  0  0  0  0
   -2.4787    1.3954    3.0311 C   0  0  0  0  0  0  0  0  0  0  0  0
   -1.7166    2.1767    3.0539 H   0  0  0  0  0  0  0  0  0  0  0  0
   -3.4649    1.8498    3.1344 H   0  0  0  0  0  0  0  0  0  0  0  0
   -2.3058    0.7133    3.8652 H   0  0  0  0  0  0  0  0  0  0  0  0
  5  6  2  0  0  0  0
  5  7  1  0  0  0  0
  2  3  1  0  0  0  0
  2  4  1  0  0  0  0
  2  5  1  0  0  0  0
  1  2  1  0  0  0  0
 29 30  2  0  0  0  0
 29 31  1  0  0  0  0
 26 27  1  0  0  0  0
 26 28  2  0  0  0  0
 24 25  1  0  0  0  0
 24 26  1  0  0  0  0
 22 23  1  0  0  0  0
 22 24  2  0  0  0  0
 20 21  1  0  0  0  0
 20 22  1  0  0  0  0
 19 20  2  0  0  0  0
 19 28  1  0  0  0  0
 17 18  1  0  0  0  0
 17 19  1  0  0  0  0
 15 16  1  0  0  0  0
 15 17  1  0  0  0  0
 14 15  2  0  0  0  0
 14 28  1  0  0  0  0
 11 12  1  0  0  0  0
 11 13  1  0  0  0  0
 11 14  1  0  0  0  0
  9 10  1  0  0  0  0
  9 11  1  0  0  0  0
  9 29  1  0  0  0  0
  7  8  1  0  0  0  0
  7  9  1  0  0  0  0
 33 34  1  0  0  0  0
 33 35  1  0  0  0  0
 33 36  1  0  0  0  0
 31 32  1  0  0  0  0
 31 33  1  0  0  0  0
M  END
$$$$
default_name
  -OEChem-02102213163D

 36 37  0     1  0  0  0  0  0999 V2000
   -4.0843   -4.0736    1.2944 H   0  0  0  0  0  0  0  0  0  0  0  0
   -4.0342   -3.2816    0.5484 C   0  0  0  0  0  0  0  0  0  0  0  0
   -4.8842   -2.6126    0.6694 H   0  0  0  0  0  0  0  0  0  0  0  0
   -4.0433   -3.7186   -0.4486 H   0  0  0  0  0  0  0  0  0  0  0  0
   -2.7532   -2.5046    0.7444 C   0  0  0  0  0  0  0  0  0  0  0  0
   -1.9803   -2.8096    1.6434 O   0  0  0  0  0  0  0  0  0  0  0  0
   -2.5332   -1.4966   -0.0966 N   0  0  0  0  0  0  0  0  0  0  0  0
   -3.2312   -1.2816   -0.7936 H   0  0  0  0  0  0  0  0  0  0  0  0
   -1.3593   -0.6196   -0.0536 C   0  0  1  0  0  0  0  0  0  0  0  0
   -0.4622   -1.2317   -0.1545 H   0  0  0  0  0  0  0  0  0  0  0  0
   -1.4074    0.3593   -1.2373 C   0  0  0  0  0  0  0  0  0  0  0  0
   -1.4042    1.3798   -0.8500 H   0  0  0  0  0  0  0  0  0  0  0  0
   -0.5020    0.2292   -1.8326 H   0  0  0  0  0  0  0  0  0  0  0  0
   -2.5946    0.2099   -2.1396 C   0  0  0  0  0  0  0  0  0  0  0  0
   -3.0846   -0.9600   -2.6074 C   0  0  0  0  0  0  0  0  0  0  0  0
   -2.6596   -1.9354   -2.3971 H   0  0  0  0  0  0  0  0  0  0  0  0
   -4.2110   -0.7198   -3.3697 N   0  0  0  0  0  0  0  0  0  0  0  0
   -4.7418   -1.4484   -3.8242 H   0  0  0  0  0  0  0  0  0  0  0  0
   -4.5144    0.6242   -3.4175 C   0  0  0  0  0  0  0  0  0  0  0  0
   -5.5495    1.3519   -4.0220 C   0  0  0  0  0  0  0  0  0  0  0  0
   -6.3128    0.8455   -4.5944 H   0  0  0  0  0  0  0  0  0  0  0  0
   -5.5787    2.7491   -3.8740 C   0  0  0  0  0  0  0  0  0  0  0  0
   -6.3689    3.3270   -4.3340 H   0  0  0  0  0  0  0  0  0  0  0  0
   -4.5742    3.3964   -3.1315 C   0  0  0  0  0  0  0  0  0  0  0  0
   -4.5958    4.4724   -3.0272 H   0  0  0  0  0  0  0  0  0  0  0  0
   -3.5374    2.6551   -2.5300 C   0  0  0  0  0  0  0  0  0  0  0  0
   -2.7646    3.1662   -1.9736 H   0  0  0  0  0  0  0  0  0  0  0  0
   -3.4833    1.2500   -2.6548 C   0  0  0  0  0  0  0  0  0  0  0  0
   -1.2663    0.1182    1.2910 C   0  0  0  0  0  0  0  0  0  0  0  0
   -0.1906    0.1931    1.8833 O   0  0  0  0  0  0  0  0  0  0  0  0
   -2.3930    0.6605    1.7722 N   0  0  0  0  0  0  0  0  0  0  0  0
   -3.2451    0.5077    1.2518 H   0  0  0  0  0  0  0  0  0  0  0  0
   -2.4787    1.3954    3.0311 C   0  0  0  0  0  0  0  0  0  0  0  0
   -1.7166    2.1767    3.0539 H   0  0  0  0  0  0  0  0  0  0  0  0
   -3.4649    1.8498    3.1344 H   0  0  0  0  0  0  0  0  0  0  0  0
   -2.3058    0.7133    3.8652 H   0  0  0  0  0  0  0  0  0  0  0  0
  5  6  2  0  0  0  0
  5  7  1  0  0  0  0
  2  3  1  0  0  0  0
  2  4  1  0  0  0  0
  2  5  1  0  0  0  0
  1  2  1  0  0  0  0
 29 30  2  0  0  0  0
 29 31  1  0  0  0  0
 26 27  1  0  0  0  0
 26 28  2  0  0  0  0
 24 25  1  0  0  0  0
 24 26  1  0  0  0  0
 22 23  1  0  0  0  0
 22 24  2  0  0  0  0
 20 21  1  0  0  0  0
 20 22  1  0  0  0  0
 19 20  2  0  0  0  0
 19 28  1  0  0  0  0
 17 18  1  0  0  0  0
 17 19  1  0  0  0  0
 15 16  1  0  0  0  0
 15 17  1  0  0  0  0
 14 15  2  0  0  0  0
 14 28  1  0  0  0  0
 11 12  1  0  0  0  0
 11 13  1  0  0  0  0
 11 14  1  0  0  0  0
  9 10  1  0  0  0  0
  9 11  1  0  0  0  0
  9 29  1  0  0  0  0
  7  8  1  0  0  0  0
  7  9  1  0  0  0  0
 33 34  1  0  0  0  0
 33 35  1  0  0  0  0
 33 36  1  0  0  0  0
 31 32  1  0  0  0  0
 31 33  1  0  0  0  0
M  END
$$$$
default_name
  -OEChem-02102213163D

 36 37  0     1  0  0  0  0  0999 V2000
   -4.0843   -4.0736    1.2944 H   0  0  0  0  0  0  0  0  0  0  0  0
   -4.0342   -3.2816    0.5484 C   0  0  0  0  0  0  0  0  0  0  0  0
   -4.8842   -2.6126    0.6694 H   0  0  0  0  0  0  0  0  0  0  0  0
   -4.0433   -3.7186   -0.4486 H   0  0  0  0  0  0  0  0  0  0  0  0
   -2.7532   -2.5046    0.7444 C   0  0  0  0  0  0  0  0  0  0  0  0
   -1.9803   -2.8096    1.6434 O   0  0  0  0  0  0  0  0  0  0  0  0
   -2.5332   -1.4966   -0.0966 N   0  0  0  0  0  0  0  0  0  0  0  0
   -3.2312   -1.2816   -0.7936 H   0  0  0  0  0  0  0  0  0  0  0  0
   -1.3593   -0.6196   -0.0536 C   0  0  1  0  0  0  0  0  0  0  0  0
   -0.4622   -1.2317   -0.1545 H   0  0  0  0  0  0  0  0  0  0  0  0
   -1.4074    0.3593   -1.2373 C   0  0  0  0  0  0  0  0  0  0  0  0
   -1.4042    1.3798   -0.8500 H   0  0  0  0  0  0  0  0  0  0  0  0
   -0.5020    0.2292   -1.8326 H   0  0  0  0  0  0  0  0  0  0  0  0
   -2.5946    0.2099   -2.1396 C   0  0  0  0  0  0  0  0  0  0  0  0
   -3.2594   -0.9424   -2.3804 C   0  0  0  0  0  0  0  0  0  0  0  0
   -2.9964   -1.9064   -1.9588 H   0  0  0  0  0  0  0  0  0  0  0  0
   -4.3261   -0.6957   -3.2223 N   0  0  0  0  0  0  0  0  0  0  0  0
   -4.9613   -1.4126   -3.5413 H   0  0  0  0  0  0  0  0  0  0  0  0
   -4.4121    0.6395   -3.5546 C   0  0  0  0  0  0  0  0  0  0  0  0
   -5.3130    1.3760   -4.3372 C   0  0  0  0  0  0  0  0  0  0  0  0
   -6.1414    0.8851   -4.8265 H   0  0  0  0  0  0  0  0  0  0  0  0
   -5.1218    2.7612   -4.4773 C   0  0  0  0  0  0  0  0  0  0  0  0
   -5.8059    3.3454   -5.0778 H   0  0  0  0  0  0  0  0  0  0  0  0
   -4.0344    3.3866   -3.8401 C   0  0  0  0  0  0  0  0  0  0  0  0
   -3.8863    4.4512   -3.9574 H   0  0  0  0  0  0  0  0  0  0  0  0
   -3.1341    2.6362   -3.0576 C   0  0  0  0  0  0  0  0  0  0  0  0
   -2.2954    3.1269   -2.5845 H   0  0  0  0  0  0  0  0  0  0  0  0
   -3.3022    1.2443   -2.8922 C   0  0  0  0  0  0  0  0  0  0  0  0
   -1.2663    0.1182    1.2910 C   0  0  0  0  0  0  0  0  0  0  0  0
   -0.1906    0.1931    1.8833 O   0  0  0  0  0  0  0  0  0  0  0  0
   -2.3930    0.6605    1.7722 N   0  0  0  0  0  0  0  0  0  0  0  0
   -3.2451    0.5077    1.2518 H   0  0  0  0  0  0  0  0  0  0  0  0
   -2.4787    1.3954    3.0311 C   0  0  0  0  0  0  0  0  0  0  0  0
   -1.7166    2.1767    3.0539 H   0  0  0  0  0  0  0  0  0  0  0  0
   -3.4649    1.8498    3.1344 H   0  0  0  0  0  0  0  0  0  0  0  0
   -2.3058    0.7133    3.8652 H   0  0  0  0  0  0  0  0  0  0  0  0
  5  6  2  0  0  0  0
  5  7  1  0  0  0  0
  2  3  1  0  0  0  0
  2  4  1  0  0  0  0
  2  5  1  0  0  0  0
  1  2  1  0  0  0  0
 29 30  2  0  0  0  0
 29 31  1  0  0  0  0
 26 27  1  0  0  0  0
 26 28  2  0  0  0  0
 24 25  1  0  0  0  0
 24 26  1  0  0  0  0
 22 23  1  0  0  0  0
 22 24  2  0  0  0  0
 20 21  1  0  0  0  0
 20 22  1  0  0  0  0
 19 20  2  0  0  0  0
 19 28  1  0  0  0  0
 17 18  1  0  0  0  0
 17 19  1  0  0  0  0
 15 16  1  0  0  0  0
 15 17  1  0  0  0  0
 14 15  2  0  0  0  0
 14 28  1  0  0  0  0
 11 12  1  0  0  0  0
 11 13  1  0  0  0  0
 11 14  1  0  0  0  0
  9 10  1  0  0  0  0
  9 11  1  0  0  0  0
  9 29  1  0  0  0  0
  7  8  1  0  0  0  0
  7  9  1  0  0  0  0
 33 34  1  0  0  0  0
 33 35  1  0  0  0  0
 33 36  1  0  0  0  0
 31 32  1  0  0  0  0
 31 33  1  0  0  0  0
M  END
$$$$
default_name
  -OEChem-02102213163D

 36 37  0     1  0  0  0  0  0999 V2000
   -4.0843   -4.0736    1.2944 H   0  0  0  0  0  0  0  0  0  0  0  0
   -4.0342   -3.2816    0.5484 C   0  0  0  0  0  0  0  0  0  0  0  0
   -4.8842   -2.6126    0.6694 H   0  0  0  0  0  0  0  0  0  0  0  0
   -4.0433   -3.7186   -0.4486 H   0  0  0  0  0  0  0  0  0  0  0  0
   -2.7532   -2.5046    0.7444 C   0  0  0  0  0  0  0  0  0  0  0  0
   -1.9803   -2.8096    1.6434 O   0  0  0  0  0  0  0  0  0  0  0  0
   -2.5332   -1.4966   -0.0966 N   0  0  0  0  0  0  0  0  0  0  0  0
   -3.2312   -1.2816   -0.7936 H   0  0  0  0  0  0  0  0  0  0  0  0
   -1.3593   -0.6196   -0.0536 C   0  0  1  0  0  0  0  0  0  0  0  0
   -0.4622   -1.2317   -0.1545 H   0  0  0  0  0  0  0  0  0  0  0  0
   -1.4074    0.3593   -1.2373 C   0  0  0  0  0  0  0  0  0  0  0  0
   -1.4042    1.3798   -0.8500 H   0  0  0  0  0  0  0  0  0  0  0  0
   -0.5020    0.2292   -1.8326 H   0  0  0  0  0  0  0  0  0  0  0  0
   -2.5946    0.2099   -2.1396 C   0  0  0  0  0  0  0  0  0  0  0  0
   -3.4313   -0.8516   -2.1692 C   0  0  0  0  0  0  0  0  0  0  0  0
   -3.3285   -1.7360   -1.5500 H   0  0  0  0  0  0  0  0  0  0  0  0
   -4.4373   -0.6242   -3.0878 N   0  0  0  0  0  0  0  0  0  0  0  0
   -5.1750   -1.2857   -3.2811 H   0  0  0  0  0  0  0  0  0  0  0  0
   -4.3074    0.6103   -3.6876 C   0  0  0  0  0  0  0  0  0  0  0  0
   -5.0726    1.2978   -4.6405 C   0  0  0  0  0  0  0  0  0  0  0  0
   -5.9636    0.8490   -5.0544 H   0  0  0  0  0  0  0  0  0  0  0  0
   -4.6629    2.5780   -5.0507 C   0  0  0  0  0  0  0  0  0  0  0  0
   -5.2400    3.1228   -5.7856 H   0  0  0  0  0  0  0  0  0  0  0  0
   -3.4963    3.1478   -4.5086 C   0  0  0  0  0  0  0  0  0  0  0  0
   -3.1802    4.1295   -4.8332 H   0  0  0  0  0  0  0  0  0  0  0  0
   -2.7339    2.4468   -3.5528 C   0  0  0  0  0  0  0  0  0  0  0  0
   -1.8326    2.8905   -3.1543 H   0  0  0  0  0  0  0  0  0  0  0  0
   -3.1221    1.1619   -3.1156 C   0  0  0  0  0  0  0  0  0  0  0  0
   -1.2663    0.1182    1.2910 C   0  0  0  0  0  0  0  0  0  0  0  0
   -0.1906    0.1931    1.8833 O   0  0  0  0  0  0  0  0  0  0  0  0
   -2.3930    0.6605    1.7722 N   0  0  0  0  0  0  0  0  0  0  0  0
   -3.2451    0.5077    1.2518 H   0  0  0  0  0  0  0  0  0  0  0  0
   -2.4787    1.3954    3.0311 C   0  0  0  0  0  0  0  0  0  0  0  0
   -1.7166    2.1767    3.0539 H   0  0  0  0  0  0  0  0  0  0  0  0
   -3.4649    1.8498    3.1344 H   0  0  0  0  0  0  0  0  0  0  0  0
   -2.3058    0.7133    3.8652 H   0  0  0  0  0  0  0  0  0  0  0  0
  5  6  2  0  0  0  0
  5  7  1  0  0  0  0
  2  3  1  0  0  0  0
  2  4  1  0  0  0  0
  2  5  1  0  0  0  0
  1  2  1  0  0  0  0
 29 30  2  0  0  0  0
 29 31  1  0  0  0  0
 26 27  1  0  0  0  0
 26 28  2  0  0  0  0
 24 25  1  0  0  0  0
 24 26  1  0  0  0  0
 22 23  1  0  0  0  0
 22 24  2  0  0  0  0
 20 21  1  0  0  0  0
 20 22  1  0  0  0  0
 19 20  2  0  0  0  0
 19 28  1  0  0  0  0
 17 18  1  0  0  0  0
 17 19  1  0  0  0  0
 15 16  1  0  0  0  0
 15 17  1  0  0  0  0
 14 15  2  0  0  0  0
 14 28  1  0  0  0  0
 11 12  1  0  0  0  0
 11 13  1  0  0  0  0
 11 14  1  0  0  0  0
  9 10  1  0  0  0  0
  9 11  1  0  0  0  0
  9 29  1  0  0  0  0
  7  8  1  0  0  0  0
  7  9  1  0  0  0  0
 33 34  1  0  0  0  0
 33 35  1  0  0  0  0
 33 36  1  0  0  0  0
 31 32  1  0  0  0  0
 31 33  1  0  0  0  0
M  END
$$$$
default_name
  -OEChem-02102213163D

 36 37  0     1  0  0  0  0  0999 V2000
   -4.0843   -4.0736    1.2944 H   0  0  0  0  0  0  0  0  0  0  0  0
   -4.0342   -3.2816    0.5484 C   0  0  0  0  0  0  0  0  0  0  0  0
   -4.8842   -2.6126    0.6694 H   0  0  0  0  0  0  0  0  0  0  0  0
   -4.0433   -3.7186   -0.4486 H   0  0  0  0  0  0  0  0  0  0  0  0
   -2.7532   -2.5046    0.7444 C   0  0  0  0  0  0  0  0  0  0  0  0
   -1.9803   -2.8096    1.6434 O   0  0  0  0  0  0  0  0  0  0  0  0
   -2.5332   -1.4966   -0.0966 N   0  0  0  0  0  0  0  0  0  0  0  0
   -3.2312   -1.2816   -0.7936 H   0  0  0  0  0  0  0  0  0  0  0  0
   -1.3593   -0.6196   -0.0536 C   0  0  1  0  0  0  0  0  0  0  0  0
   -0.4622   -1.2317   -0.1545 H   0  0  0  0  0  0  0  0  0  0  0  0
   -1.4074    0.3593   -1.2373 C   0  0  0  0  0  0  0  0  0  0  0  0
   -1.4042    1.3798   -0.8500 H   0  0  0  0  0  0  0  0  0  0  0  0
   -0.5020    0.2292   -1.8326 H   0  0  0  0  0  0  0  0  0  0  0  0
   -2.5946    0.2099   -2.1396 C   0  0  0  0  0  0  0  0  0  0  0  0
   -3.5887   -0.6939   -1.9883 C   0  0  0  0  0  0  0  0  0  0  0  0
   -3.6332   -1.4360   -1.1987 H   0  0  0  0  0  0  0  0  0  0  0  0
   -4.5371   -0.5103   -2.9754 N   0  0  0  0  0  0  0  0  0  0  0  0
   -5.3685   -1.0765   -3.0612 H   0  0  0  0  0  0  0  0  0  0  0  0
   -4.2074    0.5385   -3.8073 C   0  0  0  0  0  0  0  0  0  0  0  0
   -4.8448    1.1226   -4.9113 C   0  0  0  0  0  0  0  0  0  0  0  0
   -5.7917    0.7397   -5.2626 H   0  0  0  0  0  0  0  0  0  0  0  0
   -4.2334    2.2120   -5.5552 C   0  0  0  0  0  0  0  0  0  0  0  0
   -4.7098    2.6746   -6.4090 H   0  0  0  0  0  0  0  0  0  0  0  0
   -2.9966    2.6961   -5.0915 C   0  0  0  0  0  0  0  0  0  0  0  0
   -2.5257    3.5291   -5.5950 H   0  0  0  0  0  0  0  0  0  0  0  0
   -2.3640    2.1000   -3.9821 C   0  0  0  0  0  0  0  0  0  0  0  0
   -1.4076    2.4732   -3.6444 H   0  0  0  0  0  0  0  0  0  0  0  0
   -2.9551    1.0084   -3.3098 C   0  0  0  0  0  0  0  0  0  0  0  0
   -1.2663    0.1182    1.2910 C   0  0  0  0  0  0  0  0  0  0  0  0
   -0.1906    0.1931    1.8833 O   0  0  0  0  0  0  0  0  0  0  0  0
   -2.3930    0.6605    1.7722 N   0  0  0  0  0  0  0  0  0  0  0  0
   -3.2451    0.5077    1.2518 H   0  0  0  0  0  0  0  0  0  0  0  0
   -2.4787    1.3954    3.0311 C   0  0  0  0  0  0  0  0  0  0  0  0
   -1.7166    2.1767    3.0539 H   0  0  0  0  0  0  0  0  0  0  0  0
   -3.4649    1.8498    3.1344 H   0  0  0  0  0  0  0  0  0  0  0  0
   -2.3058    0.7133    3.8652 H   0  0  0  0  0  0  0  0  0  0  0  0
  5  6  2  0  0  0  0
  5  7  1  0  0  0  0
  2  3  1  0  0  0  0
  2  4  1  0  0  0  0
  2  5  1  0  0  0  0
  1  2  1  0  0  0  0
 29 30  2  0  0  0  0
 29 31  1  0  0  0  0
 26 27  1  0  0  0  0
 26 28  2  0  0  0  0
 24 25  1  0  0  0  0
 24 26  1  0  0  0  0
 22 23  1  0  0  0  0
 22 24  2  0  0  0  0
 20 21  1  0  0  0  0
 20 22  1  0  0  0  0
 19 20  2  0  0  0  0
 19 28  1  0  0  0  0
 17 18  1  0  0  0  0
 17 19  1  0  0  0  0
 15 16  1  0  0  0  0
 15 17  1  0  0  0  0
 14 15  2  0  0  0  0
 14 28  1  0  0  0  0
 11 12  1  0  0  0  0
 11 13  1  0  0  0  0
 11 14  1  0  0  0  0
  9 10  1  0  0  0  0
  9 11  1  0  0  0  0
  9 29  1  0  0  0  0
  7  8  1  0  0  0  0
  7  9  1  0  0  0  0
 33 34  1  0  0  0  0
 33 35  1  0  0  0  0
 33 36  1  0  0  0  0
 31 32  1  0  0  0  0
 31 33  1  0  0  0  0
M  END
$$$$
default_name
  -OEChem-02102213163D

 36 37  0     1  0  0  0  0  0999 V2000
   -4.0843   -4.0736    1.2944 H   0  0  0  0  0  0  0  0  0  0  0  0
   -4.0342   -3.2816    0.5484 C   0  0  0  0  0  0  0  0  0  0  0  0
   -4.8842   -2.6126    0.6694 H   0  0  0  0  0  0  0  0  0  0  0  0
   -4.0433   -3.7186   -0.4486 H   0  0  0  0  0  0  0  0  0  0  0  0
   -2.7532   -2.5046    0.7444 C   0  0  0  0  0  0  0  0  0  0  0  0
   -1.9803   -2.8096    1.6434 O   0  0  0  0  0  0  0  0  0  0  0  0
   -2.5332   -1.4966   -0.0966 N   0  0  0  0  0  0  0  0  0  0  0  0
   -3.2312   -1.2816   -0.7936 H   0  0  0  0  0  0  0  0  0  0  0  0
   -1.3593   -0.6196   -0.0536 C   0  0  1  0  0  0  0  0  0  0  0  0
   -0.4622   -1.2317   -0.1545 H   0  0  0  0  0  0  0  0  0  0  0  0
   -1.4074    0.3593   -1.2373 C   0  0  0  0  0  0  0  0  0  0  0  0
   -1.4042    1.3798   -0.8500 H   0  0  0  0  0  0  0  0  0  0  0  0
   -0.5020    0.2292   -1.8326 H   0  0  0  0  0  0  0  0  0  0  0  0
   -2.5946    0.2099   -2.1396 C   0  0  0  0  0  0  0  0  0  0  0  0
   -3.7207   -0.4798   -1.8500 C   0  0  0  0  0  0  0  0  0  0  0  0
   -3.8899   -1.0266   -0.9288 H   0  0  0  0  0  0  0  0  0  0  0  0
   -4.6186   -0.3616   -2.8927 N   0  0  0  0  0  0  0  0  0  0  0  0
   -5.5283   -0.7993   -2.8968 H   0  0  0  0  0  0  0  0  0  0  0  0
   -4.1189    0.4290   -3.9056 C   0  0  0  0  0  0  0  0  0  0  0  0
   -4.6451    0.8624   -5.1310 C   0  0  0  0  0  0  0  0  0  0  0  0
   -5.6373    0.5646   -5.4367 H   0  0  0  0  0  0  0  0  0  0  0  0
   -3.8626    1.6880   -5.9564 C   0  0  0  0  0  0  0  0  0  0  0  0
   -4.2515    2.0312   -6.9055 H   0  0  0  0  0  0  0  0  0  0  0  0
   -2.5691    2.0625   -5.5490 C   0  0  0  0  0  0  0  0  0  0  0  0
   -1.9674    2.6910   -6.1908 H   0  0  0  0  0  0  0  0  0  0  0  0
   -2.0497    1.6194   -4.3160 C   0  0  0  0  0  0  0  0  0  0  0  0
   -1.0495    1.9035   -4.0212 H   0  0  0  0  0  0  0  0  0  0  0  0
   -2.8128    0.7943   -3.4616 C   0  0  0  0  0  0  0  0  0  0  0  0
   -1.2663    0.1182    1.2910 C   0  0  0  0  0  0  0  0  0  0  0  0
   -0.1906    0.1931    1.8833 O   0  0  0  0  0  0  0  0  0  0  0  0
   -2.3930    0.6605    1.7722 N   0  0  0  0  0  0  0  0  0  0  0  0
   -3.2451    0.5077    1.2518 H   0  0  0  0  0  0  0  0  0  0  0  0
   -2.4787    1.3954    3.0311 C   0  0  0  0  0  0  0  0  0  0  0  0
   -1.7166    2.1767    3.0539 H   0  0  0  0  0  0  0  0  0  0  0  0
   -3.4649    1.8498    3.1344 H   0  0  0  0  0  0  0  0  0  0  0  0
   -2.3058    0.7133    3.8652 H   0  0  0  0  0  0  0  0  0  0  0  0
  5  6  2  0  0  0  0
  5  7  1  0  0  0  0
  2  3  1  0  0  0  0
  2  4  1  0  0  0  0
  2  5  1  0  0  0  0
  1  2  1  0  0  0  0
 29 30  2  0  0  0  0
 29 31  1  0  0  0  0
 26 27  1  0  0  0  0
 26 28  2  0  0  0  0
 24 25  1  0  0  0  0
 24 26  1  0  0  0  0
 22 23  1  0  0  0  0
 22 24  2  0  0  0  0
 20 21  1  0  0  0  0
 20 22  1  0  0  0  0
 19 20  2  0  0  0  0
 19 28  1  0  0  0  0
 17 18  1  0  0  0  0
 17 19  1  0  0  0  0
 15 16  1  0  0  0  0
 15 17  1  0  0  0  0
 14 15  2  0  0  0  0
 14 28  1  0  0  0  0
 11 12  1  0  0  0  0
 11 13  1  0  0  0  0
 11 14  1  0  0  0  0
  9 10  1  0  0  0  0
  9 11  1  0  0  0  0
  9 29  1  0  0  0  0
  7  8  1  0  0  0  0
  7  9  1  0  0  0  0
 33 34  1  0  0  0  0
 33 35  1  0  0  0  0
 33 36  1  0  0  0  0
 31 32  1  0  0  0  0
 31 33  1  0  0  0  0
M  END
$$$$
default_name
  -OEChem-02102213163D

 36 37  0     1  0  0  0  0  0999 V2000
   -4.0843   -4.0736    1.2944 H   0  0  0  0  0  0  0  0  0  0  0  0
   -4.0342   -3.2816    0.5484 C   0  0  0  0  0  0  0  0  0  0  0  0
   -4.8842   -2.6126    0.6694 H   0  0  0  0  0  0  0  0  0  0  0  0
   -4.0433   -3.7186   -0.4486 H   0  0  0  0  0  0  0  0  0  0  0  0
   -2.7532   -2.5046    0.7444 C   0  0  0  0  0  0  0  0  0  0  0  0
   -1.9803   -2.8096    1.6434 O   0  0  0  0  0  0  0  0  0  0  0  0
   -2.5332   -1.4966   -0.0966 N   0  0  0  0  0  0  0  0  0  0  0  0
   -3.2312   -1.2816   -0.7936 H   0  0  0  0  0  0  0  0  0  0  0  0
   -1.3593   -0.6196   -0.0536 C   0  0  1  0  0  0  0  0  0  0  0  0
   -0.4622   -1.2317   -0.1545 H   0  0  0  0  0  0  0  0  0  0  0  0
   -1.4074    0.3593   -1.2373 C   0  0  0  0  0  0  0  0  0  0  0  0
   -1.4042    1.3798   -0.8500 H   0  0  0  0  0  0  0  0  0  0  0  0
   -0.5020    0.2292   -1.8326 H   0  0  0  0  0  0  0  0  0  0  0  0
   -2.5946    0.2099   -2.1396 C   0  0  0  0  0  0  0  0  0  0  0  0
   -3.8185   -0.2242   -1.7636 C   0  0  0  0  0  0  0  0  0  0  0  0
   -4.0811   -0.5358   -0.7586 H   0  0  0  0  0  0  0  0  0  0  0  0
   -4.6763   -0.1884   -2.8455 N   0  0  0  0  0  0  0  0  0  0  0  0
   -5.6438   -0.4728   -2.7989 H   0  0  0  0  0  0  0  0  0  0  0  0
   -4.0479    0.2893   -3.9759 C   0  0  0  0  0  0  0  0  0  0  0  0
   -4.4870    0.5349   -5.2848 C   0  0  0  0  0  0  0  0  0  0  0  0
   -5.5109    0.3357   -5.5651 H   0  0  0  0  0  0  0  0  0  0  0  0
   -3.5757    1.0419   -6.2268 C   0  0  0  0  0  0  0  0  0  0  0  0
   -3.8961    1.2365   -7.2414 H   0  0  0  0  0  0  0  0  0  0  0  0
   -2.2432    1.2901   -5.8499 C   0  0  0  0  0  0  0  0  0  0  0  0
   -1.5433    1.6723   -6.5801 H   0  0  0  0  0  0  0  0  0  0  0  0
   -1.8124    1.0376   -4.5319 C   0  0  0  0  0  0  0  0  0  0  0  0
   -0.7827    1.2201   -4.2591 H   0  0  0  0  0  0  0  0  0  0  0  0
   -2.7047    0.5342   -3.5607 C   0  0  0  0  0  0  0  0  0  0  0  0
   -1.2663    0.1182    1.2910 C   0  0  0  0  0  0  0  0  0  0  0  0
   -0.1906    0.1931    1.8833 O   0  0  0  0  0  0  0  0  0  0  0  0
   -2.3930    0.6605    1.7722 N   0  0  0  0  0  0  0  0  0  0  0  0
   -3.2451    0.5077    1.2518 H   0  0  0  0  0  0  0  0  0  0  0  0
   -2.4787    1.3954    3.0311 C   0  0  0  0  0  0  0  0  0  0  0  0
   -1.7166    2.1767    3.0539 H   0  0  0  0  0  0  0  0  0  0  0  0
   -3.4649    1.8498    3.1344 H   0  0  0  0  0  0  0  0  0  0  0  0
   -2.3058    0.7133    3.8652 H   0  0  0  0  0  0  0  0  0  0  0  0
  5  6  2  0  0  0  0
  5  7  1  0  0  0  0
  2  3  1  0  0  0  0
  2  4  1  0  0  0  0
  2  5  1  0  0  0  0
  1  2  1  0  0  0  0
 29 30  2  0  0  0  0
 29 31  1  0  0  0  0
 26 27  1  0  0  0  0
 26 28  2  0  0  0  0
 24 25  1  0  0  0  0
 24 26  1  0  0  0  0
 22 23  1  0  0  0  0
 22 24  2  0  0  0  0
 20 21  1  0  0  0  0
 20 22  1  0  0  0  0
 19 20  2  0  0  0  0
 19 28  1  0  0  0  0
 17 18  1  0  0  0  0
 17 19  1  0  0  0  0
 15 16  1  0  0  0  0
 15 17  1  0  0  0  0
 14 15  2  0  0  0  0
 14 28  1  0  0  0  0
 11 12  1  0  0  0  0
 11 13  1  0  0  0  0
 11 14  1  0  0  0  0
  9 10  1  0  0  0  0
  9 11  1  0  0  0  0
  9 29  1  0  0  0  0
  7  8  1  0  0  0  0
  7  9  1  0  0  0  0
 33 34  1  0  0  0  0
 33 35  1  0  0  0  0
 33 36  1  0  0  0  0
 31 32  1  0  0  0  0
 31 33  1  0  0  0  0
M  END
$$$$
default_name
  -OEChem-02102213163D

 36 37  0     1  0  0  0  0  0999 V2000
   -4.0843   -4.0736    1.2944 H   0  0  0  0  0  0  0  0  0  0  0  0
   -4.0342   -3.2816    0.5484 C   0  0  0  0  0  0  0  0  0  0  0  0
   -4.8842   -2.6126    0.6694 H   0  0  0  0  0  0  0  0  0  0  0  0
   -4.0433   -3.7186   -0.4486 H   0  0  0  0  0  0  0  0  0  0  0  0
   -2.7532   -2.5046    0.7444 C   0  0  0  0  0  0  0  0  0  0  0  0
   -1.9803   -2.8096    1.6434 O   0  0  0  0  0  0  0  0  0  0  0  0
   -2.5332   -1.4966   -0.0966 N   0  0  0  0  0  0  0  0  0  0  0  0
   -3.2312   -1.2816   -0.7936 H   0  0  0  0  0  0  0  0  0  0  0  0
   -1.3593   -0.6196   -0.0536 C   0  0  1  0  0  0  0  0  0  0  0  0
   -0.4622   -1.2317   -0.1545 H   0  0  0  0  0  0  0  0  0  0  0  0
   -1.4074    0.3593   -1.2373 C   0  0  0  0  0  0  0  0  0  0  0  0
   -1.4042    1.3798   -0.8500 H   0  0  0  0  0  0  0  0  0  0  0  0
   -0.5020    0.2292   -1.8326 H   0  0  0  0  0  0  0  0  0  0  0  0
   -2.5946    0.2099   -2.1396 C   0  0  0  0  0  0  0  0  0  0  0  0
   -3.8754    0.0557   -1.7352 C   0  0  0  0  0  0  0  0  0  0  0  0
   -4.1936    0.0030   -0.6997 H   0  0  0  0  0  0  0  0  0  0  0  0
   -4.7063   -0.0024   -2.8369 N   0  0  0  0  0  0  0  0  0  0  0  0
   -5.7070   -0.1194   -2.7743 H   0  0  0  0  0  0  0  0  0  0  0  0
   -3.9993    0.1289   -4.0132 C   0  0  0  0  0  0  0  0  0  0  0  0
   -4.3814    0.1624   -5.3620 C   0  0  0  0  0  0  0  0  0  0  0  0
   -5.4212    0.0687   -5.6389 H   0  0  0  0  0  0  0  0  0  0  0  0
   -3.3923    0.3177   -6.3482 C   0  0  0  0  0  0  0  0  0  0  0  0
   -3.6681    0.3446   -7.3937 H   0  0  0  0  0  0  0  0  0  0  0  0
   -2.0409    0.4314   -5.9738 C   0  0  0  0  0  0  0  0  0  0  0  0
   -1.2823    0.5424   -6.7362 H   0  0  0  0  0  0  0  0  0  0  0  0
   -1.6682    0.3945   -4.6151 C   0  0  0  0  0  0  0  0  0  0  0  0
   -0.6252    0.4696   -4.3419 H   0  0  0  0  0  0  0  0  0  0  0  0
   -2.6383    0.2458   -3.6003 C   0  0  0  0  0  0  0  0  0  0  0  0
   -1.2663    0.1182    1.2910 C   0  0  0  0  0  0  0  0  0  0  0  0
   -0.1906    0.1931    1.8833 O   0  0  0  0  0  0  0  0  0  0  0  0
   -2.3930    0.6605    1.7722 N   0  0  0  0  0  0  0  0  0  0  0  0
   -3.2451    0.5077    1.2518 H   0  0  0  0  0  0  0  0  0  0  0  0
   -2.4787    1.3954    3.0311 C   0  0  0  0  0  0  0  0  0  0  0  0
   -1.7166    2.1767    3.0539 H   0  0  0  0  0  0  0  0  0  0  0  0
   -3.4649    1.8498    3.1344 H   0  0  0  0  0  0  0  0  0  0  0  0
   -2.3058    0.7133    3.8652 H   0  0  0  0  0  0  0  0  0  0  0  0
  5  6  2  0  0  0  0
  5  7  1  0  0  0  0
  2  3  1  0  0  0  0
  2  4  1  0  0  0  0
  2  5  1  0  0  0  0
  1  2  1  0  0  0  0
 29 30  2  0  0  0  0
 29 31  1  0  0  0  0
 26 27  1  0  0  0  0
 26 28  2  0  0  0  0
 24 25  1  0  0  0  0
 24 26  1  0  0  0  0
 22 23  1  0  0  0  0
 22 24  2  0  0  0  0
 20 21  1  0  0  0  0
 20 22  1  0  0  0  0
 19 20  2  0  0  0  0
 19 28  1  0  0  0  0
 17 18  1  0  0  0  0
 17 19  1  0  0  0  0
 15 16  1  0  0  0  0
 15 17  1  0  0  0  0
 14 15  2  0  0  0  0
 14 28  1  0  0  0  0
 11 12  1  0  0  0  0
 11 13  1  0  0  0  0
 11 14  1  0  0  0  0
  9 10  1  0  0  0  0
  9 11  1  0  0  0  0
  9 29  1  0  0  0  0
  7  8  1  0  0  0  0
  7  9  1  0  0  0  0
 33 34  1  0  0  0  0
 33 35  1  0  0  0  0
 33 36  1  0  0  0  0
 31 32  1  0  0  0  0
 31 33  1  0  0  0  0
M  END
$$$$
default_name
  -OEChem-02102213163D

 36 37  0     1  0  0  0  0  0999 V2000
   -4.0843   -4.0736    1.2944 H   0  0  0  0  0  0  0  0  0  0  0  0
   -4.0342   -3.2816    0.5484 C   0  0  0  0  0  0  0  0  0  0  0  0
   -4.8842   -2.6126    0.6694 H   0  0  0  0  0  0  0  0  0  0  0  0
   -4.0433   -3.7186   -0.4486 H   0  0  0  0  0  0  0  0  0  0  0  0
   -2.7532   -2.5046    0.7444 C   0  0  0  0  0  0  0  0  0  0  0  0
   -1.9803   -2.8096    1.6434 O   0  0  0  0  0  0  0  0  0  0  0  0
   -2.5332   -1.4966   -0.0966 N   0  0  0  0  0  0  0  0  0  0  0  0
   -3.2312   -1.2816   -0.7936 H   0  0  0  0  0  0  0  0  0  0  0  0
   -1.3593   -0.6196   -0.0536 C   0  0  1  0  0  0  0  0  0  0  0  0
   -0.4622   -1.2317   -0.1545 H   0  0  0  0  0  0  0  0  0  0  0  0
   -1.4074    0.3593   -1.2373 C   0  0  0  0  0  0  0  0  0  0  0  0
   -1.4042    1.3798   -0.8500 H   0  0  0  0  0  0  0  0  0  0  0  0
   -0.5020    0.2292   -1.8326 H   0  0  0  0  0  0  0  0  0  0  0  0
   -2.5946    0.2099   -2.1396 C   0  0  0  0  0  0  0  0  0  0  0  0
   -3.8875    0.3408   -1.7666 C   0  0  0  0  0  0  0  0  0  0  0  0
   -4.2199    0.5530   -0.7563 H   0  0  0  0  0  0  0  0  0  0  0  0
   -4.7064    0.1837   -2.8675 N   0  0  0  0  0  0  0  0  0  0  0  0
   -5.7137    0.2369   -2.8246 H   0  0  0  0  0  0  0  0  0  0  0  0
   -3.9764   -0.0413   -4.0152 C   0  0  0  0  0  0  0  0  0  0  0  0
   -4.3354   -0.2298   -5.3576 C   0  0  0  0  0  0  0  0  0  0  0  0
   -5.3742   -0.2184   -5.6532 H   0  0  0  0  0  0  0  0  0  0  0  0
   -3.3248   -0.4354   -6.3122 C   0  0  0  0  0  0  0  0  0  0  0  0
   -3.5828   -0.5836   -7.3521 H   0  0  0  0  0  0  0  0  0  0  0  0
   -1.9761   -0.4548   -5.9122 C   0  0  0  0  0  0  0  0  0  0  0  0
   -1.2023   -0.6217   -6.6487 H   0  0  0  0  0  0  0  0  0  0  0  0
   -1.6270   -0.2662   -4.5598 C   0  0  0  0  0  0  0  0  0  0  0  0
   -0.5880   -0.2968   -4.2640 H   0  0  0  0  0  0  0  0  0  0  0  0
   -2.6181   -0.0512   -3.5778 C   0  0  0  0  0  0  0  0  0  0  0  0
   -1.2663    0.1182    1.2910 C   0  0  0  0  0  0  0  0  0  0  0  0
   -0.1906    0.1931    1.8833 O   0  0  0  0  0  0  0  0  0  0  0  0
   -2.3930    0.6605    1.7722 N   0  0  0  0  0  0  0  0  0  0  0  0
   -3.2451    0.5077    1.2518 H   0  0  0  0  0  0  0  0  0  0  0  0
   -2.4787    1.3954    3.0311 C   0  0  0  0  0  0  0  0  0  0  0  0
   -1.7166    2.1767    3.0539 H   0  0  0  0  0  0  0  0  0  0  0  0
   -3.4649    1.8498    3.1344 H   0  0  0  0  0  0  0  0  0  0  0  0
   -2.3058    0.7133    3.8652 H   0  0  0  0  0  0  0  0  0  0  0  0
  5  6  2  0  0  0  0
  5  7  1  0  0  0  0
  2  3  1  0  0  0  0
  2  4  1  0  0  0  0
  2  5  1  0  0  0  0
  1  2  1  0  0  0  0
 29 30  2  0  0  0  0
 29 31  1  0  0  0  0
 26 27  1  0  0  0  0
 26 28  2  0  0  0  0
 24 25  1  0  0  0  0
 24 26  1  0  0  0  0
 22 23  1  0  0  0  0
 22 24  2  0  0  0  0
 20 21  1  0  0  0  0
 20 22  1  0  0  0  0
 19 20  2  0  0  0  0
 19 28  1  0  0  0  0
 17 18  1  0  0  0  0
 17 19  1  0  0  0  0
 15 16  1  0  0  0  0
 15 17  1  0  0  0  0
 14 15  2  0  0  0  0
 14 28  1  0  0  0  0
 11 12  1  0  0  0  0
 11 13  1  0  0  0  0
 11 14  1  0  0  0  0
  9 10  1  0  0  0  0
  9 11  1  0  0  0  0
  9 29  1  0  0  0  0
  7  8  1  0  0  0  0
  7  9  1  0  0  0  0
 33 34  1  0  0  0  0
 33 35  1  0  0  0  0
 33 36  1  0  0  0  0
 31 32  1  0  0  0  0
 31 33  1  0  0  0  0
M  END
$$$$
default_name
  -OEChem-02102213163D

 36 37  0     1  0  0  0  0  0999 V2000
   -4.0843   -4.0736    1.2944 H   0  0  0  0  0  0  0  0  0  0  0  0
   -4.0342   -3.2816    0.5484 C   0  0  0  0  0  0  0  0  0  0  0  0
   -4.8842   -2.6126    0.6694 H   0  0  0  0  0  0  0  0  0  0  0  0
   -4.0433   -3.7186   -0.4486 H   0  0  0  0  0  0  0  0  0  0  0  0
   -2.7532   -2.5046    0.7444 C   0  0  0  0  0  0  0  0  0  0  0  0
   -1.9803   -2.8096    1.6434 O   0  0  0  0  0  0  0  0  0  0  0  0
   -2.5332   -1.4966   -0.0966 N   0  0  0  0  0  0  0  0  0  0  0  0
   -3.2312   -1.2816   -0.7936 H   0  0  0  0  0  0  0  0  0  0  0  0
   -1.3593   -0.6196   -0.0536 C   0  0  1  0  0  0  0  0  0  0  0  0
   -0.4622   -1.2317   -0.1545 H   0  0  0  0  0  0  0  0  0  0  0  0
   -1.4074    0.3593   -1.2373 C   0  0  0  0  0  0  0  0  0  0  0  0
   -1.4042    1.3798   -0.8500 H   0  0  0  0  0  0  0  0  0  0  0  0
   -0.5020    0.2292   -1.8326 H   0  0  0  0  0  0  0  0  0  0  0  0
   -2.5946    0.2099   -2.1396 C   0  0  0  0  0  0  0  0  0  0  0  0
   -3.8539    0.6116   -1.8556 C   0  0  0  0  0  0  0  0  0  0  0  0
   -4.1581    1.0767   -0.9244 H   0  0  0  0  0  0  0  0  0  0  0  0
   -4.6768    0.3572   -2.9352 N   0  0  0  0  0  0  0  0  0  0  0  0
   -5.6633    0.5717   -2.9464 H   0  0  0  0  0  0  0  0  0  0  0  0
   -3.9807   -0.2096   -3.9816 C   0  0  0  0  0  0  0  0  0  0  0  0
   -4.3522   -0.6148   -5.2716 C   0  0  0  0  0  0  0  0  0  0  0  0
   -5.3732   -0.5060   -5.6068 H   0  0  0  0  0  0  0  0  0  0  0  0
   -3.3779   -1.1659   -6.1213 C   0  0  0  0  0  0  0  0  0  0  0  0
   -3.6462   -1.4850   -7.1194 H   0  0  0  0  0  0  0  0  0  0  0  0
   -2.0533   -1.3084   -5.6693 C   0  0  0  0  0  0  0  0  0  0  0  0
   -1.3087   -1.7406   -6.3234 H   0  0  0  0  0  0  0  0  0  0  0  0
   -1.6916   -0.8996   -4.3699 C   0  0  0  0  0  0  0  0  0  0  0  0
   -0.6734   -1.0269   -4.0306 H   0  0  0  0  0  0  0  0  0  0  0  0
   -2.6454   -0.3366   -3.4945 C   0  0  0  0  0  0  0  0  0  0  0  0
   -1.2663    0.1182    1.2910 C   0  0  0  0  0  0  0  0  0  0  0  0
   -0.1906    0.1931    1.8833 O   0  0  0  0  0  0  0  0  0  0  0  0
   -2.3930    0.6605    1.7722 N   0  0  0  0  0  0  0  0  0  0  0  0
   -3.2451    0.5077    1.2518 H   0  0  0  0  0  0  0  0  0  0  0  0
   -2.4787    1.3954    3.0311 C   0  0  0  0  0  0  0  0  0  0  0  0
   -1.7166    2.1767    3.0539 H   0  0  0  0  0  0  0  0  0  0  0  0
   -3.4649    1.8498    3.1344 H   0  0  0  0  0  0  0  0  0  0  0  0
   -2.3058    0.7133    3.8652 H   0  0  0  0  0  0  0  0  0  0  0  0
  5  6  2  0  0  0  0
  5  7  1  0  0  0  0
  2  3  1  0  0  0  0
  2  4  1  0  0  0  0
  2  5  1  0  0  0  0
  1  2  1  0  0  0  0
 29 30  2  0  0  0  0
 29 31  1  0  0  0  0
 26 27  1  0  0  0  0
 26 28  2  0  0  0  0
 24 25  1  0  0  0  0
 24 26  1  0  0  0  0
 22 23  1  0  0  0  0
 22 24  2  0  0  0  0
 20 21  1  0  0  0  0
 20 22  1  0  0  0  0
 19 20  2  0  0  0  0
 19 28  1  0  0  0  0
 17 18  1  0  0  0  0
 17 19  1  0  0  0  0
 15 16  1  0  0  0  0
 15 17  1  0  0  0  0
 14 15  2  0  0  0  0
 14 28  1  0  0  0  0
 11 12  1  0  0  0  0
 11 13  1  0  0  0  0
 11 14  1  0  0  0  0
  9 10  1  0  0  0  0
  9 11  1  0  0  0  0
  9 29  1  0  0  0  0
  7  8  1  0  0  0  0
  7  9  1  0  0  0  0
 33 34  1  0  0  0  0
 33 35  1  0  0  0  0
 33 36  1  0  0  0  0
 31 32  1  0  0  0  0
 31 33  1  0  0  0  0
M  END
$$$$
default_name
  -OEChem-02102213163D

 36 37  0     1  0  0  0  0  0999 V2000
   -4.0843   -4.0736    1.2944 H   0  0  0  0  0  0  0  0  0  0  0  0
   -4.0342   -3.2816    0.5484 C   0  0  0  0  0  0  0  0  0  0  0  0
   -4.8842   -2.6126    0.6694 H   0  0  0  0  0  0  0  0  0  0  0  0
   -4.0433   -3.7186   -0.4486 H   0  0  0  0  0  0  0  0  0  0  0  0
   -2.7532   -2.5046    0.7444 C   0  0  0  0  0  0  0  0  0  0  0  0
   -1.9803   -2.8096    1.6434 O   0  0  0  0  0  0  0  0  0  0  0  0
   -2.5332   -1.4966   -0.0966 N   0  0  0  0  0  0  0  0  0  0  0  0
   -3.2312   -1.2816   -0.7936 H   0  0  0  0  0  0  0  0  0  0  0  0
   -1.3593   -0.6196   -0.0536 C   0  0  1  0  0  0  0  0  0  0  0  0
   -0.4622   -1.2317   -0.1545 H   0  0  0  0  0  0  0  0  0  0  0  0
   -1.4074    0.3593   -1.2373 C   0  0  0  0  0  0  0  0  0  0  0  0
   -1.4042    1.3798   -0.8500 H   0  0  0  0  0  0  0  0  0  0  0  0
   -0.5020    0.2292   -1.8326 H   0  0  0  0  0  0  0  0  0  0  0  0
   -2.5946    0.2099   -2.1396 C   0  0  0  0  0  0  0  0  0  0  0  0
   -3.7769    0.8497   -1.9963 C   0  0  0  0  0  0  0  0  0  0  0  0
   -4.0125    1.5385   -1.1925 H   0  0  0  0  0  0  0  0  0  0  0  0
   -4.6194    0.5063   -3.0354 N   0  0  0  0  0  0  0  0  0  0  0  0
   -5.5592    0.8623   -3.1314 H   0  0  0  0  0  0  0  0  0  0  0  0
   -4.0120   -0.3647   -3.9147 C   0  0  0  0  0  0  0  0  0  0  0  0
   -4.4307   -0.9664   -5.1101 C   0  0  0  0  0  0  0  0  0  0  0  0
   -5.4183   -0.7744   -5.5031 H   0  0  0  0  0  0  0  0  0  0  0  0
   -3.5479   -1.8241   -5.7885 C   0  0  0  0  0  0  0  0  0  0  0  0
   -3.8539   -2.2980   -6.7114 H   0  0  0  0  0  0  0  0  0  0  0  0
   -2.2670   -2.0710   -5.2616 C   0  0  0  0  0  0  0  0  0  0  0  0
   -1.5941   -2.7381   -5.7824 H   0  0  0  0  0  0  0  0  0  0  0  0
   -1.8576   -1.4623   -4.0583 C   0  0  0  0  0  0  0  0  0  0  0  0
   -0.8758   -1.6710   -3.6576 H   0  0  0  0  0  0  0  0  0  0  0  0
   -2.7184   -0.5910   -3.3563 C   0  0  0  0  0  0  0  0  0  0  0  0
   -1.2663    0.1182    1.2910 C   0  0  0  0  0  0  0  0  0  0  0  0
   -0.1906    0.1931    1.8833 O   0  0  0  0  0  0  0  0  0  0  0  0
   -2.3930    0.6605    1.7722 N   0  0  0  0  0  0  0  0  0  0  0  0
   -3.2451    0.5077    1.2518 H   0  0  0  0  0  0  0  0  0  0  0  0
   -2.4787    1.3954    3.0311 C   0  0  0  0  0  0  0  0  0  0  0  0
   -1.7166    2.1767    3.0539 H   0  0  0  0  0  0  0  0  0  0  0  0
   -3.4649    1.8498    3.1344 H   0  0  0  0  0  0  0  0  0  0  0  0
   -2.3058    0.7133    3.8652 H   0  0  0  0  0  0  0  0  0  0  0  0
  5  6  2  0  0  0  0
  5  7  1  0  0  0  0
  2  3  1  0  0  0  0
  2  4  1  0  0  0  0
  2  5  1  0  0  0  0
  1  2  1  0  0  0  0
 29 30  2  0  0  0  0
 29 31  1  0  0  0  0
 26 27  1  0  0  0  0
 26 28  2  0  0  0  0
 24 25  1  0  0  0  0
 24 26  1  0  0  0  0
 22 23  1  0  0  0  0
 22 24  2  0  0  0  0
 20 21  1  0  0  0  0
 20 22  1  0  0  0  0
 19 20  2  0  0  0  0
 19 28  1  0  0  0  0
 17 18  1  0  0  0  0
 17 19  1  0  0  0  0
 15 16  1  0  0  0  0
 15 17  1  0  0  0  0
 14 15  2  0  0  0  0
 14 28  1  0  0  0  0
 11 12  1  0  0  0  0
 11 13  1  0  0  0  0
 11 14  1  0  0  0  0
  9 10  1  0  0  0  0
  9 11  1  0  0  0  0
  9 29  1  0  0  0  0
  7  8  1  0  0  0  0
  7  9  1  0  0  0  0
 33 34  1  0  0  0  0
 33 35  1  0  0  0  0
 33 36  1  0  0  0  0
 31 32  1  0  0  0  0
 31 33  1  0  0  0  0
M  END
$$$$
default_name
  -OEChem-02102213163D

 36 37  0     1  0  0  0  0  0999 V2000
   -4.0843   -4.0736    1.2944 H   0  0  0  0  0  0  0  0  0  0  0  0
   -4.0342   -3.2816    0.5484 C   0  0  0  0  0  0  0  0  0  0  0  0
   -4.8842   -2.6126    0.6694 H   0  0  0  0  0  0  0  0  0  0  0  0
   -4.0433   -3.7186   -0.4486 H   0  0  0  0  0  0  0  0  0  0  0  0
   -2.7532   -2.5046    0.7444 C   0  0  0  0  0  0  0  0  0  0  0  0
   -1.9803   -2.8096    1.6434 O   0  0  0  0  0  0  0  0  0  0  0  0
   -2.5332   -1.4966   -0.0966 N   0  0  0  0  0  0  0  0  0  0  0  0
   -3.2312   -1.2816   -0.7936 H   0  0  0  0  0  0  0  0  0  0  0  0
   -1.3593   -0.6196   -0.0536 C   0  0  1  0  0  0  0  0  0  0  0  0
   -0.4622   -1.2317   -0.1545 H   0  0  0  0  0  0  0  0  0  0  0  0
   -1.4074    0.3593   -1.2373 C   0  0  0  0  0  0  0  0  0  0  0  0
   -1.4042    1.3798   -0.8500 H   0  0  0  0  0  0  0  0  0  0  0  0
   -0.5020    0.2292   -1.8326 H   0  0  0  0  0  0  0  0  0  0  0  0
   -2.5946    0.2099   -2.1396 C   0  0  0  0  0  0  0  0  0  0  0  0
   -3.6619    1.0388   -2.1790 C   0  0  0  0  0  0  0  0  0  0  0  0
   -3.7929    1.9069   -1.5424 H   0  0  0  0  0  0  0  0  0  0  0  0
   -4.5382    0.6208   -3.1613 N   0  0  0  0  0  0  0  0  0  0  0  0
   -5.4087    1.0889   -3.3670 H   0  0  0  0  0  0  0  0  0  0  0  0
   -4.0681   -0.4959   -3.8192 C   0  0  0  0  0  0  0  0  0  0  0  0
   -4.5654   -1.2608   -4.8841 C   0  0  0  0  0  0  0  0  0  0  0  0
   -5.5063   -1.0053   -5.3490 H   0  0  0  0  0  0  0  0  0  0  0  0
   -3.8234   -2.3652   -5.3365 C   0  0  0  0  0  0  0  0  0  0  0  0
   -4.1917   -2.9674   -6.1560 H   0  0  0  0  0  0  0  0  0  0  0  0
   -2.6029   -2.6908   -4.7170 C   0  0  0  0  0  0  0  0  0  0  0  0
   -2.0393   -3.5463   -5.0628 H   0  0  0  0  0  0  0  0  0  0  0  0
   -2.1136   -1.9161   -3.6461 C   0  0  0  0  0  0  0  0  0  0  0  0
   -1.1812   -2.1851   -3.1705 H   0  0  0  0  0  0  0  0  0  0  0  0
   -2.8322   -0.7970   -3.1725 C   0  0  0  0  0  0  0  0  0  0  0  0
   -1.2663    0.1182    1.2910 C   0  0  0  0  0  0  0  0  0  0  0  0
   -0.1906    0.1931    1.8833 O   0  0  0  0  0  0  0  0  0  0  0  0
   -2.3930    0.6605    1.7722 N   0  0  0  0  0  0  0  0  0  0  0  0
   -3.2451    0.5077    1.2518 H   0  0  0  0  0  0  0  0  0  0  0  0
   -2.4787    1.3954    3.0311 C   0  0  0  0  0  0  0  0  0  0  0  0
   -1.7166    2.1767    3.0539 H   0  0  0  0  0  0  0  0  0  0  0  0
   -3.4649    1.8498    3.1344 H   0  0  0  0  0  0  0  0  0  0  0  0
   -2.3058    0.7133    3.8652 H   0  0  0  0  0  0  0  0  0  0  0  0
  5  6  2  0  0  0  0
  5  7  1  0  0  0  0
  2  3  1  0  0  0  0
  2  4  1  0  0  0  0
  2  5  1  0  0  0  0
  1  2  1  0  0  0  0
 29 30  2  0  0  0  0
 29 31  1  0  0  0  0
 26 27  1  0  0  0  0
 26 28  2  0  0  0  0
 24 25  1  0  0  0  0
 24 26  1  0  0  0  0
 22 23  1  0  0  0  0
 22 24  2  0  0  0  0
 20 21  1  0  0  0  0
 20 22  1  0  0  0  0
 19 20  2  0  0  0  0
 19 28  1  0  0  0  0
 17 18  1  0  0  0  0
 17 19  1  0  0  0  0
 15 16  1  0  0  0  0
 15 17  1  0  0  0  0
 14 15  2  0  0  0  0
 14 28  1  0  0  0  0
 11 12  1  0  0  0  0
 11 13  1  0  0  0  0
 11 14  1  0  0  0  0
  9 10  1  0  0  0  0
  9 11  1  0  0  0  0
  9 29  1  0  0  0  0
  7  8  1  0  0  0  0
  7  9  1  0  0  0  0
 33 34  1  0  0  0  0
 33 35  1  0  0  0  0
 33 36  1  0  0  0  0
 31 32  1  0  0  0  0
 31 33  1  0  0  0  0
M  END
$$$$
default_name
  -OEChem-02102213163D

 36 37  0     1  0  0  0  0  0999 V2000
   -4.0843   -4.0736    1.2944 H   0  0  0  0  0  0  0  0  0  0  0  0
   -4.0342   -3.2816    0.5484 C   0  0  0  0  0  0  0  0  0  0  0  0
   -4.8842   -2.6126    0.6694 H   0  0  0  0  0  0  0  0  0  0  0  0
   -4.0433   -3.7186   -0.4486 H   0  0  0  0  0  0  0  0  0  0  0  0
   -2.7532   -2.5046    0.7444 C   0  0  0  0  0  0  0  0  0  0  0  0
   -1.9803   -2.8096    1.6434 O   0  0  0  0  0  0  0  0  0  0  0  0
   -2.5332   -1.4966   -0.0966 N   0  0  0  0  0  0  0  0  0  0  0  0
   -3.2312   -1.2816   -0.7936 H   0  0  0  0  0  0  0  0  0  0  0  0
   -1.3593   -0.6196   -0.0536 C   0  0  1  0  0  0  0  0  0  0  0  0
   -0.4622   -1.2317   -0.1545 H   0  0  0  0  0  0  0  0  0  0  0  0
   -1.4074    0.3593   -1.2373 C   0  0  0  0  0  0  0  0  0  0  0  0
   -1.4042    1.3798   -0.8500 H   0  0  0  0  0  0  0  0  0  0  0  0
   -0.5020    0.2292   -1.8326 H   0  0  0  0  0  0  0  0  0  0  0  0
   -2.5946    0.2099   -2.1396 C   0  0  0  0  0  0  0  0  0  0  0  0
   -3.5165    1.1661   -2.3914 C   0  0  0  0  0  0  0  0  0  0  0  0
   -3.5144    2.1568   -1.9503 H   0  0  0  0  0  0  0  0  0  0  0  0
   -4.4386    0.6930   -3.3043 N   0  0  0  0  0  0  0  0  0  0  0  0
   -5.2219    1.2359   -3.6372 H   0  0  0  0  0  0  0  0  0  0  0  0
   -4.1452   -0.5943   -3.7014 C   0  0  0  0  0  0  0  0  0  0  0  0
   -4.7473   -1.4777   -4.6088 C   0  0  0  0  0  0  0  0  0  0  0  0
   -5.6313   -1.1831   -5.1551 H   0  0  0  0  0  0  0  0  0  0  0  0
   -4.1854   -2.7522   -4.7960 C   0  0  0  0  0  0  0  0  0  0  0  0
   -4.6367   -3.4474   -5.4910 H   0  0  0  0  0  0  0  0  0  0  0  0
   -3.0379   -3.1254   -4.0726 C   0  0  0  0  0  0  0  0  0  0  0  0
   -2.6137   -4.1099   -4.2135 H   0  0  0  0  0  0  0  0  0  0  0  0
   -2.4423   -2.2300   -3.1616 C   0  0  0  0  0  0  0  0  0  0  0  0
   -1.5689   -2.5342   -2.6025 H   0  0  0  0  0  0  0  0  0  0  0  0
   -2.9789   -0.9406   -2.9556 C   0  0  0  0  0  0  0  0  0  0  0  0
   -1.2663    0.1182    1.2910 C   0  0  0  0  0  0  0  0  0  0  0  0
   -0.1906    0.1931    1.8833 O   0  0  0  0  0  0  0  0  0  0  0  0
   -2.3930    0.6605    1.7722 N   0  0  0  0  0  0  0  0  0  0  0  0
   -3.2451    0.5077    1.2518 H   0  0  0  0  0  0  0  0  0  0  0  0
   -2.4787    1.3954    3.0311 C   0  0  0  0  0  0  0  0  0  0  0  0
   -1.7166    2.1767    3.0539 H   0  0  0  0  0  0  0  0  0  0  0  0
   -3.4649    1.8498    3.1344 H   0  0  0  0  0  0  0  0  0  0  0  0
   -2.3058    0.7133    3.8652 H   0  0  0  0  0  0  0  0  0  0  0  0
  5  6  2  0  0  0  0
  5  7  1  0  0  0  0
  2  3  1  0  0  0  0
  2  4  1  0  0  0  0
  2  5  1  0  0  0  0
  1  2  1  0  0  0  0
 29 30  2  0  0  0  0
 29 31  1  0  0  0  0
 26 27  1  0  0  0  0
 26 28  2  0  0  0  0
 24 25  1  0  0  0  0
 24 26  1  0  0  0  0
 22 23  1  0  0  0  0
 22 24  2  0  0  0  0
 20 21  1  0  0  0  0
 20 22  1  0  0  0  0
 19 20  2  0  0  0  0
 19 28  1  0  0  0  0
 17 18  1  0  0  0  0
 17 19  1  0  0  0  0
 15 16  1  0  0  0  0
 15 17  1  0  0  0  0
 14 15  2  0  0  0  0
 14 28  1  0  0  0  0
 11 12  1  0  0  0  0
 11 13  1  0  0  0  0
 11 14  1  0  0  0  0
  9 10  1  0  0  0  0
  9 11  1  0  0  0  0
  9 29  1  0  0  0  0
  7  8  1  0  0  0  0
  7  9  1  0  0  0  0
 33 34  1  0  0  0  0
 33 35  1  0  0  0  0
 33 36  1  0  0  0  0
 31 32  1  0  0  0  0
 31 33  1  0  0  0  0
M  END
$$$$
default_name
  -OEChem-02102213163D

 36 37  0     1  0  0  0  0  0999 V2000
   -4.0843   -4.0736    1.2944 H   0  0  0  0  0  0  0  0  0  0  0  0
   -4.0342   -3.2816    0.5484 C   0  0  0  0  0  0  0  0  0  0  0  0
   -4.8842   -2.6126    0.6694 H   0  0  0  0  0  0  0  0  0  0  0  0
   -4.0433   -3.7186   -0.4486 H   0  0  0  0  0  0  0  0  0  0  0  0
   -2.7532   -2.5046    0.7444 C   0  0  0  0  0  0  0  0  0  0  0  0
   -1.9803   -2.8096    1.6434 O   0  0  0  0  0  0  0  0  0  0  0  0
   -2.5332   -1.4966   -0.0966 N   0  0  0  0  0  0  0  0  0  0  0  0
   -3.2312   -1.2816   -0.7936 H   0  0  0  0  0  0  0  0  0  0  0  0
   -1.3593   -0.6196   -0.0536 C   0  0  1  0  0  0  0  0  0  0  0  0
   -0.4622   -1.2317   -0.1545 H   0  0  0  0  0  0  0  0  0  0  0  0
   -1.4074    0.3593   -1.2373 C   0  0  0  0  0  0  0  0  0  0  0  0
   -1.4042    1.3798   -0.8500 H   0  0  0  0  0  0  0  0  0  0  0  0
   -0.5020    0.2292   -1.8326 H   0  0  0  0  0  0  0  0  0  0  0  0
   -2.5946    0.2099   -2.1396 C   0  0  0  0  0  0  0  0  0  0  0  0
   -3.3509    1.2228   -2.6188 C   0  0  0  0  0  0  0  0  0  0  0  0
   -3.1959    2.2712   -2.3884 H   0  0  0  0  0  0  0  0  0  0  0  0
   -4.3275    0.7178   -3.4546 N   0  0  0  0  0  0  0  0  0  0  0  0
   -5.0116    1.2935   -3.9234 H   0  0  0  0  0  0  0  0  0  0  0  0
   -4.2381   -0.6531   -3.5695 C   0  0  0  0  0  0  0  0  0  0  0  0
   -4.9638   -1.6025   -4.3032 C   0  0  0  0  0  0  0  0  0  0  0  0
   -5.7847   -1.2956   -4.9346 H   0  0  0  0  0  0  0  0  0  0  0  0
   -4.6093   -2.9588   -4.2039 C   0  0  0  0  0  0  0  0  0  0  0  0
   -5.1584   -3.7053   -4.7617 H   0  0  0  0  0  0  0  0  0  0  0  0
   -3.5424   -3.3453   -3.3722 C   0  0  0  0  0  0  0  0  0  0  0  0
   -3.2784   -4.3908   -3.2923 H   0  0  0  0  0  0  0  0  0  0  0  0
   -2.8212   -2.3827   -2.6377 C   0  0  0  0  0  0  0  0  0  0  0  0
   -2.0125   -2.6946   -1.9923 H   0  0  0  0  0  0  0  0  0  0  0  0
   -3.1486   -1.0119   -2.7206 C   0  0  0  0  0  0  0  0  0  0  0  0
   -1.2663    0.1182    1.2910 C   0  0  0  0  0  0  0  0  0  0  0  0
   -0.1906    0.1931    1.8833 O   0  0  0  0  0  0  0  0  0  0  0  0
   -2.3930    0.6605    1.7722 N   0  0  0  0  0  0  0  0  0  0  0  0
   -3.2451    0.5077    1.2518 H   0  0  0  0  0  0  0  0  0  0  0  0
   -2.4787    1.3954    3.0311 C   0  0  0  0  0  0  0  0  0  0  0  0
   -1.7166    2.1767    3.0539 H   0  0  0  0  0  0  0  0  0  0  0  0
   -3.4649    1.8498    3.1344 H   0  0  0  0  0  0  0  0  0  0  0  0
   -2.3058    0.7133    3.8652 H   0  0  0  0  0  0  0  0  0  0  0  0
  5  6  2  0  0  0  0
  5  7  1  0  0  0  0
  2  3  1  0  0  0  0
  2  4  1  0  0  0  0
  2  5  1  0  0  0  0
  1  2  1  0  0  0  0
 29 30  2  0  0  0  0
 29 31  1  0  0  0  0
 26 27  1  0  0  0  0
 26 28  2  0  0  0  0
 24 25  1  0  0  0  0
 24 26  1  0  0  0  0
 22 23  1  0  0  0  0
 22 24  2  0  0  0  0
 20 21  1  0  0  0  0
 20 22  1  0  0  0  0
 19 20  2  0  0  0  0
 19 28  1  0  0  0  0
 17 18  1  0  0  0  0
 17 19  1  0  0  0  0
 15 16  1  0  0  0  0
 15 17  1  0  0  0  0
 14 15  2  0  0  0  0
 14 28  1  0  0  0  0
 11 12  1  0  0  0  0
 11 13  1  0  0  0  0
 11 14  1  0  0  0  0
  9 10  1  0  0  0  0
  9 11  1  0  0  0  0
  9 29  1  0  0  0  0
  7  8  1  0  0  0  0
  7  9  1  0  0  0  0
 33 34  1  0  0  0  0
 33 35  1  0  0  0  0
 33 36  1  0  0  0  0
 31 32  1  0  0  0  0
 31 33  1  0  0  0  0
M  END
$$$$
default_name
  -OEChem-02102213163D

 36 37  0     1  0  0  0  0  0999 V2000
   -4.0843   -4.0736    1.2944 H   0  0  0  0  0  0  0  0  0  0  0  0
   -4.0342   -3.2816    0.5484 C   0  0  0  0  0  0  0  0  0  0  0  0
   -4.8842   -2.6126    0.6694 H   0  0  0  0  0  0  0  0  0  0  0  0
   -4.0433   -3.7186   -0.4486 H   0  0  0  0  0  0  0  0  0  0  0  0
   -2.7532   -2.5046    0.7444 C   0  0  0  0  0  0  0  0  0  0  0  0
   -1.9803   -2.8096    1.6434 O   0  0  0  0  0  0  0  0  0  0  0  0
   -2.5332   -1.4966   -0.0966 N   0  0  0  0  0  0  0  0  0  0  0  0
   -3.2312   -1.2816   -0.7936 H   0  0  0  0  0  0  0  0  0  0  0  0
   -1.3593   -0.6196   -0.0536 C   0  0  1  0  0  0  0  0  0  0  0  0
   -0.4622   -1.2317   -0.1545 H   0  0  0  0  0  0  0  0  0  0  0  0
   -1.4074    0.3593   -1.2373 C   0  0  0  0  0  0  0  0  0  0  0  0
   -1.4042    1.3798   -0.8500 H   0  0  0  0  0  0  0  0  0  0  0  0
   -0.5020    0.2292   -1.8326 H   0  0  0  0  0  0  0  0  0  0  0  0
   -2.5946    0.2099   -2.1396 C   0  0  0  0  0  0  0  0  0  0  0  0
   -3.1761    1.2052   -2.8458 C   0  0  0  0  0  0  0  0  0  0  0  0
   -2.8592    2.2422   -2.8267 H   0  0  0  0  0  0  0  0  0  0  0  0
   -4.2124    0.6937   -3.6021 N   0  0  0  0  0  0  0  0  0  0  0  0
   -4.7921    1.2576   -4.2063 H   0  0  0  0  0  0  0  0  0  0  0  0
   -4.3404   -0.6685   -3.4324 C   0  0  0  0  0  0  0  0  0  0  0  0
   -5.2004   -1.6267   -3.9879 C   0  0  0  0  0  0  0  0  0  0  0  0
   -5.9561   -1.3352   -4.7024 H   0  0  0  0  0  0  0  0  0  0  0  0
   -5.0662   -2.9709   -3.6006 C   0  0  0  0  0  0  0  0  0  0  0  0
   -5.7214   -3.7237   -4.0178 H   0  0  0  0  0  0  0  0  0  0  0  0
   -4.0822   -3.3355   -2.6636 C   0  0  0  0  0  0  0  0  0  0  0  0
   -3.9879   -4.3696   -2.3621 H   0  0  0  0  0  0  0  0  0  0  0  0
   -3.2245   -2.3637   -2.1102 C   0  0  0  0  0  0  0  0  0  0  0  0
   -2.4816   -2.6553   -1.3814 H   0  0  0  0  0  0  0  0  0  0  0  0
   -3.3296   -1.0062   -2.4832 C   0  0  0  0  0  0  0  0  0  0  0  0
   -1.2663    0.1182    1.2910 C   0  0  0  0  0  0  0  0  0  0  0  0
   -0.1906    0.1931    1.8833 O   0  0  0  0  0  0  0  0  0  0  0  0
   -2.3930    0.6605    1.7722 N   0  0  0  0  0  0  0  0  0  0  0  0
   -3.2451    0.5077    1.2518 H   0  0  0  0  0  0  0  0  0  0  0  0
   -2.4787    1.3954    3.0311 C   0  0  0  0  0  0  0  0  0  0  0  0
   -1.7166    2.1767    3.0539 H   0  0  0  0  0  0  0  0  0  0  0  0
   -3.4649    1.8498    3.1344 H   0  0  0  0  0  0  0  0  0  0  0  0
   -2.3058    0.7133    3.8652 H   0  0  0  0  0  0  0  0  0  0  0  0
  5  6  2  0  0  0  0
  5  7  1  0  0  0  0
  2  3  1  0  0  0  0
  2  4  1  0  0  0  0
  2  5  1  0  0  0  0
  1  2  1  0  0  0  0
 29 30  2  0  0  0  0
 29 31  1  0  0  0  0
 26 27  1  0  0  0  0
 26 28  2  0  0  0  0
 24 25  1  0  0  0  0
 24 26  1  0  0  0  0
 22 23  1  0  0  0  0
 22 24  2  0  0  0  0
 20 21  1  0  0  0  0
 20 22  1  0  0  0  0
 19 20  2  0  0  0  0
 19 28  1  0  0  0  0
 17 18  1  0  0  0  0
 17 19  1  0  0  0  0
 15 16  1  0  0  0  0
 15 17  1  0  0  0  0
 14 15  2  0  0  0  0
 14 28  1  0  0  0  0
 11 12  1  0  0  0  0
 11 13  1  0  0  0  0
 11 14  1  0  0  0  0
  9 10  1  0  0  0  0
  9 11  1  0  0  0  0
  9 29  1  0  0  0  0
  7  8  1  0  0  0  0
  7  9  1  0  0  0  0
 33 34  1  0  0  0  0
 33 35  1  0  0  0  0
 33 36  1  0  0  0  0
 31 32  1  0  0  0  0
 31 33  1  0  0  0  0
M  END
$$$$
default_name
  -OEChem-02102213163D

 36 37  0     1  0  0  0  0  0999 V2000
   -4.0843   -4.0736    1.2944 H   0  0  0  0  0  0  0  0  0  0  0  0
   -4.0342   -3.2816    0.5484 C   0  0  0  0  0  0  0  0  0  0  0  0
   -4.8842   -2.6126    0.6694 H   0  0  0  0  0  0  0  0  0  0  0  0
   -4.0433   -3.7186   -0.4486 H   0  0  0  0  0  0  0  0  0  0  0  0
   -2.7532   -2.5046    0.7444 C   0  0  0  0  0  0  0  0  0  0  0  0
   -1.9803   -2.8096    1.6434 O   0  0  0  0  0  0  0  0  0  0  0  0
   -2.5332   -1.4966   -0.0966 N   0  0  0  0  0  0  0  0  0  0  0  0
   -3.2312   -1.2816   -0.7936 H   0  0  0  0  0  0  0  0  0  0  0  0
   -1.3593   -0.6196   -0.0536 C   0  0  1  0  0  0  0  0  0  0  0  0
   -0.4622   -1.2317   -0.1545 H   0  0  0  0  0  0  0  0  0  0  0  0
   -1.4074    0.3593   -1.2373 C   0  0  0  0  0  0  0  0  0  0  0  0
   -1.4042    1.3798   -0.8500 H   0  0  0  0  0  0  0  0  0  0  0  0
   -0.5020    0.2292   -1.8326 H   0  0  0  0  0  0  0  0  0  0  0  0
   -2.5946    0.2099   -2.1396 C   0  0  0  0  0  0  0  0  0  0  0  0
   -3.0042    1.1144   -3.0570 C   0  0  0  0  0  0  0  0  0  0  0  0
   -2.5271    2.0719   -3.2354 H   0  0  0  0  0  0  0  0  0  0  0  0
   -4.1012    0.6222   -3.7366 N   0  0  0  0  0  0  0  0  0  0  0  0
   -4.5784    1.1308   -4.4666 H   0  0  0  0  0  0  0  0  0  0  0  0
   -4.4451   -0.6393   -3.2994 C   0  0  0  0  0  0  0  0  0  0  0  0
   -5.4407   -1.5485   -3.6846 C   0  0  0  0  0  0  0  0  0  0  0  0
   -6.1338   -1.2991   -4.4745 H   0  0  0  0  0  0  0  0  0  0  0  0
   -5.5251   -2.7877   -3.0272 C   0  0  0  0  0  0  0  0  0  0  0  0
   -6.2872   -3.5011   -3.3101 H   0  0  0  0  0  0  0  0  0  0  0  0
   -4.6203   -3.0967   -1.9951 C   0  0  0  0  0  0  0  0  0  0  0  0
   -4.6940   -4.0478   -1.4863 H   0  0  0  0  0  0  0  0  0  0  0  0
   -3.6247   -2.1743   -1.6149 C   0  0  0  0  0  0  0  0  0  0  0  0
   -2.9445   -2.4189   -0.8115 H   0  0  0  0  0  0  0  0  0  0  0  0
   -3.5098   -0.9238   -2.2598 C   0  0  0  0  0  0  0  0  0  0  0  0
   -1.2663    0.1182    1.2910 C   0  0  0  0  0  0  0  0  0  0  0  0
   -0.1906    0.1931    1.8833 O   0  0  0  0  0  0  0  0  0  0  0  0
   -2.3930    0.6605    1.7722 N   0  0  0  0  0  0  0  0  0  0  0  0
   -3.2451    0.5077    1.2518 H   0  0  0  0  0  0  0  0  0  0  0  0
   -2.4787    1.3954    3.0311 C   0  0  0  0  0  0  0  0  0  0  0  0
   -1.7166    2.1767    3.0539 H   0  0  0  0  0  0  0  0  0  0  0  0
   -3.4649    1.8498    3.1344 H   0  0  0  0  0  0  0  0  0  0  0  0
   -2.3058    0.7133    3.8652 H   0  0  0  0  0  0  0  0  0  0  0  0
  5  6  2  0  0  0  0
  5  7  1  0  0  0  0
  2  3  1  0  0  0  0
  2  4  1  0  0  0  0
  2  5  1  0  0  0  0
  1  2  1  0  0  0  0
 29 30  2  0  0  0  0
 29 31  1  0  0  0  0
 26 27  1  0  0  0  0
 26 28  2  0  0  0  0
 24 25  1  0  0  0  0
 24 26  1  0  0  0  0
 22 23  1  0  0  0  0
 22 24  2  0  0  0  0
 20 21  1  0  0  0  0
 20 22  1  0  0  0  0
 19 20  2  0  0  0  0
 19 28  1  0  0  0  0
 17 18  1  0  0  0  0
 17 19  1  0  0  0  0
 15 16  1  0  0  0  0
 15 17  1  0  0  0  0
 14 15  2  0  0  0  0
 14 28  1  0  0  0  0
 11 12  1  0  0  0  0
 11 13  1  0  0  0  0
 11 14  1  0  0  0  0
  9 10  1  0  0  0  0
  9 11  1  0  0  0  0
  9 29  1  0  0  0  0
  7  8  1  0  0  0  0
  7  9  1  0  0  0  0
 33 34  1  0  0  0  0
 33 35  1  0  0  0  0
 33 36  1  0  0  0  0
 31 32  1  0  0  0  0
 31 33  1  0  0  0  0
M  END
$$$$
default_name
  -OEChem-02102213163D

 36 37  0     1  0  0  0  0  0999 V2000
   -4.0843   -4.0736    1.2944 H   0  0  0  0  0  0  0  0  0  0  0  0
   -4.0342   -3.2816    0.5484 C   0  0  0  0  0  0  0  0  0  0  0  0
   -4.8842   -2.6126    0.6694 H   0  0  0  0  0  0  0  0  0  0  0  0
   -4.0433   -3.7186   -0.4486 H   0  0  0  0  0  0  0  0  0  0  0  0
   -2.7532   -2.5046    0.7444 C   0  0  0  0  0  0  0  0  0  0  0  0
   -1.9803   -2.8096    1.6434 O   0  0  0  0  0  0  0  0  0  0  0  0
   -2.5332   -1.4966   -0.0966 N   0  0  0  0  0  0  0  0  0  0  0  0
   -3.2312   -1.2816   -0.7936 H   0  0  0  0  0  0  0  0  0  0  0  0
   -1.3593   -0.6196   -0.0536 C   0  0  1  0  0  0  0  0  0  0  0  0
   -0.4622   -1.2317   -0.1545 H   0  0  0  0  0  0  0  0  0  0  0  0
   -1.4074    0.3593   -1.2373 C   0  0  0  0  0  0  0  0  0  0  0  0
   -1.1374    1.3551   -0.8812 H   0  0  0  0  0  0  0  0  0  0  0  0
   -0.6573    0.0559   -1.9696 H   0  0  0  0  0  0  0  0  0  0  0  0
   -2.7334    0.4581   -1.9286 C   0  0  0  0  0  0  0  0  0  0  0  0
   -3.0107    1.2497   -2.9888 C   0  0  0  0  0  0  0  0  0  0  0  0
   -2.3033    1.9264   -3.4556 H   0  0  0  0  0  0  0  0  0  0  0  0
   -4.3163    1.0467   -3.3909 N   0  0  0  0  0  0  0  0  0  0  0  0
   -4.7434    1.5355   -4.1641 H   0  0  0  0  0  0  0  0  0  0  0  0
   -4.9442    0.0957   -2.6150 C   0  0  0  0  0  0  0  0  0  0  0  0
   -6.2284   -0.4671   -2.6416 C   0  0  0  0  0  0  0  0  0  0  0  0
   -6.9487   -0.1525   -3.3824 H   0  0  0  0  0  0  0  0  0  0  0  0
   -6.5652   -1.4447   -1.6899 C   0  0  0  0  0  0  0  0  0  0  0  0
   -7.5513   -1.8892   -1.6944 H   0  0  0  0  0  0  0  0  0  0  0  0
   -5.6195   -1.8400   -0.7262 C   0  0  0  0  0  0  0  0  0  0  0  0
   -5.8857   -2.5865    0.0094 H   0  0  0  0  0  0  0  0  0  0  0  0
   -4.3324   -1.2662   -0.7077 C   0  0  0  0  0  0  0  0  0  0  0  0
   -3.6199   -1.5693    0.0463 H   0  0  0  0  0  0  0  0  0  0  0  0
   -3.9611   -0.2864   -1.6538 C   0  0  0  0  0  0  0  0  0  0  0  0
   -1.2663    0.1182    1.2910 C   0  0  0  0  0  0  0  0  0  0  0  0
   -0.1906    0.1931    1.8833 O   0  0  0  0  0  0  0  0  0  0  0  0
   -2.3930    0.6605    1.7722 N   0  0  0  0  0  0  0  0  0  0  0  0
   -3.2451    0.5077    1.2518 H   0  0  0  0  0  0  0  0  0  0  0  0
   -2.4787    1.3954    3.0311 C   0  0  0  0  0  0  0  0  0  0  0  0
   -1.7166    2.1767    3.0539 H   0  0  0  0  0  0  0  0  0  0  0  0
   -3.4649    1.8498    3.1344 H   0  0  0  0  0  0  0  0  0  0  0  0
   -2.3058    0.7133    3.8652 H   0  0  0  0  0  0  0  0  0  0  0  0
  5  6  2  0  0  0  0
  5  7  1  0  0  0  0
  2  3  1  0  0  0  0
  2  4  1  0  0  0  0
  2  5  1  0  0  0  0
  1  2  1  0  0  0  0
 29 30  2  0  0  0  0
 29 31  1  0  0  0  0
 26 27  1  0  0  0  0
 26 28  2  0  0  0  0
 24 25  1  0  0  0  0
 24 26  1  0  0  0  0
 22 23  1  0  0  0  0
 22 24  2  0  0  0  0
 20 21  1  0  0  0  0
 20 22  1  0  0  0  0
 19 20  2  0  0  0  0
 19 28  1  0  0  0  0
 17 18  1  0  0  0  0
 17 19  1  0  0  0  0
 15 16  1  0  0  0  0
 15 17  1  0  0  0  0
 14 15  2  0  0  0  0
 14 28  1  0  0  0  0
 11 12  1  0  0  0  0
 11 13  1  0  0  0  0
 11 14  1  0  0  0  0
  9 10  1  0  0  0  0
  9 11  1  0  0  0  0
  9 29  1  0  0  0  0
  7  8  1  0  0  0  0
  7  9  1  0  0  0  0
 33 34  1  0  0  0  0
 33 35  1  0  0  0  0
 33 36  1  0  0  0  0
 31 32  1  0  0  0  0
 31 33  1  0  0  0  0
M  END
$$$$
default_name
  -OEChem-02102213163D

 36 37  0     1  0  0  0  0  0999 V2000
   -4.0843   -4.0736    1.2944 H   0  0  0  0  0  0  0  0  0  0  0  0
   -4.0342   -3.2816    0.5484 C   0  0  0  0  0  0  0  0  0  0  0  0
   -4.8842   -2.6126    0.6694 H   0  0  0  0  0  0  0  0  0  0  0  0
   -4.0433   -3.7186   -0.4486 H   0  0  0  0  0  0  0  0  0  0  0  0
   -2.7532   -2.5046    0.7444 C   0  0  0  0  0  0  0  0  0  0  0  0
   -1.9803   -2.8096    1.6434 O   0  0  0  0  0  0  0  0  0  0  0  0
   -2.5332   -1.4966   -0.0966 N   0  0  0  0  0  0  0  0  0  0  0  0
   -3.2312   -1.2816   -0.7936 H   0  0  0  0  0  0  0  0  0  0  0  0
   -1.3593   -0.6196   -0.0536 C   0  0  1  0  0  0  0  0  0  0  0  0
   -0.4622   -1.2317   -0.1545 H   0  0  0  0  0  0  0  0  0  0  0  0
   -1.4074    0.3593   -1.2373 C   0  0  0  0  0  0  0  0  0  0  0  0
   -1.1374    1.3551   -0.8812 H   0  0  0  0  0  0  0  0  0  0  0  0
   -0.6573    0.0559   -1.9696 H   0  0  0  0  0  0  0  0  0  0  0  0
   -2.7334    0.4581   -1.9286 C   0  0  0  0  0  0  0  0  0  0  0  0
   -2.9485    1.0148   -3.1416 C   0  0  0  0  0  0  0  0  0  0  0  0
   -2.1814    1.4763   -3.7537 H   0  0  0  0  0  0  0  0  0  0  0  0
   -4.2808    0.8854   -3.4821 N   0  0  0  0  0  0  0  0  0  0  0  0
   -4.6713    1.2333   -4.3456 H   0  0  0  0  0  0  0  0  0  0  0  0
   -4.9917    0.2198   -2.5063 C   0  0  0  0  0  0  0  0  0  0  0  0
   -6.3332   -0.1741   -2.3986 C   0  0  0  0  0  0  0  0  0  0  0  0
   -7.0342    0.0484   -3.1896 H   0  0  0  0  0  0  0  0  0  0  0  0
   -6.7529   -0.8607   -1.2464 C   0  0  0  0  0  0  0  0  0  0  0  0
   -7.7840   -1.1714   -1.1455 H   0  0  0  0  0  0  0  0  0  0  0  0
   -5.8307   -1.1377   -0.2207 C   0  0  0  0  0  0  0  0  0  0  0  0
   -6.1598   -1.6588    0.6677 H   0  0  0  0  0  0  0  0  0  0  0  0
   -4.4852   -0.7353   -0.3387 C   0  0  0  0  0  0  0  0  0  0  0  0
   -3.7902   -0.9427    0.4625 H   0  0  0  0  0  0  0  0  0  0  0  0
   -4.0309   -0.0495   -1.4860 C   0  0  0  0  0  0  0  0  0  0  0  0
   -1.2663    0.1182    1.2910 C   0  0  0  0  0  0  0  0  0  0  0  0
   -0.1906    0.1931    1.8833 O   0  0  0  0  0  0  0  0  0  0  0  0
   -2.3930    0.6605    1.7722 N   0  0  0  0  0  0  0  0  0  0  0  0
   -3.2451    0.5077    1.2518 H   0  0  0  0  0  0  0  0  0  0  0  0
   -2.4787    1.3954    3.0311 C   0  0  0  0  0  0  0  0  0  0  0  0
   -1.7166    2.1767    3.0539 H   0  0  0  0  0  0  0  0  0  0  0  0
   -3.4649    1.8498    3.1344 H   0  0  0  0  0  0  0  0  0  0  0  0
   -2.3058    0.7133    3.8652 H   0  0  0  0  0  0  0  0  0  0  0  0
  5  6  2  0  0  0  0
  5  7  1  0  0  0  0
  2  3  1  0  0  0  0
  2  4  1  0  0  0  0
  2  5  1  0  0  0  0
  1  2  1  0  0  0  0
 29 30  2  0  0  0  0
 29 31  1  0  0  0  0
 26 27  1  0  0  0  0
 26 28  2  0  0  0  0
 24 25  1  0  0  0  0
 24 26  1  0  0  0  0
 22 23  1  0  0  0  0
 22 24  2  0  0  0  0
 20 21  1  0  0  0  0
 20 22  1  0  0  0  0
 19 20  2  0  0  0  0
 19 28  1  0  0  0  0
 17 18  1  0  0  0  0
 17 19  1  0  0  0  0
 15 16  1  0  0  0  0
 15 17  1  0  0  0  0
 14 15  2  0  0  0  0
 14 28  1  0  0  0  0
 11 12  1  0  0  0  0
 11 13  1  0  0  0  0
 11 14  1  0  0  0  0
  9 10  1  0  0  0  0
  9 11  1  0  0  0  0
  9 29  1  0  0  0  0
  7  8  1  0  0  0  0
  7  9  1  0  0  0  0
 33 34  1  0  0  0  0
 33 35  1  0  0  0  0
 33 36  1  0  0  0  0
 31 32  1  0  0  0  0
 31 33  1  0  0  0  0
M  END
$$$$
default_name
  -OEChem-02102213163D

 36 37  0     1  0  0  0  0  0999 V2000
   -4.0843   -4.0736    1.2944 H   0  0  0  0  0  0  0  0  0  0  0  0
   -4.0342   -3.2816    0.5484 C   0  0  0  0  0  0  0  0  0  0  0  0
   -4.8842   -2.6126    0.6694 H   0  0  0  0  0  0  0  0  0  0  0  0
   -4.0433   -3.7186   -0.4486 H   0  0  0  0  0  0  0  0  0  0  0  0
   -2.7532   -2.5046    0.7444 C   0  0  0  0  0  0  0  0  0  0  0  0
   -1.9803   -2.8096    1.6434 O   0  0  0  0  0  0  0  0  0  0  0  0
   -2.5332   -1.4966   -0.0966 N   0  0  0  0  0  0  0  0  0  0  0  0
   -3.2312   -1.2816   -0.7936 H   0  0  0  0  0  0  0  0  0  0  0  0
   -1.3593   -0.6196   -0.0536 C   0  0  1  0  0  0  0  0  0  0  0  0
   -0.4622   -1.2317   -0.1545 H   0  0  0  0  0  0  0  0  0  0  0  0
   -1.4074    0.3593   -1.2373 C   0  0  0  0  0  0  0  0  0  0  0  0
   -1.1374    1.3551   -0.8812 H   0  0  0  0  0  0  0  0  0  0  0  0
   -0.6573    0.0559   -1.9696 H   0  0  0  0  0  0  0  0  0  0  0  0
   -2.7334    0.4581   -1.9286 C   0  0  0  0  0  0  0  0  0  0  0  0
   -2.9192    0.7455   -3.2365 C   0  0  0  0  0  0  0  0  0  0  0  0
   -2.1225    0.9587   -3.9407 H   0  0  0  0  0  0  0  0  0  0  0  0
   -4.2673    0.7046   -3.5338 N   0  0  0  0  0  0  0  0  0  0  0  0
   -4.6408    0.8912   -4.4530 H   0  0  0  0  0  0  0  0  0  0  0  0
   -5.0209    0.3703   -2.4288 C   0  0  0  0  0  0  0  0  0  0  0  0
   -6.3953    0.1771   -2.2292 C   0  0  0  0  0  0  0  0  0  0  0  0
   -7.0895    0.2968   -3.0480 H   0  0  0  0  0  0  0  0  0  0  0  0
   -6.8569   -0.1726   -0.9487 C   0  0  0  0  0  0  0  0  0  0  0  0
   -7.9137   -0.3246   -0.7757 H   0  0  0  0  0  0  0  0  0  0  0  0
   -5.9423   -0.3183    0.1104 C   0  0  0  0  0  0  0  0  0  0  0  0
   -6.3025   -0.5792    1.0959 H   0  0  0  0  0  0  0  0  0  0  0  0
   -4.5631   -0.1197   -0.1013 C   0  0  0  0  0  0  0  0  0  0  0  0
   -3.8728   -0.2218    0.7240 H   0  0  0  0  0  0  0  0  0  0  0  0
   -4.0672    0.2261   -1.3770 C   0  0  0  0  0  0  0  0  0  0  0  0
   -1.2663    0.1182    1.2910 C   0  0  0  0  0  0  0  0  0  0  0  0
   -0.1906    0.1931    1.8833 O   0  0  0  0  0  0  0  0  0  0  0  0
   -2.3930    0.6605    1.7722 N   0  0  0  0  0  0  0  0  0  0  0  0
   -3.2451    0.5077    1.2518 H   0  0  0  0  0  0  0  0  0  0  0  0
   -2.4787    1.3954    3.0311 C   0  0  0  0  0  0  0  0  0  0  0  0
   -1.7166    2.1767    3.0539 H   0  0  0  0  0  0  0  0  0  0  0  0
   -3.4649    1.8498    3.1344 H   0  0  0  0  0  0  0  0  0  0  0  0
   -2.3058    0.7133    3.8652 H   0  0  0  0  0  0  0  0  0  0  0  0
  5  6  2  0  0  0  0
  5  7  1  0  0  0  0
  2  3  1  0  0  0  0
  2  4  1  0  0  0  0
  2  5  1  0  0  0  0
  1  2  1  0  0  0  0
 29 30  2  0  0  0  0
 29 31  1  0  0  0  0
 26 27  1  0  0  0  0
 26 28  2  0  0  0  0
 24 25  1  0  0  0  0
 24 26  1  0  0  0  0
 22 23  1  0  0  0  0
 22 24  2  0  0  0  0
 20 21  1  0  0  0  0
 20 22  1  0  0  0  0
 19 20  2  0  0  0  0
 19 28  1  0  0  0  0
 17 18  1  0  0  0  0
 17 19  1  0  0  0  0
 15 16  1  0  0  0  0
 15 17  1  0  0  0  0
 14 15  2  0  0  0  0
 14 28  1  0  0  0  0
 11 12  1  0  0  0  0
 11 13  1  0  0  0  0
 11 14  1  0  0  0  0
  9 10  1  0  0  0  0
  9 11  1  0  0  0  0
  9 29  1  0  0  0  0
  7  8  1  0  0  0  0
  7  9  1  0  0  0  0
 33 34  1  0  0  0  0
 33 35  1  0  0  0  0
 33 36  1  0  0  0  0
 31 32  1  0  0  0  0
 31 33  1  0  0  0  0
M  END
$$$$
default_name
  -OEChem-02102213163D

 36 37  0     1  0  0  0  0  0999 V2000
   -4.0843   -4.0736    1.2944 H   0  0  0  0  0  0  0  0  0  0  0  0
   -4.0342   -3.2816    0.5484 C   0  0  0  0  0  0  0  0  0  0  0  0
   -4.8842   -2.6126    0.6694 H   0  0  0  0  0  0  0  0  0  0  0  0
   -4.0433   -3.7186   -0.4486 H   0  0  0  0  0  0  0  0  0  0  0  0
   -2.7532   -2.5046    0.7444 C   0  0  0  0  0  0  0  0  0  0  0  0
   -1.9803   -2.8096    1.6434 O   0  0  0  0  0  0  0  0  0  0  0  0
   -2.5332   -1.4966   -0.0966 N   0  0  0  0  0  0  0  0  0  0  0  0
   -3.2312   -1.2816   -0.7936 H   0  0  0  0  0  0  0  0  0  0  0  0
   -1.3593   -0.6196   -0.0536 C   0  0  1  0  0  0  0  0  0  0  0  0
   -0.4622   -1.2317   -0.1545 H   0  0  0  0  0  0  0  0  0  0  0  0
   -1.4074    0.3593   -1.2373 C   0  0  0  0  0  0  0  0  0  0  0  0
   -1.1374    1.3551   -0.8812 H   0  0  0  0  0  0  0  0  0  0  0  0
   -0.6573    0.0559   -1.9696 H   0  0  0  0  0  0  0  0  0  0  0  0
   -2.7334    0.4581   -1.9286 C   0  0  0  0  0  0  0  0  0  0  0  0
   -2.9245    0.4601   -3.2669 C   0  0  0  0  0  0  0  0  0  0  0  0
   -2.1305    0.4088   -4.0038 H   0  0  0  0  0  0  0  0  0  0  0  0
   -4.2767    0.5164   -3.5426 N   0  0  0  0  0  0  0  0  0  0  0  0
   -4.6541    0.5325   -4.4788 H   0  0  0  0  0  0  0  0  0  0  0  0
   -5.0297    0.5368   -2.3880 C   0  0  0  0  0  0  0  0  0  0  0  0
   -6.4106    0.5625   -2.1449 C   0  0  0  0  0  0  0  0  0  0  0  0
   -7.1109    0.5758   -2.9671 H   0  0  0  0  0  0  0  0  0  0  0  0
   -6.8700    0.5727   -0.8169 C   0  0  0  0  0  0  0  0  0  0  0  0
   -7.9315    0.5935   -0.6102 H   0  0  0  0  0  0  0  0  0  0  0  0
   -5.9465    0.5624    0.2444 C   0  0  0  0  0  0  0  0  0  0  0  0
   -6.3043    0.5786    1.2647 H   0  0  0  0  0  0  0  0  0  0  0  0
   -4.5608    0.5385   -0.0116 C   0  0  0  0  0  0  0  0  0  0  0  0
   -3.8620    0.5443    0.8128 H   0  0  0  0  0  0  0  0  0  0  0  0
   -4.0675    0.5216   -1.3342 C   0  0  0  0  0  0  0  0  0  0  0  0
   -1.2663    0.1182    1.2910 C   0  0  0  0  0  0  0  0  0  0  0  0
   -0.1906    0.1931    1.8833 O   0  0  0  0  0  0  0  0  0  0  0  0
   -2.3930    0.6605    1.7722 N   0  0  0  0  0  0  0  0  0  0  0  0
   -3.2451    0.5077    1.2518 H   0  0  0  0  0  0  0  0  0  0  0  0
   -2.4787    1.3954    3.0311 C   0  0  0  0  0  0  0  0  0  0  0  0
   -1.7166    2.1767    3.0539 H   0  0  0  0  0  0  0  0  0  0  0  0
   -3.4649    1.8498    3.1344 H   0  0  0  0  0  0  0  0  0  0  0  0
   -2.3058    0.7133    3.8652 H   0  0  0  0  0  0  0  0  0  0  0  0
  5  6  2  0  0  0  0
  5  7  1  0  0  0  0
  2  3  1  0  0  0  0
  2  4  1  0  0  0  0
  2  5  1  0  0  0  0
  1  2  1  0  0  0  0
 29 30  2  0  0  0  0
 29 31  1  0  0  0  0
 26 27  1  0  0  0  0
 26 28  2  0  0  0  0
 24 25  1  0  0  0  0
 24 26  1  0  0  0  0
 22 23  1  0  0  0  0
 22 24  2  0  0  0  0
 20 21  1  0  0  0  0
 20 22  1  0  0  0  0
 19 20  2  0  0  0  0
 19 28  1  0  0  0  0
 17 18  1  0  0  0  0
 17 19  1  0  0  0  0
 15 16  1  0  0  0  0
 15 17  1  0  0  0  0
 14 15  2  0  0  0  0
 14 28  1  0  0  0  0
 11 12  1  0  0  0  0
 11 13  1  0  0  0  0
 11 14  1  0  0  0  0
  9 10  1  0  0  0  0
  9 11  1  0  0  0  0
  9 29  1  0  0  0  0
  7  8  1  0  0  0  0
  7  9  1  0  0  0  0
 33 34  1  0  0  0  0
 33 35  1  0  0  0  0
 33 36  1  0  0  0  0
 31 32  1  0  0  0  0
 31 33  1  0  0  0  0
M  END
$$$$
default_name
  -OEChem-02102213163D

 36 37  0     1  0  0  0  0  0999 V2000
   -4.0843   -4.0736    1.2944 H   0  0  0  0  0  0  0  0  0  0  0  0
   -4.0342   -3.2816    0.5484 C   0  0  0  0  0  0  0  0  0  0  0  0
   -4.8842   -2.6126    0.6694 H   0  0  0  0  0  0  0  0  0  0  0  0
   -4.0433   -3.7186   -0.4486 H   0  0  0  0  0  0  0  0  0  0  0  0
   -2.7532   -2.5046    0.7444 C   0  0  0  0  0  0  0  0  0  0  0  0
   -1.9803   -2.8096    1.6434 O   0  0  0  0  0  0  0  0  0  0  0  0
   -2.5332   -1.4966   -0.0966 N   0  0  0  0  0  0  0  0  0  0  0  0
   -3.2312   -1.2816   -0.7936 H   0  0  0  0  0  0  0  0  0  0  0  0
   -1.3593   -0.6196   -0.0536 C   0  0  1  0  0  0  0  0  0  0  0  0
   -0.4622   -1.2317   -0.1545 H   0  0  0  0  0  0  0  0  0  0  0  0
   -1.4074    0.3593   -1.2373 C   0  0  0  0  0  0  0  0  0  0  0  0
   -1.1374    1.3551   -0.8812 H   0  0  0  0  0  0  0  0  0  0  0  0
   -0.6573    0.0559   -1.9696 H   0  0  0  0  0  0  0  0  0  0  0  0
   -2.7334    0.4581   -1.9286 C   0  0  0  0  0  0  0  0  0  0  0  0
   -2.9643    0.1781   -3.2309 C   0  0  0  0  0  0  0  0  0  0  0  0
   -2.2051   -0.1358   -3.9387 H   0  0  0  0  0  0  0  0  0  0  0  0
   -4.3084    0.3338   -3.5079 N   0  0  0  0  0  0  0  0  0  0  0  0
   -4.7101    0.1817   -4.4215 H   0  0  0  0  0  0  0  0  0  0  0  0
   -5.0177    0.7081   -2.3865 C   0  0  0  0  0  0  0  0  0  0  0  0
   -6.3778    0.9560   -2.1515 C   0  0  0  0  0  0  0  0  0  0  0  0
   -7.0969    0.8663   -2.9525 H   0  0  0  0  0  0  0  0  0  0  0  0
   -6.7916    1.3243   -0.8600 C   0  0  0  0  0  0  0  0  0  0  0  0
   -7.8364    1.5204   -0.6603 H   0  0  0  0  0  0  0  0  0  0  0  0
   -5.8432    1.4442    0.1723 C   0  0  0  0  0  0  0  0  0  0  0  0
   -6.1648    1.7359    1.1626 H   0  0  0  0  0  0  0  0  0  0  0  0
   -4.4785    1.1946   -0.0758 C   0  0  0  0  0  0  0  0  0  0  0  0
   -3.7587    1.3033    0.7230 H   0  0  0  0  0  0  0  0  0  0  0  0
   -4.0318    0.8169   -1.3606 C   0  0  0  0  0  0  0  0  0  0  0  0
   -1.2663    0.1182    1.2910 C   0  0  0  0  0  0  0  0  0  0  0  0
   -0.1906    0.1931    1.8833 O   0  0  0  0  0  0  0  0  0  0  0  0
   -2.3930    0.6605    1.7722 N   0  0  0  0  0  0  0  0  0  0  0  0
   -3.2451    0.5077    1.2518 H   0  0  0  0  0  0  0  0  0  0  0  0
   -2.4787    1.3954    3.0311 C   0  0  0  0  0  0  0  0  0  0  0  0
   -1.7166    2.1767    3.0539 H   0  0  0  0  0  0  0  0  0  0  0  0
   -3.4649    1.8498    3.1344 H   0  0  0  0  0  0  0  0  0  0  0  0
   -2.3058    0.7133    3.8652 H   0  0  0  0  0  0  0  0  0  0  0  0
  5  6  2  0  0  0  0
  5  7  1  0  0  0  0
  2  3  1  0  0  0  0
  2  4  1  0  0  0  0
  2  5  1  0  0  0  0
  1  2  1  0  0  0  0
 29 30  2  0  0  0  0
 29 31  1  0  0  0  0
 26 27  1  0  0  0  0
 26 28  2  0  0  0  0
 24 25  1  0  0  0  0
 24 26  1  0  0  0  0
 22 23  1  0  0  0  0
 22 24  2  0  0  0  0
 20 21  1  0  0  0  0
 20 22  1  0  0  0  0
 19 20  2  0  0  0  0
 19 28  1  0  0  0  0
 17 18  1  0  0  0  0
 17 19  1  0  0  0  0
 15 16  1  0  0  0  0
 15 17  1  0  0  0  0
 14 15  2  0  0  0  0
 14 28  1  0  0  0  0
 11 12  1  0  0  0  0
 11 13  1  0  0  0  0
 11 14  1  0  0  0  0
  9 10  1  0  0  0  0
  9 11  1  0  0  0  0
  9 29  1  0  0  0  0
  7  8  1  0  0  0  0
  7  9  1  0  0  0  0
 33 34  1  0  0  0  0
 33 35  1  0  0  0  0
 33 36  1  0  0  0  0
 31 32  1  0  0  0  0
 31 33  1  0  0  0  0
M  END
$$$$
default_name
  -OEChem-02102213163D

 36 37  0     1  0  0  0  0  0999 V2000
   -4.0843   -4.0736    1.2944 H   0  0  0  0  0  0  0  0  0  0  0  0
   -4.0342   -3.2816    0.5484 C   0  0  0  0  0  0  0  0  0  0  0  0
   -4.8842   -2.6126    0.6694 H   0  0  0  0  0  0  0  0  0  0  0  0
   -4.0433   -3.7186   -0.4486 H   0  0  0  0  0  0  0  0  0  0  0  0
   -2.7532   -2.5046    0.7444 C   0  0  0  0  0  0  0  0  0  0  0  0
   -1.9803   -2.8096    1.6434 O   0  0  0  0  0  0  0  0  0  0  0  0
   -2.5332   -1.4966   -0.0966 N   0  0  0  0  0  0  0  0  0  0  0  0
   -3.2312   -1.2816   -0.7936 H   0  0  0  0  0  0  0  0  0  0  0  0
   -1.3593   -0.6196   -0.0536 C   0  0  1  0  0  0  0  0  0  0  0  0
   -0.4622   -1.2317   -0.1545 H   0  0  0  0  0  0  0  0  0  0  0  0
   -1.4074    0.3593   -1.2373 C   0  0  0  0  0  0  0  0  0  0  0  0
   -1.1374    1.3551   -0.8812 H   0  0  0  0  0  0  0  0  0  0  0  0
   -0.6573    0.0559   -1.9696 H   0  0  0  0  0  0  0  0  0  0  0  0
   -2.7334    0.4581   -1.9286 C   0  0  0  0  0  0  0  0  0  0  0  0
   -3.0358   -0.0812   -3.1308 C   0  0  0  0  0  0  0  0  0  0  0  0
   -2.3409   -0.6380   -3.7498 H   0  0  0  0  0  0  0  0  0  0  0  0
   -4.3603    0.1691   -3.4319 N   0  0  0  0  0  0  0  0  0  0  0  0
   -4.8051   -0.1373   -4.2848 H   0  0  0  0  0  0  0  0  0  0  0  0
   -4.9857    0.8725   -2.4245 C   0  0  0  0  0  0  0  0  0  0  0  0
   -6.2993    1.3306   -2.2486 C   0  0  0  0  0  0  0  0  0  0  0  0
   -7.0484    1.1487   -3.0051 H   0  0  0  0  0  0  0  0  0  0  0  0
   -6.6268    2.0310   -1.0751 C   0  0  0  0  0  0  0  0  0  0  0  0
   -7.6346    2.3928   -0.9225 H   0  0  0  0  0  0  0  0  0  0  0  0
   -5.6394    2.2671   -0.1011 C   0  0  0  0  0  0  0  0  0  0  0  0
   -5.8937    2.8137    0.7965 H   0  0  0  0  0  0  0  0  0  0  0  0
   -4.3218    1.8038   -0.2894 C   0  0  0  0  0  0  0  0  0  0  0  0
   -3.5698    2.0036    0.4607 H   0  0  0  0  0  0  0  0  0  0  0  0
   -3.9625    1.0918   -1.4542 C   0  0  0  0  0  0  0  0  0  0  0  0
   -1.2663    0.1182    1.2910 C   0  0  0  0  0  0  0  0  0  0  0  0
   -0.1906    0.1931    1.8833 O   0  0  0  0  0  0  0  0  0  0  0  0
   -2.3930    0.6605    1.7722 N   0  0  0  0  0  0  0  0  0  0  0  0
   -3.2451    0.5077    1.2518 H   0  0  0  0  0  0  0  0  0  0  0  0
   -2.4787    1.3954    3.0311 C   0  0  0  0  0  0  0  0  0  0  0  0
   -1.7166    2.1767    3.0539 H   0  0  0  0  0  0  0  0  0  0  0  0
   -3.4649    1.8498    3.1344 H   0  0  0  0  0  0  0  0  0  0  0  0
   -2.3058    0.7133    3.8652 H   0  0  0  0  0  0  0  0  0  0  0  0
  5  6  2  0  0  0  0
  5  7  1  0  0  0  0
  2  3  1  0  0  0  0
  2  4  1  0  0  0  0
  2  5  1  0  0  0  0
  1  2  1  0  0  0  0
 29 30  2  0  0  0  0
 29 31  1  0  0  0  0
 26 27  1  0  0  0  0
 26 28  2  0  0  0  0
 24 25  1  0  0  0  0
 24 26  1  0  0  0  0
 22 23  1  0  0  0  0
 22 24  2  0  0  0  0
 20 21  1  0  0  0  0
 20 22  1  0  0  0  0
 19 20  2  0  0  0  0
 19 28  1  0  0  0  0
 17 18  1  0  0  0  0
 17 19  1  0  0  0  0
 15 16  1  0  0  0  0
 15 17  1  0  0  0  0
 14 15  2  0  0  0  0
 14 28  1  0  0  0  0
 11 12  1  0  0  0  0
 11 13  1  0  0  0  0
 11 14  1  0  0  0  0
  9 10  1  0  0  0  0
  9 11  1  0  0  0  0
  9 29  1  0  0  0  0
  7  8  1  0  0  0  0
  7  9  1  0  0  0  0
 33 34  1  0  0  0  0
 33 35  1  0  0  0  0
 33 36  1  0  0  0  0
 31 32  1  0  0  0  0
 31 33  1  0  0  0  0
M  END
$$$$
default_name
  -OEChem-02102213163D

 36 37  0     1  0  0  0  0  0999 V2000
   -4.0843   -4.0736    1.2944 H   0  0  0  0  0  0  0  0  0  0  0  0
   -4.0342   -3.2816    0.5484 C   0  0  0  0  0  0  0  0  0  0  0  0
   -4.8842   -2.6126    0.6694 H   0  0  0  0  0  0  0  0  0  0  0  0
   -4.0433   -3.7186   -0.4486 H   0  0  0  0  0  0  0  0  0  0  0  0
   -2.7532   -2.5046    0.7444 C   0  0  0  0  0  0  0  0  0  0  0  0
   -1.9803   -2.8096    1.6434 O   0  0  0  0  0  0  0  0  0  0  0  0
   -2.5332   -1.4966   -0.0966 N   0  0  0  0  0  0  0  0  0  0  0  0
   -3.2312   -1.2816   -0.7936 H   0  0  0  0  0  0  0  0  0  0  0  0
   -1.3593   -0.6196   -0.0536 C   0  0  1  0  0  0  0  0  0  0  0  0
   -0.4622   -1.2317   -0.1545 H   0  0  0  0  0  0  0  0  0  0  0  0
   -1.4074    0.3593   -1.2373 C   0  0  0  0  0  0  0  0  0  0  0  0
   -1.1374    1.3551   -0.8812 H   0  0  0  0  0  0  0  0  0  0  0  0
   -0.6573    0.0559   -1.9696 H   0  0  0  0  0  0  0  0  0  0  0  0
   -2.7334    0.4581   -1.9286 C   0  0  0  0  0  0  0  0  0  0  0  0
   -3.1341   -0.3003   -2.9735 C   0  0  0  0  0  0  0  0  0  0  0  0
   -2.5289   -1.0636   -3.4501 H   0  0  0  0  0  0  0  0  0  0  0  0
   -4.4287    0.0337   -3.3200 N   0  0  0  0  0  0  0  0  0  0  0  0
   -4.9327   -0.4028   -4.0780 H   0  0  0  0  0  0  0  0  0  0  0  0
   -4.9357    1.0188   -2.4994 C   0  0  0  0  0  0  0  0  0  0  0  0
   -6.1804    1.6608   -2.4294 C   0  0  0  0  0  0  0  0  0  0  0  0
   -6.9688    1.4035   -3.1215 H   0  0  0  0  0  0  0  0  0  0  0  0
   -6.3869    2.6448   -1.4475 C   0  0  0  0  0  0  0  0  0  0  0  0
   -7.3401    3.1514   -1.3791 H   0  0  0  0  0  0  0  0  0  0  0  0
   -5.3489    2.9750   -0.5570 C   0  0  0  0  0  0  0  0  0  0  0  0
   -5.5094    3.7386    0.1915 H   0  0  0  0  0  0  0  0  0  0  0  0
   -4.1013    2.3246   -0.6379 C   0  0  0  0  0  0  0  0  0  0  0  0
   -3.3082    2.5973    0.0437 H   0  0  0  0  0  0  0  0  0  0  0  0
   -3.8643    1.3276   -1.6088 C   0  0  0  0  0  0  0  0  0  0  0  0
   -1.2663    0.1182    1.2910 C   0  0  0  0  0  0  0  0  0  0  0  0
   -0.1906    0.1931    1.8833 O   0  0  0  0  0  0  0  0  0  0  0  0
   -2.3930    0.6605    1.7722 N   0  0  0  0  0  0  0  0  0  0  0  0
   -3.2451    0.5077    1.2518 H   0  0  0  0  0  0  0  0  0  0  0  0
   -2.4787    1.3954    3.0311 C   0  0  0  0  0  0  0  0  0  0  0  0
   -1.7166    2.1767    3.0539 H   0  0  0  0  0  0  0  0  0  0  0  0
   -3.4649    1.8498    3.1344 H   0  0  0  0  0  0  0  0  0  0  0  0
   -2.3058    0.7133    3.8652 H   0  0  0  0  0  0  0  0  0  0  0  0
  5  6  2  0  0  0  0
  5  7  1  0  0  0  0
  2  3  1  0  0  0  0
  2  4  1  0  0  0  0
  2  5  1  0  0  0  0
  1  2  1  0  0  0  0
 29 30  2  0  0  0  0
 29 31  1  0  0  0  0
 26 27  1  0  0  0  0
 26 28  2  0  0  0  0
 24 25  1  0  0  0  0
 24 26  1  0  0  0  0
 22 23  1  0  0  0  0
 22 24  2  0  0  0  0
 20 21  1  0  0  0  0
 20 22  1  0  0  0  0
 19 20  2  0  0  0  0
 19 28  1  0  0  0  0
 17 18  1  0  0  0  0
 17 19  1  0  0  0  0
 15 16  1  0  0  0  0
 15 17  1  0  0  0  0
 14 15  2  0  0  0  0
 14 28  1  0  0  0  0
 11 12  1  0  0  0  0
 11 13  1  0  0  0  0
 11 14  1  0  0  0  0
  9 10  1  0  0  0  0
  9 11  1  0  0  0  0
  9 29  1  0  0  0  0
  7  8  1  0  0  0  0
  7  9  1  0  0  0  0
 33 34  1  0  0  0  0
 33 35  1  0  0  0  0
 33 36  1  0  0  0  0
 31 32  1  0  0  0  0
 31 33  1  0  0  0  0
M  END
$$$$
default_name
  -OEChem-02102213163D

 36 37  0     1  0  0  0  0  0999 V2000
   -4.0843   -4.0736    1.2944 H   0  0  0  0  0  0  0  0  0  0  0  0
   -4.0342   -3.2816    0.5484 C   0  0  0  0  0  0  0  0  0  0  0  0
   -4.8842   -2.6126    0.6694 H   0  0  0  0  0  0  0  0  0  0  0  0
   -4.0433   -3.7186   -0.4486 H   0  0  0  0  0  0  0  0  0  0  0  0
   -2.7532   -2.5046    0.7444 C   0  0  0  0  0  0  0  0  0  0  0  0
   -1.9803   -2.8096    1.6434 O   0  0  0  0  0  0  0  0  0  0  0  0
   -2.5332   -1.4966   -0.0966 N   0  0  0  0  0  0  0  0  0  0  0  0
   -3.2312   -1.2816   -0.7936 H   0  0  0  0  0  0  0  0  0  0  0  0
   -1.3593   -0.6196   -0.0536 C   0  0  1  0  0  0  0  0  0  0  0  0
   -0.4622   -1.2317   -0.1545 H   0  0  0  0  0  0  0  0  0  0  0  0
   -1.4074    0.3593   -1.2373 C   0  0  0  0  0  0  0  0  0  0  0  0
   -1.1374    1.3551   -0.8812 H   0  0  0  0  0  0  0  0  0  0  0  0
   -0.6573    0.0559   -1.9696 H   0  0  0  0  0  0  0  0  0  0  0  0
   -2.7334    0.4581   -1.9286 C   0  0  0  0  0  0  0  0  0  0  0  0
   -3.2526   -0.4641   -2.7697 C   0  0  0  0  0  0  0  0  0  0  0  0
   -2.7562   -1.3837   -3.0598 H   0  0  0  0  0  0  0  0  0  0  0  0
   -4.5091   -0.0634   -3.1797 N   0  0  0  0  0  0  0  0  0  0  0  0
   -5.0841   -0.5967   -3.8154 H   0  0  0  0  0  0  0  0  0  0  0  0
   -4.8713    1.1369   -2.6061 C   0  0  0  0  0  0  0  0  0  0  0  0
   -6.0292    1.9242   -2.6818 C   0  0  0  0  0  0  0  0  0  0  0  0
   -6.8634    1.6135   -3.2936 H   0  0  0  0  0  0  0  0  0  0  0  0
   -6.0883    3.1237   -1.9519 C   0  0  0  0  0  0  0  0  0  0  0  0
   -6.9728    3.7444   -1.9989 H   0  0  0  0  0  0  0  0  0  0  0  0
   -4.9917    3.5198   -1.1646 C   0  0  0  0  0  0  0  0  0  0  0  0
   -5.0381    4.4475   -0.6112 H   0  0  0  0  0  0  0  0  0  0  0  0
   -3.8321    2.7215   -1.0976 C   0  0  0  0  0  0  0  0  0  0  0  0
   -2.9917    3.0441   -0.4995 H   0  0  0  0  0  0  0  0  0  0  0  0
   -3.7440    1.5082   -1.8138 C   0  0  0  0  0  0  0  0  0  0  0  0
   -1.2663    0.1182    1.2910 C   0  0  0  0  0  0  0  0  0  0  0  0
   -0.1906    0.1931    1.8833 O   0  0  0  0  0  0  0  0  0  0  0  0
   -2.3930    0.6605    1.7722 N   0  0  0  0  0  0  0  0  0  0  0  0
   -3.2451    0.5077    1.2518 H   0  0  0  0  0  0  0  0  0  0  0  0
   -2.4787    1.3954    3.0311 C   0  0  0  0  0  0  0  0  0  0  0  0
   -1.7166    2.1767    3.0539 H   0  0  0  0  0  0  0  0  0  0  0  0
   -3.4649    1.8498    3.1344 H   0  0  0  0  0  0  0  0  0  0  0  0
   -2.3058    0.7133    3.8652 H   0  0  0  0  0  0  0  0  0  0  0  0
  5  6  2  0  0  0  0
  5  7  1  0  0  0  0
  2  3  1  0  0  0  0
  2  4  1  0  0  0  0
  2  5  1  0  0  0  0
  1  2  1  0  0  0  0
 29 30  2  0  0  0  0
 29 31  1  0  0  0  0
 26 27  1  0  0  0  0
 26 28  2  0  0  0  0
 24 25  1  0  0  0  0
 24 26  1  0  0  0  0
 22 23  1  0  0  0  0
 22 24  2  0  0  0  0
 20 21  1  0  0  0  0
 20 22  1  0  0  0  0
 19 20  2  0  0  0  0
 19 28  1  0  0  0  0
 17 18  1  0  0  0  0
 17 19  1  0  0  0  0
 15 16  1  0  0  0  0
 15 17  1  0  0  0  0
 14 15  2  0  0  0  0
 14 28  1  0  0  0  0
 11 12  1  0  0  0  0
 11 13  1  0  0  0  0
 11 14  1  0  0  0  0
  9 10  1  0  0  0  0
  9 11  1  0  0  0  0
  9 29  1  0  0  0  0
  7  8  1  0  0  0  0
  7  9  1  0  0  0  0
 33 34  1  0  0  0  0
 33 35  1  0  0  0  0
 33 36  1  0  0  0  0
 31 32  1  0  0  0  0
 31 33  1  0  0  0  0
M  END
$$$$
default_name
  -OEChem-02102213163D

 36 37  0     1  0  0  0  0  0999 V2000
   -4.0843   -4.0736    1.2944 H   0  0  0  0  0  0  0  0  0  0  0  0
   -4.0342   -3.2816    0.5484 C   0  0  0  0  0  0  0  0  0  0  0  0
   -4.8842   -2.6126    0.6694 H   0  0  0  0  0  0  0  0  0  0  0  0
   -4.0433   -3.7186   -0.4486 H   0  0  0  0  0  0  0  0  0  0  0  0
   -2.7532   -2.5046    0.7444 C   0  0  0  0  0  0  0  0  0  0  0  0
   -1.9803   -2.8096    1.6434 O   0  0  0  0  0  0  0  0  0  0  0  0
   -2.5332   -1.4966   -0.0966 N   0  0  0  0  0  0  0  0  0  0  0  0
   -3.2312   -1.2816   -0.7936 H   0  0  0  0  0  0  0  0  0  0  0  0
   -1.3593   -0.6196   -0.0536 C   0  0  1  0  0  0  0  0  0  0  0  0
   -0.4622   -1.2317   -0.1545 H   0  0  0  0  0  0  0  0  0  0  0  0
   -1.4074    0.3593   -1.2373 C   0  0  0  0  0  0  0  0  0  0  0  0
   -1.1374    1.3551   -0.8812 H   0  0  0  0  0  0  0  0  0  0  0  0
   -0.6573    0.0559   -1.9696 H   0  0  0  0  0  0  0  0  0  0  0  0
   -2.7334    0.4581   -1.9286 C   0  0  0  0  0  0  0  0  0  0  0  0
   -3.3831   -0.5616   -2.5334 C   0  0  0  0  0  0  0  0  0  0  0  0
   -3.0073   -1.5763   -2.6057 H   0  0  0  0  0  0  0  0  0  0  0  0
   -4.5959   -0.1154   -3.0205 N   0  0  0  0  0  0  0  0  0  0  0  0
   -5.2489   -0.7058   -3.5147 H   0  0  0  0  0  0  0  0  0  0  0  0
   -4.7968    1.2189   -2.7374 C   0  0  0  0  0  0  0  0  0  0  0  0
   -5.8561    2.1027   -2.9884 C   0  0  0  0  0  0  0  0  0  0  0  0
   -6.7395    1.7644   -3.5098 H   0  0  0  0  0  0  0  0  0  0  0  0
   -5.7513    3.4351   -2.5539 C   0  0  0  0  0  0  0  0  0  0  0  0
   -6.5579    4.1314   -2.7396 H   0  0  0  0  0  0  0  0  0  0  0  0
   -4.5919    3.8642   -1.8823 C   0  0  0  0  0  0  0  0  0  0  0  0
   -4.5119    4.8922   -1.5570 H   0  0  0  0  0  0  0  0  0  0  0  0
   -3.5325    2.9675   -1.6371 C   0  0  0  0  0  0  0  0  0  0  0  0
   -2.6419    3.3135   -1.1319 H   0  0  0  0  0  0  0  0  0  0  0  0
   -3.6097    1.6214   -2.0553 C   0  0  0  0  0  0  0  0  0  0  0  0
   -1.2663    0.1182    1.2910 C   0  0  0  0  0  0  0  0  0  0  0  0
   -0.1906    0.1931    1.8833 O   0  0  0  0  0  0  0  0  0  0  0  0
   -2.3930    0.6605    1.7722 N   0  0  0  0  0  0  0  0  0  0  0  0
   -3.2451    0.5077    1.2518 H   0  0  0  0  0  0  0  0  0  0  0  0
   -2.4787    1.3954    3.0311 C   0  0  0  0  0  0  0  0  0  0  0  0
   -1.7166    2.1767    3.0539 H   0  0  0  0  0  0  0  0  0  0  0  0
   -3.4649    1.8498    3.1344 H   0  0  0  0  0  0  0  0  0  0  0  0
   -2.3058    0.7133    3.8652 H   0  0  0  0  0  0  0  0  0  0  0  0
  5  6  2  0  0  0  0
  5  7  1  0  0  0  0
  2  3  1  0  0  0  0
  2  4  1  0  0  0  0
  2  5  1  0  0  0  0
  1  2  1  0  0  0  0
 29 30  2  0  0  0  0
 29 31  1  0  0  0  0
 26 27  1  0  0  0  0
 26 28  2  0  0  0  0
 24 25  1  0  0  0  0
 24 26  1  0  0  0  0
 22 23  1  0  0  0  0
 22 24  2  0  0  0  0
 20 21  1  0  0  0  0
 20 22  1  0  0  0  0
 19 20  2  0  0  0  0
 19 28  1  0  0  0  0
 17 18  1  0  0  0  0
 17 19  1  0  0  0  0
 15 16  1  0  0  0  0
 15 17  1  0  0  0  0
 14 15  2  0  0  0  0
 14 28  1  0  0  0  0
 11 12  1  0  0  0  0
 11 13  1  0  0  0  0
 11 14  1  0  0  0  0
  9 10  1  0  0  0  0
  9 11  1  0  0  0  0
  9 29  1  0  0  0  0
  7  8  1  0  0  0  0
  7  9  1  0  0  0  0
 33 34  1  0  0  0  0
 33 35  1  0  0  0  0
 33 36  1  0  0  0  0
 31 32  1  0  0  0  0
 31 33  1  0  0  0  0
M  END
$$$$
default_name
  -OEChem-02102213163D

 36 37  0     1  0  0  0  0  0999 V2000
   -4.0843   -4.0736    1.2944 H   0  0  0  0  0  0  0  0  0  0  0  0
   -4.0342   -3.2816    0.5484 C   0  0  0  0  0  0  0  0  0  0  0  0
   -4.8842   -2.6126    0.6694 H   0  0  0  0  0  0  0  0  0  0  0  0
   -4.0433   -3.7186   -0.4486 H   0  0  0  0  0  0  0  0  0  0  0  0
   -2.7532   -2.5046    0.7444 C   0  0  0  0  0  0  0  0  0  0  0  0
   -1.9803   -2.8096    1.6434 O   0  0  0  0  0  0  0  0  0  0  0  0
   -2.5332   -1.4966   -0.0966 N   0  0  0  0  0  0  0  0  0  0  0  0
   -3.2312   -1.2816   -0.7936 H   0  0  0  0  0  0  0  0  0  0  0  0
   -1.3593   -0.6196   -0.0536 C   0  0  1  0  0  0  0  0  0  0  0  0
   -0.4622   -1.2317   -0.1545 H   0  0  0  0  0  0  0  0  0  0  0  0
   -1.4074    0.3593   -1.2373 C   0  0  0  0  0  0  0  0  0  0  0  0
   -1.1374    1.3551   -0.8812 H   0  0  0  0  0  0  0  0  0  0  0  0
   -0.6573    0.0559   -1.9696 H   0  0  0  0  0  0  0  0  0  0  0  0
   -2.7334    0.4581   -1.9286 C   0  0  0  0  0  0  0  0  0  0  0  0
   -3.5167   -0.5860   -2.2805 C   0  0  0  0  0  0  0  0  0  0  0  0
   -3.2651   -1.6284   -2.1187 H   0  0  0  0  0  0  0  0  0  0  0  0
   -4.6833   -0.1188   -2.8534 N   0  0  0  0  0  0  0  0  0  0  0  0
   -5.4161   -0.7226   -3.1965 H   0  0  0  0  0  0  0  0  0  0  0  0
   -4.7173    1.2591   -2.8842 C   0  0  0  0  0  0  0  0  0  0  0  0
   -5.6727    2.1843   -3.3285 C   0  0  0  0  0  0  0  0  0  0  0  0
   -6.6055    1.8458   -3.7552 H   0  0  0  0  0  0  0  0  0  0  0  0
   -5.3988    3.5578   -3.2124 C   0  0  0  0  0  0  0  0  0  0  0  0
   -6.1235    4.2860   -3.5508 H   0  0  0  0  0  0  0  0  0  0  0  0
   -4.1768    3.9847   -2.6612 C   0  0  0  0  0  0  0  0  0  0  0  0
   -3.9667    5.0423   -2.5814 H   0  0  0  0  0  0  0  0  0  0  0  0
   -3.2230    3.0459   -2.2196 C   0  0  0  0  0  0  0  0  0  0  0  0
   -2.2827    3.3872   -1.8104 H   0  0  0  0  0  0  0  0  0  0  0  0
   -3.4706    1.6594   -2.3167 C   0  0  0  0  0  0  0  0  0  0  0  0
   -1.2663    0.1182    1.2910 C   0  0  0  0  0  0  0  0  0  0  0  0
   -0.1906    0.1931    1.8833 O   0  0  0  0  0  0  0  0  0  0  0  0
   -2.3930    0.6605    1.7722 N   0  0  0  0  0  0  0  0  0  0  0  0
   -3.2451    0.5077    1.2518 H   0  0  0  0  0  0  0  0  0  0  0  0
   -2.4787    1.3954    3.0311 C   0  0  0  0  0  0  0  0  0  0  0  0
   -1.7166    2.1767    3.0539 H   0  0  0  0  0  0  0  0  0  0  0  0
   -3.4649    1.8498    3.1344 H   0  0  0  0  0  0  0  0  0  0  0  0
   -2.3058    0.7133    3.8652 H   0  0  0  0  0  0  0  0  0  0  0  0
  5  6  2  0  0  0  0
  5  7  1  0  0  0  0
  2  3  1  0  0  0  0
  2  4  1  0  0  0  0
  2  5  1  0  0  0  0
  1  2  1  0  0  0  0
 29 30  2  0  0  0  0
 29 31  1  0  0  0  0
 26 27  1  0  0  0  0
 26 28  2  0  0  0  0
 24 25  1  0  0  0  0
 24 26  1  0  0  0  0
 22 23  1  0  0  0  0
 22 24  2  0  0  0  0
 20 21  1  0  0  0  0
 20 22  1  0  0  0  0
 19 20  2  0  0  0  0
 19 28  1  0  0  0  0
 17 18  1  0  0  0  0
 17 19  1  0  0  0  0
 15 16  1  0  0  0  0
 15 17  1  0  0  0  0
 14 15  2  0  0  0  0
 14 28  1  0  0  0  0
 11 12  1  0  0  0  0
 11 13  1  0  0  0  0
 11 14  1  0  0  0  0
  9 10  1  0  0  0  0
  9 11  1  0  0  0  0
  9 29  1  0  0  0  0
  7  8  1  0  0  0  0
  7  9  1  0  0  0  0
 33 34  1  0  0  0  0
 33 35  1  0  0  0  0
 33 36  1  0  0  0  0
 31 32  1  0  0  0  0
 31 33  1  0  0  0  0
M  END
$$$$
default_name
  -OEChem-02102213163D

 36 37  0     1  0  0  0  0  0999 V2000
   -4.0843   -4.0736    1.2944 H   0  0  0  0  0  0  0  0  0  0  0  0
   -4.0342   -3.2816    0.5484 C   0  0  0  0  0  0  0  0  0  0  0  0
   -4.8842   -2.6126    0.6694 H   0  0  0  0  0  0  0  0  0  0  0  0
   -4.0433   -3.7186   -0.4486 H   0  0  0  0  0  0  0  0  0  0  0  0
   -2.7532   -2.5046    0.7444 C   0  0  0  0  0  0  0  0  0  0  0  0
   -1.9803   -2.8096    1.6434 O   0  0  0  0  0  0  0  0  0  0  0  0
   -2.5332   -1.4966   -0.0966 N   0  0  0  0  0  0  0  0  0  0  0  0
   -3.2312   -1.2816   -0.7936 H   0  0  0  0  0  0  0  0  0  0  0  0
   -1.3593   -0.6196   -0.0536 C   0  0  1  0  0  0  0  0  0  0  0  0
   -0.4622   -1.2317   -0.1545 H   0  0  0  0  0  0  0  0  0  0  0  0
   -1.4074    0.3593   -1.2373 C   0  0  0  0  0  0  0  0  0  0  0  0
   -1.1374    1.3551   -0.8812 H   0  0  0  0  0  0  0  0  0  0  0  0
   -0.6573    0.0559   -1.9696 H   0  0  0  0  0  0  0  0  0  0  0  0
   -2.7334    0.4581   -1.9286 C   0  0  0  0  0  0  0  0  0  0  0  0
   -3.6444   -0.5358   -2.0284 C   0  0  0  0  0  0  0  0  0  0  0  0
   -3.5120   -1.5365   -1.6319 H   0  0  0  0  0  0  0  0  0  0  0  0
   -4.7652   -0.0734   -2.6897 N   0  0  0  0  0  0  0  0  0  0  0  0
   -5.5741   -0.6460   -2.8824 H   0  0  0  0  0  0  0  0  0  0  0  0
   -4.6382    1.2549   -3.0365 C   0  0  0  0  0  0  0  0  0  0  0  0
   -5.4917    2.1634   -3.6788 C   0  0  0  0  0  0  0  0  0  0  0  0
   -6.4705    1.8523   -4.0132 H   0  0  0  0  0  0  0  0  0  0  0  0
   -5.0550    3.4835   -3.8826 C   0  0  0  0  0  0  0  0  0  0  0  0
   -5.6993    4.1978   -4.3771 H   0  0  0  0  0  0  0  0  0  0  0  0
   -3.7749    3.8733   -3.4482 C   0  0  0  0  0  0  0  0  0  0  0  0
   -3.4397    4.8877   -3.6146 H   0  0  0  0  0  0  0  0  0  0  0  0
   -2.9246    2.9511   -2.8056 C   0  0  0  0  0  0  0  0  0  0  0  0
   -1.9386    3.2601   -2.4888 H   0  0  0  0  0  0  0  0  0  0  0  0
   -3.3361    1.6196   -2.5803 C   0  0  0  0  0  0  0  0  0  0  0  0
   -1.2663    0.1182    1.2910 C   0  0  0  0  0  0  0  0  0  0  0  0
   -0.1906    0.1931    1.8833 O   0  0  0  0  0  0  0  0  0  0  0  0
   -2.3930    0.6605    1.7722 N   0  0  0  0  0  0  0  0  0  0  0  0
   -3.2451    0.5077    1.2518 H   0  0  0  0  0  0  0  0  0  0  0  0
   -2.4787    1.3954    3.0311 C   0  0  0  0  0  0  0  0  0  0  0  0
   -1.7166    2.1767    3.0539 H   0  0  0  0  0  0  0  0  0  0  0  0
   -3.4649    1.8498    3.1344 H   0  0  0  0  0  0  0  0  0  0  0  0
   -2.3058    0.7133    3.8652 H   0  0  0  0  0  0  0  0  0  0  0  0
  5  6  2  0  0  0  0
  5  7  1  0  0  0  0
  2  3  1  0  0  0  0
  2  4  1  0  0  0  0
  2  5  1  0  0  0  0
  1  2  1  0  0  0  0
 29 30  2  0  0  0  0
 29 31  1  0  0  0  0
 26 27  1  0  0  0  0
 26 28  2  0  0  0  0
 24 25  1  0  0  0  0
 24 26  1  0  0  0  0
 22 23  1  0  0  0  0
 22 24  2  0  0  0  0
 20 21  1  0  0  0  0
 20 22  1  0  0  0  0
 19 20  2  0  0  0  0
 19 28  1  0  0  0  0
 17 18  1  0  0  0  0
 17 19  1  0  0  0  0
 15 16  1  0  0  0  0
 15 17  1  0  0  0  0
 14 15  2  0  0  0  0
 14 28  1  0  0  0  0
 11 12  1  0  0  0  0
 11 13  1  0  0  0  0
 11 14  1  0  0  0  0
  9 10  1  0  0  0  0
  9 11  1  0  0  0  0
  9 29  1  0  0  0  0
  7  8  1  0  0  0  0
  7  9  1  0  0  0  0
 33 34  1  0  0  0  0
 33 35  1  0  0  0  0
 33 36  1  0  0  0  0
 31 32  1  0  0  0  0
 31 33  1  0  0  0  0
M  END
$$$$
default_name
  -OEChem-02102213163D

 36 37  0     1  0  0  0  0  0999 V2000
   -4.0843   -4.0736    1.2944 H   0  0  0  0  0  0  0  0  0  0  0  0
   -4.0342   -3.2816    0.5484 C   0  0  0  0  0  0  0  0  0  0  0  0
   -4.8842   -2.6126    0.6694 H   0  0  0  0  0  0  0  0  0  0  0  0
   -4.0433   -3.7186   -0.4486 H   0  0  0  0  0  0  0  0  0  0  0  0
   -2.7532   -2.5046    0.7444 C   0  0  0  0  0  0  0  0  0  0  0  0
   -1.9803   -2.8096    1.6434 O   0  0  0  0  0  0  0  0  0  0  0  0
   -2.5332   -1.4966   -0.0966 N   0  0  0  0  0  0  0  0  0  0  0  0
   -3.2312   -1.2816   -0.7936 H   0  0  0  0  0  0  0  0  0  0  0  0
   -1.3593   -0.6196   -0.0536 C   0  0  1  0  0  0  0  0  0  0  0  0
   -0.4622   -1.2317   -0.1545 H   0  0  0  0  0  0  0  0  0  0  0  0
   -1.4074    0.3593   -1.2373 C   0  0  0  0  0  0  0  0  0  0  0  0
   -1.1374    1.3551   -0.8812 H   0  0  0  0  0  0  0  0  0  0  0  0
   -0.6573    0.0559   -1.9696 H   0  0  0  0  0  0  0  0  0  0  0  0
   -2.7334    0.4581   -1.9286 C   0  0  0  0  0  0  0  0  0  0  0  0
   -3.7574   -0.4143   -1.7942 C   0  0  0  0  0  0  0  0  0  0  0  0
   -3.7312   -1.3067   -1.1785 H   0  0  0  0  0  0  0  0  0  0  0  0
   -4.8362    0.0177   -2.5406 N   0  0  0  0  0  0  0  0  0  0  0  0
   -5.7122   -0.4812   -2.5938 H   0  0  0  0  0  0  0  0  0  0  0  0
   -4.5648    1.2064   -3.1841 C   0  0  0  0  0  0  0  0  0  0  0  0
   -5.3253    2.0413   -4.0154 C   0  0  0  0  0  0  0  0  0  0  0  0
   -6.3437    1.7833   -4.2662 H   0  0  0  0  0  0  0  0  0  0  0  0
   -4.7432    3.2171   -4.5189 C   0  0  0  0  0  0  0  0  0  0  0  0
   -5.3141    3.8727   -5.1624 H   0  0  0  0  0  0  0  0  0  0  0  0
   -3.4133    3.5374   -4.1898 C   0  0  0  0  0  0  0  0  0  0  0  0
   -2.9666    4.4387   -4.5861 H   0  0  0  0  0  0  0  0  0  0  0  0
   -2.6577    2.6898   -3.3549 C   0  0  0  0  0  0  0  0  0  0  0  0
   -1.6329    2.9408   -3.1208 H   0  0  0  0  0  0  0  0  0  0  0  0
   -3.2155    1.5048   -2.8282 C   0  0  0  0  0  0  0  0  0  0  0  0
   -1.2663    0.1182    1.2910 C   0  0  0  0  0  0  0  0  0  0  0  0
   -0.1906    0.1931    1.8833 O   0  0  0  0  0  0  0  0  0  0  0  0
   -2.3930    0.6605    1.7722 N   0  0  0  0  0  0  0  0  0  0  0  0
   -3.2451    0.5077    1.2518 H   0  0  0  0  0  0  0  0  0  0  0  0
   -2.4787    1.3954    3.0311 C   0  0  0  0  0  0  0  0  0  0  0  0
   -1.7166    2.1767    3.0539 H   0  0  0  0  0  0  0  0  0  0  0  0
   -3.4649    1.8498    3.1344 H   0  0  0  0  0  0  0  0  0  0  0  0
   -2.3058    0.7133    3.8652 H   0  0  0  0  0  0  0  0  0  0  0  0
  5  6  2  0  0  0  0
  5  7  1  0  0  0  0
  2  3  1  0  0  0  0
  2  4  1  0  0  0  0
  2  5  1  0  0  0  0
  1  2  1  0  0  0  0
 29 30  2  0  0  0  0
 29 31  1  0  0  0  0
 26 27  1  0  0  0  0
 26 28  2  0  0  0  0
 24 25  1  0  0  0  0
 24 26  1  0  0  0  0
 22 23  1  0  0  0  0
 22 24  2  0  0  0  0
 20 21  1  0  0  0  0
 20 22  1  0  0  0  0
 19 20  2  0  0  0  0
 19 28  1  0  0  0  0
 17 18  1  0  0  0  0
 17 19  1  0  0  0  0
 15 16  1  0  0  0  0
 15 17  1  0  0  0  0
 14 15  2  0  0  0  0
 14 28  1  0  0  0  0
 11 12  1  0  0  0  0
 11 13  1  0  0  0  0
 11 14  1  0  0  0  0
  9 10  1  0  0  0  0
  9 11  1  0  0  0  0
  9 29  1  0  0  0  0
  7  8  1  0  0  0  0
  7  9  1  0  0  0  0
 33 34  1  0  0  0  0
 33 35  1  0  0  0  0
 33 36  1  0  0  0  0
 31 32  1  0  0  0  0
 31 33  1  0  0  0  0
M  END
$$$$
default_name
  -OEChem-02102213163D

 36 37  0     1  0  0  0  0  0999 V2000
   -4.0843   -4.0736    1.2944 H   0  0  0  0  0  0  0  0  0  0  0  0
   -4.0342   -3.2816    0.5484 C   0  0  0  0  0  0  0  0  0  0  0  0
   -4.8842   -2.6126    0.6694 H   0  0  0  0  0  0  0  0  0  0  0  0
   -4.0433   -3.7186   -0.4486 H   0  0  0  0  0  0  0  0  0  0  0  0
   -2.7532   -2.5046    0.7444 C   0  0  0  0  0  0  0  0  0  0  0  0
   -1.9803   -2.8096    1.6434 O   0  0  0  0  0  0  0  0  0  0  0  0
   -2.5332   -1.4966   -0.0966 N   0  0  0  0  0  0  0  0  0  0  0  0
   -3.2312   -1.2816   -0.7936 H   0  0  0  0  0  0  0  0  0  0  0  0
   -1.3593   -0.6196   -0.0536 C   0  0  1  0  0  0  0  0  0  0  0  0
   -0.4622   -1.2317   -0.1545 H   0  0  0  0  0  0  0  0  0  0  0  0
   -1.4074    0.3593   -1.2373 C   0  0  0  0  0  0  0  0  0  0  0  0
   -1.1374    1.3551   -0.8812 H   0  0  0  0  0  0  0  0  0  0  0  0
   -0.6573    0.0559   -1.9696 H   0  0  0  0  0  0  0  0  0  0  0  0
   -2.7334    0.4581   -1.9286 C   0  0  0  0  0  0  0  0  0  0  0  0
   -3.8481   -0.2297   -1.5939 C   0  0  0  0  0  0  0  0  0  0  0  0
   -3.9078   -0.9547   -0.7895 H   0  0  0  0  0  0  0  0  0  0  0  0
   -4.8913    0.1483   -2.4163 N   0  0  0  0  0  0  0  0  0  0  0  0
   -5.8211   -0.2394   -2.3505 H   0  0  0  0  0  0  0  0  0  0  0  0
   -4.5023    1.1171   -3.3168 C   0  0  0  0  0  0  0  0  0  0  0  0
   -5.1849    1.8264   -4.3154 C   0  0  0  0  0  0  0  0  0  0  0  0
   -6.2338    1.6436   -4.4970 H   0  0  0  0  0  0  0  0  0  0  0  0
   -4.4846    2.7770   -5.0777 C   0  0  0  0  0  0  0  0  0  0  0  0
   -4.9943    3.3329   -5.8530 H   0  0  0  0  0  0  0  0  0  0  0  0
   -3.1168    2.9999   -4.8353 C   0  0  0  0  0  0  0  0  0  0  0  0
   -2.5799    3.7262   -5.4298 H   0  0  0  0  0  0  0  0  0  0  0  0
   -2.4404    2.2797   -3.8303 C   0  0  0  0  0  0  0  0  0  0  0  0
   -1.3865    2.4512   -3.6635 H   0  0  0  0  0  0  0  0  0  0  0  0
   -3.1169    1.3227   -3.0433 C   0  0  0  0  0  0  0  0  0  0  0  0
   -1.2663    0.1182    1.2910 C   0  0  0  0  0  0  0  0  0  0  0  0
   -0.1906    0.1931    1.8833 O   0  0  0  0  0  0  0  0  0  0  0  0
   -2.3930    0.6605    1.7722 N   0  0  0  0  0  0  0  0  0  0  0  0
   -3.2451    0.5077    1.2518 H   0  0  0  0  0  0  0  0  0  0  0  0
   -2.4787    1.3954    3.0311 C   0  0  0  0  0  0  0  0  0  0  0  0
   -1.7166    2.1767    3.0539 H   0  0  0  0  0  0  0  0  0  0  0  0
   -3.4649    1.8498    3.1344 H   0  0  0  0  0  0  0  0  0  0  0  0
   -2.3058    0.7133    3.8652 H   0  0  0  0  0  0  0  0  0  0  0  0
  5  6  2  0  0  0  0
  5  7  1  0  0  0  0
  2  3  1  0  0  0  0
  2  4  1  0  0  0  0
  2  5  1  0  0  0  0
  1  2  1  0  0  0  0
 29 30  2  0  0  0  0
 29 31  1  0  0  0  0
 26 27  1  0  0  0  0
 26 28  2  0  0  0  0
 24 25  1  0  0  0  0
 24 26  1  0  0  0  0
 22 23  1  0  0  0  0
 22 24  2  0  0  0  0
 20 21  1  0  0  0  0
 20 22  1  0  0  0  0
 19 20  2  0  0  0  0
 19 28  1  0  0  0  0
 17 18  1  0  0  0  0
 17 19  1  0  0  0  0
 15 16  1  0  0  0  0
 15 17  1  0  0  0  0
 14 15  2  0  0  0  0
 14 28  1  0  0  0  0
 11 12  1  0  0  0  0
 11 13  1  0  0  0  0
 11 14  1  0  0  0  0
  9 10  1  0  0  0  0
  9 11  1  0  0  0  0
  9 29  1  0  0  0  0
  7  8  1  0  0  0  0
  7  9  1  0  0  0  0
 33 34  1  0  0  0  0
 33 35  1  0  0  0  0
 33 36  1  0  0  0  0
 31 32  1  0  0  0  0
 31 33  1  0  0  0  0
M  END
$$$$
default_name
  -OEChem-02102213163D

 36 37  0     1  0  0  0  0  0999 V2000
   -4.0843   -4.0736    1.2944 H   0  0  0  0  0  0  0  0  0  0  0  0
   -4.0342   -3.2816    0.5484 C   0  0  0  0  0  0  0  0  0  0  0  0
   -4.8842   -2.6126    0.6694 H   0  0  0  0  0  0  0  0  0  0  0  0
   -4.0433   -3.7186   -0.4486 H   0  0  0  0  0  0  0  0  0  0  0  0
   -2.7532   -2.5046    0.7444 C   0  0  0  0  0  0  0  0  0  0  0  0
   -1.9803   -2.8096    1.6434 O   0  0  0  0  0  0  0  0  0  0  0  0
   -2.5332   -1.4966   -0.0966 N   0  0  0  0  0  0  0  0  0  0  0  0
   -3.2312   -1.2816   -0.7936 H   0  0  0  0  0  0  0  0  0  0  0  0
   -1.3593   -0.6196   -0.0536 C   0  0  1  0  0  0  0  0  0  0  0  0
   -0.4622   -1.2317   -0.1545 H   0  0  0  0  0  0  0  0  0  0  0  0
   -1.4074    0.3593   -1.2373 C   0  0  0  0  0  0  0  0  0  0  0  0
   -1.1374    1.3551   -0.8812 H   0  0  0  0  0  0  0  0  0  0  0  0
   -0.6573    0.0559   -1.9696 H   0  0  0  0  0  0  0  0  0  0  0  0
   -2.7334    0.4581   -1.9286 C   0  0  0  0  0  0  0  0  0  0  0  0
   -3.9102    0.0052   -1.4411 C   0  0  0  0  0  0  0  0  0  0  0  0
   -4.0296   -0.5046   -0.4914 H   0  0  0  0  0  0  0  0  0  0  0  0
   -4.9268    0.3096   -2.3251 N   0  0  0  0  0  0  0  0  0  0  0  0
   -5.8932    0.0628   -2.1690 H   0  0  0  0  0  0  0  0  0  0  0  0
   -4.4549    0.9930   -3.4255 C   0  0  0  0  0  0  0  0  0  0  0  0
   -5.0801    1.5334   -4.5584 C   0  0  0  0  0  0  0  0  0  0  0  0
   -6.1483    1.4427   -4.6897 H   0  0  0  0  0  0  0  0  0  0  0  0
   -4.2970    2.1929   -5.5211 C   0  0  0  0  0  0  0  0  0  0  0  0
   -4.7617    2.6151   -6.4019 H   0  0  0  0  0  0  0  0  0  0  0  0
   -2.9056    2.2976   -5.3409 C   0  0  0  0  0  0  0  0  0  0  0  0
   -2.3058    2.7985   -6.0881 H   0  0  0  0  0  0  0  0  0  0  0  0
   -2.2876    1.7488   -4.1993 C   0  0  0  0  0  0  0  0  0  0  0  0
   -1.2162    1.8246   -4.0797 H   0  0  0  0  0  0  0  0  0  0  0  0
   -3.0471    1.0858   -3.2111 C   0  0  0  0  0  0  0  0  0  0  0  0
   -1.2663    0.1182    1.2910 C   0  0  0  0  0  0  0  0  0  0  0  0
   -0.1906    0.1931    1.8833 O   0  0  0  0  0  0  0  0  0  0  0  0
   -2.3930    0.6605    1.7722 N   0  0  0  0  0  0  0  0  0  0  0  0
   -3.2451    0.5077    1.2518 H   0  0  0  0  0  0  0  0  0  0  0  0
   -2.4787    1.3954    3.0311 C   0  0  0  0  0  0  0  0  0  0  0  0
   -1.7166    2.1767    3.0539 H   0  0  0  0  0  0  0  0  0  0  0  0
   -3.4649    1.8498    3.1344 H   0  0  0  0  0  0  0  0  0  0  0  0
   -2.3058    0.7133    3.8652 H   0  0  0  0  0  0  0  0  0  0  0  0
  5  6  2  0  0  0  0
  5  7  1  0  0  0  0
  2  3  1  0  0  0  0
  2  4  1  0  0  0  0
  2  5  1  0  0  0  0
  1  2  1  0  0  0  0
 29 30  2  0  0  0  0
 29 31  1  0  0  0  0
 26 27  1  0  0  0  0
 26 28  2  0  0  0  0
 24 25  1  0  0  0  0
 24 26  1  0  0  0  0
 22 23  1  0  0  0  0
 22 24  2  0  0  0  0
 20 21  1  0  0  0  0
 20 22  1  0  0  0  0
 19 20  2  0  0  0  0
 19 28  1  0  0  0  0
 17 18  1  0  0  0  0
 17 19  1  0  0  0  0
 15 16  1  0  0  0  0
 15 17  1  0  0  0  0
 14 15  2  0  0  0  0
 14 28  1  0  0  0  0
 11 12  1  0  0  0  0
 11 13  1  0  0  0  0
 11 14  1  0  0  0  0
  9 10  1  0  0  0  0
  9 11  1  0  0  0  0
  9 29  1  0  0  0  0
  7  8  1  0  0  0  0
  7  9  1  0  0  0  0
 33 34  1  0  0  0  0
 33 35  1  0  0  0  0
 33 36  1  0  0  0  0
 31 32  1  0  0  0  0
 31 33  1  0  0  0  0
M  END
$$$$
default_name
  -OEChem-02102213163D

 36 37  0     1  0  0  0  0  0999 V2000
   -4.0843   -4.0736    1.2944 H   0  0  0  0  0  0  0  0  0  0  0  0
   -4.0342   -3.2816    0.5484 C   0  0  0  0  0  0  0  0  0  0  0  0
   -4.8842   -2.6126    0.6694 H   0  0  0  0  0  0  0  0  0  0  0  0
   -4.0433   -3.7186   -0.4486 H   0  0  0  0  0  0  0  0  0  0  0  0
   -2.7532   -2.5046    0.7444 C   0  0  0  0  0  0  0  0  0  0  0  0
   -1.9803   -2.8096    1.6434 O   0  0  0  0  0  0  0  0  0  0  0  0
   -2.5332   -1.4966   -0.0966 N   0  0  0  0  0  0  0  0  0  0  0  0
   -3.2312   -1.2816   -0.7936 H   0  0  0  0  0  0  0  0  0  0  0  0
   -1.3593   -0.6196   -0.0536 C   0  0  1  0  0  0  0  0  0  0  0  0
   -0.4622   -1.2317   -0.1545 H   0  0  0  0  0  0  0  0  0  0  0  0
   -1.4074    0.3593   -1.2373 C   0  0  0  0  0  0  0  0  0  0  0  0
   -1.1374    1.3551   -0.8812 H   0  0  0  0  0  0  0  0  0  0  0  0
   -0.6573    0.0559   -1.9696 H   0  0  0  0  0  0  0  0  0  0  0  0
   -2.7334    0.4581   -1.9286 C   0  0  0  0  0  0  0  0  0  0  0  0
   -3.9396    0.2745   -1.3463 C   0  0  0  0  0  0  0  0  0  0  0  0
   -4.0886    0.0131   -0.3044 H   0  0  0  0  0  0  0  0  0  0  0  0
   -4.9403    0.4904   -2.2734 N   0  0  0  0  0  0  0  0  0  0  0  0
   -5.9237    0.4049   -2.0616 H   0  0  0  0  0  0  0  0  0  0  0  0
   -4.4257    0.8425   -3.5030 C   0  0  0  0  0  0  0  0  0  0  0  0
   -5.0179    1.1822   -4.7278 C   0  0  0  0  0  0  0  0  0  0  0  0
   -6.0930    1.1943   -4.8314 H   0  0  0  0  0  0  0  0  0  0  0  0
   -4.1930    1.5048   -5.8189 C   0  0  0  0  0  0  0  0  0  0  0  0
   -4.6320    1.7683   -6.7717 H   0  0  0  0  0  0  0  0  0  0  0  0
   -2.7941    1.4781   -5.6719 C   0  0  0  0  0  0  0  0  0  0  0  0
   -2.1631    1.7189   -6.5163 H   0  0  0  0  0  0  0  0  0  0  0  0
   -2.2097    1.1333   -4.4367 C   0  0  0  0  0  0  0  0  0  0  0  0
   -1.1336    1.1037   -4.3411 H   0  0  0  0  0  0  0  0  0  0  0  0
   -3.0108    0.8102   -3.3201 C   0  0  0  0  0  0  0  0  0  0  0  0
   -1.2663    0.1182    1.2910 C   0  0  0  0  0  0  0  0  0  0  0  0
   -0.1906    0.1931    1.8833 O   0  0  0  0  0  0  0  0  0  0  0  0
   -2.3930    0.6605    1.7722 N   0  0  0  0  0  0  0  0  0  0  0  0
   -3.2451    0.5077    1.2518 H   0  0  0  0  0  0  0  0  0  0  0  0
   -2.4787    1.3954    3.0311 C   0  0  0  0  0  0  0  0  0  0  0  0
   -1.7166    2.1767    3.0539 H   0  0  0  0  0  0  0  0  0  0  0  0
   -3.4649    1.8498    3.1344 H   0  0  0  0  0  0  0  0  0  0  0  0
   -2.3058    0.7133    3.8652 H   0  0  0  0  0  0  0  0  0  0  0  0
  5  6  2  0  0  0  0
  5  7  1  0  0  0  0
  2  3  1  0  0  0  0
  2  4  1  0  0  0  0
  2  5  1  0  0  0  0
  1  2  1  0  0  0  0
 29 30  2  0  0  0  0
 29 31  1  0  0  0  0
 26 27  1  0  0  0  0
 26 28  2  0  0  0  0
 24 25  1  0  0  0  0
 24 26  1  0  0  0  0
 22 23  1  0  0  0  0
 22 24  2  0  0  0  0
 20 21  1  0  0  0  0
 20 22  1  0  0  0  0
 19 20  2  0  0  0  0
 19 28  1  0  0  0  0
 17 18  1  0  0  0  0
 17 19  1  0  0  0  0
 15 16  1  0  0  0  0
 15 17  1  0  0  0  0
 14 15  2  0  0  0  0
 14 28  1  0  0  0  0
 11 12  1  0  0  0  0
 11 13  1  0  0  0  0
 11 14  1  0  0  0  0
  9 10  1  0  0  0  0
  9 11  1  0  0  0  0
  9 29  1  0  0  0  0
  7  8  1  0  0  0  0
  7  9  1  0  0  0  0
 33 34  1  0  0  0  0
 33 35  1  0  0  0  0
 33 36  1  0  0  0  0
 31 32  1  0  0  0  0
 31 33  1  0  0  0  0
M  END
$$$$
default_name
  -OEChem-02102213163D

 36 37  0     1  0  0  0  0  0999 V2000
   -4.0843   -4.0736    1.2944 H   0  0  0  0  0  0  0  0  0  0  0  0
   -4.0342   -3.2816    0.5484 C   0  0  0  0  0  0  0  0  0  0  0  0
   -4.8842   -2.6126    0.6694 H   0  0  0  0  0  0  0  0  0  0  0  0
   -4.0433   -3.7186   -0.4486 H   0  0  0  0  0  0  0  0  0  0  0  0
   -2.7532   -2.5046    0.7444 C   0  0  0  0  0  0  0  0  0  0  0  0
   -1.9803   -2.8096    1.6434 O   0  0  0  0  0  0  0  0  0  0  0  0
   -2.5332   -1.4966   -0.0966 N   0  0  0  0  0  0  0  0  0  0  0  0
   -3.2312   -1.2816   -0.7936 H   0  0  0  0  0  0  0  0  0  0  0  0
   -1.3593   -0.6196   -0.0536 C   0  0  1  0  0  0  0  0  0  0  0  0
   -0.4622   -1.2317   -0.1545 H   0  0  0  0  0  0  0  0  0  0  0  0
   -1.4074    0.3593   -1.2373 C   0  0  0  0  0  0  0  0  0  0  0  0
   -1.1374    1.3551   -0.8812 H   0  0  0  0  0  0  0  0  0  0  0  0
   -0.6573    0.0559   -1.9696 H   0  0  0  0  0  0  0  0  0  0  0  0
   -2.7334    0.4581   -1.9286 C   0  0  0  0  0  0  0  0  0  0  0  0
   -3.9342    0.5599   -1.3159 C   0  0  0  0  0  0  0  0  0  0  0  0
   -4.0805    0.5629   -0.2413 H   0  0  0  0  0  0  0  0  0  0  0  0
   -4.9309    0.6786   -2.2646 N   0  0  0  0  0  0  0  0  0  0  0  0
   -5.9104    0.7636   -2.0357 H   0  0  0  0  0  0  0  0  0  0  0  0
   -4.4168    0.6759   -3.5438 C   0  0  0  0  0  0  0  0  0  0  0  0
   -5.0027    0.7968   -4.8121 C   0  0  0  0  0  0  0  0  0  0  0  0
   -6.0716    0.9153   -4.9123 H   0  0  0  0  0  0  0  0  0  0  0  0
   -4.1798    0.7596   -5.9507 C   0  0  0  0  0  0  0  0  0  0  0  0
   -4.6141    0.8502   -6.9372 H   0  0  0  0  0  0  0  0  0  0  0  0
   -2.7898    0.5975   -5.8060 C   0  0  0  0  0  0  0  0  0  0  0  0
   -2.1614    0.5611   -6.6851 H   0  0  0  0  0  0  0  0  0  0  0  0
   -2.2120    0.4751   -4.5264 C   0  0  0  0  0  0  0  0  0  0  0  0
   -1.1444    0.3377   -4.4300 H   0  0  0  0  0  0  0  0  0  0  0  0
   -3.0105    0.5147   -3.3628 C   0  0  0  0  0  0  0  0  0  0  0  0
   -1.2663    0.1182    1.2910 C   0  0  0  0  0  0  0  0  0  0  0  0
   -0.1906    0.1931    1.8833 O   0  0  0  0  0  0  0  0  0  0  0  0
   -2.3930    0.6605    1.7722 N   0  0  0  0  0  0  0  0  0  0  0  0
   -3.2451    0.5077    1.2518 H   0  0  0  0  0  0  0  0  0  0  0  0
   -2.4787    1.3954    3.0311 C   0  0  0  0  0  0  0  0  0  0  0  0
   -1.7166    2.1767    3.0539 H   0  0  0  0  0  0  0  0  0  0  0  0
   -3.4649    1.8498    3.1344 H   0  0  0  0  0  0  0  0  0  0  0  0
   -2.3058    0.7133    3.8652 H   0  0  0  0  0  0  0  0  0  0  0  0
  5  6  2  0  0  0  0
  5  7  1  0  0  0  0
  2  3  1  0  0  0  0
  2  4  1  0  0  0  0
  2  5  1  0  0  0  0
  1  2  1  0  0  0  0
 29 30  2  0  0  0  0
 29 31  1  0  0  0  0
 26 27  1  0  0  0  0
 26 28  2  0  0  0  0
 24 25  1  0  0  0  0
 24 26  1  0  0  0  0
 22 23  1  0  0  0  0
 22 24  2  0  0  0  0
 20 21  1  0  0  0  0
 20 22  1  0  0  0  0
 19 20  2  0  0  0  0
 19 28  1  0  0  0  0
 17 18  1  0  0  0  0
 17 19  1  0  0  0  0
 15 16  1  0  0  0  0
 15 17  1  0  0  0  0
 14 15  2  0  0  0  0
 14 28  1  0  0  0  0
 11 12  1  0  0  0  0
 11 13  1  0  0  0  0
 11 14  1  0  0  0  0
  9 10  1  0  0  0  0
  9 11  1  0  0  0  0
  9 29  1  0  0  0  0
  7  8  1  0  0  0  0
  7  9  1  0  0  0  0
 33 34  1  0  0  0  0
 33 35  1  0  0  0  0
 33 36  1  0  0  0  0
 31 32  1  0  0  0  0
 31 33  1  0  0  0  0
M  END
$$$$
default_name
  -OEChem-02102213163D

 36 37  0     1  0  0  0  0  0999 V2000
   -4.0843   -4.0736    1.2944 H   0  0  0  0  0  0  0  0  0  0  0  0
   -4.0342   -3.2816    0.5484 C   0  0  0  0  0  0  0  0  0  0  0  0
   -4.8842   -2.6126    0.6694 H   0  0  0  0  0  0  0  0  0  0  0  0
   -4.0433   -3.7186   -0.4486 H   0  0  0  0  0  0  0  0  0  0  0  0
   -2.7532   -2.5046    0.7444 C   0  0  0  0  0  0  0  0  0  0  0  0
   -1.9803   -2.8096    1.6434 O   0  0  0  0  0  0  0  0  0  0  0  0
   -2.5332   -1.4966   -0.0966 N   0  0  0  0  0  0  0  0  0  0  0  0
   -3.2312   -1.2816   -0.7936 H   0  0  0  0  0  0  0  0  0  0  0  0
   -1.3593   -0.6196   -0.0536 C   0  0  1  0  0  0  0  0  0  0  0  0
   -0.4622   -1.2317   -0.1545 H   0  0  0  0  0  0  0  0  0  0  0  0
   -1.4074    0.3593   -1.2373 C   0  0  0  0  0  0  0  0  0  0  0  0
   -1.1374    1.3551   -0.8812 H   0  0  0  0  0  0  0  0  0  0  0  0
   -0.6573    0.0559   -1.9696 H   0  0  0  0  0  0  0  0  0  0  0  0
   -2.7334    0.4581   -1.9286 C   0  0  0  0  0  0  0  0  0  0  0  0
   -3.8944    0.8418   -1.3519 C   0  0  0  0  0  0  0  0  0  0  0  0
   -4.0060    1.1075   -0.3064 H   0  0  0  0  0  0  0  0  0  0  0  0
   -4.8991    0.8612   -2.2993 N   0  0  0  0  0  0  0  0  0  0  0  0
   -5.8544    1.1144   -2.0931 H   0  0  0  0  0  0  0  0  0  0  0  0
   -4.4288    0.5046   -3.5453 C   0  0  0  0  0  0  0  0  0  0  0  0
   -5.0355    0.4033   -4.8055 C   0  0  0  0  0  0  0  0  0  0  0  0
   -6.0856    0.6248   -4.9269 H   0  0  0  0  0  0  0  0  0  0  0  0
   -4.2583    0.0080   -5.9076 C   0  0  0  0  0  0  0  0  0  0  0  0
   -4.7093   -0.0767   -6.8871 H   0  0  0  0  0  0  0  0  0  0  0  0
   -2.8931   -0.2843   -5.7339 C   0  0  0  0  0  0  0  0  0  0  0  0
   -2.3008   -0.5962   -6.5830 H   0  0  0  0  0  0  0  0  0  0  0  0
   -2.2943   -0.1810   -4.4622 C   0  0  0  0  0  0  0  0  0  0  0  0
   -1.2477   -0.4213   -4.3402 H   0  0  0  0  0  0  0  0  0  0  0  0
   -3.0462    0.2194   -3.3365 C   0  0  0  0  0  0  0  0  0  0  0  0
   -1.2663    0.1182    1.2910 C   0  0  0  0  0  0  0  0  0  0  0  0
   -0.1906    0.1931    1.8833 O   0  0  0  0  0  0  0  0  0  0  0  0
   -2.3930    0.6605    1.7722 N   0  0  0  0  0  0  0  0  0  0  0  0
   -3.2451    0.5077    1.2518 H   0  0  0  0  0  0  0  0  0  0  0  0
   -2.4787    1.3954    3.0311 C   0  0  0  0  0  0  0  0  0  0  0  0
   -1.7166    2.1767    3.0539 H   0  0  0  0  0  0  0  0  0  0  0  0
   -3.4649    1.8498    3.1344 H   0  0  0  0  0  0  0  0  0  0  0  0
   -2.3058    0.7133    3.8652 H   0  0  0  0  0  0  0  0  0  0  0  0
  5  6  2  0  0  0  0
  5  7  1  0  0  0  0
  2  3  1  0  0  0  0
  2  4  1  0  0  0  0
  2  5  1  0  0  0  0
  1  2  1  0  0  0  0
 29 30  2  0  0  0  0
 29 31  1  0  0  0  0
 26 27  1  0  0  0  0
 26 28  2  0  0  0  0
 24 25  1  0  0  0  0
 24 26  1  0  0  0  0
 22 23  1  0  0  0  0
 22 24  2  0  0  0  0
 20 21  1  0  0  0  0
 20 22  1  0  0  0  0
 19 20  2  0  0  0  0
 19 28  1  0  0  0  0
 17 18  1  0  0  0  0
 17 19  1  0  0  0  0
 15 16  1  0  0  0  0
 15 17  1  0  0  0  0
 14 15  2  0  0  0  0
 14 28  1  0  0  0  0
 11 12  1  0  0  0  0
 11 13  1  0  0  0  0
 11 14  1  0  0  0  0
  9 10  1  0  0  0  0
  9 11  1  0  0  0  0
  9 29  1  0  0  0  0
  7  8  1  0  0  0  0
  7  9  1  0  0  0  0
 33 34  1  0  0  0  0
 33 35  1  0  0  0  0
 33 36  1  0  0  0  0
 31 32  1  0  0  0  0
 31 33  1  0  0  0  0
M  END
$$$$
default_name
  -OEChem-02102213163D

 36 37  0     1  0  0  0  0  0999 V2000
   -4.0843   -4.0736    1.2944 H   0  0  0  0  0  0  0  0  0  0  0  0
   -4.0342   -3.2816    0.5484 C   0  0  0  0  0  0  0  0  0  0  0  0
   -4.8842   -2.6126    0.6694 H   0  0  0  0  0  0  0  0  0  0  0  0
   -4.0433   -3.7186   -0.4486 H   0  0  0  0  0  0  0  0  0  0  0  0
   -2.7532   -2.5046    0.7444 C   0  0  0  0  0  0  0  0  0  0  0  0
   -1.9803   -2.8096    1.6434 O   0  0  0  0  0  0  0  0  0  0  0  0
   -2.5332   -1.4966   -0.0966 N   0  0  0  0  0  0  0  0  0  0  0  0
   -3.2312   -1.2816   -0.7936 H   0  0  0  0  0  0  0  0  0  0  0  0
   -1.3593   -0.6196   -0.0536 C   0  0  1  0  0  0  0  0  0  0  0  0
   -0.4622   -1.2317   -0.1545 H   0  0  0  0  0  0  0  0  0  0  0  0
   -1.4074    0.3593   -1.2373 C   0  0  0  0  0  0  0  0  0  0  0  0
   -1.1374    1.3551   -0.8812 H   0  0  0  0  0  0  0  0  0  0  0  0
   -0.6573    0.0559   -1.9696 H   0  0  0  0  0  0  0  0  0  0  0  0
   -2.7334    0.4581   -1.9286 C   0  0  0  0  0  0  0  0  0  0  0  0
   -3.8229    1.1012   -1.4520 C   0  0  0  0  0  0  0  0  0  0  0  0
   -3.8701    1.6097   -0.4953 H   0  0  0  0  0  0  0  0  0  0  0  0
   -4.8473    1.0258   -2.3753 N   0  0  0  0  0  0  0  0  0  0  0  0
   -5.7594    1.4334   -2.2298 H   0  0  0  0  0  0  0  0  0  0  0  0
   -4.4609    0.3403   -3.5073 C   0  0  0  0  0  0  0  0  0  0  0  0
   -5.1140    0.0287   -4.7084 C   0  0  0  0  0  0  0  0  0  0  0  0
   -6.1341    0.3425   -4.8742 H   0  0  0  0  0  0  0  0  0  0  0  0
   -4.4231   -0.6988   -5.6925 C   0  0  0  0  0  0  0  0  0  0  0  0
   -4.9110   -0.9491   -6.6248 H   0  0  0  0  0  0  0  0  0  0  0  0
   -3.0969   -1.1072   -5.4605 C   0  0  0  0  0  0  0  0  0  0  0  0
   -2.5719   -1.6740   -6.2169 H   0  0  0  0  0  0  0  0  0  0  0  0
   -2.4511   -0.7902   -4.2486 C   0  0  0  0  0  0  0  0  0  0  0  0
   -1.4367   -1.1216   -4.0778 H   0  0  0  0  0  0  0  0  0  0  0  0
   -3.1155   -0.0555   -3.2428 C   0  0  0  0  0  0  0  0  0  0  0  0
   -1.2663    0.1182    1.2910 C   0  0  0  0  0  0  0  0  0  0  0  0
   -0.1906    0.1931    1.8833 O   0  0  0  0  0  0  0  0  0  0  0  0
   -2.3930    0.6605    1.7722 N   0  0  0  0  0  0  0  0  0  0  0  0
   -3.2451    0.5077    1.2518 H   0  0  0  0  0  0  0  0  0  0  0  0
   -2.4787    1.3954    3.0311 C   0  0  0  0  0  0  0  0  0  0  0  0
   -1.7166    2.1767    3.0539 H   0  0  0  0  0  0  0  0  0  0  0  0
   -3.4649    1.8498    3.1344 H   0  0  0  0  0  0  0  0  0  0  0  0
   -2.3058    0.7133    3.8652 H   0  0  0  0  0  0  0  0  0  0  0  0
  5  6  2  0  0  0  0
  5  7  1  0  0  0  0
  2  3  1  0  0  0  0
  2  4  1  0  0  0  0
  2  5  1  0  0  0  0
  1  2  1  0  0  0  0
 29 30  2  0  0  0  0
 29 31  1  0  0  0  0
 26 27  1  0  0  0  0
 26 28  2  0  0  0  0
 24 25  1  0  0  0  0
 24 26  1  0  0  0  0
 22 23  1  0  0  0  0
 22 24  2  0  0  0  0
 20 21  1  0  0  0  0
 20 22  1  0  0  0  0
 19 20  2  0  0  0  0
 19 28  1  0  0  0  0
 17 18  1  0  0  0  0
 17 19  1  0  0  0  0
 15 16  1  0  0  0  0
 15 17  1  0  0  0  0
 14 15  2  0  0  0  0
 14 28  1  0  0  0  0
 11 12  1  0  0  0  0
 11 13  1  0  0  0  0
 11 14  1  0  0  0  0
  9 10  1  0  0  0  0
  9 11  1  0  0  0  0
  9 29  1  0  0  0  0
  7  8  1  0  0  0  0
  7  9  1  0  0  0  0
 33 34  1  0  0  0  0
 33 35  1  0  0  0  0
 33 36  1  0  0  0  0
 31 32  1  0  0  0  0
 31 33  1  0  0  0  0
M  END
$$$$
default_name
  -OEChem-02102213163D

 36 37  0     1  0  0  0  0  0999 V2000
   -4.0843   -4.0736    1.2944 H   0  0  0  0  0  0  0  0  0  0  0  0
   -4.0342   -3.2816    0.5484 C   0  0  0  0  0  0  0  0  0  0  0  0
   -4.8842   -2.6126    0.6694 H   0  0  0  0  0  0  0  0  0  0  0  0
   -4.0433   -3.7186   -0.4486 H   0  0  0  0  0  0  0  0  0  0  0  0
   -2.7532   -2.5046    0.7444 C   0  0  0  0  0  0  0  0  0  0  0  0
   -1.9803   -2.8096    1.6434 O   0  0  0  0  0  0  0  0  0  0  0  0
   -2.5332   -1.4966   -0.0966 N   0  0  0  0  0  0  0  0  0  0  0  0
   -3.2312   -1.2816   -0.7936 H   0  0  0  0  0  0  0  0  0  0  0  0
   -1.3593   -0.6196   -0.0536 C   0  0  1  0  0  0  0  0  0  0  0  0
   -0.4622   -1.2317   -0.1545 H   0  0  0  0  0  0  0  0  0  0  0  0
   -1.4074    0.3593   -1.2373 C   0  0  0  0  0  0  0  0  0  0  0  0
   -1.1374    1.3551   -0.8812 H   0  0  0  0  0  0  0  0  0  0  0  0
   -0.6573    0.0559   -1.9696 H   0  0  0  0  0  0  0  0  0  0  0  0
   -2.7334    0.4581   -1.9286 C   0  0  0  0  0  0  0  0  0  0  0  0
   -3.7246    1.3203   -1.6092 C   0  0  0  0  0  0  0  0  0  0  0  0
   -3.6821    2.0354   -0.7950 H   0  0  0  0  0  0  0  0  0  0  0  0
   -4.7788    1.1613   -2.4872 N   0  0  0  0  0  0  0  0  0  0  0  0
   -5.6318    1.6989   -2.4365 H   0  0  0  0  0  0  0  0  0  0  0  0
   -4.5108    0.1940   -3.4324 C   0  0  0  0  0  0  0  0  0  0  0  0
   -5.2329   -0.3015   -4.5276 C   0  0  0  0  0  0  0  0  0  0  0  0
   -6.2138    0.0876   -4.7578 H   0  0  0  0  0  0  0  0  0  0  0  0
   -4.6630   -1.3125   -5.3201 C   0  0  0  0  0  0  0  0  0  0  0  0
   -5.2056   -1.7077   -6.1682 H   0  0  0  0  0  0  0  0  0  0  0  0
   -3.3874   -1.8152   -5.0045 C   0  0  0  0  0  0  0  0  0  0  0  0
   -2.9562   -2.5989   -5.6119 H   0  0  0  0  0  0  0  0  0  0  0  0
   -2.6716   -1.3110   -3.9001 C   0  0  0  0  0  0  0  0  0  0  0  0
   -1.6983   -1.7154   -3.6609 H   0  0  0  0  0  0  0  0  0  0  0  0
   -3.2137   -0.2913   -3.0882 C   0  0  0  0  0  0  0  0  0  0  0  0
   -1.2663    0.1182    1.2910 C   0  0  0  0  0  0  0  0  0  0  0  0
   -0.1906    0.1931    1.8833 O   0  0  0  0  0  0  0  0  0  0  0  0
   -2.3930    0.6605    1.7722 N   0  0  0  0  0  0  0  0  0  0  0  0
   -3.2451    0.5077    1.2518 H   0  0  0  0  0  0  0  0  0  0  0  0
   -2.4787    1.3954    3.0311 C   0  0  0  0  0  0  0  0  0  0  0  0
   -1.7166    2.1767    3.0539 H   0  0  0  0  0  0  0  0  0  0  0  0
   -3.4649    1.8498    3.1344 H   0  0  0  0  0  0  0  0  0  0  0  0
   -2.3058    0.7133    3.8652 H   0  0  0  0  0  0  0  0  0  0  0  0
  5  6  2  0  0  0  0
  5  7  1  0  0  0  0
  2  3  1  0  0  0  0
  2  4  1  0  0  0  0
  2  5  1  0  0  0  0
  1  2  1  0  0  0  0
 29 30  2  0  0  0  0
 29 31  1  0  0  0  0
 26 27  1  0  0  0  0
 26 28  2  0  0  0  0
 24 25  1  0  0  0  0
 24 26  1  0  0  0  0
 22 23  1  0  0  0  0
 22 24  2  0  0  0  0
 20 21  1  0  0  0  0
 20 22  1  0  0  0  0
 19 20  2  0  0  0  0
 19 28  1  0  0  0  0
 17 18  1  0  0  0  0
 17 19  1  0  0  0  0
 15 16  1  0  0  0  0
 15 17  1  0  0  0  0
 14 15  2  0  0  0  0
 14 28  1  0  0  0  0
 11 12  1  0  0  0  0
 11 13  1  0  0  0  0
 11 14  1  0  0  0  0
  9 10  1  0  0  0  0
  9 11  1  0  0  0  0
  9 29  1  0  0  0  0
  7  8  1  0  0  0  0
  7  9  1  0  0  0  0
 33 34  1  0  0  0  0
 33 35  1  0  0  0  0
 33 36  1  0  0  0  0
 31 32  1  0  0  0  0
 31 33  1  0  0  0  0
M  END
$$$$
default_name
  -OEChem-02102213163D

 36 37  0     1  0  0  0  0  0999 V2000
   -4.0843   -4.0736    1.2944 H   0  0  0  0  0  0  0  0  0  0  0  0
   -4.0342   -3.2816    0.5484 C   0  0  0  0  0  0  0  0  0  0  0  0
   -4.8842   -2.6126    0.6694 H   0  0  0  0  0  0  0  0  0  0  0  0
   -4.0433   -3.7186   -0.4486 H   0  0  0  0  0  0  0  0  0  0  0  0
   -2.7532   -2.5046    0.7444 C   0  0  0  0  0  0  0  0  0  0  0  0
   -1.9803   -2.8096    1.6434 O   0  0  0  0  0  0  0  0  0  0  0  0
   -2.5332   -1.4966   -0.0966 N   0  0  0  0  0  0  0  0  0  0  0  0
   -3.2312   -1.2816   -0.7936 H   0  0  0  0  0  0  0  0  0  0  0  0
   -1.3593   -0.6196   -0.0536 C   0  0  1  0  0  0  0  0  0  0  0  0
   -0.4622   -1.2317   -0.1545 H   0  0  0  0  0  0  0  0  0  0  0  0
   -1.4074    0.3593   -1.2373 C   0  0  0  0  0  0  0  0  0  0  0  0
   -1.1374    1.3551   -0.8812 H   0  0  0  0  0  0  0  0  0  0  0  0
   -0.6573    0.0559   -1.9696 H   0  0  0  0  0  0  0  0  0  0  0  0
   -2.7334    0.4581   -1.9286 C   0  0  0  0  0  0  0  0  0  0  0  0
   -3.6062    1.4841   -1.8130 C   0  0  0  0  0  0  0  0  0  0  0  0
   -3.4548    2.3554   -1.1853 H   0  0  0  0  0  0  0  0  0  0  0  0
   -4.6985    1.2584   -2.6275 N   0  0  0  0  0  0  0  0  0  0  0  0
   -5.4804    1.8928   -2.6992 H   0  0  0  0  0  0  0  0  0  0  0  0
   -4.5753    0.0759   -3.3256 C   0  0  0  0  0  0  0  0  0  0  0  0
   -5.3840   -0.5649   -4.2752 C   0  0  0  0  0  0  0  0  0  0  0  0
   -6.3191   -0.1224   -4.5857 H   0  0  0  0  0  0  0  0  0  0  0  0
   -4.9616   -1.7914   -4.8157 C   0  0  0  0  0  0  0  0  0  0  0  0
   -5.5728   -2.3007   -5.5485 H   0  0  0  0  0  0  0  0  0  0  0  0
   -3.7447   -2.3599   -4.3970 C   0  0  0  0  0  0  0  0  0  0  0  0
   -3.4275   -3.3078   -4.8092 H   0  0  0  0  0  0  0  0  0  0  0  0
   -2.9408   -1.7080   -3.4404 C   0  0  0  0  0  0  0  0  0  0  0  0
   -2.0147   -2.1622   -3.1177 H   0  0  0  0  0  0  0  0  0  0  0  0
   -3.3340   -0.4719   -2.8832 C   0  0  0  0  0  0  0  0  0  0  0  0
   -1.2663    0.1182    1.2910 C   0  0  0  0  0  0  0  0  0  0  0  0
   -0.1906    0.1931    1.8833 O   0  0  0  0  0  0  0  0  0  0  0  0
   -2.3930    0.6605    1.7722 N   0  0  0  0  0  0  0  0  0  0  0  0
   -3.2451    0.5077    1.2518 H   0  0  0  0  0  0  0  0  0  0  0  0
   -2.4787    1.3954    3.0311 C   0  0  0  0  0  0  0  0  0  0  0  0
   -1.7166    2.1767    3.0539 H   0  0  0  0  0  0  0  0  0  0  0  0
   -3.4649    1.8498    3.1344 H   0  0  0  0  0  0  0  0  0  0  0  0
   -2.3058    0.7133    3.8652 H   0  0  0  0  0  0  0  0  0  0  0  0
  5  6  2  0  0  0  0
  5  7  1  0  0  0  0
  2  3  1  0  0  0  0
  2  4  1  0  0  0  0
  2  5  1  0  0  0  0
  1  2  1  0  0  0  0
 29 30  2  0  0  0  0
 29 31  1  0  0  0  0
 26 27  1  0  0  0  0
 26 28  2  0  0  0  0
 24 25  1  0  0  0  0
 24 26  1  0  0  0  0
 22 23  1  0  0  0  0
 22 24  2  0  0  0  0
 20 21  1  0  0  0  0
 20 22  1  0  0  0  0
 19 20  2  0  0  0  0
 19 28  1  0  0  0  0
 17 18  1  0  0  0  0
 17 19  1  0  0  0  0
 15 16  1  0  0  0  0
 15 17  1  0  0  0  0
 14 15  2  0  0  0  0
 14 28  1  0  0  0  0
 11 12  1  0  0  0  0
 11 13  1  0  0  0  0
 11 14  1  0  0  0  0
  9 10  1  0  0  0  0
  9 11  1  0  0  0  0
  9 29  1  0  0  0  0
  7  8  1  0  0  0  0
  7  9  1  0  0  0  0
 33 34  1  0  0  0  0
 33 35  1  0  0  0  0
 33 36  1  0  0  0  0
 31 32  1  0  0  0  0
 31 33  1  0  0  0  0
M  END
$$$$
default_name
  -OEChem-02102213163D

 36 37  0     1  0  0  0  0  0999 V2000
   -4.0843   -4.0736    1.2944 H   0  0  0  0  0  0  0  0  0  0  0  0
   -4.0342   -3.2816    0.5484 C   0  0  0  0  0  0  0  0  0  0  0  0
   -4.8842   -2.6126    0.6694 H   0  0  0  0  0  0  0  0  0  0  0  0
   -4.0433   -3.7186   -0.4486 H   0  0  0  0  0  0  0  0  0  0  0  0
   -2.7532   -2.5046    0.7444 C   0  0  0  0  0  0  0  0  0  0  0  0
   -1.9803   -2.8096    1.6434 O   0  0  0  0  0  0  0  0  0  0  0  0
   -2.5332   -1.4966   -0.0966 N   0  0  0  0  0  0  0  0  0  0  0  0
   -3.2312   -1.2816   -0.7936 H   0  0  0  0  0  0  0  0  0  0  0  0
   -1.3593   -0.6196   -0.0536 C   0  0  1  0  0  0  0  0  0  0  0  0
   -0.4622   -1.2317   -0.1545 H   0  0  0  0  0  0  0  0  0  0  0  0
   -1.4074    0.3593   -1.2373 C   0  0  0  0  0  0  0  0  0  0  0  0
   -1.1374    1.3551   -0.8812 H   0  0  0  0  0  0  0  0  0  0  0  0
   -0.6573    0.0559   -1.9696 H   0  0  0  0  0  0  0  0  0  0  0  0
   -2.7334    0.4581   -1.9286 C   0  0  0  0  0  0  0  0  0  0  0  0
   -3.4757    1.5816   -2.0494 C   0  0  0  0  0  0  0  0  0  0  0  0
   -3.2037    2.5481   -1.6394 H   0  0  0  0  0  0  0  0  0  0  0  0
   -4.6116    1.3104   -2.7867 N   0  0  0  0  0  0  0  0  0  0  0  0
   -5.3156    2.0019   -2.9999 H   0  0  0  0  0  0  0  0  0  0  0  0
   -4.6498   -0.0061   -3.1944 C   0  0  0  0  0  0  0  0  0  0  0  0
   -5.5572   -0.7434   -3.9686 C   0  0  0  0  0  0  0  0  0  0  0  0
   -6.4431   -0.2733   -4.3696 H   0  0  0  0  0  0  0  0  0  0  0  0
   -5.2986   -2.1029   -4.2137 C   0  0  0  0  0  0  0  0  0  0  0  0
   -5.9878   -2.6877   -4.8078 H   0  0  0  0  0  0  0  0  0  0  0  0
   -4.1445   -2.7043   -3.6793 C   0  0  0  0  0  0  0  0  0  0  0  0
   -3.9537   -3.7525   -3.8634 H   0  0  0  0  0  0  0  0  0  0  0  0
   -3.2403   -1.9540   -2.9009 C   0  0  0  0  0  0  0  0  0  0  0  0
   -2.3645   -2.4316   -2.4853 H   0  0  0  0  0  0  0  0  0  0  0  0
   -3.4683   -0.5851   -2.6418 C   0  0  0  0  0  0  0  0  0  0  0  0
   -1.2663    0.1182    1.2910 C   0  0  0  0  0  0  0  0  0  0  0  0
   -0.1906    0.1931    1.8833 O   0  0  0  0  0  0  0  0  0  0  0  0
   -2.3930    0.6605    1.7722 N   0  0  0  0  0  0  0  0  0  0  0  0
   -3.2451    0.5077    1.2518 H   0  0  0  0  0  0  0  0  0  0  0  0
   -2.4787    1.3954    3.0311 C   0  0  0  0  0  0  0  0  0  0  0  0
   -1.7166    2.1767    3.0539 H   0  0  0  0  0  0  0  0  0  0  0  0
   -3.4649    1.8498    3.1344 H   0  0  0  0  0  0  0  0  0  0  0  0
   -2.3058    0.7133    3.8652 H   0  0  0  0  0  0  0  0  0  0  0  0
  5  6  2  0  0  0  0
  5  7  1  0  0  0  0
  2  3  1  0  0  0  0
  2  4  1  0  0  0  0
  2  5  1  0  0  0  0
  1  2  1  0  0  0  0
 29 30  2  0  0  0  0
 29 31  1  0  0  0  0
 26 27  1  0  0  0  0
 26 28  2  0  0  0  0
 24 25  1  0  0  0  0
 24 26  1  0  0  0  0
 22 23  1  0  0  0  0
 22 24  2  0  0  0  0
 20 21  1  0  0  0  0
 20 22  1  0  0  0  0
 19 20  2  0  0  0  0
 19 28  1  0  0  0  0
 17 18  1  0  0  0  0
 17 19  1  0  0  0  0
 15 16  1  0  0  0  0
 15 17  1  0  0  0  0
 14 15  2  0  0  0  0
 14 28  1  0  0  0  0
 11 12  1  0  0  0  0
 11 13  1  0  0  0  0
 11 14  1  0  0  0  0
  9 10  1  0  0  0  0
  9 11  1  0  0  0  0
  9 29  1  0  0  0  0
  7  8  1  0  0  0  0
  7  9  1  0  0  0  0
 33 34  1  0  0  0  0
 33 35  1  0  0  0  0
 33 36  1  0  0  0  0
 31 32  1  0  0  0  0
 31 33  1  0  0  0  0
M  END
$$$$
default_name
  -OEChem-02102213163D

 36 37  0     1  0  0  0  0  0999 V2000
   -4.0843   -4.0736    1.2944 H   0  0  0  0  0  0  0  0  0  0  0  0
   -4.0342   -3.2816    0.5484 C   0  0  0  0  0  0  0  0  0  0  0  0
   -4.8842   -2.6126    0.6694 H   0  0  0  0  0  0  0  0  0  0  0  0
   -4.0433   -3.7186   -0.4486 H   0  0  0  0  0  0  0  0  0  0  0  0
   -2.7532   -2.5046    0.7444 C   0  0  0  0  0  0  0  0  0  0  0  0
   -1.9803   -2.8096    1.6434 O   0  0  0  0  0  0  0  0  0  0  0  0
   -2.5332   -1.4966   -0.0966 N   0  0  0  0  0  0  0  0  0  0  0  0
   -3.2312   -1.2816   -0.7936 H   0  0  0  0  0  0  0  0  0  0  0  0
   -1.3593   -0.6196   -0.0536 C   0  0  1  0  0  0  0  0  0  0  0  0
   -0.4622   -1.2317   -0.1545 H   0  0  0  0  0  0  0  0  0  0  0  0
   -1.4074    0.3593   -1.2373 C   0  0  0  0  0  0  0  0  0  0  0  0
   -1.1374    1.3551   -0.8812 H   0  0  0  0  0  0  0  0  0  0  0  0
   -0.6573    0.0559   -1.9696 H   0  0  0  0  0  0  0  0  0  0  0  0
   -2.7334    0.4581   -1.9286 C   0  0  0  0  0  0  0  0  0  0  0  0
   -3.3421    1.6060   -2.3022 C   0  0  0  0  0  0  0  0  0  0  0  0
   -2.9460    2.6002   -2.1264 H   0  0  0  0  0  0  0  0  0  0  0  0
   -4.5243    1.3138   -2.9538 N   0  0  0  0  0  0  0  0  0  0  0  0
   -5.1484    2.0187   -3.3181 H   0  0  0  0  0  0  0  0  0  0  0  0
   -4.7293   -0.0463   -3.0476 C   0  0  0  0  0  0  0  0  0  0  0  0
   -5.7405   -0.8250   -3.6285 C   0  0  0  0  0  0  0  0  0  0  0  0
   -6.5771   -0.3547   -4.1241 H   0  0  0  0  0  0  0  0  0  0  0  0
   -5.6510   -2.2256   -3.5552 C   0  0  0  0  0  0  0  0  0  0  0  0
   -6.4222   -2.8424   -3.9966 H   0  0  0  0  0  0  0  0  0  0  0  0
   -4.5595   -2.8249   -2.9004 C   0  0  0  0  0  0  0  0  0  0  0  0
   -4.4989   -3.9026   -2.8390 H   0  0  0  0  0  0  0  0  0  0  0  0
   -3.5499   -2.0323   -2.3183 C   0  0  0  0  0  0  0  0  0  0  0  0
   -2.7237   -2.5052   -1.8067 H   0  0  0  0  0  0  0  0  0  0  0  0
   -3.6075   -0.6231   -2.3803 C   0  0  0  0  0  0  0  0  0  0  0  0
   -1.2663    0.1182    1.2910 C   0  0  0  0  0  0  0  0  0  0  0  0
   -0.1906    0.1931    1.8833 O   0  0  0  0  0  0  0  0  0  0  0  0
   -2.3930    0.6605    1.7722 N   0  0  0  0  0  0  0  0  0  0  0  0
   -3.2451    0.5077    1.2518 H   0  0  0  0  0  0  0  0  0  0  0  0
   -2.4787    1.3954    3.0311 C   0  0  0  0  0  0  0  0  0  0  0  0
   -1.7166    2.1767    3.0539 H   0  0  0  0  0  0  0  0  0  0  0  0
   -3.4649    1.8498    3.1344 H   0  0  0  0  0  0  0  0  0  0  0  0
   -2.3058    0.7133    3.8652 H   0  0  0  0  0  0  0  0  0  0  0  0
  5  6  2  0  0  0  0
  5  7  1  0  0  0  0
  2  3  1  0  0  0  0
  2  4  1  0  0  0  0
  2  5  1  0  0  0  0
  1  2  1  0  0  0  0
 29 30  2  0  0  0  0
 29 31  1  0  0  0  0
 26 27  1  0  0  0  0
 26 28  2  0  0  0  0
 24 25  1  0  0  0  0
 24 26  1  0  0  0  0
 22 23  1  0  0  0  0
 22 24  2  0  0  0  0
 20 21  1  0  0  0  0
 20 22  1  0  0  0  0
 19 20  2  0  0  0  0
 19 28  1  0  0  0  0
 17 18  1  0  0  0  0
 17 19  1  0  0  0  0
 15 16  1  0  0  0  0
 15 17  1  0  0  0  0
 14 15  2  0  0  0  0
 14 28  1  0  0  0  0
 11 12  1  0  0  0  0
 11 13  1  0  0  0  0
 11 14  1  0  0  0  0
  9 10  1  0  0  0  0
  9 11  1  0  0  0  0
  9 29  1  0  0  0  0
  7  8  1  0  0  0  0
  7  9  1  0  0  0  0
 33 34  1  0  0  0  0
 33 35  1  0  0  0  0
 33 36  1  0  0  0  0
 31 32  1  0  0  0  0
 31 33  1  0  0  0  0
M  END
$$$$
default_name
  -OEChem-02102213163D

 36 37  0     1  0  0  0  0  0999 V2000
   -4.0843   -4.0736    1.2944 H   0  0  0  0  0  0  0  0  0  0  0  0
   -4.0342   -3.2816    0.5484 C   0  0  0  0  0  0  0  0  0  0  0  0
   -4.8842   -2.6126    0.6694 H   0  0  0  0  0  0  0  0  0  0  0  0
   -4.0433   -3.7186   -0.4486 H   0  0  0  0  0  0  0  0  0  0  0  0
   -2.7532   -2.5046    0.7444 C   0  0  0  0  0  0  0  0  0  0  0  0
   -1.9803   -2.8096    1.6434 O   0  0  0  0  0  0  0  0  0  0  0  0
   -2.5332   -1.4966   -0.0966 N   0  0  0  0  0  0  0  0  0  0  0  0
   -3.2312   -1.2816   -0.7936 H   0  0  0  0  0  0  0  0  0  0  0  0
   -1.3593   -0.6196   -0.0536 C   0  0  1  0  0  0  0  0  0  0  0  0
   -0.4622   -1.2317   -0.1545 H   0  0  0  0  0  0  0  0  0  0  0  0
   -1.4074    0.3593   -1.2373 C   0  0  0  0  0  0  0  0  0  0  0  0
   -1.1374    1.3551   -0.8812 H   0  0  0  0  0  0  0  0  0  0  0  0
   -0.6573    0.0559   -1.9696 H   0  0  0  0  0  0  0  0  0  0  0  0
   -2.7334    0.4581   -1.9286 C   0  0  0  0  0  0  0  0  0  0  0  0
   -3.2144    1.5557   -2.5543 C   0  0  0  0  0  0  0  0  0  0  0  0
   -2.6991    2.5082   -2.6132 H   0  0  0  0  0  0  0  0  0  0  0  0
   -4.4423    1.2684   -3.1174 N   0  0  0  0  0  0  0  0  0  0  0  0
   -4.9904    1.9420   -3.6322 H   0  0  0  0  0  0  0  0  0  0  0  0
   -4.8084   -0.0421   -2.8953 C   0  0  0  0  0  0  0  0  0  0  0  0
   -5.9216   -0.8040   -3.2783 C   0  0  0  0  0  0  0  0  0  0  0  0
   -6.7121   -0.3611   -3.8661 H   0  0  0  0  0  0  0  0  0  0  0  0
   -5.9949   -2.1512   -2.8849 C   0  0  0  0  0  0  0  0  0  0  0  0
   -6.8464   -2.7541   -3.1702 H   0  0  0  0  0  0  0  0  0  0  0  0
   -4.9615   -2.7134   -2.1133 C   0  0  0  0  0  0  0  0  0  0  0  0
   -5.0260   -3.7480   -1.8058 H   0  0  0  0  0  0  0  0  0  0  0  0
   -3.8483   -1.9375   -1.7324 C   0  0  0  0  0  0  0  0  0  0  0  0
   -3.0679   -2.3781   -1.1283 H   0  0  0  0  0  0  0  0  0  0  0  0
   -3.7419   -0.5833   -2.1167 C   0  0  0  0  0  0  0  0  0  0  0  0
   -1.2663    0.1182    1.2910 C   0  0  0  0  0  0  0  0  0  0  0  0
   -0.1906    0.1931    1.8833 O   0  0  0  0  0  0  0  0  0  0  0  0
   -2.3930    0.6605    1.7722 N   0  0  0  0  0  0  0  0  0  0  0  0
   -3.2451    0.5077    1.2518 H   0  0  0  0  0  0  0  0  0  0  0  0
   -2.4787    1.3954    3.0311 C   0  0  0  0  0  0  0  0  0  0  0  0
   -1.7166    2.1767    3.0539 H   0  0  0  0  0  0  0  0  0  0  0  0
   -3.4649    1.8498    3.1344 H   0  0  0  0  0  0  0  0  0  0  0  0
   -2.3058    0.7133    3.8652 H   0  0  0  0  0  0  0  0  0  0  0  0
  5  6  2  0  0  0  0
  5  7  1  0  0  0  0
  2  3  1  0  0  0  0
  2  4  1  0  0  0  0
  2  5  1  0  0  0  0
  1  2  1  0  0  0  0
 29 30  2  0  0  0  0
 29 31  1  0  0  0  0
 26 27  1  0  0  0  0
 26 28  2  0  0  0  0
 24 25  1  0  0  0  0
 24 26  1  0  0  0  0
 22 23  1  0  0  0  0
 22 24  2  0  0  0  0
 20 21  1  0  0  0  0
 20 22  1  0  0  0  0
 19 20  2  0  0  0  0
 19 28  1  0  0  0  0
 17 18  1  0  0  0  0
 17 19  1  0  0  0  0
 15 16  1  0  0  0  0
 15 17  1  0  0  0  0
 14 15  2  0  0  0  0
 14 28  1  0  0  0  0
 11 12  1  0  0  0  0
 11 13  1  0  0  0  0
 11 14  1  0  0  0  0
  9 10  1  0  0  0  0
  9 11  1  0  0  0  0
  9 29  1  0  0  0  0
  7  8  1  0  0  0  0
  7  9  1  0  0  0  0
 33 34  1  0  0  0  0
 33 35  1  0  0  0  0
 33 36  1  0  0  0  0
 31 32  1  0  0  0  0
 31 33  1  0  0  0  0
M  END
$$$$
default_name
  -OEChem-02102213163D

 36 37  0     1  0  0  0  0  0999 V2000
   -4.0843   -4.0736    1.2944 H   0  0  0  0  0  0  0  0  0  0  0  0
   -4.0342   -3.2816    0.5484 C   0  0  0  0  0  0  0  0  0  0  0  0
   -4.8842   -2.6126    0.6694 H   0  0  0  0  0  0  0  0  0  0  0  0
   -4.0433   -3.7186   -0.4486 H   0  0  0  0  0  0  0  0  0  0  0  0
   -2.7532   -2.5046    0.7444 C   0  0  0  0  0  0  0  0  0  0  0  0
   -1.9803   -2.8096    1.6434 O   0  0  0  0  0  0  0  0  0  0  0  0
   -2.5332   -1.4966   -0.0966 N   0  0  0  0  0  0  0  0  0  0  0  0
   -3.2312   -1.2816   -0.7936 H   0  0  0  0  0  0  0  0  0  0  0  0
   -1.3593   -0.6196   -0.0536 C   0  0  1  0  0  0  0  0  0  0  0  0
   -0.4622   -1.2317   -0.1545 H   0  0  0  0  0  0  0  0  0  0  0  0
   -1.4074    0.3593   -1.2373 C   0  0  0  0  0  0  0  0  0  0  0  0
   -1.1374    1.3551   -0.8812 H   0  0  0  0  0  0  0  0  0  0  0  0
   -0.6573    0.0559   -1.9696 H   0  0  0  0  0  0  0  0  0  0  0  0
   -2.7334    0.4581   -1.9286 C   0  0  0  0  0  0  0  0  0  0  0  0
   -3.1013    1.4342   -2.7885 C   0  0  0  0  0  0  0  0  0  0  0  0
   -2.4799    2.2784   -3.0666 H   0  0  0  0  0  0  0  0  0  0  0  0
   -4.3714    1.1773   -3.2666 N   0  0  0  0  0  0  0  0  0  0  0  0
   -4.8523    1.7772   -3.9207 H   0  0  0  0  0  0  0  0  0  0  0  0
   -4.8817    0.0063   -2.7477 C   0  0  0  0  0  0  0  0  0  0  0  0
   -6.0880   -0.6820   -2.9416 C   0  0  0  0  0  0  0  0  0  0  0  0
   -6.8388   -0.2922   -3.6131 H   0  0  0  0  0  0  0  0  0  0  0  0
   -6.3067   -1.8849   -2.2487 C   0  0  0  0  0  0  0  0  0  0  0  0
   -7.2315   -2.4290   -2.3850 H   0  0  0  0  0  0  0  0  0  0  0  0
   -5.3230   -2.3775   -1.3717 C   0  0  0  0  0  0  0  0  0  0  0  0
   -5.4990   -3.2991   -0.8343 H   0  0  0  0  0  0  0  0  0  0  0  0
   -4.1152   -1.6762   -1.1830 C   0  0  0  0  0  0  0  0  0  0  0  0
   -3.3736   -2.0589   -0.4963 H   0  0  0  0  0  0  0  0  0  0  0  0
   -3.8626   -0.4685   -1.8689 C   0  0  0  0  0  0  0  0  0  0  0  0
   -1.2663    0.1182    1.2910 C   0  0  0  0  0  0  0  0  0  0  0  0
   -0.1906    0.1931    1.8833 O   0  0  0  0  0  0  0  0  0  0  0  0
   -2.3930    0.6605    1.7722 N   0  0  0  0  0  0  0  0  0  0  0  0
   -3.2451    0.5077    1.2518 H   0  0  0  0  0  0  0  0  0  0  0  0
   -2.4787    1.3954    3.0311 C   0  0  0  0  0  0  0  0  0  0  0  0
   -1.7166    2.1767    3.0539 H   0  0  0  0  0  0  0  0  0  0  0  0
   -3.4649    1.8498    3.1344 H   0  0  0  0  0  0  0  0  0  0  0  0
   -2.3058    0.7133    3.8652 H   0  0  0  0  0  0  0  0  0  0  0  0
  5  6  2  0  0  0  0
  5  7  1  0  0  0  0
  2  3  1  0  0  0  0
  2  4  1  0  0  0  0
  2  5  1  0  0  0  0
  1  2  1  0  0  0  0
 29 30  2  0  0  0  0
 29 31  1  0  0  0  0
 26 27  1  0  0  0  0
 26 28  2  0  0  0  0
 24 25  1  0  0  0  0
 24 26  1  0  0  0  0
 22 23  1  0  0  0  0
 22 24  2  0  0  0  0
 20 21  1  0  0  0  0
 20 22  1  0  0  0  0
 19 20  2  0  0  0  0
 19 28  1  0  0  0  0
 17 18  1  0  0  0  0
 17 19  1  0  0  0  0
 15 16  1  0  0  0  0
 15 17  1  0  0  0  0
 14 15  2  0  0  0  0
 14 28  1  0  0  0  0
 11 12  1  0  0  0  0
 11 13  1  0  0  0  0
 11 14  1  0  0  0  0
  9 10  1  0  0  0  0
  9 11  1  0  0  0  0
  9 29  1  0  0  0  0
  7  8  1  0  0  0  0
  7  9  1  0  0  0  0
 33 34  1  0  0  0  0
 33 35  1  0  0  0  0
 33 36  1  0  0  0  0
 31 32  1  0  0  0  0
 31 33  1  0  0  0  0
M  END
$$$$
default_name
  -OEChem-02102213163D

 36 37  0     1  0  0  0  0  0999 V2000
   -4.0843   -4.0736    1.2944 H   0  0  0  0  0  0  0  0  0  0  0  0
   -4.0342   -3.2816    0.5484 C   0  0  0  0  0  0  0  0  0  0  0  0
   -4.8842   -2.6126    0.6694 H   0  0  0  0  0  0  0  0  0  0  0  0
   -4.0433   -3.7186   -0.4486 H   0  0  0  0  0  0  0  0  0  0  0  0
   -2.7532   -2.5046    0.7444 C   0  0  0  0  0  0  0  0  0  0  0  0
   -1.9803   -2.8096    1.6434 O   0  0  0  0  0  0  0  0  0  0  0  0
   -2.5332   -1.4966   -0.0966 N   0  0  0  0  0  0  0  0  0  0  0  0
   -3.2312   -1.2816   -0.7936 H   0  0  0  0  0  0  0  0  0  0  0  0
   -1.3593   -0.6196   -0.0536 C   0  0  1  0  0  0  0  0  0  0  0  0
   -0.4622   -1.2317   -0.1545 H   0  0  0  0  0  0  0  0  0  0  0  0
   -1.4074    0.3593   -1.2373 C   0  0  0  0  0  0  0  0  0  0  0  0
   -0.8897    1.2779   -0.9552 H   0  0  0  0  0  0  0  0  0  0  0  0
   -0.8644   -0.0817   -2.0750 H   0  0  0  0  0  0  0  0  0  0  0  0
   -2.7832    0.7273   -1.7039 C   0  0  0  0  0  0  0  0  0  0  0  0
   -3.0694    1.5675   -2.7236 C   0  0  0  0  0  0  0  0  0  0  0  0
   -2.3290    2.0930   -3.3167 H   0  0  0  0  0  0  0  0  0  0  0  0
   -4.4375    1.6332   -2.9009 N   0  0  0  0  0  0  0  0  0  0  0  0
   -4.8811    2.2042   -3.6054 H   0  0  0  0  0  0  0  0  0  0  0  0
   -5.1045    0.8203   -2.0092 C   0  0  0  0  0  0  0  0  0  0  0  0
   -6.4611    0.5260   -1.8108 C   0  0  0  0  0  0  0  0  0  0  0  0
   -7.2172    0.9848   -2.4309 H   0  0  0  0  0  0  0  0  0  0  0  0
   -6.8231   -0.3726   -0.7927 C   0  0  0  0  0  0  0  0  0  0  0  0
   -7.8646   -0.6108   -0.6243 H   0  0  0  0  0  0  0  0  0  0  0  0
   -5.8284   -0.9574    0.0123 C   0  0  0  0  0  0  0  0  0  0  0  0
   -6.1119   -1.6418    0.7999 H   0  0  0  0  0  0  0  0  0  0  0  0
   -4.4680   -0.6527   -0.1948 C   0  0  0  0  0  0  0  0  0  0  0  0
   -3.7151   -1.0987    0.4394 H   0  0  0  0  0  0  0  0  0  0  0  0
   -4.0715    0.2411   -1.2130 C   0  0  0  0  0  0  0  0  0  0  0  0
   -1.2663    0.1182    1.2910 C   0  0  0  0  0  0  0  0  0  0  0  0
   -0.1906    0.1931    1.8833 O   0  0  0  0  0  0  0  0  0  0  0  0
   -2.3930    0.6605    1.7722 N   0  0  0  0  0  0  0  0  0  0  0  0
   -3.2451    0.5077    1.2518 H   0  0  0  0  0  0  0  0  0  0  0  0
   -2.4787    1.3954    3.0311 C   0  0  0  0  0  0  0  0  0  0  0  0
   -1.7166    2.1767    3.0539 H   0  0  0  0  0  0  0  0  0  0  0  0
   -3.4649    1.8498    3.1344 H   0  0  0  0  0  0  0  0  0  0  0  0
   -2.3058    0.7133    3.8652 H   0  0  0  0  0  0  0  0  0  0  0  0
  5  6  2  0  0  0  0
  5  7  1  0  0  0  0
  2  3  1  0  0  0  0
  2  4  1  0  0  0  0
  2  5  1  0  0  0  0
  1  2  1  0  0  0  0
 29 30  2  0  0  0  0
 29 31  1  0  0  0  0
 26 27  1  0  0  0  0
 26 28  2  0  0  0  0
 24 25  1  0  0  0  0
 24 26  1  0  0  0  0
 22 23  1  0  0  0  0
 22 24  2  0  0  0  0
 20 21  1  0  0  0  0
 20 22  1  0  0  0  0
 19 20  2  0  0  0  0
 19 28  1  0  0  0  0
 17 18  1  0  0  0  0
 17 19  1  0  0  0  0
 15 16  1  0  0  0  0
 15 17  1  0  0  0  0
 14 15  2  0  0  0  0
 14 28  1  0  0  0  0
 11 12  1  0  0  0  0
 11 13  1  0  0  0  0
 11 14  1  0  0  0  0
  9 10  1  0  0  0  0
  9 11  1  0  0  0  0
  9 29  1  0  0  0  0
  7  8  1  0  0  0  0
  7  9  1  0  0  0  0
 33 34  1  0  0  0  0
 33 35  1  0  0  0  0
 33 36  1  0  0  0  0
 31 32  1  0  0  0  0
 31 33  1  0  0  0  0
M  END
$$$$
default_name
  -OEChem-02102213163D

 36 37  0     1  0  0  0  0  0999 V2000
   -4.0843   -4.0736    1.2944 H   0  0  0  0  0  0  0  0  0  0  0  0
   -4.0342   -3.2816    0.5484 C   0  0  0  0  0  0  0  0  0  0  0  0
   -4.8842   -2.6126    0.6694 H   0  0  0  0  0  0  0  0  0  0  0  0
   -4.0433   -3.7186   -0.4486 H   0  0  0  0  0  0  0  0  0  0  0  0
   -2.7532   -2.5046    0.7444 C   0  0  0  0  0  0  0  0  0  0  0  0
   -1.9803   -2.8096    1.6434 O   0  0  0  0  0  0  0  0  0  0  0  0
   -2.5332   -1.4966   -0.0966 N   0  0  0  0  0  0  0  0  0  0  0  0
   -3.2312   -1.2816   -0.7936 H   0  0  0  0  0  0  0  0  0  0  0  0
   -1.3593   -0.6196   -0.0536 C   0  0  1  0  0  0  0  0  0  0  0  0
   -0.4622   -1.2317   -0.1545 H   0  0  0  0  0  0  0  0  0  0  0  0
   -1.4074    0.3593   -1.2373 C   0  0  0  0  0  0  0  0  0  0  0  0
   -0.8897    1.2779   -0.9552 H   0  0  0  0  0  0  0  0  0  0  0  0
   -0.8644   -0.0817   -2.0750 H   0  0  0  0  0  0  0  0  0  0  0  0
   -2.7832    0.7273   -1.7039 C   0  0  0  0  0  0  0  0  0  0  0  0
   -3.0814    1.3262   -2.8787 C   0  0  0  0  0  0  0  0  0  0  0  0
   -2.3501    1.6302   -3.6196 H   0  0  0  0  0  0  0  0  0  0  0  0
   -4.4504    1.4689   -2.9927 N   0  0  0  0  0  0  0  0  0  0  0  0
   -4.9016    1.8952   -3.7888 H   0  0  0  0  0  0  0  0  0  0  0  0
   -5.1077    0.9505   -1.8972 C   0  0  0  0  0  0  0  0  0  0  0  0
   -6.4639    0.8320   -1.5612 C   0  0  0  0  0  0  0  0  0  0  0  0
   -7.2279    1.1970   -2.2318 H   0  0  0  0  0  0  0  0  0  0  0  0
   -6.8148    0.2334   -0.3391 C   0  0  0  0  0  0  0  0  0  0  0  0
   -7.8558    0.1343   -0.0627 H   0  0  0  0  0  0  0  0  0  0  0  0
   -5.8091   -0.2313    0.5281 C   0  0  0  0  0  0  0  0  0  0  0  0
   -6.0833   -0.6837    1.4710 H   0  0  0  0  0  0  0  0  0  0  0  0
   -4.4490   -0.1052    0.1809 C   0  0  0  0  0  0  0  0  0  0  0  0
   -3.6861   -0.4543    0.8622 H   0  0  0  0  0  0  0  0  0  0  0  0
   -4.0641    0.4857   -1.0420 C   0  0  0  0  0  0  0  0  0  0  0  0
   -1.2663    0.1182    1.2910 C   0  0  0  0  0  0  0  0  0  0  0  0
   -0.1906    0.1931    1.8833 O   0  0  0  0  0  0  0  0  0  0  0  0
   -2.3930    0.6605    1.7722 N   0  0  0  0  0  0  0  0  0  0  0  0
   -3.2451    0.5077    1.2518 H   0  0  0  0  0  0  0  0  0  0  0  0
   -2.4787    1.3954    3.0311 C   0  0  0  0  0  0  0  0  0  0  0  0
   -1.7166    2.1767    3.0539 H   0  0  0  0  0  0  0  0  0  0  0  0
   -3.4649    1.8498    3.1344 H   0  0  0  0  0  0  0  0  0  0  0  0
   -2.3058    0.7133    3.8652 H   0  0  0  0  0  0  0  0  0  0  0  0
  5  6  2  0  0  0  0
  5  7  1  0  0  0  0
  2  3  1  0  0  0  0
  2  4  1  0  0  0  0
  2  5  1  0  0  0  0
  1  2  1  0  0  0  0
 29 30  2  0  0  0  0
 29 31  1  0  0  0  0
 26 27  1  0  0  0  0
 26 28  2  0  0  0  0
 24 25  1  0  0  0  0
 24 26  1  0  0  0  0
 22 23  1  0  0  0  0
 22 24  2  0  0  0  0
 20 21  1  0  0  0  0
 20 22  1  0  0  0  0
 19 20  2  0  0  0  0
 19 28  1  0  0  0  0
 17 18  1  0  0  0  0
 17 19  1  0  0  0  0
 15 16  1  0  0  0  0
 15 17  1  0  0  0  0
 14 15  2  0  0  0  0
 14 28  1  0  0  0  0
 11 12  1  0  0  0  0
 11 13  1  0  0  0  0
 11 14  1  0  0  0  0
  9 10  1  0  0  0  0
  9 11  1  0  0  0  0
  9 29  1  0  0  0  0
  7  8  1  0  0  0  0
  7  9  1  0  0  0  0
 33 34  1  0  0  0  0
 33 35  1  0  0  0  0
 33 36  1  0  0  0  0
 31 32  1  0  0  0  0
 31 33  1  0  0  0  0
M  END
$$$$
default_name
  -OEChem-02102213163D

 36 37  0     1  0  0  0  0  0999 V2000
   -4.0843   -4.0736    1.2944 H   0  0  0  0  0  0  0  0  0  0  0  0
   -4.0342   -3.2816    0.5484 C   0  0  0  0  0  0  0  0  0  0  0  0
   -4.8842   -2.6126    0.6694 H   0  0  0  0  0  0  0  0  0  0  0  0
   -4.0433   -3.7186   -0.4486 H   0  0  0  0  0  0  0  0  0  0  0  0
   -2.7532   -2.5046    0.7444 C   0  0  0  0  0  0  0  0  0  0  0  0
   -1.9803   -2.8096    1.6434 O   0  0  0  0  0  0  0  0  0  0  0  0
   -2.5332   -1.4966   -0.0966 N   0  0  0  0  0  0  0  0  0  0  0  0
   -3.2312   -1.2816   -0.7936 H   0  0  0  0  0  0  0  0  0  0  0  0
   -1.3593   -0.6196   -0.0536 C   0  0  1  0  0  0  0  0  0  0  0  0
   -0.4622   -1.2317   -0.1545 H   0  0  0  0  0  0  0  0  0  0  0  0
   -1.4074    0.3593   -1.2373 C   0  0  0  0  0  0  0  0  0  0  0  0
   -0.8897    1.2779   -0.9552 H   0  0  0  0  0  0  0  0  0  0  0  0
   -0.8644   -0.0817   -2.0750 H   0  0  0  0  0  0  0  0  0  0  0  0
   -2.7832    0.7273   -1.7039 C   0  0  0  0  0  0  0  0  0  0  0  0
   -3.1222    1.0573   -2.9703 C   0  0  0  0  0  0  0  0  0  0  0  0
   -2.4270    1.1129   -3.8008 H   0  0  0  0  0  0  0  0  0  0  0  0
   -4.4818    1.2894   -3.0414 N   0  0  0  0  0  0  0  0  0  0  0  0
   -4.9579    1.5549   -3.8912 H   0  0  0  0  0  0  0  0  0  0  0  0
   -5.0931    1.1031   -1.8198 C   0  0  0  0  0  0  0  0  0  0  0  0
   -6.4261    1.1871   -1.3927 C   0  0  0  0  0  0  0  0  0  0  0  0
   -7.2086    1.4503   -2.0892 H   0  0  0  0  0  0  0  0  0  0  0  0
   -6.7292    0.9257   -0.0455 C   0  0  0  0  0  0  0  0  0  0  0  0
   -7.7516    0.9867    0.3023 H   0  0  0  0  0  0  0  0  0  0  0  0
   -5.6992    0.5909    0.8525 C   0  0  0  0  0  0  0  0  0  0  0  0
   -5.9358    0.3988    1.8899 H   0  0  0  0  0  0  0  0  0  0  0  0
   -4.3626    0.5114    0.4125 C   0  0  0  0  0  0  0  0  0  0  0  0
   -3.5794    0.2663    1.1157 H   0  0  0  0  0  0  0  0  0  0  0  0
   -4.0263    0.7621   -0.9354 C   0  0  0  0  0  0  0  0  0  0  0  0
   -1.2663    0.1182    1.2910 C   0  0  0  0  0  0  0  0  0  0  0  0
   -0.1906    0.1931    1.8833 O   0  0  0  0  0  0  0  0  0  0  0  0
   -2.3930    0.6605    1.7722 N   0  0  0  0  0  0  0  0  0  0  0  0
   -3.2451    0.5077    1.2518 H   0  0  0  0  0  0  0  0  0  0  0  0
   -2.4787    1.3954    3.0311 C   0  0  0  0  0  0  0  0  0  0  0  0
   -1.7166    2.1767    3.0539 H   0  0  0  0  0  0  0  0  0  0  0  0
   -3.4649    1.8498    3.1344 H   0  0  0  0  0  0  0  0  0  0  0  0
   -2.3058    0.7133    3.8652 H   0  0  0  0  0  0  0  0  0  0  0  0
  5  6  2  0  0  0  0
  5  7  1  0  0  0  0
  2  3  1  0  0  0  0
  2  4  1  0  0  0  0
  2  5  1  0  0  0  0
  1  2  1  0  0  0  0
 29 30  2  0  0  0  0
 29 31  1  0  0  0  0
 26 27  1  0  0  0  0
 26 28  2  0  0  0  0
 24 25  1  0  0  0  0
 24 26  1  0  0  0  0
 22 23  1  0  0  0  0
 22 24  2  0  0  0  0
 20 21  1  0  0  0  0
 20 22  1  0  0  0  0
 19 20  2  0  0  0  0
 19 28  1  0  0  0  0
 17 18  1  0  0  0  0
 17 19  1  0  0  0  0
 15 16  1  0  0  0  0
 15 17  1  0  0  0  0
 14 15  2  0  0  0  0
 14 28  1  0  0  0  0
 11 12  1  0  0  0  0
 11 13  1  0  0  0  0
 11 14  1  0  0  0  0
  9 10  1  0  0  0  0
  9 11  1  0  0  0  0
  9 29  1  0  0  0  0
  7  8  1  0  0  0  0
  7  9  1  0  0  0  0
 33 34  1  0  0  0  0
 33 35  1  0  0  0  0
 33 36  1  0  0  0  0
 31 32  1  0  0  0  0
 31 33  1  0  0  0  0
M  END
$$$$
default_name
  -OEChem-02102213163D

 36 37  0     1  0  0  0  0  0999 V2000
   -4.0843   -4.0736    1.2944 H   0  0  0  0  0  0  0  0  0  0  0  0
   -4.0342   -3.2816    0.5484 C   0  0  0  0  0  0  0  0  0  0  0  0
   -4.8842   -2.6126    0.6694 H   0  0  0  0  0  0  0  0  0  0  0  0
   -4.0433   -3.7186   -0.4486 H   0  0  0  0  0  0  0  0  0  0  0  0
   -2.7532   -2.5046    0.7444 C   0  0  0  0  0  0  0  0  0  0  0  0
   -1.9803   -2.8096    1.6434 O   0  0  0  0  0  0  0  0  0  0  0  0
   -2.5332   -1.4966   -0.0966 N   0  0  0  0  0  0  0  0  0  0  0  0
   -3.2312   -1.2816   -0.7936 H   0  0  0  0  0  0  0  0  0  0  0  0
   -1.3593   -0.6196   -0.0536 C   0  0  1  0  0  0  0  0  0  0  0  0
   -0.4622   -1.2317   -0.1545 H   0  0  0  0  0  0  0  0  0  0  0  0
   -1.4074    0.3593   -1.2373 C   0  0  0  0  0  0  0  0  0  0  0  0
   -0.8897    1.2779   -0.9552 H   0  0  0  0  0  0  0  0  0  0  0  0
   -0.8644   -0.0817   -2.0750 H   0  0  0  0  0  0  0  0  0  0  0  0
   -2.7832    0.7273   -1.7039 C   0  0  0  0  0  0  0  0  0  0  0  0
   -3.1892    0.7790   -2.9924 C   0  0  0  0  0  0  0  0  0  0  0  0
   -2.5545    0.5763   -3.8481 H   0  0  0  0  0  0  0  0  0  0  0  0
   -4.5298    1.1070   -3.0439 N   0  0  0  0  0  0  0  0  0  0  0  0
   -5.0462    1.2063   -3.9056 H   0  0  0  0  0  0  0  0  0  0  0  0
   -5.0618    1.2677   -1.7822 C   0  0  0  0  0  0  0  0  0  0  0  0
   -6.3503    1.5670   -1.3166 C   0  0  0  0  0  0  0  0  0  0  0  0
   -7.1604    1.7272   -2.0128 H   0  0  0  0  0  0  0  0  0  0  0  0
   -6.5720    1.6574    0.0682 C   0  0  0  0  0  0  0  0  0  0  0  0
   -7.5590    1.8884    0.4456 H   0  0  0  0  0  0  0  0  0  0  0  0
   -5.5062    1.4534    0.9635 C   0  0  0  0  0  0  0  0  0  0  0  0
   -5.6794    1.5321    2.0279 H   0  0  0  0  0  0  0  0  0  0  0  0
   -4.2148    1.1551    0.4843 C   0  0  0  0  0  0  0  0  0  0  0  0
   -3.4020    1.0139    1.1825 H   0  0  0  0  0  0  0  0  0  0  0  0
   -3.9608    1.0513   -0.9005 C   0  0  0  0  0  0  0  0  0  0  0  0
   -1.2663    0.1182    1.2910 C   0  0  0  0  0  0  0  0  0  0  0  0
   -0.1906    0.1931    1.8833 O   0  0  0  0  0  0  0  0  0  0  0  0
   -2.3930    0.6605    1.7722 N   0  0  0  0  0  0  0  0  0  0  0  0
   -3.2451    0.5077    1.2518 H   0  0  0  0  0  0  0  0  0  0  0  0
   -2.4787    1.3954    3.0311 C   0  0  0  0  0  0  0  0  0  0  0  0
   -1.7166    2.1767    3.0539 H   0  0  0  0  0  0  0  0  0  0  0  0
   -3.4649    1.8498    3.1344 H   0  0  0  0  0  0  0  0  0  0  0  0
   -2.3058    0.7133    3.8652 H   0  0  0  0  0  0  0  0  0  0  0  0
  5  6  2  0  0  0  0
  5  7  1  0  0  0  0
  2  3  1  0  0  0  0
  2  4  1  0  0  0  0
  2  5  1  0  0  0  0
  1  2  1  0  0  0  0
 29 30  2  0  0  0  0
 29 31  1  0  0  0  0
 26 27  1  0  0  0  0
 26 28  2  0  0  0  0
 24 25  1  0  0  0  0
 24 26  1  0  0  0  0
 22 23  1  0  0  0  0
 22 24  2  0  0  0  0
 20 21  1  0  0  0  0
 20 22  1  0  0  0  0
 19 20  2  0  0  0  0
 19 28  1  0  0  0  0
 17 18  1  0  0  0  0
 17 19  1  0  0  0  0
 15 16  1  0  0  0  0
 15 17  1  0  0  0  0
 14 15  2  0  0  0  0
 14 28  1  0  0  0  0
 11 12  1  0  0  0  0
 11 13  1  0  0  0  0
 11 14  1  0  0  0  0
  9 10  1  0  0  0  0
  9 11  1  0  0  0  0
  9 29  1  0  0  0  0
  7  8  1  0  0  0  0
  7  9  1  0  0  0  0
 33 34  1  0  0  0  0
 33 35  1  0  0  0  0
 33 36  1  0  0  0  0
 31 32  1  0  0  0  0
 31 33  1  0  0  0  0
M  END
$$$$
default_name
  -OEChem-02102213163D

 36 37  0     1  0  0  0  0  0999 V2000
   -4.0843   -4.0736    1.2944 H   0  0  0  0  0  0  0  0  0  0  0  0
   -4.0342   -3.2816    0.5484 C   0  0  0  0  0  0  0  0  0  0  0  0
   -4.8842   -2.6126    0.6694 H   0  0  0  0  0  0  0  0  0  0  0  0
   -4.0433   -3.7186   -0.4486 H   0  0  0  0  0  0  0  0  0  0  0  0
   -2.7532   -2.5046    0.7444 C   0  0  0  0  0  0  0  0  0  0  0  0
   -1.9803   -2.8096    1.6434 O   0  0  0  0  0  0  0  0  0  0  0  0
   -2.5332   -1.4966   -0.0966 N   0  0  0  0  0  0  0  0  0  0  0  0
   -3.2312   -1.2816   -0.7936 H   0  0  0  0  0  0  0  0  0  0  0  0
   -1.3593   -0.6196   -0.0536 C   0  0  1  0  0  0  0  0  0  0  0  0
   -0.4622   -1.2317   -0.1545 H   0  0  0  0  0  0  0  0  0  0  0  0
   -1.4074    0.3593   -1.2373 C   0  0  0  0  0  0  0  0  0  0  0  0
   -0.8897    1.2779   -0.9552 H   0  0  0  0  0  0  0  0  0  0  0  0
   -0.8644   -0.0817   -2.0750 H   0  0  0  0  0  0  0  0  0  0  0  0
   -2.7832    0.7273   -1.7039 C   0  0  0  0  0  0  0  0  0  0  0  0
   -3.2777    0.5104   -2.9433 C   0  0  0  0  0  0  0  0  0  0  0  0
   -2.7239    0.0571   -3.7581 H   0  0  0  0  0  0  0  0  0  0  0  0
   -4.5910    0.9342   -2.9998 N   0  0  0  0  0  0  0  0  0  0  0  0
   -5.1606    0.8733   -3.8311 H   0  0  0  0  0  0  0  0  0  0  0  0
   -5.0160    1.4332   -1.7869 C   0  0  0  0  0  0  0  0  0  0  0  0
   -6.2416    1.9460   -1.3383 C   0  0  0  0  0  0  0  0  0  0  0  0
   -7.0867    2.0089   -2.0079 H   0  0  0  0  0  0  0  0  0  0  0  0
   -6.3541    2.3785   -0.0059 C   0  0  0  0  0  0  0  0  0  0  0  0
   -7.2912    2.7778    0.3576 H   0  0  0  0  0  0  0  0  0  0  0  0
   -5.2431    2.2974    0.8536 C   0  0  0  0  0  0  0  0  0  0  0  0
   -5.3317    2.6390    1.8756 H   0  0  0  0  0  0  0  0  0  0  0  0
   -4.0156    1.7820    0.3912 C   0  0  0  0  0  0  0  0  0  0  0  0
   -3.1663    1.7376    1.0582 H   0  0  0  0  0  0  0  0  0  0  0  0
   -3.8720    1.3336   -0.9397 C   0  0  0  0  0  0  0  0  0  0  0  0
   -1.2663    0.1182    1.2910 C   0  0  0  0  0  0  0  0  0  0  0  0
   -0.1906    0.1931    1.8833 O   0  0  0  0  0  0  0  0  0  0  0  0
   -2.3930    0.6605    1.7722 N   0  0  0  0  0  0  0  0  0  0  0  0
   -3.2451    0.5077    1.2518 H   0  0  0  0  0  0  0  0  0  0  0  0
   -2.4787    1.3954    3.0311 C   0  0  0  0  0  0  0  0  0  0  0  0
   -1.7166    2.1767    3.0539 H   0  0  0  0  0  0  0  0  0  0  0  0
   -3.4649    1.8498    3.1344 H   0  0  0  0  0  0  0  0  0  0  0  0
   -2.3058    0.7133    3.8652 H   0  0  0  0  0  0  0  0  0  0  0  0
  5  6  2  0  0  0  0
  5  7  1  0  0  0  0
  2  3  1  0  0  0  0
  2  4  1  0  0  0  0
  2  5  1  0  0  0  0
  1  2  1  0  0  0  0
 29 30  2  0  0  0  0
 29 31  1  0  0  0  0
 26 27  1  0  0  0  0
 26 28  2  0  0  0  0
 24 25  1  0  0  0  0
 24 26  1  0  0  0  0
 22 23  1  0  0  0  0
 22 24  2  0  0  0  0
 20 21  1  0  0  0  0
 20 22  1  0  0  0  0
 19 20  2  0  0  0  0
 19 28  1  0  0  0  0
 17 18  1  0  0  0  0
 17 19  1  0  0  0  0
 15 16  1  0  0  0  0
 15 17  1  0  0  0  0
 14 15  2  0  0  0  0
 14 28  1  0  0  0  0
 11 12  1  0  0  0  0
 11 13  1  0  0  0  0
 11 14  1  0  0  0  0
  9 10  1  0  0  0  0
  9 11  1  0  0  0  0
  9 29  1  0  0  0  0
  7  8  1  0  0  0  0
  7  9  1  0  0  0  0
 33 34  1  0  0  0  0
 33 35  1  0  0  0  0
 33 36  1  0  0  0  0
 31 32  1  0  0  0  0
 31 33  1  0  0  0  0
M  END
$$$$
default_name
  -OEChem-02102213163D

 36 37  0     1  0  0  0  0  0999 V2000
   -4.0843   -4.0736    1.2944 H   0  0  0  0  0  0  0  0  0  0  0  0
   -4.0342   -3.2816    0.5484 C   0  0  0  0  0  0  0  0  0  0  0  0
   -4.8842   -2.6126    0.6694 H   0  0  0  0  0  0  0  0  0  0  0  0
   -4.0433   -3.7186   -0.4486 H   0  0  0  0  0  0  0  0  0  0  0  0
   -2.7532   -2.5046    0.7444 C   0  0  0  0  0  0  0  0  0  0  0  0
   -1.9803   -2.8096    1.6434 O   0  0  0  0  0  0  0  0  0  0  0  0
   -2.5332   -1.4966   -0.0966 N   0  0  0  0  0  0  0  0  0  0  0  0
   -3.2312   -1.2816   -0.7936 H   0  0  0  0  0  0  0  0  0  0  0  0
   -1.3593   -0.6196   -0.0536 C   0  0  1  0  0  0  0  0  0  0  0  0
   -0.4622   -1.2317   -0.1545 H   0  0  0  0  0  0  0  0  0  0  0  0
   -1.4074    0.3593   -1.2373 C   0  0  0  0  0  0  0  0  0  0  0  0
   -0.8897    1.2779   -0.9552 H   0  0  0  0  0  0  0  0  0  0  0  0
   -0.8644   -0.0817   -2.0750 H   0  0  0  0  0  0  0  0  0  0  0  0
   -2.7832    0.7273   -1.7039 C   0  0  0  0  0  0  0  0  0  0  0  0
   -3.3817    0.2698   -2.8265 C   0  0  0  0  0  0  0  0  0  0  0  0
   -2.9236   -0.4094   -3.5371 H   0  0  0  0  0  0  0  0  0  0  0  0
   -4.6612    0.7826   -2.9124 N   0  0  0  0  0  0  0  0  0  0  0  0
   -5.2931    0.5786   -3.6728 H   0  0  0  0  0  0  0  0  0  0  0  0
   -4.9586    1.5881   -1.8338 C   0  0  0  0  0  0  0  0  0  0  0  0
   -6.1074    2.2981   -1.4562 C   0  0  0  0  0  0  0  0  0  0  0  0
   -6.9925    2.2763   -2.0748 H   0  0  0  0  0  0  0  0  0  0  0  0
   -6.0901    3.0398   -0.2626 C   0  0  0  0  0  0  0  0  0  0  0  0
   -6.9665    3.5945    0.0442 H   0  0  0  0  0  0  0  0  0  0  0  0
   -4.9281    3.0652    0.5301 C   0  0  0  0  0  0  0  0  0  0  0  0
   -4.9164    3.6439    1.4434 H   0  0  0  0  0  0  0  0  0  0  0  0
   -3.7785    2.3493    0.1397 C   0  0  0  0  0  0  0  0  0  0  0  0
   -2.8881    2.3882    0.7511 H   0  0  0  0  0  0  0  0  0  0  0  0
   -3.7659    1.5899   -1.0502 C   0  0  0  0  0  0  0  0  0  0  0  0
   -1.2663    0.1182    1.2910 C   0  0  0  0  0  0  0  0  0  0  0  0
   -0.1906    0.1931    1.8833 O   0  0  0  0  0  0  0  0  0  0  0  0
   -2.3930    0.6605    1.7722 N   0  0  0  0  0  0  0  0  0  0  0  0
   -3.2451    0.5077    1.2518 H   0  0  0  0  0  0  0  0  0  0  0  0
   -2.4787    1.3954    3.0311 C   0  0  0  0  0  0  0  0  0  0  0  0
   -1.7166    2.1767    3.0539 H   0  0  0  0  0  0  0  0  0  0  0  0
   -3.4649    1.8498    3.1344 H   0  0  0  0  0  0  0  0  0  0  0  0
   -2.3058    0.7133    3.8652 H   0  0  0  0  0  0  0  0  0  0  0  0
  5  6  2  0  0  0  0
  5  7  1  0  0  0  0
  2  3  1  0  0  0  0
  2  4  1  0  0  0  0
  2  5  1  0  0  0  0
  1  2  1  0  0  0  0
 29 30  2  0  0  0  0
 29 31  1  0  0  0  0
 26 27  1  0  0  0  0
 26 28  2  0  0  0  0
 24 25  1  0  0  0  0
 24 26  1  0  0  0  0
 22 23  1  0  0  0  0
 22 24  2  0  0  0  0
 20 21  1  0  0  0  0
 20 22  1  0  0  0  0
 19 20  2  0  0  0  0
 19 28  1  0  0  0  0
 17 18  1  0  0  0  0
 17 19  1  0  0  0  0
 15 16  1  0  0  0  0
 15 17  1  0  0  0  0
 14 15  2  0  0  0  0
 14 28  1  0  0  0  0
 11 12  1  0  0  0  0
 11 13  1  0  0  0  0
 11 14  1  0  0  0  0
  9 10  1  0  0  0  0
  9 11  1  0  0  0  0
  9 29  1  0  0  0  0
  7  8  1  0  0  0  0
  7  9  1  0  0  0  0
 33 34  1  0  0  0  0
 33 35  1  0  0  0  0
 33 36  1  0  0  0  0
 31 32  1  0  0  0  0
 31 33  1  0  0  0  0
M  END
$$$$
default_name
  -OEChem-02102213163D

 36 37  0     1  0  0  0  0  0999 V2000
   -4.0843   -4.0736    1.2944 H   0  0  0  0  0  0  0  0  0  0  0  0
   -4.0342   -3.2816    0.5484 C   0  0  0  0  0  0  0  0  0  0  0  0
   -4.8842   -2.6126    0.6694 H   0  0  0  0  0  0  0  0  0  0  0  0
   -4.0433   -3.7186   -0.4486 H   0  0  0  0  0  0  0  0  0  0  0  0
   -2.7532   -2.5046    0.7444 C   0  0  0  0  0  0  0  0  0  0  0  0
   -1.9803   -2.8096    1.6434 O   0  0  0  0  0  0  0  0  0  0  0  0
   -2.5332   -1.4966   -0.0966 N   0  0  0  0  0  0  0  0  0  0  0  0
   -3.2312   -1.2816   -0.7936 H   0  0  0  0  0  0  0  0  0  0  0  0
   -1.3593   -0.6196   -0.0536 C   0  0  1  0  0  0  0  0  0  0  0  0
   -0.4622   -1.2317   -0.1545 H   0  0  0  0  0  0  0  0  0  0  0  0
   -1.4074    0.3593   -1.2373 C   0  0  0  0  0  0  0  0  0  0  0  0
   -0.8897    1.2779   -0.9552 H   0  0  0  0  0  0  0  0  0  0  0  0
   -0.8644   -0.0817   -2.0750 H   0  0  0  0  0  0  0  0  0  0  0  0
   -2.7832    0.7273   -1.7039 C   0  0  0  0  0  0  0  0  0  0  0  0
   -3.4941    0.0734   -2.6498 C   0  0  0  0  0  0  0  0  0  0  0  0
   -3.1401   -0.7914   -3.2001 H   0  0  0  0  0  0  0  0  0  0  0  0
   -4.7357    0.6626   -2.7874 N   0  0  0  0  0  0  0  0  0  0  0  0
   -5.4348    0.3422   -3.4414 H   0  0  0  0  0  0  0  0  0  0  0  0
   -4.8937    1.7220   -1.9195 C   0  0  0  0  0  0  0  0  0  0  0  0
   -5.9569    2.5995   -1.6622 C   0  0  0  0  0  0  0  0  0  0  0  0
   -6.8842    2.5110   -2.2090 H   0  0  0  0  0  0  0  0  0  0  0  0
   -5.7982    3.5964   -0.6844 C   0  0  0  0  0  0  0  0  0  0  0  0
   -6.6070    4.2828   -0.4732 H   0  0  0  0  0  0  0  0  0  0  0  0
   -4.5824    3.7046    0.0152 C   0  0  0  0  0  0  0  0  0  0  0  0
   -4.4617    4.4784    0.7608 H   0  0  0  0  0  0  0  0  0  0  0  0
   -3.5198    2.8185   -0.2530 C   0  0  0  0  0  0  0  0  0  0  0  0
   -2.5866    2.9212    0.2823 H   0  0  0  0  0  0  0  0  0  0  0  0
   -3.6499    1.8026   -1.2246 C   0  0  0  0  0  0  0  0  0  0  0  0
   -1.2663    0.1182    1.2910 C   0  0  0  0  0  0  0  0  0  0  0  0
   -0.1906    0.1931    1.8833 O   0  0  0  0  0  0  0  0  0  0  0  0
   -2.3930    0.6605    1.7722 N   0  0  0  0  0  0  0  0  0  0  0  0
   -3.2451    0.5077    1.2518 H   0  0  0  0  0  0  0  0  0  0  0  0
   -2.4787    1.3954    3.0311 C   0  0  0  0  0  0  0  0  0  0  0  0
   -1.7166    2.1767    3.0539 H   0  0  0  0  0  0  0  0  0  0  0  0
   -3.4649    1.8498    3.1344 H   0  0  0  0  0  0  0  0  0  0  0  0
   -2.3058    0.7133    3.8652 H   0  0  0  0  0  0  0  0  0  0  0  0
  5  6  2  0  0  0  0
  5  7  1  0  0  0  0
  2  3  1  0  0  0  0
  2  4  1  0  0  0  0
  2  5  1  0  0  0  0
  1  2  1  0  0  0  0
 29 30  2  0  0  0  0
 29 31  1  0  0  0  0
 26 27  1  0  0  0  0
 26 28  2  0  0  0  0
 24 25  1  0  0  0  0
 24 26  1  0  0  0  0
 22 23  1  0  0  0  0
 22 24  2  0  0  0  0
 20 21  1  0  0  0  0
 20 22  1  0  0  0  0
 19 20  2  0  0  0  0
 19 28  1  0  0  0  0
 17 18  1  0  0  0  0
 17 19  1  0  0  0  0
 15 16  1  0  0  0  0
 15 17  1  0  0  0  0
 14 15  2  0  0  0  0
 14 28  1  0  0  0  0
 11 12  1  0  0  0  0
 11 13  1  0  0  0  0
 11 14  1  0  0  0  0
  9 10  1  0  0  0  0
  9 11  1  0  0  0  0
  9 29  1  0  0  0  0
  7  8  1  0  0  0  0
  7  9  1  0  0  0  0
 33 34  1  0  0  0  0
 33 35  1  0  0  0  0
 33 36  1  0  0  0  0
 31 32  1  0  0  0  0
 31 33  1  0  0  0  0
M  END
$$$$
default_name
  -OEChem-02102213163D

 36 37  0     1  0  0  0  0  0999 V2000
   -4.0843   -4.0736    1.2944 H   0  0  0  0  0  0  0  0  0  0  0  0
   -4.0342   -3.2816    0.5484 C   0  0  0  0  0  0  0  0  0  0  0  0
   -4.8842   -2.6126    0.6694 H   0  0  0  0  0  0  0  0  0  0  0  0
   -4.0433   -3.7186   -0.4486 H   0  0  0  0  0  0  0  0  0  0  0  0
   -2.7532   -2.5046    0.7444 C   0  0  0  0  0  0  0  0  0  0  0  0
   -1.9803   -2.8096    1.6434 O   0  0  0  0  0  0  0  0  0  0  0  0
   -2.5332   -1.4966   -0.0966 N   0  0  0  0  0  0  0  0  0  0  0  0
   -3.2312   -1.2816   -0.7936 H   0  0  0  0  0  0  0  0  0  0  0  0
   -1.3593   -0.6196   -0.0536 C   0  0  1  0  0  0  0  0  0  0  0  0
   -0.4622   -1.2317   -0.1545 H   0  0  0  0  0  0  0  0  0  0  0  0
   -1.4074    0.3593   -1.2373 C   0  0  0  0  0  0  0  0  0  0  0  0
   -0.8897    1.2779   -0.9552 H   0  0  0  0  0  0  0  0  0  0  0  0
   -0.8644   -0.0817   -2.0750 H   0  0  0  0  0  0  0  0  0  0  0  0
   -2.7832    0.7273   -1.7039 C   0  0  0  0  0  0  0  0  0  0  0  0
   -3.6073   -0.0652   -2.4254 C   0  0  0  0  0  0  0  0  0  0  0  0
   -3.3586   -1.0629   -2.7700 H   0  0  0  0  0  0  0  0  0  0  0  0
   -4.8093    0.5823   -2.6334 N   0  0  0  0  0  0  0  0  0  0  0  0
   -5.5760    0.1803   -3.1528 H   0  0  0  0  0  0  0  0  0  0  0  0
   -4.8257    1.8258   -2.0382 C   0  0  0  0  0  0  0  0  0  0  0  0
   -5.8004    2.8294   -1.9424 C   0  0  0  0  0  0  0  0  0  0  0  0
   -6.7692    2.6972   -2.4012 H   0  0  0  0  0  0  0  0  0  0  0  0
   -5.4981    4.0102   -1.2427 C   0  0  0  0  0  0  0  0  0  0  0  0
   -6.2371    4.7956   -1.1593 H   0  0  0  0  0  0  0  0  0  0  0  0
   -4.2297    4.1721   -0.6560 C   0  0  0  0  0  0  0  0  0  0  0  0
   -3.9986    5.0856   -0.1258 H   0  0  0  0  0  0  0  0  0  0  0  0
   -3.2571    3.1575   -0.7604 C   0  0  0  0  0  0  0  0  0  0  0  0
   -2.2821    3.3003   -0.3164 H   0  0  0  0  0  0  0  0  0  0  0  0
   -3.5317    1.9573   -1.4510 C   0  0  0  0  0  0  0  0  0  0  0  0
   -1.2663    0.1182    1.2910 C   0  0  0  0  0  0  0  0  0  0  0  0
   -0.1906    0.1931    1.8833 O   0  0  0  0  0  0  0  0  0  0  0  0
   -2.3930    0.6605    1.7722 N   0  0  0  0  0  0  0  0  0  0  0  0
   -3.2451    0.5077    1.2518 H   0  0  0  0  0  0  0  0  0  0  0  0
   -2.4787    1.3954    3.0311 C   0  0  0  0  0  0  0  0  0  0  0  0
   -1.7166    2.1767    3.0539 H   0  0  0  0  0  0  0  0  0  0  0  0
   -3.4649    1.8498    3.1344 H   0  0  0  0  0  0  0  0  0  0  0  0
   -2.3058    0.7133    3.8652 H   0  0  0  0  0  0  0  0  0  0  0  0
  5  6  2  0  0  0  0
  5  7  1  0  0  0  0
  2  3  1  0  0  0  0
  2  4  1  0  0  0  0
  2  5  1  0  0  0  0
  1  2  1  0  0  0  0
 29 30  2  0  0  0  0
 29 31  1  0  0  0  0
 26 27  1  0  0  0  0
 26 28  2  0  0  0  0
 24 25  1  0  0  0  0
 24 26  1  0  0  0  0
 22 23  1  0  0  0  0
 22 24  2  0  0  0  0
 20 21  1  0  0  0  0
 20 22  1  0  0  0  0
 19 20  2  0  0  0  0
 19 28  1  0  0  0  0
 17 18  1  0  0  0  0
 17 19  1  0  0  0  0
 15 16  1  0  0  0  0
 15 17  1  0  0  0  0
 14 15  2  0  0  0  0
 14 28  1  0  0  0  0
 11 12  1  0  0  0  0
 11 13  1  0  0  0  0
 11 14  1  0  0  0  0
  9 10  1  0  0  0  0
  9 11  1  0  0  0  0
  9 29  1  0  0  0  0
  7  8  1  0  0  0  0
  7  9  1  0  0  0  0
 33 34  1  0  0  0  0
 33 35  1  0  0  0  0
 33 36  1  0  0  0  0
 31 32  1  0  0  0  0
 31 33  1  0  0  0  0
M  END
$$$$
default_name
  -OEChem-02102213163D

 36 37  0     1  0  0  0  0  0999 V2000
   -4.0843   -4.0736    1.2944 H   0  0  0  0  0  0  0  0  0  0  0  0
   -4.0342   -3.2816    0.5484 C   0  0  0  0  0  0  0  0  0  0  0  0
   -4.8842   -2.6126    0.6694 H   0  0  0  0  0  0  0  0  0  0  0  0
   -4.0433   -3.7186   -0.4486 H   0  0  0  0  0  0  0  0  0  0  0  0
   -2.7532   -2.5046    0.7444 C   0  0  0  0  0  0  0  0  0  0  0  0
   -1.9803   -2.8096    1.6434 O   0  0  0  0  0  0  0  0  0  0  0  0
   -2.5332   -1.4966   -0.0966 N   0  0  0  0  0  0  0  0  0  0  0  0
   -3.2312   -1.2816   -0.7936 H   0  0  0  0  0  0  0  0  0  0  0  0
   -1.3593   -0.6196   -0.0536 C   0  0  1  0  0  0  0  0  0  0  0  0
   -0.4622   -1.2317   -0.1545 H   0  0  0  0  0  0  0  0  0  0  0  0
   -1.4074    0.3593   -1.2373 C   0  0  0  0  0  0  0  0  0  0  0  0
   -0.8897    1.2779   -0.9552 H   0  0  0  0  0  0  0  0  0  0  0  0
   -0.8644   -0.0817   -2.0750 H   0  0  0  0  0  0  0  0  0  0  0  0
   -2.7832    0.7273   -1.7039 C   0  0  0  0  0  0  0  0  0  0  0  0
   -3.7135   -0.1366   -2.1685 C   0  0  0  0  0  0  0  0  0  0  0  0
   -3.5641   -1.2053   -2.2762 H   0  0  0  0  0  0  0  0  0  0  0  0
   -4.8772    0.5474   -2.4609 N   0  0  0  0  0  0  0  0  0  0  0  0
   -5.7071    0.1038   -2.8265 H   0  0  0  0  0  0  0  0  0  0  0  0
   -4.7592    1.8924   -2.1819 C   0  0  0  0  0  0  0  0  0  0  0  0
   -5.6484    2.9724   -2.2776 C   0  0  0  0  0  0  0  0  0  0  0  0
   -6.6554    2.8221   -2.6384 H   0  0  0  0  0  0  0  0  0  0  0  0
   -5.2105    4.2531   -1.8994 C   0  0  0  0  0  0  0  0  0  0  0  0
   -5.8821    5.0982   -1.9675 H   0  0  0  0  0  0  0  0  0  0  0  0
   -3.8940    4.4357   -1.4379 C   0  0  0  0  0  0  0  0  0  0  0  0
   -3.5587    5.4242   -1.1558 H   0  0  0  0  0  0  0  0  0  0  0  0
   -3.0082    3.3433   -1.3476 C   0  0  0  0  0  0  0  0  0  0  0  0
   -1.9955    3.4998   -1.0041 H   0  0  0  0  0  0  0  0  0  0  0  0
   -3.4195    2.0434   -1.7140 C   0  0  0  0  0  0  0  0  0  0  0  0
   -1.2663    0.1182    1.2910 C   0  0  0  0  0  0  0  0  0  0  0  0
   -0.1906    0.1931    1.8833 O   0  0  0  0  0  0  0  0  0  0  0  0
   -2.3930    0.6605    1.7722 N   0  0  0  0  0  0  0  0  0  0  0  0
   -3.2451    0.5077    1.2518 H   0  0  0  0  0  0  0  0  0  0  0  0
   -2.4787    1.3954    3.0311 C   0  0  0  0  0  0  0  0  0  0  0  0
   -1.7166    2.1767    3.0539 H   0  0  0  0  0  0  0  0  0  0  0  0
   -3.4649    1.8498    3.1344 H   0  0  0  0  0  0  0  0  0  0  0  0
   -2.3058    0.7133    3.8652 H   0  0  0  0  0  0  0  0  0  0  0  0
  5  6  2  0  0  0  0
  5  7  1  0  0  0  0
  2  3  1  0  0  0  0
  2  4  1  0  0  0  0
  2  5  1  0  0  0  0
  1  2  1  0  0  0  0
 29 30  2  0  0  0  0
 29 31  1  0  0  0  0
 26 27  1  0  0  0  0
 26 28  2  0  0  0  0
 24 25  1  0  0  0  0
 24 26  1  0  0  0  0
 22 23  1  0  0  0  0
 22 24  2  0  0  0  0
 20 21  1  0  0  0  0
 20 22  1  0  0  0  0
 19 20  2  0  0  0  0
 19 28  1  0  0  0  0
 17 18  1  0  0  0  0
 17 19  1  0  0  0  0
 15 16  1  0  0  0  0
 15 17  1  0  0  0  0
 14 15  2  0  0  0  0
 14 28  1  0  0  0  0
 11 12  1  0  0  0  0
 11 13  1  0  0  0  0
 11 14  1  0  0  0  0
  9 10  1  0  0  0  0
  9 11  1  0  0  0  0
  9 29  1  0  0  0  0
  7  8  1  0  0  0  0
  7  9  1  0  0  0  0
 33 34  1  0  0  0  0
 33 35  1  0  0  0  0
 33 36  1  0  0  0  0
 31 32  1  0  0  0  0
 31 33  1  0  0  0  0
M  END
$$$$
default_name
  -OEChem-02102213163D

 36 37  0     1  0  0  0  0  0999 V2000
   -4.0843   -4.0736    1.2944 H   0  0  0  0  0  0  0  0  0  0  0  0
   -4.0342   -3.2816    0.5484 C   0  0  0  0  0  0  0  0  0  0  0  0
   -4.8842   -2.6126    0.6694 H   0  0  0  0  0  0  0  0  0  0  0  0
   -4.0433   -3.7186   -0.4486 H   0  0  0  0  0  0  0  0  0  0  0  0
   -2.7532   -2.5046    0.7444 C   0  0  0  0  0  0  0  0  0  0  0  0
   -1.9803   -2.8096    1.6434 O   0  0  0  0  0  0  0  0  0  0  0  0
   -2.5332   -1.4966   -0.0966 N   0  0  0  0  0  0  0  0  0  0  0  0
   -3.2312   -1.2816   -0.7936 H   0  0  0  0  0  0  0  0  0  0  0  0
   -1.3593   -0.6196   -0.0536 C   0  0  1  0  0  0  0  0  0  0  0  0
   -0.4622   -1.2317   -0.1545 H   0  0  0  0  0  0  0  0  0  0  0  0
   -1.4074    0.3593   -1.2373 C   0  0  0  0  0  0  0  0  0  0  0  0
   -0.8897    1.2779   -0.9552 H   0  0  0  0  0  0  0  0  0  0  0  0
   -0.8644   -0.0817   -2.0750 H   0  0  0  0  0  0  0  0  0  0  0  0
   -2.7832    0.7273   -1.7039 C   0  0  0  0  0  0  0  0  0  0  0  0
   -3.8056   -0.1360   -1.8966 C   0  0  0  0  0  0  0  0  0  0  0  0
   -3.7428   -1.2090   -1.7523 H   0  0  0  0  0  0  0  0  0  0  0  0
   -4.9346    0.5601   -2.2817 N   0  0  0  0  0  0  0  0  0  0  0  0
   -5.8192    0.1181   -2.4848 H   0  0  0  0  0  0  0  0  0  0  0  0
   -4.6987    1.9171   -2.3407 C   0  0  0  0  0  0  0  0  0  0  0  0
   -5.5115    3.0186   -2.6451 C   0  0  0  0  0  0  0  0  0  0  0  0
   -6.5504    2.8772   -2.9045 H   0  0  0  0  0  0  0  0  0  0  0  0
   -4.9548    4.3085   -2.6096 C   0  0  0  0  0  0  0  0  0  0  0  0
   -5.5662    5.1698   -2.8425 H   0  0  0  0  0  0  0  0  0  0  0  0
   -3.5982    4.4775   -2.2771 C   0  0  0  0  0  0  0  0  0  0  0  0
   -3.1719    5.4710   -2.2592 H   0  0  0  0  0  0  0  0  0  0  0  0
   -2.7902    3.3631   -1.9749 C   0  0  0  0  0  0  0  0  0  0  0  0
   -1.7464    3.5059   -1.7340 H   0  0  0  0  0  0  0  0  0  0  0  0
   -3.3209    2.0551   -1.9956 C   0  0  0  0  0  0  0  0  0  0  0  0
   -1.2663    0.1182    1.2910 C   0  0  0  0  0  0  0  0  0  0  0  0
   -0.1906    0.1931    1.8833 O   0  0  0  0  0  0  0  0  0  0  0  0
   -2.3930    0.6605    1.7722 N   0  0  0  0  0  0  0  0  0  0  0  0
   -3.2451    0.5077    1.2518 H   0  0  0  0  0  0  0  0  0  0  0  0
   -2.4787    1.3954    3.0311 C   0  0  0  0  0  0  0  0  0  0  0  0
   -1.7166    2.1767    3.0539 H   0  0  0  0  0  0  0  0  0  0  0  0
   -3.4649    1.8498    3.1344 H   0  0  0  0  0  0  0  0  0  0  0  0
   -2.3058    0.7133    3.8652 H   0  0  0  0  0  0  0  0  0  0  0  0
  5  6  2  0  0  0  0
  5  7  1  0  0  0  0
  2  3  1  0  0  0  0
  2  4  1  0  0  0  0
  2  5  1  0  0  0  0
  1  2  1  0  0  0  0
 29 30  2  0  0  0  0
 29 31  1  0  0  0  0
 26 27  1  0  0  0  0
 26 28  2  0  0  0  0
 24 25  1  0  0  0  0
 24 26  1  0  0  0  0
 22 23  1  0  0  0  0
 22 24  2  0  0  0  0
 20 21  1  0  0  0  0
 20 22  1  0  0  0  0
 19 20  2  0  0  0  0
 19 28  1  0  0  0  0
 17 18  1  0  0  0  0
 17 19  1  0  0  0  0
 15 16  1  0  0  0  0
 15 17  1  0  0  0  0
 14 15  2  0  0  0  0
 14 28  1  0  0  0  0
 11 12  1  0  0  0  0
 11 13  1  0  0  0  0
 11 14  1  0  0  0  0
  9 10  1  0  0  0  0
  9 11  1  0  0  0  0
  9 29  1  0  0  0  0
  7  8  1  0  0  0  0
  7  9  1  0  0  0  0
 33 34  1  0  0  0  0
 33 35  1  0  0  0  0
 33 36  1  0  0  0  0
 31 32  1  0  0  0  0
 31 33  1  0  0  0  0
M  END
$$$$
default_name
  -OEChem-02102213163D

 36 37  0     1  0  0  0  0  0999 V2000
   -4.0843   -4.0736    1.2944 H   0  0  0  0  0  0  0  0  0  0  0  0
   -4.0342   -3.2816    0.5484 C   0  0  0  0  0  0  0  0  0  0  0  0
   -4.8842   -2.6126    0.6694 H   0  0  0  0  0  0  0  0  0  0  0  0
   -4.0433   -3.7186   -0.4486 H   0  0  0  0  0  0  0  0  0  0  0  0
   -2.7532   -2.5046    0.7444 C   0  0  0  0  0  0  0  0  0  0  0  0
   -1.9803   -2.8096    1.6434 O   0  0  0  0  0  0  0  0  0  0  0  0
   -2.5332   -1.4966   -0.0966 N   0  0  0  0  0  0  0  0  0  0  0  0
   -3.2312   -1.2816   -0.7936 H   0  0  0  0  0  0  0  0  0  0  0  0
   -1.3593   -0.6196   -0.0536 C   0  0  1  0  0  0  0  0  0  0  0  0
   -0.4622   -1.2317   -0.1545 H   0  0  0  0  0  0  0  0  0  0  0  0
   -1.4074    0.3593   -1.2373 C   0  0  0  0  0  0  0  0  0  0  0  0
   -0.8897    1.2779   -0.9552 H   0  0  0  0  0  0  0  0  0  0  0  0
   -0.8644   -0.0817   -2.0750 H   0  0  0  0  0  0  0  0  0  0  0  0
   -2.7832    0.7273   -1.7039 C   0  0  0  0  0  0  0  0  0  0  0  0
   -3.8771   -0.0634   -1.6283 C   0  0  0  0  0  0  0  0  0  0  0  0
   -3.8823   -1.0737   -1.2341 H   0  0  0  0  0  0  0  0  0  0  0  0
   -4.9776    0.6195   -2.1080 N   0  0  0  0  0  0  0  0  0  0  0  0
   -5.9046    0.2220   -2.1511 H   0  0  0  0  0  0  0  0  0  0  0  0
   -4.6484    1.8985   -2.5038 C   0  0  0  0  0  0  0  0  0  0  0  0
   -5.3988    2.9648   -3.0197 C   0  0  0  0  0  0  0  0  0  0  0  0
   -6.4615    2.8587   -3.1812 H   0  0  0  0  0  0  0  0  0  0  0  0
   -4.7485    4.1726   -3.3251 C   0  0  0  0  0  0  0  0  0  0  0  0
   -5.3108    5.0056   -3.7248 H   0  0  0  0  0  0  0  0  0  0  0  0
   -3.3625    4.2947   -3.1164 C   0  0  0  0  0  0  0  0  0  0  0  0
   -2.8647    5.2230   -3.3606 H   0  0  0  0  0  0  0  0  0  0  0  0
   -2.6179    3.2156   -2.5993 C   0  0  0  0  0  0  0  0  0  0  0  0
   -1.5516    3.3184   -2.4563 H   0  0  0  0  0  0  0  0  0  0  0  0
   -3.2426    1.9915   -2.2766 C   0  0  0  0  0  0  0  0  0  0  0  0
   -1.2663    0.1182    1.2910 C   0  0  0  0  0  0  0  0  0  0  0  0
   -0.1906    0.1931    1.8833 O   0  0  0  0  0  0  0  0  0  0  0  0
   -2.3930    0.6605    1.7722 N   0  0  0  0  0  0  0  0  0  0  0  0
   -3.2451    0.5077    1.2518 H   0  0  0  0  0  0  0  0  0  0  0  0
   -2.4787    1.3954    3.0311 C   0  0  0  0  0  0  0  0  0  0  0  0
   -1.7166    2.1767    3.0539 H   0  0  0  0  0  0  0  0  0  0  0  0
   -3.4649    1.8498    3.1344 H   0  0  0  0  0  0  0  0  0  0  0  0
   -2.3058    0.7133    3.8652 H   0  0  0  0  0  0  0  0  0  0  0  0
  5  6  2  0  0  0  0
  5  7  1  0  0  0  0
  2  3  1  0  0  0  0
  2  4  1  0  0  0  0
  2  5  1  0  0  0  0
  1  2  1  0  0  0  0
 29 30  2  0  0  0  0
 29 31  1  0  0  0  0
 26 27  1  0  0  0  0
 26 28  2  0  0  0  0
 24 25  1  0  0  0  0
 24 26  1  0  0  0  0
 22 23  1  0  0  0  0
 22 24  2  0  0  0  0
 20 21  1  0  0  0  0
 20 22  1  0  0  0  0
 19 20  2  0  0  0  0
 19 28  1  0  0  0  0
 17 18  1  0  0  0  0
 17 19  1  0  0  0  0
 15 16  1  0  0  0  0
 15 17  1  0  0  0  0
 14 15  2  0  0  0  0
 14 28  1  0  0  0  0
 11 12  1  0  0  0  0
 11 13  1  0  0  0  0
 11 14  1  0  0  0  0
  9 10  1  0  0  0  0
  9 11  1  0  0  0  0
  9 29  1  0  0  0  0
  7  8  1  0  0  0  0
  7  9  1  0  0  0  0
 33 34  1  0  0  0  0
 33 35  1  0  0  0  0
 33 36  1  0  0  0  0
 31 32  1  0  0  0  0
 31 33  1  0  0  0  0
M  END
$$$$
default_name
  -OEChem-02102213163D

 36 37  0     1  0  0  0  0  0999 V2000
   -4.0843   -4.0736    1.2944 H   0  0  0  0  0  0  0  0  0  0  0  0
   -4.0342   -3.2816    0.5484 C   0  0  0  0  0  0  0  0  0  0  0  0
   -4.8842   -2.6126    0.6694 H   0  0  0  0  0  0  0  0  0  0  0  0
   -4.0433   -3.7186   -0.4486 H   0  0  0  0  0  0  0  0  0  0  0  0
   -2.7532   -2.5046    0.7444 C   0  0  0  0  0  0  0  0  0  0  0  0
   -1.9803   -2.8096    1.6434 O   0  0  0  0  0  0  0  0  0  0  0  0
   -2.5332   -1.4966   -0.0966 N   0  0  0  0  0  0  0  0  0  0  0  0
   -3.2312   -1.2816   -0.7936 H   0  0  0  0  0  0  0  0  0  0  0  0
   -1.3593   -0.6196   -0.0536 C   0  0  1  0  0  0  0  0  0  0  0  0
   -0.4622   -1.2317   -0.1545 H   0  0  0  0  0  0  0  0  0  0  0  0
   -1.4074    0.3593   -1.2373 C   0  0  0  0  0  0  0  0  0  0  0  0
   -0.8897    1.2779   -0.9552 H   0  0  0  0  0  0  0  0  0  0  0  0
   -0.8644   -0.0817   -2.0750 H   0  0  0  0  0  0  0  0  0  0  0  0
   -2.7832    0.7273   -1.7039 C   0  0  0  0  0  0  0  0  0  0  0  0
   -3.9234    0.0763   -1.3818 C   0  0  0  0  0  0  0  0  0  0  0  0
   -3.9733   -0.8086   -0.7568 H   0  0  0  0  0  0  0  0  0  0  0  0
   -5.0033    0.7217   -1.9516 N   0  0  0  0  0  0  0  0  0  0  0  0
   -5.9575    0.4086   -1.8479 H   0  0  0  0  0  0  0  0  0  0  0  0
   -4.6116    1.8376   -2.6601 C   0  0  0  0  0  0  0  0  0  0  0  0
   -5.3181    2.8149   -3.3759 C   0  0  0  0  0  0  0  0  0  0  0  0
   -6.3947    2.7680   -3.4498 H   0  0  0  0  0  0  0  0  0  0  0  0
   -4.6056    3.8548   -3.9971 C   0  0  0  0  0  0  0  0  0  0  0  0
   -5.1335    4.6168   -4.5543 H   0  0  0  0  0  0  0  0  0  0  0  0
   -3.2029    3.8997   -3.8987 C   0  0  0  0  0  0  0  0  0  0  0  0
   -2.6580    4.6969   -4.3851 H   0  0  0  0  0  0  0  0  0  0  0  0
   -2.5030    2.9110   -3.1783 C   0  0  0  0  0  0  0  0  0  0  0  0
   -1.4244    2.9499   -3.1218 H   0  0  0  0  0  0  0  0  0  0  0  0
   -3.1900    1.8570   -2.5379 C   0  0  0  0  0  0  0  0  0  0  0  0
   -1.2663    0.1182    1.2910 C   0  0  0  0  0  0  0  0  0  0  0  0
   -0.1906    0.1931    1.8833 O   0  0  0  0  0  0  0  0  0  0  0  0
   -2.3930    0.6605    1.7722 N   0  0  0  0  0  0  0  0  0  0  0  0
   -3.2451    0.5077    1.2518 H   0  0  0  0  0  0  0  0  0  0  0  0
   -2.4787    1.3954    3.0311 C   0  0  0  0  0  0  0  0  0  0  0  0
   -1.7166    2.1767    3.0539 H   0  0  0  0  0  0  0  0  0  0  0  0
   -3.4649    1.8498    3.1344 H   0  0  0  0  0  0  0  0  0  0  0  0
   -2.3058    0.7133    3.8652 H   0  0  0  0  0  0  0  0  0  0  0  0
  5  6  2  0  0  0  0
  5  7  1  0  0  0  0
  2  3  1  0  0  0  0
  2  4  1  0  0  0  0
  2  5  1  0  0  0  0
  1  2  1  0  0  0  0
 29 30  2  0  0  0  0
 29 31  1  0  0  0  0
 26 27  1  0  0  0  0
 26 28  2  0  0  0  0
 24 25  1  0  0  0  0
 24 26  1  0  0  0  0
 22 23  1  0  0  0  0
 22 24  2  0  0  0  0
 20 21  1  0  0  0  0
 20 22  1  0  0  0  0
 19 20  2  0  0  0  0
 19 28  1  0  0  0  0
 17 18  1  0  0  0  0
 17 19  1  0  0  0  0
 15 16  1  0  0  0  0
 15 17  1  0  0  0  0
 14 15  2  0  0  0  0
 14 28  1  0  0  0  0
 11 12  1  0  0  0  0
 11 13  1  0  0  0  0
 11 14  1  0  0  0  0
  9 10  1  0  0  0  0
  9 11  1  0  0  0  0
  9 29  1  0  0  0  0
  7  8  1  0  0  0  0
  7  9  1  0  0  0  0
 33 34  1  0  0  0  0
 33 35  1  0  0  0  0
 33 36  1  0  0  0  0
 31 32  1  0  0  0  0
 31 33  1  0  0  0  0
M  END
$$$$
default_name
  -OEChem-02102213163D

 36 37  0     1  0  0  0  0  0999 V2000
   -4.0843   -4.0736    1.2944 H   0  0  0  0  0  0  0  0  0  0  0  0
   -4.0342   -3.2816    0.5484 C   0  0  0  0  0  0  0  0  0  0  0  0
   -4.8842   -2.6126    0.6694 H   0  0  0  0  0  0  0  0  0  0  0  0
   -4.0433   -3.7186   -0.4486 H   0  0  0  0  0  0  0  0  0  0  0  0
   -2.7532   -2.5046    0.7444 C   0  0  0  0  0  0  0  0  0  0  0  0
   -1.9803   -2.8096    1.6434 O   0  0  0  0  0  0  0  0  0  0  0  0
   -2.5332   -1.4966   -0.0966 N   0  0  0  0  0  0  0  0  0  0  0  0
   -3.2312   -1.2816   -0.7936 H   0  0  0  0  0  0  0  0  0  0  0  0
   -1.3593   -0.6196   -0.0536 C   0  0  1  0  0  0  0  0  0  0  0  0
   -0.4622   -1.2317   -0.1545 H   0  0  0  0  0  0  0  0  0  0  0  0
   -1.4074    0.3593   -1.2373 C   0  0  0  0  0  0  0  0  0  0  0  0
   -0.8897    1.2779   -0.9552 H   0  0  0  0  0  0  0  0  0  0  0  0
   -0.8644   -0.0817   -2.0750 H   0  0  0  0  0  0  0  0  0  0  0  0
   -2.7832    0.7273   -1.7039 C   0  0  0  0  0  0  0  0  0  0  0  0
   -3.9411    0.2735   -1.1739 C   0  0  0  0  0  0  0  0  0  0  0  0
   -4.0095   -0.4318   -0.3529 H   0  0  0  0  0  0  0  0  0  0  0  0
   -5.0100    0.8596   -1.8231 N   0  0  0  0  0  0  0  0  0  0  0  0
   -5.9742    0.6652   -1.5961 H   0  0  0  0  0  0  0  0  0  0  0  0
   -4.5910    1.7388   -2.7990 C   0  0  0  0  0  0  0  0  0  0  0  0
   -5.2749    2.5788   -3.6895 C   0  0  0  0  0  0  0  0  0  0  0  0
   -6.3545    2.6111   -3.6919 H   0  0  0  0  0  0  0  0  0  0  0  0
   -4.5359    3.3766   -4.5797 C   0  0  0  0  0  0  0  0  0  0  0  0
   -5.0463    4.0299   -5.2744 H   0  0  0  0  0  0  0  0  0  0  0  0
   -3.1302    3.3194   -4.5706 C   0  0  0  0  0  0  0  0  0  0  0  0
   -2.5658    3.9287   -5.2629 H   0  0  0  0  0  0  0  0  0  0  0  0
   -2.4534    2.4698   -3.6726 C   0  0  0  0  0  0  0  0  0  0  0  0
   -1.3736    2.4256   -3.6852 H   0  0  0  0  0  0  0  0  0  0  0  0
   -3.1665    1.6607   -2.7617 C   0  0  0  0  0  0  0  0  0  0  0  0
   -1.2663    0.1182    1.2910 C   0  0  0  0  0  0  0  0  0  0  0  0
   -0.1906    0.1931    1.8833 O   0  0  0  0  0  0  0  0  0  0  0  0
   -2.3930    0.6605    1.7722 N   0  0  0  0  0  0  0  0  0  0  0  0
   -3.2451    0.5077    1.2518 H   0  0  0  0  0  0  0  0  0  0  0  0
   -2.4787    1.3954    3.0311 C   0  0  0  0  0  0  0  0  0  0  0  0
   -1.7166    2.1767    3.0539 H   0  0  0  0  0  0  0  0  0  0  0  0
   -3.4649    1.8498    3.1344 H   0  0  0  0  0  0  0  0  0  0  0  0
   -2.3058    0.7133    3.8652 H   0  0  0  0  0  0  0  0  0  0  0  0
  5  6  2  0  0  0  0
  5  7  1  0  0  0  0
  2  3  1  0  0  0  0
  2  4  1  0  0  0  0
  2  5  1  0  0  0  0
  1  2  1  0  0  0  0
 29 30  2  0  0  0  0
 29 31  1  0  0  0  0
 26 27  1  0  0  0  0
 26 28  2  0  0  0  0
 24 25  1  0  0  0  0
 24 26  1  0  0  0  0
 22 23  1  0  0  0  0
 22 24  2  0  0  0  0
 20 21  1  0  0  0  0
 20 22  1  0  0  0  0
 19 20  2  0  0  0  0
 19 28  1  0  0  0  0
 17 18  1  0  0  0  0
 17 19  1  0  0  0  0
 15 16  1  0  0  0  0
 15 17  1  0  0  0  0
 14 15  2  0  0  0  0
 14 28  1  0  0  0  0
 11 12  1  0  0  0  0
 11 13  1  0  0  0  0
 11 14  1  0  0  0  0
  9 10  1  0  0  0  0
  9 11  1  0  0  0  0
  9 29  1  0  0  0  0
  7  8  1  0  0  0  0
  7  9  1  0  0  0  0
 33 34  1  0  0  0  0
 33 35  1  0  0  0  0
 33 36  1  0  0  0  0
 31 32  1  0  0  0  0
 31 33  1  0  0  0  0
M  END
$$$$
default_name
  -OEChem-02102213163D

 36 37  0     1  0  0  0  0  0999 V2000
   -4.0843   -4.0736    1.2944 H   0  0  0  0  0  0  0  0  0  0  0  0
   -4.0342   -3.2816    0.5484 C   0  0  0  0  0  0  0  0  0  0  0  0
   -4.8842   -2.6126    0.6694 H   0  0  0  0  0  0  0  0  0  0  0  0
   -4.0433   -3.7186   -0.4486 H   0  0  0  0  0  0  0  0  0  0  0  0
   -2.7532   -2.5046    0.7444 C   0  0  0  0  0  0  0  0  0  0  0  0
   -1.9803   -2.8096    1.6434 O   0  0  0  0  0  0  0  0  0  0  0  0
   -2.5332   -1.4966   -0.0966 N   0  0  0  0  0  0  0  0  0  0  0  0
   -3.2312   -1.2816   -0.7936 H   0  0  0  0  0  0  0  0  0  0  0  0
   -1.3593   -0.6196   -0.0536 C   0  0  1  0  0  0  0  0  0  0  0  0
   -0.4622   -1.2317   -0.1545 H   0  0  0  0  0  0  0  0  0  0  0  0
   -1.4074    0.3593   -1.2373 C   0  0  0  0  0  0  0  0  0  0  0  0
   -0.8897    1.2779   -0.9552 H   0  0  0  0  0  0  0  0  0  0  0  0
   -0.8644   -0.0817   -2.0750 H   0  0  0  0  0  0  0  0  0  0  0  0
   -2.7832    0.7273   -1.7039 C   0  0  0  0  0  0  0  0  0  0  0  0
   -3.9292    0.5147   -1.0189 C   0  0  0  0  0  0  0  0  0  0  0  0
   -3.9884    0.0310   -0.0501 H   0  0  0  0  0  0  0  0  0  0  0  0
   -4.9971    1.0239   -1.7314 N   0  0  0  0  0  0  0  0  0  0  0  0
   -5.9538    0.9741   -1.4128 H   0  0  0  0  0  0  0  0  0  0  0  0
   -4.5878    1.6086   -2.9110 C   0  0  0  0  0  0  0  0  0  0  0  0
   -5.2721    2.2729   -3.9390 C   0  0  0  0  0  0  0  0  0  0  0  0
   -6.3437    2.3988   -3.8910 H   0  0  0  0  0  0  0  0  0  0  0  0
   -4.5441    2.7707   -5.0332 C   0  0  0  0  0  0  0  0  0  0  0  0
   -5.0551    3.2849   -5.8360 H   0  0  0  0  0  0  0  0  0  0  0  0
   -3.1495    2.5933   -5.0863 C   0  0  0  0  0  0  0  0  0  0  0  0
   -2.5944    2.9706   -5.9341 H   0  0  0  0  0  0  0  0  0  0  0  0
   -2.4724    1.9223   -4.0483 C   0  0  0  0  0  0  0  0  0  0  0  0
   -1.4026    1.7812   -4.1080 H   0  0  0  0  0  0  0  0  0  0  0  0
   -3.1740    1.4161   -2.9327 C   0  0  0  0  0  0  0  0  0  0  0  0
   -1.2663    0.1182    1.2910 C   0  0  0  0  0  0  0  0  0  0  0  0
   -0.1906    0.1931    1.8833 O   0  0  0  0  0  0  0  0  0  0  0  0
   -2.3930    0.6605    1.7722 N   0  0  0  0  0  0  0  0  0  0  0  0
   -3.2451    0.5077    1.2518 H   0  0  0  0  0  0  0  0  0  0  0  0
   -2.4787    1.3954    3.0311 C   0  0  0  0  0  0  0  0  0  0  0  0
   -1.7166    2.1767    3.0539 H   0  0  0  0  0  0  0  0  0  0  0  0
   -3.4649    1.8498    3.1344 H   0  0  0  0  0  0  0  0  0  0  0  0
   -2.3058    0.7133    3.8652 H   0  0  0  0  0  0  0  0  0  0  0  0
  5  6  2  0  0  0  0
  5  7  1  0  0  0  0
  2  3  1  0  0  0  0
  2  4  1  0  0  0  0
  2  5  1  0  0  0  0
  1  2  1  0  0  0  0
 29 30  2  0  0  0  0
 29 31  1  0  0  0  0
 26 27  1  0  0  0  0
 26 28  2  0  0  0  0
 24 25  1  0  0  0  0
 24 26  1  0  0  0  0
 22 23  1  0  0  0  0
 22 24  2  0  0  0  0
 20 21  1  0  0  0  0
 20 22  1  0  0  0  0
 19 20  2  0  0  0  0
 19 28  1  0  0  0  0
 17 18  1  0  0  0  0
 17 19  1  0  0  0  0
 15 16  1  0  0  0  0
 15 17  1  0  0  0  0
 14 15  2  0  0  0  0
 14 28  1  0  0  0  0
 11 12  1  0  0  0  0
 11 13  1  0  0  0  0
 11 14  1  0  0  0  0
  9 10  1  0  0  0  0
  9 11  1  0  0  0  0
  9 29  1  0  0  0  0
  7  8  1  0  0  0  0
  7  9  1  0  0  0  0
 33 34  1  0  0  0  0
 33 35  1  0  0  0  0
 33 36  1  0  0  0  0
 31 32  1  0  0  0  0
 31 33  1  0  0  0  0
M  END
$$$$
default_name
  -OEChem-02102213163D

 36 37  0     1  0  0  0  0  0999 V2000
   -4.0843   -4.0736    1.2944 H   0  0  0  0  0  0  0  0  0  0  0  0
   -4.0342   -3.2816    0.5484 C   0  0  0  0  0  0  0  0  0  0  0  0
   -4.8842   -2.6126    0.6694 H   0  0  0  0  0  0  0  0  0  0  0  0
   -4.0433   -3.7186   -0.4486 H   0  0  0  0  0  0  0  0  0  0  0  0
   -2.7532   -2.5046    0.7444 C   0  0  0  0  0  0  0  0  0  0  0  0
   -1.9803   -2.8096    1.6434 O   0  0  0  0  0  0  0  0  0  0  0  0
   -2.5332   -1.4966   -0.0966 N   0  0  0  0  0  0  0  0  0  0  0  0
   -3.2312   -1.2816   -0.7936 H   0  0  0  0  0  0  0  0  0  0  0  0
   -1.3593   -0.6196   -0.0536 C   0  0  1  0  0  0  0  0  0  0  0  0
   -0.4622   -1.2317   -0.1545 H   0  0  0  0  0  0  0  0  0  0  0  0
   -1.4074    0.3593   -1.2373 C   0  0  0  0  0  0  0  0  0  0  0  0
   -0.8897    1.2779   -0.9552 H   0  0  0  0  0  0  0  0  0  0  0  0
   -0.8644   -0.0817   -2.0750 H   0  0  0  0  0  0  0  0  0  0  0  0
   -2.7832    0.7273   -1.7039 C   0  0  0  0  0  0  0  0  0  0  0  0
   -3.8883    0.7837   -0.9273 C   0  0  0  0  0  0  0  0  0  0  0  0
   -3.9115    0.5483    0.1311 H   0  0  0  0  0  0  0  0  0  0  0  0
   -4.9657    1.2034   -1.6827 N   0  0  0  0  0  0  0  0  0  0  0  0
   -5.8975    1.3145   -1.3104 H   0  0  0  0  0  0  0  0  0  0  0  0
   -4.6024    1.4560   -2.9884 C   0  0  0  0  0  0  0  0  0  0  0  0
   -5.3099    1.9178   -4.1076 C   0  0  0  0  0  0  0  0  0  0  0  0
   -6.3631    2.1456   -4.0336 H   0  0  0  0  0  0  0  0  0  0  0  0
   -4.6298    2.0783   -5.3269 C   0  0  0  0  0  0  0  0  0  0  0  0
   -5.1593    2.4325   -6.2010 H   0  0  0  0  0  0  0  0  0  0  0  0
   -3.2594    1.7711   -5.4108 C   0  0  0  0  0  0  0  0  0  0  0  0
   -2.7419    1.8881   -6.3529 H   0  0  0  0  0  0  0  0  0  0  0  0
   -2.5588    1.3057   -4.2799 C   0  0  0  0  0  0  0  0  0  0  0  0
   -1.5093    1.0606   -4.3615 H   0  0  0  0  0  0  0  0  0  0  0  0
   -3.2117    1.1397   -3.0393 C   0  0  0  0  0  0  0  0  0  0  0  0
   -1.2663    0.1182    1.2910 C   0  0  0  0  0  0  0  0  0  0  0  0
   -0.1906    0.1931    1.8833 O   0  0  0  0  0  0  0  0  0  0  0  0
   -2.3930    0.6605    1.7722 N   0  0  0  0  0  0  0  0  0  0  0  0
   -3.2451    0.5077    1.2518 H   0  0  0  0  0  0  0  0  0  0  0  0
   -2.4787    1.3954    3.0311 C   0  0  0  0  0  0  0  0  0  0  0  0
   -1.7166    2.1767    3.0539 H   0  0  0  0  0  0  0  0  0  0  0  0
   -3.4649    1.8498    3.1344 H   0  0  0  0  0  0  0  0  0  0  0  0
   -2.3058    0.7133    3.8652 H   0  0  0  0  0  0  0  0  0  0  0  0
  5  6  2  0  0  0  0
  5  7  1  0  0  0  0
  2  3  1  0  0  0  0
  2  4  1  0  0  0  0
  2  5  1  0  0  0  0
  1  2  1  0  0  0  0
 29 30  2  0  0  0  0
 29 31  1  0  0  0  0
 26 27  1  0  0  0  0
 26 28  2  0  0  0  0
 24 25  1  0  0  0  0
 24 26  1  0  0  0  0
 22 23  1  0  0  0  0
 22 24  2  0  0  0  0
 20 21  1  0  0  0  0
 20 22  1  0  0  0  0
 19 20  2  0  0  0  0
 19 28  1  0  0  0  0
 17 18  1  0  0  0  0
 17 19  1  0  0  0  0
 15 16  1  0  0  0  0
 15 17  1  0  0  0  0
 14 15  2  0  0  0  0
 14 28  1  0  0  0  0
 11 12  1  0  0  0  0
 11 13  1  0  0  0  0
 11 14  1  0  0  0  0
  9 10  1  0  0  0  0
  9 11  1  0  0  0  0
  9 29  1  0  0  0  0
  7  8  1  0  0  0  0
  7  9  1  0  0  0  0
 33 34  1  0  0  0  0
 33 35  1  0  0  0  0
 33 36  1  0  0  0  0
 31 32  1  0  0  0  0
 31 33  1  0  0  0  0
M  END
$$$$
default_name
  -OEChem-02102213163D

 36 37  0     1  0  0  0  0  0999 V2000
   -4.0843   -4.0736    1.2944 H   0  0  0  0  0  0  0  0  0  0  0  0
   -4.0342   -3.2816    0.5484 C   0  0  0  0  0  0  0  0  0  0  0  0
   -4.8842   -2.6126    0.6694 H   0  0  0  0  0  0  0  0  0  0  0  0
   -4.0433   -3.7186   -0.4486 H   0  0  0  0  0  0  0  0  0  0  0  0
   -2.7532   -2.5046    0.7444 C   0  0  0  0  0  0  0  0  0  0  0  0
   -1.9803   -2.8096    1.6434 O   0  0  0  0  0  0  0  0  0  0  0  0
   -2.5332   -1.4966   -0.0966 N   0  0  0  0  0  0  0  0  0  0  0  0
   -3.2312   -1.2816   -0.7936 H   0  0  0  0  0  0  0  0  0  0  0  0
   -1.3593   -0.6196   -0.0536 C   0  0  1  0  0  0  0  0  0  0  0  0
   -0.4622   -1.2317   -0.1545 H   0  0  0  0  0  0  0  0  0  0  0  0
   -1.4074    0.3593   -1.2373 C   0  0  0  0  0  0  0  0  0  0  0  0
   -0.8897    1.2779   -0.9552 H   0  0  0  0  0  0  0  0  0  0  0  0
   -0.8644   -0.0817   -2.0750 H   0  0  0  0  0  0  0  0  0  0  0  0
   -2.7832    0.7273   -1.7039 C   0  0  0  0  0  0  0  0  0  0  0  0
   -3.8214    1.0619   -0.9052 C   0  0  0  0  0  0  0  0  0  0  0  0
   -3.7840    1.0849    0.1784 H   0  0  0  0  0  0  0  0  0  0  0  0
   -4.9177    1.3857   -1.6802 N   0  0  0  0  0  0  0  0  0  0  0  0
   -5.8091    1.6630   -1.2960 H   0  0  0  0  0  0  0  0  0  0  0  0
   -4.6337    1.2914   -3.0260 C   0  0  0  0  0  0  0  0  0  0  0  0
   -5.3857    1.5379   -4.1836 C   0  0  0  0  0  0  0  0  0  0  0  0
   -6.4113    1.8687   -4.1100 H   0  0  0  0  0  0  0  0  0  0  0  0
   -4.7869    1.3466   -5.4405 C   0  0  0  0  0  0  0  0  0  0  0  0
   -5.3519    1.5308   -6.3443 H   0  0  0  0  0  0  0  0  0  0  0  0
   -3.4524    0.9086   -5.5218 C   0  0  0  0  0  0  0  0  0  0  0  0
   -2.9983    0.7547   -6.4909 H   0  0  0  0  0  0  0  0  0  0  0  0
   -2.7066    0.6620   -4.3516 C   0  0  0  0  0  0  0  0  0  0  0  0
   -1.6866    0.3130   -4.4283 H   0  0  0  0  0  0  0  0  0  0  0  0
   -3.2773    0.8505   -3.0742 C   0  0  0  0  0  0  0  0  0  0  0  0
   -1.2663    0.1182    1.2910 C   0  0  0  0  0  0  0  0  0  0  0  0
   -0.1906    0.1931    1.8833 O   0  0  0  0  0  0  0  0  0  0  0  0
   -2.3930    0.6605    1.7722 N   0  0  0  0  0  0  0  0  0  0  0  0
   -3.2451    0.5077    1.2518 H   0  0  0  0  0  0  0  0  0  0  0  0
   -2.4787    1.3954    3.0311 C   0  0  0  0  0  0  0  0  0  0  0  0
   -1.7166    2.1767    3.0539 H   0  0  0  0  0  0  0  0  0  0  0  0
   -3.4649    1.8498    3.1344 H   0  0  0  0  0  0  0  0  0  0  0  0
   -2.3058    0.7133    3.8652 H   0  0  0  0  0  0  0  0  0  0  0  0
  5  6  2  0  0  0  0
  5  7  1  0  0  0  0
  2  3  1  0  0  0  0
  2  4  1  0  0  0  0
  2  5  1  0  0  0  0
  1  2  1  0  0  0  0
 29 30  2  0  0  0  0
 29 31  1  0  0  0  0
 26 27  1  0  0  0  0
 26 28  2  0  0  0  0
 24 25  1  0  0  0  0
 24 26  1  0  0  0  0
 22 23  1  0  0  0  0
 22 24  2  0  0  0  0
 20 21  1  0  0  0  0
 20 22  1  0  0  0  0
 19 20  2  0  0  0  0
 19 28  1  0  0  0  0
 17 18  1  0  0  0  0
 17 19  1  0  0  0  0
 15 16  1  0  0  0  0
 15 17  1  0  0  0  0
 14 15  2  0  0  0  0
 14 28  1  0  0  0  0
 11 12  1  0  0  0  0
 11 13  1  0  0  0  0
 11 14  1  0  0  0  0
  9 10  1  0  0  0  0
  9 11  1  0  0  0  0
  9 29  1  0  0  0  0
  7  8  1  0  0  0  0
  7  9  1  0  0  0  0
 33 34  1  0  0  0  0
 33 35  1  0  0  0  0
 33 36  1  0  0  0  0
 31 32  1  0  0  0  0
 31 33  1  0  0  0  0
M  END
$$$$
default_name
  -OEChem-02102213163D

 36 37  0     1  0  0  0  0  0999 V2000
   -4.0843   -4.0736    1.2944 H   0  0  0  0  0  0  0  0  0  0  0  0
   -4.0342   -3.2816    0.5484 C   0  0  0  0  0  0  0  0  0  0  0  0
   -4.8842   -2.6126    0.6694 H   0  0  0  0  0  0  0  0  0  0  0  0
   -4.0433   -3.7186   -0.4486 H   0  0  0  0  0  0  0  0  0  0  0  0
   -2.7532   -2.5046    0.7444 C   0  0  0  0  0  0  0  0  0  0  0  0
   -1.9803   -2.8096    1.6434 O   0  0  0  0  0  0  0  0  0  0  0  0
   -2.5332   -1.4966   -0.0966 N   0  0  0  0  0  0  0  0  0  0  0  0
   -3.2312   -1.2816   -0.7936 H   0  0  0  0  0  0  0  0  0  0  0  0
   -1.3593   -0.6196   -0.0536 C   0  0  1  0  0  0  0  0  0  0  0  0
   -0.4622   -1.2317   -0.1545 H   0  0  0  0  0  0  0  0  0  0  0  0
   -1.4074    0.3593   -1.2373 C   0  0  0  0  0  0  0  0  0  0  0  0
   -0.8897    1.2779   -0.9552 H   0  0  0  0  0  0  0  0  0  0  0  0
   -0.8644   -0.0817   -2.0750 H   0  0  0  0  0  0  0  0  0  0  0  0
   -2.7832    0.7273   -1.7039 C   0  0  0  0  0  0  0  0  0  0  0  0
   -3.7329    1.3305   -0.9543 C   0  0  0  0  0  0  0  0  0  0  0  0
   -3.6146    1.6041    0.0884 H   0  0  0  0  0  0  0  0  0  0  0  0
   -4.8565    1.5586   -1.7242 N   0  0  0  0  0  0  0  0  0  0  0  0
   -5.6948    1.9960   -1.3704 H   0  0  0  0  0  0  0  0  0  0  0  0
   -4.6795    1.1259   -3.0212 C   0  0  0  0  0  0  0  0  0  0  0  0
   -5.4944    1.1589   -4.1619 C   0  0  0  0  0  0  0  0  0  0  0  0
   -6.4850    1.5870   -4.1149 H   0  0  0  0  0  0  0  0  0  0  0  0
   -5.0049    0.6256   -5.3665 C   0  0  0  0  0  0  0  0  0  0  0  0
   -5.6197    0.6413   -6.2563 H   0  0  0  0  0  0  0  0  0  0  0  0
   -3.7155    0.0647   -5.4118 C   0  0  0  0  0  0  0  0  0  0  0  0
   -3.3460   -0.3521   -6.3386 H   0  0  0  0  0  0  0  0  0  0  0  0
   -2.9058    0.0351   -4.2586 C   0  0  0  0  0  0  0  0  0  0  0  0
   -1.9224   -0.4107   -4.3040 H   0  0  0  0  0  0  0  0  0  0  0  0
   -3.3661    0.5682   -3.0351 C   0  0  0  0  0  0  0  0  0  0  0  0
   -1.2663    0.1182    1.2910 C   0  0  0  0  0  0  0  0  0  0  0  0
   -0.1906    0.1931    1.8833 O   0  0  0  0  0  0  0  0  0  0  0  0
   -2.3930    0.6605    1.7722 N   0  0  0  0  0  0  0  0  0  0  0  0
   -3.2451    0.5077    1.2518 H   0  0  0  0  0  0  0  0  0  0  0  0
   -2.4787    1.3954    3.0311 C   0  0  0  0  0  0  0  0  0  0  0  0
   -1.7166    2.1767    3.0539 H   0  0  0  0  0  0  0  0  0  0  0  0
   -3.4649    1.8498    3.1344 H   0  0  0  0  0  0  0  0  0  0  0  0
   -2.3058    0.7133    3.8652 H   0  0  0  0  0  0  0  0  0  0  0  0
  5  6  2  0  0  0  0
  5  7  1  0  0  0  0
  2  3  1  0  0  0  0
  2  4  1  0  0  0  0
  2  5  1  0  0  0  0
  1  2  1  0  0  0  0
 29 30  2  0  0  0  0
 29 31  1  0  0  0  0
 26 27  1  0  0  0  0
 26 28  2  0  0  0  0
 24 25  1  0  0  0  0
 24 26  1  0  0  0  0
 22 23  1  0  0  0  0
 22 24  2  0  0  0  0
 20 21  1  0  0  0  0
 20 22  1  0  0  0  0
 19 20  2  0  0  0  0
 19 28  1  0  0  0  0
 17 18  1  0  0  0  0
 17 19  1  0  0  0  0
 15 16  1  0  0  0  0
 15 17  1  0  0  0  0
 14 15  2  0  0  0  0
 14 28  1  0  0  0  0
 11 12  1  0  0  0  0
 11 13  1  0  0  0  0
 11 14  1  0  0  0  0
  9 10  1  0  0  0  0
  9 11  1  0  0  0  0
  9 29  1  0  0  0  0
  7  8  1  0  0  0  0
  7  9  1  0  0  0  0
 33 34  1  0  0  0  0
 33 35  1  0  0  0  0
 33 36  1  0  0  0  0
 31 32  1  0  0  0  0
 31 33  1  0  0  0  0
M  END
$$$$
default_name
  -OEChem-02102213163D

 36 37  0     1  0  0  0  0  0999 V2000
   -4.0843   -4.0736    1.2944 H   0  0  0  0  0  0  0  0  0  0  0  0
   -4.0342   -3.2816    0.5484 C   0  0  0  0  0  0  0  0  0  0  0  0
   -4.8842   -2.6126    0.6694 H   0  0  0  0  0  0  0  0  0  0  0  0
   -4.0433   -3.7186   -0.4486 H   0  0  0  0  0  0  0  0  0  0  0  0
   -2.7532   -2.5046    0.7444 C   0  0  0  0  0  0  0  0  0  0  0  0
   -1.9803   -2.8096    1.6434 O   0  0  0  0  0  0  0  0  0  0  0  0
   -2.5332   -1.4966   -0.0966 N   0  0  0  0  0  0  0  0  0  0  0  0
   -3.2312   -1.2816   -0.7936 H   0  0  0  0  0  0  0  0  0  0  0  0
   -1.3593   -0.6196   -0.0536 C   0  0  1  0  0  0  0  0  0  0  0  0
   -0.4622   -1.2317   -0.1545 H   0  0  0  0  0  0  0  0  0  0  0  0
   -1.4074    0.3593   -1.2373 C   0  0  0  0  0  0  0  0  0  0  0  0
   -0.8897    1.2779   -0.9552 H   0  0  0  0  0  0  0  0  0  0  0  0
   -0.8644   -0.0817   -2.0750 H   0  0  0  0  0  0  0  0  0  0  0  0
   -2.7832    0.7273   -1.7039 C   0  0  0  0  0  0  0  0  0  0  0  0
   -3.6289    1.5712   -1.0711 C   0  0  0  0  0  0  0  0  0  0  0  0
   -3.4149    2.0706   -0.1326 H   0  0  0  0  0  0  0  0  0  0  0  0
   -4.7863    1.7102   -1.8117 N   0  0  0  0  0  0  0  0  0  0  0  0
   -5.5623    2.2907   -1.5288 H   0  0  0  0  0  0  0  0  0  0  0  0
   -4.7369    0.9710   -2.9744 C   0  0  0  0  0  0  0  0  0  0  0  0
   -5.6286    0.8068   -4.0441 C   0  0  0  0  0  0  0  0  0  0  0  0
   -6.5792    1.3196   -4.0479 H   0  0  0  0  0  0  0  0  0  0  0  0
   -5.2688   -0.0358   -5.1098 C   0  0  0  0  0  0  0  0  0  0  0  0
   -5.9444   -0.1754   -5.9429 H   0  0  0  0  0  0  0  0  0  0  0  0
   -4.0305   -0.7032   -5.0884 C   0  0  0  0  0  0  0  0  0  0  0  0
   -3.7613   -1.3570   -5.9064 H   0  0  0  0  0  0  0  0  0  0  0  0
   -3.1429   -0.5322   -4.0071 C   0  0  0  0  0  0  0  0  0  0  0  0
   -2.2005   -1.0613   -3.9969 H   0  0  0  0  0  0  0  0  0  0  0  0
   -3.4721    0.3119   -2.9245 C   0  0  0  0  0  0  0  0  0  0  0  0
   -1.2663    0.1182    1.2910 C   0  0  0  0  0  0  0  0  0  0  0  0
   -0.1906    0.1931    1.8833 O   0  0  0  0  0  0  0  0  0  0  0  0
   -2.3930    0.6605    1.7722 N   0  0  0  0  0  0  0  0  0  0  0  0
   -3.2451    0.5077    1.2518 H   0  0  0  0  0  0  0  0  0  0  0  0
   -2.4787    1.3954    3.0311 C   0  0  0  0  0  0  0  0  0  0  0  0
   -1.7166    2.1767    3.0539 H   0  0  0  0  0  0  0  0  0  0  0  0
   -3.4649    1.8498    3.1344 H   0  0  0  0  0  0  0  0  0  0  0  0
   -2.3058    0.7133    3.8652 H   0  0  0  0  0  0  0  0  0  0  0  0
  5  6  2  0  0  0  0
  5  7  1  0  0  0  0
  2  3  1  0  0  0  0
  2  4  1  0  0  0  0
  2  5  1  0  0  0  0
  1  2  1  0  0  0  0
 29 30  2  0  0  0  0
 29 31  1  0  0  0  0
 26 27  1  0  0  0  0
 26 28  2  0  0  0  0
 24 25  1  0  0  0  0
 24 26  1  0  0  0  0
 22 23  1  0  0  0  0
 22 24  2  0  0  0  0
 20 21  1  0  0  0  0
 20 22  1  0  0  0  0
 19 20  2  0  0  0  0
 19 28  1  0  0  0  0
 17 18  1  0  0  0  0
 17 19  1  0  0  0  0
 15 16  1  0  0  0  0
 15 17  1  0  0  0  0
 14 15  2  0  0  0  0
 14 28  1  0  0  0  0
 11 12  1  0  0  0  0
 11 13  1  0  0  0  0
 11 14  1  0  0  0  0
  9 10  1  0  0  0  0
  9 11  1  0  0  0  0
  9 29  1  0  0  0  0
  7  8  1  0  0  0  0
  7  9  1  0  0  0  0
 33 34  1  0  0  0  0
 33 35  1  0  0  0  0
 33 36  1  0  0  0  0
 31 32  1  0  0  0  0
 31 33  1  0  0  0  0
M  END
$$$$
default_name
  -OEChem-02102213163D

 36 37  0     1  0  0  0  0  0999 V2000
   -4.0843   -4.0736    1.2944 H   0  0  0  0  0  0  0  0  0  0  0  0
   -4.0342   -3.2816    0.5484 C   0  0  0  0  0  0  0  0  0  0  0  0
   -4.8842   -2.6126    0.6694 H   0  0  0  0  0  0  0  0  0  0  0  0
   -4.0433   -3.7186   -0.4486 H   0  0  0  0  0  0  0  0  0  0  0  0
   -2.7532   -2.5046    0.7444 C   0  0  0  0  0  0  0  0  0  0  0  0
   -1.9803   -2.8096    1.6434 O   0  0  0  0  0  0  0  0  0  0  0  0
   -2.5332   -1.4966   -0.0966 N   0  0  0  0  0  0  0  0  0  0  0  0
   -3.2312   -1.2816   -0.7936 H   0  0  0  0  0  0  0  0  0  0  0  0
   -1.3593   -0.6196   -0.0536 C   0  0  1  0  0  0  0  0  0  0  0  0
   -0.4622   -1.2317   -0.1545 H   0  0  0  0  0  0  0  0  0  0  0  0
   -1.4074    0.3593   -1.2373 C   0  0  0  0  0  0  0  0  0  0  0  0
   -0.8897    1.2779   -0.9552 H   0  0  0  0  0  0  0  0  0  0  0  0
   -0.8644   -0.0817   -2.0750 H   0  0  0  0  0  0  0  0  0  0  0  0
   -2.7832    0.7273   -1.7039 C   0  0  0  0  0  0  0  0  0  0  0  0
   -3.5164    1.7675   -1.2478 C   0  0  0  0  0  0  0  0  0  0  0  0
   -3.1984    2.4526   -0.4696 H   0  0  0  0  0  0  0  0  0  0  0  0
   -4.7118    1.8302   -1.9367 N   0  0  0  0  0  0  0  0  0  0  0  0
   -5.4206    2.5271   -1.7601 H   0  0  0  0  0  0  0  0  0  0  0  0
   -4.8017    0.8371   -2.8887 C   0  0  0  0  0  0  0  0  0  0  0  0
   -5.7791    0.5054   -3.8380 C   0  0  0  0  0  0  0  0  0  0  0  0
   -6.6875    1.0849   -3.9138 H   0  0  0  0  0  0  0  0  0  0  0  0
   -5.5608   -0.5923   -4.6879 C   0  0  0  0  0  0  0  0  0  0  0  0
   -6.3039   -0.8636   -5.4255 H   0  0  0  0  0  0  0  0  0  0  0  0
   -4.3762   -1.3426   -4.5735 C   0  0  0  0  0  0  0  0  0  0  0  0
   -4.2160   -2.1915   -5.2238 H   0  0  0  0  0  0  0  0  0  0  0  0
   -3.4016   -1.0014   -3.6143 C   0  0  0  0  0  0  0  0  0  0  0  0
   -2.5021   -1.5943   -3.5281 H   0  0  0  0  0  0  0  0  0  0  0  0
   -3.5882    0.0992   -2.7501 C   0  0  0  0  0  0  0  0  0  0  0  0
   -1.2663    0.1182    1.2910 C   0  0  0  0  0  0  0  0  0  0  0  0
   -0.1906    0.1931    1.8833 O   0  0  0  0  0  0  0  0  0  0  0  0
   -2.3930    0.6605    1.7722 N   0  0  0  0  0  0  0  0  0  0  0  0
   -3.2451    0.5077    1.2518 H   0  0  0  0  0  0  0  0  0  0  0  0
   -2.4787    1.3954    3.0311 C   0  0  0  0  0  0  0  0  0  0  0  0
   -1.7166    2.1767    3.0539 H   0  0  0  0  0  0  0  0  0  0  0  0
   -3.4649    1.8498    3.1344 H   0  0  0  0  0  0  0  0  0  0  0  0
   -2.3058    0.7133    3.8652 H   0  0  0  0  0  0  0  0  0  0  0  0
  5  6  2  0  0  0  0
  5  7  1  0  0  0  0
  2  3  1  0  0  0  0
  2  4  1  0  0  0  0
  2  5  1  0  0  0  0
  1  2  1  0  0  0  0
 29 30  2  0  0  0  0
 29 31  1  0  0  0  0
 26 27  1  0  0  0  0
 26 28  2  0  0  0  0
 24 25  1  0  0  0  0
 24 26  1  0  0  0  0
 22 23  1  0  0  0  0
 22 24  2  0  0  0  0
 20 21  1  0  0  0  0
 20 22  1  0  0  0  0
 19 20  2  0  0  0  0
 19 28  1  0  0  0  0
 17 18  1  0  0  0  0
 17 19  1  0  0  0  0
 15 16  1  0  0  0  0
 15 17  1  0  0  0  0
 14 15  2  0  0  0  0
 14 28  1  0  0  0  0
 11 12  1  0  0  0  0
 11 13  1  0  0  0  0
 11 14  1  0  0  0  0
  9 10  1  0  0  0  0
  9 11  1  0  0  0  0
  9 29  1  0  0  0  0
  7  8  1  0  0  0  0
  7  9  1  0  0  0  0
 33 34  1  0  0  0  0
 33 35  1  0  0  0  0
 33 36  1  0  0  0  0
 31 32  1  0  0  0  0
 31 33  1  0  0  0  0
M  END
$$$$
default_name
  -OEChem-02102213163D

 36 37  0     1  0  0  0  0  0999 V2000
   -4.0843   -4.0736    1.2944 H   0  0  0  0  0  0  0  0  0  0  0  0
   -4.0342   -3.2816    0.5484 C   0  0  0  0  0  0  0  0  0  0  0  0
   -4.8842   -2.6126    0.6694 H   0  0  0  0  0  0  0  0  0  0  0  0
   -4.0433   -3.7186   -0.4486 H   0  0  0  0  0  0  0  0  0  0  0  0
   -2.7532   -2.5046    0.7444 C   0  0  0  0  0  0  0  0  0  0  0  0
   -1.9803   -2.8096    1.6434 O   0  0  0  0  0  0  0  0  0  0  0  0
   -2.5332   -1.4966   -0.0966 N   0  0  0  0  0  0  0  0  0  0  0  0
   -3.2312   -1.2816   -0.7936 H   0  0  0  0  0  0  0  0  0  0  0  0
   -1.3593   -0.6196   -0.0536 C   0  0  1  0  0  0  0  0  0  0  0  0
   -0.4622   -1.2317   -0.1545 H   0  0  0  0  0  0  0  0  0  0  0  0
   -1.4074    0.3593   -1.2373 C   0  0  0  0  0  0  0  0  0  0  0  0
   -0.8897    1.2779   -0.9552 H   0  0  0  0  0  0  0  0  0  0  0  0
   -0.8644   -0.0817   -2.0750 H   0  0  0  0  0  0  0  0  0  0  0  0
   -2.7832    0.7273   -1.7039 C   0  0  0  0  0  0  0  0  0  0  0  0
   -3.4033    1.9061   -1.4722 C   0  0  0  0  0  0  0  0  0  0  0  0
   -2.9800    2.7241   -0.8997 H   0  0  0  0  0  0  0  0  0  0  0  0
   -4.6382    1.9104   -2.0907 N   0  0  0  0  0  0  0  0  0  0  0  0
   -5.2794    2.6891   -2.0488 H   0  0  0  0  0  0  0  0  0  0  0  0
   -4.8698    0.7333   -2.7700 C   0  0  0  0  0  0  0  0  0  0  0  0
   -5.9356    0.2755   -3.5578 C   0  0  0  0  0  0  0  0  0  0  0  0
   -6.8025    0.8987   -3.7216 H   0  0  0  0  0  0  0  0  0  0  0  0
   -5.8608   -1.0061   -4.1296 C   0  0  0  0  0  0  0  0  0  0  0  0
   -6.6738   -1.3765   -4.7393 H   0  0  0  0  0  0  0  0  0  0  0  0
   -4.7289   -1.8101   -3.9022 C   0  0  0  0  0  0  0  0  0  0  0  0
   -4.6791   -2.7987   -4.3372 H   0  0  0  0  0  0  0  0  0  0  0  0
   -3.6643   -1.3404   -3.1070 C   0  0  0  0  0  0  0  0  0  0  0  0
   -2.8065   -1.9734   -2.9294 H   0  0  0  0  0  0  0  0  0  0  0  0
   -3.7063   -0.0555   -2.5237 C   0  0  0  0  0  0  0  0  0  0  0  0
   -1.2663    0.1182    1.2910 C   0  0  0  0  0  0  0  0  0  0  0  0
   -0.1906    0.1931    1.8833 O   0  0  0  0  0  0  0  0  0  0  0  0
   -2.3930    0.6605    1.7722 N   0  0  0  0  0  0  0  0  0  0  0  0
   -3.2451    0.5077    1.2518 H   0  0  0  0  0  0  0  0  0  0  0  0
   -2.4787    1.3954    3.0311 C   0  0  0  0  0  0  0  0  0  0  0  0
   -1.7166    2.1767    3.0539 H   0  0  0  0  0  0  0  0  0  0  0  0
   -3.4649    1.8498    3.1344 H   0  0  0  0  0  0  0  0  0  0  0  0
   -2.3058    0.7133    3.8652 H   0  0  0  0  0  0  0  0  0  0  0  0
  5  6  2  0  0  0  0
  5  7  1  0  0  0  0
  2  3  1  0  0  0  0
  2  4  1  0  0  0  0
  2  5  1  0  0  0  0
  1  2  1  0  0  0  0
 29 30  2  0  0  0  0
 29 31  1  0  0  0  0
 26 27  1  0  0  0  0
 26 28  2  0  0  0  0
 24 25  1  0  0  0  0
 24 26  1  0  0  0  0
 22 23  1  0  0  0  0
 22 24  2  0  0  0  0
 20 21  1  0  0  0  0
 20 22  1  0  0  0  0
 19 20  2  0  0  0  0
 19 28  1  0  0  0  0
 17 18  1  0  0  0  0
 17 19  1  0  0  0  0
 15 16  1  0  0  0  0
 15 17  1  0  0  0  0
 14 15  2  0  0  0  0
 14 28  1  0  0  0  0
 11 12  1  0  0  0  0
 11 13  1  0  0  0  0
 11 14  1  0  0  0  0
  9 10  1  0  0  0  0
  9 11  1  0  0  0  0
  9 29  1  0  0  0  0
  7  8  1  0  0  0  0
  7  9  1  0  0  0  0
 33 34  1  0  0  0  0
 33 35  1  0  0  0  0
 33 36  1  0  0  0  0
 31 32  1  0  0  0  0
 31 33  1  0  0  0  0
M  END
$$$$
default_name
  -OEChem-02102213163D

 36 37  0     1  0  0  0  0  0999 V2000
   -4.0843   -4.0736    1.2944 H   0  0  0  0  0  0  0  0  0  0  0  0
   -4.0342   -3.2816    0.5484 C   0  0  0  0  0  0  0  0  0  0  0  0
   -4.8842   -2.6126    0.6694 H   0  0  0  0  0  0  0  0  0  0  0  0
   -4.0433   -3.7186   -0.4486 H   0  0  0  0  0  0  0  0  0  0  0  0
   -2.7532   -2.5046    0.7444 C   0  0  0  0  0  0  0  0  0  0  0  0
   -1.9803   -2.8096    1.6434 O   0  0  0  0  0  0  0  0  0  0  0  0
   -2.5332   -1.4966   -0.0966 N   0  0  0  0  0  0  0  0  0  0  0  0
   -3.2312   -1.2816   -0.7936 H   0  0  0  0  0  0  0  0  0  0  0  0
   -1.3593   -0.6196   -0.0536 C   0  0  1  0  0  0  0  0  0  0  0  0
   -0.4622   -1.2317   -0.1545 H   0  0  0  0  0  0  0  0  0  0  0  0
   -1.4074    0.3593   -1.2373 C   0  0  0  0  0  0  0  0  0  0  0  0
   -0.8897    1.2779   -0.9552 H   0  0  0  0  0  0  0  0  0  0  0  0
   -0.8644   -0.0817   -2.0750 H   0  0  0  0  0  0  0  0  0  0  0  0
   -2.7832    0.7273   -1.7039 C   0  0  0  0  0  0  0  0  0  0  0  0
   -3.2970    1.9775   -1.7291 C   0  0  0  0  0  0  0  0  0  0  0  0
   -2.7744    2.8665   -1.3935 H   0  0  0  0  0  0  0  0  0  0  0  0
   -4.5703    1.9454   -2.2631 N   0  0  0  0  0  0  0  0  0  0  0  0
   -5.1483    2.7655   -2.3751 H   0  0  0  0  0  0  0  0  0  0  0  0
   -4.9363    0.6667   -2.6263 C   0  0  0  0  0  0  0  0  0  0  0  0
   -6.0876    0.1325   -3.2226 C   0  0  0  0  0  0  0  0  0  0  0  0
   -6.9163    0.7738   -3.4844 H   0  0  0  0  0  0  0  0  0  0  0  0
   -6.1485   -1.2490   -3.4730 C   0  0  0  0  0  0  0  0  0  0  0  0
   -7.0288   -1.6790   -3.9312 H   0  0  0  0  0  0  0  0  0  0  0  0
   -5.0646   -2.0737   -3.1204 C   0  0  0  0  0  0  0  0  0  0  0  0
   -5.1190   -3.1373   -3.3072 H   0  0  0  0  0  0  0  0  0  0  0  0
   -3.9132   -1.5262   -2.5197 C   0  0  0  0  0  0  0  0  0  0  0  0
   -3.0931   -2.1729   -2.2417 H   0  0  0  0  0  0  0  0  0  0  0  0
   -3.8185   -0.1416   -2.2607 C   0  0  0  0  0  0  0  0  0  0  0  0
   -1.2663    0.1182    1.2910 C   0  0  0  0  0  0  0  0  0  0  0  0
   -0.1906    0.1931    1.8833 O   0  0  0  0  0  0  0  0  0  0  0  0
   -2.3930    0.6605    1.7722 N   0  0  0  0  0  0  0  0  0  0  0  0
   -3.2451    0.5077    1.2518 H   0  0  0  0  0  0  0  0  0  0  0  0
   -2.4787    1.3954    3.0311 C   0  0  0  0  0  0  0  0  0  0  0  0
   -1.7166    2.1767    3.0539 H   0  0  0  0  0  0  0  0  0  0  0  0
   -3.4649    1.8498    3.1344 H   0  0  0  0  0  0  0  0  0  0  0  0
   -2.3058    0.7133    3.8652 H   0  0  0  0  0  0  0  0  0  0  0  0
  5  6  2  0  0  0  0
  5  7  1  0  0  0  0
  2  3  1  0  0  0  0
  2  4  1  0  0  0  0
  2  5  1  0  0  0  0
  1  2  1  0  0  0  0
 29 30  2  0  0  0  0
 29 31  1  0  0  0  0
 26 27  1  0  0  0  0
 26 28  2  0  0  0  0
 24 25  1  0  0  0  0
 24 26  1  0  0  0  0
 22 23  1  0  0  0  0
 22 24  2  0  0  0  0
 20 21  1  0  0  0  0
 20 22  1  0  0  0  0
 19 20  2  0  0  0  0
 19 28  1  0  0  0  0
 17 18  1  0  0  0  0
 17 19  1  0  0  0  0
 15 16  1  0  0  0  0
 15 17  1  0  0  0  0
 14 15  2  0  0  0  0
 14 28  1  0  0  0  0
 11 12  1  0  0  0  0
 11 13  1  0  0  0  0
 11 14  1  0  0  0  0
  9 10  1  0  0  0  0
  9 11  1  0  0  0  0
  9 29  1  0  0  0  0
  7  8  1  0  0  0  0
  7  9  1  0  0  0  0
 33 34  1  0  0  0  0
 33 35  1  0  0  0  0
 33 36  1  0  0  0  0
 31 32  1  0  0  0  0
 31 33  1  0  0  0  0
M  END
$$$$
default_name
  -OEChem-02102213163D

 36 37  0     1  0  0  0  0  0999 V2000
   -4.0843   -4.0736    1.2944 H   0  0  0  0  0  0  0  0  0  0  0  0
   -4.0342   -3.2816    0.5484 C   0  0  0  0  0  0  0  0  0  0  0  0
   -4.8842   -2.6126    0.6694 H   0  0  0  0  0  0  0  0  0  0  0  0
   -4.0433   -3.7186   -0.4486 H   0  0  0  0  0  0  0  0  0  0  0  0
   -2.7532   -2.5046    0.7444 C   0  0  0  0  0  0  0  0  0  0  0  0
   -1.9803   -2.8096    1.6434 O   0  0  0  0  0  0  0  0  0  0  0  0
   -2.5332   -1.4966   -0.0966 N   0  0  0  0  0  0  0  0  0  0  0  0
   -3.2312   -1.2816   -0.7936 H   0  0  0  0  0  0  0  0  0  0  0  0
   -1.3593   -0.6196   -0.0536 C   0  0  1  0  0  0  0  0  0  0  0  0
   -0.4622   -1.2317   -0.1545 H   0  0  0  0  0  0  0  0  0  0  0  0
   -1.4074    0.3593   -1.2373 C   0  0  0  0  0  0  0  0  0  0  0  0
   -0.8897    1.2779   -0.9552 H   0  0  0  0  0  0  0  0  0  0  0  0
   -0.8644   -0.0817   -2.0750 H   0  0  0  0  0  0  0  0  0  0  0  0
   -2.7832    0.7273   -1.7039 C   0  0  0  0  0  0  0  0  0  0  0  0
   -3.2050    1.9769   -2.0010 C   0  0  0  0  0  0  0  0  0  0  0  0
   -2.5957    2.8702   -1.9173 H   0  0  0  0  0  0  0  0  0  0  0  0
   -4.5129    1.9327   -2.4423 N   0  0  0  0  0  0  0  0  0  0  0  0
   -5.0362    2.7513   -2.7167 H   0  0  0  0  0  0  0  0  0  0  0  0
   -4.9968    0.6420   -2.4675 C   0  0  0  0  0  0  0  0  0  0  0  0
   -6.2245    0.0863   -2.8551 C   0  0  0  0  0  0  0  0  0  0  0  0
   -7.0213    0.7187   -3.2183 H   0  0  0  0  0  0  0  0  0  0  0  0
   -6.4042   -1.3044   -2.7627 C   0  0  0  0  0  0  0  0  0  0  0  0
   -7.3447   -1.7507   -3.0562 H   0  0  0  0  0  0  0  0  0  0  0  0
   -5.3603   -2.1155   -2.2812 C   0  0  0  0  0  0  0  0  0  0  0  0
   -5.5058   -3.1842   -2.2039 H   0  0  0  0  0  0  0  0  0  0  0  0
   -4.1312   -1.5460   -1.8925 C   0  0  0  0  0  0  0  0  0  0  0  0
   -3.3423   -2.1790   -1.5118 H   0  0  0  0  0  0  0  0  0  0  0  0
   -3.9171   -0.1533   -1.9792 C   0  0  0  0  0  0  0  0  0  0  0  0
   -1.2663    0.1182    1.2910 C   0  0  0  0  0  0  0  0  0  0  0  0
   -0.1906    0.1931    1.8833 O   0  0  0  0  0  0  0  0  0  0  0  0
   -2.3930    0.6605    1.7722 N   0  0  0  0  0  0  0  0  0  0  0  0
   -3.2451    0.5077    1.2518 H   0  0  0  0  0  0  0  0  0  0  0  0
   -2.4787    1.3954    3.0311 C   0  0  0  0  0  0  0  0  0  0  0  0
   -1.7166    2.1767    3.0539 H   0  0  0  0  0  0  0  0  0  0  0  0
   -3.4649    1.8498    3.1344 H   0  0  0  0  0  0  0  0  0  0  0  0
   -2.3058    0.7133    3.8652 H   0  0  0  0  0  0  0  0  0  0  0  0
  5  6  2  0  0  0  0
  5  7  1  0  0  0  0
  2  3  1  0  0  0  0
  2  4  1  0  0  0  0
  2  5  1  0  0  0  0
  1  2  1  0  0  0  0
 29 30  2  0  0  0  0
 29 31  1  0  0  0  0
 26 27  1  0  0  0  0
 26 28  2  0  0  0  0
 24 25  1  0  0  0  0
 24 26  1  0  0  0  0
 22 23  1  0  0  0  0
 22 24  2  0  0  0  0
 20 21  1  0  0  0  0
 20 22  1  0  0  0  0
 19 20  2  0  0  0  0
 19 28  1  0  0  0  0
 17 18  1  0  0  0  0
 17 19  1  0  0  0  0
 15 16  1  0  0  0  0
 15 17  1  0  0  0  0
 14 15  2  0  0  0  0
 14 28  1  0  0  0  0
 11 12  1  0  0  0  0
 11 13  1  0  0  0  0
 11 14  1  0  0  0  0
  9 10  1  0  0  0  0
  9 11  1  0  0  0  0
  9 29  1  0  0  0  0
  7  8  1  0  0  0  0
  7  9  1  0  0  0  0
 33 34  1  0  0  0  0
 33 35  1  0  0  0  0
 33 36  1  0  0  0  0
 31 32  1  0  0  0  0
 31 33  1  0  0  0  0
M  END
$$$$
default_name
  -OEChem-02102213163D

 36 37  0     1  0  0  0  0  0999 V2000
   -4.0843   -4.0736    1.2944 H   0  0  0  0  0  0  0  0  0  0  0  0
   -4.0342   -3.2816    0.5484 C   0  0  0  0  0  0  0  0  0  0  0  0
   -4.8842   -2.6126    0.6694 H   0  0  0  0  0  0  0  0  0  0  0  0
   -4.0433   -3.7186   -0.4486 H   0  0  0  0  0  0  0  0  0  0  0  0
   -2.7532   -2.5046    0.7444 C   0  0  0  0  0  0  0  0  0  0  0  0
   -1.9803   -2.8096    1.6434 O   0  0  0  0  0  0  0  0  0  0  0  0
   -2.5332   -1.4966   -0.0966 N   0  0  0  0  0  0  0  0  0  0  0  0
   -3.2312   -1.2816   -0.7936 H   0  0  0  0  0  0  0  0  0  0  0  0
   -1.3593   -0.6196   -0.0536 C   0  0  1  0  0  0  0  0  0  0  0  0
   -0.4622   -1.2317   -0.1545 H   0  0  0  0  0  0  0  0  0  0  0  0
   -1.4074    0.3593   -1.2373 C   0  0  0  0  0  0  0  0  0  0  0  0
   -0.8897    1.2779   -0.9552 H   0  0  0  0  0  0  0  0  0  0  0  0
   -0.8644   -0.0817   -2.0750 H   0  0  0  0  0  0  0  0  0  0  0  0
   -2.7832    0.7273   -1.7039 C   0  0  0  0  0  0  0  0  0  0  0  0
   -3.1334    1.9043   -2.2693 C   0  0  0  0  0  0  0  0  0  0  0  0
   -2.4562    2.7349   -2.4356 H   0  0  0  0  0  0  0  0  0  0  0  0
   -4.4699    1.8733   -2.6161 N   0  0  0  0  0  0  0  0  0  0  0  0
   -4.9508    2.6473   -3.0505 H   0  0  0  0  0  0  0  0  0  0  0  0
   -5.0471    0.6606   -2.3044 C   0  0  0  0  0  0  0  0  0  0  0  0
   -6.3372    0.1401   -2.4806 C   0  0  0  0  0  0  0  0  0  0  0  0
   -7.1102    0.7372   -2.9416 H   0  0  0  0  0  0  0  0  0  0  0  0
   -6.6105   -1.1686   -2.0472 C   0  0  0  0  0  0  0  0  0  0  0  0
   -7.6001   -1.5865   -2.1739 H   0  0  0  0  0  0  0  0  0  0  0  0
   -5.5961   -1.9327   -1.4419 C   0  0  0  0  0  0  0  0  0  0  0  0
   -5.8130   -2.9361   -1.1024 H   0  0  0  0  0  0  0  0  0  0  0  0
   -4.3035   -1.3985   -1.2681 C   0  0  0  0  0  0  0  0  0  0  0  0
   -3.5371   -1.9915   -0.7895 H   0  0  0  0  0  0  0  0  0  0  0  0
   -3.9954   -0.0897   -1.6981 C   0  0  0  0  0  0  0  0  0  0  0  0
   -1.2663    0.1182    1.2910 C   0  0  0  0  0  0  0  0  0  0  0  0
   -0.1906    0.1931    1.8833 O   0  0  0  0  0  0  0  0  0  0  0  0
   -2.3930    0.6605    1.7722 N   0  0  0  0  0  0  0  0  0  0  0  0
   -3.2451    0.5077    1.2518 H   0  0  0  0  0  0  0  0  0  0  0  0
   -2.4787    1.3954    3.0311 C   0  0  0  0  0  0  0  0  0  0  0  0
   -1.7166    2.1767    3.0539 H   0  0  0  0  0  0  0  0  0  0  0  0
   -3.4649    1.8498    3.1344 H   0  0  0  0  0  0  0  0  0  0  0  0
   -2.3058    0.7133    3.8652 H   0  0  0  0  0  0  0  0  0  0  0  0
  5  6  2  0  0  0  0
  5  7  1  0  0  0  0
  2  3  1  0  0  0  0
  2  4  1  0  0  0  0
  2  5  1  0  0  0  0
  1  2  1  0  0  0  0
 29 30  2  0  0  0  0
 29 31  1  0  0  0  0
 26 27  1  0  0  0  0
 26 28  2  0  0  0  0
 24 25  1  0  0  0  0
 24 26  1  0  0  0  0
 22 23  1  0  0  0  0
 22 24  2  0  0  0  0
 20 21  1  0  0  0  0
 20 22  1  0  0  0  0
 19 20  2  0  0  0  0
 19 28  1  0  0  0  0
 17 18  1  0  0  0  0
 17 19  1  0  0  0  0
 15 16  1  0  0  0  0
 15 17  1  0  0  0  0
 14 15  2  0  0  0  0
 14 28  1  0  0  0  0
 11 12  1  0  0  0  0
 11 13  1  0  0  0  0
 11 14  1  0  0  0  0
  9 10  1  0  0  0  0
  9 11  1  0  0  0  0
  9 29  1  0  0  0  0
  7  8  1  0  0  0  0
  7  9  1  0  0  0  0
 33 34  1  0  0  0  0
 33 35  1  0  0  0  0
 33 36  1  0  0  0  0
 31 32  1  0  0  0  0
 31 33  1  0  0  0  0
M  END
$$$$
default_name
  -OEChem-02102213163D

 36 37  0     1  0  0  0  0  0999 V2000
   -4.0843   -4.0736    1.2944 H   0  0  0  0  0  0  0  0  0  0  0  0
   -4.0342   -3.2816    0.5484 C   0  0  0  0  0  0  0  0  0  0  0  0
   -4.8842   -2.6126    0.6694 H   0  0  0  0  0  0  0  0  0  0  0  0
   -4.0433   -3.7186   -0.4486 H   0  0  0  0  0  0  0  0  0  0  0  0
   -2.7532   -2.5046    0.7444 C   0  0  0  0  0  0  0  0  0  0  0  0
   -1.9803   -2.8096    1.6434 O   0  0  0  0  0  0  0  0  0  0  0  0
   -2.5332   -1.4966   -0.0966 N   0  0  0  0  0  0  0  0  0  0  0  0
   -3.2312   -1.2816   -0.7936 H   0  0  0  0  0  0  0  0  0  0  0  0
   -1.3593   -0.6196   -0.0536 C   0  0  1  0  0  0  0  0  0  0  0  0
   -0.4622   -1.2317   -0.1545 H   0  0  0  0  0  0  0  0  0  0  0  0
   -1.4074    0.3593   -1.2373 C   0  0  0  0  0  0  0  0  0  0  0  0
   -0.8897    1.2779   -0.9552 H   0  0  0  0  0  0  0  0  0  0  0  0
   -0.8644   -0.0817   -2.0750 H   0  0  0  0  0  0  0  0  0  0  0  0
   -2.7832    0.7273   -1.7039 C   0  0  0  0  0  0  0  0  0  0  0  0
   -3.0872    1.7647   -2.5158 C   0  0  0  0  0  0  0  0  0  0  0  0
   -2.3652    2.4698   -2.9129 H   0  0  0  0  0  0  0  0  0  0  0  0
   -4.4442    1.7711   -2.7725 N   0  0  0  0  0  0  0  0  0  0  0  0
   -4.8979    2.4607   -3.3536 H   0  0  0  0  0  0  0  0  0  0  0  0
   -5.0838    0.7215   -2.1481 C   0  0  0  0  0  0  0  0  0  0  0  0
   -6.4179    0.2900   -2.1243 C   0  0  0  0  0  0  0  0  0  0  0  0
   -7.1770    0.8279   -2.6730 H   0  0  0  0  0  0  0  0  0  0  0  0
   -6.7534   -0.8508   -1.3753 C   0  0  0  0  0  0  0  0  0  0  0  0
   -7.7774   -1.1977   -1.3444 H   0  0  0  0  0  0  0  0  0  0  0  0
   -5.7557   -1.5377   -0.6596 C   0  0  0  0  0  0  0  0  0  0  0  0
   -6.0197   -2.4100   -0.0779 H   0  0  0  0  0  0  0  0  0  0  0  0
   -4.4184   -1.0939   -0.6891 C   0  0  0  0  0  0  0  0  0  0  0  0
   -3.6643   -1.6230   -0.1240 H   0  0  0  0  0  0  0  0  0  0  0  0
   -4.0481    0.0448   -1.4368 C   0  0  0  0  0  0  0  0  0  0  0  0
   -1.2663    0.1182    1.2910 C   0  0  0  0  0  0  0  0  0  0  0  0
   -0.1906    0.1931    1.8833 O   0  0  0  0  0  0  0  0  0  0  0  0
   -2.3930    0.6605    1.7722 N   0  0  0  0  0  0  0  0  0  0  0  0
   -3.2451    0.5077    1.2518 H   0  0  0  0  0  0  0  0  0  0  0  0
   -2.4787    1.3954    3.0311 C   0  0  0  0  0  0  0  0  0  0  0  0
   -1.7166    2.1767    3.0539 H   0  0  0  0  0  0  0  0  0  0  0  0
   -3.4649    1.8498    3.1344 H   0  0  0  0  0  0  0  0  0  0  0  0
   -2.3058    0.7133    3.8652 H   0  0  0  0  0  0  0  0  0  0  0  0
  5  6  2  0  0  0  0
  5  7  1  0  0  0  0
  2  3  1  0  0  0  0
  2  4  1  0  0  0  0
  2  5  1  0  0  0  0
  1  2  1  0  0  0  0
 29 30  2  0  0  0  0
 29 31  1  0  0  0  0
 26 27  1  0  0  0  0
 26 28  2  0  0  0  0
 24 25  1  0  0  0  0
 24 26  1  0  0  0  0
 22 23  1  0  0  0  0
 22 24  2  0  0  0  0
 20 21  1  0  0  0  0
 20 22  1  0  0  0  0
 19 20  2  0  0  0  0
 19 28  1  0  0  0  0
 17 18  1  0  0  0  0
 17 19  1  0  0  0  0
 15 16  1  0  0  0  0
 15 17  1  0  0  0  0
 14 15  2  0  0  0  0
 14 28  1  0  0  0  0
 11 12  1  0  0  0  0
 11 13  1  0  0  0  0
 11 14  1  0  0  0  0
  9 10  1  0  0  0  0
  9 11  1  0  0  0  0
  9 29  1  0  0  0  0
  7  8  1  0  0  0  0
  7  9  1  0  0  0  0
 33 34  1  0  0  0  0
 33 35  1  0  0  0  0
 33 36  1  0  0  0  0
 31 32  1  0  0  0  0
 31 33  1  0  0  0  0
M  END
$$$$
default_name
  -OEChem-02102213163D

 36 37  0     1  0  0  0  0  0999 V2000
   -4.0843   -4.0736    1.2944 H   0  0  0  0  0  0  0  0  0  0  0  0
   -4.0342   -3.2816    0.5484 C   0  0  0  0  0  0  0  0  0  0  0  0
   -4.8842   -2.6126    0.6694 H   0  0  0  0  0  0  0  0  0  0  0  0
   -4.0433   -3.7186   -0.4486 H   0  0  0  0  0  0  0  0  0  0  0  0
   -2.7532   -2.5046    0.7444 C   0  0  0  0  0  0  0  0  0  0  0  0
   -1.9803   -2.8096    1.6434 O   0  0  0  0  0  0  0  0  0  0  0  0
   -2.5332   -1.4966   -0.0966 N   0  0  0  0  0  0  0  0  0  0  0  0
   -3.2312   -1.2816   -0.7936 H   0  0  0  0  0  0  0  0  0  0  0  0
   -1.3593   -0.6196   -0.0536 C   0  0  1  0  0  0  0  0  0  0  0  0
   -0.4622   -1.2317   -0.1545 H   0  0  0  0  0  0  0  0  0  0  0  0
   -1.4074    0.3593   -1.2373 C   0  0  0  0  0  0  0  0  0  0  0  0
   -0.6781    1.1533   -1.0668 H   0  0  0  0  0  0  0  0  0  0  0  0
   -1.1093   -0.1742   -2.1415 H   0  0  0  0  0  0  0  0  0  0  0  0
   -2.7406    0.9991   -1.4809 C   0  0  0  0  0  0  0  0  0  0  0  0
   -3.0191    1.8883   -2.4604 C   0  0  0  0  0  0  0  0  0  0  0  0
   -2.2978    2.2602   -3.1798 H   0  0  0  0  0  0  0  0  0  0  0  0
   -4.3570    2.2278   -2.4124 N   0  0  0  0  0  0  0  0  0  0  0  0
   -4.7888    2.8821   -3.0485 H   0  0  0  0  0  0  0  0  0  0  0  0
   -5.0150    1.5572   -1.4034 C   0  0  0  0  0  0  0  0  0  0  0  0
   -6.3510    1.5385   -0.9779 C   0  0  0  0  0  0  0  0  0  0  0  0
   -7.0929    2.1445   -1.4768 H   0  0  0  0  0  0  0  0  0  0  0  0
   -6.7104    0.7217    0.1078 C   0  0  0  0  0  0  0  0  0  0  0  0
   -7.7360    0.6952    0.4506 H   0  0  0  0  0  0  0  0  0  0  0  0
   -5.7324   -0.0572    0.7529 C   0  0  0  0  0  0  0  0  0  0  0  0
   -6.0118   -0.6778    1.5931 H   0  0  0  0  0  0  0  0  0  0  0  0
   -4.3922   -0.0290    0.3180 C   0  0  0  0  0  0  0  0  0  0  0  0
   -3.6484   -0.6220    0.8309 H   0  0  0  0  0  0  0  0  0  0  0  0
   -4.0003    0.7762   -0.7734 C   0  0  0  0  0  0  0  0  0  0  0  0
   -1.2663    0.1182    1.2910 C   0  0  0  0  0  0  0  0  0  0  0  0
   -0.1906    0.1931    1.8833 O   0  0  0  0  0  0  0  0  0  0  0  0
   -2.3930    0.6605    1.7722 N   0  0  0  0  0  0  0  0  0  0  0  0
   -3.2451    0.5077    1.2518 H   0  0  0  0  0  0  0  0  0  0  0  0
   -2.4787    1.3954    3.0311 C   0  0  0  0  0  0  0  0  0  0  0  0
   -1.7166    2.1767    3.0539 H   0  0  0  0  0  0  0  0  0  0  0  0
   -3.4649    1.8498    3.1344 H   0  0  0  0  0  0  0  0  0  0  0  0
   -2.3058    0.7133    3.8652 H   0  0  0  0  0  0  0  0  0  0  0  0
  5  6  2  0  0  0  0
  5  7  1  0  0  0  0
  2  3  1  0  0  0  0
  2  4  1  0  0  0  0
  2  5  1  0  0  0  0
  1  2  1  0  0  0  0
 29 30  2  0  0  0  0
 29 31  1  0  0  0  0
 26 27  1  0  0  0  0
 26 28  2  0  0  0  0
 24 25  1  0  0  0  0
 24 26  1  0  0  0  0
 22 23  1  0  0  0  0
 22 24  2  0  0  0  0
 20 21  1  0  0  0  0
 20 22  1  0  0  0  0
 19 20  2  0  0  0  0
 19 28  1  0  0  0  0
 17 18  1  0  0  0  0
 17 19  1  0  0  0  0
 15 16  1  0  0  0  0
 15 17  1  0  0  0  0
 14 15  2  0  0  0  0
 14 28  1  0  0  0  0
 11 12  1  0  0  0  0
 11 13  1  0  0  0  0
 11 14  1  0  0  0  0
  9 10  1  0  0  0  0
  9 11  1  0  0  0  0
  9 29  1  0  0  0  0
  7  8  1  0  0  0  0
  7  9  1  0  0  0  0
 33 34  1  0  0  0  0
 33 35  1  0  0  0  0
 33 36  1  0  0  0  0
 31 32  1  0  0  0  0
 31 33  1  0  0  0  0
M  END
$$$$
default_name
  -OEChem-02102213163D

 36 37  0     1  0  0  0  0  0999 V2000
   -4.0843   -4.0736    1.2944 H   0  0  0  0  0  0  0  0  0  0  0  0
   -4.0342   -3.2816    0.5484 C   0  0  0  0  0  0  0  0  0  0  0  0
   -4.8842   -2.6126    0.6694 H   0  0  0  0  0  0  0  0  0  0  0  0
   -4.0433   -3.7186   -0.4486 H   0  0  0  0  0  0  0  0  0  0  0  0
   -2.7532   -2.5046    0.7444 C   0  0  0  0  0  0  0  0  0  0  0  0
   -1.9803   -2.8096    1.6434 O   0  0  0  0  0  0  0  0  0  0  0  0
   -2.5332   -1.4966   -0.0966 N   0  0  0  0  0  0  0  0  0  0  0  0
   -3.2312   -1.2816   -0.7936 H   0  0  0  0  0  0  0  0  0  0  0  0
   -1.3593   -0.6196   -0.0536 C   0  0  1  0  0  0  0  0  0  0  0  0
   -0.4622   -1.2317   -0.1545 H   0  0  0  0  0  0  0  0  0  0  0  0
   -1.4074    0.3593   -1.2373 C   0  0  0  0  0  0  0  0  0  0  0  0
   -0.6781    1.1533   -1.0668 H   0  0  0  0  0  0  0  0  0  0  0  0
   -1.1093   -0.1742   -2.1415 H   0  0  0  0  0  0  0  0  0  0  0  0
   -2.7406    0.9991   -1.4809 C   0  0  0  0  0  0  0  0  0  0  0  0
   -3.1043    1.6556   -2.6053 C   0  0  0  0  0  0  0  0  0  0  0  0
   -2.4603    1.8135   -3.4635 H   0  0  0  0  0  0  0  0  0  0  0  0
   -4.4172    2.0702   -2.4967 N   0  0  0  0  0  0  0  0  0  0  0  0
   -4.9003    2.5851   -3.2183 H   0  0  0  0  0  0  0  0  0  0  0  0
   -4.9736    1.6844   -1.2957 C   0  0  0  0  0  0  0  0  0  0  0  0
   -6.2515    1.8367   -0.7389 C   0  0  0  0  0  0  0  0  0  0  0  0
   -7.0281    2.3529   -1.2839 H   0  0  0  0  0  0  0  0  0  0  0  0
   -6.5069    1.3098    0.5387 C   0  0  0  0  0  0  0  0  0  0  0  0
   -7.4864    1.4186    0.9845 H   0  0  0  0  0  0  0  0  0  0  0  0
   -5.4841    0.6459    1.2404 C   0  0  0  0  0  0  0  0  0  0  0  0
   -5.6826    0.2494    2.2265 H   0  0  0  0  0  0  0  0  0  0  0  0
   -4.2028    0.5004    0.6718 C   0  0  0  0  0  0  0  0  0  0  0  0
   -3.4223   -0.0001    1.2271 H   0  0  0  0  0  0  0  0  0  0  0  0
   -3.9162    1.0129   -0.6120 C   0  0  0  0  0  0  0  0  0  0  0  0
   -1.2663    0.1182    1.2910 C   0  0  0  0  0  0  0  0  0  0  0  0
   -0.1906    0.1931    1.8833 O   0  0  0  0  0  0  0  0  0  0  0  0
   -2.3930    0.6605    1.7722 N   0  0  0  0  0  0  0  0  0  0  0  0
   -3.2451    0.5077    1.2518 H   0  0  0  0  0  0  0  0  0  0  0  0
   -2.4787    1.3954    3.0311 C   0  0  0  0  0  0  0  0  0  0  0  0
   -1.7166    2.1767    3.0539 H   0  0  0  0  0  0  0  0  0  0  0  0
   -3.4649    1.8498    3.1344 H   0  0  0  0  0  0  0  0  0  0  0  0
   -2.3058    0.7133    3.8652 H   0  0  0  0  0  0  0  0  0  0  0  0
  5  6  2  0  0  0  0
  5  7  1  0  0  0  0
  2  3  1  0  0  0  0
  2  4  1  0  0  0  0
  2  5  1  0  0  0  0
  1  2  1  0  0  0  0
 29 30  2  0  0  0  0
 29 31  1  0  0  0  0
 26 27  1  0  0  0  0
 26 28  2  0  0  0  0
 24 25  1  0  0  0  0
 24 26  1  0  0  0  0
 22 23  1  0  0  0  0
 22 24  2  0  0  0  0
 20 21  1  0  0  0  0
 20 22  1  0  0  0  0
 19 20  2  0  0  0  0
 19 28  1  0  0  0  0
 17 18  1  0  0  0  0
 17 19  1  0  0  0  0
 15 16  1  0  0  0  0
 15 17  1  0  0  0  0
 14 15  2  0  0  0  0
 14 28  1  0  0  0  0
 11 12  1  0  0  0  0
 11 13  1  0  0  0  0
 11 14  1  0  0  0  0
  9 10  1  0  0  0  0
  9 11  1  0  0  0  0
  9 29  1  0  0  0  0
  7  8  1  0  0  0  0
  7  9  1  0  0  0  0
 33 34  1  0  0  0  0
 33 35  1  0  0  0  0
 33 36  1  0  0  0  0
 31 32  1  0  0  0  0
 31 33  1  0  0  0  0
M  END
$$$$
default_name
  -OEChem-02102213163D

 36 37  0     1  0  0  0  0  0999 V2000
   -4.0843   -4.0736    1.2944 H   0  0  0  0  0  0  0  0  0  0  0  0
   -4.0342   -3.2816    0.5484 C   0  0  0  0  0  0  0  0  0  0  0  0
   -4.8842   -2.6126    0.6694 H   0  0  0  0  0  0  0  0  0  0  0  0
   -4.0433   -3.7186   -0.4486 H   0  0  0  0  0  0  0  0  0  0  0  0
   -2.7532   -2.5046    0.7444 C   0  0  0  0  0  0  0  0  0  0  0  0
   -1.9803   -2.8096    1.6434 O   0  0  0  0  0  0  0  0  0  0  0  0
   -2.5332   -1.4966   -0.0966 N   0  0  0  0  0  0  0  0  0  0  0  0
   -3.2312   -1.2816   -0.7936 H   0  0  0  0  0  0  0  0  0  0  0  0
   -1.3593   -0.6196   -0.0536 C   0  0  1  0  0  0  0  0  0  0  0  0
   -0.4622   -1.2317   -0.1545 H   0  0  0  0  0  0  0  0  0  0  0  0
   -1.4074    0.3593   -1.2373 C   0  0  0  0  0  0  0  0  0  0  0  0
   -0.6781    1.1533   -1.0668 H   0  0  0  0  0  0  0  0  0  0  0  0
   -1.1093   -0.1742   -2.1415 H   0  0  0  0  0  0  0  0  0  0  0  0
   -2.7406    0.9991   -1.4809 C   0  0  0  0  0  0  0  0  0  0  0  0
   -3.2123    1.4011   -2.6823 C   0  0  0  0  0  0  0  0  0  0  0  0
   -2.6673    1.3236   -3.6167 H   0  0  0  0  0  0  0  0  0  0  0  0
   -4.4913    1.9011   -2.5351 N   0  0  0  0  0  0  0  0  0  0  0  0
   -5.0393    2.2637   -3.3016 H   0  0  0  0  0  0  0  0  0  0  0  0
   -4.9164    1.8303   -1.2255 C   0  0  0  0  0  0  0  0  0  0  0  0
   -6.1166    2.1755   -0.5877 C   0  0  0  0  0  0  0  0  0  0  0  0
   -6.9355    2.5959   -1.1528 H   0  0  0  0  0  0  0  0  0  0  0  0
   -6.2380    1.9685    0.7970 C   0  0  0  0  0  0  0  0  0  0  0  0
   -7.1559    2.2297    1.3061 H   0  0  0  0  0  0  0  0  0  0  0  0
   -5.1608    1.4267    1.5219 C   0  0  0  0  0  0  0  0  0  0  0  0
   -5.2556    1.2769    2.5885 H   0  0  0  0  0  0  0  0  0  0  0  0
   -3.9585    1.0853    0.8707 C   0  0  0  0  0  0  0  0  0  0  0  0
   -3.1340    0.6823    1.4417 H   0  0  0  0  0  0  0  0  0  0  0  0
   -3.8071    1.2752   -0.5200 C   0  0  0  0  0  0  0  0  0  0  0  0
   -1.2663    0.1182    1.2910 C   0  0  0  0  0  0  0  0  0  0  0  0
   -0.1906    0.1931    1.8833 O   0  0  0  0  0  0  0  0  0  0  0  0
   -2.3930    0.6605    1.7722 N   0  0  0  0  0  0  0  0  0  0  0  0
   -3.2451    0.5077    1.2518 H   0  0  0  0  0  0  0  0  0  0  0  0
   -2.4787    1.3954    3.0311 C   0  0  0  0  0  0  0  0  0  0  0  0
   -1.7166    2.1767    3.0539 H   0  0  0  0  0  0  0  0  0  0  0  0
   -3.4649    1.8498    3.1344 H   0  0  0  0  0  0  0  0  0  0  0  0
   -2.3058    0.7133    3.8652 H   0  0  0  0  0  0  0  0  0  0  0  0
  5  6  2  0  0  0  0
  5  7  1  0  0  0  0
  2  3  1  0  0  0  0
  2  4  1  0  0  0  0
  2  5  1  0  0  0  0
  1  2  1  0  0  0  0
 29 30  2  0  0  0  0
 29 31  1  0  0  0  0
 26 27  1  0  0  0  0
 26 28  2  0  0  0  0
 24 25  1  0  0  0  0
 24 26  1  0  0  0  0
 22 23  1  0  0  0  0
 22 24  2  0  0  0  0
 20 21  1  0  0  0  0
 20 22  1  0  0  0  0
 19 20  2  0  0  0  0
 19 28  1  0  0  0  0
 17 18  1  0  0  0  0
 17 19  1  0  0  0  0
 15 16  1  0  0  0  0
 15 17  1  0  0  0  0
 14 15  2  0  0  0  0
 14 28  1  0  0  0  0
 11 12  1  0  0  0  0
 11 13  1  0  0  0  0
 11 14  1  0  0  0  0
  9 10  1  0  0  0  0
  9 11  1  0  0  0  0
  9 29  1  0  0  0  0
  7  8  1  0  0  0  0
  7  9  1  0  0  0  0
 33 34  1  0  0  0  0
 33 35  1  0  0  0  0
 33 36  1  0  0  0  0
 31 32  1  0  0  0  0
 31 33  1  0  0  0  0
M  END
$$$$
default_name
  -OEChem-02102213163D

 36 37  0     1  0  0  0  0  0999 V2000
   -4.0843   -4.0736    1.2944 H   0  0  0  0  0  0  0  0  0  0  0  0
   -4.0342   -3.2816    0.5484 C   0  0  0  0  0  0  0  0  0  0  0  0
   -4.8842   -2.6126    0.6694 H   0  0  0  0  0  0  0  0  0  0  0  0
   -4.0433   -3.7186   -0.4486 H   0  0  0  0  0  0  0  0  0  0  0  0
   -2.7532   -2.5046    0.7444 C   0  0  0  0  0  0  0  0  0  0  0  0
   -1.9803   -2.8096    1.6434 O   0  0  0  0  0  0  0  0  0  0  0  0
   -2.5332   -1.4966   -0.0966 N   0  0  0  0  0  0  0  0  0  0  0  0
   -3.2312   -1.2816   -0.7936 H   0  0  0  0  0  0  0  0  0  0  0  0
   -1.3593   -0.6196   -0.0536 C   0  0  1  0  0  0  0  0  0  0  0  0
   -0.4622   -1.2317   -0.1545 H   0  0  0  0  0  0  0  0  0  0  0  0
   -1.4074    0.3593   -1.2373 C   0  0  0  0  0  0  0  0  0  0  0  0
   -0.6781    1.1533   -1.0668 H   0  0  0  0  0  0  0  0  0  0  0  0
   -1.1093   -0.1742   -2.1415 H   0  0  0  0  0  0  0  0  0  0  0  0
   -2.7406    0.9991   -1.4809 C   0  0  0  0  0  0  0  0  0  0  0  0
   -3.3359    1.1421   -2.6862 C   0  0  0  0  0  0  0  0  0  0  0  0
   -2.9049    0.8239   -3.6291 H   0  0  0  0  0  0  0  0  0  0  0  0
   -4.5743    1.7320   -2.5251 N   0  0  0  0  0  0  0  0  0  0  0  0
   -5.1962    1.9400   -3.2927 H   0  0  0  0  0  0  0  0  0  0  0  0
   -4.8472    1.9850   -1.1976 C   0  0  0  0  0  0  0  0  0  0  0  0
   -5.9552    2.5320   -0.5346 C   0  0  0  0  0  0  0  0  0  0  0  0
   -6.8213    2.8569   -1.0922 H   0  0  0  0  0  0  0  0  0  0  0  0
   -5.9220    2.6529    0.8651 C   0  0  0  0  0  0  0  0  0  0  0  0
   -6.7670    3.0734    1.3935 H   0  0  0  0  0  0  0  0  0  0  0  0
   -4.7846    2.2322    1.5783 C   0  0  0  0  0  0  0  0  0  0  0  0
   -4.7600    2.3348    2.6543 H   0  0  0  0  0  0  0  0  0  0  0  0
   -3.6759    1.6857    0.9012 C   0  0  0  0  0  0  0  0  0  0  0  0
   -2.8032    1.3788    1.4599 H   0  0  0  0  0  0  0  0  0  0  0  0
   -3.6806    1.5451   -0.5035 C   0  0  0  0  0  0  0  0  0  0  0  0
   -1.2663    0.1182    1.2910 C   0  0  0  0  0  0  0  0  0  0  0  0
   -0.1906    0.1931    1.8833 O   0  0  0  0  0  0  0  0  0  0  0  0
   -2.3930    0.6605    1.7722 N   0  0  0  0  0  0  0  0  0  0  0  0
   -3.2451    0.5077    1.2518 H   0  0  0  0  0  0  0  0  0  0  0  0
   -2.4787    1.3954    3.0311 C   0  0  0  0  0  0  0  0  0  0  0  0
   -1.7166    2.1767    3.0539 H   0  0  0  0  0  0  0  0  0  0  0  0
   -3.4649    1.8498    3.1344 H   0  0  0  0  0  0  0  0  0  0  0  0
   -2.3058    0.7133    3.8652 H   0  0  0  0  0  0  0  0  0  0  0  0
  5  6  2  0  0  0  0
  5  7  1  0  0  0  0
  2  3  1  0  0  0  0
  2  4  1  0  0  0  0
  2  5  1  0  0  0  0
  1  2  1  0  0  0  0
 29 30  2  0  0  0  0
 29 31  1  0  0  0  0
 26 27  1  0  0  0  0
 26 28  2  0  0  0  0
 24 25  1  0  0  0  0
 24 26  1  0  0  0  0
 22 23  1  0  0  0  0
 22 24  2  0  0  0  0
 20 21  1  0  0  0  0
 20 22  1  0  0  0  0
 19 20  2  0  0  0  0
 19 28  1  0  0  0  0
 17 18  1  0  0  0  0
 17 19  1  0  0  0  0
 15 16  1  0  0  0  0
 15 17  1  0  0  0  0
 14 15  2  0  0  0  0
 14 28  1  0  0  0  0
 11 12  1  0  0  0  0
 11 13  1  0  0  0  0
 11 14  1  0  0  0  0
  9 10  1  0  0  0  0
  9 11  1  0  0  0  0
  9 29  1  0  0  0  0
  7  8  1  0  0  0  0
  7  9  1  0  0  0  0
 33 34  1  0  0  0  0
 33 35  1  0  0  0  0
 33 36  1  0  0  0  0
 31 32  1  0  0  0  0
 31 33  1  0  0  0  0
M  END
$$$$
default_name
  -OEChem-02102213163D

 36 37  0     1  0  0  0  0  0999 V2000
   -4.0843   -4.0736    1.2944 H   0  0  0  0  0  0  0  0  0  0  0  0
   -4.0342   -3.2816    0.5484 C   0  0  0  0  0  0  0  0  0  0  0  0
   -4.8842   -2.6126    0.6694 H   0  0  0  0  0  0  0  0  0  0  0  0
   -4.0433   -3.7186   -0.4486 H   0  0  0  0  0  0  0  0  0  0  0  0
   -2.7532   -2.5046    0.7444 C   0  0  0  0  0  0  0  0  0  0  0  0
   -1.9803   -2.8096    1.6434 O   0  0  0  0  0  0  0  0  0  0  0  0
   -2.5332   -1.4966   -0.0966 N   0  0  0  0  0  0  0  0  0  0  0  0
   -3.2312   -1.2816   -0.7936 H   0  0  0  0  0  0  0  0  0  0  0  0
   -1.3593   -0.6196   -0.0536 C   0  0  1  0  0  0  0  0  0  0  0  0
   -0.4622   -1.2317   -0.1545 H   0  0  0  0  0  0  0  0  0  0  0  0
   -1.4074    0.3593   -1.2373 C   0  0  0  0  0  0  0  0  0  0  0  0
   -0.6781    1.1533   -1.0668 H   0  0  0  0  0  0  0  0  0  0  0  0
   -1.1093   -0.1742   -2.1415 H   0  0  0  0  0  0  0  0  0  0  0  0
   -2.7406    0.9991   -1.4809 C   0  0  0  0  0  0  0  0  0  0  0  0
   -3.4666    0.8962   -2.6166 C   0  0  0  0  0  0  0  0  0  0  0  0
   -3.1568    0.3483   -3.4997 H   0  0  0  0  0  0  0  0  0  0  0  0
   -4.6604    1.5745   -2.4674 N   0  0  0  0  0  0  0  0  0  0  0  0
   -5.3605    1.6360   -3.1922 H   0  0  0  0  0  0  0  0  0  0  0  0
   -4.7709    2.1380   -1.2140 C   0  0  0  0  0  0  0  0  0  0  0  0
   -5.7785    2.8817   -0.5832 C   0  0  0  0  0  0  0  0  0  0  0  0
   -6.6933    3.1182   -1.1065 H   0  0  0  0  0  0  0  0  0  0  0  0
   -5.5805    3.3164    0.7384 C   0  0  0  0  0  0  0  0  0  0  0  0
   -6.3462    3.8921    1.2407 H   0  0  0  0  0  0  0  0  0  0  0  0
   -4.3811    3.0074    1.4057 C   0  0  0  0  0  0  0  0  0  0  0  0
   -4.2295    3.3510    2.4196 H   0  0  0  0  0  0  0  0  0  0  0  0
   -3.3743    2.2609    0.7612 C   0  0  0  0  0  0  0  0  0  0  0  0
   -2.4523    2.0418    1.2807 H   0  0  0  0  0  0  0  0  0  0  0  0
   -3.5452    1.8043   -0.5637 C   0  0  0  0  0  0  0  0  0  0  0  0
   -1.2663    0.1182    1.2910 C   0  0  0  0  0  0  0  0  0  0  0  0
   -0.1906    0.1931    1.8833 O   0  0  0  0  0  0  0  0  0  0  0  0
   -2.3930    0.6605    1.7722 N   0  0  0  0  0  0  0  0  0  0  0  0
   -3.2451    0.5077    1.2518 H   0  0  0  0  0  0  0  0  0  0  0  0
   -2.4787    1.3954    3.0311 C   0  0  0  0  0  0  0  0  0  0  0  0
   -1.7166    2.1767    3.0539 H   0  0  0  0  0  0  0  0  0  0  0  0
   -3.4649    1.8498    3.1344 H   0  0  0  0  0  0  0  0  0  0  0  0
   -2.3058    0.7133    3.8652 H   0  0  0  0  0  0  0  0  0  0  0  0
  5  6  2  0  0  0  0
  5  7  1  0  0  0  0
  2  3  1  0  0  0  0
  2  4  1  0  0  0  0
  2  5  1  0  0  0  0
  1  2  1  0  0  0  0
 29 30  2  0  0  0  0
 29 31  1  0  0  0  0
 26 27  1  0  0  0  0
 26 28  2  0  0  0  0
 24 25  1  0  0  0  0
 24 26  1  0  0  0  0
 22 23  1  0  0  0  0
 22 24  2  0  0  0  0
 20 21  1  0  0  0  0
 20 22  1  0  0  0  0
 19 20  2  0  0  0  0
 19 28  1  0  0  0  0
 17 18  1  0  0  0  0
 17 19  1  0  0  0  0
 15 16  1  0  0  0  0
 15 17  1  0  0  0  0
 14 15  2  0  0  0  0
 14 28  1  0  0  0  0
 11 12  1  0  0  0  0
 11 13  1  0  0  0  0
 11 14  1  0  0  0  0
  9 10  1  0  0  0  0
  9 11  1  0  0  0  0
  9 29  1  0  0  0  0
  7  8  1  0  0  0  0
  7  9  1  0  0  0  0
 33 34  1  0  0  0  0
 33 35  1  0  0  0  0
 33 36  1  0  0  0  0
 31 32  1  0  0  0  0
 31 33  1  0  0  0  0
M  END
$$$$
default_name
  -OEChem-02102213163D

 36 37  0     1  0  0  0  0  0999 V2000
   -4.0843   -4.0736    1.2944 H   0  0  0  0  0  0  0  0  0  0  0  0
   -4.0342   -3.2816    0.5484 C   0  0  0  0  0  0  0  0  0  0  0  0
   -4.8842   -2.6126    0.6694 H   0  0  0  0  0  0  0  0  0  0  0  0
   -4.0433   -3.7186   -0.4486 H   0  0  0  0  0  0  0  0  0  0  0  0
   -2.7532   -2.5046    0.7444 C   0  0  0  0  0  0  0  0  0  0  0  0
   -1.9803   -2.8096    1.6434 O   0  0  0  0  0  0  0  0  0  0  0  0
   -2.5332   -1.4966   -0.0966 N   0  0  0  0  0  0  0  0  0  0  0  0
   -3.2312   -1.2816   -0.7936 H   0  0  0  0  0  0  0  0  0  0  0  0
   -1.3593   -0.6196   -0.0536 C   0  0  1  0  0  0  0  0  0  0  0  0
   -0.4622   -1.2317   -0.1545 H   0  0  0  0  0  0  0  0  0  0  0  0
   -1.4074    0.3593   -1.2373 C   0  0  0  0  0  0  0  0  0  0  0  0
   -0.6781    1.1533   -1.0668 H   0  0  0  0  0  0  0  0  0  0  0  0
   -1.1093   -0.1742   -2.1415 H   0  0  0  0  0  0  0  0  0  0  0  0
   -2.7406    0.9991   -1.4809 C   0  0  0  0  0  0  0  0  0  0  0  0
   -3.5956    0.6802   -2.4783 C   0  0  0  0  0  0  0  0  0  0  0  0
   -3.4058   -0.0708   -3.2374 H   0  0  0  0  0  0  0  0  0  0  0  0
   -4.7439    1.4393   -2.3659 N   0  0  0  0  0  0  0  0  0  0  0  0
   -5.5208    1.3724   -3.0070 H   0  0  0  0  0  0  0  0  0  0  0  0
   -4.6925    2.2787   -1.2734 C   0  0  0  0  0  0  0  0  0  0  0  0
   -5.5985    3.2009   -0.7302 C   0  0  0  0  0  0  0  0  0  0  0  0
   -6.5603    3.3618   -1.1946 H   0  0  0  0  0  0  0  0  0  0  0  0
   -5.2367    3.9138    0.4256 C   0  0  0  0  0  0  0  0  0  0  0  0
   -5.9222    4.6300    0.8581 H   0  0  0  0  0  0  0  0  0  0  0  0
   -3.9778    3.6994    1.0160 C   0  0  0  0  0  0  0  0  0  0  0  0
   -3.7002    4.2562    1.9004 H   0  0  0  0  0  0  0  0  0  0  0  0
   -3.0743    2.7715    0.4603 C   0  0  0  0  0  0  0  0  0  0  0  0
   -2.1052    2.6262    0.9161 H   0  0  0  0  0  0  0  0  0  0  0  0
   -3.4102    2.0351   -0.6964 C   0  0  0  0  0  0  0  0  0  0  0  0
   -1.2663    0.1182    1.2910 C   0  0  0  0  0  0  0  0  0  0  0  0
   -0.1906    0.1931    1.8833 O   0  0  0  0  0  0  0  0  0  0  0  0
   -2.3930    0.6605    1.7722 N   0  0  0  0  0  0  0  0  0  0  0  0
   -3.2451    0.5077    1.2518 H   0  0  0  0  0  0  0  0  0  0  0  0
   -2.4787    1.3954    3.0311 C   0  0  0  0  0  0  0  0  0  0  0  0
   -1.7166    2.1767    3.0539 H   0  0  0  0  0  0  0  0  0  0  0  0
   -3.4649    1.8498    3.1344 H   0  0  0  0  0  0  0  0  0  0  0  0
   -2.3058    0.7133    3.8652 H   0  0  0  0  0  0  0  0  0  0  0  0
  5  6  2  0  0  0  0
  5  7  1  0  0  0  0
  2  3  1  0  0  0  0
  2  4  1  0  0  0  0
  2  5  1  0  0  0  0
  1  2  1  0  0  0  0
 29 30  2  0  0  0  0
 29 31  1  0  0  0  0
 26 27  1  0  0  0  0
 26 28  2  0  0  0  0
 24 25  1  0  0  0  0
 24 26  1  0  0  0  0
 22 23  1  0  0  0  0
 22 24  2  0  0  0  0
 20 21  1  0  0  0  0
 20 22  1  0  0  0  0
 19 20  2  0  0  0  0
 19 28  1  0  0  0  0
 17 18  1  0  0  0  0
 17 19  1  0  0  0  0
 15 16  1  0  0  0  0
 15 17  1  0  0  0  0
 14 15  2  0  0  0  0
 14 28  1  0  0  0  0
 11 12  1  0  0  0  0
 11 13  1  0  0  0  0
 11 14  1  0  0  0  0
  9 10  1  0  0  0  0
  9 11  1  0  0  0  0
  9 29  1  0  0  0  0
  7  8  1  0  0  0  0
  7  9  1  0  0  0  0
 33 34  1  0  0  0  0
 33 35  1  0  0  0  0
 33 36  1  0  0  0  0
 31 32  1  0  0  0  0
 31 33  1  0  0  0  0
M  END
$$$$
default_name
  -OEChem-02102213163D

 36 37  0     1  0  0  0  0  0999 V2000
   -4.0843   -4.0736    1.2944 H   0  0  0  0  0  0  0  0  0  0  0  0
   -4.0342   -3.2816    0.5484 C   0  0  0  0  0  0  0  0  0  0  0  0
   -4.8842   -2.6126    0.6694 H   0  0  0  0  0  0  0  0  0  0  0  0
   -4.0433   -3.7186   -0.4486 H   0  0  0  0  0  0  0  0  0  0  0  0
   -2.7532   -2.5046    0.7444 C   0  0  0  0  0  0  0  0  0  0  0  0
   -1.9803   -2.8096    1.6434 O   0  0  0  0  0  0  0  0  0  0  0  0
   -2.5332   -1.4966   -0.0966 N   0  0  0  0  0  0  0  0  0  0  0  0
   -3.2312   -1.2816   -0.7936 H   0  0  0  0  0  0  0  0  0  0  0  0
   -1.3593   -0.6196   -0.0536 C   0  0  1  0  0  0  0  0  0  0  0  0
   -0.4622   -1.2317   -0.1545 H   0  0  0  0  0  0  0  0  0  0  0  0
   -1.4074    0.3593   -1.2373 C   0  0  0  0  0  0  0  0  0  0  0  0
   -0.6781    1.1533   -1.0668 H   0  0  0  0  0  0  0  0  0  0  0  0
   -1.1093   -0.1742   -2.1415 H   0  0  0  0  0  0  0  0  0  0  0  0
   -2.7406    0.9991   -1.4809 C   0  0  0  0  0  0  0  0  0  0  0  0
   -3.7139    0.5088   -2.2808 C   0  0  0  0  0  0  0  0  0  0  0  0
   -3.6349   -0.4046   -2.8601 H   0  0  0  0  0  0  0  0  0  0  0  0
   -4.8190    1.3355   -2.2274 N   0  0  0  0  0  0  0  0  0  0  0  0
   -5.6663    1.1671   -2.7498 H   0  0  0  0  0  0  0  0  0  0  0  0
   -4.6174    2.3977   -1.3719 C   0  0  0  0  0  0  0  0  0  0  0  0
   -5.4274    3.4678   -0.9656 C   0  0  0  0  0  0  0  0  0  0  0  0
   -6.4313    3.5714   -1.3504 H   0  0  0  0  0  0  0  0  0  0  0  0
   -4.9140    4.4043   -0.0521 C   0  0  0  0  0  0  0  0  0  0  0  0
   -5.5239    5.2368    0.2718 H   0  0  0  0  0  0  0  0  0  0  0  0
   -3.6022    4.2612    0.4357 C   0  0  0  0  0  0  0  0  0  0  0  0
   -3.2083    4.9887    1.1319 H   0  0  0  0  0  0  0  0  0  0  0  0
   -2.7963    3.1828    0.0188 C   0  0  0  0  0  0  0  0  0  0  0  0
   -1.7857    3.0921    0.3911 H   0  0  0  0  0  0  0  0  0  0  0  0
   -3.2847    2.2219   -0.8928 C   0  0  0  0  0  0  0  0  0  0  0  0
   -1.2663    0.1182    1.2910 C   0  0  0  0  0  0  0  0  0  0  0  0
   -0.1906    0.1931    1.8833 O   0  0  0  0  0  0  0  0  0  0  0  0
   -2.3930    0.6605    1.7722 N   0  0  0  0  0  0  0  0  0  0  0  0
   -3.2451    0.5077    1.2518 H   0  0  0  0  0  0  0  0  0  0  0  0
   -2.4787    1.3954    3.0311 C   0  0  0  0  0  0  0  0  0  0  0  0
   -1.7166    2.1767    3.0539 H   0  0  0  0  0  0  0  0  0  0  0  0
   -3.4649    1.8498    3.1344 H   0  0  0  0  0  0  0  0  0  0  0  0
   -2.3058    0.7133    3.8652 H   0  0  0  0  0  0  0  0  0  0  0  0
  5  6  2  0  0  0  0
  5  7  1  0  0  0  0
  2  3  1  0  0  0  0
  2  4  1  0  0  0  0
  2  5  1  0  0  0  0
  1  2  1  0  0  0  0
 29 30  2  0  0  0  0
 29 31  1  0  0  0  0
 26 27  1  0  0  0  0
 26 28  2  0  0  0  0
 24 25  1  0  0  0  0
 24 26  1  0  0  0  0
 22 23  1  0  0  0  0
 22 24  2  0  0  0  0
 20 21  1  0  0  0  0
 20 22  1  0  0  0  0
 19 20  2  0  0  0  0
 19 28  1  0  0  0  0
 17 18  1  0  0  0  0
 17 19  1  0  0  0  0
 15 16  1  0  0  0  0
 15 17  1  0  0  0  0
 14 15  2  0  0  0  0
 14 28  1  0  0  0  0
 11 12  1  0  0  0  0
 11 13  1  0  0  0  0
 11 14  1  0  0  0  0
  9 10  1  0  0  0  0
  9 11  1  0  0  0  0
  9 29  1  0  0  0  0
  7  8  1  0  0  0  0
  7  9  1  0  0  0  0
 33 34  1  0  0  0  0
 33 35  1  0  0  0  0
 33 36  1  0  0  0  0
 31 32  1  0  0  0  0
 31 33  1  0  0  0  0
M  END
$$$$
default_name
  -OEChem-02102213163D

 36 37  0     1  0  0  0  0  0999 V2000
   -4.0843   -4.0736    1.2944 H   0  0  0  0  0  0  0  0  0  0  0  0
   -4.0342   -3.2816    0.5484 C   0  0  0  0  0  0  0  0  0  0  0  0
   -4.8842   -2.6126    0.6694 H   0  0  0  0  0  0  0  0  0  0  0  0
   -4.0433   -3.7186   -0.4486 H   0  0  0  0  0  0  0  0  0  0  0  0
   -2.7532   -2.5046    0.7444 C   0  0  0  0  0  0  0  0  0  0  0  0
   -1.9803   -2.8096    1.6434 O   0  0  0  0  0  0  0  0  0  0  0  0
   -2.5332   -1.4966   -0.0966 N   0  0  0  0  0  0  0  0  0  0  0  0
   -3.2312   -1.2816   -0.7936 H   0  0  0  0  0  0  0  0  0  0  0  0
   -1.3593   -0.6196   -0.0536 C   0  0  1  0  0  0  0  0  0  0  0  0
   -0.4622   -1.2317   -0.1545 H   0  0  0  0  0  0  0  0  0  0  0  0
   -1.4074    0.3593   -1.2373 C   0  0  0  0  0  0  0  0  0  0  0  0
   -0.6781    1.1533   -1.0668 H   0  0  0  0  0  0  0  0  0  0  0  0
   -1.1093   -0.1742   -2.1415 H   0  0  0  0  0  0  0  0  0  0  0  0
   -2.7406    0.9991   -1.4809 C   0  0  0  0  0  0  0  0  0  0  0  0
   -3.8136    0.3937   -2.0375 C   0  0  0  0  0  0  0  0  0  0  0  0
   -3.8286   -0.6306   -2.3934 H   0  0  0  0  0  0  0  0  0  0  0  0
   -4.8805    1.2703   -2.0615 N   0  0  0  0  0  0  0  0  0  0  0  0
   -5.7871    1.0342   -2.4379 H   0  0  0  0  0  0  0  0  0  0  0  0
   -4.5507    2.4868   -1.5027 C   0  0  0  0  0  0  0  0  0  0  0  0
   -5.2769    3.6642   -1.2733 C   0  0  0  0  0  0  0  0  0  0  0  0
   -6.3151    3.7324   -1.5635 H   0  0  0  0  0  0  0  0  0  0  0  0
   -4.6345    4.7546   -0.6622 C   0  0  0  0  0  0  0  0  0  0  0  0
   -5.1784    5.6712   -0.4782 H   0  0  0  0  0  0  0  0  0  0  0  0
   -3.2799    4.6544   -0.2957 C   0  0  0  0  0  0  0  0  0  0  0  0
   -2.7872    5.4986    0.1666 H   0  0  0  0  0  0  0  0  0  0  0  0
   -2.5592    3.4668   -0.5330 C   0  0  0  0  0  0  0  0  0  0  0  0
   -1.5155    3.4078   -0.2587 H   0  0  0  0  0  0  0  0  0  0  0  0
   -3.1774    2.3517   -1.1393 C   0  0  0  0  0  0  0  0  0  0  0  0
   -1.2663    0.1182    1.2910 C   0  0  0  0  0  0  0  0  0  0  0  0
   -0.1906    0.1931    1.8833 O   0  0  0  0  0  0  0  0  0  0  0  0
   -2.3930    0.6605    1.7722 N   0  0  0  0  0  0  0  0  0  0  0  0
   -3.2451    0.5077    1.2518 H   0  0  0  0  0  0  0  0  0  0  0  0
   -2.4787    1.3954    3.0311 C   0  0  0  0  0  0  0  0  0  0  0  0
   -1.7166    2.1767    3.0539 H   0  0  0  0  0  0  0  0  0  0  0  0
   -3.4649    1.8498    3.1344 H   0  0  0  0  0  0  0  0  0  0  0  0
   -2.3058    0.7133    3.8652 H   0  0  0  0  0  0  0  0  0  0  0  0
  5  6  2  0  0  0  0
  5  7  1  0  0  0  0
  2  3  1  0  0  0  0
  2  4  1  0  0  0  0
  2  5  1  0  0  0  0
  1  2  1  0  0  0  0
 29 30  2  0  0  0  0
 29 31  1  0  0  0  0
 26 27  1  0  0  0  0
 26 28  2  0  0  0  0
 24 25  1  0  0  0  0
 24 26  1  0  0  0  0
 22 23  1  0  0  0  0
 22 24  2  0  0  0  0
 20 21  1  0  0  0  0
 20 22  1  0  0  0  0
 19 20  2  0  0  0  0
 19 28  1  0  0  0  0
 17 18  1  0  0  0  0
 17 19  1  0  0  0  0
 15 16  1  0  0  0  0
 15 17  1  0  0  0  0
 14 15  2  0  0  0  0
 14 28  1  0  0  0  0
 11 12  1  0  0  0  0
 11 13  1  0  0  0  0
 11 14  1  0  0  0  0
  9 10  1  0  0  0  0
  9 11  1  0  0  0  0
  9 29  1  0  0  0  0
  7  8  1  0  0  0  0
  7  9  1  0  0  0  0
 33 34  1  0  0  0  0
 33 35  1  0  0  0  0
 33 36  1  0  0  0  0
 31 32  1  0  0  0  0
 31 33  1  0  0  0  0
M  END
$$$$
default_name
  -OEChem-02102213163D

 36 37  0     1  0  0  0  0  0999 V2000
   -4.0843   -4.0736    1.2944 H   0  0  0  0  0  0  0  0  0  0  0  0
   -4.0342   -3.2816    0.5484 C   0  0  0  0  0  0  0  0  0  0  0  0
   -4.8842   -2.6126    0.6694 H   0  0  0  0  0  0  0  0  0  0  0  0
   -4.0433   -3.7186   -0.4486 H   0  0  0  0  0  0  0  0  0  0  0  0
   -2.7532   -2.5046    0.7444 C   0  0  0  0  0  0  0  0  0  0  0  0
   -1.9803   -2.8096    1.6434 O   0  0  0  0  0  0  0  0  0  0  0  0
   -2.5332   -1.4966   -0.0966 N   0  0  0  0  0  0  0  0  0  0  0  0
   -3.2312   -1.2816   -0.7936 H   0  0  0  0  0  0  0  0  0  0  0  0
   -1.3593   -0.6196   -0.0536 C   0  0  1  0  0  0  0  0  0  0  0  0
   -0.4622   -1.2317   -0.1545 H   0  0  0  0  0  0  0  0  0  0  0  0
   -1.4074    0.3593   -1.2373 C   0  0  0  0  0  0  0  0  0  0  0  0
   -0.6781    1.1533   -1.0668 H   0  0  0  0  0  0  0  0  0  0  0  0
   -1.1093   -0.1742   -2.1415 H   0  0  0  0  0  0  0  0  0  0  0  0
   -2.7406    0.9991   -1.4809 C   0  0  0  0  0  0  0  0  0  0  0  0
   -3.8878    0.3428   -1.7649 C   0  0  0  0  0  0  0  0  0  0  0  0
   -3.9737   -0.7333   -1.8692 H   0  0  0  0  0  0  0  0  0  0  0  0
   -4.9244    1.2482   -1.8794 N   0  0  0  0  0  0  0  0  0  0  0  0
   -5.8748    0.9827   -2.0927 H   0  0  0  0  0  0  0  0  0  0  0  0
   -4.4970    2.5399   -1.6570 C   0  0  0  0  0  0  0  0  0  0  0  0
   -5.1573    3.7768   -1.6323 C   0  0  0  0  0  0  0  0  0  0  0  0
   -6.2196    3.8340   -1.8192 H   0  0  0  0  0  0  0  0  0  0  0  0
   -4.4172    4.9407   -1.3629 C   0  0  0  0  0  0  0  0  0  0  0  0
   -4.9093    5.9036   -1.3409 H   0  0  0  0  0  0  0  0  0  0  0  0
   -3.0328    4.8523   -1.1284 C   0  0  0  0  0  0  0  0  0  0  0  0
   -2.4657    5.7512   -0.9297 H   0  0  0  0  0  0  0  0  0  0  0  0
   -2.3792    3.6040   -1.1575 C   0  0  0  0  0  0  0  0  0  0  0  0
   -1.3130    3.5518   -0.9888 H   0  0  0  0  0  0  0  0  0  0  0  0
   -3.0954    2.4159   -1.4191 C   0  0  0  0  0  0  0  0  0  0  0  0
   -1.2663    0.1182    1.2910 C   0  0  0  0  0  0  0  0  0  0  0  0
   -0.1906    0.1931    1.8833 O   0  0  0  0  0  0  0  0  0  0  0  0
   -2.3930    0.6605    1.7722 N   0  0  0  0  0  0  0  0  0  0  0  0
   -3.2451    0.5077    1.2518 H   0  0  0  0  0  0  0  0  0  0  0  0
   -2.4787    1.3954    3.0311 C   0  0  0  0  0  0  0  0  0  0  0  0
   -1.7166    2.1767    3.0539 H   0  0  0  0  0  0  0  0  0  0  0  0
   -3.4649    1.8498    3.1344 H   0  0  0  0  0  0  0  0  0  0  0  0
   -2.3058    0.7133    3.8652 H   0  0  0  0  0  0  0  0  0  0  0  0
  5  6  2  0  0  0  0
  5  7  1  0  0  0  0
  2  3  1  0  0  0  0
  2  4  1  0  0  0  0
  2  5  1  0  0  0  0
  1  2  1  0  0  0  0
 29 30  2  0  0  0  0
 29 31  1  0  0  0  0
 26 27  1  0  0  0  0
 26 28  2  0  0  0  0
 24 25  1  0  0  0  0
 24 26  1  0  0  0  0
 22 23  1  0  0  0  0
 22 24  2  0  0  0  0
 20 21  1  0  0  0  0
 20 22  1  0  0  0  0
 19 20  2  0  0  0  0
 19 28  1  0  0  0  0
 17 18  1  0  0  0  0
 17 19  1  0  0  0  0
 15 16  1  0  0  0  0
 15 17  1  0  0  0  0
 14 15  2  0  0  0  0
 14 28  1  0  0  0  0
 11 12  1  0  0  0  0
 11 13  1  0  0  0  0
 11 14  1  0  0  0  0
  9 10  1  0  0  0  0
  9 11  1  0  0  0  0
  9 29  1  0  0  0  0
  7  8  1  0  0  0  0
  7  9  1  0  0  0  0
 33 34  1  0  0  0  0
 33 35  1  0  0  0  0
 33 36  1  0  0  0  0
 31 32  1  0  0  0  0
 31 33  1  0  0  0  0
M  END
$$$$
default_name
  -OEChem-02102213163D

 36 37  0     1  0  0  0  0  0999 V2000
   -4.0843   -4.0736    1.2944 H   0  0  0  0  0  0  0  0  0  0  0  0
   -4.0342   -3.2816    0.5484 C   0  0  0  0  0  0  0  0  0  0  0  0
   -4.8842   -2.6126    0.6694 H   0  0  0  0  0  0  0  0  0  0  0  0
   -4.0433   -3.7186   -0.4486 H   0  0  0  0  0  0  0  0  0  0  0  0
   -2.7532   -2.5046    0.7444 C   0  0  0  0  0  0  0  0  0  0  0  0
   -1.9803   -2.8096    1.6434 O   0  0  0  0  0  0  0  0  0  0  0  0
   -2.5332   -1.4966   -0.0966 N   0  0  0  0  0  0  0  0  0  0  0  0
   -3.2312   -1.2816   -0.7936 H   0  0  0  0  0  0  0  0  0  0  0  0
   -1.3593   -0.6196   -0.0536 C   0  0  1  0  0  0  0  0  0  0  0  0
   -0.4622   -1.2317   -0.1545 H   0  0  0  0  0  0  0  0  0  0  0  0
   -1.4074    0.3593   -1.2373 C   0  0  0  0  0  0  0  0  0  0  0  0
   -0.6781    1.1533   -1.0668 H   0  0  0  0  0  0  0  0  0  0  0  0
   -1.1093   -0.1742   -2.1415 H   0  0  0  0  0  0  0  0  0  0  0  0
   -2.7406    0.9991   -1.4809 C   0  0  0  0  0  0  0  0  0  0  0  0
   -3.9316    0.3594   -1.4817 C   0  0  0  0  0  0  0  0  0  0  0  0
   -4.0602   -0.7057   -1.3232 H   0  0  0  0  0  0  0  0  0  0  0  0
   -4.9477    1.2705   -1.6936 N   0  0  0  0  0  0  0  0  0  0  0  0
   -5.9236    1.0162   -1.7378 H   0  0  0  0  0  0  0  0  0  0  0  0
   -4.4600    2.5535   -1.8241 C   0  0  0  0  0  0  0  0  0  0  0  0
   -5.0767    3.7978   -2.0183 C   0  0  0  0  0  0  0  0  0  0  0  0
   -6.1513    3.8693   -2.1001 H   0  0  0  0  0  0  0  0  0  0  0  0
   -4.2768    4.9499   -2.1067 C   0  0  0  0  0  0  0  0  0  0  0  0
   -4.7349    5.9181   -2.2574 H   0  0  0  0  0  0  0  0  0  0  0  0
   -2.8778    4.8414   -2.0055 C   0  0  0  0  0  0  0  0  0  0  0  0
   -2.2657    5.7293   -2.0824 H   0  0  0  0  0  0  0  0  0  0  0  0
   -2.2686    3.5852   -1.8123 C   0  0  0  0  0  0  0  0  0  0  0  0
   -1.1920    3.5143   -1.7496 H   0  0  0  0  0  0  0  0  0  0  0  0
   -3.0445    2.4100   -1.7133 C   0  0  0  0  0  0  0  0  0  0  0  0
   -1.2663    0.1182    1.2910 C   0  0  0  0  0  0  0  0  0  0  0  0
   -0.1906    0.1931    1.8833 O   0  0  0  0  0  0  0  0  0  0  0  0
   -2.3930    0.6605    1.7722 N   0  0  0  0  0  0  0  0  0  0  0  0
   -3.2451    0.5077    1.2518 H   0  0  0  0  0  0  0  0  0  0  0  0
   -2.4787    1.3954    3.0311 C   0  0  0  0  0  0  0  0  0  0  0  0
   -1.7166    2.1767    3.0539 H   0  0  0  0  0  0  0  0  0  0  0  0
   -3.4649    1.8498    3.1344 H   0  0  0  0  0  0  0  0  0  0  0  0
   -2.3058    0.7133    3.8652 H   0  0  0  0  0  0  0  0  0  0  0  0
  5  6  2  0  0  0  0
  5  7  1  0  0  0  0
  2  3  1  0  0  0  0
  2  4  1  0  0  0  0
  2  5  1  0  0  0  0
  1  2  1  0  0  0  0
 29 30  2  0  0  0  0
 29 31  1  0  0  0  0
 26 27  1  0  0  0  0
 26 28  2  0  0  0  0
 24 25  1  0  0  0  0
 24 26  1  0  0  0  0
 22 23  1  0  0  0  0
 22 24  2  0  0  0  0
 20 21  1  0  0  0  0
 20 22  1  0  0  0  0
 19 20  2  0  0  0  0
 19 28  1  0  0  0  0
 17 18  1  0  0  0  0
 17 19  1  0  0  0  0
 15 16  1  0  0  0  0
 15 17  1  0  0  0  0
 14 15  2  0  0  0  0
 14 28  1  0  0  0  0
 11 12  1  0  0  0  0
 11 13  1  0  0  0  0
 11 14  1  0  0  0  0
  9 10  1  0  0  0  0
  9 11  1  0  0  0  0
  9 29  1  0  0  0  0
  7  8  1  0  0  0  0
  7  9  1  0  0  0  0
 33 34  1  0  0  0  0
 33 35  1  0  0  0  0
 33 36  1  0  0  0  0
 31 32  1  0  0  0  0
 31 33  1  0  0  0  0
M  END
$$$$
default_name
  -OEChem-02102213163D

 36 37  0     1  0  0  0  0  0999 V2000
   -4.0843   -4.0736    1.2944 H   0  0  0  0  0  0  0  0  0  0  0  0
   -4.0342   -3.2816    0.5484 C   0  0  0  0  0  0  0  0  0  0  0  0
   -4.8842   -2.6126    0.6694 H   0  0  0  0  0  0  0  0  0  0  0  0
   -4.0433   -3.7186   -0.4486 H   0  0  0  0  0  0  0  0  0  0  0  0
   -2.7532   -2.5046    0.7444 C   0  0  0  0  0  0  0  0  0  0  0  0
   -1.9803   -2.8096    1.6434 O   0  0  0  0  0  0  0  0  0  0  0  0
   -2.5332   -1.4966   -0.0966 N   0  0  0  0  0  0  0  0  0  0  0  0
   -3.2312   -1.2816   -0.7936 H   0  0  0  0  0  0  0  0  0  0  0  0
   -1.3593   -0.6196   -0.0536 C   0  0  1  0  0  0  0  0  0  0  0  0
   -0.4622   -1.2317   -0.1545 H   0  0  0  0  0  0  0  0  0  0  0  0
   -1.4074    0.3593   -1.2373 C   0  0  0  0  0  0  0  0  0  0  0  0
   -0.6781    1.1533   -1.0668 H   0  0  0  0  0  0  0  0  0  0  0  0
   -1.1093   -0.1742   -2.1415 H   0  0  0  0  0  0  0  0  0  0  0  0
   -2.7406    0.9991   -1.4809 C   0  0  0  0  0  0  0  0  0  0  0  0
   -3.9418    0.4426   -1.2072 C   0  0  0  0  0  0  0  0  0  0  0  0
   -4.0823   -0.5496   -0.7926 H   0  0  0  0  0  0  0  0  0  0  0  0
   -4.9486    1.3359   -1.5167 N   0  0  0  0  0  0  0  0  0  0  0  0
   -5.9302    1.1322   -1.3972 H   0  0  0  0  0  0  0  0  0  0  0  0
   -4.4421    2.5265   -1.9928 C   0  0  0  0  0  0  0  0  0  0  0  0
   -5.0406    3.7258   -2.4048 C   0  0  0  0  0  0  0  0  0  0  0  0
   -6.1150    3.8358   -2.3872 H   0  0  0  0  0  0  0  0  0  0  0  0
   -4.2231    4.7817   -2.8427 C   0  0  0  0  0  0  0  0  0  0  0  0
   -4.6671    5.7138   -3.1653 H   0  0  0  0  0  0  0  0  0  0  0  0
   -2.8255    4.6223   -2.8673 C   0  0  0  0  0  0  0  0  0  0  0  0
   -2.2007    5.4343   -3.2128 H   0  0  0  0  0  0  0  0  0  0  0  0
   -2.2349    3.4117   -2.4527 C   0  0  0  0  0  0  0  0  0  0  0  0
   -1.1608    3.2978   -2.4892 H   0  0  0  0  0  0  0  0  0  0  0  0
   -3.0281    2.3345   -2.0016 C   0  0  0  0  0  0  0  0  0  0  0  0
   -1.2663    0.1182    1.2910 C   0  0  0  0  0  0  0  0  0  0  0  0
   -0.1906    0.1931    1.8833 O   0  0  0  0  0  0  0  0  0  0  0  0
   -2.3930    0.6605    1.7722 N   0  0  0  0  0  0  0  0  0  0  0  0
   -3.2451    0.5077    1.2518 H   0  0  0  0  0  0  0  0  0  0  0  0
   -2.4787    1.3954    3.0311 C   0  0  0  0  0  0  0  0  0  0  0  0
   -1.7166    2.1767    3.0539 H   0  0  0  0  0  0  0  0  0  0  0  0
   -3.4649    1.8498    3.1344 H   0  0  0  0  0  0  0  0  0  0  0  0
   -2.3058    0.7133    3.8652 H   0  0  0  0  0  0  0  0  0  0  0  0
  5  6  2  0  0  0  0
  5  7  1  0  0  0  0
  2  3  1  0  0  0  0
  2  4  1  0  0  0  0
  2  5  1  0  0  0  0
  1  2  1  0  0  0  0
 29 30  2  0  0  0  0
 29 31  1  0  0  0  0
 26 27  1  0  0  0  0
 26 28  2  0  0  0  0
 24 25  1  0  0  0  0
 24 26  1  0  0  0  0
 22 23  1  0  0  0  0
 22 24  2  0  0  0  0
 20 21  1  0  0  0  0
 20 22  1  0  0  0  0
 19 20  2  0  0  0  0
 19 28  1  0  0  0  0
 17 18  1  0  0  0  0
 17 19  1  0  0  0  0
 15 16  1  0  0  0  0
 15 17  1  0  0  0  0
 14 15  2  0  0  0  0
 14 28  1  0  0  0  0
 11 12  1  0  0  0  0
 11 13  1  0  0  0  0
 11 14  1  0  0  0  0
  9 10  1  0  0  0  0
  9 11  1  0  0  0  0
  9 29  1  0  0  0  0
  7  8  1  0  0  0  0
  7  9  1  0  0  0  0
 33 34  1  0  0  0  0
 33 35  1  0  0  0  0
 33 36  1  0  0  0  0
 31 32  1  0  0  0  0
 31 33  1  0  0  0  0
M  END
$$$$
default_name
  -OEChem-02102213163D

 36 37  0     1  0  0  0  0  0999 V2000
   -4.0843   -4.0736    1.2944 H   0  0  0  0  0  0  0  0  0  0  0  0
   -4.0342   -3.2816    0.5484 C   0  0  0  0  0  0  0  0  0  0  0  0
   -4.8842   -2.6126    0.6694 H   0  0  0  0  0  0  0  0  0  0  0  0
   -4.0433   -3.7186   -0.4486 H   0  0  0  0  0  0  0  0  0  0  0  0
   -2.7532   -2.5046    0.7444 C   0  0  0  0  0  0  0  0  0  0  0  0
   -1.9803   -2.8096    1.6434 O   0  0  0  0  0  0  0  0  0  0  0  0
   -2.5332   -1.4966   -0.0966 N   0  0  0  0  0  0  0  0  0  0  0  0
   -3.2312   -1.2816   -0.7936 H   0  0  0  0  0  0  0  0  0  0  0  0
   -1.3593   -0.6196   -0.0536 C   0  0  1  0  0  0  0  0  0  0  0  0
   -0.4622   -1.2317   -0.1545 H   0  0  0  0  0  0  0  0  0  0  0  0
   -1.4074    0.3593   -1.2373 C   0  0  0  0  0  0  0  0  0  0  0  0
   -0.6781    1.1533   -1.0668 H   0  0  0  0  0  0  0  0  0  0  0  0
   -1.1093   -0.1742   -2.1415 H   0  0  0  0  0  0  0  0  0  0  0  0
   -2.7406    0.9991   -1.4809 C   0  0  0  0  0  0  0  0  0  0  0  0
   -3.9179    0.5865   -0.9600 C   0  0  0  0  0  0  0  0  0  0  0  0
   -4.0384   -0.2758   -0.3135 H   0  0  0  0  0  0  0  0  0  0  0  0
   -4.9273    1.4398   -1.3608 N   0  0  0  0  0  0  0  0  0  0  0  0
   -5.8940    1.3230   -1.0943 H   0  0  0  0  0  0  0  0  0  0  0  0
   -4.4446    2.4609   -2.1514 C   0  0  0  0  0  0  0  0  0  0  0  0
   -5.0515    3.5658   -2.7656 C   0  0  0  0  0  0  0  0  0  0  0  0
   -6.1130    3.7359   -2.6607 H   0  0  0  0  0  0  0  0  0  0  0  0
   -4.2596    4.4475   -3.5209 C   0  0  0  0  0  0  0  0  0  0  0  0
   -4.7105    5.3045   -4.0027 H   0  0  0  0  0  0  0  0  0  0  0  0
   -2.8794    4.2101   -3.6551 C   0  0  0  0  0  0  0  0  0  0  0  0
   -2.2753    4.8864   -4.2440 H   0  0  0  0  0  0  0  0  0  0  0  0
   -2.2804    3.0952   -3.0350 C   0  0  0  0  0  0  0  0  0  0  0  0
   -1.2214    2.9171   -3.1572 H   0  0  0  0  0  0  0  0  0  0  0  0
   -3.0472    2.1944   -2.2646 C   0  0  0  0  0  0  0  0  0  0  0  0
   -1.2663    0.1182    1.2910 C   0  0  0  0  0  0  0  0  0  0  0  0
   -0.1906    0.1931    1.8833 O   0  0  0  0  0  0  0  0  0  0  0  0
   -2.3930    0.6605    1.7722 N   0  0  0  0  0  0  0  0  0  0  0  0
   -3.2451    0.5077    1.2518 H   0  0  0  0  0  0  0  0  0  0  0  0
   -2.4787    1.3954    3.0311 C   0  0  0  0  0  0  0  0  0  0  0  0
   -1.7166    2.1767    3.0539 H   0  0  0  0  0  0  0  0  0  0  0  0
   -3.4649    1.8498    3.1344 H   0  0  0  0  0  0  0  0  0  0  0  0
   -2.3058    0.7133    3.8652 H   0  0  0  0  0  0  0  0  0  0  0  0
  5  6  2  0  0  0  0
  5  7  1  0  0  0  0
  2  3  1  0  0  0  0
  2  4  1  0  0  0  0
  2  5  1  0  0  0  0
  1  2  1  0  0  0  0
 29 30  2  0  0  0  0
 29 31  1  0  0  0  0
 26 27  1  0  0  0  0
 26 28  2  0  0  0  0
 24 25  1  0  0  0  0
 24 26  1  0  0  0  0
 22 23  1  0  0  0  0
 22 24  2  0  0  0  0
 20 21  1  0  0  0  0
 20 22  1  0  0  0  0
 19 20  2  0  0  0  0
 19 28  1  0  0  0  0
 17 18  1  0  0  0  0
 17 19  1  0  0  0  0
 15 16  1  0  0  0  0
 15 17  1  0  0  0  0
 14 15  2  0  0  0  0
 14 28  1  0  0  0  0
 11 12  1  0  0  0  0
 11 13  1  0  0  0  0
 11 14  1  0  0  0  0
  9 10  1  0  0  0  0
  9 11  1  0  0  0  0
  9 29  1  0  0  0  0
  7  8  1  0  0  0  0
  7  9  1  0  0  0  0
 33 34  1  0  0  0  0
 33 35  1  0  0  0  0
 33 36  1  0  0  0  0
 31 32  1  0  0  0  0
 31 33  1  0  0  0  0
M  END
$$$$
default_name
  -OEChem-02102213163D

 36 37  0     1  0  0  0  0  0999 V2000
   -4.0843   -4.0736    1.2944 H   0  0  0  0  0  0  0  0  0  0  0  0
   -4.0342   -3.2816    0.5484 C   0  0  0  0  0  0  0  0  0  0  0  0
   -4.8842   -2.6126    0.6694 H   0  0  0  0  0  0  0  0  0  0  0  0
   -4.0433   -3.7186   -0.4486 H   0  0  0  0  0  0  0  0  0  0  0  0
   -2.7532   -2.5046    0.7444 C   0  0  0  0  0  0  0  0  0  0  0  0
   -1.9803   -2.8096    1.6434 O   0  0  0  0  0  0  0  0  0  0  0  0
   -2.5332   -1.4966   -0.0966 N   0  0  0  0  0  0  0  0  0  0  0  0
   -3.2312   -1.2816   -0.7936 H   0  0  0  0  0  0  0  0  0  0  0  0
   -1.3593   -0.6196   -0.0536 C   0  0  1  0  0  0  0  0  0  0  0  0
   -0.4622   -1.2317   -0.1545 H   0  0  0  0  0  0  0  0  0  0  0  0
   -1.4074    0.3593   -1.2373 C   0  0  0  0  0  0  0  0  0  0  0  0
   -0.6781    1.1533   -1.0668 H   0  0  0  0  0  0  0  0  0  0  0  0
   -1.1093   -0.1742   -2.1415 H   0  0  0  0  0  0  0  0  0  0  0  0
   -2.7406    0.9991   -1.4809 C   0  0  0  0  0  0  0  0  0  0  0  0
   -3.8614    0.7815   -0.7570 C   0  0  0  0  0  0  0  0  0  0  0  0
   -3.9316    0.0971    0.0813 H   0  0  0  0  0  0  0  0  0  0  0  0
   -4.8850    1.5752   -1.2364 N   0  0  0  0  0  0  0  0  0  0  0  0
   -5.8175    1.5755   -0.8496 H   0  0  0  0  0  0  0  0  0  0  0  0
   -4.4673    2.3611   -2.2893 C   0  0  0  0  0  0  0  0  0  0  0  0
   -5.1086    3.3286   -3.0761 C   0  0  0  0  0  0  0  0  0  0  0  0
   -6.1454    3.5762   -2.9022 H   0  0  0  0  0  0  0  0  0  0  0  0
   -4.3838    3.9701   -4.0950 C   0  0  0  0  0  0  0  0  0  0  0  0
   -4.8621    4.7183   -4.7126 H   0  0  0  0  0  0  0  0  0  0  0  0
   -3.0358    3.6328   -4.3152 C   0  0  0  0  0  0  0  0  0  0  0  0
   -2.4843    4.1228   -5.1056 H   0  0  0  0  0  0  0  0  0  0  0  0
   -2.4020    2.6573   -3.5196 C   0  0  0  0  0  0  0  0  0  0  0  0
   -1.3698    2.3981   -3.7081 H   0  0  0  0  0  0  0  0  0  0  0  0
   -3.1007    1.9994   -2.4843 C   0  0  0  0  0  0  0  0  0  0  0  0
   -1.2663    0.1182    1.2910 C   0  0  0  0  0  0  0  0  0  0  0  0
   -0.1906    0.1931    1.8833 O   0  0  0  0  0  0  0  0  0  0  0  0
   -2.3930    0.6605    1.7722 N   0  0  0  0  0  0  0  0  0  0  0  0
   -3.2451    0.5077    1.2518 H   0  0  0  0  0  0  0  0  0  0  0  0
   -2.4787    1.3954    3.0311 C   0  0  0  0  0  0  0  0  0  0  0  0
   -1.7166    2.1767    3.0539 H   0  0  0  0  0  0  0  0  0  0  0  0
   -3.4649    1.8498    3.1344 H   0  0  0  0  0  0  0  0  0  0  0  0
   -2.3058    0.7133    3.8652 H   0  0  0  0  0  0  0  0  0  0  0  0
  5  6  2  0  0  0  0
  5  7  1  0  0  0  0
  2  3  1  0  0  0  0
  2  4  1  0  0  0  0
  2  5  1  0  0  0  0
  1  2  1  0  0  0  0
 29 30  2  0  0  0  0
 29 31  1  0  0  0  0
 26 27  1  0  0  0  0
 26 28  2  0  0  0  0
 24 25  1  0  0  0  0
 24 26  1  0  0  0  0
 22 23  1  0  0  0  0
 22 24  2  0  0  0  0
 20 21  1  0  0  0  0
 20 22  1  0  0  0  0
 19 20  2  0  0  0  0
 19 28  1  0  0  0  0
 17 18  1  0  0  0  0
 17 19  1  0  0  0  0
 15 16  1  0  0  0  0
 15 17  1  0  0  0  0
 14 15  2  0  0  0  0
 14 28  1  0  0  0  0
 11 12  1  0  0  0  0
 11 13  1  0  0  0  0
 11 14  1  0  0  0  0
  9 10  1  0  0  0  0
  9 11  1  0  0  0  0
  9 29  1  0  0  0  0
  7  8  1  0  0  0  0
  7  9  1  0  0  0  0
 33 34  1  0  0  0  0
 33 35  1  0  0  0  0
 33 36  1  0  0  0  0
 31 32  1  0  0  0  0
 31 33  1  0  0  0  0
M  END
$$$$
default_name
  -OEChem-02102213163D

 36 37  0     1  0  0  0  0  0999 V2000
   -4.0843   -4.0736    1.2944 H   0  0  0  0  0  0  0  0  0  0  0  0
   -4.0342   -3.2816    0.5484 C   0  0  0  0  0  0  0  0  0  0  0  0
   -4.8842   -2.6126    0.6694 H   0  0  0  0  0  0  0  0  0  0  0  0
   -4.0433   -3.7186   -0.4486 H   0  0  0  0  0  0  0  0  0  0  0  0
   -2.7532   -2.5046    0.7444 C   0  0  0  0  0  0  0  0  0  0  0  0
   -1.9803   -2.8096    1.6434 O   0  0  0  0  0  0  0  0  0  0  0  0
   -2.5332   -1.4966   -0.0966 N   0  0  0  0  0  0  0  0  0  0  0  0
   -3.2312   -1.2816   -0.7936 H   0  0  0  0  0  0  0  0  0  0  0  0
   -1.3593   -0.6196   -0.0536 C   0  0  1  0  0  0  0  0  0  0  0  0
   -0.4622   -1.2317   -0.1545 H   0  0  0  0  0  0  0  0  0  0  0  0
   -1.4074    0.3593   -1.2373 C   0  0  0  0  0  0  0  0  0  0  0  0
   -0.6781    1.1533   -1.0668 H   0  0  0  0  0  0  0  0  0  0  0  0
   -1.1093   -0.1742   -2.1415 H   0  0  0  0  0  0  0  0  0  0  0  0
   -2.7406    0.9991   -1.4809 C   0  0  0  0  0  0  0  0  0  0  0  0
   -3.7763    1.0141   -0.6121 C   0  0  0  0  0  0  0  0  0  0  0  0
   -3.7691    0.5437    0.3650 H   0  0  0  0  0  0  0  0  0  0  0  0
   -4.8248    1.7328   -1.1522 N   0  0  0  0  0  0  0  0  0  0  0  0
   -5.7060    1.8726   -0.6798 H   0  0  0  0  0  0  0  0  0  0  0  0
   -4.5087    2.2339   -2.3970 C   0  0  0  0  0  0  0  0  0  0  0  0
   -5.2080    3.0305   -3.3151 C   0  0  0  0  0  0  0  0  0  0  0  0
   -6.2102    3.3678   -3.0950 H   0  0  0  0  0  0  0  0  0  0  0  0
   -4.5873    3.3820   -4.5259 C   0  0  0  0  0  0  0  0  0  0  0  0
   -5.1117    3.9949   -5.2465 H   0  0  0  0  0  0  0  0  0  0  0  0
   -3.2841    2.9297   -4.8026 C   0  0  0  0  0  0  0  0  0  0  0  0
   -2.8135    3.1957   -5.7390 H   0  0  0  0  0  0  0  0  0  0  0  0
   -2.5914    2.1279   -3.8734 C   0  0  0  0  0  0  0  0  0  0  0  0
   -1.5959    1.7762   -4.1043 H   0  0  0  0  0  0  0  0  0  0  0  0
   -3.1848    1.7627   -2.6457 C   0  0  0  0  0  0  0  0  0  0  0  0
   -1.2663    0.1182    1.2910 C   0  0  0  0  0  0  0  0  0  0  0  0
   -0.1906    0.1931    1.8833 O   0  0  0  0  0  0  0  0  0  0  0  0
   -2.3930    0.6605    1.7722 N   0  0  0  0  0  0  0  0  0  0  0  0
   -3.2451    0.5077    1.2518 H   0  0  0  0  0  0  0  0  0  0  0  0
   -2.4787    1.3954    3.0311 C   0  0  0  0  0  0  0  0  0  0  0  0
   -1.7166    2.1767    3.0539 H   0  0  0  0  0  0  0  0  0  0  0  0
   -3.4649    1.8498    3.1344 H   0  0  0  0  0  0  0  0  0  0  0  0
   -2.3058    0.7133    3.8652 H   0  0  0  0  0  0  0  0  0  0  0  0
  5  6  2  0  0  0  0
  5  7  1  0  0  0  0
  2  3  1  0  0  0  0
  2  4  1  0  0  0  0
  2  5  1  0  0  0  0
  1  2  1  0  0  0  0
 29 30  2  0  0  0  0
 29 31  1  0  0  0  0
 26 27  1  0  0  0  0
 26 28  2  0  0  0  0
 24 25  1  0  0  0  0
 24 26  1  0  0  0  0
 22 23  1  0  0  0  0
 22 24  2  0  0  0  0
 20 21  1  0  0  0  0
 20 22  1  0  0  0  0
 19 20  2  0  0  0  0
 19 28  1  0  0  0  0
 17 18  1  0  0  0  0
 17 19  1  0  0  0  0
 15 16  1  0  0  0  0
 15 17  1  0  0  0  0
 14 15  2  0  0  0  0
 14 28  1  0  0  0  0
 11 12  1  0  0  0  0
 11 13  1  0  0  0  0
 11 14  1  0  0  0  0
  9 10  1  0  0  0  0
  9 11  1  0  0  0  0
  9 29  1  0  0  0  0
  7  8  1  0  0  0  0
  7  9  1  0  0  0  0
 33 34  1  0  0  0  0
 33 35  1  0  0  0  0
 33 36  1  0  0  0  0
 31 32  1  0  0  0  0
 31 33  1  0  0  0  0
M  END
$$$$
default_name
  -OEChem-02102213163D

 36 37  0     1  0  0  0  0  0999 V2000
   -4.0843   -4.0736    1.2944 H   0  0  0  0  0  0  0  0  0  0  0  0
   -4.0342   -3.2816    0.5484 C   0  0  0  0  0  0  0  0  0  0  0  0
   -4.8842   -2.6126    0.6694 H   0  0  0  0  0  0  0  0  0  0  0  0
   -4.0433   -3.7186   -0.4486 H   0  0  0  0  0  0  0  0  0  0  0  0
   -2.7532   -2.5046    0.7444 C   0  0  0  0  0  0  0  0  0  0  0  0
   -1.9803   -2.8096    1.6434 O   0  0  0  0  0  0  0  0  0  0  0  0
   -2.5332   -1.4966   -0.0966 N   0  0  0  0  0  0  0  0  0  0  0  0
   -3.2312   -1.2816   -0.7936 H   0  0  0  0  0  0  0  0  0  0  0  0
   -1.3593   -0.6196   -0.0536 C   0  0  1  0  0  0  0  0  0  0  0  0
   -0.4622   -1.2317   -0.1545 H   0  0  0  0  0  0  0  0  0  0  0  0
   -1.4074    0.3593   -1.2373 C   0  0  0  0  0  0  0  0  0  0  0  0
   -0.6781    1.1533   -1.0668 H   0  0  0  0  0  0  0  0  0  0  0  0
   -1.1093   -0.1742   -2.1415 H   0  0  0  0  0  0  0  0  0  0  0  0
   -2.7406    0.9991   -1.4809 C   0  0  0  0  0  0  0  0  0  0  0  0
   -3.6682    1.2687   -0.5351 C   0  0  0  0  0  0  0  0  0  0  0  0
   -3.5620    1.0336    0.5183 H   0  0  0  0  0  0  0  0  0  0  0  0
   -4.7507    1.9019   -1.1137 N   0  0  0  0  0  0  0  0  0  0  0  0
   -5.5670    2.1939   -0.5965 H   0  0  0  0  0  0  0  0  0  0  0  0
   -4.5659    2.0880   -2.4672 C   0  0  0  0  0  0  0  0  0  0  0  0
   -5.3430    2.6916   -3.4663 C   0  0  0  0  0  0  0  0  0  0  0  0
   -6.3029    3.1248   -3.2262 H   0  0  0  0  0  0  0  0  0  0  0  0
   -4.8562    2.7233   -4.7842 C   0  0  0  0  0  0  0  0  0  0  0  0
   -5.4422    3.1837   -5.5681 H   0  0  0  0  0  0  0  0  0  0  0  0
   -3.6074    2.1489   -5.0841 C   0  0  0  0  0  0  0  0  0  0  0  0
   -3.2404    2.1681   -6.1010 H   0  0  0  0  0  0  0  0  0  0  0  0
   -2.8357    1.5431   -4.0723 C   0  0  0  0  0  0  0  0  0  0  0  0
   -1.8842    1.0937   -4.3188 H   0  0  0  0  0  0  0  0  0  0  0  0
   -3.2939    1.5004   -2.7377 C   0  0  0  0  0  0  0  0  0  0  0  0
   -1.2663    0.1182    1.2910 C   0  0  0  0  0  0  0  0  0  0  0  0
   -0.1906    0.1931    1.8833 O   0  0  0  0  0  0  0  0  0  0  0  0
   -2.3930    0.6605    1.7722 N   0  0  0  0  0  0  0  0  0  0  0  0
   -3.2451    0.5077    1.2518 H   0  0  0  0  0  0  0  0  0  0  0  0
   -2.4787    1.3954    3.0311 C   0  0  0  0  0  0  0  0  0  0  0  0
   -1.7166    2.1767    3.0539 H   0  0  0  0  0  0  0  0  0  0  0  0
   -3.4649    1.8498    3.1344 H   0  0  0  0  0  0  0  0  0  0  0  0
   -2.3058    0.7133    3.8652 H   0  0  0  0  0  0  0  0  0  0  0  0
  5  6  2  0  0  0  0
  5  7  1  0  0  0  0
  2  3  1  0  0  0  0
  2  4  1  0  0  0  0
  2  5  1  0  0  0  0
  1  2  1  0  0  0  0
 29 30  2  0  0  0  0
 29 31  1  0  0  0  0
 26 27  1  0  0  0  0
 26 28  2  0  0  0  0
 24 25  1  0  0  0  0
 24 26  1  0  0  0  0
 22 23  1  0  0  0  0
 22 24  2  0  0  0  0
 20 21  1  0  0  0  0
 20 22  1  0  0  0  0
 19 20  2  0  0  0  0
 19 28  1  0  0  0  0
 17 18  1  0  0  0  0
 17 19  1  0  0  0  0
 15 16  1  0  0  0  0
 15 17  1  0  0  0  0
 14 15  2  0  0  0  0
 14 28  1  0  0  0  0
 11 12  1  0  0  0  0
 11 13  1  0  0  0  0
 11 14  1  0  0  0  0
  9 10  1  0  0  0  0
  9 11  1  0  0  0  0
  9 29  1  0  0  0  0
  7  8  1  0  0  0  0
  7  9  1  0  0  0  0
 33 34  1  0  0  0  0
 33 35  1  0  0  0  0
 33 36  1  0  0  0  0
 31 32  1  0  0  0  0
 31 33  1  0  0  0  0
M  END
$$$$
default_name
  -OEChem-02102213163D

 36 37  0     1  0  0  0  0  0999 V2000
   -4.0843   -4.0736    1.2944 H   0  0  0  0  0  0  0  0  0  0  0  0
   -4.0342   -3.2816    0.5484 C   0  0  0  0  0  0  0  0  0  0  0  0
   -4.8842   -2.6126    0.6694 H   0  0  0  0  0  0  0  0  0  0  0  0
   -4.0433   -3.7186   -0.4486 H   0  0  0  0  0  0  0  0  0  0  0  0
   -2.7532   -2.5046    0.7444 C   0  0  0  0  0  0  0  0  0  0  0  0
   -1.9803   -2.8096    1.6434 O   0  0  0  0  0  0  0  0  0  0  0  0
   -2.5332   -1.4966   -0.0966 N   0  0  0  0  0  0  0  0  0  0  0  0
   -3.2312   -1.2816   -0.7936 H   0  0  0  0  0  0  0  0  0  0  0  0
   -1.3593   -0.6196   -0.0536 C   0  0  1  0  0  0  0  0  0  0  0  0
   -0.4622   -1.2317   -0.1545 H   0  0  0  0  0  0  0  0  0  0  0  0
   -1.4074    0.3593   -1.2373 C   0  0  0  0  0  0  0  0  0  0  0  0
   -0.6781    1.1533   -1.0668 H   0  0  0  0  0  0  0  0  0  0  0  0
   -1.1093   -0.1742   -2.1415 H   0  0  0  0  0  0  0  0  0  0  0  0
   -2.7406    0.9991   -1.4809 C   0  0  0  0  0  0  0  0  0  0  0  0
   -3.5446    1.5277   -0.5312 C   0  0  0  0  0  0  0  0  0  0  0  0
   -3.3244    1.5334    0.5307 H   0  0  0  0  0  0  0  0  0  0  0  0
   -4.6677    2.0709   -1.1237 N   0  0  0  0  0  0  0  0  0  0  0  0
   -5.4100    2.5176   -0.6054 H   0  0  0  0  0  0  0  0  0  0  0  0
   -4.6350    1.9333   -2.4951 C   0  0  0  0  0  0  0  0  0  0  0  0
   -5.5044    2.3352   -3.5194 C   0  0  0  0  0  0  0  0  0  0  0  0
   -6.4171    2.8638   -3.2867 H   0  0  0  0  0  0  0  0  0  0  0  0
   -5.1722    2.0389   -4.8524 C   0  0  0  0  0  0  0  0  0  0  0  0
   -5.8311    2.3401   -5.6555 H   0  0  0  0  0  0  0  0  0  0  0  0
   -3.9836    1.3434   -5.1405 C   0  0  0  0  0  0  0  0  0  0  0  0
   -3.7360    1.1102   -6.1669 H   0  0  0  0  0  0  0  0  0  0  0  0
   -3.1183    0.9426   -4.1029 C   0  0  0  0  0  0  0  0  0  0  0  0
   -2.2150    0.3973   -4.3371 H   0  0  0  0  0  0  0  0  0  0  0  0
   -3.4204    1.2305   -2.7542 C   0  0  0  0  0  0  0  0  0  0  0  0
   -1.2663    0.1182    1.2910 C   0  0  0  0  0  0  0  0  0  0  0  0
   -0.1906    0.1931    1.8833 O   0  0  0  0  0  0  0  0  0  0  0  0
   -2.3930    0.6605    1.7722 N   0  0  0  0  0  0  0  0  0  0  0  0
   -3.2451    0.5077    1.2518 H   0  0  0  0  0  0  0  0  0  0  0  0
   -2.4787    1.3954    3.0311 C   0  0  0  0  0  0  0  0  0  0  0  0
   -1.7166    2.1767    3.0539 H   0  0  0  0  0  0  0  0  0  0  0  0
   -3.4649    1.8498    3.1344 H   0  0  0  0  0  0  0  0  0  0  0  0
   -2.3058    0.7133    3.8652 H   0  0  0  0  0  0  0  0  0  0  0  0
  5  6  2  0  0  0  0
  5  7  1  0  0  0  0
  2  3  1  0  0  0  0
  2  4  1  0  0  0  0
  2  5  1  0  0  0  0
  1  2  1  0  0  0  0
 29 30  2  0  0  0  0
 29 31  1  0  0  0  0
 26 27  1  0  0  0  0
 26 28  2  0  0  0  0
 24 25  1  0  0  0  0
 24 26  1  0  0  0  0
 22 23  1  0  0  0  0
 22 24  2  0  0  0  0
 20 21  1  0  0  0  0
 20 22  1  0  0  0  0
 19 20  2  0  0  0  0
 19 28  1  0  0  0  0
 17 18  1  0  0  0  0
 17 19  1  0  0  0  0
 15 16  1  0  0  0  0
 15 17  1  0  0  0  0
 14 15  2  0  0  0  0
 14 28  1  0  0  0  0
 11 12  1  0  0  0  0
 11 13  1  0  0  0  0
 11 14  1  0  0  0  0
  9 10  1  0  0  0  0
  9 11  1  0  0  0  0
  9 29  1  0  0  0  0
  7  8  1  0  0  0  0
  7  9  1  0  0  0  0
 33 34  1  0  0  0  0
 33 35  1  0  0  0  0
 33 36  1  0  0  0  0
 31 32  1  0  0  0  0
 31 33  1  0  0  0  0
M  END
$$$$
default_name
  -OEChem-02102213163D

 36 37  0     1  0  0  0  0  0999 V2000
   -4.0843   -4.0736    1.2944 H   0  0  0  0  0  0  0  0  0  0  0  0
   -4.0342   -3.2816    0.5484 C   0  0  0  0  0  0  0  0  0  0  0  0
   -4.8842   -2.6126    0.6694 H   0  0  0  0  0  0  0  0  0  0  0  0
   -4.0433   -3.7186   -0.4486 H   0  0  0  0  0  0  0  0  0  0  0  0
   -2.7532   -2.5046    0.7444 C   0  0  0  0  0  0  0  0  0  0  0  0
   -1.9803   -2.8096    1.6434 O   0  0  0  0  0  0  0  0  0  0  0  0
   -2.5332   -1.4966   -0.0966 N   0  0  0  0  0  0  0  0  0  0  0  0
   -3.2312   -1.2816   -0.7936 H   0  0  0  0  0  0  0  0  0  0  0  0
   -1.3593   -0.6196   -0.0536 C   0  0  1  0  0  0  0  0  0  0  0  0
   -0.4622   -1.2317   -0.1545 H   0  0  0  0  0  0  0  0  0  0  0  0
   -1.4074    0.3593   -1.2373 C   0  0  0  0  0  0  0  0  0  0  0  0
   -0.6781    1.1533   -1.0668 H   0  0  0  0  0  0  0  0  0  0  0  0
   -1.1093   -0.1742   -2.1415 H   0  0  0  0  0  0  0  0  0  0  0  0
   -2.7406    0.9991   -1.4809 C   0  0  0  0  0  0  0  0  0  0  0  0
   -3.4139    1.7736   -0.6008 C   0  0  0  0  0  0  0  0  0  0  0  0
   -3.0725    2.0090    0.4013 H   0  0  0  0  0  0  0  0  0  0  0  0
   -4.5816    2.2285   -1.1814 N   0  0  0  0  0  0  0  0  0  0  0  0
   -5.2458    2.8216   -0.7059 H   0  0  0  0  0  0  0  0  0  0  0  0
   -4.7114    1.7803   -2.4787 C   0  0  0  0  0  0  0  0  0  0  0  0
   -5.6811    1.9854   -3.4708 C   0  0  0  0  0  0  0  0  0  0  0  0
   -6.5450    2.6026   -3.2725 H   0  0  0  0  0  0  0  0  0  0  0  0
   -5.5137    1.3754   -4.7257 C   0  0  0  0  0  0  0  0  0  0  0  0
   -6.2519    1.5214   -5.5027 H   0  0  0  0  0  0  0  0  0  0  0  0
   -4.3871    0.5683   -4.9680 C   0  0  0  0  0  0  0  0  0  0  0  0
   -4.2666    0.0940   -5.9322 H   0  0  0  0  0  0  0  0  0  0  0  0
   -3.4198    0.3675   -3.9629 C   0  0  0  0  0  0  0  0  0  0  0  0
   -2.5660   -0.2657   -4.1579 H   0  0  0  0  0  0  0  0  0  0  0  0
   -3.5558    0.9712   -2.6940 C   0  0  0  0  0  0  0  0  0  0  0  0
   -1.2663    0.1182    1.2910 C   0  0  0  0  0  0  0  0  0  0  0  0
   -0.1906    0.1931    1.8833 O   0  0  0  0  0  0  0  0  0  0  0  0
   -2.3930    0.6605    1.7722 N   0  0  0  0  0  0  0  0  0  0  0  0
   -3.2451    0.5077    1.2518 H   0  0  0  0  0  0  0  0  0  0  0  0
   -2.4787    1.3954    3.0311 C   0  0  0  0  0  0  0  0  0  0  0  0
   -1.7166    2.1767    3.0539 H   0  0  0  0  0  0  0  0  0  0  0  0
   -3.4649    1.8498    3.1344 H   0  0  0  0  0  0  0  0  0  0  0  0
   -2.3058    0.7133    3.8652 H   0  0  0  0  0  0  0  0  0  0  0  0
  5  6  2  0  0  0  0
  5  7  1  0  0  0  0
  2  3  1  0  0  0  0
  2  4  1  0  0  0  0
  2  5  1  0  0  0  0
  1  2  1  0  0  0  0
 29 30  2  0  0  0  0
 29 31  1  0  0  0  0
 26 27  1  0  0  0  0
 26 28  2  0  0  0  0
 24 25  1  0  0  0  0
 24 26  1  0  0  0  0
 22 23  1  0  0  0  0
 22 24  2  0  0  0  0
 20 21  1  0  0  0  0
 20 22  1  0  0  0  0
 19 20  2  0  0  0  0
 19 28  1  0  0  0  0
 17 18  1  0  0  0  0
 17 19  1  0  0  0  0
 15 16  1  0  0  0  0
 15 17  1  0  0  0  0
 14 15  2  0  0  0  0
 14 28  1  0  0  0  0
 11 12  1  0  0  0  0
 11 13  1  0  0  0  0
 11 14  1  0  0  0  0
  9 10  1  0  0  0  0
  9 11  1  0  0  0  0
  9 29  1  0  0  0  0
  7  8  1  0  0  0  0
  7  9  1  0  0  0  0
 33 34  1  0  0  0  0
 33 35  1  0  0  0  0
 33 36  1  0  0  0  0
 31 32  1  0  0  0  0
 31 33  1  0  0  0  0
M  END
$$$$
default_name
  -OEChem-02102213163D

 36 37  0     1  0  0  0  0  0999 V2000
   -4.0843   -4.0736    1.2944 H   0  0  0  0  0  0  0  0  0  0  0  0
   -4.0342   -3.2816    0.5484 C   0  0  0  0  0  0  0  0  0  0  0  0
   -4.8842   -2.6126    0.6694 H   0  0  0  0  0  0  0  0  0  0  0  0
   -4.0433   -3.7186   -0.4486 H   0  0  0  0  0  0  0  0  0  0  0  0
   -2.7532   -2.5046    0.7444 C   0  0  0  0  0  0  0  0  0  0  0  0
   -1.9803   -2.8096    1.6434 O   0  0  0  0  0  0  0  0  0  0  0  0
   -2.5332   -1.4966   -0.0966 N   0  0  0  0  0  0  0  0  0  0  0  0
   -3.2312   -1.2816   -0.7936 H   0  0  0  0  0  0  0  0  0  0  0  0
   -1.3593   -0.6196   -0.0536 C   0  0  1  0  0  0  0  0  0  0  0  0
   -0.4622   -1.2317   -0.1545 H   0  0  0  0  0  0  0  0  0  0  0  0
   -1.4074    0.3593   -1.2373 C   0  0  0  0  0  0  0  0  0  0  0  0
   -0.6781    1.1533   -1.0668 H   0  0  0  0  0  0  0  0  0  0  0  0
   -1.1093   -0.1742   -2.1415 H   0  0  0  0  0  0  0  0  0  0  0  0
   -2.7406    0.9991   -1.4809 C   0  0  0  0  0  0  0  0  0  0  0  0
   -3.2850    1.9896   -0.7391 C   0  0  0  0  0  0  0  0  0  0  0  0
   -2.8235    2.4280    0.1390 H   0  0  0  0  0  0  0  0  0  0  0  0
   -4.4981    2.3637   -1.2830 N   0  0  0  0  0  0  0  0  0  0  0  0
   -5.0854    3.0852   -0.8910 H   0  0  0  0  0  0  0  0  0  0  0  0
   -4.7898    1.6396   -2.4193 C   0  0  0  0  0  0  0  0  0  0  0  0
   -5.8611    1.6662   -3.3238 C   0  0  0  0  0  0  0  0  0  0  0  0
   -6.6781    2.3589   -3.1844 H   0  0  0  0  0  0  0  0  0  0  0  0
   -5.8575    0.7780   -4.4128 C   0  0  0  0  0  0  0  0  0  0  0  0
   -6.6758    0.7835   -5.1201 H   0  0  0  0  0  0  0  0  0  0  0  0
   -4.7904   -0.1238   -4.5783 C   0  0  0  0  0  0  0  0  0  0  0  0
   -4.7958   -0.8112   -5.4129 H   0  0  0  0  0  0  0  0  0  0  0  0
   -3.7199   -0.1432   -3.6619 C   0  0  0  0  0  0  0  0  0  0  0  0
   -2.9130   -0.8501   -3.7933 H   0  0  0  0  0  0  0  0  0  0  0  0
   -3.6908    0.7404   -2.5612 C   0  0  0  0  0  0  0  0  0  0  0  0
   -1.2663    0.1182    1.2910 C   0  0  0  0  0  0  0  0  0  0  0  0
   -0.1906    0.1931    1.8833 O   0  0  0  0  0  0  0  0  0  0  0  0
   -2.3930    0.6605    1.7722 N   0  0  0  0  0  0  0  0  0  0  0  0
   -3.2451    0.5077    1.2518 H   0  0  0  0  0  0  0  0  0  0  0  0
   -2.4787    1.3954    3.0311 C   0  0  0  0  0  0  0  0  0  0  0  0
   -1.7166    2.1767    3.0539 H   0  0  0  0  0  0  0  0  0  0  0  0
   -3.4649    1.8498    3.1344 H   0  0  0  0  0  0  0  0  0  0  0  0
   -2.3058    0.7133    3.8652 H   0  0  0  0  0  0  0  0  0  0  0  0
  5  6  2  0  0  0  0
  5  7  1  0  0  0  0
  2  3  1  0  0  0  0
  2  4  1  0  0  0  0
  2  5  1  0  0  0  0
  1  2  1  0  0  0  0
 29 30  2  0  0  0  0
 29 31  1  0  0  0  0
 26 27  1  0  0  0  0
 26 28  2  0  0  0  0
 24 25  1  0  0  0  0
 24 26  1  0  0  0  0
 22 23  1  0  0  0  0
 22 24  2  0  0  0  0
 20 21  1  0  0  0  0
 20 22  1  0  0  0  0
 19 20  2  0  0  0  0
 19 28  1  0  0  0  0
 17 18  1  0  0  0  0
 17 19  1  0  0  0  0
 15 16  1  0  0  0  0
 15 17  1  0  0  0  0
 14 15  2  0  0  0  0
 14 28  1  0  0  0  0
 11 12  1  0  0  0  0
 11 13  1  0  0  0  0
 11 14  1  0  0  0  0
  9 10  1  0  0  0  0
  9 11  1  0  0  0  0
  9 29  1  0  0  0  0
  7  8  1  0  0  0  0
  7  9  1  0  0  0  0
 33 34  1  0  0  0  0
 33 35  1  0  0  0  0
 33 36  1  0  0  0  0
 31 32  1  0  0  0  0
 31 33  1  0  0  0  0
M  END
$$$$
default_name
  -OEChem-02102213163D

 36 37  0     1  0  0  0  0  0999 V2000
   -4.0843   -4.0736    1.2944 H   0  0  0  0  0  0  0  0  0  0  0  0
   -4.0342   -3.2816    0.5484 C   0  0  0  0  0  0  0  0  0  0  0  0
   -4.8842   -2.6126    0.6694 H   0  0  0  0  0  0  0  0  0  0  0  0
   -4.0433   -3.7186   -0.4486 H   0  0  0  0  0  0  0  0  0  0  0  0
   -2.7532   -2.5046    0.7444 C   0  0  0  0  0  0  0  0  0  0  0  0
   -1.9803   -2.8096    1.6434 O   0  0  0  0  0  0  0  0  0  0  0  0
   -2.5332   -1.4966   -0.0966 N   0  0  0  0  0  0  0  0  0  0  0  0
   -3.2312   -1.2816   -0.7936 H   0  0  0  0  0  0  0  0  0  0  0  0
   -1.3593   -0.6196   -0.0536 C   0  0  1  0  0  0  0  0  0  0  0  0
   -0.4622   -1.2317   -0.1545 H   0  0  0  0  0  0  0  0  0  0  0  0
   -1.4074    0.3593   -1.2373 C   0  0  0  0  0  0  0  0  0  0  0  0
   -0.6781    1.1533   -1.0668 H   0  0  0  0  0  0  0  0  0  0  0  0
   -1.1093   -0.1742   -2.1415 H   0  0  0  0  0  0  0  0  0  0  0  0
   -2.7406    0.9991   -1.4809 C   0  0  0  0  0  0  0  0  0  0  0  0
   -3.1666    2.1610   -0.9366 C   0  0  0  0  0  0  0  0  0  0  0  0
   -2.5944    2.7619   -0.2384 H   0  0  0  0  0  0  0  0  0  0  0  0
   -4.4230    2.4674   -1.4214 N   0  0  0  0  0  0  0  0  0  0  0  0
   -4.9399    3.2905   -1.1483 H   0  0  0  0  0  0  0  0  0  0  0  0
   -4.8649    1.5206   -2.3208 C   0  0  0  0  0  0  0  0  0  0  0  0
   -6.0322    1.3993   -3.0884 C   0  0  0  0  0  0  0  0  0  0  0  0
   -6.8071    2.1494   -3.0285 H   0  0  0  0  0  0  0  0  0  0  0  0
   -6.1802    0.2875   -3.9351 C   0  0  0  0  0  0  0  0  0  0  0  0
   -7.0742    0.1767   -4.5338 H   0  0  0  0  0  0  0  0  0  0  0  0
   -5.1660   -0.6856   -3.9980 C   0  0  0  0  0  0  0  0  0  0  0  0
   -5.2877   -1.5437   -4.6445 H   0  0  0  0  0  0  0  0  0  0  0  0
   -3.9979   -0.5545   -3.2205 C   0  0  0  0  0  0  0  0  0  0  0  0
   -3.2325   -1.3160   -3.2682 H   0  0  0  0  0  0  0  0  0  0  0  0
   -3.8163    0.5537   -2.3649 C   0  0  0  0  0  0  0  0  0  0  0  0
   -1.2663    0.1182    1.2910 C   0  0  0  0  0  0  0  0  0  0  0  0
   -0.1906    0.1931    1.8833 O   0  0  0  0  0  0  0  0  0  0  0  0
   -2.3930    0.6605    1.7722 N   0  0  0  0  0  0  0  0  0  0  0  0
   -3.2451    0.5077    1.2518 H   0  0  0  0  0  0  0  0  0  0  0  0
   -2.4787    1.3954    3.0311 C   0  0  0  0  0  0  0  0  0  0  0  0
   -1.7166    2.1767    3.0539 H   0  0  0  0  0  0  0  0  0  0  0  0
   -3.4649    1.8498    3.1344 H   0  0  0  0  0  0  0  0  0  0  0  0
   -2.3058    0.7133    3.8652 H   0  0  0  0  0  0  0  0  0  0  0  0
  5  6  2  0  0  0  0
  5  7  1  0  0  0  0
  2  3  1  0  0  0  0
  2  4  1  0  0  0  0
  2  5  1  0  0  0  0
  1  2  1  0  0  0  0
 29 30  2  0  0  0  0
 29 31  1  0  0  0  0
 26 27  1  0  0  0  0
 26 28  2  0  0  0  0
 24 25  1  0  0  0  0
 24 26  1  0  0  0  0
 22 23  1  0  0  0  0
 22 24  2  0  0  0  0
 20 21  1  0  0  0  0
 20 22  1  0  0  0  0
 19 20  2  0  0  0  0
 19 28  1  0  0  0  0
 17 18  1  0  0  0  0
 17 19  1  0  0  0  0
 15 16  1  0  0  0  0
 15 17  1  0  0  0  0
 14 15  2  0  0  0  0
 14 28  1  0  0  0  0
 11 12  1  0  0  0  0
 11 13  1  0  0  0  0
 11 14  1  0  0  0  0
  9 10  1  0  0  0  0
  9 11  1  0  0  0  0
  9 29  1  0  0  0  0
  7  8  1  0  0  0  0
  7  9  1  0  0  0  0
 33 34  1  0  0  0  0
 33 35  1  0  0  0  0
 33 36  1  0  0  0  0
 31 32  1  0  0  0  0
 31 33  1  0  0  0  0
M  END
$$$$
default_name
  -OEChem-02102213163D

 36 37  0     1  0  0  0  0  0999 V2000
   -4.0843   -4.0736    1.2944 H   0  0  0  0  0  0  0  0  0  0  0  0
   -4.0342   -3.2816    0.5484 C   0  0  0  0  0  0  0  0  0  0  0  0
   -4.8842   -2.6126    0.6694 H   0  0  0  0  0  0  0  0  0  0  0  0
   -4.0433   -3.7186   -0.4486 H   0  0  0  0  0  0  0  0  0  0  0  0
   -2.7532   -2.5046    0.7444 C   0  0  0  0  0  0  0  0  0  0  0  0
   -1.9803   -2.8096    1.6434 O   0  0  0  0  0  0  0  0  0  0  0  0
   -2.5332   -1.4966   -0.0966 N   0  0  0  0  0  0  0  0  0  0  0  0
   -3.2312   -1.2816   -0.7936 H   0  0  0  0  0  0  0  0  0  0  0  0
   -1.3593   -0.6196   -0.0536 C   0  0  1  0  0  0  0  0  0  0  0  0
   -0.4622   -1.2317   -0.1545 H   0  0  0  0  0  0  0  0  0  0  0  0
   -1.4074    0.3593   -1.2373 C   0  0  0  0  0  0  0  0  0  0  0  0
   -0.6781    1.1533   -1.0668 H   0  0  0  0  0  0  0  0  0  0  0  0
   -1.1093   -0.1742   -2.1415 H   0  0  0  0  0  0  0  0  0  0  0  0
   -2.7406    0.9991   -1.4809 C   0  0  0  0  0  0  0  0  0  0  0  0
   -3.0670    2.2760   -1.1799 C   0  0  0  0  0  0  0  0  0  0  0  0
   -2.4007    2.9879   -0.7051 H   0  0  0  0  0  0  0  0  0  0  0  0
   -4.3614    2.5326   -1.5873 N   0  0  0  0  0  0  0  0  0  0  0  0
   -4.8192    3.4234   -1.4602 H   0  0  0  0  0  0  0  0  0  0  0  0
   -4.9316    1.4315   -2.1900 C   0  0  0  0  0  0  0  0  0  0  0  0
   -6.1826    1.2029   -2.7807 C   0  0  0  0  0  0  0  0  0  0  0  0
   -6.9233    1.9883   -2.8155 H   0  0  0  0  0  0  0  0  0  0  0  0
   -6.4597   -0.0628   -3.3251 C   0  0  0  0  0  0  0  0  0  0  0  0
   -7.4197   -0.2577   -3.7838 H   0  0  0  0  0  0  0  0  0  0  0  0
   -5.4884   -1.0788   -3.2666 C   0  0  0  0  0  0  0  0  0  0  0  0
   -5.7088   -2.0536   -3.6792 H   0  0  0  0  0  0  0  0  0  0  0  0
   -4.2350   -0.8384   -2.6687 C   0  0  0  0  0  0  0  0  0  0  0  0
   -3.5027   -1.6317   -2.6185 H   0  0  0  0  0  0  0  0  0  0  0  0
   -3.9236    0.4238   -2.1184 C   0  0  0  0  0  0  0  0  0  0  0  0
   -1.2663    0.1182    1.2910 C   0  0  0  0  0  0  0  0  0  0  0  0
   -0.1906    0.1931    1.8833 O   0  0  0  0  0  0  0  0  0  0  0  0
   -2.3930    0.6605    1.7722 N   0  0  0  0  0  0  0  0  0  0  0  0
   -3.2451    0.5077    1.2518 H   0  0  0  0  0  0  0  0  0  0  0  0
   -2.4787    1.3954    3.0311 C   0  0  0  0  0  0  0  0  0  0  0  0
   -1.7166    2.1767    3.0539 H   0  0  0  0  0  0  0  0  0  0  0  0
   -3.4649    1.8498    3.1344 H   0  0  0  0  0  0  0  0  0  0  0  0
   -2.3058    0.7133    3.8652 H   0  0  0  0  0  0  0  0  0  0  0  0
  5  6  2  0  0  0  0
  5  7  1  0  0  0  0
  2  3  1  0  0  0  0
  2  4  1  0  0  0  0
  2  5  1  0  0  0  0
  1  2  1  0  0  0  0
 29 30  2  0  0  0  0
 29 31  1  0  0  0  0
 26 27  1  0  0  0  0
 26 28  2  0  0  0  0
 24 25  1  0  0  0  0
 24 26  1  0  0  0  0
 22 23  1  0  0  0  0
 22 24  2  0  0  0  0
 20 21  1  0  0  0  0
 20 22  1  0  0  0  0
 19 20  2  0  0  0  0
 19 28  1  0  0  0  0
 17 18  1  0  0  0  0
 17 19  1  0  0  0  0
 15 16  1  0  0  0  0
 15 17  1  0  0  0  0
 14 15  2  0  0  0  0
 14 28  1  0  0  0  0
 11 12  1  0  0  0  0
 11 13  1  0  0  0  0
 11 14  1  0  0  0  0
  9 10  1  0  0  0  0
  9 11  1  0  0  0  0
  9 29  1  0  0  0  0
  7  8  1  0  0  0  0
  7  9  1  0  0  0  0
 33 34  1  0  0  0  0
 33 35  1  0  0  0  0
 33 36  1  0  0  0  0
 31 32  1  0  0  0  0
 31 33  1  0  0  0  0
M  END
$$$$
default_name
  -OEChem-02102213163D

 36 37  0     1  0  0  0  0  0999 V2000
   -4.0843   -4.0736    1.2944 H   0  0  0  0  0  0  0  0  0  0  0  0
   -4.0342   -3.2816    0.5484 C   0  0  0  0  0  0  0  0  0  0  0  0
   -4.8842   -2.6126    0.6694 H   0  0  0  0  0  0  0  0  0  0  0  0
   -4.0433   -3.7186   -0.4486 H   0  0  0  0  0  0  0  0  0  0  0  0
   -2.7532   -2.5046    0.7444 C   0  0  0  0  0  0  0  0  0  0  0  0
   -1.9803   -2.8096    1.6434 O   0  0  0  0  0  0  0  0  0  0  0  0
   -2.5332   -1.4966   -0.0966 N   0  0  0  0  0  0  0  0  0  0  0  0
   -3.2312   -1.2816   -0.7936 H   0  0  0  0  0  0  0  0  0  0  0  0
   -1.3593   -0.6196   -0.0536 C   0  0  1  0  0  0  0  0  0  0  0  0
   -0.4622   -1.2317   -0.1545 H   0  0  0  0  0  0  0  0  0  0  0  0
   -1.4074    0.3593   -1.2373 C   0  0  0  0  0  0  0  0  0  0  0  0
   -0.6781    1.1533   -1.0668 H   0  0  0  0  0  0  0  0  0  0  0  0
   -1.1093   -0.1742   -2.1415 H   0  0  0  0  0  0  0  0  0  0  0  0
   -2.7406    0.9991   -1.4809 C   0  0  0  0  0  0  0  0  0  0  0  0
   -2.9927    2.3270   -1.4525 C   0  0  0  0  0  0  0  0  0  0  0  0
   -2.2556    3.0905   -1.2293 H   0  0  0  0  0  0  0  0  0  0  0  0
   -4.3175    2.5548   -1.7694 N   0  0  0  0  0  0  0  0  0  0  0  0
   -4.7314    3.4749   -1.8053 H   0  0  0  0  0  0  0  0  0  0  0  0
   -4.9852    1.3784   -2.0358 C   0  0  0  0  0  0  0  0  0  0  0  0
   -6.3023    1.0904   -2.4217 C   0  0  0  0  0  0  0  0  0  0  0  0
   -7.0188    1.8867   -2.5598 H   0  0  0  0  0  0  0  0  0  0  0  0
   -6.6770   -0.2488   -2.6243 C   0  0  0  0  0  0  0  0  0  0  0  0
   -7.6888   -0.4901   -2.9211 H   0  0  0  0  0  0  0  0  0  0  0  0
   -5.7354   -1.2767   -2.4339 C   0  0  0  0  0  0  0  0  0  0  0  0
   -6.0303   -2.3062   -2.5828 H   0  0  0  0  0  0  0  0  0  0  0  0
   -4.4150   -0.9757   -2.0441 C   0  0  0  0  0  0  0  0  0  0  0  0
   -3.7052   -1.7758   -1.8884 H   0  0  0  0  0  0  0  0  0  0  0  0
   -4.0056    0.3596   -1.8386 C   0  0  0  0  0  0  0  0  0  0  0  0
   -1.2663    0.1182    1.2910 C   0  0  0  0  0  0  0  0  0  0  0  0
   -0.1906    0.1931    1.8833 O   0  0  0  0  0  0  0  0  0  0  0  0
   -2.3930    0.6605    1.7722 N   0  0  0  0  0  0  0  0  0  0  0  0
   -3.2451    0.5077    1.2518 H   0  0  0  0  0  0  0  0  0  0  0  0
   -2.4787    1.3954    3.0311 C   0  0  0  0  0  0  0  0  0  0  0  0
   -1.7166    2.1767    3.0539 H   0  0  0  0  0  0  0  0  0  0  0  0
   -3.4649    1.8498    3.1344 H   0  0  0  0  0  0  0  0  0  0  0  0
   -2.3058    0.7133    3.8652 H   0  0  0  0  0  0  0  0  0  0  0  0
  5  6  2  0  0  0  0
  5  7  1  0  0  0  0
  2  3  1  0  0  0  0
  2  4  1  0  0  0  0
  2  5  1  0  0  0  0
  1  2  1  0  0  0  0
 29 30  2  0  0  0  0
 29 31  1  0  0  0  0
 26 27  1  0  0  0  0
 26 28  2  0  0  0  0
 24 25  1  0  0  0  0
 24 26  1  0  0  0  0
 22 23  1  0  0  0  0
 22 24  2  0  0  0  0
 20 21  1  0  0  0  0
 20 22  1  0  0  0  0
 19 20  2  0  0  0  0
 19 28  1  0  0  0  0
 17 18  1  0  0  0  0
 17 19  1  0  0  0  0
 15 16  1  0  0  0  0
 15 17  1  0  0  0  0
 14 15  2  0  0  0  0
 14 28  1  0  0  0  0
 11 12  1  0  0  0  0
 11 13  1  0  0  0  0
 11 14  1  0  0  0  0
  9 10  1  0  0  0  0
  9 11  1  0  0  0  0
  9 29  1  0  0  0  0
  7  8  1  0  0  0  0
  7  9  1  0  0  0  0
 33 34  1  0  0  0  0
 33 35  1  0  0  0  0
 33 36  1  0  0  0  0
 31 32  1  0  0  0  0
 31 33  1  0  0  0  0
M  END
$$$$
default_name
  -OEChem-02102213163D

 36 37  0     1  0  0  0  0  0999 V2000
   -4.0843   -4.0736    1.2944 H   0  0  0  0  0  0  0  0  0  0  0  0
   -4.0342   -3.2816    0.5484 C   0  0  0  0  0  0  0  0  0  0  0  0
   -4.8842   -2.6126    0.6694 H   0  0  0  0  0  0  0  0  0  0  0  0
   -4.0433   -3.7186   -0.4486 H   0  0  0  0  0  0  0  0  0  0  0  0
   -2.7532   -2.5046    0.7444 C   0  0  0  0  0  0  0  0  0  0  0  0
   -1.9803   -2.8096    1.6434 O   0  0  0  0  0  0  0  0  0  0  0  0
   -2.5332   -1.4966   -0.0966 N   0  0  0  0  0  0  0  0  0  0  0  0
   -3.2312   -1.2816   -0.7936 H   0  0  0  0  0  0  0  0  0  0  0  0
   -1.3593   -0.6196   -0.0536 C   0  0  1  0  0  0  0  0  0  0  0  0
   -0.4622   -1.2317   -0.1545 H   0  0  0  0  0  0  0  0  0  0  0  0
   -1.4074    0.3593   -1.2373 C   0  0  0  0  0  0  0  0  0  0  0  0
   -0.6781    1.1533   -1.0668 H   0  0  0  0  0  0  0  0  0  0  0  0
   -1.1093   -0.1742   -2.1415 H   0  0  0  0  0  0  0  0  0  0  0  0
   -2.7406    0.9991   -1.4809 C   0  0  0  0  0  0  0  0  0  0  0  0
   -2.9490    2.3103   -1.7357 C   0  0  0  0  0  0  0  0  0  0  0  0
   -2.1691    3.0629   -1.7753 H   0  0  0  0  0  0  0  0  0  0  0  0
   -4.2943    2.5324   -1.9552 N   0  0  0  0  0  0  0  0  0  0  0  0
   -4.6826    3.4415   -2.1603 H   0  0  0  0  0  0  0  0  0  0  0  0
   -5.0223    1.3648   -1.8686 C   0  0  0  0  0  0  0  0  0  0  0  0
   -6.3829    1.0693   -2.0357 C   0  0  0  0  0  0  0  0  0  0  0  0
   -7.0870    1.8514   -2.2788 H   0  0  0  0  0  0  0  0  0  0  0  0
   -6.8174   -0.2581   -1.8805 C   0  0  0  0  0  0  0  0  0  0  0  0
   -7.8632   -0.5046   -2.0046 H   0  0  0  0  0  0  0  0  0  0  0  0
   -5.8904   -1.2657   -1.5568 C   0  0  0  0  0  0  0  0  0  0  0  0
   -6.2304   -2.2843   -1.4302 H   0  0  0  0  0  0  0  0  0  0  0  0
   -4.5256   -0.9569   -1.3893 C   0  0  0  0  0  0  0  0  0  0  0  0
   -3.8262   -1.7382   -1.1276 H   0  0  0  0  0  0  0  0  0  0  0  0
   -4.0565    0.3655   -1.5444 C   0  0  0  0  0  0  0  0  0  0  0  0
   -1.2663    0.1182    1.2910 C   0  0  0  0  0  0  0  0  0  0  0  0
   -0.1906    0.1931    1.8833 O   0  0  0  0  0  0  0  0  0  0  0  0
   -2.3930    0.6605    1.7722 N   0  0  0  0  0  0  0  0  0  0  0  0
   -3.2451    0.5077    1.2518 H   0  0  0  0  0  0  0  0  0  0  0  0
   -2.4787    1.3954    3.0311 C   0  0  0  0  0  0  0  0  0  0  0  0
   -1.7166    2.1767    3.0539 H   0  0  0  0  0  0  0  0  0  0  0  0
   -3.4649    1.8498    3.1344 H   0  0  0  0  0  0  0  0  0  0  0  0
   -2.3058    0.7133    3.8652 H   0  0  0  0  0  0  0  0  0  0  0  0
  5  6  2  0  0  0  0
  5  7  1  0  0  0  0
  2  3  1  0  0  0  0
  2  4  1  0  0  0  0
  2  5  1  0  0  0  0
  1  2  1  0  0  0  0
 29 30  2  0  0  0  0
 29 31  1  0  0  0  0
 26 27  1  0  0  0  0
 26 28  2  0  0  0  0
 24 25  1  0  0  0  0
 24 26  1  0  0  0  0
 22 23  1  0  0  0  0
 22 24  2  0  0  0  0
 20 21  1  0  0  0  0
 20 22  1  0  0  0  0
 19 20  2  0  0  0  0
 19 28  1  0  0  0  0
 17 18  1  0  0  0  0
 17 19  1  0  0  0  0
 15 16  1  0  0  0  0
 15 17  1  0  0  0  0
 14 15  2  0  0  0  0
 14 28  1  0  0  0  0
 11 12  1  0  0  0  0
 11 13  1  0  0  0  0
 11 14  1  0  0  0  0
  9 10  1  0  0  0  0
  9 11  1  0  0  0  0
  9 29  1  0  0  0  0
  7  8  1  0  0  0  0
  7  9  1  0  0  0  0
 33 34  1  0  0  0  0
 33 35  1  0  0  0  0
 33 36  1  0  0  0  0
 31 32  1  0  0  0  0
 31 33  1  0  0  0  0
M  END
$$$$
default_name
  -OEChem-02102213163D

 36 37  0     1  0  0  0  0  0999 V2000
   -4.0843   -4.0736    1.2944 H   0  0  0  0  0  0  0  0  0  0  0  0
   -4.0342   -3.2816    0.5484 C   0  0  0  0  0  0  0  0  0  0  0  0
   -4.8842   -2.6126    0.6694 H   0  0  0  0  0  0  0  0  0  0  0  0
   -4.0433   -3.7186   -0.4486 H   0  0  0  0  0  0  0  0  0  0  0  0
   -2.7532   -2.5046    0.7444 C   0  0  0  0  0  0  0  0  0  0  0  0
   -1.9803   -2.8096    1.6434 O   0  0  0  0  0  0  0  0  0  0  0  0
   -2.5332   -1.4966   -0.0966 N   0  0  0  0  0  0  0  0  0  0  0  0
   -3.2312   -1.2816   -0.7936 H   0  0  0  0  0  0  0  0  0  0  0  0
   -1.3593   -0.6196   -0.0536 C   0  0  1  0  0  0  0  0  0  0  0  0
   -0.4622   -1.2317   -0.1545 H   0  0  0  0  0  0  0  0  0  0  0  0
   -1.4074    0.3593   -1.2373 C   0  0  0  0  0  0  0  0  0  0  0  0
   -0.6781    1.1533   -1.0668 H   0  0  0  0  0  0  0  0  0  0  0  0
   -1.1093   -0.1742   -2.1415 H   0  0  0  0  0  0  0  0  0  0  0  0
   -2.7406    0.9991   -1.4809 C   0  0  0  0  0  0  0  0  0  0  0  0
   -2.9387    2.2272   -2.0102 C   0  0  0  0  0  0  0  0  0  0  0  0
   -2.1471    2.9069   -2.3059 H   0  0  0  0  0  0  0  0  0  0  0  0
   -4.2934    2.4671   -2.1321 N   0  0  0  0  0  0  0  0  0  0  0  0
   -4.6761    3.3254   -2.5009 H   0  0  0  0  0  0  0  0  0  0  0  0
   -5.0402    1.3918   -1.7000 C   0  0  0  0  0  0  0  0  0  0  0  0
   -6.4189    1.1413   -1.6491 C   0  0  0  0  0  0  0  0  0  0  0  0
   -7.1234    1.8849   -1.9918 H   0  0  0  0  0  0  0  0  0  0  0  0
   -6.8711   -0.0899   -1.1445 C   0  0  0  0  0  0  0  0  0  0  0  0
   -7.9310   -0.3003   -1.0967 H   0  0  0  0  0  0  0  0  0  0  0  0
   -5.9428   -1.0467   -0.6950 C   0  0  0  0  0  0  0  0  0  0  0  0
   -6.2953   -1.9893   -0.2997 H   0  0  0  0  0  0  0  0  0  0  0  0
   -4.5593   -0.7834   -0.7489 C   0  0  0  0  0  0  0  0  0  0  0  0
   -3.8574   -1.5217   -0.3880 H   0  0  0  0  0  0  0  0  0  0  0  0
   -4.0729    0.4411   -1.2560 C   0  0  0  0  0  0  0  0  0  0  0  0
   -1.2663    0.1182    1.2910 C   0  0  0  0  0  0  0  0  0  0  0  0
   -0.1906    0.1931    1.8833 O   0  0  0  0  0  0  0  0  0  0  0  0
   -2.3930    0.6605    1.7722 N   0  0  0  0  0  0  0  0  0  0  0  0
   -3.2451    0.5077    1.2518 H   0  0  0  0  0  0  0  0  0  0  0  0
   -2.4787    1.3954    3.0311 C   0  0  0  0  0  0  0  0  0  0  0  0
   -1.7166    2.1767    3.0539 H   0  0  0  0  0  0  0  0  0  0  0  0
   -3.4649    1.8498    3.1344 H   0  0  0  0  0  0  0  0  0  0  0  0
   -2.3058    0.7133    3.8652 H   0  0  0  0  0  0  0  0  0  0  0  0
  5  6  2  0  0  0  0
  5  7  1  0  0  0  0
  2  3  1  0  0  0  0
  2  4  1  0  0  0  0
  2  5  1  0  0  0  0
  1  2  1  0  0  0  0
 29 30  2  0  0  0  0
 29 31  1  0  0  0  0
 26 27  1  0  0  0  0
 26 28  2  0  0  0  0
 24 25  1  0  0  0  0
 24 26  1  0  0  0  0
 22 23  1  0  0  0  0
 22 24  2  0  0  0  0
 20 21  1  0  0  0  0
 20 22  1  0  0  0  0
 19 20  2  0  0  0  0
 19 28  1  0  0  0  0
 17 18  1  0  0  0  0
 17 19  1  0  0  0  0
 15 16  1  0  0  0  0
 15 17  1  0  0  0  0
 14 15  2  0  0  0  0
 14 28  1  0  0  0  0
 11 12  1  0  0  0  0
 11 13  1  0  0  0  0
 11 14  1  0  0  0  0
  9 10  1  0  0  0  0
  9 11  1  0  0  0  0
  9 29  1  0  0  0  0
  7  8  1  0  0  0  0
  7  9  1  0  0  0  0
 33 34  1  0  0  0  0
 33 35  1  0  0  0  0
 33 36  1  0  0  0  0
 31 32  1  0  0  0  0
 31 33  1  0  0  0  0
M  END
$$$$
default_name
  -OEChem-02102213163D

 36 37  0     1  0  0  0  0  0999 V2000
   -4.0843   -4.0736    1.2944 H   0  0  0  0  0  0  0  0  0  0  0  0
   -4.0342   -3.2816    0.5484 C   0  0  0  0  0  0  0  0  0  0  0  0
   -4.8842   -2.6126    0.6694 H   0  0  0  0  0  0  0  0  0  0  0  0
   -4.0433   -3.7186   -0.4486 H   0  0  0  0  0  0  0  0  0  0  0  0
   -2.7532   -2.5046    0.7444 C   0  0  0  0  0  0  0  0  0  0  0  0
   -1.9803   -2.8096    1.6434 O   0  0  0  0  0  0  0  0  0  0  0  0
   -2.5332   -1.4966   -0.0966 N   0  0  0  0  0  0  0  0  0  0  0  0
   -3.2312   -1.2816   -0.7936 H   0  0  0  0  0  0  0  0  0  0  0  0
   -1.3593   -0.6196   -0.0536 C   0  0  1  0  0  0  0  0  0  0  0  0
   -0.4622   -1.2317   -0.1545 H   0  0  0  0  0  0  0  0  0  0  0  0
   -1.4074    0.3593   -1.2373 C   0  0  0  0  0  0  0  0  0  0  0  0
   -0.6781    1.1533   -1.0668 H   0  0  0  0  0  0  0  0  0  0  0  0
   -1.1093   -0.1742   -2.1415 H   0  0  0  0  0  0  0  0  0  0  0  0
   -2.7406    0.9991   -1.4809 C   0  0  0  0  0  0  0  0  0  0  0  0
   -2.9626    2.0832   -2.2574 C   0  0  0  0  0  0  0  0  0  0  0  0
   -2.1909    2.6331   -2.7849 H   0  0  0  0  0  0  0  0  0  0  0  0
   -4.3147    2.3632   -2.2881 N   0  0  0  0  0  0  0  0  0  0  0  0
   -4.7123    3.1346   -2.8038 H   0  0  0  0  0  0  0  0  0  0  0  0
   -5.0377    1.4574   -1.5413 C   0  0  0  0  0  0  0  0  0  0  0  0
   -6.4081    1.3013   -1.2883 C   0  0  0  0  0  0  0  0  0  0  0  0
   -7.1254    1.9849   -1.7182 H   0  0  0  0  0  0  0  0  0  0  0  0
   -6.8347    0.2443   -0.4663 C   0  0  0  0  0  0  0  0  0  0  0  0
   -7.8876    0.1089   -0.2593 H   0  0  0  0  0  0  0  0  0  0  0  0
   -5.8889   -0.6345    0.0928 C   0  0  0  0  0  0  0  0  0  0  0  0
   -6.2208   -1.4413    0.7315 H   0  0  0  0  0  0  0  0  0  0  0  0
   -4.5138   -0.4669   -0.1666 C   0  0  0  0  0  0  0  0  0  0  0  0
   -3.7968   -1.1410    0.2800 H   0  0  0  0  0  0  0  0  0  0  0  0
   -4.0537    0.5811   -0.9931 C   0  0  0  0  0  0  0  0  0  0  0  0
   -1.2663    0.1182    1.2910 C   0  0  0  0  0  0  0  0  0  0  0  0
   -0.1906    0.1931    1.8833 O   0  0  0  0  0  0  0  0  0  0  0  0
   -2.3930    0.6605    1.7722 N   0  0  0  0  0  0  0  0  0  0  0  0
   -3.2451    0.5077    1.2518 H   0  0  0  0  0  0  0  0  0  0  0  0
   -2.4787    1.3954    3.0311 C   0  0  0  0  0  0  0  0  0  0  0  0
   -1.7166    2.1767    3.0539 H   0  0  0  0  0  0  0  0  0  0  0  0
   -3.4649    1.8498    3.1344 H   0  0  0  0  0  0  0  0  0  0  0  0
   -2.3058    0.7133    3.8652 H   0  0  0  0  0  0  0  0  0  0  0  0
  5  6  2  0  0  0  0
  5  7  1  0  0  0  0
  2  3  1  0  0  0  0
  2  4  1  0  0  0  0
  2  5  1  0  0  0  0
  1  2  1  0  0  0  0
 29 30  2  0  0  0  0
 29 31  1  0  0  0  0
 26 27  1  0  0  0  0
 26 28  2  0  0  0  0
 24 25  1  0  0  0  0
 24 26  1  0  0  0  0
 22 23  1  0  0  0  0
 22 24  2  0  0  0  0
 20 21  1  0  0  0  0
 20 22  1  0  0  0  0
 19 20  2  0  0  0  0
 19 28  1  0  0  0  0
 17 18  1  0  0  0  0
 17 19  1  0  0  0  0
 15 16  1  0  0  0  0
 15 17  1  0  0  0  0
 14 15  2  0  0  0  0
 14 28  1  0  0  0  0
 11 12  1  0  0  0  0
 11 13  1  0  0  0  0
 11 14  1  0  0  0  0
  9 10  1  0  0  0  0
  9 11  1  0  0  0  0
  9 29  1  0  0  0  0
  7  8  1  0  0  0  0
  7  9  1  0  0  0  0
 33 34  1  0  0  0  0
 33 35  1  0  0  0  0
 33 36  1  0  0  0  0
 31 32  1  0  0  0  0
 31 33  1  0  0  0  0
M  END
$$$$
default_name
  -OEChem-02102213163D

 36 37  0     1  0  0  0  0  0999 V2000
   -4.0843   -4.0736    1.2944 H   0  0  0  0  0  0  0  0  0  0  0  0
   -4.0342   -3.2816    0.5484 C   0  0  0  0  0  0  0  0  0  0  0  0
   -4.8842   -2.6126    0.6694 H   0  0  0  0  0  0  0  0  0  0  0  0
   -4.0433   -3.7186   -0.4486 H   0  0  0  0  0  0  0  0  0  0  0  0
   -2.7532   -2.5046    0.7444 C   0  0  0  0  0  0  0  0  0  0  0  0
   -1.9803   -2.8096    1.6434 O   0  0  0  0  0  0  0  0  0  0  0  0
   -2.5332   -1.4966   -0.0966 N   0  0  0  0  0  0  0  0  0  0  0  0
   -3.2312   -1.2816   -0.7936 H   0  0  0  0  0  0  0  0  0  0  0  0
   -1.3593   -0.6196   -0.0536 C   0  0  1  0  0  0  0  0  0  0  0  0
   -0.4622   -1.2317   -0.1545 H   0  0  0  0  0  0  0  0  0  0  0  0
   -1.4074    0.3593   -1.2373 C   0  0  0  0  0  0  0  0  0  0  0  0
   -0.5169    0.9899   -1.2085 H   0  0  0  0  0  0  0  0  0  0  0  0
   -1.3753   -0.2152   -2.1646 H   0  0  0  0  0  0  0  0  0  0  0  0
   -2.6084    1.2549   -1.2747 C   0  0  0  0  0  0  0  0  0  0  0  0
   -2.8631    2.1903   -2.2170 C   0  0  0  0  0  0  0  0  0  0  0  0
   -2.2117    2.4165   -3.0539 H   0  0  0  0  0  0  0  0  0  0  0  0
   -4.0801    2.7901   -1.9586 N   0  0  0  0  0  0  0  0  0  0  0  0
   -4.4726    3.5230   -2.5313 H   0  0  0  0  0  0  0  0  0  0  0  0
   -4.6817    2.2560   -0.8390 C   0  0  0  0  0  0  0  0  0  0  0  0
   -5.9054    2.5012   -0.1997 C   0  0  0  0  0  0  0  0  0  0  0  0
   -6.5844    3.2477   -0.5851 H   0  0  0  0  0  0  0  0  0  0  0  0
   -6.2351    1.7635    0.9501 C   0  0  0  0  0  0  0  0  0  0  0  0
   -7.1741    1.9398    1.4571 H   0  0  0  0  0  0  0  0  0  0  0  0
   -5.3382    0.7993    1.4452 C   0  0  0  0  0  0  0  0  0  0  0  0
   -5.5921    0.2398    2.3350 H   0  0  0  0  0  0  0  0  0  0  0  0
   -4.1100    0.5625    0.7957 C   0  0  0  0  0  0  0  0  0  0  0  0
   -3.4244   -0.1717    1.1942 H   0  0  0  0  0  0  0  0  0  0  0  0
   -3.7523    1.2824   -0.3648 C   0  0  0  0  0  0  0  0  0  0  0  0
   -1.2663    0.1182    1.2910 C   0  0  0  0  0  0  0  0  0  0  0  0
   -0.1906    0.1931    1.8833 O   0  0  0  0  0  0  0  0  0  0  0  0
   -2.3930    0.6605    1.7722 N   0  0  0  0  0  0  0  0  0  0  0  0
   -3.2451    0.5077    1.2518 H   0  0  0  0  0  0  0  0  0  0  0  0
   -2.4787    1.3954    3.0311 C   0  0  0  0  0  0  0  0  0  0  0  0
   -1.7166    2.1767    3.0539 H   0  0  0  0  0  0  0  0  0  0  0  0
   -3.4649    1.8498    3.1344 H   0  0  0  0  0  0  0  0  0  0  0  0
   -2.3058    0.7133    3.8652 H   0  0  0  0  0  0  0  0  0  0  0  0
  5  6  2  0  0  0  0
  5  7  1  0  0  0  0
  2  3  1  0  0  0  0
  2  4  1  0  0  0  0
  2  5  1  0  0  0  0
  1  2  1  0  0  0  0
 29 30  2  0  0  0  0
 29 31  1  0  0  0  0
 26 27  1  0  0  0  0
 26 28  2  0  0  0  0
 24 25  1  0  0  0  0
 24 26  1  0  0  0  0
 22 23  1  0  0  0  0
 22 24  2  0  0  0  0
 20 21  1  0  0  0  0
 20 22  1  0  0  0  0
 19 20  2  0  0  0  0
 19 28  1  0  0  0  0
 17 18  1  0  0  0  0
 17 19  1  0  0  0  0
 15 16  1  0  0  0  0
 15 17  1  0  0  0  0
 14 15  2  0  0  0  0
 14 28  1  0  0  0  0
 11 12  1  0  0  0  0
 11 13  1  0  0  0  0
 11 14  1  0  0  0  0
  9 10  1  0  0  0  0
  9 11  1  0  0  0  0
  9 29  1  0  0  0  0
  7  8  1  0  0  0  0
  7  9  1  0  0  0  0
 33 34  1  0  0  0  0
 33 35  1  0  0  0  0
 33 36  1  0  0  0  0
 31 32  1  0  0  0  0
 31 33  1  0  0  0  0
M  END
$$$$
default_name
  -OEChem-02102213163D

 36 37  0     1  0  0  0  0  0999 V2000
   -4.0843   -4.0736    1.2944 H   0  0  0  0  0  0  0  0  0  0  0  0
   -4.0342   -3.2816    0.5484 C   0  0  0  0  0  0  0  0  0  0  0  0
   -4.8842   -2.6126    0.6694 H   0  0  0  0  0  0  0  0  0  0  0  0
   -4.0433   -3.7186   -0.4486 H   0  0  0  0  0  0  0  0  0  0  0  0
   -2.7532   -2.5046    0.7444 C   0  0  0  0  0  0  0  0  0  0  0  0
   -1.9803   -2.8096    1.6434 O   0  0  0  0  0  0  0  0  0  0  0  0
   -2.5332   -1.4966   -0.0966 N   0  0  0  0  0  0  0  0  0  0  0  0
   -3.2312   -1.2816   -0.7936 H   0  0  0  0  0  0  0  0  0  0  0  0
   -1.3593   -0.6196   -0.0536 C   0  0  1  0  0  0  0  0  0  0  0  0
   -0.4622   -1.2317   -0.1545 H   0  0  0  0  0  0  0  0  0  0  0  0
   -1.4074    0.3593   -1.2373 C   0  0  0  0  0  0  0  0  0  0  0  0
   -0.5169    0.9899   -1.2085 H   0  0  0  0  0  0  0  0  0  0  0  0
   -1.3753   -0.2152   -2.1646 H   0  0  0  0  0  0  0  0  0  0  0  0
   -2.6084    1.2549   -1.2747 C   0  0  0  0  0  0  0  0  0  0  0  0
   -3.0156    1.9806   -2.3401 C   0  0  0  0  0  0  0  0  0  0  0  0
   -2.5044    2.0139   -3.2960 H   0  0  0  0  0  0  0  0  0  0  0  0
   -4.1835    2.6485   -2.0279 N   0  0  0  0  0  0  0  0  0  0  0  0
   -4.6674    3.2557   -2.6731 H   0  0  0  0  0  0  0  0  0  0  0  0
   -4.5986    2.3714   -0.7427 C   0  0  0  0  0  0  0  0  0  0  0  0
   -5.7106    2.7714    0.0122 C   0  0  0  0  0  0  0  0  0  0  0  0
   -6.4485    3.4373   -0.4107 H   0  0  0  0  0  0  0  0  0  0  0  0
   -5.8503    2.2953    1.3270 C   0  0  0  0  0  0  0  0  0  0  0  0
   -6.7009    2.5940    1.9247 H   0  0  0  0  0  0  0  0  0  0  0  0
   -4.8779    1.4342    1.8677 C   0  0  0  0  0  0  0  0  0  0  0  0
   -4.9850    1.0769    2.8826 H   0  0  0  0  0  0  0  0  0  0  0  0
   -3.7633    1.0403    1.1004 C   0  0  0  0  0  0  0  0  0  0  0  0
   -3.0168    0.3890    1.5324 H   0  0  0  0  0  0  0  0  0  0  0  0
   -3.5973    1.4961   -0.2254 C   0  0  0  0  0  0  0  0  0  0  0  0
   -1.2663    0.1182    1.2910 C   0  0  0  0  0  0  0  0  0  0  0  0
   -0.1906    0.1931    1.8833 O   0  0  0  0  0  0  0  0  0  0  0  0
   -2.3930    0.6605    1.7722 N   0  0  0  0  0  0  0  0  0  0  0  0
   -3.2451    0.5077    1.2518 H   0  0  0  0  0  0  0  0  0  0  0  0
   -2.4787    1.3954    3.0311 C   0  0  0  0  0  0  0  0  0  0  0  0
   -1.7166    2.1767    3.0539 H   0  0  0  0  0  0  0  0  0  0  0  0
   -3.4649    1.8498    3.1344 H   0  0  0  0  0  0  0  0  0  0  0  0
   -2.3058    0.7133    3.8652 H   0  0  0  0  0  0  0  0  0  0  0  0
  5  6  2  0  0  0  0
  5  7  1  0  0  0  0
  2  3  1  0  0  0  0
  2  4  1  0  0  0  0
  2  5  1  0  0  0  0
  1  2  1  0  0  0  0
 29 30  2  0  0  0  0
 29 31  1  0  0  0  0
 26 27  1  0  0  0  0
 26 28  2  0  0  0  0
 24 25  1  0  0  0  0
 24 26  1  0  0  0  0
 22 23  1  0  0  0  0
 22 24  2  0  0  0  0
 20 21  1  0  0  0  0
 20 22  1  0  0  0  0
 19 20  2  0  0  0  0
 19 28  1  0  0  0  0
 17 18  1  0  0  0  0
 17 19  1  0  0  0  0
 15 16  1  0  0  0  0
 15 17  1  0  0  0  0
 14 15  2  0  0  0  0
 14 28  1  0  0  0  0
 11 12  1  0  0  0  0
 11 13  1  0  0  0  0
 11 14  1  0  0  0  0
  9 10  1  0  0  0  0
  9 11  1  0  0  0  0
  9 29  1  0  0  0  0
  7  8  1  0  0  0  0
  7  9  1  0  0  0  0
 33 34  1  0  0  0  0
 33 35  1  0  0  0  0
 33 36  1  0  0  0  0
 31 32  1  0  0  0  0
 31 33  1  0  0  0  0
M  END
$$$$
default_name
  -OEChem-02102213163D

 36 37  0     1  0  0  0  0  0999 V2000
   -4.0843   -4.0736    1.2944 H   0  0  0  0  0  0  0  0  0  0  0  0
   -4.0342   -3.2816    0.5484 C   0  0  0  0  0  0  0  0  0  0  0  0
   -4.8842   -2.6126    0.6694 H   0  0  0  0  0  0  0  0  0  0  0  0
   -4.0433   -3.7186   -0.4486 H   0  0  0  0  0  0  0  0  0  0  0  0
   -2.7532   -2.5046    0.7444 C   0  0  0  0  0  0  0  0  0  0  0  0
   -1.9803   -2.8096    1.6434 O   0  0  0  0  0  0  0  0  0  0  0  0
   -2.5332   -1.4966   -0.0966 N   0  0  0  0  0  0  0  0  0  0  0  0
   -3.2312   -1.2816   -0.7936 H   0  0  0  0  0  0  0  0  0  0  0  0
   -1.3593   -0.6196   -0.0536 C   0  0  1  0  0  0  0  0  0  0  0  0
   -0.4622   -1.2317   -0.1545 H   0  0  0  0  0  0  0  0  0  0  0  0
   -1.4074    0.3593   -1.2373 C   0  0  0  0  0  0  0  0  0  0  0  0
   -0.5169    0.9899   -1.2085 H   0  0  0  0  0  0  0  0  0  0  0  0
   -1.3753   -0.2152   -2.1646 H   0  0  0  0  0  0  0  0  0  0  0  0
   -2.6084    1.2549   -1.2747 C   0  0  0  0  0  0  0  0  0  0  0  0
   -3.1834    1.7535   -2.3920 C   0  0  0  0  0  0  0  0  0  0  0  0
   -2.8271    1.5766   -3.4010 H   0  0  0  0  0  0  0  0  0  0  0  0
   -4.2951    2.4979   -2.0495 N   0  0  0  0  0  0  0  0  0  0  0  0
   -4.8793    2.9694   -2.7244 H   0  0  0  0  0  0  0  0  0  0  0  0
   -4.5027    2.5023   -0.6865 C   0  0  0  0  0  0  0  0  0  0  0  0
   -5.4878    3.0751    0.1307 C   0  0  0  0  0  0  0  0  0  0  0  0
   -6.2890    3.6557   -0.3026 H   0  0  0  0  0  0  0  0  0  0  0  0
   -5.4168    2.8847    1.5213 C   0  0  0  0  0  0  0  0  0  0  0  0
   -6.1672    3.3198    2.1675 H   0  0  0  0  0  0  0  0  0  0  0  0
   -4.3638    2.1321    2.0729 C   0  0  0  0  0  0  0  0  0  0  0  0
   -4.3084    1.9951    3.1440 H   0  0  0  0  0  0  0  0  0  0  0  0
   -3.3781    1.5627    1.2420 C   0  0  0  0  0  0  0  0  0  0  0  0
   -2.5672    0.9981    1.6798 H   0  0  0  0  0  0  0  0  0  0  0  0
   -3.4246    1.7304   -0.1590 C   0  0  0  0  0  0  0  0  0  0  0  0
   -1.2663    0.1182    1.2910 C   0  0  0  0  0  0  0  0  0  0  0  0
   -0.1906    0.1931    1.8833 O   0  0  0  0  0  0  0  0  0  0  0  0
   -2.3930    0.6605    1.7722 N   0  0  0  0  0  0  0  0  0  0  0  0
   -3.2451    0.5077    1.2518 H   0  0  0  0  0  0  0  0  0  0  0  0
   -2.4787    1.3954    3.0311 C   0  0  0  0  0  0  0  0  0  0  0  0
   -1.7166    2.1767    3.0539 H   0  0  0  0  0  0  0  0  0  0  0  0
   -3.4649    1.8498    3.1344 H   0  0  0  0  0  0  0  0  0  0  0  0
   -2.3058    0.7133    3.8652 H   0  0  0  0  0  0  0  0  0  0  0  0
  5  6  2  0  0  0  0
  5  7  1  0  0  0  0
  2  3  1  0  0  0  0
  2  4  1  0  0  0  0
  2  5  1  0  0  0  0
  1  2  1  0  0  0  0
 29 30  2  0  0  0  0
 29 31  1  0  0  0  0
 26 27  1  0  0  0  0
 26 28  2  0  0  0  0
 24 25  1  0  0  0  0
 24 26  1  0  0  0  0
 22 23  1  0  0  0  0
 22 24  2  0  0  0  0
 20 21  1  0  0  0  0
 20 22  1  0  0  0  0
 19 20  2  0  0  0  0
 19 28  1  0  0  0  0
 17 18  1  0  0  0  0
 17 19  1  0  0  0  0
 15 16  1  0  0  0  0
 15 17  1  0  0  0  0
 14 15  2  0  0  0  0
 14 28  1  0  0  0  0
 11 12  1  0  0  0  0
 11 13  1  0  0  0  0
 11 14  1  0  0  0  0
  9 10  1  0  0  0  0
  9 11  1  0  0  0  0
  9 29  1  0  0  0  0
  7  8  1  0  0  0  0
  7  9  1  0  0  0  0
 33 34  1  0  0  0  0
 33 35  1  0  0  0  0
 33 36  1  0  0  0  0
 31 32  1  0  0  0  0
 31 33  1  0  0  0  0
M  END
$$$$
default_name
  -OEChem-02102213163D

 36 37  0     1  0  0  0  0  0999 V2000
   -4.0843   -4.0736    1.2944 H   0  0  0  0  0  0  0  0  0  0  0  0
   -4.0342   -3.2816    0.5484 C   0  0  0  0  0  0  0  0  0  0  0  0
   -4.8842   -2.6126    0.6694 H   0  0  0  0  0  0  0  0  0  0  0  0
   -4.0433   -3.7186   -0.4486 H   0  0  0  0  0  0  0  0  0  0  0  0
   -2.7532   -2.5046    0.7444 C   0  0  0  0  0  0  0  0  0  0  0  0
   -1.9803   -2.8096    1.6434 O   0  0  0  0  0  0  0  0  0  0  0  0
   -2.5332   -1.4966   -0.0966 N   0  0  0  0  0  0  0  0  0  0  0  0
   -3.2312   -1.2816   -0.7936 H   0  0  0  0  0  0  0  0  0  0  0  0
   -1.3593   -0.6196   -0.0536 C   0  0  1  0  0  0  0  0  0  0  0  0
   -0.4622   -1.2317   -0.1545 H   0  0  0  0  0  0  0  0  0  0  0  0
   -1.4074    0.3593   -1.2373 C   0  0  0  0  0  0  0  0  0  0  0  0
   -0.5169    0.9899   -1.2085 H   0  0  0  0  0  0  0  0  0  0  0  0
   -1.3753   -0.2152   -2.1646 H   0  0  0  0  0  0  0  0  0  0  0  0
   -2.6084    1.2549   -1.2747 C   0  0  0  0  0  0  0  0  0  0  0  0
   -3.3549    1.5245   -2.3691 C   0  0  0  0  0  0  0  0  0  0  0  0
   -3.1580    1.1346   -3.3618 H   0  0  0  0  0  0  0  0  0  0  0  0
   -4.4072    2.3488   -2.0218 N   0  0  0  0  0  0  0  0  0  0  0  0
   -5.0938    2.6836   -2.6819 H   0  0  0  0  0  0  0  0  0  0  0  0
   -4.4006    2.6398   -0.6742 C   0  0  0  0  0  0  0  0  0  0  0  0
   -5.2523    3.3916    0.1478 C   0  0  0  0  0  0  0  0  0  0  0  0
   -6.1168    3.8880   -0.2681 H   0  0  0  0  0  0  0  0  0  0  0  0
   -4.9643    3.4914    1.5197 C   0  0  0  0  0  0  0  0  0  0  0  0
   -5.6094    4.0679    2.1689 H   0  0  0  0  0  0  0  0  0  0  0  0
   -3.8311    2.8455    2.0468 C   0  0  0  0  0  0  0  0  0  0  0  0
   -3.6086    2.9319    3.1014 H   0  0  0  0  0  0  0  0  0  0  0  0
   -2.9808    2.0942    1.2108 C   0  0  0  0  0  0  0  0  0  0  0  0
   -2.1062    1.6141    1.6262 H   0  0  0  0  0  0  0  0  0  0  0  0
   -3.2461    1.9695   -0.1701 C   0  0  0  0  0  0  0  0  0  0  0  0
   -1.2663    0.1182    1.2910 C   0  0  0  0  0  0  0  0  0  0  0  0
   -0.1906    0.1931    1.8833 O   0  0  0  0  0  0  0  0  0  0  0  0
   -2.3930    0.6605    1.7722 N   0  0  0  0  0  0  0  0  0  0  0  0
   -3.2451    0.5077    1.2518 H   0  0  0  0  0  0  0  0  0  0  0  0
   -2.4787    1.3954    3.0311 C   0  0  0  0  0  0  0  0  0  0  0  0
   -1.7166    2.1767    3.0539 H   0  0  0  0  0  0  0  0  0  0  0  0
   -3.4649    1.8498    3.1344 H   0  0  0  0  0  0  0  0  0  0  0  0
   -2.3058    0.7133    3.8652 H   0  0  0  0  0  0  0  0  0  0  0  0
  5  6  2  0  0  0  0
  5  7  1  0  0  0  0
  2  3  1  0  0  0  0
  2  4  1  0  0  0  0
  2  5  1  0  0  0  0
  1  2  1  0  0  0  0
 29 30  2  0  0  0  0
 29 31  1  0  0  0  0
 26 27  1  0  0  0  0
 26 28  2  0  0  0  0
 24 25  1  0  0  0  0
 24 26  1  0  0  0  0
 22 23  1  0  0  0  0
 22 24  2  0  0  0  0
 20 21  1  0  0  0  0
 20 22  1  0  0  0  0
 19 20  2  0  0  0  0
 19 28  1  0  0  0  0
 17 18  1  0  0  0  0
 17 19  1  0  0  0  0
 15 16  1  0  0  0  0
 15 17  1  0  0  0  0
 14 15  2  0  0  0  0
 14 28  1  0  0  0  0
 11 12  1  0  0  0  0
 11 13  1  0  0  0  0
 11 14  1  0  0  0  0
  9 10  1  0  0  0  0
  9 11  1  0  0  0  0
  9 29  1  0  0  0  0
  7  8  1  0  0  0  0
  7  9  1  0  0  0  0
 33 34  1  0  0  0  0
 33 35  1  0  0  0  0
 33 36  1  0  0  0  0
 31 32  1  0  0  0  0
 31 33  1  0  0  0  0
M  END
$$$$
default_name
  -OEChem-02102213163D

 36 37  0     1  0  0  0  0  0999 V2000
   -4.0843   -4.0736    1.2944 H   0  0  0  0  0  0  0  0  0  0  0  0
   -4.0342   -3.2816    0.5484 C   0  0  0  0  0  0  0  0  0  0  0  0
   -4.8842   -2.6126    0.6694 H   0  0  0  0  0  0  0  0  0  0  0  0
   -4.0433   -3.7186   -0.4486 H   0  0  0  0  0  0  0  0  0  0  0  0
   -2.7532   -2.5046    0.7444 C   0  0  0  0  0  0  0  0  0  0  0  0
   -1.9803   -2.8096    1.6434 O   0  0  0  0  0  0  0  0  0  0  0  0
   -2.5332   -1.4966   -0.0966 N   0  0  0  0  0  0  0  0  0  0  0  0
   -3.2312   -1.2816   -0.7936 H   0  0  0  0  0  0  0  0  0  0  0  0
   -1.3593   -0.6196   -0.0536 C   0  0  1  0  0  0  0  0  0  0  0  0
   -0.4622   -1.2317   -0.1545 H   0  0  0  0  0  0  0  0  0  0  0  0
   -1.4074    0.3593   -1.2373 C   0  0  0  0  0  0  0  0  0  0  0  0
   -0.5169    0.9899   -1.2085 H   0  0  0  0  0  0  0  0  0  0  0  0
   -1.3753   -0.2152   -2.1646 H   0  0  0  0  0  0  0  0  0  0  0  0
   -2.6084    1.2549   -1.2747 C   0  0  0  0  0  0  0  0  0  0  0  0
   -3.5184    1.3091   -2.2730 C   0  0  0  0  0  0  0  0  0  0  0  0
   -3.4743    0.7179   -3.1811 H   0  0  0  0  0  0  0  0  0  0  0  0
   -4.5121    2.2112   -1.9469 N   0  0  0  0  0  0  0  0  0  0  0  0
   -5.2962    2.4177   -2.5483 H   0  0  0  0  0  0  0  0  0  0  0  0
   -4.2991    2.7745   -0.7067 C   0  0  0  0  0  0  0  0  0  0  0  0
   -5.0202    3.6993    0.0622 C   0  0  0  0  0  0  0  0  0  0  0  0
   -5.9436    4.1185   -0.3096 H   0  0  0  0  0  0  0  0  0  0  0  0
   -4.5236    4.0743    1.3223 C   0  0  0  0  0  0  0  0  0  0  0  0
   -5.0657    4.7871    1.9289 H   0  0  0  0  0  0  0  0  0  0  0  0
   -3.3159    3.5258    1.7912 C   0  0  0  0  0  0  0  0  0  0  0  0
   -2.9332    3.8234    2.7577 H   0  0  0  0  0  0  0  0  0  0  0  0
   -2.5985    2.5986    1.0090 C   0  0  0  0  0  0  0  0  0  0  0  0
   -1.6652    2.1950    1.3754 H   0  0  0  0  0  0  0  0  0  0  0  0
   -3.0737    2.1969   -0.2581 C   0  0  0  0  0  0  0  0  0  0  0  0
   -1.2663    0.1182    1.2910 C   0  0  0  0  0  0  0  0  0  0  0  0
   -0.1906    0.1931    1.8833 O   0  0  0  0  0  0  0  0  0  0  0  0
   -2.3930    0.6605    1.7722 N   0  0  0  0  0  0  0  0  0  0  0  0
   -3.2451    0.5077    1.2518 H   0  0  0  0  0  0  0  0  0  0  0  0
   -2.4787    1.3954    3.0311 C   0  0  0  0  0  0  0  0  0  0  0  0
   -1.7166    2.1767    3.0539 H   0  0  0  0  0  0  0  0  0  0  0  0
   -3.4649    1.8498    3.1344 H   0  0  0  0  0  0  0  0  0  0  0  0
   -2.3058    0.7133    3.8652 H   0  0  0  0  0  0  0  0  0  0  0  0
  5  6  2  0  0  0  0
  5  7  1  0  0  0  0
  2  3  1  0  0  0  0
  2  4  1  0  0  0  0
  2  5  1  0  0  0  0
  1  2  1  0  0  0  0
 29 30  2  0  0  0  0
 29 31  1  0  0  0  0
 26 27  1  0  0  0  0
 26 28  2  0  0  0  0
 24 25  1  0  0  0  0
 24 26  1  0  0  0  0
 22 23  1  0  0  0  0
 22 24  2  0  0  0  0
 20 21  1  0  0  0  0
 20 22  1  0  0  0  0
 19 20  2  0  0  0  0
 19 28  1  0  0  0  0
 17 18  1  0  0  0  0
 17 19  1  0  0  0  0
 15 16  1  0  0  0  0
 15 17  1  0  0  0  0
 14 15  2  0  0  0  0
 14 28  1  0  0  0  0
 11 12  1  0  0  0  0
 11 13  1  0  0  0  0
 11 14  1  0  0  0  0
  9 10  1  0  0  0  0
  9 11  1  0  0  0  0
  9 29  1  0  0  0  0
  7  8  1  0  0  0  0
  7  9  1  0  0  0  0
 33 34  1  0  0  0  0
 33 35  1  0  0  0  0
 33 36  1  0  0  0  0
 31 32  1  0  0  0  0
 31 33  1  0  0  0  0
M  END
$$$$
default_name
  -OEChem-02102213163D

 36 37  0     1  0  0  0  0  0999 V2000
   -4.0843   -4.0736    1.2944 H   0  0  0  0  0  0  0  0  0  0  0  0
   -4.0342   -3.2816    0.5484 C   0  0  0  0  0  0  0  0  0  0  0  0
   -4.8842   -2.6126    0.6694 H   0  0  0  0  0  0  0  0  0  0  0  0
   -4.0433   -3.7186   -0.4486 H   0  0  0  0  0  0  0  0  0  0  0  0
   -2.7532   -2.5046    0.7444 C   0  0  0  0  0  0  0  0  0  0  0  0
   -1.9803   -2.8096    1.6434 O   0  0  0  0  0  0  0  0  0  0  0  0
   -2.5332   -1.4966   -0.0966 N   0  0  0  0  0  0  0  0  0  0  0  0
   -3.2312   -1.2816   -0.7936 H   0  0  0  0  0  0  0  0  0  0  0  0
   -1.3593   -0.6196   -0.0536 C   0  0  1  0  0  0  0  0  0  0  0  0
   -0.4622   -1.2317   -0.1545 H   0  0  0  0  0  0  0  0  0  0  0  0
   -1.4074    0.3593   -1.2373 C   0  0  0  0  0  0  0  0  0  0  0  0
   -0.5169    0.9899   -1.2085 H   0  0  0  0  0  0  0  0  0  0  0  0
   -1.3753   -0.2152   -2.1646 H   0  0  0  0  0  0  0  0  0  0  0  0
   -2.6084    1.2549   -1.2747 C   0  0  0  0  0  0  0  0  0  0  0  0
   -3.6630    1.1221   -2.1101 C   0  0  0  0  0  0  0  0  0  0  0  0
   -3.7546    0.3549   -2.8712 H   0  0  0  0  0  0  0  0  0  0  0  0
   -4.6028    2.0945   -1.8297 N   0  0  0  0  0  0  0  0  0  0  0  0
   -5.4727    2.1899   -2.3328 H   0  0  0  0  0  0  0  0  0  0  0  0
   -4.2053    2.8973   -0.7817 C   0  0  0  0  0  0  0  0  0  0  0  0
   -4.8073    3.9773   -0.1202 C   0  0  0  0  0  0  0  0  0  0  0  0
   -5.7813    4.3314   -0.4244 H   0  0  0  0  0  0  0  0  0  0  0  0
   -4.1246    4.5935    0.9425 C   0  0  0  0  0  0  0  0  0  0  0  0
   -4.5729    5.4285    1.4637 H   0  0  0  0  0  0  0  0  0  0  0  0
   -2.8534    4.1265    1.3236 C   0  0  0  0  0  0  0  0  0  0  0  0
   -2.3281    4.6089    2.1363 H   0  0  0  0  0  0  0  0  0  0  0  0
   -2.2571    3.0414    0.6503 C   0  0  0  0  0  0  0  0  0  0  0  0
   -1.2743    2.7013    0.9445 H   0  0  0  0  0  0  0  0  0  0  0  0
   -2.9195    2.3972   -0.4170 C   0  0  0  0  0  0  0  0  0  0  0  0
   -1.2663    0.1182    1.2910 C   0  0  0  0  0  0  0  0  0  0  0  0
   -0.1906    0.1931    1.8833 O   0  0  0  0  0  0  0  0  0  0  0  0
   -2.3930    0.6605    1.7722 N   0  0  0  0  0  0  0  0  0  0  0  0
   -3.2451    0.5077    1.2518 H   0  0  0  0  0  0  0  0  0  0  0  0
   -2.4787    1.3954    3.0311 C   0  0  0  0  0  0  0  0  0  0  0  0
   -1.7166    2.1767    3.0539 H   0  0  0  0  0  0  0  0  0  0  0  0
   -3.4649    1.8498    3.1344 H   0  0  0  0  0  0  0  0  0  0  0  0
   -2.3058    0.7133    3.8652 H   0  0  0  0  0  0  0  0  0  0  0  0
  5  6  2  0  0  0  0
  5  7  1  0  0  0  0
  2  3  1  0  0  0  0
  2  4  1  0  0  0  0
  2  5  1  0  0  0  0
  1  2  1  0  0  0  0
 29 30  2  0  0  0  0
 29 31  1  0  0  0  0
 26 27  1  0  0  0  0
 26 28  2  0  0  0  0
 24 25  1  0  0  0  0
 24 26  1  0  0  0  0
 22 23  1  0  0  0  0
 22 24  2  0  0  0  0
 20 21  1  0  0  0  0
 20 22  1  0  0  0  0
 19 20  2  0  0  0  0
 19 28  1  0  0  0  0
 17 18  1  0  0  0  0
 17 19  1  0  0  0  0
 15 16  1  0  0  0  0
 15 17  1  0  0  0  0
 14 15  2  0  0  0  0
 14 28  1  0  0  0  0
 11 12  1  0  0  0  0
 11 13  1  0  0  0  0
 11 14  1  0  0  0  0
  9 10  1  0  0  0  0
  9 11  1  0  0  0  0
  9 29  1  0  0  0  0
  7  8  1  0  0  0  0
  7  9  1  0  0  0  0
 33 34  1  0  0  0  0
 33 35  1  0  0  0  0
 33 36  1  0  0  0  0
 31 32  1  0  0  0  0
 31 33  1  0  0  0  0
M  END
$$$$
default_name
  -OEChem-02102213163D

 36 37  0     1  0  0  0  0  0999 V2000
   -4.0843   -4.0736    1.2944 H   0  0  0  0  0  0  0  0  0  0  0  0
   -4.0342   -3.2816    0.5484 C   0  0  0  0  0  0  0  0  0  0  0  0
   -4.8842   -2.6126    0.6694 H   0  0  0  0  0  0  0  0  0  0  0  0
   -4.0433   -3.7186   -0.4486 H   0  0  0  0  0  0  0  0  0  0  0  0
   -2.7532   -2.5046    0.7444 C   0  0  0  0  0  0  0  0  0  0  0  0
   -1.9803   -2.8096    1.6434 O   0  0  0  0  0  0  0  0  0  0  0  0
   -2.5332   -1.4966   -0.0966 N   0  0  0  0  0  0  0  0  0  0  0  0
   -3.2312   -1.2816   -0.7936 H   0  0  0  0  0  0  0  0  0  0  0  0
   -1.3593   -0.6196   -0.0536 C   0  0  1  0  0  0  0  0  0  0  0  0
   -0.4622   -1.2317   -0.1545 H   0  0  0  0  0  0  0  0  0  0  0  0
   -1.4074    0.3593   -1.2373 C   0  0  0  0  0  0  0  0  0  0  0  0
   -0.5169    0.9899   -1.2085 H   0  0  0  0  0  0  0  0  0  0  0  0
   -1.3753   -0.2152   -2.1646 H   0  0  0  0  0  0  0  0  0  0  0  0
   -2.6084    1.2549   -1.2747 C   0  0  0  0  0  0  0  0  0  0  0  0
   -3.7786    0.9761   -1.8917 C   0  0  0  0  0  0  0  0  0  0  0  0
   -3.9798    0.0704   -2.4532 H   0  0  0  0  0  0  0  0  0  0  0  0
   -4.6729    2.0067   -1.6783 N   0  0  0  0  0  0  0  0  0  0  0  0
   -5.6114    2.0157   -2.0502 H   0  0  0  0  0  0  0  0  0  0  0  0
   -4.1254    2.9997   -0.8940 C   0  0  0  0  0  0  0  0  0  0  0  0
   -4.6280    4.2066   -0.3870 C   0  0  0  0  0  0  0  0  0  0  0  0
   -5.6409    4.5122   -0.6044 H   0  0  0  0  0  0  0  0  0  0  0  0
   -3.7947    5.0136    0.4063 C   0  0  0  0  0  0  0  0  0  0  0  0
   -4.1647    5.9485    0.8052 H   0  0  0  0  0  0  0  0  0  0  0  0
   -2.4751    4.6068    0.6757 C   0  0  0  0  0  0  0  0  0  0  0  0
   -1.8347    5.2348    1.2796 H   0  0  0  0  0  0  0  0  0  0  0  0
   -1.9799    3.3926    0.1592 C   0  0  0  0  0  0  0  0  0  0  0  0
   -0.9601    3.0984    0.3627 H   0  0  0  0  0  0  0  0  0  0  0  0
   -2.7937    2.5567   -0.6358 C   0  0  0  0  0  0  0  0  0  0  0  0
   -1.2663    0.1182    1.2910 C   0  0  0  0  0  0  0  0  0  0  0  0
   -0.1906    0.1931    1.8833 O   0  0  0  0  0  0  0  0  0  0  0  0
   -2.3930    0.6605    1.7722 N   0  0  0  0  0  0  0  0  0  0  0  0
   -3.2451    0.5077    1.2518 H   0  0  0  0  0  0  0  0  0  0  0  0
   -2.4787    1.3954    3.0311 C   0  0  0  0  0  0  0  0  0  0  0  0
   -1.7166    2.1767    3.0539 H   0  0  0  0  0  0  0  0  0  0  0  0
   -3.4649    1.8498    3.1344 H   0  0  0  0  0  0  0  0  0  0  0  0
   -2.3058    0.7133    3.8652 H   0  0  0  0  0  0  0  0  0  0  0  0
  5  6  2  0  0  0  0
  5  7  1  0  0  0  0
  2  3  1  0  0  0  0
  2  4  1  0  0  0  0
  2  5  1  0  0  0  0
  1  2  1  0  0  0  0
 29 30  2  0  0  0  0
 29 31  1  0  0  0  0
 26 27  1  0  0  0  0
 26 28  2  0  0  0  0
 24 25  1  0  0  0  0
 24 26  1  0  0  0  0
 22 23  1  0  0  0  0
 22 24  2  0  0  0  0
 20 21  1  0  0  0  0
 20 22  1  0  0  0  0
 19 20  2  0  0  0  0
 19 28  1  0  0  0  0
 17 18  1  0  0  0  0
 17 19  1  0  0  0  0
 15 16  1  0  0  0  0
 15 17  1  0  0  0  0
 14 15  2  0  0  0  0
 14 28  1  0  0  0  0
 11 12  1  0  0  0  0
 11 13  1  0  0  0  0
 11 14  1  0  0  0  0
  9 10  1  0  0  0  0
  9 11  1  0  0  0  0
  9 29  1  0  0  0  0
  7  8  1  0  0  0  0
  7  9  1  0  0  0  0
 33 34  1  0  0  0  0
 33 35  1  0  0  0  0
 33 36  1  0  0  0  0
 31 32  1  0  0  0  0
 31 33  1  0  0  0  0
M  END
$$$$
default_name
  -OEChem-02102213163D

 36 37  0     1  0  0  0  0  0999 V2000
   -4.0843   -4.0736    1.2944 H   0  0  0  0  0  0  0  0  0  0  0  0
   -4.0342   -3.2816    0.5484 C   0  0  0  0  0  0  0  0  0  0  0  0
   -4.8842   -2.6126    0.6694 H   0  0  0  0  0  0  0  0  0  0  0  0
   -4.0433   -3.7186   -0.4486 H   0  0  0  0  0  0  0  0  0  0  0  0
   -2.7532   -2.5046    0.7444 C   0  0  0  0  0  0  0  0  0  0  0  0
   -1.9803   -2.8096    1.6434 O   0  0  0  0  0  0  0  0  0  0  0  0
   -2.5332   -1.4966   -0.0966 N   0  0  0  0  0  0  0  0  0  0  0  0
   -3.2312   -1.2816   -0.7936 H   0  0  0  0  0  0  0  0  0  0  0  0
   -1.3593   -0.6196   -0.0536 C   0  0  1  0  0  0  0  0  0  0  0  0
   -0.4622   -1.2317   -0.1545 H   0  0  0  0  0  0  0  0  0  0  0  0
   -1.4074    0.3593   -1.2373 C   0  0  0  0  0  0  0  0  0  0  0  0
   -0.5169    0.9899   -1.2085 H   0  0  0  0  0  0  0  0  0  0  0  0
   -1.3753   -0.2152   -2.1646 H   0  0  0  0  0  0  0  0  0  0  0  0
   -2.6084    1.2549   -1.2747 C   0  0  0  0  0  0  0  0  0  0  0  0
   -3.8574    0.8812   -1.6325 C   0  0  0  0  0  0  0  0  0  0  0  0
   -4.1344   -0.1163   -1.9556 H   0  0  0  0  0  0  0  0  0  0  0  0
   -4.7179    1.9537   -1.5029 N   0  0  0  0  0  0  0  0  0  0  0  0
   -5.7028    1.9070   -1.7195 H   0  0  0  0  0  0  0  0  0  0  0  0
   -4.0650    3.0748   -1.0362 C   0  0  0  0  0  0  0  0  0  0  0  0
   -4.4946    4.3716   -0.7200 C   0  0  0  0  0  0  0  0  0  0  0  0
   -5.5319    4.6486   -0.8376 H   0  0  0  0  0  0  0  0  0  0  0  0
   -3.5562    5.3061   -0.2498 C   0  0  0  0  0  0  0  0  0  0  0  0
   -3.8690    6.3114   -0.0019 H   0  0  0  0  0  0  0  0  0  0  0  0
   -2.2068    4.9339   -0.1082 C   0  0  0  0  0  0  0  0  0  0  0  0
   -1.4866    5.6585    0.2460 H   0  0  0  0  0  0  0  0  0  0  0  0
   -1.7859    3.6282   -0.4309 C   0  0  0  0  0  0  0  0  0  0  0  0
   -0.7440    3.3593   -0.3302 H   0  0  0  0  0  0  0  0  0  0  0  0
   -2.7050    2.6646   -0.8997 C   0  0  0  0  0  0  0  0  0  0  0  0
   -1.2663    0.1182    1.2910 C   0  0  0  0  0  0  0  0  0  0  0  0
   -0.1906    0.1931    1.8833 O   0  0  0  0  0  0  0  0  0  0  0  0
   -2.3930    0.6605    1.7722 N   0  0  0  0  0  0  0  0  0  0  0  0
   -3.2451    0.5077    1.2518 H   0  0  0  0  0  0  0  0  0  0  0  0
   -2.4787    1.3954    3.0311 C   0  0  0  0  0  0  0  0  0  0  0  0
   -1.7166    2.1767    3.0539 H   0  0  0  0  0  0  0  0  0  0  0  0
   -3.4649    1.8498    3.1344 H   0  0  0  0  0  0  0  0  0  0  0  0
   -2.3058    0.7133    3.8652 H   0  0  0  0  0  0  0  0  0  0  0  0
  5  6  2  0  0  0  0
  5  7  1  0  0  0  0
  2  3  1  0  0  0  0
  2  4  1  0  0  0  0
  2  5  1  0  0  0  0
  1  2  1  0  0  0  0
 29 30  2  0  0  0  0
 29 31  1  0  0  0  0
 26 27  1  0  0  0  0
 26 28  2  0  0  0  0
 24 25  1  0  0  0  0
 24 26  1  0  0  0  0
 22 23  1  0  0  0  0
 22 24  2  0  0  0  0
 20 21  1  0  0  0  0
 20 22  1  0  0  0  0
 19 20  2  0  0  0  0
 19 28  1  0  0  0  0
 17 18  1  0  0  0  0
 17 19  1  0  0  0  0
 15 16  1  0  0  0  0
 15 17  1  0  0  0  0
 14 15  2  0  0  0  0
 14 28  1  0  0  0  0
 11 12  1  0  0  0  0
 11 13  1  0  0  0  0
 11 14  1  0  0  0  0
  9 10  1  0  0  0  0
  9 11  1  0  0  0  0
  9 29  1  0  0  0  0
  7  8  1  0  0  0  0
  7  9  1  0  0  0  0
 33 34  1  0  0  0  0
 33 35  1  0  0  0  0
 33 36  1  0  0  0  0
 31 32  1  0  0  0  0
 31 33  1  0  0  0  0
M  END
$$$$
default_name
  -OEChem-02102213163D

 36 37  0     1  0  0  0  0  0999 V2000
   -4.0843   -4.0736    1.2944 H   0  0  0  0  0  0  0  0  0  0  0  0
   -4.0342   -3.2816    0.5484 C   0  0  0  0  0  0  0  0  0  0  0  0
   -4.8842   -2.6126    0.6694 H   0  0  0  0  0  0  0  0  0  0  0  0
   -4.0433   -3.7186   -0.4486 H   0  0  0  0  0  0  0  0  0  0  0  0
   -2.7532   -2.5046    0.7444 C   0  0  0  0  0  0  0  0  0  0  0  0
   -1.9803   -2.8096    1.6434 O   0  0  0  0  0  0  0  0  0  0  0  0
   -2.5332   -1.4966   -0.0966 N   0  0  0  0  0  0  0  0  0  0  0  0
   -3.2312   -1.2816   -0.7936 H   0  0  0  0  0  0  0  0  0  0  0  0
   -1.3593   -0.6196   -0.0536 C   0  0  1  0  0  0  0  0  0  0  0  0
   -0.4622   -1.2317   -0.1545 H   0  0  0  0  0  0  0  0  0  0  0  0
   -1.4074    0.3593   -1.2373 C   0  0  0  0  0  0  0  0  0  0  0  0
   -0.5169    0.9899   -1.2085 H   0  0  0  0  0  0  0  0  0  0  0  0
   -1.3753   -0.2152   -2.1646 H   0  0  0  0  0  0  0  0  0  0  0  0
   -2.6084    1.2549   -1.2747 C   0  0  0  0  0  0  0  0  0  0  0  0
   -3.8941    0.8438   -1.3503 C   0  0  0  0  0  0  0  0  0  0  0  0
   -4.2081   -0.1924   -1.4123 H   0  0  0  0  0  0  0  0  0  0  0  0
   -4.7345    1.9392   -1.3156 N   0  0  0  0  0  0  0  0  0  0  0  0
   -5.7406    1.8711   -1.3635 H   0  0  0  0  0  0  0  0  0  0  0  0
   -4.0282    3.1174   -1.1984 C   0  0  0  0  0  0  0  0  0  0  0  0
   -4.4162    4.4611   -1.0965 C   0  0  0  0  0  0  0  0  0  0  0  0
   -5.4619    4.7313   -1.1079 H   0  0  0  0  0  0  0  0  0  0  0  0
   -3.4254    5.4510   -0.9812 C   0  0  0  0  0  0  0  0  0  0  0  0
   -3.7058    6.4927   -0.9026 H   0  0  0  0  0  0  0  0  0  0  0  0
   -2.0668    5.0855   -0.9747 C   0  0  0  0  0  0  0  0  0  0  0  0
   -1.3075    5.8511   -0.8942 H   0  0  0  0  0  0  0  0  0  0  0  0
   -1.6883    3.7320   -1.0798 C   0  0  0  0  0  0  0  0  0  0  0  0
   -0.6408    3.4662   -1.0870 H   0  0  0  0  0  0  0  0  0  0  0  0
   -2.6595    2.7135   -1.1907 C   0  0  0  0  0  0  0  0  0  0  0  0
   -1.2663    0.1182    1.2910 C   0  0  0  0  0  0  0  0  0  0  0  0
   -0.1906    0.1931    1.8833 O   0  0  0  0  0  0  0  0  0  0  0  0
   -2.3930    0.6605    1.7722 N   0  0  0  0  0  0  0  0  0  0  0  0
   -3.2451    0.5077    1.2518 H   0  0  0  0  0  0  0  0  0  0  0  0
   -2.4787    1.3954    3.0311 C   0  0  0  0  0  0  0  0  0  0  0  0
   -1.7166    2.1767    3.0539 H   0  0  0  0  0  0  0  0  0  0  0  0
   -3.4649    1.8498    3.1344 H   0  0  0  0  0  0  0  0  0  0  0  0
   -2.3058    0.7133    3.8652 H   0  0  0  0  0  0  0  0  0  0  0  0
  5  6  2  0  0  0  0
  5  7  1  0  0  0  0
  2  3  1  0  0  0  0
  2  4  1  0  0  0  0
  2  5  1  0  0  0  0
  1  2  1  0  0  0  0
 29 30  2  0  0  0  0
 29 31  1  0  0  0  0
 26 27  1  0  0  0  0
 26 28  2  0  0  0  0
 24 25  1  0  0  0  0
 24 26  1  0  0  0  0
 22 23  1  0  0  0  0
 22 24  2  0  0  0  0
 20 21  1  0  0  0  0
 20 22  1  0  0  0  0
 19 20  2  0  0  0  0
 19 28  1  0  0  0  0
 17 18  1  0  0  0  0
 17 19  1  0  0  0  0
 15 16  1  0  0  0  0
 15 17  1  0  0  0  0
 14 15  2  0  0  0  0
 14 28  1  0  0  0  0
 11 12  1  0  0  0  0
 11 13  1  0  0  0  0
 11 14  1  0  0  0  0
  9 10  1  0  0  0  0
  9 11  1  0  0  0  0
  9 29  1  0  0  0  0
  7  8  1  0  0  0  0
  7  9  1  0  0  0  0
 33 34  1  0  0  0  0
 33 35  1  0  0  0  0
 33 36  1  0  0  0  0
 31 32  1  0  0  0  0
 31 33  1  0  0  0  0
M  END
$$$$
default_name
  -OEChem-02102213163D

 36 37  0     1  0  0  0  0  0999 V2000
   -4.0843   -4.0736    1.2944 H   0  0  0  0  0  0  0  0  0  0  0  0
   -4.0342   -3.2816    0.5484 C   0  0  0  0  0  0  0  0  0  0  0  0
   -4.8842   -2.6126    0.6694 H   0  0  0  0  0  0  0  0  0  0  0  0
   -4.0433   -3.7186   -0.4486 H   0  0  0  0  0  0  0  0  0  0  0  0
   -2.7532   -2.5046    0.7444 C   0  0  0  0  0  0  0  0  0  0  0  0
   -1.9803   -2.8096    1.6434 O   0  0  0  0  0  0  0  0  0  0  0  0
   -2.5332   -1.4966   -0.0966 N   0  0  0  0  0  0  0  0  0  0  0  0
   -3.2312   -1.2816   -0.7936 H   0  0  0  0  0  0  0  0  0  0  0  0
   -1.3593   -0.6196   -0.0536 C   0  0  1  0  0  0  0  0  0  0  0  0
   -0.4622   -1.2317   -0.1545 H   0  0  0  0  0  0  0  0  0  0  0  0
   -1.4074    0.3593   -1.2373 C   0  0  0  0  0  0  0  0  0  0  0  0
   -0.5169    0.9899   -1.2085 H   0  0  0  0  0  0  0  0  0  0  0  0
   -1.3753   -0.2152   -2.1646 H   0  0  0  0  0  0  0  0  0  0  0  0
   -2.6084    1.2549   -1.2747 C   0  0  0  0  0  0  0  0  0  0  0  0
   -3.8861    0.8664   -1.0642 C   0  0  0  0  0  0  0  0  0  0  0  0
   -4.1957   -0.1527   -0.8603 H   0  0  0  0  0  0  0  0  0  0  0  0
   -4.7217    1.9642   -1.1291 N   0  0  0  0  0  0  0  0  0  0  0  0
   -5.7223    1.9106   -1.0063 H   0  0  0  0  0  0  0  0  0  0  0  0
   -4.0174    3.1247   -1.3696 C   0  0  0  0  0  0  0  0  0  0  0  0
   -4.3981    4.4689   -1.4909 C   0  0  0  0  0  0  0  0  0  0  0  0
   -5.4355    4.7546   -1.3970 H   0  0  0  0  0  0  0  0  0  0  0  0
   -3.4112    5.4384   -1.7379 C   0  0  0  0  0  0  0  0  0  0  0  0
   -3.6863    6.4799   -1.8354 H   0  0  0  0  0  0  0  0  0  0  0  0
   -2.0646    5.0514   -1.8649 C   0  0  0  0  0  0  0  0  0  0  0  0
   -1.3096    5.7995   -2.0632 H   0  0  0  0  0  0  0  0  0  0  0  0
   -1.6937    3.6971   -1.7431 C   0  0  0  0  0  0  0  0  0  0  0  0
   -0.6574    3.4118   -1.8561 H   0  0  0  0  0  0  0  0  0  0  0  0
   -2.6602    2.7001   -1.4890 C   0  0  0  0  0  0  0  0  0  0  0  0
   -1.2663    0.1182    1.2910 C   0  0  0  0  0  0  0  0  0  0  0  0
   -0.1906    0.1931    1.8833 O   0  0  0  0  0  0  0  0  0  0  0  0
   -2.3930    0.6605    1.7722 N   0  0  0  0  0  0  0  0  0  0  0  0
   -3.2451    0.5077    1.2518 H   0  0  0  0  0  0  0  0  0  0  0  0
   -2.4787    1.3954    3.0311 C   0  0  0  0  0  0  0  0  0  0  0  0
   -1.7166    2.1767    3.0539 H   0  0  0  0  0  0  0  0  0  0  0  0
   -3.4649    1.8498    3.1344 H   0  0  0  0  0  0  0  0  0  0  0  0
   -2.3058    0.7133    3.8652 H   0  0  0  0  0  0  0  0  0  0  0  0
  5  6  2  0  0  0  0
  5  7  1  0  0  0  0
  2  3  1  0  0  0  0
  2  4  1  0  0  0  0
  2  5  1  0  0  0  0
  1  2  1  0  0  0  0
 29 30  2  0  0  0  0
 29 31  1  0  0  0  0
 26 27  1  0  0  0  0
 26 28  2  0  0  0  0
 24 25  1  0  0  0  0
 24 26  1  0  0  0  0
 22 23  1  0  0  0  0
 22 24  2  0  0  0  0
 20 21  1  0  0  0  0
 20 22  1  0  0  0  0
 19 20  2  0  0  0  0
 19 28  1  0  0  0  0
 17 18  1  0  0  0  0
 17 19  1  0  0  0  0
 15 16  1  0  0  0  0
 15 17  1  0  0  0  0
 14 15  2  0  0  0  0
 14 28  1  0  0  0  0
 11 12  1  0  0  0  0
 11 13  1  0  0  0  0
 11 14  1  0  0  0  0
  9 10  1  0  0  0  0
  9 11  1  0  0  0  0
  9 29  1  0  0  0  0
  7  8  1  0  0  0  0
  7  9  1  0  0  0  0
 33 34  1  0  0  0  0
 33 35  1  0  0  0  0
 33 36  1  0  0  0  0
 31 32  1  0  0  0  0
 31 33  1  0  0  0  0
M  END
$$$$
default_name
  -OEChem-02102213163D

 36 37  0     1  0  0  0  0  0999 V2000
   -4.0843   -4.0736    1.2944 H   0  0  0  0  0  0  0  0  0  0  0  0
   -4.0342   -3.2816    0.5484 C   0  0  0  0  0  0  0  0  0  0  0  0
   -4.8842   -2.6126    0.6694 H   0  0  0  0  0  0  0  0  0  0  0  0
   -4.0433   -3.7186   -0.4486 H   0  0  0  0  0  0  0  0  0  0  0  0
   -2.7532   -2.5046    0.7444 C   0  0  0  0  0  0  0  0  0  0  0  0
   -1.9803   -2.8096    1.6434 O   0  0  0  0  0  0  0  0  0  0  0  0
   -2.5332   -1.4966   -0.0966 N   0  0  0  0  0  0  0  0  0  0  0  0
   -3.2312   -1.2816   -0.7936 H   0  0  0  0  0  0  0  0  0  0  0  0
   -1.3593   -0.6196   -0.0536 C   0  0  1  0  0  0  0  0  0  0  0  0
   -0.4622   -1.2317   -0.1545 H   0  0  0  0  0  0  0  0  0  0  0  0
   -1.4074    0.3593   -1.2373 C   0  0  0  0  0  0  0  0  0  0  0  0
   -0.5169    0.9899   -1.2085 H   0  0  0  0  0  0  0  0  0  0  0  0
   -1.3753   -0.2152   -2.1646 H   0  0  0  0  0  0  0  0  0  0  0  0
   -2.6084    1.2549   -1.2747 C   0  0  0  0  0  0  0  0  0  0  0  0
   -3.8340    0.9476   -0.7939 C   0  0  0  0  0  0  0  0  0  0  0  0
   -4.0981   -0.0000   -0.3373 H   0  0  0  0  0  0  0  0  0  0  0  0
   -4.6804    2.0269   -0.9561 N   0  0  0  0  0  0  0  0  0  0  0  0
   -5.6492    2.0226   -0.6722 H   0  0  0  0  0  0  0  0  0  0  0  0
   -4.0334    3.0962   -1.5382 C   0  0  0  0  0  0  0  0  0  0  0  0
   -4.4416    4.3945   -1.8762 C   0  0  0  0  0  0  0  0  0  0  0  0
   -5.4546    4.7170   -1.6852 H   0  0  0  0  0  0  0  0  0  0  0  0
   -3.5147    5.2692   -2.4683 C   0  0  0  0  0  0  0  0  0  0  0  0
   -3.8118    6.2740   -2.7367 H   0  0  0  0  0  0  0  0  0  0  0  0
   -2.2004    4.8337   -2.7179 C   0  0  0  0  0  0  0  0  0  0  0  0
   -1.4928    5.5073   -3.1813 H   0  0  0  0  0  0  0  0  0  0  0  0
   -1.8017    3.5259   -2.3759 C   0  0  0  0  0  0  0  0  0  0  0  0
   -0.7928    3.1998   -2.5852 H   0  0  0  0  0  0  0  0  0  0  0  0
   -2.7072    2.6253   -1.7742 C   0  0  0  0  0  0  0  0  0  0  0  0
   -1.2663    0.1182    1.2910 C   0  0  0  0  0  0  0  0  0  0  0  0
   -0.1906    0.1931    1.8833 O   0  0  0  0  0  0  0  0  0  0  0  0
   -2.3930    0.6605    1.7722 N   0  0  0  0  0  0  0  0  0  0  0  0
   -3.2451    0.5077    1.2518 H   0  0  0  0  0  0  0  0  0  0  0  0
   -2.4787    1.3954    3.0311 C   0  0  0  0  0  0  0  0  0  0  0  0
   -1.7166    2.1767    3.0539 H   0  0  0  0  0  0  0  0  0  0  0  0
   -3.4649    1.8498    3.1344 H   0  0  0  0  0  0  0  0  0  0  0  0
   -2.3058    0.7133    3.8652 H   0  0  0  0  0  0  0  0  0  0  0  0
  5  6  2  0  0  0  0
  5  7  1  0  0  0  0
  2  3  1  0  0  0  0
  2  4  1  0  0  0  0
  2  5  1  0  0  0  0
  1  2  1  0  0  0  0
 29 30  2  0  0  0  0
 29 31  1  0  0  0  0
 26 27  1  0  0  0  0
 26 28  2  0  0  0  0
 24 25  1  0  0  0  0
 24 26  1  0  0  0  0
 22 23  1  0  0  0  0
 22 24  2  0  0  0  0
 20 21  1  0  0  0  0
 20 22  1  0  0  0  0
 19 20  2  0  0  0  0
 19 28  1  0  0  0  0
 17 18  1  0  0  0  0
 17 19  1  0  0  0  0
 15 16  1  0  0  0  0
 15 17  1  0  0  0  0
 14 15  2  0  0  0  0
 14 28  1  0  0  0  0
 11 12  1  0  0  0  0
 11 13  1  0  0  0  0
 11 14  1  0  0  0  0
  9 10  1  0  0  0  0
  9 11  1  0  0  0  0
  9 29  1  0  0  0  0
  7  8  1  0  0  0  0
  7  9  1  0  0  0  0
 33 34  1  0  0  0  0
 33 35  1  0  0  0  0
 33 36  1  0  0  0  0
 31 32  1  0  0  0  0
 31 33  1  0  0  0  0
M  END
$$$$
default_name
  -OEChem-02102213163D

 36 37  0     1  0  0  0  0  0999 V2000
   -4.0843   -4.0736    1.2944 H   0  0  0  0  0  0  0  0  0  0  0  0
   -4.0342   -3.2816    0.5484 C   0  0  0  0  0  0  0  0  0  0  0  0
   -4.8842   -2.6126    0.6694 H   0  0  0  0  0  0  0  0  0  0  0  0
   -4.0433   -3.7186   -0.4486 H   0  0  0  0  0  0  0  0  0  0  0  0
   -2.7532   -2.5046    0.7444 C   0  0  0  0  0  0  0  0  0  0  0  0
   -1.9803   -2.8096    1.6434 O   0  0  0  0  0  0  0  0  0  0  0  0
   -2.5332   -1.4966   -0.0966 N   0  0  0  0  0  0  0  0  0  0  0  0
   -3.2312   -1.2816   -0.7936 H   0  0  0  0  0  0  0  0  0  0  0  0
   -1.3593   -0.6196   -0.0536 C   0  0  1  0  0  0  0  0  0  0  0  0
   -0.4622   -1.2317   -0.1545 H   0  0  0  0  0  0  0  0  0  0  0  0
   -1.4074    0.3593   -1.2373 C   0  0  0  0  0  0  0  0  0  0  0  0
   -0.5169    0.9899   -1.2085 H   0  0  0  0  0  0  0  0  0  0  0  0
   -1.3753   -0.2152   -2.1646 H   0  0  0  0  0  0  0  0  0  0  0  0
   -2.6084    1.2549   -1.2747 C   0  0  0  0  0  0  0  0  0  0  0  0
   -3.7414    1.0817   -0.5576 C   0  0  0  0  0  0  0  0  0  0  0  0
   -3.9219    0.2553    0.1211 H   0  0  0  0  0  0  0  0  0  0  0  0
   -4.6132    2.1231   -0.8084 N   0  0  0  0  0  0  0  0  0  0  0  0
   -5.5261    2.1997   -0.3841 H   0  0  0  0  0  0  0  0  0  0  0  0
   -4.0752    3.0338   -1.6927 C   0  0  0  0  0  0  0  0  0  0  0  0
   -4.5437    4.2430   -2.2262 C   0  0  0  0  0  0  0  0  0  0  0  0
   -5.5178    4.6210   -1.9529 H   0  0  0  0  0  0  0  0  0  0  0  0
   -3.7286    4.9549   -3.1228 C   0  0  0  0  0  0  0  0  0  0  0  0
   -4.0738    5.8889   -3.5453 H   0  0  0  0  0  0  0  0  0  0  0  0
   -2.4648    4.4474   -3.4757 C   0  0  0  0  0  0  0  0  0  0  0  0
   -1.8445    4.9942   -4.1723 H   0  0  0  0  0  0  0  0  0  0  0  0
   -2.0050    3.2299   -2.9348 C   0  0  0  0  0  0  0  0  0  0  0  0
   -1.0377    2.8446   -3.2246 H   0  0  0  0  0  0  0  0  0  0  0  0
   -2.7971    2.4941   -2.0269 C   0  0  0  0  0  0  0  0  0  0  0  0
   -1.2663    0.1182    1.2910 C   0  0  0  0  0  0  0  0  0  0  0  0
   -0.1906    0.1931    1.8833 O   0  0  0  0  0  0  0  0  0  0  0  0
   -2.3930    0.6605    1.7722 N   0  0  0  0  0  0  0  0  0  0  0  0
   -3.2451    0.5077    1.2518 H   0  0  0  0  0  0  0  0  0  0  0  0
   -2.4787    1.3954    3.0311 C   0  0  0  0  0  0  0  0  0  0  0  0
   -1.7166    2.1767    3.0539 H   0  0  0  0  0  0  0  0  0  0  0  0
   -3.4649    1.8498    3.1344 H   0  0  0  0  0  0  0  0  0  0  0  0
   -2.3058    0.7133    3.8652 H   0  0  0  0  0  0  0  0  0  0  0  0
  5  6  2  0  0  0  0
  5  7  1  0  0  0  0
  2  3  1  0  0  0  0
  2  4  1  0  0  0  0
  2  5  1  0  0  0  0
  1  2  1  0  0  0  0
 29 30  2  0  0  0  0
 29 31  1  0  0  0  0
 26 27  1  0  0  0  0
 26 28  2  0  0  0  0
 24 25  1  0  0  0  0
 24 26  1  0  0  0  0
 22 23  1  0  0  0  0
 22 24  2  0  0  0  0
 20 21  1  0  0  0  0
 20 22  1  0  0  0  0
 19 20  2  0  0  0  0
 19 28  1  0  0  0  0
 17 18  1  0  0  0  0
 17 19  1  0  0  0  0
 15 16  1  0  0  0  0
 15 17  1  0  0  0  0
 14 15  2  0  0  0  0
 14 28  1  0  0  0  0
 11 12  1  0  0  0  0
 11 13  1  0  0  0  0
 11 14  1  0  0  0  0
  9 10  1  0  0  0  0
  9 11  1  0  0  0  0
  9 29  1  0  0  0  0
  7  8  1  0  0  0  0
  7  9  1  0  0  0  0
 33 34  1  0  0  0  0
 33 35  1  0  0  0  0
 33 36  1  0  0  0  0
 31 32  1  0  0  0  0
 31 33  1  0  0  0  0
M  END
$$$$
default_name
  -OEChem-02102213163D

 36 37  0     1  0  0  0  0  0999 V2000
   -4.0843   -4.0736    1.2944 H   0  0  0  0  0  0  0  0  0  0  0  0
   -4.0342   -3.2816    0.5484 C   0  0  0  0  0  0  0  0  0  0  0  0
   -4.8842   -2.6126    0.6694 H   0  0  0  0  0  0  0  0  0  0  0  0
   -4.0433   -3.7186   -0.4486 H   0  0  0  0  0  0  0  0  0  0  0  0
   -2.7532   -2.5046    0.7444 C   0  0  0  0  0  0  0  0  0  0  0  0
   -1.9803   -2.8096    1.6434 O   0  0  0  0  0  0  0  0  0  0  0  0
   -2.5332   -1.4966   -0.0966 N   0  0  0  0  0  0  0  0  0  0  0  0
   -3.2312   -1.2816   -0.7936 H   0  0  0  0  0  0  0  0  0  0  0  0
   -1.3593   -0.6196   -0.0536 C   0  0  1  0  0  0  0  0  0  0  0  0
   -0.4622   -1.2317   -0.1545 H   0  0  0  0  0  0  0  0  0  0  0  0
   -1.4074    0.3593   -1.2373 C   0  0  0  0  0  0  0  0  0  0  0  0
   -0.5169    0.9899   -1.2085 H   0  0  0  0  0  0  0  0  0  0  0  0
   -1.3753   -0.2152   -2.1646 H   0  0  0  0  0  0  0  0  0  0  0  0
   -2.6084    1.2549   -1.2747 C   0  0  0  0  0  0  0  0  0  0  0  0
   -3.6144    1.2597   -0.3716 C   0  0  0  0  0  0  0  0  0  0  0  0
   -3.6793    0.5959    0.4836 H   0  0  0  0  0  0  0  0  0  0  0  0
   -4.5249    2.2462   -0.6961 N   0  0  0  0  0  0  0  0  0  0  0  0
   -5.3615    2.4297   -0.1616 H   0  0  0  0  0  0  0  0  0  0  0  0
   -4.1398    2.9417   -1.8225 C   0  0  0  0  0  0  0  0  0  0  0  0
   -4.6974    4.0247   -2.5171 C   0  0  0  0  0  0  0  0  0  0  0  0
   -5.6209    4.4732   -2.1817 H   0  0  0  0  0  0  0  0  0  0  0  0
   -4.0386    4.5170   -3.6567 C   0  0  0  0  0  0  0  0  0  0  0  0
   -4.4544    5.3510   -4.2058 H   0  0  0  0  0  0  0  0  0  0  0  0
   -2.8400    3.9187   -4.0867 C   0  0  0  0  0  0  0  0  0  0  0  0
   -2.3409    4.2953   -4.9688 H   0  0  0  0  0  0  0  0  0  0  0  0
   -2.2897    2.8294   -3.3818 C   0  0  0  0  0  0  0  0  0  0  0  0
   -1.3755    2.3706   -3.7306 H   0  0  0  0  0  0  0  0  0  0  0  0
   -2.9239    2.3156   -2.2299 C   0  0  0  0  0  0  0  0  0  0  0  0
   -1.2663    0.1182    1.2910 C   0  0  0  0  0  0  0  0  0  0  0  0
   -0.1906    0.1931    1.8833 O   0  0  0  0  0  0  0  0  0  0  0  0
   -2.3930    0.6605    1.7722 N   0  0  0  0  0  0  0  0  0  0  0  0
   -3.2451    0.5077    1.2518 H   0  0  0  0  0  0  0  0  0  0  0  0
   -2.4787    1.3954    3.0311 C   0  0  0  0  0  0  0  0  0  0  0  0
   -1.7166    2.1767    3.0539 H   0  0  0  0  0  0  0  0  0  0  0  0
   -3.4649    1.8498    3.1344 H   0  0  0  0  0  0  0  0  0  0  0  0
   -2.3058    0.7133    3.8652 H   0  0  0  0  0  0  0  0  0  0  0  0
  5  6  2  0  0  0  0
  5  7  1  0  0  0  0
  2  3  1  0  0  0  0
  2  4  1  0  0  0  0
  2  5  1  0  0  0  0
  1  2  1  0  0  0  0
 29 30  2  0  0  0  0
 29 31  1  0  0  0  0
 26 27  1  0  0  0  0
 26 28  2  0  0  0  0
 24 25  1  0  0  0  0
 24 26  1  0  0  0  0
 22 23  1  0  0  0  0
 22 24  2  0  0  0  0
 20 21  1  0  0  0  0
 20 22  1  0  0  0  0
 19 20  2  0  0  0  0
 19 28  1  0  0  0  0
 17 18  1  0  0  0  0
 17 19  1  0  0  0  0
 15 16  1  0  0  0  0
 15 17  1  0  0  0  0
 14 15  2  0  0  0  0
 14 28  1  0  0  0  0
 11 12  1  0  0  0  0
 11 13  1  0  0  0  0
 11 14  1  0  0  0  0
  9 10  1  0  0  0  0
  9 11  1  0  0  0  0
  9 29  1  0  0  0  0
  7  8  1  0  0  0  0
  7  9  1  0  0  0  0
 33 34  1  0  0  0  0
 33 35  1  0  0  0  0
 33 36  1  0  0  0  0
 31 32  1  0  0  0  0
 31 33  1  0  0  0  0
M  END
$$$$
default_name
  -OEChem-02102213163D

 36 37  0     1  0  0  0  0  0999 V2000
   -4.0843   -4.0736    1.2944 H   0  0  0  0  0  0  0  0  0  0  0  0
   -4.0342   -3.2816    0.5484 C   0  0  0  0  0  0  0  0  0  0  0  0
   -4.8842   -2.6126    0.6694 H   0  0  0  0  0  0  0  0  0  0  0  0
   -4.0433   -3.7186   -0.4486 H   0  0  0  0  0  0  0  0  0  0  0  0
   -2.7532   -2.5046    0.7444 C   0  0  0  0  0  0  0  0  0  0  0  0
   -1.9803   -2.8096    1.6434 O   0  0  0  0  0  0  0  0  0  0  0  0
   -2.5332   -1.4966   -0.0966 N   0  0  0  0  0  0  0  0  0  0  0  0
   -3.2312   -1.2816   -0.7936 H   0  0  0  0  0  0  0  0  0  0  0  0
   -1.3593   -0.6196   -0.0536 C   0  0  1  0  0  0  0  0  0  0  0  0
   -0.4622   -1.2317   -0.1545 H   0  0  0  0  0  0  0  0  0  0  0  0
   -1.4074    0.3593   -1.2373 C   0  0  0  0  0  0  0  0  0  0  0  0
   -0.5169    0.9899   -1.2085 H   0  0  0  0  0  0  0  0  0  0  0  0
   -1.3753   -0.2152   -2.1646 H   0  0  0  0  0  0  0  0  0  0  0  0
   -2.6084    1.2549   -1.2747 C   0  0  0  0  0  0  0  0  0  0  0  0
   -3.4619    1.4693   -0.2484 C   0  0  0  0  0  0  0  0  0  0  0  0
   -3.3865    0.9986    0.7257 H   0  0  0  0  0  0  0  0  0  0  0  0
   -4.4215    2.3878   -0.6268 N   0  0  0  0  0  0  0  0  0  0  0  0
   -5.1666    2.6970   -0.0199 H   0  0  0  0  0  0  0  0  0  0  0  0
   -4.2229    2.8263   -1.9187 C   0  0  0  0  0  0  0  0  0  0  0  0
   -4.8922    3.7545   -2.7291 C   0  0  0  0  0  0  0  0  0  0  0  0
   -5.7569    4.2836   -2.3561 H   0  0  0  0  0  0  0  0  0  0  0  0
   -4.4234    3.9852   -4.0337 C   0  0  0  0  0  0  0  0  0  0  0  0
   -4.9276    4.6968   -4.6735 H   0  0  0  0  0  0  0  0  0  0  0  0
   -3.3003    3.2838   -4.5091 C   0  0  0  0  0  0  0  0  0  0  0  0
   -2.9480    3.4583   -5.5164 H   0  0  0  0  0  0  0  0  0  0  0  0
   -2.6365    2.3517   -3.6865 C   0  0  0  0  0  0  0  0  0  0  0  0
   -1.7830    1.8099   -4.0688 H   0  0  0  0  0  0  0  0  0  0  0  0
   -3.0789    2.1019   -2.3694 C   0  0  0  0  0  0  0  0  0  0  0  0
   -1.2663    0.1182    1.2910 C   0  0  0  0  0  0  0  0  0  0  0  0
   -0.1906    0.1931    1.8833 O   0  0  0  0  0  0  0  0  0  0  0  0
   -2.3930    0.6605    1.7722 N   0  0  0  0  0  0  0  0  0  0  0  0
   -3.2451    0.5077    1.2518 H   0  0  0  0  0  0  0  0  0  0  0  0
   -2.4787    1.3954    3.0311 C   0  0  0  0  0  0  0  0  0  0  0  0
   -1.7166    2.1767    3.0539 H   0  0  0  0  0  0  0  0  0  0  0  0
   -3.4649    1.8498    3.1344 H   0  0  0  0  0  0  0  0  0  0  0  0
   -2.3058    0.7133    3.8652 H   0  0  0  0  0  0  0  0  0  0  0  0
  5  6  2  0  0  0  0
  5  7  1  0  0  0  0
  2  3  1  0  0  0  0
  2  4  1  0  0  0  0
  2  5  1  0  0  0  0
  1  2  1  0  0  0  0
 29 30  2  0  0  0  0
 29 31  1  0  0  0  0
 26 27  1  0  0  0  0
 26 28  2  0  0  0  0
 24 25  1  0  0  0  0
 24 26  1  0  0  0  0
 22 23  1  0  0  0  0
 22 24  2  0  0  0  0
 20 21  1  0  0  0  0
 20 22  1  0  0  0  0
 19 20  2  0  0  0  0
 19 28  1  0  0  0  0
 17 18  1  0  0  0  0
 17 19  1  0  0  0  0
 15 16  1  0  0  0  0
 15 17  1  0  0  0  0
 14 15  2  0  0  0  0
 14 28  1  0  0  0  0
 11 12  1  0  0  0  0
 11 13  1  0  0  0  0
 11 14  1  0  0  0  0
  9 10  1  0  0  0  0
  9 11  1  0  0  0  0
  9 29  1  0  0  0  0
  7  8  1  0  0  0  0
  7  9  1  0  0  0  0
 33 34  1  0  0  0  0
 33 35  1  0  0  0  0
 33 36  1  0  0  0  0
 31 32  1  0  0  0  0
 31 33  1  0  0  0  0
M  END
$$$$
default_name
  -OEChem-02102213163D

 36 37  0     1  0  0  0  0  0999 V2000
   -4.0843   -4.0736    1.2944 H   0  0  0  0  0  0  0  0  0  0  0  0
   -4.0342   -3.2816    0.5484 C   0  0  0  0  0  0  0  0  0  0  0  0
   -4.8842   -2.6126    0.6694 H   0  0  0  0  0  0  0  0  0  0  0  0
   -4.0433   -3.7186   -0.4486 H   0  0  0  0  0  0  0  0  0  0  0  0
   -2.7532   -2.5046    0.7444 C   0  0  0  0  0  0  0  0  0  0  0  0
   -1.9803   -2.8096    1.6434 O   0  0  0  0  0  0  0  0  0  0  0  0
   -2.5332   -1.4966   -0.0966 N   0  0  0  0  0  0  0  0  0  0  0  0
   -3.2312   -1.2816   -0.7936 H   0  0  0  0  0  0  0  0  0  0  0  0
   -1.3593   -0.6196   -0.0536 C   0  0  1  0  0  0  0  0  0  0  0  0
   -0.4622   -1.2317   -0.1545 H   0  0  0  0  0  0  0  0  0  0  0  0
   -1.4074    0.3593   -1.2373 C   0  0  0  0  0  0  0  0  0  0  0  0
   -0.5169    0.9899   -1.2085 H   0  0  0  0  0  0  0  0  0  0  0  0
   -1.3753   -0.2152   -2.1646 H   0  0  0  0  0  0  0  0  0  0  0  0
   -2.6084    1.2549   -1.2747 C   0  0  0  0  0  0  0  0  0  0  0  0
   -3.2942    1.6964   -0.1965 C   0  0  0  0  0  0  0  0  0  0  0  0
   -3.0638    1.4358    0.8307 H   0  0  0  0  0  0  0  0  0  0  0  0
   -4.3099    2.5383   -0.6052 N   0  0  0  0  0  0  0  0  0  0  0  0
   -4.9547    2.9833    0.0315 H   0  0  0  0  0  0  0  0  0  0  0  0
   -4.3187    2.6953   -1.9749 C   0  0  0  0  0  0  0  0  0  0  0  0
   -5.1150    3.4508   -2.8476 C   0  0  0  0  0  0  0  0  0  0  0  0
   -5.9164    4.0652   -2.4642 H   0  0  0  0  0  0  0  0  0  0  0  0
   -4.8568    3.3958   -4.2280 C   0  0  0  0  0  0  0  0  0  0  0  0
   -5.4613    3.9709   -4.9163 H   0  0  0  0  0  0  0  0  0  0  0  0
   -3.8144    2.5859   -4.7143 C   0  0  0  0  0  0  0  0  0  0  0  0
   -3.6245    2.5401   -5.7778 H   0  0  0  0  0  0  0  0  0  0  0  0
   -3.0217    1.8292   -3.8281 C   0  0  0  0  0  0  0  0  0  0  0  0
   -2.2326    1.2008   -4.2161 H   0  0  0  0  0  0  0  0  0  0  0  0
   -3.2516    1.8676   -2.4358 C   0  0  0  0  0  0  0  0  0  0  0  0
   -1.2663    0.1182    1.2910 C   0  0  0  0  0  0  0  0  0  0  0  0
   -0.1906    0.1931    1.8833 O   0  0  0  0  0  0  0  0  0  0  0  0
   -2.3930    0.6605    1.7722 N   0  0  0  0  0  0  0  0  0  0  0  0
   -3.2451    0.5077    1.2518 H   0  0  0  0  0  0  0  0  0  0  0  0
   -2.4787    1.3954    3.0311 C   0  0  0  0  0  0  0  0  0  0  0  0
   -1.7166    2.1767    3.0539 H   0  0  0  0  0  0  0  0  0  0  0  0
   -3.4649    1.8498    3.1344 H   0  0  0  0  0  0  0  0  0  0  0  0
   -2.3058    0.7133    3.8652 H   0  0  0  0  0  0  0  0  0  0  0  0
  5  6  2  0  0  0  0
  5  7  1  0  0  0  0
  2  3  1  0  0  0  0
  2  4  1  0  0  0  0
  2  5  1  0  0  0  0
  1  2  1  0  0  0  0
 29 30  2  0  0  0  0
 29 31  1  0  0  0  0
 26 27  1  0  0  0  0
 26 28  2  0  0  0  0
 24 25  1  0  0  0  0
 24 26  1  0  0  0  0
 22 23  1  0  0  0  0
 22 24  2  0  0  0  0
 20 21  1  0  0  0  0
 20 22  1  0  0  0  0
 19 20  2  0  0  0  0
 19 28  1  0  0  0  0
 17 18  1  0  0  0  0
 17 19  1  0  0  0  0
 15 16  1  0  0  0  0
 15 17  1  0  0  0  0
 14 15  2  0  0  0  0
 14 28  1  0  0  0  0
 11 12  1  0  0  0  0
 11 13  1  0  0  0  0
 11 14  1  0  0  0  0
  9 10  1  0  0  0  0
  9 11  1  0  0  0  0
  9 29  1  0  0  0  0
  7  8  1  0  0  0  0
  7  9  1  0  0  0  0
 33 34  1  0  0  0  0
 33 35  1  0  0  0  0
 33 36  1  0  0  0  0
 31 32  1  0  0  0  0
 31 33  1  0  0  0  0
M  END
$$$$
default_name
  -OEChem-02102213163D

 36 37  0     1  0  0  0  0  0999 V2000
   -4.0843   -4.0736    1.2944 H   0  0  0  0  0  0  0  0  0  0  0  0
   -4.0342   -3.2816    0.5484 C   0  0  0  0  0  0  0  0  0  0  0  0
   -4.8842   -2.6126    0.6694 H   0  0  0  0  0  0  0  0  0  0  0  0
   -4.0433   -3.7186   -0.4486 H   0  0  0  0  0  0  0  0  0  0  0  0
   -2.7532   -2.5046    0.7444 C   0  0  0  0  0  0  0  0  0  0  0  0
   -1.9803   -2.8096    1.6434 O   0  0  0  0  0  0  0  0  0  0  0  0
   -2.5332   -1.4966   -0.0966 N   0  0  0  0  0  0  0  0  0  0  0  0
   -3.2312   -1.2816   -0.7936 H   0  0  0  0  0  0  0  0  0  0  0  0
   -1.3593   -0.6196   -0.0536 C   0  0  1  0  0  0  0  0  0  0  0  0
   -0.4622   -1.2317   -0.1545 H   0  0  0  0  0  0  0  0  0  0  0  0
   -1.4074    0.3593   -1.2373 C   0  0  0  0  0  0  0  0  0  0  0  0
   -0.5169    0.9899   -1.2085 H   0  0  0  0  0  0  0  0  0  0  0  0
   -1.3753   -0.2152   -2.1646 H   0  0  0  0  0  0  0  0  0  0  0  0
   -2.6084    1.2549   -1.2747 C   0  0  0  0  0  0  0  0  0  0  0  0
   -3.1227    1.9254   -0.2194 C   0  0  0  0  0  0  0  0  0  0  0  0
   -2.7330    1.8779    0.7915 H   0  0  0  0  0  0  0  0  0  0  0  0
   -4.1978    2.6875   -0.6329 N   0  0  0  0  0  0  0  0  0  0  0  0
   -4.7403    3.2691   -0.0111 H   0  0  0  0  0  0  0  0  0  0  0  0
   -4.4209    2.5578   -1.9872 C   0  0  0  0  0  0  0  0  0  0  0  0
   -5.3505    3.1343   -2.8647 C   0  0  0  0  0  0  0  0  0  0  0  0
   -6.0885    3.8328   -2.4986 H   0  0  0  0  0  0  0  0  0  0  0  0
   -5.3093    2.7891   -4.2263 C   0  0  0  0  0  0  0  0  0  0  0  0
   -6.0190    3.2229   -4.9177 H   0  0  0  0  0  0  0  0  0  0  0  0
   -4.3471    1.8725   -4.6882 C   0  0  0  0  0  0  0  0  0  0  0  0
   -4.3244    1.6033   -5.7352 H   0  0  0  0  0  0  0  0  0  0  0  0
   -3.4190    1.2977   -3.7969 C   0  0  0  0  0  0  0  0  0  0  0  0
   -2.6936    0.5848   -4.1626 H   0  0  0  0  0  0  0  0  0  0  0  0
   -3.4301    1.6285   -2.4246 C   0  0  0  0  0  0  0  0  0  0  0  0
   -1.2663    0.1182    1.2910 C   0  0  0  0  0  0  0  0  0  0  0  0
   -0.1906    0.1931    1.8833 O   0  0  0  0  0  0  0  0  0  0  0  0
   -2.3930    0.6605    1.7722 N   0  0  0  0  0  0  0  0  0  0  0  0
   -3.2451    0.5077    1.2518 H   0  0  0  0  0  0  0  0  0  0  0  0
   -2.4787    1.3954    3.0311 C   0  0  0  0  0  0  0  0  0  0  0  0
   -1.7166    2.1767    3.0539 H   0  0  0  0  0  0  0  0  0  0  0  0
   -3.4649    1.8498    3.1344 H   0  0  0  0  0  0  0  0  0  0  0  0
   -2.3058    0.7133    3.8652 H   0  0  0  0  0  0  0  0  0  0  0  0
  5  6  2  0  0  0  0
  5  7  1  0  0  0  0
  2  3  1  0  0  0  0
  2  4  1  0  0  0  0
  2  5  1  0  0  0  0
  1  2  1  0  0  0  0
 29 30  2  0  0  0  0
 29 31  1  0  0  0  0
 26 27  1  0  0  0  0
 26 28  2  0  0  0  0
 24 25  1  0  0  0  0
 24 26  1  0  0  0  0
 22 23  1  0  0  0  0
 22 24  2  0  0  0  0
 20 21  1  0  0  0  0
 20 22  1  0  0  0  0
 19 20  2  0  0  0  0
 19 28  1  0  0  0  0
 17 18  1  0  0  0  0
 17 19  1  0  0  0  0
 15 16  1  0  0  0  0
 15 17  1  0  0  0  0
 14 15  2  0  0  0  0
 14 28  1  0  0  0  0
 11 12  1  0  0  0  0
 11 13  1  0  0  0  0
 11 14  1  0  0  0  0
  9 10  1  0  0  0  0
  9 11  1  0  0  0  0
  9 29  1  0  0  0  0
  7  8  1  0  0  0  0
  7  9  1  0  0  0  0
 33 34  1  0  0  0  0
 33 35  1  0  0  0  0
 33 36  1  0  0  0  0
 31 32  1  0  0  0  0
 31 33  1  0  0  0  0
M  END
$$$$
default_name
  -OEChem-02102213163D

 36 37  0     1  0  0  0  0  0999 V2000
   -4.0843   -4.0736    1.2944 H   0  0  0  0  0  0  0  0  0  0  0  0
   -4.0342   -3.2816    0.5484 C   0  0  0  0  0  0  0  0  0  0  0  0
   -4.8842   -2.6126    0.6694 H   0  0  0  0  0  0  0  0  0  0  0  0
   -4.0433   -3.7186   -0.4486 H   0  0  0  0  0  0  0  0  0  0  0  0
   -2.7532   -2.5046    0.7444 C   0  0  0  0  0  0  0  0  0  0  0  0
   -1.9803   -2.8096    1.6434 O   0  0  0  0  0  0  0  0  0  0  0  0
   -2.5332   -1.4966   -0.0966 N   0  0  0  0  0  0  0  0  0  0  0  0
   -3.2312   -1.2816   -0.7936 H   0  0  0  0  0  0  0  0  0  0  0  0
   -1.3593   -0.6196   -0.0536 C   0  0  1  0  0  0  0  0  0  0  0  0
   -0.4622   -1.2317   -0.1545 H   0  0  0  0  0  0  0  0  0  0  0  0
   -1.4074    0.3593   -1.2373 C   0  0  0  0  0  0  0  0  0  0  0  0
   -0.5169    0.9899   -1.2085 H   0  0  0  0  0  0  0  0  0  0  0  0
   -1.3753   -0.2152   -2.1646 H   0  0  0  0  0  0  0  0  0  0  0  0
   -2.6084    1.2549   -1.2747 C   0  0  0  0  0  0  0  0  0  0  0  0
   -2.9591    2.1408   -0.3156 C   0  0  0  0  0  0  0  0  0  0  0  0
   -2.4166    2.2946    0.6108 H   0  0  0  0  0  0  0  0  0  0  0  0
   -4.0929    2.8251   -0.7079 N   0  0  0  0  0  0  0  0  0  0  0  0
   -4.5379    3.5350   -0.1447 H   0  0  0  0  0  0  0  0  0  0  0  0
   -4.5223    2.4231   -1.9548 C   0  0  0  0  0  0  0  0  0  0  0  0
   -5.5826    2.8266   -2.7791 C   0  0  0  0  0  0  0  0  0  0  0  0
   -6.2617    3.6024   -2.4571 H   0  0  0  0  0  0  0  0  0  0  0  0
   -5.7501    2.2062   -4.0289 C   0  0  0  0  0  0  0  0  0  0  0  0
   -6.5628    2.5036   -4.6777 H   0  0  0  0  0  0  0  0  0  0  0  0
   -4.8623    1.1922   -4.4327 C   0  0  0  0  0  0  0  0  0  0  0  0
   -4.9998    0.7118   -5.3915 H   0  0  0  0  0  0  0  0  0  0  0  0
   -3.8013    0.7933   -3.5951 C   0  0  0  0  0  0  0  0  0  0  0  0
   -3.1346    0.0039   -3.9118 H   0  0  0  0  0  0  0  0  0  0  0  0
   -3.6024    1.4011   -2.3366 C   0  0  0  0  0  0  0  0  0  0  0  0
   -1.2663    0.1182    1.2910 C   0  0  0  0  0  0  0  0  0  0  0  0
   -0.1906    0.1931    1.8833 O   0  0  0  0  0  0  0  0  0  0  0  0
   -2.3930    0.6605    1.7722 N   0  0  0  0  0  0  0  0  0  0  0  0
   -3.2451    0.5077    1.2518 H   0  0  0  0  0  0  0  0  0  0  0  0
   -2.4787    1.3954    3.0311 C   0  0  0  0  0  0  0  0  0  0  0  0
   -1.7166    2.1767    3.0539 H   0  0  0  0  0  0  0  0  0  0  0  0
   -3.4649    1.8498    3.1344 H   0  0  0  0  0  0  0  0  0  0  0  0
   -2.3058    0.7133    3.8652 H   0  0  0  0  0  0  0  0  0  0  0  0
  5  6  2  0  0  0  0
  5  7  1  0  0  0  0
  2  3  1  0  0  0  0
  2  4  1  0  0  0  0
  2  5  1  0  0  0  0
  1  2  1  0  0  0  0
 29 30  2  0  0  0  0
 29 31  1  0  0  0  0
 26 27  1  0  0  0  0
 26 28  2  0  0  0  0
 24 25  1  0  0  0  0
 24 26  1  0  0  0  0
 22 23  1  0  0  0  0
 22 24  2  0  0  0  0
 20 21  1  0  0  0  0
 20 22  1  0  0  0  0
 19 20  2  0  0  0  0
 19 28  1  0  0  0  0
 17 18  1  0  0  0  0
 17 19  1  0  0  0  0
 15 16  1  0  0  0  0
 15 17  1  0  0  0  0
 14 15  2  0  0  0  0
 14 28  1  0  0  0  0
 11 12  1  0  0  0  0
 11 13  1  0  0  0  0
 11 14  1  0  0  0  0
  9 10  1  0  0  0  0
  9 11  1  0  0  0  0
  9 29  1  0  0  0  0
  7  8  1  0  0  0  0
  7  9  1  0  0  0  0
 33 34  1  0  0  0  0
 33 35  1  0  0  0  0
 33 36  1  0  0  0  0
 31 32  1  0  0  0  0
 31 33  1  0  0  0  0
M  END
$$$$
default_name
  -OEChem-02102213163D

 36 37  0     1  0  0  0  0  0999 V2000
   -4.0843   -4.0736    1.2944 H   0  0  0  0  0  0  0  0  0  0  0  0
   -4.0342   -3.2816    0.5484 C   0  0  0  0  0  0  0  0  0  0  0  0
   -4.8842   -2.6126    0.6694 H   0  0  0  0  0  0  0  0  0  0  0  0
   -4.0433   -3.7186   -0.4486 H   0  0  0  0  0  0  0  0  0  0  0  0
   -2.7532   -2.5046    0.7444 C   0  0  0  0  0  0  0  0  0  0  0  0
   -1.9803   -2.8096    1.6434 O   0  0  0  0  0  0  0  0  0  0  0  0
   -2.5332   -1.4966   -0.0966 N   0  0  0  0  0  0  0  0  0  0  0  0
   -3.2312   -1.2816   -0.7936 H   0  0  0  0  0  0  0  0  0  0  0  0
   -1.3593   -0.6196   -0.0536 C   0  0  1  0  0  0  0  0  0  0  0  0
   -0.4622   -1.2317   -0.1545 H   0  0  0  0  0  0  0  0  0  0  0  0
   -1.4074    0.3593   -1.2373 C   0  0  0  0  0  0  0  0  0  0  0  0
   -0.5169    0.9899   -1.2085 H   0  0  0  0  0  0  0  0  0  0  0  0
   -1.3753   -0.2152   -2.1646 H   0  0  0  0  0  0  0  0  0  0  0  0
   -2.6084    1.2549   -1.2747 C   0  0  0  0  0  0  0  0  0  0  0  0
   -2.8146    2.3278   -0.4784 C   0  0  0  0  0  0  0  0  0  0  0  0
   -2.1363    2.6575    0.3009 H   0  0  0  0  0  0  0  0  0  0  0  0
   -4.0023    2.9417   -0.8251 N   0  0  0  0  0  0  0  0  0  0  0  0
   -4.3613    3.7628   -0.3601 H   0  0  0  0  0  0  0  0  0  0  0  0
   -4.6162    2.3004   -1.8798 C   0  0  0  0  0  0  0  0  0  0  0  0
   -5.7956    2.5486   -2.5967 C   0  0  0  0  0  0  0  0  0  0  0  0
   -6.4240    3.3895   -2.3424 H   0  0  0  0  0  0  0  0  0  0  0  0
   -6.1490    1.6870   -3.6491 C   0  0  0  0  0  0  0  0  0  0  0  0
   -7.0556    1.8622   -4.2125 H   0  0  0  0  0  0  0  0  0  0  0  0
   -5.3248    0.5915   -3.9650 C   0  0  0  0  0  0  0  0  0  0  0  0
   -5.6049   -0.0737   -4.7701 H   0  0  0  0  0  0  0  0  0  0  0  0
   -4.1427    0.3505   -3.2364 C   0  0  0  0  0  0  0  0  0  0  0  0
   -3.5255   -0.5024   -3.4808 H   0  0  0  0  0  0  0  0  0  0  0  0
   -3.7567    1.2008   -2.1778 C   0  0  0  0  0  0  0  0  0  0  0  0
   -1.2663    0.1182    1.2910 C   0  0  0  0  0  0  0  0  0  0  0  0
   -0.1906    0.1931    1.8833 O   0  0  0  0  0  0  0  0  0  0  0  0
   -2.3930    0.6605    1.7722 N   0  0  0  0  0  0  0  0  0  0  0  0
   -3.2451    0.5077    1.2518 H   0  0  0  0  0  0  0  0  0  0  0  0
   -2.4787    1.3954    3.0311 C   0  0  0  0  0  0  0  0  0  0  0  0
   -1.7166    2.1767    3.0539 H   0  0  0  0  0  0  0  0  0  0  0  0
   -3.4649    1.8498    3.1344 H   0  0  0  0  0  0  0  0  0  0  0  0
   -2.3058    0.7133    3.8652 H   0  0  0  0  0  0  0  0  0  0  0  0
  5  6  2  0  0  0  0
  5  7  1  0  0  0  0
  2  3  1  0  0  0  0
  2  4  1  0  0  0  0
  2  5  1  0  0  0  0
  1  2  1  0  0  0  0
 29 30  2  0  0  0  0
 29 31  1  0  0  0  0
 26 27  1  0  0  0  0
 26 28  2  0  0  0  0
 24 25  1  0  0  0  0
 24 26  1  0  0  0  0
 22 23  1  0  0  0  0
 22 24  2  0  0  0  0
 20 21  1  0  0  0  0
 20 22  1  0  0  0  0
 19 20  2  0  0  0  0
 19 28  1  0  0  0  0
 17 18  1  0  0  0  0
 17 19  1  0  0  0  0
 15 16  1  0  0  0  0
 15 17  1  0  0  0  0
 14 15  2  0  0  0  0
 14 28  1  0  0  0  0
 11 12  1  0  0  0  0
 11 13  1  0  0  0  0
 11 14  1  0  0  0  0
  9 10  1  0  0  0  0
  9 11  1  0  0  0  0
  9 29  1  0  0  0  0
  7  8  1  0  0  0  0
  7  9  1  0  0  0  0
 33 34  1  0  0  0  0
 33 35  1  0  0  0  0
 33 36  1  0  0  0  0
 31 32  1  0  0  0  0
 31 33  1  0  0  0  0
M  END
$$$$
default_name
  -OEChem-02102213163D

 36 37  0     1  0  0  0  0  0999 V2000
   -4.0843   -4.0736    1.2944 H   0  0  0  0  0  0  0  0  0  0  0  0
   -4.0342   -3.2816    0.5484 C   0  0  0  0  0  0  0  0  0  0  0  0
   -4.8842   -2.6126    0.6694 H   0  0  0  0  0  0  0  0  0  0  0  0
   -4.0433   -3.7186   -0.4486 H   0  0  0  0  0  0  0  0  0  0  0  0
   -2.7532   -2.5046    0.7444 C   0  0  0  0  0  0  0  0  0  0  0  0
   -1.9803   -2.8096    1.6434 O   0  0  0  0  0  0  0  0  0  0  0  0
   -2.5332   -1.4966   -0.0966 N   0  0  0  0  0  0  0  0  0  0  0  0
   -3.2312   -1.2816   -0.7936 H   0  0  0  0  0  0  0  0  0  0  0  0
   -1.3593   -0.6196   -0.0536 C   0  0  1  0  0  0  0  0  0  0  0  0
   -0.4622   -1.2317   -0.1545 H   0  0  0  0  0  0  0  0  0  0  0  0
   -1.4074    0.3593   -1.2373 C   0  0  0  0  0  0  0  0  0  0  0  0
   -0.5169    0.9899   -1.2085 H   0  0  0  0  0  0  0  0  0  0  0  0
   -1.3753   -0.2152   -2.1646 H   0  0  0  0  0  0  0  0  0  0  0  0
   -2.6084    1.2549   -1.2747 C   0  0  0  0  0  0  0  0  0  0  0  0
   -2.6990    2.4738   -0.6969 C   0  0  0  0  0  0  0  0  0  0  0  0
   -1.9111    2.9421   -0.1171 H   0  0  0  0  0  0  0  0  0  0  0  0
   -3.9321    3.0296   -0.9765 N   0  0  0  0  0  0  0  0  0  0  0  0
   -4.2226    3.9370   -0.6428 H   0  0  0  0  0  0  0  0  0  0  0  0
   -4.6960    2.1980   -1.7674 C   0  0  0  0  0  0  0  0  0  0  0  0
   -5.9748    2.3193   -2.3299 C   0  0  0  0  0  0  0  0  0  0  0  0
   -6.5644    3.2087   -2.1623 H   0  0  0  0  0  0  0  0  0  0  0  0
   -6.4790    1.2669   -3.1129 C   0  0  0  0  0  0  0  0  0  0  0  0
   -7.4638    1.3423   -3.5539 H   0  0  0  0  0  0  0  0  0  0  0  0
   -5.7031    0.1112   -3.3172 C   0  0  0  0  0  0  0  0  0  0  0  0
   -6.0982   -0.6996   -3.9134 H   0  0  0  0  0  0  0  0  0  0  0  0
   -4.4198   -0.0007   -2.7453 C   0  0  0  0  0  0  0  0  0  0  0  0
   -3.8397   -0.8995   -2.8991 H   0  0  0  0  0  0  0  0  0  0  0  0
   -3.8825    1.0413   -1.9589 C   0  0  0  0  0  0  0  0  0  0  0  0
   -1.2663    0.1182    1.2910 C   0  0  0  0  0  0  0  0  0  0  0  0
   -0.1906    0.1931    1.8833 O   0  0  0  0  0  0  0  0  0  0  0  0
   -2.3930    0.6605    1.7722 N   0  0  0  0  0  0  0  0  0  0  0  0
   -3.2451    0.5077    1.2518 H   0  0  0  0  0  0  0  0  0  0  0  0
   -2.4787    1.3954    3.0311 C   0  0  0  0  0  0  0  0  0  0  0  0
   -1.7166    2.1767    3.0539 H   0  0  0  0  0  0  0  0  0  0  0  0
   -3.4649    1.8498    3.1344 H   0  0  0  0  0  0  0  0  0  0  0  0
   -2.3058    0.7133    3.8652 H   0  0  0  0  0  0  0  0  0  0  0  0
  5  6  2  0  0  0  0
  5  7  1  0  0  0  0
  2  3  1  0  0  0  0
  2  4  1  0  0  0  0
  2  5  1  0  0  0  0
  1  2  1  0  0  0  0
 29 30  2  0  0  0  0
 29 31  1  0  0  0  0
 26 27  1  0  0  0  0
 26 28  2  0  0  0  0
 24 25  1  0  0  0  0
 24 26  1  0  0  0  0
 22 23  1  0  0  0  0
 22 24  2  0  0  0  0
 20 21  1  0  0  0  0
 20 22  1  0  0  0  0
 19 20  2  0  0  0  0
 19 28  1  0  0  0  0
 17 18  1  0  0  0  0
 17 19  1  0  0  0  0
 15 16  1  0  0  0  0
 15 17  1  0  0  0  0
 14 15  2  0  0  0  0
 14 28  1  0  0  0  0
 11 12  1  0  0  0  0
 11 13  1  0  0  0  0
 11 14  1  0  0  0  0
  9 10  1  0  0  0  0
  9 11  1  0  0  0  0
  9 29  1  0  0  0  0
  7  8  1  0  0  0  0
  7  9  1  0  0  0  0
 33 34  1  0  0  0  0
 33 35  1  0  0  0  0
 33 36  1  0  0  0  0
 31 32  1  0  0  0  0
 31 33  1  0  0  0  0
M  END
$$$$
default_name
  -OEChem-02102213163D

 36 37  0     1  0  0  0  0  0999 V2000
   -4.0843   -4.0736    1.2944 H   0  0  0  0  0  0  0  0  0  0  0  0
   -4.0342   -3.2816    0.5484 C   0  0  0  0  0  0  0  0  0  0  0  0
   -4.8842   -2.6126    0.6694 H   0  0  0  0  0  0  0  0  0  0  0  0
   -4.0433   -3.7186   -0.4486 H   0  0  0  0  0  0  0  0  0  0  0  0
   -2.7532   -2.5046    0.7444 C   0  0  0  0  0  0  0  0  0  0  0  0
   -1.9803   -2.8096    1.6434 O   0  0  0  0  0  0  0  0  0  0  0  0
   -2.5332   -1.4966   -0.0966 N   0  0  0  0  0  0  0  0  0  0  0  0
   -3.2312   -1.2816   -0.7936 H   0  0  0  0  0  0  0  0  0  0  0  0
   -1.3593   -0.6196   -0.0536 C   0  0  1  0  0  0  0  0  0  0  0  0
   -0.4622   -1.2317   -0.1545 H   0  0  0  0  0  0  0  0  0  0  0  0
   -1.4074    0.3593   -1.2373 C   0  0  0  0  0  0  0  0  0  0  0  0
   -0.5169    0.9899   -1.2085 H   0  0  0  0  0  0  0  0  0  0  0  0
   -1.3753   -0.2152   -2.1646 H   0  0  0  0  0  0  0  0  0  0  0  0
   -2.6084    1.2549   -1.2747 C   0  0  0  0  0  0  0  0  0  0  0  0
   -2.6202    2.5687   -0.9561 C   0  0  0  0  0  0  0  0  0  0  0  0
   -1.7565    3.1287   -0.6147 H   0  0  0  0  0  0  0  0  0  0  0  0
   -3.8871    3.0825   -1.1518 N   0  0  0  0  0  0  0  0  0  0  0  0
   -4.1312    4.0457   -0.9734 H   0  0  0  0  0  0  0  0  0  0  0  0
   -4.7565    2.1229   -1.6253 C   0  0  0  0  0  0  0  0  0  0  0  0
   -6.1082    2.1543   -1.9969 C   0  0  0  0  0  0  0  0  0  0  0  0
   -6.6734    3.0723   -1.9292 H   0  0  0  0  0  0  0  0  0  0  0  0
   -6.7175    0.9744   -2.4568 C   0  0  0  0  0  0  0  0  0  0  0  0
   -7.7595    0.9793   -2.7468 H   0  0  0  0  0  0  0  0  0  0  0  0
   -5.9714   -0.2159   -2.5333 C   0  0  0  0  0  0  0  0  0  0  0  0
   -6.4463   -1.1233   -2.8798 H   0  0  0  0  0  0  0  0  0  0  0  0
   -4.6138   -0.2363   -2.1552 C   0  0  0  0  0  0  0  0  0  0  0  0
   -4.0558   -1.1604   -2.2062 H   0  0  0  0  0  0  0  0  0  0  0  0
   -3.9712    0.9334   -1.6950 C   0  0  0  0  0  0  0  0  0  0  0  0
   -1.2663    0.1182    1.2910 C   0  0  0  0  0  0  0  0  0  0  0  0
   -0.1906    0.1931    1.8833 O   0  0  0  0  0  0  0  0  0  0  0  0
   -2.3930    0.6605    1.7722 N   0  0  0  0  0  0  0  0  0  0  0  0
   -3.2451    0.5077    1.2518 H   0  0  0  0  0  0  0  0  0  0  0  0
   -2.4787    1.3954    3.0311 C   0  0  0  0  0  0  0  0  0  0  0  0
   -1.7166    2.1767    3.0539 H   0  0  0  0  0  0  0  0  0  0  0  0
   -3.4649    1.8498    3.1344 H   0  0  0  0  0  0  0  0  0  0  0  0
   -2.3058    0.7133    3.8652 H   0  0  0  0  0  0  0  0  0  0  0  0
  5  6  2  0  0  0  0
  5  7  1  0  0  0  0
  2  3  1  0  0  0  0
  2  4  1  0  0  0  0
  2  5  1  0  0  0  0
  1  2  1  0  0  0  0
 29 30  2  0  0  0  0
 29 31  1  0  0  0  0
 26 27  1  0  0  0  0
 26 28  2  0  0  0  0
 24 25  1  0  0  0  0
 24 26  1  0  0  0  0
 22 23  1  0  0  0  0
 22 24  2  0  0  0  0
 20 21  1  0  0  0  0
 20 22  1  0  0  0  0
 19 20  2  0  0  0  0
 19 28  1  0  0  0  0
 17 18  1  0  0  0  0
 17 19  1  0  0  0  0
 15 16  1  0  0  0  0
 15 17  1  0  0  0  0
 14 15  2  0  0  0  0
 14 28  1  0  0  0  0
 11 12  1  0  0  0  0
 11 13  1  0  0  0  0
 11 14  1  0  0  0  0
  9 10  1  0  0  0  0
  9 11  1  0  0  0  0
  9 29  1  0  0  0  0
  7  8  1  0  0  0  0
  7  9  1  0  0  0  0
 33 34  1  0  0  0  0
 33 35  1  0  0  0  0
 33 36  1  0  0  0  0
 31 32  1  0  0  0  0
 31 33  1  0  0  0  0
M  END
$$$$
default_name
  -OEChem-02102213163D

 36 37  0     1  0  0  0  0  0999 V2000
   -4.0843   -4.0736    1.2944 H   0  0  0  0  0  0  0  0  0  0  0  0
   -4.0342   -3.2816    0.5484 C   0  0  0  0  0  0  0  0  0  0  0  0
   -4.8842   -2.6126    0.6694 H   0  0  0  0  0  0  0  0  0  0  0  0
   -4.0433   -3.7186   -0.4486 H   0  0  0  0  0  0  0  0  0  0  0  0
   -2.7532   -2.5046    0.7444 C   0  0  0  0  0  0  0  0  0  0  0  0
   -1.9803   -2.8096    1.6434 O   0  0  0  0  0  0  0  0  0  0  0  0
   -2.5332   -1.4966   -0.0966 N   0  0  0  0  0  0  0  0  0  0  0  0
   -3.2312   -1.2816   -0.7936 H   0  0  0  0  0  0  0  0  0  0  0  0
   -1.3593   -0.6196   -0.0536 C   0  0  1  0  0  0  0  0  0  0  0  0
   -0.4622   -1.2317   -0.1545 H   0  0  0  0  0  0  0  0  0  0  0  0
   -1.4074    0.3593   -1.2373 C   0  0  0  0  0  0  0  0  0  0  0  0
   -0.5169    0.9899   -1.2085 H   0  0  0  0  0  0  0  0  0  0  0  0
   -1.3753   -0.2152   -2.1646 H   0  0  0  0  0  0  0  0  0  0  0  0
   -2.6084    1.2549   -1.2747 C   0  0  0  0  0  0  0  0  0  0  0  0
   -2.5835    2.6061   -1.2383 C   0  0  0  0  0  0  0  0  0  0  0  0
   -1.6828    3.2049   -1.1580 H   0  0  0  0  0  0  0  0  0  0  0  0
   -3.8705    3.0970   -1.3391 N   0  0  0  0  0  0  0  0  0  0  0  0
   -4.0934    4.0816   -1.3295 H   0  0  0  0  0  0  0  0  0  0  0  0
   -4.7933    2.0803   -1.4631 C   0  0  0  0  0  0  0  0  0  0  0  0
   -6.1866    2.0649   -1.6204 C   0  0  0  0  0  0  0  0  0  0  0  0
   -6.7434    2.9896   -1.6588 H   0  0  0  0  0  0  0  0  0  0  0  0
   -6.8483    0.8295   -1.7255 C   0  0  0  0  0  0  0  0  0  0  0  0
   -7.9227    0.7980   -1.8462 H   0  0  0  0  0  0  0  0  0  0  0  0
   -6.1114   -0.3675   -1.6667 C   0  0  0  0  0  0  0  0  0  0  0  0
   -6.6255   -1.3160   -1.7396 H   0  0  0  0  0  0  0  0  0  0  0  0
   -4.7115   -0.3401   -1.5064 C   0  0  0  0  0  0  0  0  0  0  0  0
   -4.1591   -1.2673   -1.4494 H   0  0  0  0  0  0  0  0  0  0  0  0
   -4.0167    0.8845   -1.4040 C   0  0  0  0  0  0  0  0  0  0  0  0
   -1.2663    0.1182    1.2910 C   0  0  0  0  0  0  0  0  0  0  0  0
   -0.1906    0.1931    1.8833 O   0  0  0  0  0  0  0  0  0  0  0  0
   -2.3930    0.6605    1.7722 N   0  0  0  0  0  0  0  0  0  0  0  0
   -3.2451    0.5077    1.2518 H   0  0  0  0  0  0  0  0  0  0  0  0
   -2.4787    1.3954    3.0311 C   0  0  0  0  0  0  0  0  0  0  0  0
   -1.7166    2.1767    3.0539 H   0  0  0  0  0  0  0  0  0  0  0  0
   -3.4649    1.8498    3.1344 H   0  0  0  0  0  0  0  0  0  0  0  0
   -2.3058    0.7133    3.8652 H   0  0  0  0  0  0  0  0  0  0  0  0
  5  6  2  0  0  0  0
  5  7  1  0  0  0  0
  2  3  1  0  0  0  0
  2  4  1  0  0  0  0
  2  5  1  0  0  0  0
  1  2  1  0  0  0  0
 29 30  2  0  0  0  0
 29 31  1  0  0  0  0
 26 27  1  0  0  0  0
 26 28  2  0  0  0  0
 24 25  1  0  0  0  0
 24 26  1  0  0  0  0
 22 23  1  0  0  0  0
 22 24  2  0  0  0  0
 20 21  1  0  0  0  0
 20 22  1  0  0  0  0
 19 20  2  0  0  0  0
 19 28  1  0  0  0  0
 17 18  1  0  0  0  0
 17 19  1  0  0  0  0
 15 16  1  0  0  0  0
 15 17  1  0  0  0  0
 14 15  2  0  0  0  0
 14 28  1  0  0  0  0
 11 12  1  0  0  0  0
 11 13  1  0  0  0  0
 11 14  1  0  0  0  0
  9 10  1  0  0  0  0
  9 11  1  0  0  0  0
  9 29  1  0  0  0  0
  7  8  1  0  0  0  0
  7  9  1  0  0  0  0
 33 34  1  0  0  0  0
 33 35  1  0  0  0  0
 33 36  1  0  0  0  0
 31 32  1  0  0  0  0
 31 33  1  0  0  0  0
M  END
$$$$
default_name
  -OEChem-02102213163D

 36 37  0     1  0  0  0  0  0999 V2000
   -4.0843   -4.0736    1.2944 H   0  0  0  0  0  0  0  0  0  0  0  0
   -4.0342   -3.2816    0.5484 C   0  0  0  0  0  0  0  0  0  0  0  0
   -4.8842   -2.6126    0.6694 H   0  0  0  0  0  0  0  0  0  0  0  0
   -4.0433   -3.7186   -0.4486 H   0  0  0  0  0  0  0  0  0  0  0  0
   -2.7532   -2.5046    0.7444 C   0  0  0  0  0  0  0  0  0  0  0  0
   -1.9803   -2.8096    1.6434 O   0  0  0  0  0  0  0  0  0  0  0  0
   -2.5332   -1.4966   -0.0966 N   0  0  0  0  0  0  0  0  0  0  0  0
   -3.2312   -1.2816   -0.7936 H   0  0  0  0  0  0  0  0  0  0  0  0
   -1.3593   -0.6196   -0.0536 C   0  0  1  0  0  0  0  0  0  0  0  0
   -0.4622   -1.2317   -0.1545 H   0  0  0  0  0  0  0  0  0  0  0  0
   -1.4074    0.3593   -1.2373 C   0  0  0  0  0  0  0  0  0  0  0  0
   -0.5169    0.9899   -1.2085 H   0  0  0  0  0  0  0  0  0  0  0  0
   -1.3753   -0.2152   -2.1646 H   0  0  0  0  0  0  0  0  0  0  0  0
   -2.6084    1.2549   -1.2747 C   0  0  0  0  0  0  0  0  0  0  0  0
   -2.5915    2.5835   -1.5243 C   0  0  0  0  0  0  0  0  0  0  0  0
   -1.6952    3.1652   -1.7100 H   0  0  0  0  0  0  0  0  0  0  0  0
   -3.8833    3.0721   -1.5256 N   0  0  0  0  0  0  0  0  0  0  0  0
   -4.1117    4.0422   -1.6867 H   0  0  0  0  0  0  0  0  0  0  0  0
   -4.8041    2.0730   -1.2918 C   0  0  0  0  0  0  0  0  0  0  0  0
   -6.2047    2.0571   -1.2260 C   0  0  0  0  0  0  0  0  0  0  0  0
   -6.7698    2.9663   -1.3697 H   0  0  0  0  0  0  0  0  0  0  0  0
   -6.8625    0.8421   -0.9688 C   0  0  0  0  0  0  0  0  0  0  0  0
   -7.9422    0.8108   -0.9134 H   0  0  0  0  0  0  0  0  0  0  0  0
   -6.1136   -0.3334   -0.7766 C   0  0  0  0  0  0  0  0  0  0  0  0
   -6.6234   -1.2644   -0.5707 H   0  0  0  0  0  0  0  0  0  0  0  0
   -4.7061   -0.3052   -0.8430 C   0  0  0  0  0  0  0  0  0  0  0  0
   -4.1424   -1.2129   -0.6802 H   0  0  0  0  0  0  0  0  0  0  0  0
   -4.0160    0.8979   -1.1057 C   0  0  0  0  0  0  0  0  0  0  0  0
   -1.2663    0.1182    1.2910 C   0  0  0  0  0  0  0  0  0  0  0  0
   -0.1906    0.1931    1.8833 O   0  0  0  0  0  0  0  0  0  0  0  0
   -2.3930    0.6605    1.7722 N   0  0  0  0  0  0  0  0  0  0  0  0
   -3.2451    0.5077    1.2518 H   0  0  0  0  0  0  0  0  0  0  0  0
   -2.4787    1.3954    3.0311 C   0  0  0  0  0  0  0  0  0  0  0  0
   -1.7166    2.1767    3.0539 H   0  0  0  0  0  0  0  0  0  0  0  0
   -3.4649    1.8498    3.1344 H   0  0  0  0  0  0  0  0  0  0  0  0
   -2.3058    0.7133    3.8652 H   0  0  0  0  0  0  0  0  0  0  0  0
  5  6  2  0  0  0  0
  5  7  1  0  0  0  0
  2  3  1  0  0  0  0
  2  4  1  0  0  0  0
  2  5  1  0  0  0  0
  1  2  1  0  0  0  0
 29 30  2  0  0  0  0
 29 31  1  0  0  0  0
 26 27  1  0  0  0  0
 26 28  2  0  0  0  0
 24 25  1  0  0  0  0
 24 26  1  0  0  0  0
 22 23  1  0  0  0  0
 22 24  2  0  0  0  0
 20 21  1  0  0  0  0
 20 22  1  0  0  0  0
 19 20  2  0  0  0  0
 19 28  1  0  0  0  0
 17 18  1  0  0  0  0
 17 19  1  0  0  0  0
 15 16  1  0  0  0  0
 15 17  1  0  0  0  0
 14 15  2  0  0  0  0
 14 28  1  0  0  0  0
 11 12  1  0  0  0  0
 11 13  1  0  0  0  0
 11 14  1  0  0  0  0
  9 10  1  0  0  0  0
  9 11  1  0  0  0  0
  9 29  1  0  0  0  0
  7  8  1  0  0  0  0
  7  9  1  0  0  0  0
 33 34  1  0  0  0  0
 33 35  1  0  0  0  0
 33 36  1  0  0  0  0
 31 32  1  0  0  0  0
 31 33  1  0  0  0  0
M  END
$$$$
default_name
  -OEChem-02102213163D

 36 37  0     1  0  0  0  0  0999 V2000
   -4.0843   -4.0736    1.2944 H   0  0  0  0  0  0  0  0  0  0  0  0
   -4.0342   -3.2816    0.5484 C   0  0  0  0  0  0  0  0  0  0  0  0
   -4.8842   -2.6126    0.6694 H   0  0  0  0  0  0  0  0  0  0  0  0
   -4.0433   -3.7186   -0.4486 H   0  0  0  0  0  0  0  0  0  0  0  0
   -2.7532   -2.5046    0.7444 C   0  0  0  0  0  0  0  0  0  0  0  0
   -1.9803   -2.8096    1.6434 O   0  0  0  0  0  0  0  0  0  0  0  0
   -2.5332   -1.4966   -0.0966 N   0  0  0  0  0  0  0  0  0  0  0  0
   -3.2312   -1.2816   -0.7936 H   0  0  0  0  0  0  0  0  0  0  0  0
   -1.3593   -0.6196   -0.0536 C   0  0  1  0  0  0  0  0  0  0  0  0
   -0.4622   -1.2317   -0.1545 H   0  0  0  0  0  0  0  0  0  0  0  0
   -1.4074    0.3593   -1.2373 C   0  0  0  0  0  0  0  0  0  0  0  0
   -0.5169    0.9899   -1.2085 H   0  0  0  0  0  0  0  0  0  0  0  0
   -1.3753   -0.2152   -2.1646 H   0  0  0  0  0  0  0  0  0  0  0  0
   -2.6084    1.2549   -1.2747 C   0  0  0  0  0  0  0  0  0  0  0  0
   -2.6436    2.5023   -1.7947 C   0  0  0  0  0  0  0  0  0  0  0  0
   -1.7928    3.0125   -2.2330 H   0  0  0  0  0  0  0  0  0  0  0  0
   -3.9246    3.0094   -1.6986 N   0  0  0  0  0  0  0  0  0  0  0  0
   -4.1849    3.9301   -2.0207 H   0  0  0  0  0  0  0  0  0  0  0  0
   -4.7880    2.1015   -1.1232 C   0  0  0  0  0  0  0  0  0  0  0  0
   -6.1612    2.1315   -0.8407 C   0  0  0  0  0  0  0  0  0  0  0  0
   -6.7507    3.0039   -1.0815 H   0  0  0  0  0  0  0  0  0  0  0  0
   -6.7590    1.0113   -0.2383 C   0  0  0  0  0  0  0  0  0  0  0  0
   -7.8167    1.0167   -0.0121 H   0  0  0  0  0  0  0  0  0  0  0  0
   -5.9778   -0.1157    0.0764 C   0  0  0  0  0  0  0  0  0  0  0  0
   -6.4402   -0.9721    0.5474 H   0  0  0  0  0  0  0  0  0  0  0  0
   -4.5981   -0.1340   -0.2103 C   0  0  0  0  0  0  0  0  0  0  0  0
   -4.0070   -1.0009    0.0489 H   0  0  0  0  0  0  0  0  0  0  0  0
   -3.9690    0.9727   -0.8205 C   0  0  0  0  0  0  0  0  0  0  0  0
   -1.2663    0.1182    1.2910 C   0  0  0  0  0  0  0  0  0  0  0  0
   -0.1906    0.1931    1.8833 O   0  0  0  0  0  0  0  0  0  0  0  0
   -2.3930    0.6605    1.7722 N   0  0  0  0  0  0  0  0  0  0  0  0
   -3.2451    0.5077    1.2518 H   0  0  0  0  0  0  0  0  0  0  0  0
   -2.4787    1.3954    3.0311 C   0  0  0  0  0  0  0  0  0  0  0  0
   -1.7166    2.1767    3.0539 H   0  0  0  0  0  0  0  0  0  0  0  0
   -3.4649    1.8498    3.1344 H   0  0  0  0  0  0  0  0  0  0  0  0
   -2.3058    0.7133    3.8652 H   0  0  0  0  0  0  0  0  0  0  0  0
  5  6  2  0  0  0  0
  5  7  1  0  0  0  0
  2  3  1  0  0  0  0
  2  4  1  0  0  0  0
  2  5  1  0  0  0  0
  1  2  1  0  0  0  0
 29 30  2  0  0  0  0
 29 31  1  0  0  0  0
 26 27  1  0  0  0  0
 26 28  2  0  0  0  0
 24 25  1  0  0  0  0
 24 26  1  0  0  0  0
 22 23  1  0  0  0  0
 22 24  2  0  0  0  0
 20 21  1  0  0  0  0
 20 22  1  0  0  0  0
 19 20  2  0  0  0  0
 19 28  1  0  0  0  0
 17 18  1  0  0  0  0
 17 19  1  0  0  0  0
 15 16  1  0  0  0  0
 15 17  1  0  0  0  0
 14 15  2  0  0  0  0
 14 28  1  0  0  0  0
 11 12  1  0  0  0  0
 11 13  1  0  0  0  0
 11 14  1  0  0  0  0
  9 10  1  0  0  0  0
  9 11  1  0  0  0  0
  9 29  1  0  0  0  0
  7  8  1  0  0  0  0
  7  9  1  0  0  0  0
 33 34  1  0  0  0  0
 33 35  1  0  0  0  0
 33 36  1  0  0  0  0
 31 32  1  0  0  0  0
 31 33  1  0  0  0  0
M  END
$$$$
default_name
  -OEChem-02102213163D

 36 37  0     1  0  0  0  0  0999 V2000
   -4.0843   -4.0736    1.2944 H   0  0  0  0  0  0  0  0  0  0  0  0
   -4.0342   -3.2816    0.5484 C   0  0  0  0  0  0  0  0  0  0  0  0
   -4.8842   -2.6126    0.6694 H   0  0  0  0  0  0  0  0  0  0  0  0
   -4.0433   -3.7186   -0.4486 H   0  0  0  0  0  0  0  0  0  0  0  0
   -2.7532   -2.5046    0.7444 C   0  0  0  0  0  0  0  0  0  0  0  0
   -1.9803   -2.8096    1.6434 O   0  0  0  0  0  0  0  0  0  0  0  0
   -2.5332   -1.4966   -0.0966 N   0  0  0  0  0  0  0  0  0  0  0  0
   -3.2312   -1.2816   -0.7936 H   0  0  0  0  0  0  0  0  0  0  0  0
   -1.3593   -0.6196   -0.0536 C   0  0  1  0  0  0  0  0  0  0  0  0
   -0.4622   -1.2317   -0.1545 H   0  0  0  0  0  0  0  0  0  0  0  0
   -1.4074    0.3593   -1.2373 C   0  0  0  0  0  0  0  0  0  0  0  0
   -0.5169    0.9899   -1.2085 H   0  0  0  0  0  0  0  0  0  0  0  0
   -1.3753   -0.2152   -2.1646 H   0  0  0  0  0  0  0  0  0  0  0  0
   -2.6084    1.2549   -1.2747 C   0  0  0  0  0  0  0  0  0  0  0  0
   -2.7362    2.3682   -2.0309 C   0  0  0  0  0  0  0  0  0  0  0  0
   -1.9690    2.7571   -2.6914 H   0  0  0  0  0  0  0  0  0  0  0  0
   -3.9918    2.9132   -1.8463 N   0  0  0  0  0  0  0  0  0  0  0  0
   -4.3080    3.7530   -2.3088 H   0  0  0  0  0  0  0  0  0  0  0  0
   -4.7463    2.1639   -0.9688 C   0  0  0  0  0  0  0  0  0  0  0  0
   -6.0592    2.2830   -0.4907 C   0  0  0  0  0  0  0  0  0  0  0  0
   -6.6875    3.0999   -0.8139 H   0  0  0  0  0  0  0  0  0  0  0  0
   -6.5450    1.3256    0.4162 C   0  0  0  0  0  0  0  0  0  0  0  0
   -7.5547    1.4018    0.7965 H   0  0  0  0  0  0  0  0  0  0  0  0
   -5.7134    0.2706    0.8343 C   0  0  0  0  0  0  0  0  0  0  0  0
   -6.0885   -0.4590    1.5385 H   0  0  0  0  0  0  0  0  0  0  0  0
   -4.3948    0.1620    0.3487 C   0  0  0  0  0  0  0  0  0  0  0  0
   -3.7621   -0.6458    0.6882 H   0  0  0  0  0  0  0  0  0  0  0  0
   -3.8791    1.1039   -0.5678 C   0  0  0  0  0  0  0  0  0  0  0  0
   -1.2663    0.1182    1.2910 C   0  0  0  0  0  0  0  0  0  0  0  0
   -0.1906    0.1931    1.8833 O   0  0  0  0  0  0  0  0  0  0  0  0
   -2.3930    0.6605    1.7722 N   0  0  0  0  0  0  0  0  0  0  0  0
   -3.2451    0.5077    1.2518 H   0  0  0  0  0  0  0  0  0  0  0  0
   -2.4787    1.3954    3.0311 C   0  0  0  0  0  0  0  0  0  0  0  0
   -1.7166    2.1767    3.0539 H   0  0  0  0  0  0  0  0  0  0  0  0
   -3.4649    1.8498    3.1344 H   0  0  0  0  0  0  0  0  0  0  0  0
   -2.3058    0.7133    3.8652 H   0  0  0  0  0  0  0  0  0  0  0  0
  5  6  2  0  0  0  0
  5  7  1  0  0  0  0
  2  3  1  0  0  0  0
  2  4  1  0  0  0  0
  2  5  1  0  0  0  0
  1  2  1  0  0  0  0
 29 30  2  0  0  0  0
 29 31  1  0  0  0  0
 26 27  1  0  0  0  0
 26 28  2  0  0  0  0
 24 25  1  0  0  0  0
 24 26  1  0  0  0  0
 22 23  1  0  0  0  0
 22 24  2  0  0  0  0
 20 21  1  0  0  0  0
 20 22  1  0  0  0  0
 19 20  2  0  0  0  0
 19 28  1  0  0  0  0
 17 18  1  0  0  0  0
 17 19  1  0  0  0  0
 15 16  1  0  0  0  0
 15 17  1  0  0  0  0
 14 15  2  0  0  0  0
 14 28  1  0  0  0  0
 11 12  1  0  0  0  0
 11 13  1  0  0  0  0
 11 14  1  0  0  0  0
  9 10  1  0  0  0  0
  9 11  1  0  0  0  0
  9 29  1  0  0  0  0
  7  8  1  0  0  0  0
  7  9  1  0  0  0  0
 33 34  1  0  0  0  0
 33 35  1  0  0  0  0
 33 36  1  0  0  0  0
 31 32  1  0  0  0  0
 31 33  1  0  0  0  0
M  END
$$$$
default_name
  -OEChem-02102213163D

 36 37  0     1  0  0  0  0  0999 V2000
   -4.0843   -4.0736    1.2944 H   0  0  0  0  0  0  0  0  0  0  0  0
   -4.0342   -3.2816    0.5484 C   0  0  0  0  0  0  0  0  0  0  0  0
   -4.8842   -2.6126    0.6694 H   0  0  0  0  0  0  0  0  0  0  0  0
   -4.0433   -3.7186   -0.4486 H   0  0  0  0  0  0  0  0  0  0  0  0
   -2.7532   -2.5046    0.7444 C   0  0  0  0  0  0  0  0  0  0  0  0
   -1.9803   -2.8096    1.6434 O   0  0  0  0  0  0  0  0  0  0  0  0
   -2.5332   -1.4966   -0.0966 N   0  0  0  0  0  0  0  0  0  0  0  0
   -3.2312   -1.2816   -0.7936 H   0  0  0  0  0  0  0  0  0  0  0  0
   -1.3593   -0.6196   -0.0536 C   0  0  1  0  0  0  0  0  0  0  0  0
   -0.4622   -1.2317   -0.1545 H   0  0  0  0  0  0  0  0  0  0  0  0
   -1.4074    0.3593   -1.2373 C   0  0  0  0  0  0  0  0  0  0  0  0
   -0.4172    0.7988   -1.3706 H   0  0  0  0  0  0  0  0  0  0  0  0
   -1.6442   -0.2020   -2.1428 H   0  0  0  0  0  0  0  0  0  0  0  0
   -2.3958    1.4774   -1.0993 C   0  0  0  0  0  0  0  0  0  0  0  0
   -2.6122    2.4528   -2.0100 C   0  0  0  0  0  0  0  0  0  0  0  0
   -2.0766    2.5514   -2.9479 H   0  0  0  0  0  0  0  0  0  0  0  0
   -3.6257    3.2817   -1.5705 N   0  0  0  0  0  0  0  0  0  0  0  0
   -3.9541    4.0832   -2.0891 H   0  0  0  0  0  0  0  0  0  0  0  0
   -4.1274    2.8691   -0.3544 C   0  0  0  0  0  0  0  0  0  0  0  0
   -5.1549    3.3487    0.4706 C   0  0  0  0  0  0  0  0  0  0  0  0
   -5.7263    4.2191    0.1835 H   0  0  0  0  0  0  0  0  0  0  0  0
   -5.4293    2.6819    1.6769 C   0  0  0  0  0  0  0  0  0  0  0  0
   -6.2174    3.0381    2.3265 H   0  0  0  0  0  0  0  0  0  0  0  0
   -4.6725    1.5535    2.0420 C   0  0  0  0  0  0  0  0  0  0  0  0
   -4.8815    1.0485    2.9749 H   0  0  0  0  0  0  0  0  0  0  0  0
   -3.6408    1.0815    1.2059 C   0  0  0  0  0  0  0  0  0  0  0  0
   -3.0583    0.2216    1.5046 H   0  0  0  0  0  0  0  0  0  0  0  0
   -3.3446    1.7252   -0.0151 C   0  0  0  0  0  0  0  0  0  0  0  0
   -1.2663    0.1182    1.2910 C   0  0  0  0  0  0  0  0  0  0  0  0
   -0.1906    0.1931    1.8833 O   0  0  0  0  0  0  0  0  0  0  0  0
   -2.3930    0.6605    1.7722 N   0  0  0  0  0  0  0  0  0  0  0  0
   -3.2451    0.5077    1.2518 H   0  0  0  0  0  0  0  0  0  0  0  0
   -2.4787    1.3954    3.0311 C   0  0  0  0  0  0  0  0  0  0  0  0
   -1.7166    2.1767    3.0539 H   0  0  0  0  0  0  0  0  0  0  0  0
   -3.4649    1.8498    3.1344 H   0  0  0  0  0  0  0  0  0  0  0  0
   -2.3058    0.7133    3.8652 H   0  0  0  0  0  0  0  0  0  0  0  0
  5  6  2  0  0  0  0
  5  7  1  0  0  0  0
  2  3  1  0  0  0  0
  2  4  1  0  0  0  0
  2  5  1  0  0  0  0
  1  2  1  0  0  0  0
 29 30  2  0  0  0  0
 29 31  1  0  0  0  0
 26 27  1  0  0  0  0
 26 28  2  0  0  0  0
 24 25  1  0  0  0  0
 24 26  1  0  0  0  0
 22 23  1  0  0  0  0
 22 24  2  0  0  0  0
 20 21  1  0  0  0  0
 20 22  1  0  0  0  0
 19 20  2  0  0  0  0
 19 28  1  0  0  0  0
 17 18  1  0  0  0  0
 17 19  1  0  0  0  0
 15 16  1  0  0  0  0
 15 17  1  0  0  0  0
 14 15  2  0  0  0  0
 14 28  1  0  0  0  0
 11 12  1  0  0  0  0
 11 13  1  0  0  0  0
 11 14  1  0  0  0  0
  9 10  1  0  0  0  0
  9 11  1  0  0  0  0
  9 29  1  0  0  0  0
  7  8  1  0  0  0  0
  7  9  1  0  0  0  0
 33 34  1  0  0  0  0
 33 35  1  0  0  0  0
 33 36  1  0  0  0  0
 31 32  1  0  0  0  0
 31 33  1  0  0  0  0
M  END
$$$$
default_name
  -OEChem-02102213163D

 36 37  0     1  0  0  0  0  0999 V2000
   -4.0843   -4.0736    1.2944 H   0  0  0  0  0  0  0  0  0  0  0  0
   -4.0342   -3.2816    0.5484 C   0  0  0  0  0  0  0  0  0  0  0  0
   -4.8842   -2.6126    0.6694 H   0  0  0  0  0  0  0  0  0  0  0  0
   -4.0433   -3.7186   -0.4486 H   0  0  0  0  0  0  0  0  0  0  0  0
   -2.7532   -2.5046    0.7444 C   0  0  0  0  0  0  0  0  0  0  0  0
   -1.9803   -2.8096    1.6434 O   0  0  0  0  0  0  0  0  0  0  0  0
   -2.5332   -1.4966   -0.0966 N   0  0  0  0  0  0  0  0  0  0  0  0
   -3.2312   -1.2816   -0.7936 H   0  0  0  0  0  0  0  0  0  0  0  0
   -1.3593   -0.6196   -0.0536 C   0  0  1  0  0  0  0  0  0  0  0  0
   -0.4622   -1.2317   -0.1545 H   0  0  0  0  0  0  0  0  0  0  0  0
   -1.4074    0.3593   -1.2373 C   0  0  0  0  0  0  0  0  0  0  0  0
   -0.4172    0.7988   -1.3706 H   0  0  0  0  0  0  0  0  0  0  0  0
   -1.6442   -0.2020   -2.1428 H   0  0  0  0  0  0  0  0  0  0  0  0
   -2.3958    1.4774   -1.0993 C   0  0  0  0  0  0  0  0  0  0  0  0
   -2.8215    2.2790   -2.1013 C   0  0  0  0  0  0  0  0  0  0  0  0
   -2.4794    2.2175   -3.1286 H   0  0  0  0  0  0  0  0  0  0  0  0
   -3.7652    3.1642   -1.6183 N   0  0  0  0  0  0  0  0  0  0  0  0
   -4.2189    3.8616   -2.1903 H   0  0  0  0  0  0  0  0  0  0  0  0
   -4.0083    2.9647   -0.2760 C   0  0  0  0  0  0  0  0  0  0  0  0
   -4.8779    3.5726    0.6409 C   0  0  0  0  0  0  0  0  0  0  0  0
   -5.5284    4.3762    0.3285 H   0  0  0  0  0  0  0  0  0  0  0  0
   -4.8895    3.1227    1.9723 C   0  0  0  0  0  0  0  0  0  0  0  0
   -5.5528    3.5803    2.6938 H   0  0  0  0  0  0  0  0  0  0  0  0
   -4.0317    2.0799    2.3673 C   0  0  0  0  0  0  0  0  0  0  0  0
   -4.0380    1.7425    3.3945 H   0  0  0  0  0  0  0  0  0  0  0  0
   -3.1605    1.4776    1.4376 C   0  0  0  0  0  0  0  0  0  0  0  0
   -2.4972    0.6865    1.7573 H   0  0  0  0  0  0  0  0  0  0  0  0
   -3.1293    1.9024    0.0917 C   0  0  0  0  0  0  0  0  0  0  0  0
   -1.2663    0.1182    1.2910 C   0  0  0  0  0  0  0  0  0  0  0  0
   -0.1906    0.1931    1.8833 O   0  0  0  0  0  0  0  0  0  0  0  0
   -2.3930    0.6605    1.7722 N   0  0  0  0  0  0  0  0  0  0  0  0
   -3.2451    0.5077    1.2518 H   0  0  0  0  0  0  0  0  0  0  0  0
   -2.4787    1.3954    3.0311 C   0  0  0  0  0  0  0  0  0  0  0  0
   -1.7166    2.1767    3.0539 H   0  0  0  0  0  0  0  0  0  0  0  0
   -3.4649    1.8498    3.1344 H   0  0  0  0  0  0  0  0  0  0  0  0
   -2.3058    0.7133    3.8652 H   0  0  0  0  0  0  0  0  0  0  0  0
  5  6  2  0  0  0  0
  5  7  1  0  0  0  0
  2  3  1  0  0  0  0
  2  4  1  0  0  0  0
  2  5  1  0  0  0  0
  1  2  1  0  0  0  0
 29 30  2  0  0  0  0
 29 31  1  0  0  0  0
 26 27  1  0  0  0  0
 26 28  2  0  0  0  0
 24 25  1  0  0  0  0
 24 26  1  0  0  0  0
 22 23  1  0  0  0  0
 22 24  2  0  0  0  0
 20 21  1  0  0  0  0
 20 22  1  0  0  0  0
 19 20  2  0  0  0  0
 19 28  1  0  0  0  0
 17 18  1  0  0  0  0
 17 19  1  0  0  0  0
 15 16  1  0  0  0  0
 15 17  1  0  0  0  0
 14 15  2  0  0  0  0
 14 28  1  0  0  0  0
 11 12  1  0  0  0  0
 11 13  1  0  0  0  0
 11 14  1  0  0  0  0
  9 10  1  0  0  0  0
  9 11  1  0  0  0  0
  9 29  1  0  0  0  0
  7  8  1  0  0  0  0
  7  9  1  0  0  0  0
 33 34  1  0  0  0  0
 33 35  1  0  0  0  0
 33 36  1  0  0  0  0
 31 32  1  0  0  0  0
 31 33  1  0  0  0  0
M  END
$$$$
default_name
  -OEChem-02102213163D

 36 37  0     1  0  0  0  0  0999 V2000
   -4.0843   -4.0736    1.2944 H   0  0  0  0  0  0  0  0  0  0  0  0
   -4.0342   -3.2816    0.5484 C   0  0  0  0  0  0  0  0  0  0  0  0
   -4.8842   -2.6126    0.6694 H   0  0  0  0  0  0  0  0  0  0  0  0
   -4.0433   -3.7186   -0.4486 H   0  0  0  0  0  0  0  0  0  0  0  0
   -2.7532   -2.5046    0.7444 C   0  0  0  0  0  0  0  0  0  0  0  0
   -1.9803   -2.8096    1.6434 O   0  0  0  0  0  0  0  0  0  0  0  0
   -2.5332   -1.4966   -0.0966 N   0  0  0  0  0  0  0  0  0  0  0  0
   -3.2312   -1.2816   -0.7936 H   0  0  0  0  0  0  0  0  0  0  0  0
   -1.3593   -0.6196   -0.0536 C   0  0  1  0  0  0  0  0  0  0  0  0
   -0.4622   -1.2317   -0.1545 H   0  0  0  0  0  0  0  0  0  0  0  0
   -1.4074    0.3593   -1.2373 C   0  0  0  0  0  0  0  0  0  0  0  0
   -0.4172    0.7988   -1.3706 H   0  0  0  0  0  0  0  0  0  0  0  0
   -1.6442   -0.2020   -2.1428 H   0  0  0  0  0  0  0  0  0  0  0  0
   -2.3958    1.4774   -1.0993 C   0  0  0  0  0  0  0  0  0  0  0  0
   -3.0373    2.0905   -2.1193 C   0  0  0  0  0  0  0  0  0  0  0  0
   -2.8955    1.8546   -3.1683 H   0  0  0  0  0  0  0  0  0  0  0  0
   -3.9065    3.0393   -1.6176 N   0  0  0  0  0  0  0  0  0  0  0  0
   -4.4890    3.6239   -2.1990 H   0  0  0  0  0  0  0  0  0  0  0  0
   -3.8804    3.0734   -0.2396 C   0  0  0  0  0  0  0  0  0  0  0  0
   -4.5827    3.8245    0.7138 C   0  0  0  0  0  0  0  0  0  0  0  0
   -5.3130    4.5573    0.4035 H   0  0  0  0  0  0  0  0  0  0  0  0
   -4.3216    3.6118    2.0781 C   0  0  0  0  0  0  0  0  0  0  0  0
   -4.8529    4.1826    2.8277 H   0  0  0  0  0  0  0  0  0  0  0  0
   -3.3625    2.6591    2.4680 C   0  0  0  0  0  0  0  0  0  0  0  0
   -3.1588    2.5045    3.5186 H   0  0  0  0  0  0  0  0  0  0  0  0
   -2.6612    1.9112    1.5011 C   0  0  0  0  0  0  0  0  0  0  0  0
   -1.9175    1.1920    1.8138 H   0  0  0  0  0  0  0  0  0  0  0  0
   -2.9049    2.0969    0.1230 C   0  0  0  0  0  0  0  0  0  0  0  0
   -1.2663    0.1182    1.2910 C   0  0  0  0  0  0  0  0  0  0  0  0
   -0.1906    0.1931    1.8833 O   0  0  0  0  0  0  0  0  0  0  0  0
   -2.3930    0.6605    1.7722 N   0  0  0  0  0  0  0  0  0  0  0  0
   -3.2451    0.5077    1.2518 H   0  0  0  0  0  0  0  0  0  0  0  0
   -2.4787    1.3954    3.0311 C   0  0  0  0  0  0  0  0  0  0  0  0
   -1.7166    2.1767    3.0539 H   0  0  0  0  0  0  0  0  0  0  0  0
   -3.4649    1.8498    3.1344 H   0  0  0  0  0  0  0  0  0  0  0  0
   -2.3058    0.7133    3.8652 H   0  0  0  0  0  0  0  0  0  0  0  0
  5  6  2  0  0  0  0
  5  7  1  0  0  0  0
  2  3  1  0  0  0  0
  2  4  1  0  0  0  0
  2  5  1  0  0  0  0
  1  2  1  0  0  0  0
 29 30  2  0  0  0  0
 29 31  1  0  0  0  0
 26 27  1  0  0  0  0
 26 28  2  0  0  0  0
 24 25  1  0  0  0  0
 24 26  1  0  0  0  0
 22 23  1  0  0  0  0
 22 24  2  0  0  0  0
 20 21  1  0  0  0  0
 20 22  1  0  0  0  0
 19 20  2  0  0  0  0
 19 28  1  0  0  0  0
 17 18  1  0  0  0  0
 17 19  1  0  0  0  0
 15 16  1  0  0  0  0
 15 17  1  0  0  0  0
 14 15  2  0  0  0  0
 14 28  1  0  0  0  0
 11 12  1  0  0  0  0
 11 13  1  0  0  0  0
 11 14  1  0  0  0  0
  9 10  1  0  0  0  0
  9 11  1  0  0  0  0
  9 29  1  0  0  0  0
  7  8  1  0  0  0  0
  7  9  1  0  0  0  0
 33 34  1  0  0  0  0
 33 35  1  0  0  0  0
 33 36  1  0  0  0  0
 31 32  1  0  0  0  0
 31 33  1  0  0  0  0
M  END
$$$$
default_name
  -OEChem-02102213163D

 36 37  0     1  0  0  0  0  0999 V2000
   -4.0843   -4.0736    1.2944 H   0  0  0  0  0  0  0  0  0  0  0  0
   -4.0342   -3.2816    0.5484 C   0  0  0  0  0  0  0  0  0  0  0  0
   -4.8842   -2.6126    0.6694 H   0  0  0  0  0  0  0  0  0  0  0  0
   -4.0433   -3.7186   -0.4486 H   0  0  0  0  0  0  0  0  0  0  0  0
   -2.7532   -2.5046    0.7444 C   0  0  0  0  0  0  0  0  0  0  0  0
   -1.9803   -2.8096    1.6434 O   0  0  0  0  0  0  0  0  0  0  0  0
   -2.5332   -1.4966   -0.0966 N   0  0  0  0  0  0  0  0  0  0  0  0
   -3.2312   -1.2816   -0.7936 H   0  0  0  0  0  0  0  0  0  0  0  0
   -1.3593   -0.6196   -0.0536 C   0  0  1  0  0  0  0  0  0  0  0  0
   -0.4622   -1.2317   -0.1545 H   0  0  0  0  0  0  0  0  0  0  0  0
   -1.4074    0.3593   -1.2373 C   0  0  0  0  0  0  0  0  0  0  0  0
   -0.4172    0.7988   -1.3706 H   0  0  0  0  0  0  0  0  0  0  0  0
   -1.6442   -0.2020   -2.1428 H   0  0  0  0  0  0  0  0  0  0  0  0
   -2.3958    1.4774   -1.0993 C   0  0  0  0  0  0  0  0  0  0  0  0
   -3.2446    1.9002   -2.0629 C   0  0  0  0  0  0  0  0  0  0  0  0
   -3.2964    1.4874   -3.0644 H   0  0  0  0  0  0  0  0  0  0  0  0
   -4.0398    2.9153   -1.5682 N   0  0  0  0  0  0  0  0  0  0  0  0
   -4.7459    3.3864   -2.1148 H   0  0  0  0  0  0  0  0  0  0  0  0
   -3.7524    3.1875   -0.2476 C   0  0  0  0  0  0  0  0  0  0  0  0
   -4.2895    4.0874    0.6841 C   0  0  0  0  0  0  0  0  0  0  0  0
   -5.0948    4.7502    0.4035 H   0  0  0  0  0  0  0  0  0  0  0  0
   -3.7642    4.1158    1.9873 C   0  0  0  0  0  0  0  0  0  0  0  0
   -4.1653    4.8039    2.7190 H   0  0  0  0  0  0  0  0  0  0  0  0
   -2.7105    3.2517    2.3372 C   0  0  0  0  0  0  0  0  0  0  0  0
   -2.3037    3.2827    3.3385 H   0  0  0  0  0  0  0  0  0  0  0  0
   -2.1770    2.3527    1.3919 C   0  0  0  0  0  0  0  0  0  0  0  0
   -1.3587    1.7038    1.6701 H   0  0  0  0  0  0  0  0  0  0  0  0
   -2.6868    2.2955    0.0767 C   0  0  0  0  0  0  0  0  0  0  0  0
   -1.2663    0.1182    1.2910 C   0  0  0  0  0  0  0  0  0  0  0  0
   -0.1906    0.1931    1.8833 O   0  0  0  0  0  0  0  0  0  0  0  0
   -2.3930    0.6605    1.7722 N   0  0  0  0  0  0  0  0  0  0  0  0
   -3.2451    0.5077    1.2518 H   0  0  0  0  0  0  0  0  0  0  0  0
   -2.4787    1.3954    3.0311 C   0  0  0  0  0  0  0  0  0  0  0  0
   -1.7166    2.1767    3.0539 H   0  0  0  0  0  0  0  0  0  0  0  0
   -3.4649    1.8498    3.1344 H   0  0  0  0  0  0  0  0  0  0  0  0
   -2.3058    0.7133    3.8652 H   0  0  0  0  0  0  0  0  0  0  0  0
  5  6  2  0  0  0  0
  5  7  1  0  0  0  0
  2  3  1  0  0  0  0
  2  4  1  0  0  0  0
  2  5  1  0  0  0  0
  1  2  1  0  0  0  0
 29 30  2  0  0  0  0
 29 31  1  0  0  0  0
 26 27  1  0  0  0  0
 26 28  2  0  0  0  0
 24 25  1  0  0  0  0
 24 26  1  0  0  0  0
 22 23  1  0  0  0  0
 22 24  2  0  0  0  0
 20 21  1  0  0  0  0
 20 22  1  0  0  0  0
 19 20  2  0  0  0  0
 19 28  1  0  0  0  0
 17 18  1  0  0  0  0
 17 19  1  0  0  0  0
 15 16  1  0  0  0  0
 15 17  1  0  0  0  0
 14 15  2  0  0  0  0
 14 28  1  0  0  0  0
 11 12  1  0  0  0  0
 11 13  1  0  0  0  0
 11 14  1  0  0  0  0
  9 10  1  0  0  0  0
  9 11  1  0  0  0  0
  9 29  1  0  0  0  0
  7  8  1  0  0  0  0
  7  9  1  0  0  0  0
 33 34  1  0  0  0  0
 33 35  1  0  0  0  0
 33 36  1  0  0  0  0
 31 32  1  0  0  0  0
 31 33  1  0  0  0  0
M  END
$$$$
default_name
  -OEChem-02102213163D

 36 37  0     1  0  0  0  0  0999 V2000
   -4.0843   -4.0736    1.2944 H   0  0  0  0  0  0  0  0  0  0  0  0
   -4.0342   -3.2816    0.5484 C   0  0  0  0  0  0  0  0  0  0  0  0
   -4.8842   -2.6126    0.6694 H   0  0  0  0  0  0  0  0  0  0  0  0
   -4.0433   -3.7186   -0.4486 H   0  0  0  0  0  0  0  0  0  0  0  0
   -2.7532   -2.5046    0.7444 C   0  0  0  0  0  0  0  0  0  0  0  0
   -1.9803   -2.8096    1.6434 O   0  0  0  0  0  0  0  0  0  0  0  0
   -2.5332   -1.4966   -0.0966 N   0  0  0  0  0  0  0  0  0  0  0  0
   -3.2312   -1.2816   -0.7936 H   0  0  0  0  0  0  0  0  0  0  0  0
   -1.3593   -0.6196   -0.0536 C   0  0  1  0  0  0  0  0  0  0  0  0
   -0.4622   -1.2317   -0.1545 H   0  0  0  0  0  0  0  0  0  0  0  0
   -1.4074    0.3593   -1.2373 C   0  0  0  0  0  0  0  0  0  0  0  0
   -0.4172    0.7988   -1.3706 H   0  0  0  0  0  0  0  0  0  0  0  0
   -1.6442   -0.2020   -2.1428 H   0  0  0  0  0  0  0  0  0  0  0  0
   -2.3958    1.4774   -1.0993 C   0  0  0  0  0  0  0  0  0  0  0  0
   -3.4295    1.7211   -1.9359 C   0  0  0  0  0  0  0  0  0  0  0  0
   -3.6548    1.1408   -2.8240 H   0  0  0  0  0  0  0  0  0  0  0  0
   -4.1561    2.8008   -1.4737 N   0  0  0  0  0  0  0  0  0  0  0  0
   -4.9721    3.1652   -1.9433 H   0  0  0  0  0  0  0  0  0  0  0  0
   -3.6330    3.2995   -0.2996 C   0  0  0  0  0  0  0  0  0  0  0  0
   -4.0184    4.3432    0.5540 C   0  0  0  0  0  0  0  0  0  0  0  0
   -4.8887    4.9418    0.3284 H   0  0  0  0  0  0  0  0  0  0  0  0
   -3.2554    4.6003    1.7058 C   0  0  0  0  0  0  0  0  0  0  0  0
   -3.5369    5.4019    2.3752 H   0  0  0  0  0  0  0  0  0  0  0  0
   -2.1200    3.8173    1.9837 C   0  0  0  0  0  0  0  0  0  0  0  0
   -1.5311    4.0240    2.8666 H   0  0  0  0  0  0  0  0  0  0  0  0
   -1.7408    2.7721    1.1177 C   0  0  0  0  0  0  0  0  0  0  0  0
   -0.8588    2.1869    1.3360 H   0  0  0  0  0  0  0  0  0  0  0  0
   -2.4897    2.4846   -0.0440 C   0  0  0  0  0  0  0  0  0  0  0  0
   -1.2663    0.1182    1.2910 C   0  0  0  0  0  0  0  0  0  0  0  0
   -0.1906    0.1931    1.8833 O   0  0  0  0  0  0  0  0  0  0  0  0
   -2.3930    0.6605    1.7722 N   0  0  0  0  0  0  0  0  0  0  0  0
   -3.2451    0.5077    1.2518 H   0  0  0  0  0  0  0  0  0  0  0  0
   -2.4787    1.3954    3.0311 C   0  0  0  0  0  0  0  0  0  0  0  0
   -1.7166    2.1767    3.0539 H   0  0  0  0  0  0  0  0  0  0  0  0
   -3.4649    1.8498    3.1344 H   0  0  0  0  0  0  0  0  0  0  0  0
   -2.3058    0.7133    3.8652 H   0  0  0  0  0  0  0  0  0  0  0  0
  5  6  2  0  0  0  0
  5  7  1  0  0  0  0
  2  3  1  0  0  0  0
  2  4  1  0  0  0  0
  2  5  1  0  0  0  0
  1  2  1  0  0  0  0
 29 30  2  0  0  0  0
 29 31  1  0  0  0  0
 26 27  1  0  0  0  0
 26 28  2  0  0  0  0
 24 25  1  0  0  0  0
 24 26  1  0  0  0  0
 22 23  1  0  0  0  0
 22 24  2  0  0  0  0
 20 21  1  0  0  0  0
 20 22  1  0  0  0  0
 19 20  2  0  0  0  0
 19 28  1  0  0  0  0
 17 18  1  0  0  0  0
 17 19  1  0  0  0  0
 15 16  1  0  0  0  0
 15 17  1  0  0  0  0
 14 15  2  0  0  0  0
 14 28  1  0  0  0  0
 11 12  1  0  0  0  0
 11 13  1  0  0  0  0
 11 14  1  0  0  0  0
  9 10  1  0  0  0  0
  9 11  1  0  0  0  0
  9 29  1  0  0  0  0
  7  8  1  0  0  0  0
  7  9  1  0  0  0  0
 33 34  1  0  0  0  0
 33 35  1  0  0  0  0
 33 36  1  0  0  0  0
 31 32  1  0  0  0  0
 31 33  1  0  0  0  0
M  END
$$$$
default_name
  -OEChem-02102213163D

 36 37  0     1  0  0  0  0  0999 V2000
   -4.0843   -4.0736    1.2944 H   0  0  0  0  0  0  0  0  0  0  0  0
   -4.0342   -3.2816    0.5484 C   0  0  0  0  0  0  0  0  0  0  0  0
   -4.8842   -2.6126    0.6694 H   0  0  0  0  0  0  0  0  0  0  0  0
   -4.0433   -3.7186   -0.4486 H   0  0  0  0  0  0  0  0  0  0  0  0
   -2.7532   -2.5046    0.7444 C   0  0  0  0  0  0  0  0  0  0  0  0
   -1.9803   -2.8096    1.6434 O   0  0  0  0  0  0  0  0  0  0  0  0
   -2.5332   -1.4966   -0.0966 N   0  0  0  0  0  0  0  0  0  0  0  0
   -3.2312   -1.2816   -0.7936 H   0  0  0  0  0  0  0  0  0  0  0  0
   -1.3593   -0.6196   -0.0536 C   0  0  1  0  0  0  0  0  0  0  0  0
   -0.4622   -1.2317   -0.1545 H   0  0  0  0  0  0  0  0  0  0  0  0
   -1.4074    0.3593   -1.2373 C   0  0  0  0  0  0  0  0  0  0  0  0
   -0.4172    0.7988   -1.3706 H   0  0  0  0  0  0  0  0  0  0  0  0
   -1.6442   -0.2020   -2.1428 H   0  0  0  0  0  0  0  0  0  0  0  0
   -2.3958    1.4774   -1.0993 C   0  0  0  0  0  0  0  0  0  0  0  0
   -3.5793    1.5653   -1.7469 C   0  0  0  0  0  0  0  0  0  0  0  0
   -3.9463    0.8386   -2.4634 H   0  0  0  0  0  0  0  0  0  0  0  0
   -4.2474    2.7036   -1.3403 N   0  0  0  0  0  0  0  0  0  0  0  0
   -5.1522    2.9755   -1.6962 H   0  0  0  0  0  0  0  0  0  0  0  0
   -3.5303    3.4016   -0.3920 C   0  0  0  0  0  0  0  0  0  0  0  0
   -3.7877    4.5745    0.3322 C   0  0  0  0  0  0  0  0  0  0  0  0
   -4.7086    5.1189    0.1833 H   0  0  0  0  0  0  0  0  0  0  0  0
   -2.8298    5.0325    1.2530 C   0  0  0  0  0  0  0  0  0  0  0  0
   -3.0105    5.9358    1.8198 H   0  0  0  0  0  0  0  0  0  0  0  0
   -1.6314    4.3174    1.4318 C   0  0  0  0  0  0  0  0  0  0  0  0
   -0.8936    4.6779    2.1351 H   0  0  0  0  0  0  0  0  0  0  0  0
   -1.3825    3.1408    0.6970 C   0  0  0  0  0  0  0  0  0  0  0  0
   -0.4521    2.6085    0.8343 H   0  0  0  0  0  0  0  0  0  0  0  0
   -2.3272    2.6513   -0.2309 C   0  0  0  0  0  0  0  0  0  0  0  0
   -1.2663    0.1182    1.2910 C   0  0  0  0  0  0  0  0  0  0  0  0
   -0.1906    0.1931    1.8833 O   0  0  0  0  0  0  0  0  0  0  0  0
   -2.3930    0.6605    1.7722 N   0  0  0  0  0  0  0  0  0  0  0  0
   -3.2451    0.5077    1.2518 H   0  0  0  0  0  0  0  0  0  0  0  0
   -2.4787    1.3954    3.0311 C   0  0  0  0  0  0  0  0  0  0  0  0
   -1.7166    2.1767    3.0539 H   0  0  0  0  0  0  0  0  0  0  0  0
   -3.4649    1.8498    3.1344 H   0  0  0  0  0  0  0  0  0  0  0  0
   -2.3058    0.7133    3.8652 H   0  0  0  0  0  0  0  0  0  0  0  0
  5  6  2  0  0  0  0
  5  7  1  0  0  0  0
  2  3  1  0  0  0  0
  2  4  1  0  0  0  0
  2  5  1  0  0  0  0
  1  2  1  0  0  0  0
 29 30  2  0  0  0  0
 29 31  1  0  0  0  0
 26 27  1  0  0  0  0
 26 28  2  0  0  0  0
 24 25  1  0  0  0  0
 24 26  1  0  0  0  0
 22 23  1  0  0  0  0
 22 24  2  0  0  0  0
 20 21  1  0  0  0  0
 20 22  1  0  0  0  0
 19 20  2  0  0  0  0
 19 28  1  0  0  0  0
 17 18  1  0  0  0  0
 17 19  1  0  0  0  0
 15 16  1  0  0  0  0
 15 17  1  0  0  0  0
 14 15  2  0  0  0  0
 14 28  1  0  0  0  0
 11 12  1  0  0  0  0
 11 13  1  0  0  0  0
 11 14  1  0  0  0  0
  9 10  1  0  0  0  0
  9 11  1  0  0  0  0
  9 29  1  0  0  0  0
  7  8  1  0  0  0  0
  7  9  1  0  0  0  0
 33 34  1  0  0  0  0
 33 35  1  0  0  0  0
 33 36  1  0  0  0  0
 31 32  1  0  0  0  0
 31 33  1  0  0  0  0
M  END
$$$$
default_name
  -OEChem-02102213163D

 36 37  0     1  0  0  0  0  0999 V2000
   -4.0843   -4.0736    1.2944 H   0  0  0  0  0  0  0  0  0  0  0  0
   -4.0342   -3.2816    0.5484 C   0  0  0  0  0  0  0  0  0  0  0  0
   -4.8842   -2.6126    0.6694 H   0  0  0  0  0  0  0  0  0  0  0  0
   -4.0433   -3.7186   -0.4486 H   0  0  0  0  0  0  0  0  0  0  0  0
   -2.7532   -2.5046    0.7444 C   0  0  0  0  0  0  0  0  0  0  0  0
   -1.9803   -2.8096    1.6434 O   0  0  0  0  0  0  0  0  0  0  0  0
   -2.5332   -1.4966   -0.0966 N   0  0  0  0  0  0  0  0  0  0  0  0
   -3.2312   -1.2816   -0.7936 H   0  0  0  0  0  0  0  0  0  0  0  0
   -1.3593   -0.6196   -0.0536 C   0  0  1  0  0  0  0  0  0  0  0  0
   -0.4622   -1.2317   -0.1545 H   0  0  0  0  0  0  0  0  0  0  0  0
   -1.4074    0.3593   -1.2373 C   0  0  0  0  0  0  0  0  0  0  0  0
   -0.4172    0.7988   -1.3706 H   0  0  0  0  0  0  0  0  0  0  0  0
   -1.6442   -0.2020   -2.1428 H   0  0  0  0  0  0  0  0  0  0  0  0
   -2.3958    1.4774   -1.0993 C   0  0  0  0  0  0  0  0  0  0  0  0
   -3.6837    1.4436   -1.5089 C   0  0  0  0  0  0  0  0  0  0  0  0
   -4.1511    0.6013   -2.0071 H   0  0  0  0  0  0  0  0  0  0  0  0
   -4.3076    2.6303   -1.1773 N   0  0  0  0  0  0  0  0  0  0  0  0
   -5.2739    2.8301   -1.3903 H   0  0  0  0  0  0  0  0  0  0  0  0
   -3.4515    3.4869   -0.5184 C   0  0  0  0  0  0  0  0  0  0  0  0
   -3.6131    4.7656    0.0341 C   0  0  0  0  0  0  0  0  0  0  0  0
   -4.5669    5.2695   -0.0218 H   0  0  0  0  0  0  0  0  0  0  0  0
   -2.5164    5.3828    0.6596 C   0  0  0  0  0  0  0  0  0  0  0  0
   -2.6221    6.3692    1.0905 H   0  0  0  0  0  0  0  0  0  0  0  0
   -1.2779    4.7179    0.7189 C   0  0  0  0  0  0  0  0  0  0  0  0
   -0.4346    5.1999    1.1938 H   0  0  0  0  0  0  0  0  0  0  0  0
   -1.1264    3.4337    0.1585 C   0  0  0  0  0  0  0  0  0  0  0  0
   -0.1661    2.9397    0.1992 H   0  0  0  0  0  0  0  0  0  0  0  0
   -2.2103    2.7843   -0.4712 C   0  0  0  0  0  0  0  0  0  0  0  0
   -1.2663    0.1182    1.2910 C   0  0  0  0  0  0  0  0  0  0  0  0
   -0.1906    0.1931    1.8833 O   0  0  0  0  0  0  0  0  0  0  0  0
   -2.3930    0.6605    1.7722 N   0  0  0  0  0  0  0  0  0  0  0  0
   -3.2451    0.5077    1.2518 H   0  0  0  0  0  0  0  0  0  0  0  0
   -2.4787    1.3954    3.0311 C   0  0  0  0  0  0  0  0  0  0  0  0
   -1.7166    2.1767    3.0539 H   0  0  0  0  0  0  0  0  0  0  0  0
   -3.4649    1.8498    3.1344 H   0  0  0  0  0  0  0  0  0  0  0  0
   -2.3058    0.7133    3.8652 H   0  0  0  0  0  0  0  0  0  0  0  0
  5  6  2  0  0  0  0
  5  7  1  0  0  0  0
  2  3  1  0  0  0  0
  2  4  1  0  0  0  0
  2  5  1  0  0  0  0
  1  2  1  0  0  0  0
 29 30  2  0  0  0  0
 29 31  1  0  0  0  0
 26 27  1  0  0  0  0
 26 28  2  0  0  0  0
 24 25  1  0  0  0  0
 24 26  1  0  0  0  0
 22 23  1  0  0  0  0
 22 24  2  0  0  0  0
 20 21  1  0  0  0  0
 20 22  1  0  0  0  0
 19 20  2  0  0  0  0
 19 28  1  0  0  0  0
 17 18  1  0  0  0  0
 17 19  1  0  0  0  0
 15 16  1  0  0  0  0
 15 17  1  0  0  0  0
 14 15  2  0  0  0  0
 14 28  1  0  0  0  0
 11 12  1  0  0  0  0
 11 13  1  0  0  0  0
 11 14  1  0  0  0  0
  9 10  1  0  0  0  0
  9 11  1  0  0  0  0
  9 29  1  0  0  0  0
  7  8  1  0  0  0  0
  7  9  1  0  0  0  0
 33 34  1  0  0  0  0
 33 35  1  0  0  0  0
 33 36  1  0  0  0  0
 31 32  1  0  0  0  0
 31 33  1  0  0  0  0
M  END
$$$$
default_name
  -OEChem-02102213163D

 36 37  0     1  0  0  0  0  0999 V2000
   -4.0843   -4.0736    1.2944 H   0  0  0  0  0  0  0  0  0  0  0  0
   -4.0342   -3.2816    0.5484 C   0  0  0  0  0  0  0  0  0  0  0  0
   -4.8842   -2.6126    0.6694 H   0  0  0  0  0  0  0  0  0  0  0  0
   -4.0433   -3.7186   -0.4486 H   0  0  0  0  0  0  0  0  0  0  0  0
   -2.7532   -2.5046    0.7444 C   0  0  0  0  0  0  0  0  0  0  0  0
   -1.9803   -2.8096    1.6434 O   0  0  0  0  0  0  0  0  0  0  0  0
   -2.5332   -1.4966   -0.0966 N   0  0  0  0  0  0  0  0  0  0  0  0
   -3.2312   -1.2816   -0.7936 H   0  0  0  0  0  0  0  0  0  0  0  0
   -1.3593   -0.6196   -0.0536 C   0  0  1  0  0  0  0  0  0  0  0  0
   -0.4622   -1.2317   -0.1545 H   0  0  0  0  0  0  0  0  0  0  0  0
   -1.4074    0.3593   -1.2373 C   0  0  0  0  0  0  0  0  0  0  0  0
   -0.4172    0.7988   -1.3706 H   0  0  0  0  0  0  0  0  0  0  0  0
   -1.6442   -0.2020   -2.1428 H   0  0  0  0  0  0  0  0  0  0  0  0
   -2.3958    1.4774   -1.0993 C   0  0  0  0  0  0  0  0  0  0  0  0
   -3.7358    1.3641   -1.2380 C   0  0  0  0  0  0  0  0  0  0  0  0
   -4.2551    0.4450   -1.4864 H   0  0  0  0  0  0  0  0  0  0  0  0
   -4.3325    2.5859   -0.9957 N   0  0  0  0  0  0  0  0  0  0  0  0
   -5.3290    2.7390   -1.0466 H   0  0  0  0  0  0  0  0  0  0  0  0
   -3.4018    3.5496   -0.6704 C   0  0  0  0  0  0  0  0  0  0  0  0
   -3.5067    4.9035   -0.3203 C   0  0  0  0  0  0  0  0  0  0  0  0
   -4.4732    5.3833   -0.2729 H   0  0  0  0  0  0  0  0  0  0  0  0
   -2.3366    5.6273   -0.0338 C   0  0  0  0  0  0  0  0  0  0  0  0
   -2.3980    6.6727    0.2370 H   0  0  0  0  0  0  0  0  0  0  0  0
   -1.0837    4.9915   -0.1062 C   0  0  0  0  0  0  0  0  0  0  0  0
   -0.1854    5.5543    0.1069 H   0  0  0  0  0  0  0  0  0  0  0  0
   -0.9900    3.6308   -0.4611 C   0  0  0  0  0  0  0  0  0  0  0  0
   -0.0203    3.1581   -0.5260 H   0  0  0  0  0  0  0  0  0  0  0  0
   -2.1469    2.8746   -0.7487 C   0  0  0  0  0  0  0  0  0  0  0  0
   -1.2663    0.1182    1.2910 C   0  0  0  0  0  0  0  0  0  0  0  0
   -0.1906    0.1931    1.8833 O   0  0  0  0  0  0  0  0  0  0  0  0
   -2.3930    0.6605    1.7722 N   0  0  0  0  0  0  0  0  0  0  0  0
   -3.2451    0.5077    1.2518 H   0  0  0  0  0  0  0  0  0  0  0  0
   -2.4787    1.3954    3.0311 C   0  0  0  0  0  0  0  0  0  0  0  0
   -1.7166    2.1767    3.0539 H   0  0  0  0  0  0  0  0  0  0  0  0
   -3.4649    1.8498    3.1344 H   0  0  0  0  0  0  0  0  0  0  0  0
   -2.3058    0.7133    3.8652 H   0  0  0  0  0  0  0  0  0  0  0  0
  5  6  2  0  0  0  0
  5  7  1  0  0  0  0
  2  3  1  0  0  0  0
  2  4  1  0  0  0  0
  2  5  1  0  0  0  0
  1  2  1  0  0  0  0
 29 30  2  0  0  0  0
 29 31  1  0  0  0  0
 26 27  1  0  0  0  0
 26 28  2  0  0  0  0
 24 25  1  0  0  0  0
 24 26  1  0  0  0  0
 22 23  1  0  0  0  0
 22 24  2  0  0  0  0
 20 21  1  0  0  0  0
 20 22  1  0  0  0  0
 19 20  2  0  0  0  0
 19 28  1  0  0  0  0
 17 18  1  0  0  0  0
 17 19  1  0  0  0  0
 15 16  1  0  0  0  0
 15 17  1  0  0  0  0
 14 15  2  0  0  0  0
 14 28  1  0  0  0  0
 11 12  1  0  0  0  0
 11 13  1  0  0  0  0
 11 14  1  0  0  0  0
  9 10  1  0  0  0  0
  9 11  1  0  0  0  0
  9 29  1  0  0  0  0
  7  8  1  0  0  0  0
  7  9  1  0  0  0  0
 33 34  1  0  0  0  0
 33 35  1  0  0  0  0
 33 36  1  0  0  0  0
 31 32  1  0  0  0  0
 31 33  1  0  0  0  0
M  END
$$$$
default_name
  -OEChem-02102213163D

 36 37  0     1  0  0  0  0  0999 V2000
   -4.0843   -4.0736    1.2944 H   0  0  0  0  0  0  0  0  0  0  0  0
   -4.0342   -3.2816    0.5484 C   0  0  0  0  0  0  0  0  0  0  0  0
   -4.8842   -2.6126    0.6694 H   0  0  0  0  0  0  0  0  0  0  0  0
   -4.0433   -3.7186   -0.4486 H   0  0  0  0  0  0  0  0  0  0  0  0
   -2.7532   -2.5046    0.7444 C   0  0  0  0  0  0  0  0  0  0  0  0
   -1.9803   -2.8096    1.6434 O   0  0  0  0  0  0  0  0  0  0  0  0
   -2.5332   -1.4966   -0.0966 N   0  0  0  0  0  0  0  0  0  0  0  0
   -3.2312   -1.2816   -0.7936 H   0  0  0  0  0  0  0  0  0  0  0  0
   -1.3593   -0.6196   -0.0536 C   0  0  1  0  0  0  0  0  0  0  0  0
   -0.4622   -1.2317   -0.1545 H   0  0  0  0  0  0  0  0  0  0  0  0
   -1.4074    0.3593   -1.2373 C   0  0  0  0  0  0  0  0  0  0  0  0
   -0.4172    0.7988   -1.3706 H   0  0  0  0  0  0  0  0  0  0  0  0
   -1.6442   -0.2020   -2.1428 H   0  0  0  0  0  0  0  0  0  0  0  0
   -2.3958    1.4774   -1.0993 C   0  0  0  0  0  0  0  0  0  0  0  0
   -3.7319    1.3324   -0.9528 C   0  0  0  0  0  0  0  0  0  0  0  0
   -4.2514    0.3805   -0.9367 H   0  0  0  0  0  0  0  0  0  0  0  0
   -4.3204    2.5734   -0.8079 N   0  0  0  0  0  0  0  0  0  0  0  0
   -5.3137    2.7084   -0.6884 H   0  0  0  0  0  0  0  0  0  0  0  0
   -3.3846    3.5855   -0.8375 C   0  0  0  0  0  0  0  0  0  0  0  0
   -3.4756    4.9787   -0.7067 C   0  0  0  0  0  0  0  0  0  0  0  0
   -4.4339    5.4526   -0.5531 H   0  0  0  0  0  0  0  0  0  0  0  0
   -2.3027    5.7494   -0.7800 C   0  0  0  0  0  0  0  0  0  0  0  0
   -2.3536    6.8254   -0.6824 H   0  0  0  0  0  0  0  0  0  0  0  0
   -1.0619    5.1195   -0.9875 C   0  0  0  0  0  0  0  0  0  0  0  0
   -0.1630    5.7170   -1.0516 H   0  0  0  0  0  0  0  0  0  0  0  0
   -0.9826    3.7186   -1.1196 C   0  0  0  0  0  0  0  0  0  0  0  0
   -0.0247    3.2486   -1.2919 H   0  0  0  0  0  0  0  0  0  0  0  0
   -2.1415    2.9159   -1.0444 C   0  0  0  0  0  0  0  0  0  0  0  0
   -1.2663    0.1182    1.2910 C   0  0  0  0  0  0  0  0  0  0  0  0
   -0.1906    0.1931    1.8833 O   0  0  0  0  0  0  0  0  0  0  0  0
   -2.3930    0.6605    1.7722 N   0  0  0  0  0  0  0  0  0  0  0  0
   -3.2451    0.5077    1.2518 H   0  0  0  0  0  0  0  0  0  0  0  0
   -2.4787    1.3954    3.0311 C   0  0  0  0  0  0  0  0  0  0  0  0
   -1.7166    2.1767    3.0539 H   0  0  0  0  0  0  0  0  0  0  0  0
   -3.4649    1.8498    3.1344 H   0  0  0  0  0  0  0  0  0  0  0  0
   -2.3058    0.7133    3.8652 H   0  0  0  0  0  0  0  0  0  0  0  0
  5  6  2  0  0  0  0
  5  7  1  0  0  0  0
  2  3  1  0  0  0  0
  2  4  1  0  0  0  0
  2  5  1  0  0  0  0
  1  2  1  0  0  0  0
 29 30  2  0  0  0  0
 29 31  1  0  0  0  0
 26 27  1  0  0  0  0
 26 28  2  0  0  0  0
 24 25  1  0  0  0  0
 24 26  1  0  0  0  0
 22 23  1  0  0  0  0
 22 24  2  0  0  0  0
 20 21  1  0  0  0  0
 20 22  1  0  0  0  0
 19 20  2  0  0  0  0
 19 28  1  0  0  0  0
 17 18  1  0  0  0  0
 17 19  1  0  0  0  0
 15 16  1  0  0  0  0
 15 17  1  0  0  0  0
 14 15  2  0  0  0  0
 14 28  1  0  0  0  0
 11 12  1  0  0  0  0
 11 13  1  0  0  0  0
 11 14  1  0  0  0  0
  9 10  1  0  0  0  0
  9 11  1  0  0  0  0
  9 29  1  0  0  0  0
  7  8  1  0  0  0  0
  7  9  1  0  0  0  0
 33 34  1  0  0  0  0
 33 35  1  0  0  0  0
 33 36  1  0  0  0  0
 31 32  1  0  0  0  0
 31 33  1  0  0  0  0
M  END
$$$$
default_name
  -OEChem-02102213163D

 36 37  0     1  0  0  0  0  0999 V2000
   -4.0843   -4.0736    1.2944 H   0  0  0  0  0  0  0  0  0  0  0  0
   -4.0342   -3.2816    0.5484 C   0  0  0  0  0  0  0  0  0  0  0  0
   -4.8842   -2.6126    0.6694 H   0  0  0  0  0  0  0  0  0  0  0  0
   -4.0433   -3.7186   -0.4486 H   0  0  0  0  0  0  0  0  0  0  0  0
   -2.7532   -2.5046    0.7444 C   0  0  0  0  0  0  0  0  0  0  0  0
   -1.9803   -2.8096    1.6434 O   0  0  0  0  0  0  0  0  0  0  0  0
   -2.5332   -1.4966   -0.0966 N   0  0  0  0  0  0  0  0  0  0  0  0
   -3.2312   -1.2816   -0.7936 H   0  0  0  0  0  0  0  0  0  0  0  0
   -1.3593   -0.6196   -0.0536 C   0  0  1  0  0  0  0  0  0  0  0  0
   -0.4622   -1.2317   -0.1545 H   0  0  0  0  0  0  0  0  0  0  0  0
   -1.4074    0.3593   -1.2373 C   0  0  0  0  0  0  0  0  0  0  0  0
   -0.4172    0.7988   -1.3706 H   0  0  0  0  0  0  0  0  0  0  0  0
   -1.6442   -0.2020   -2.1428 H   0  0  0  0  0  0  0  0  0  0  0  0
   -2.3958    1.4774   -1.0993 C   0  0  0  0  0  0  0  0  0  0  0  0
   -3.6723    1.3505   -0.6726 C   0  0  0  0  0  0  0  0  0  0  0  0
   -4.1401    0.4121   -0.3954 H   0  0  0  0  0  0  0  0  0  0  0  0
   -4.2722    2.5937   -0.6267 N   0  0  0  0  0  0  0  0  0  0  0  0
   -5.2290    2.7403   -0.3401 H   0  0  0  0  0  0  0  0  0  0  0  0
   -3.4011    3.5919   -1.0083 C   0  0  0  0  0  0  0  0  0  0  0  0
   -3.5219    4.9861   -1.0987 C   0  0  0  0  0  0  0  0  0  0  0  0
   -4.4517    5.4727   -0.8431 H   0  0  0  0  0  0  0  0  0  0  0  0
   -2.4169    5.7407   -1.5282 C   0  0  0  0  0  0  0  0  0  0  0  0
   -2.4918    6.8170   -1.6051 H   0  0  0  0  0  0  0  0  0  0  0  0
   -1.2140    5.0932   -1.8648 C   0  0  0  0  0  0  0  0  0  0  0  0
   -0.3690    5.6770   -2.2028 H   0  0  0  0  0  0  0  0  0  0  0  0
   -1.1046    3.6912   -1.7720 C   0  0  0  0  0  0  0  0  0  0  0  0
   -0.1791    3.2053   -2.0464 H   0  0  0  0  0  0  0  0  0  0  0  0
   -2.1943    2.9055   -1.3381 C   0  0  0  0  0  0  0  0  0  0  0  0
   -1.2663    0.1182    1.2910 C   0  0  0  0  0  0  0  0  0  0  0  0
   -0.1906    0.1931    1.8833 O   0  0  0  0  0  0  0  0  0  0  0  0
   -2.3930    0.6605    1.7722 N   0  0  0  0  0  0  0  0  0  0  0  0
   -3.2451    0.5077    1.2518 H   0  0  0  0  0  0  0  0  0  0  0  0
   -2.4787    1.3954    3.0311 C   0  0  0  0  0  0  0  0  0  0  0  0
   -1.7166    2.1767    3.0539 H   0  0  0  0  0  0  0  0  0  0  0  0
   -3.4649    1.8498    3.1344 H   0  0  0  0  0  0  0  0  0  0  0  0
   -2.3058    0.7133    3.8652 H   0  0  0  0  0  0  0  0  0  0  0  0
  5  6  2  0  0  0  0
  5  7  1  0  0  0  0
  2  3  1  0  0  0  0
  2  4  1  0  0  0  0
  2  5  1  0  0  0  0
  1  2  1  0  0  0  0
 29 30  2  0  0  0  0
 29 31  1  0  0  0  0
 26 27  1  0  0  0  0
 26 28  2  0  0  0  0
 24 25  1  0  0  0  0
 24 26  1  0  0  0  0
 22 23  1  0  0  0  0
 22 24  2  0  0  0  0
 20 21  1  0  0  0  0
 20 22  1  0  0  0  0
 19 20  2  0  0  0  0
 19 28  1  0  0  0  0
 17 18  1  0  0  0  0
 17 19  1  0  0  0  0
 15 16  1  0  0  0  0
 15 17  1  0  0  0  0
 14 15  2  0  0  0  0
 14 28  1  0  0  0  0
 11 12  1  0  0  0  0
 11 13  1  0  0  0  0
 11 14  1  0  0  0  0
  9 10  1  0  0  0  0
  9 11  1  0  0  0  0
  9 29  1  0  0  0  0
  7  8  1  0  0  0  0
  7  9  1  0  0  0  0
 33 34  1  0  0  0  0
 33 35  1  0  0  0  0
 33 36  1  0  0  0  0
 31 32  1  0  0  0  0
 31 33  1  0  0  0  0
M  END
$$$$
default_name
  -OEChem-02102213163D

 36 37  0     1  0  0  0  0  0999 V2000
   -4.0843   -4.0736    1.2944 H   0  0  0  0  0  0  0  0  0  0  0  0
   -4.0342   -3.2816    0.5484 C   0  0  0  0  0  0  0  0  0  0  0  0
   -4.8842   -2.6126    0.6694 H   0  0  0  0  0  0  0  0  0  0  0  0
   -4.0433   -3.7186   -0.4486 H   0  0  0  0  0  0  0  0  0  0  0  0
   -2.7532   -2.5046    0.7444 C   0  0  0  0  0  0  0  0  0  0  0  0
   -1.9803   -2.8096    1.6434 O   0  0  0  0  0  0  0  0  0  0  0  0
   -2.5332   -1.4966   -0.0966 N   0  0  0  0  0  0  0  0  0  0  0  0
   -3.2312   -1.2816   -0.7936 H   0  0  0  0  0  0  0  0  0  0  0  0
   -1.3593   -0.6196   -0.0536 C   0  0  1  0  0  0  0  0  0  0  0  0
   -0.4622   -1.2317   -0.1545 H   0  0  0  0  0  0  0  0  0  0  0  0
   -1.4074    0.3593   -1.2373 C   0  0  0  0  0  0  0  0  0  0  0  0
   -0.4172    0.7988   -1.3706 H   0  0  0  0  0  0  0  0  0  0  0  0
   -1.6442   -0.2020   -2.1428 H   0  0  0  0  0  0  0  0  0  0  0  0
   -2.3958    1.4774   -1.0993 C   0  0  0  0  0  0  0  0  0  0  0  0
   -3.5611    1.4173   -0.4165 C   0  0  0  0  0  0  0  0  0  0  0  0
   -3.9288    0.5377    0.1005 H   0  0  0  0  0  0  0  0  0  0  0  0
   -4.1911    2.6454   -0.4645 N   0  0  0  0  0  0  0  0  0  0  0  0
   -5.0807    2.8326   -0.0255 H   0  0  0  0  0  0  0  0  0  0  0  0
   -3.4502    3.5686   -1.1712 C   0  0  0  0  0  0  0  0  0  0  0  0
   -3.6425    4.9252   -1.4697 C   0  0  0  0  0  0  0  0  0  0  0  0
   -4.5253    5.4422   -1.1232 H   0  0  0  0  0  0  0  0  0  0  0  0
   -2.6715    5.6019   -2.2274 C   0  0  0  0  0  0  0  0  0  0  0  0
   -2.8033    6.6481   -2.4683 H   0  0  0  0  0  0  0  0  0  0  0  0
   -1.5298    4.9145   -2.6783 C   0  0  0  0  0  0  0  0  0  0  0  0
   -0.7893    5.4369   -3.2681 H   0  0  0  0  0  0  0  0  0  0  0  0
   -1.3478    3.5505   -2.3740 C   0  0  0  0  0  0  0  0  0  0  0  0
   -0.4728    3.0309   -2.7379 H   0  0  0  0  0  0  0  0  0  0  0  0
   -2.3017    2.8440   -1.6098 C   0  0  0  0  0  0  0  0  0  0  0  0
   -1.2663    0.1182    1.2910 C   0  0  0  0  0  0  0  0  0  0  0  0
   -0.1906    0.1931    1.8833 O   0  0  0  0  0  0  0  0  0  0  0  0
   -2.3930    0.6605    1.7722 N   0  0  0  0  0  0  0  0  0  0  0  0
   -3.2451    0.5077    1.2518 H   0  0  0  0  0  0  0  0  0  0  0  0
   -2.4787    1.3954    3.0311 C   0  0  0  0  0  0  0  0  0  0  0  0
   -1.7166    2.1767    3.0539 H   0  0  0  0  0  0  0  0  0  0  0  0
   -3.4649    1.8498    3.1344 H   0  0  0  0  0  0  0  0  0  0  0  0
   -2.3058    0.7133    3.8652 H   0  0  0  0  0  0  0  0  0  0  0  0
  5  6  2  0  0  0  0
  5  7  1  0  0  0  0
  2  3  1  0  0  0  0
  2  4  1  0  0  0  0
  2  5  1  0  0  0  0
  1  2  1  0  0  0  0
 29 30  2  0  0  0  0
 29 31  1  0  0  0  0
 26 27  1  0  0  0  0
 26 28  2  0  0  0  0
 24 25  1  0  0  0  0
 24 26  1  0  0  0  0
 22 23  1  0  0  0  0
 22 24  2  0  0  0  0
 20 21  1  0  0  0  0
 20 22  1  0  0  0  0
 19 20  2  0  0  0  0
 19 28  1  0  0  0  0
 17 18  1  0  0  0  0
 17 19  1  0  0  0  0
 15 16  1  0  0  0  0
 15 17  1  0  0  0  0
 14 15  2  0  0  0  0
 14 28  1  0  0  0  0
 11 12  1  0  0  0  0
 11 13  1  0  0  0  0
 11 14  1  0  0  0  0
  9 10  1  0  0  0  0
  9 11  1  0  0  0  0
  9 29  1  0  0  0  0
  7  8  1  0  0  0  0
  7  9  1  0  0  0  0
 33 34  1  0  0  0  0
 33 35  1  0  0  0  0
 33 36  1  0  0  0  0
 31 32  1  0  0  0  0
 31 33  1  0  0  0  0
M  END
$$$$
default_name
  -OEChem-02102213163D

 36 37  0     1  0  0  0  0  0999 V2000
   -4.0843   -4.0736    1.2944 H   0  0  0  0  0  0  0  0  0  0  0  0
   -4.0342   -3.2816    0.5484 C   0  0  0  0  0  0  0  0  0  0  0  0
   -4.8842   -2.6126    0.6694 H   0  0  0  0  0  0  0  0  0  0  0  0
   -4.0433   -3.7186   -0.4486 H   0  0  0  0  0  0  0  0  0  0  0  0
   -2.7532   -2.5046    0.7444 C   0  0  0  0  0  0  0  0  0  0  0  0
   -1.9803   -2.8096    1.6434 O   0  0  0  0  0  0  0  0  0  0  0  0
   -2.5332   -1.4966   -0.0966 N   0  0  0  0  0  0  0  0  0  0  0  0
   -3.2312   -1.2816   -0.7936 H   0  0  0  0  0  0  0  0  0  0  0  0
   -1.3593   -0.6196   -0.0536 C   0  0  1  0  0  0  0  0  0  0  0  0
   -0.4622   -1.2317   -0.1545 H   0  0  0  0  0  0  0  0  0  0  0  0
   -1.4074    0.3593   -1.2373 C   0  0  0  0  0  0  0  0  0  0  0  0
   -0.4172    0.7988   -1.3706 H   0  0  0  0  0  0  0  0  0  0  0  0
   -1.6442   -0.2020   -2.1428 H   0  0  0  0  0  0  0  0  0  0  0  0
   -2.3958    1.4774   -1.0993 C   0  0  0  0  0  0  0  0  0  0  0  0
   -3.4058    1.5281   -0.2021 C   0  0  0  0  0  0  0  0  0  0  0  0
   -3.6319    0.7487    0.5173 H   0  0  0  0  0  0  0  0  0  0  0  0
   -4.0827    2.7249   -0.3322 N   0  0  0  0  0  0  0  0  0  0  0  0
   -4.8789    2.9790    0.2340 H   0  0  0  0  0  0  0  0  0  0  0  0
   -3.5285    3.5172   -1.3151 C   0  0  0  0  0  0  0  0  0  0  0  0
   -3.8292    4.8002   -1.7944 C   0  0  0  0  0  0  0  0  0  0  0  0
   -4.6498    5.3631   -1.3744 H   0  0  0  0  0  0  0  0  0  0  0  0
   -3.0491    5.3425   -2.8300 C   0  0  0  0  0  0  0  0  0  0  0  0
   -3.2669    6.3302   -3.2131 H   0  0  0  0  0  0  0  0  0  0  0  0
   -1.9876    4.5954   -3.3727 C   0  0  0  0  0  0  0  0  0  0  0  0
   -1.3952    5.0131   -4.1750 H   0  0  0  0  0  0  0  0  0  0  0  0
   -1.6956    3.3060   -2.8845 C   0  0  0  0  0  0  0  0  0  0  0  0
   -0.8858    2.7375   -3.3194 H   0  0  0  0  0  0  0  0  0  0  0  0
   -2.4565    2.7357   -1.8410 C   0  0  0  0  0  0  0  0  0  0  0  0
   -1.2663    0.1182    1.2910 C   0  0  0  0  0  0  0  0  0  0  0  0
   -0.1906    0.1931    1.8833 O   0  0  0  0  0  0  0  0  0  0  0  0
   -2.3930    0.6605    1.7722 N   0  0  0  0  0  0  0  0  0  0  0  0
   -3.2451    0.5077    1.2518 H   0  0  0  0  0  0  0  0  0  0  0  0
   -2.4787    1.3954    3.0311 C   0  0  0  0  0  0  0  0  0  0  0  0
   -1.7166    2.1767    3.0539 H   0  0  0  0  0  0  0  0  0  0  0  0
   -3.4649    1.8498    3.1344 H   0  0  0  0  0  0  0  0  0  0  0  0
   -2.3058    0.7133    3.8652 H   0  0  0  0  0  0  0  0  0  0  0  0
  5  6  2  0  0  0  0
  5  7  1  0  0  0  0
  2  3  1  0  0  0  0
  2  4  1  0  0  0  0
  2  5  1  0  0  0  0
  1  2  1  0  0  0  0
 29 30  2  0  0  0  0
 29 31  1  0  0  0  0
 26 27  1  0  0  0  0
 26 28  2  0  0  0  0
 24 25  1  0  0  0  0
 24 26  1  0  0  0  0
 22 23  1  0  0  0  0
 22 24  2  0  0  0  0
 20 21  1  0  0  0  0
 20 22  1  0  0  0  0
 19 20  2  0  0  0  0
 19 28  1  0  0  0  0
 17 18  1  0  0  0  0
 17 19  1  0  0  0  0
 15 16  1  0  0  0  0
 15 17  1  0  0  0  0
 14 15  2  0  0  0  0
 14 28  1  0  0  0  0
 11 12  1  0  0  0  0
 11 13  1  0  0  0  0
 11 14  1  0  0  0  0
  9 10  1  0  0  0  0
  9 11  1  0  0  0  0
  9 29  1  0  0  0  0
  7  8  1  0  0  0  0
  7  9  1  0  0  0  0
 33 34  1  0  0  0  0
 33 35  1  0  0  0  0
 33 36  1  0  0  0  0
 31 32  1  0  0  0  0
 31 33  1  0  0  0  0
M  END
$$$$
default_name
  -OEChem-02102213163D

 36 37  0     1  0  0  0  0  0999 V2000
   -4.0843   -4.0736    1.2944 H   0  0  0  0  0  0  0  0  0  0  0  0
   -4.0342   -3.2816    0.5484 C   0  0  0  0  0  0  0  0  0  0  0  0
   -4.8842   -2.6126    0.6694 H   0  0  0  0  0  0  0  0  0  0  0  0
   -4.0433   -3.7186   -0.4486 H   0  0  0  0  0  0  0  0  0  0  0  0
   -2.7532   -2.5046    0.7444 C   0  0  0  0  0  0  0  0  0  0  0  0
   -1.9803   -2.8096    1.6434 O   0  0  0  0  0  0  0  0  0  0  0  0
   -2.5332   -1.4966   -0.0966 N   0  0  0  0  0  0  0  0  0  0  0  0
   -3.2312   -1.2816   -0.7936 H   0  0  0  0  0  0  0  0  0  0  0  0
   -1.3593   -0.6196   -0.0536 C   0  0  1  0  0  0  0  0  0  0  0  0
   -0.4622   -1.2317   -0.1545 H   0  0  0  0  0  0  0  0  0  0  0  0
   -1.4074    0.3593   -1.2373 C   0  0  0  0  0  0  0  0  0  0  0  0
   -0.4172    0.7988   -1.3706 H   0  0  0  0  0  0  0  0  0  0  0  0
   -1.6442   -0.2020   -2.1428 H   0  0  0  0  0  0  0  0  0  0  0  0
   -2.3958    1.4774   -1.0993 C   0  0  0  0  0  0  0  0  0  0  0  0
   -3.2170    1.6755   -0.0439 C   0  0  0  0  0  0  0  0  0  0  0  0
   -3.2698    1.0308    0.8266 H   0  0  0  0  0  0  0  0  0  0  0  0
   -3.9543    2.8269   -0.2390 N   0  0  0  0  0  0  0  0  0  0  0  0
   -4.6373    3.1695    0.4207 H   0  0  0  0  0  0  0  0  0  0  0  0
   -3.6307    3.4410   -1.4302 C   0  0  0  0  0  0  0  0  0  0  0  0
   -4.0692    4.6196   -2.0506 C   0  0  0  0  0  0  0  0  0  0  0  0
   -4.8167    5.2408   -1.5794 H   0  0  0  0  0  0  0  0  0  0  0  0
   -3.5239    4.9800   -3.2948 C   0  0  0  0  0  0  0  0  0  0  0  0
   -3.8508    5.8850   -3.7887 H   0  0  0  0  0  0  0  0  0  0  0  0
   -2.5562    4.1578   -3.9005 C   0  0  0  0  0  0  0  0  0  0  0  0
   -2.1454    4.4345   -4.8616 H   0  0  0  0  0  0  0  0  0  0  0  0
   -2.1243    2.9744   -3.2687 C   0  0  0  0  0  0  0  0  0  0  0  0
   -1.3901    2.3450   -3.7512 H   0  0  0  0  0  0  0  0  0  0  0  0
   -2.6481    2.5879   -2.0159 C   0  0  0  0  0  0  0  0  0  0  0  0
   -1.2663    0.1182    1.2910 C   0  0  0  0  0  0  0  0  0  0  0  0
   -0.1906    0.1931    1.8833 O   0  0  0  0  0  0  0  0  0  0  0  0
   -2.3930    0.6605    1.7722 N   0  0  0  0  0  0  0  0  0  0  0  0
   -3.2451    0.5077    1.2518 H   0  0  0  0  0  0  0  0  0  0  0  0
   -2.4787    1.3954    3.0311 C   0  0  0  0  0  0  0  0  0  0  0  0
   -1.7166    2.1767    3.0539 H   0  0  0  0  0  0  0  0  0  0  0  0
   -3.4649    1.8498    3.1344 H   0  0  0  0  0  0  0  0  0  0  0  0
   -2.3058    0.7133    3.8652 H   0  0  0  0  0  0  0  0  0  0  0  0
  5  6  2  0  0  0  0
  5  7  1  0  0  0  0
  2  3  1  0  0  0  0
  2  4  1  0  0  0  0
  2  5  1  0  0  0  0
  1  2  1  0  0  0  0
 29 30  2  0  0  0  0
 29 31  1  0  0  0  0
 26 27  1  0  0  0  0
 26 28  2  0  0  0  0
 24 25  1  0  0  0  0
 24 26  1  0  0  0  0
 22 23  1  0  0  0  0
 22 24  2  0  0  0  0
 20 21  1  0  0  0  0
 20 22  1  0  0  0  0
 19 20  2  0  0  0  0
 19 28  1  0  0  0  0
 17 18  1  0  0  0  0
 17 19  1  0  0  0  0
 15 16  1  0  0  0  0
 15 17  1  0  0  0  0
 14 15  2  0  0  0  0
 14 28  1  0  0  0  0
 11 12  1  0  0  0  0
 11 13  1  0  0  0  0
 11 14  1  0  0  0  0
  9 10  1  0  0  0  0
  9 11  1  0  0  0  0
  9 29  1  0  0  0  0
  7  8  1  0  0  0  0
  7  9  1  0  0  0  0
 33 34  1  0  0  0  0
 33 35  1  0  0  0  0
 33 36  1  0  0  0  0
 31 32  1  0  0  0  0
 31 33  1  0  0  0  0
M  END
$$$$
default_name
  -OEChem-02102213163D

 36 37  0     1  0  0  0  0  0999 V2000
   -4.0843   -4.0736    1.2944 H   0  0  0  0  0  0  0  0  0  0  0  0
   -4.0342   -3.2816    0.5484 C   0  0  0  0  0  0  0  0  0  0  0  0
   -4.8842   -2.6126    0.6694 H   0  0  0  0  0  0  0  0  0  0  0  0
   -4.0433   -3.7186   -0.4486 H   0  0  0  0  0  0  0  0  0  0  0  0
   -2.7532   -2.5046    0.7444 C   0  0  0  0  0  0  0  0  0  0  0  0
   -1.9803   -2.8096    1.6434 O   0  0  0  0  0  0  0  0  0  0  0  0
   -2.5332   -1.4966   -0.0966 N   0  0  0  0  0  0  0  0  0  0  0  0
   -3.2312   -1.2816   -0.7936 H   0  0  0  0  0  0  0  0  0  0  0  0
   -1.3593   -0.6196   -0.0536 C   0  0  1  0  0  0  0  0  0  0  0  0
   -0.4622   -1.2317   -0.1545 H   0  0  0  0  0  0  0  0  0  0  0  0
   -1.4074    0.3593   -1.2373 C   0  0  0  0  0  0  0  0  0  0  0  0
   -0.4172    0.7988   -1.3706 H   0  0  0  0  0  0  0  0  0  0  0  0
   -1.6442   -0.2020   -2.1428 H   0  0  0  0  0  0  0  0  0  0  0  0
   -2.3958    1.4774   -1.0993 C   0  0  0  0  0  0  0  0  0  0  0  0
   -3.0076    1.8493    0.0474 C   0  0  0  0  0  0  0  0  0  0  0  0
   -2.8669    1.3646    1.0073 H   0  0  0  0  0  0  0  0  0  0  0  0
   -3.8147    2.9444   -0.1912 N   0  0  0  0  0  0  0  0  0  0  0  0
   -4.3725    3.3911    0.5219 H   0  0  0  0  0  0  0  0  0  0  0  0
   -3.7498    3.3454   -1.5086 C   0  0  0  0  0  0  0  0  0  0  0  0
   -4.3463    4.3957   -2.2210 C   0  0  0  0  0  0  0  0  0  0  0  0
   -5.0145    5.0838   -1.7244 H   0  0  0  0  0  0  0  0  0  0  0  0
   -4.0637    4.5392   -3.5901 C   0  0  0  0  0  0  0  0  0  0  0  0
   -4.5154    5.3427   -4.1560 H   0  0  0  0  0  0  0  0  0  0  0  0
   -3.1970    3.6314   -4.2258 C   0  0  0  0  0  0  0  0  0  0  0  0
   -2.9889    3.7406   -5.2812 H   0  0  0  0  0  0  0  0  0  0  0  0
   -2.6047    2.5783   -3.5004 C   0  0  0  0  0  0  0  0  0  0  0  0
   -1.9512    1.8801   -4.0039 H   0  0  0  0  0  0  0  0  0  0  0  0
   -2.8634    2.4107   -2.1227 C   0  0  0  0  0  0  0  0  0  0  0  0
   -1.2663    0.1182    1.2910 C   0  0  0  0  0  0  0  0  0  0  0  0
   -0.1906    0.1931    1.8833 O   0  0  0  0  0  0  0  0  0  0  0  0
   -2.3930    0.6605    1.7722 N   0  0  0  0  0  0  0  0  0  0  0  0
   -3.2451    0.5077    1.2518 H   0  0  0  0  0  0  0  0  0  0  0  0
   -2.4787    1.3954    3.0311 C   0  0  0  0  0  0  0  0  0  0  0  0
   -1.7166    2.1767    3.0539 H   0  0  0  0  0  0  0  0  0  0  0  0
   -3.4649    1.8498    3.1344 H   0  0  0  0  0  0  0  0  0  0  0  0
   -2.3058    0.7133    3.8652 H   0  0  0  0  0  0  0  0  0  0  0  0
  5  6  2  0  0  0  0
  5  7  1  0  0  0  0
  2  3  1  0  0  0  0
  2  4  1  0  0  0  0
  2  5  1  0  0  0  0
  1  2  1  0  0  0  0
 29 30  2  0  0  0  0
 29 31  1  0  0  0  0
 26 27  1  0  0  0  0
 26 28  2  0  0  0  0
 24 25  1  0  0  0  0
 24 26  1  0  0  0  0
 22 23  1  0  0  0  0
 22 24  2  0  0  0  0
 20 21  1  0  0  0  0
 20 22  1  0  0  0  0
 19 20  2  0  0  0  0
 19 28  1  0  0  0  0
 17 18  1  0  0  0  0
 17 19  1  0  0  0  0
 15 16  1  0  0  0  0
 15 17  1  0  0  0  0
 14 15  2  0  0  0  0
 14 28  1  0  0  0  0
 11 12  1  0  0  0  0
 11 13  1  0  0  0  0
 11 14  1  0  0  0  0
  9 10  1  0  0  0  0
  9 11  1  0  0  0  0
  9 29  1  0  0  0  0
  7  8  1  0  0  0  0
  7  9  1  0  0  0  0
 33 34  1  0  0  0  0
 33 35  1  0  0  0  0
 33 36  1  0  0  0  0
 31 32  1  0  0  0  0
 31 33  1  0  0  0  0
M  END
$$$$
default_name
  -OEChem-02102213163D

 36 37  0     1  0  0  0  0  0999 V2000
   -4.0843   -4.0736    1.2944 H   0  0  0  0  0  0  0  0  0  0  0  0
   -4.0342   -3.2816    0.5484 C   0  0  0  0  0  0  0  0  0  0  0  0
   -4.8842   -2.6126    0.6694 H   0  0  0  0  0  0  0  0  0  0  0  0
   -4.0433   -3.7186   -0.4486 H   0  0  0  0  0  0  0  0  0  0  0  0
   -2.7532   -2.5046    0.7444 C   0  0  0  0  0  0  0  0  0  0  0  0
   -1.9803   -2.8096    1.6434 O   0  0  0  0  0  0  0  0  0  0  0  0
   -2.5332   -1.4966   -0.0966 N   0  0  0  0  0  0  0  0  0  0  0  0
   -3.2312   -1.2816   -0.7936 H   0  0  0  0  0  0  0  0  0  0  0  0
   -1.3593   -0.6196   -0.0536 C   0  0  1  0  0  0  0  0  0  0  0  0
   -0.4622   -1.2317   -0.1545 H   0  0  0  0  0  0  0  0  0  0  0  0
   -1.4074    0.3593   -1.2373 C   0  0  0  0  0  0  0  0  0  0  0  0
   -0.4172    0.7988   -1.3706 H   0  0  0  0  0  0  0  0  0  0  0  0
   -1.6442   -0.2020   -2.1428 H   0  0  0  0  0  0  0  0  0  0  0  0
   -2.3958    1.4774   -1.0993 C   0  0  0  0  0  0  0  0  0  0  0  0
   -2.7919    2.0378    0.0654 C   0  0  0  0  0  0  0  0  0  0  0  0
   -2.4509    1.7275    1.0470 H   0  0  0  0  0  0  0  0  0  0  0  0
   -3.6735    3.0693   -0.1919 N   0  0  0  0  0  0  0  0  0  0  0  0
   -4.1025    3.6288    0.5307 H   0  0  0  0  0  0  0  0  0  0  0  0
   -3.8778    3.2368   -1.5451 C   0  0  0  0  0  0  0  0  0  0  0  0
   -4.6414    4.1437   -2.2938 C   0  0  0  0  0  0  0  0  0  0  0  0
   -5.2299    4.9027   -1.7995 H   0  0  0  0  0  0  0  0  0  0  0  0
   -4.6317    4.0501   -3.6960 C   0  0  0  0  0  0  0  0  0  0  0  0
   -5.2154    4.7404   -4.2899 H   0  0  0  0  0  0  0  0  0  0  0  0
   -3.8662    3.0522   -4.3265 C   0  0  0  0  0  0  0  0  0  0  0  0
   -3.8682    2.9785   -5.4052 H   0  0  0  0  0  0  0  0  0  0  0  0
   -3.1040    2.1447   -3.5639 C   0  0  0  0  0  0  0  0  0  0  0  0
   -2.5309    1.3745   -4.0604 H   0  0  0  0  0  0  0  0  0  0  0  0
   -3.0877    2.2162   -2.1541 C   0  0  0  0  0  0  0  0  0  0  0  0
   -1.2663    0.1182    1.2910 C   0  0  0  0  0  0  0  0  0  0  0  0
   -0.1906    0.1931    1.8833 O   0  0  0  0  0  0  0  0  0  0  0  0
   -2.3930    0.6605    1.7722 N   0  0  0  0  0  0  0  0  0  0  0  0
   -3.2451    0.5077    1.2518 H   0  0  0  0  0  0  0  0  0  0  0  0
   -2.4787    1.3954    3.0311 C   0  0  0  0  0  0  0  0  0  0  0  0
   -1.7166    2.1767    3.0539 H   0  0  0  0  0  0  0  0  0  0  0  0
   -3.4649    1.8498    3.1344 H   0  0  0  0  0  0  0  0  0  0  0  0
   -2.3058    0.7133    3.8652 H   0  0  0  0  0  0  0  0  0  0  0  0
  5  6  2  0  0  0  0
  5  7  1  0  0  0  0
  2  3  1  0  0  0  0
  2  4  1  0  0  0  0
  2  5  1  0  0  0  0
  1  2  1  0  0  0  0
 29 30  2  0  0  0  0
 29 31  1  0  0  0  0
 26 27  1  0  0  0  0
 26 28  2  0  0  0  0
 24 25  1  0  0  0  0
 24 26  1  0  0  0  0
 22 23  1  0  0  0  0
 22 24  2  0  0  0  0
 20 21  1  0  0  0  0
 20 22  1  0  0  0  0
 19 20  2  0  0  0  0
 19 28  1  0  0  0  0
 17 18  1  0  0  0  0
 17 19  1  0  0  0  0
 15 16  1  0  0  0  0
 15 17  1  0  0  0  0
 14 15  2  0  0  0  0
 14 28  1  0  0  0  0
 11 12  1  0  0  0  0
 11 13  1  0  0  0  0
 11 14  1  0  0  0  0
  9 10  1  0  0  0  0
  9 11  1  0  0  0  0
  9 29  1  0  0  0  0
  7  8  1  0  0  0  0
  7  9  1  0  0  0  0
 33 34  1  0  0  0  0
 33 35  1  0  0  0  0
 33 36  1  0  0  0  0
 31 32  1  0  0  0  0
 31 33  1  0  0  0  0
M  END
$$$$
default_name
  -OEChem-02102213163D

 36 37  0     1  0  0  0  0  0999 V2000
   -4.0843   -4.0736    1.2944 H   0  0  0  0  0  0  0  0  0  0  0  0
   -4.0342   -3.2816    0.5484 C   0  0  0  0  0  0  0  0  0  0  0  0
   -4.8842   -2.6126    0.6694 H   0  0  0  0  0  0  0  0  0  0  0  0
   -4.0433   -3.7186   -0.4486 H   0  0  0  0  0  0  0  0  0  0  0  0
   -2.7532   -2.5046    0.7444 C   0  0  0  0  0  0  0  0  0  0  0  0
   -1.9803   -2.8096    1.6434 O   0  0  0  0  0  0  0  0  0  0  0  0
   -2.5332   -1.4966   -0.0966 N   0  0  0  0  0  0  0  0  0  0  0  0
   -3.2312   -1.2816   -0.7936 H   0  0  0  0  0  0  0  0  0  0  0  0
   -1.3593   -0.6196   -0.0536 C   0  0  1  0  0  0  0  0  0  0  0  0
   -0.4622   -1.2317   -0.1545 H   0  0  0  0  0  0  0  0  0  0  0  0
   -1.4074    0.3593   -1.2373 C   0  0  0  0  0  0  0  0  0  0  0  0
   -0.4172    0.7988   -1.3706 H   0  0  0  0  0  0  0  0  0  0  0  0
   -1.6442   -0.2020   -2.1428 H   0  0  0  0  0  0  0  0  0  0  0  0
   -2.3958    1.4774   -1.0993 C   0  0  0  0  0  0  0  0  0  0  0  0
   -2.5845    2.2281    0.0090 C   0  0  0  0  0  0  0  0  0  0  0  0
   -2.0500    2.0948    0.9432 H   0  0  0  0  0  0  0  0  0  0  0  0
   -3.5402    3.1933   -0.2413 N   0  0  0  0  0  0  0  0  0  0  0  0
   -3.8456    3.8663    0.4465 H   0  0  0  0  0  0  0  0  0  0  0  0
   -4.0058    3.1226   -1.5370 C   0  0  0  0  0  0  0  0  0  0  0  0
   -4.9346    3.8809   -2.2641 C   0  0  0  0  0  0  0  0  0  0  0  0
   -5.4481    4.7097   -1.7994 H   0  0  0  0  0  0  0  0  0  0  0  0
   -5.1891    3.5461   -3.6051 C   0  0  0  0  0  0  0  0  0  0  0  0
   -5.9030    4.1191   -4.1812 H   0  0  0  0  0  0  0  0  0  0  0  0
   -4.5183    2.4596   -4.1957 C   0  0  0  0  0  0  0  0  0  0  0  0
   -4.7232    2.2003   -5.2252 H   0  0  0  0  0  0  0  0  0  0  0  0
   -3.5882    1.7031   -3.4548 C   0  0  0  0  0  0  0  0  0  0  0  0
   -3.0898    0.8627   -3.9166 H   0  0  0  0  0  0  0  0  0  0  0  0
   -3.3059    2.0177   -2.1078 C   0  0  0  0  0  0  0  0  0  0  0  0
   -1.2663    0.1182    1.2910 C   0  0  0  0  0  0  0  0  0  0  0  0
   -0.1906    0.1931    1.8833 O   0  0  0  0  0  0  0  0  0  0  0  0
   -2.3930    0.6605    1.7722 N   0  0  0  0  0  0  0  0  0  0  0  0
   -3.2451    0.5077    1.2518 H   0  0  0  0  0  0  0  0  0  0  0  0
   -2.4787    1.3954    3.0311 C   0  0  0  0  0  0  0  0  0  0  0  0
   -1.7166    2.1767    3.0539 H   0  0  0  0  0  0  0  0  0  0  0  0
   -3.4649    1.8498    3.1344 H   0  0  0  0  0  0  0  0  0  0  0  0
   -2.3058    0.7133    3.8652 H   0  0  0  0  0  0  0  0  0  0  0  0
  5  6  2  0  0  0  0
  5  7  1  0  0  0  0
  2  3  1  0  0  0  0
  2  4  1  0  0  0  0
  2  5  1  0  0  0  0
  1  2  1  0  0  0  0
 29 30  2  0  0  0  0
 29 31  1  0  0  0  0
 26 27  1  0  0  0  0
 26 28  2  0  0  0  0
 24 25  1  0  0  0  0
 24 26  1  0  0  0  0
 22 23  1  0  0  0  0
 22 24  2  0  0  0  0
 20 21  1  0  0  0  0
 20 22  1  0  0  0  0
 19 20  2  0  0  0  0
 19 28  1  0  0  0  0
 17 18  1  0  0  0  0
 17 19  1  0  0  0  0
 15 16  1  0  0  0  0
 15 17  1  0  0  0  0
 14 15  2  0  0  0  0
 14 28  1  0  0  0  0
 11 12  1  0  0  0  0
 11 13  1  0  0  0  0
 11 14  1  0  0  0  0
  9 10  1  0  0  0  0
  9 11  1  0  0  0  0
  9 29  1  0  0  0  0
  7  8  1  0  0  0  0
  7  9  1  0  0  0  0
 33 34  1  0  0  0  0
 33 35  1  0  0  0  0
 33 36  1  0  0  0  0
 31 32  1  0  0  0  0
 31 33  1  0  0  0  0
M  END
$$$$
default_name
  -OEChem-02102213163D

 36 37  0     1  0  0  0  0  0999 V2000
   -4.0843   -4.0736    1.2944 H   0  0  0  0  0  0  0  0  0  0  0  0
   -4.0342   -3.2816    0.5484 C   0  0  0  0  0  0  0  0  0  0  0  0
   -4.8842   -2.6126    0.6694 H   0  0  0  0  0  0  0  0  0  0  0  0
   -4.0433   -3.7186   -0.4486 H   0  0  0  0  0  0  0  0  0  0  0  0
   -2.7532   -2.5046    0.7444 C   0  0  0  0  0  0  0  0  0  0  0  0
   -1.9803   -2.8096    1.6434 O   0  0  0  0  0  0  0  0  0  0  0  0
   -2.5332   -1.4966   -0.0966 N   0  0  0  0  0  0  0  0  0  0  0  0
   -3.2312   -1.2816   -0.7936 H   0  0  0  0  0  0  0  0  0  0  0  0
   -1.3593   -0.6196   -0.0536 C   0  0  1  0  0  0  0  0  0  0  0  0
   -0.4622   -1.2317   -0.1545 H   0  0  0  0  0  0  0  0  0  0  0  0
   -1.4074    0.3593   -1.2373 C   0  0  0  0  0  0  0  0  0  0  0  0
   -0.4172    0.7988   -1.3706 H   0  0  0  0  0  0  0  0  0  0  0  0
   -1.6442   -0.2020   -2.1428 H   0  0  0  0  0  0  0  0  0  0  0  0
   -2.3958    1.4774   -1.0993 C   0  0  0  0  0  0  0  0  0  0  0  0
   -2.3997    2.4072   -0.1180 C   0  0  0  0  0  0  0  0  0  0  0  0
   -1.6916    2.4413    0.7027 H   0  0  0  0  0  0  0  0  0  0  0  0
   -3.4239    3.3078   -0.3358 N   0  0  0  0  0  0  0  0  0  0  0  0
   -3.6194    4.0874    0.2749 H   0  0  0  0  0  0  0  0  0  0  0  0
   -4.1252    3.0106   -1.4851 C   0  0  0  0  0  0  0  0  0  0  0  0
   -5.2058    3.6251   -2.1340 C   0  0  0  0  0  0  0  0  0  0  0  0
   -5.6543    4.5182   -1.7243 H   0  0  0  0  0  0  0  0  0  0  0  0
   -5.6979    3.0615   -3.3236 C   0  0  0  0  0  0  0  0  0  0  0  0
   -6.5314    3.5211   -3.8375 H   0  0  0  0  0  0  0  0  0  0  0  0
   -5.1087    1.8940   -3.8423 C   0  0  0  0  0  0  0  0  0  0  0  0
   -5.4958    1.4590   -4.7533 H   0  0  0  0  0  0  0  0  0  0  0  0
   -4.0243    1.2837   -3.1805 C   0  0  0  0  0  0  0  0  0  0  0  0
   -3.5896    0.3796   -3.5825 H   0  0  0  0  0  0  0  0  0  0  0  0
   -3.5029    1.8286   -1.9871 C   0  0  0  0  0  0  0  0  0  0  0  0
   -1.2663    0.1182    1.2910 C   0  0  0  0  0  0  0  0  0  0  0  0
   -0.1906    0.1931    1.8833 O   0  0  0  0  0  0  0  0  0  0  0  0
   -2.3930    0.6605    1.7722 N   0  0  0  0  0  0  0  0  0  0  0  0
   -3.2451    0.5077    1.2518 H   0  0  0  0  0  0  0  0  0  0  0  0
   -2.4787    1.3954    3.0311 C   0  0  0  0  0  0  0  0  0  0  0  0
   -1.7166    2.1767    3.0539 H   0  0  0  0  0  0  0  0  0  0  0  0
   -3.4649    1.8498    3.1344 H   0  0  0  0  0  0  0  0  0  0  0  0
   -2.3058    0.7133    3.8652 H   0  0  0  0  0  0  0  0  0  0  0  0
  5  6  2  0  0  0  0
  5  7  1  0  0  0  0
  2  3  1  0  0  0  0
  2  4  1  0  0  0  0
  2  5  1  0  0  0  0
  1  2  1  0  0  0  0
 29 30  2  0  0  0  0
 29 31  1  0  0  0  0
 26 27  1  0  0  0  0
 26 28  2  0  0  0  0
 24 25  1  0  0  0  0
 24 26  1  0  0  0  0
 22 23  1  0  0  0  0
 22 24  2  0  0  0  0
 20 21  1  0  0  0  0
 20 22  1  0  0  0  0
 19 20  2  0  0  0  0
 19 28  1  0  0  0  0
 17 18  1  0  0  0  0
 17 19  1  0  0  0  0
 15 16  1  0  0  0  0
 15 17  1  0  0  0  0
 14 15  2  0  0  0  0
 14 28  1  0  0  0  0
 11 12  1  0  0  0  0
 11 13  1  0  0  0  0
 11 14  1  0  0  0  0
  9 10  1  0  0  0  0
  9 11  1  0  0  0  0
  9 29  1  0  0  0  0
  7  8  1  0  0  0  0
  7  9  1  0  0  0  0
 33 34  1  0  0  0  0
 33 35  1  0  0  0  0
 33 36  1  0  0  0  0
 31 32  1  0  0  0  0
 31 33  1  0  0  0  0
M  END
$$$$
default_name
  -OEChem-02102213163D

 36 37  0     1  0  0  0  0  0999 V2000
   -4.0843   -4.0736    1.2944 H   0  0  0  0  0  0  0  0  0  0  0  0
   -4.0342   -3.2816    0.5484 C   0  0  0  0  0  0  0  0  0  0  0  0
   -4.8842   -2.6126    0.6694 H   0  0  0  0  0  0  0  0  0  0  0  0
   -4.0433   -3.7186   -0.4486 H   0  0  0  0  0  0  0  0  0  0  0  0
   -2.7532   -2.5046    0.7444 C   0  0  0  0  0  0  0  0  0  0  0  0
   -1.9803   -2.8096    1.6434 O   0  0  0  0  0  0  0  0  0  0  0  0
   -2.5332   -1.4966   -0.0966 N   0  0  0  0  0  0  0  0  0  0  0  0
   -3.2312   -1.2816   -0.7936 H   0  0  0  0  0  0  0  0  0  0  0  0
   -1.3593   -0.6196   -0.0536 C   0  0  1  0  0  0  0  0  0  0  0  0
   -0.4622   -1.2317   -0.1545 H   0  0  0  0  0  0  0  0  0  0  0  0
   -1.4074    0.3593   -1.2373 C   0  0  0  0  0  0  0  0  0  0  0  0
   -0.4172    0.7988   -1.3706 H   0  0  0  0  0  0  0  0  0  0  0  0
   -1.6442   -0.2020   -2.1428 H   0  0  0  0  0  0  0  0  0  0  0  0
   -2.3958    1.4774   -1.0993 C   0  0  0  0  0  0  0  0  0  0  0  0
   -2.2499    2.5629   -0.3070 C   0  0  0  0  0  0  0  0  0  0  0  0
   -1.4001    2.7436    0.3421 H   0  0  0  0  0  0  0  0  0  0  0  0
   -3.3326    3.4050   -0.4692 N   0  0  0  0  0  0  0  0  0  0  0  0
   -3.4393    4.2772    0.0278 H   0  0  0  0  0  0  0  0  0  0  0  0
   -4.2278    2.9085   -1.3927 C   0  0  0  0  0  0  0  0  0  0  0  0
   -5.4365    3.3938   -1.9123 C   0  0  0  0  0  0  0  0  0  0  0  0
   -5.8344    4.3411   -1.5793 H   0  0  0  0  0  0  0  0  0  0  0  0
   -6.1235    2.6294   -2.8708 C   0  0  0  0  0  0  0  0  0  0  0  0
   -7.0577    2.9872   -3.2820 H   0  0  0  0  0  0  0  0  0  0  0  0
   -5.5973    1.3939   -3.2903 C   0  0  0  0  0  0  0  0  0  0  0  0
   -6.1334    0.8051   -4.0218 H   0  0  0  0  0  0  0  0  0  0  0  0
   -4.3826    0.9150   -2.7598 C   0  0  0  0  0  0  0  0  0  0  0  0
   -3.9964   -0.0419   -3.0809 H   0  0  0  0  0  0  0  0  0  0  0  0
   -3.6654    1.6618   -1.8002 C   0  0  0  0  0  0  0  0  0  0  0  0
   -1.2663    0.1182    1.2910 C   0  0  0  0  0  0  0  0  0  0  0  0
   -0.1906    0.1931    1.8833 O   0  0  0  0  0  0  0  0  0  0  0  0
   -2.3930    0.6605    1.7722 N   0  0  0  0  0  0  0  0  0  0  0  0
   -3.2451    0.5077    1.2518 H   0  0  0  0  0  0  0  0  0  0  0  0
   -2.4787    1.3954    3.0311 C   0  0  0  0  0  0  0  0  0  0  0  0
   -1.7166    2.1767    3.0539 H   0  0  0  0  0  0  0  0  0  0  0  0
   -3.4649    1.8498    3.1344 H   0  0  0  0  0  0  0  0  0  0  0  0
   -2.3058    0.7133    3.8652 H   0  0  0  0  0  0  0  0  0  0  0  0
  5  6  2  0  0  0  0
  5  7  1  0  0  0  0
  2  3  1  0  0  0  0
  2  4  1  0  0  0  0
  2  5  1  0  0  0  0
  1  2  1  0  0  0  0
 29 30  2  0  0  0  0
 29 31  1  0  0  0  0
 26 27  1  0  0  0  0
 26 28  2  0  0  0  0
 24 25  1  0  0  0  0
 24 26  1  0  0  0  0
 22 23  1  0  0  0  0
 22 24  2  0  0  0  0
 20 21  1  0  0  0  0
 20 22  1  0  0  0  0
 19 20  2  0  0  0  0
 19 28  1  0  0  0  0
 17 18  1  0  0  0  0
 17 19  1  0  0  0  0
 15 16  1  0  0  0  0
 15 17  1  0  0  0  0
 14 15  2  0  0  0  0
 14 28  1  0  0  0  0
 11 12  1  0  0  0  0
 11 13  1  0  0  0  0
 11 14  1  0  0  0  0
  9 10  1  0  0  0  0
  9 11  1  0  0  0  0
  9 29  1  0  0  0  0
  7  8  1  0  0  0  0
  7  9  1  0  0  0  0
 33 34  1  0  0  0  0
 33 35  1  0  0  0  0
 33 36  1  0  0  0  0
 31 32  1  0  0  0  0
 31 33  1  0  0  0  0
M  END
$$$$
default_name
  -OEChem-02102213163D

 36 37  0     1  0  0  0  0  0999 V2000
   -4.0843   -4.0736    1.2944 H   0  0  0  0  0  0  0  0  0  0  0  0
   -4.0342   -3.2816    0.5484 C   0  0  0  0  0  0  0  0  0  0  0  0
   -4.8842   -2.6126    0.6694 H   0  0  0  0  0  0  0  0  0  0  0  0
   -4.0433   -3.7186   -0.4486 H   0  0  0  0  0  0  0  0  0  0  0  0
   -2.7532   -2.5046    0.7444 C   0  0  0  0  0  0  0  0  0  0  0  0
   -1.9803   -2.8096    1.6434 O   0  0  0  0  0  0  0  0  0  0  0  0
   -2.5332   -1.4966   -0.0966 N   0  0  0  0  0  0  0  0  0  0  0  0
   -3.2312   -1.2816   -0.7936 H   0  0  0  0  0  0  0  0  0  0  0  0
   -1.3593   -0.6196   -0.0536 C   0  0  1  0  0  0  0  0  0  0  0  0
   -0.4622   -1.2317   -0.1545 H   0  0  0  0  0  0  0  0  0  0  0  0
   -1.4074    0.3593   -1.2373 C   0  0  0  0  0  0  0  0  0  0  0  0
   -0.4172    0.7988   -1.3706 H   0  0  0  0  0  0  0  0  0  0  0  0
   -1.6442   -0.2020   -2.1428 H   0  0  0  0  0  0  0  0  0  0  0  0
   -2.3958    1.4774   -1.0993 C   0  0  0  0  0  0  0  0  0  0  0  0
   -2.1454    2.6847   -0.5450 C   0  0  0  0  0  0  0  0  0  0  0  0
   -1.1953    2.9809   -0.1141 H   0  0  0  0  0  0  0  0  0  0  0  0
   -3.2724    3.4783   -0.6322 N   0  0  0  0  0  0  0  0  0  0  0  0
   -3.3175    4.4226   -0.2780 H   0  0  0  0  0  0  0  0  0  0  0  0
   -4.3067    2.8232   -1.2662 C   0  0  0  0  0  0  0  0  0  0  0  0
   -5.6110    3.2027   -1.6141 C   0  0  0  0  0  0  0  0  0  0  0  0
   -5.9761    4.1905   -1.3742 H   0  0  0  0  0  0  0  0  0  0  0  0
   -6.4368    2.2791   -2.2775 C   0  0  0  0  0  0  0  0  0  0  0  0
   -7.4462    2.5538   -2.5527 H   0  0  0  0  0  0  0  0  0  0  0  0
   -5.9508    0.9934   -2.5775 C   0  0  0  0  0  0  0  0  0  0  0  0
   -6.5924    0.2832   -3.0805 H   0  0  0  0  0  0  0  0  0  0  0  0
   -4.6387    0.6222   -2.2213 C   0  0  0  0  0  0  0  0  0  0  0  0
   -4.2824   -0.3732   -2.4458 H   0  0  0  0  0  0  0  0  0  0  0  0
   -3.7823    1.5288   -1.5598 C   0  0  0  0  0  0  0  0  0  0  0  0
   -1.2663    0.1182    1.2910 C   0  0  0  0  0  0  0  0  0  0  0  0
   -0.1906    0.1931    1.8833 O   0  0  0  0  0  0  0  0  0  0  0  0
   -2.3930    0.6605    1.7722 N   0  0  0  0  0  0  0  0  0  0  0  0
   -3.2451    0.5077    1.2518 H   0  0  0  0  0  0  0  0  0  0  0  0
   -2.4787    1.3954    3.0311 C   0  0  0  0  0  0  0  0  0  0  0  0
   -1.7166    2.1767    3.0539 H   0  0  0  0  0  0  0  0  0  0  0  0
   -3.4649    1.8498    3.1344 H   0  0  0  0  0  0  0  0  0  0  0  0
   -2.3058    0.7133    3.8652 H   0  0  0  0  0  0  0  0  0  0  0  0
  5  6  2  0  0  0  0
  5  7  1  0  0  0  0
  2  3  1  0  0  0  0
  2  4  1  0  0  0  0
  2  5  1  0  0  0  0
  1  2  1  0  0  0  0
 29 30  2  0  0  0  0
 29 31  1  0  0  0  0
 26 27  1  0  0  0  0
 26 28  2  0  0  0  0
 24 25  1  0  0  0  0
 24 26  1  0  0  0  0
 22 23  1  0  0  0  0
 22 24  2  0  0  0  0
 20 21  1  0  0  0  0
 20 22  1  0  0  0  0
 19 20  2  0  0  0  0
 19 28  1  0  0  0  0
 17 18  1  0  0  0  0
 17 19  1  0  0  0  0
 15 16  1  0  0  0  0
 15 17  1  0  0  0  0
 14 15  2  0  0  0  0
 14 28  1  0  0  0  0
 11 12  1  0  0  0  0
 11 13  1  0  0  0  0
 11 14  1  0  0  0  0
  9 10  1  0  0  0  0
  9 11  1  0  0  0  0
  9 29  1  0  0  0  0
  7  8  1  0  0  0  0
  7  9  1  0  0  0  0
 33 34  1  0  0  0  0
 33 35  1  0  0  0  0
 33 36  1  0  0  0  0
 31 32  1  0  0  0  0
 31 33  1  0  0  0  0
M  END
$$$$
default_name
  -OEChem-02102213163D

 36 37  0     1  0  0  0  0  0999 V2000
   -4.0843   -4.0736    1.2944 H   0  0  0  0  0  0  0  0  0  0  0  0
   -4.0342   -3.2816    0.5484 C   0  0  0  0  0  0  0  0  0  0  0  0
   -4.8842   -2.6126    0.6694 H   0  0  0  0  0  0  0  0  0  0  0  0
   -4.0433   -3.7186   -0.4486 H   0  0  0  0  0  0  0  0  0  0  0  0
   -2.7532   -2.5046    0.7444 C   0  0  0  0  0  0  0  0  0  0  0  0
   -1.9803   -2.8096    1.6434 O   0  0  0  0  0  0  0  0  0  0  0  0
   -2.5332   -1.4966   -0.0966 N   0  0  0  0  0  0  0  0  0  0  0  0
   -3.2312   -1.2816   -0.7936 H   0  0  0  0  0  0  0  0  0  0  0  0
   -1.3593   -0.6196   -0.0536 C   0  0  1  0  0  0  0  0  0  0  0  0
   -0.4622   -1.2317   -0.1545 H   0  0  0  0  0  0  0  0  0  0  0  0
   -1.4074    0.3593   -1.2373 C   0  0  0  0  0  0  0  0  0  0  0  0
   -0.4172    0.7988   -1.3706 H   0  0  0  0  0  0  0  0  0  0  0  0
   -1.6442   -0.2020   -2.1428 H   0  0  0  0  0  0  0  0  0  0  0  0
   -2.3958    1.4774   -1.0993 C   0  0  0  0  0  0  0  0  0  0  0  0
   -2.0934    2.7641   -0.8158 C   0  0  0  0  0  0  0  0  0  0  0  0
   -1.0912    3.1371   -0.6348 H   0  0  0  0  0  0  0  0  0  0  0  0
   -3.2475    3.5227   -0.8138 N   0  0  0  0  0  0  0  0  0  0  0  0
   -3.2624    4.5137   -0.6217 H   0  0  0  0  0  0  0  0  0  0  0  0
   -4.3564    2.7605   -1.1143 C   0  0  0  0  0  0  0  0  0  0  0  0
   -5.7175    3.0648   -1.2597 C   0  0  0  0  0  0  0  0  0  0  0  0
   -6.0698    4.0766   -1.1230 H   0  0  0  0  0  0  0  0  0  0  0  0
   -6.6166    2.0346   -1.5840 C   0  0  0  0  0  0  0  0  0  0  0  0
   -7.6702    2.2504   -1.6992 H   0  0  0  0  0  0  0  0  0  0  0  0
   -6.1450    0.7198   -1.7523 C   0  0  0  0  0  0  0  0  0  0  0  0
   -6.8415   -0.0712   -1.9936 H   0  0  0  0  0  0  0  0  0  0  0  0
   -4.7751    0.4251   -1.6017 C   0  0  0  0  0  0  0  0  0  0  0  0
   -4.4281   -0.5915   -1.7206 H   0  0  0  0  0  0  0  0  0  0  0  0
   -3.8457    1.4386   -1.2823 C   0  0  0  0  0  0  0  0  0  0  0  0
   -1.2663    0.1182    1.2910 C   0  0  0  0  0  0  0  0  0  0  0  0
   -0.1906    0.1931    1.8833 O   0  0  0  0  0  0  0  0  0  0  0  0
   -2.3930    0.6605    1.7722 N   0  0  0  0  0  0  0  0  0  0  0  0
   -3.2451    0.5077    1.2518 H   0  0  0  0  0  0  0  0  0  0  0  0
   -2.4787    1.3954    3.0311 C   0  0  0  0  0  0  0  0  0  0  0  0
   -1.7166    2.1767    3.0539 H   0  0  0  0  0  0  0  0  0  0  0  0
   -3.4649    1.8498    3.1344 H   0  0  0  0  0  0  0  0  0  0  0  0
   -2.3058    0.7133    3.8652 H   0  0  0  0  0  0  0  0  0  0  0  0
  5  6  2  0  0  0  0
  5  7  1  0  0  0  0
  2  3  1  0  0  0  0
  2  4  1  0  0  0  0
  2  5  1  0  0  0  0
  1  2  1  0  0  0  0
 29 30  2  0  0  0  0
 29 31  1  0  0  0  0
 26 27  1  0  0  0  0
 26 28  2  0  0  0  0
 24 25  1  0  0  0  0
 24 26  1  0  0  0  0
 22 23  1  0  0  0  0
 22 24  2  0  0  0  0
 20 21  1  0  0  0  0
 20 22  1  0  0  0  0
 19 20  2  0  0  0  0
 19 28  1  0  0  0  0
 17 18  1  0  0  0  0
 17 19  1  0  0  0  0
 15 16  1  0  0  0  0
 15 17  1  0  0  0  0
 14 15  2  0  0  0  0
 14 28  1  0  0  0  0
 11 12  1  0  0  0  0
 11 13  1  0  0  0  0
 11 14  1  0  0  0  0
  9 10  1  0  0  0  0
  9 11  1  0  0  0  0
  9 29  1  0  0  0  0
  7  8  1  0  0  0  0
  7  9  1  0  0  0  0
 33 34  1  0  0  0  0
 33 35  1  0  0  0  0
 33 36  1  0  0  0  0
 31 32  1  0  0  0  0
 31 33  1  0  0  0  0
M  END
$$$$
default_name
  -OEChem-02102213163D

 36 37  0     1  0  0  0  0  0999 V2000
   -4.0843   -4.0736    1.2944 H   0  0  0  0  0  0  0  0  0  0  0  0
   -4.0342   -3.2816    0.5484 C   0  0  0  0  0  0  0  0  0  0  0  0
   -4.8842   -2.6126    0.6694 H   0  0  0  0  0  0  0  0  0  0  0  0
   -4.0433   -3.7186   -0.4486 H   0  0  0  0  0  0  0  0  0  0  0  0
   -2.7532   -2.5046    0.7444 C   0  0  0  0  0  0  0  0  0  0  0  0
   -1.9803   -2.8096    1.6434 O   0  0  0  0  0  0  0  0  0  0  0  0
   -2.5332   -1.4966   -0.0966 N   0  0  0  0  0  0  0  0  0  0  0  0
   -3.2312   -1.2816   -0.7936 H   0  0  0  0  0  0  0  0  0  0  0  0
   -1.3593   -0.6196   -0.0536 C   0  0  1  0  0  0  0  0  0  0  0  0
   -0.4622   -1.2317   -0.1545 H   0  0  0  0  0  0  0  0  0  0  0  0
   -1.4074    0.3593   -1.2373 C   0  0  0  0  0  0  0  0  0  0  0  0
   -0.4172    0.7988   -1.3706 H   0  0  0  0  0  0  0  0  0  0  0  0
   -1.6442   -0.2020   -2.1428 H   0  0  0  0  0  0  0  0  0  0  0  0
   -2.3958    1.4774   -1.0993 C   0  0  0  0  0  0  0  0  0  0  0  0
   -2.0973    2.7959   -1.1011 C   0  0  0  0  0  0  0  0  0  0  0  0
   -1.0950    3.2017   -1.1845 H   0  0  0  0  0  0  0  0  0  0  0  0
   -3.2596    3.5352   -1.0016 N   0  0  0  0  0  0  0  0  0  0  0  0
   -3.2778    4.5443   -0.9800 H   0  0  0  0  0  0  0  0  0  0  0  0
   -4.3736    2.7247   -0.9472 C   0  0  0  0  0  0  0  0  0  0  0  0
   -5.7486    2.9896   -0.8734 C   0  0  0  0  0  0  0  0  0  0  0  0
   -6.1091    4.0073   -0.8429 H   0  0  0  0  0  0  0  0  0  0  0  0
   -6.6506    1.9125   -0.8378 C   0  0  0  0  0  0  0  0  0  0  0  0
   -7.7147    2.0976   -0.7798 H   0  0  0  0  0  0  0  0  0  0  0  0
   -6.1668    0.5918   -0.8710 C   0  0  0  0  0  0  0  0  0  0  0  0
   -6.8639   -0.2340   -0.8351 H   0  0  0  0  0  0  0  0  0  0  0  0
   -4.7825    0.3373   -0.9432 C   0  0  0  0  0  0  0  0  0  0  0  0
   -4.4237   -0.6821   -0.9546 H   0  0  0  0  0  0  0  0  0  0  0  0
   -3.8511    1.3972   -0.9867 C   0  0  0  0  0  0  0  0  0  0  0  0
   -1.2663    0.1182    1.2910 C   0  0  0  0  0  0  0  0  0  0  0  0
   -0.1906    0.1931    1.8833 O   0  0  0  0  0  0  0  0  0  0  0  0
   -2.3930    0.6605    1.7722 N   0  0  0  0  0  0  0  0  0  0  0  0
   -3.2451    0.5077    1.2518 H   0  0  0  0  0  0  0  0  0  0  0  0
   -2.4787    1.3954    3.0311 C   0  0  0  0  0  0  0  0  0  0  0  0
   -1.7166    2.1767    3.0539 H   0  0  0  0  0  0  0  0  0  0  0  0
   -3.4649    1.8498    3.1344 H   0  0  0  0  0  0  0  0  0  0  0  0
   -2.3058    0.7133    3.8652 H   0  0  0  0  0  0  0  0  0  0  0  0
  5  6  2  0  0  0  0
  5  7  1  0  0  0  0
  2  3  1  0  0  0  0
  2  4  1  0  0  0  0
  2  5  1  0  0  0  0
  1  2  1  0  0  0  0
 29 30  2  0  0  0  0
 29 31  1  0  0  0  0
 26 27  1  0  0  0  0
 26 28  2  0  0  0  0
 24 25  1  0  0  0  0
 24 26  1  0  0  0  0
 22 23  1  0  0  0  0
 22 24  2  0  0  0  0
 20 21  1  0  0  0  0
 20 22  1  0  0  0  0
 19 20  2  0  0  0  0
 19 28  1  0  0  0  0
 17 18  1  0  0  0  0
 17 19  1  0  0  0  0
 15 16  1  0  0  0  0
 15 17  1  0  0  0  0
 14 15  2  0  0  0  0
 14 28  1  0  0  0  0
 11 12  1  0  0  0  0
 11 13  1  0  0  0  0
 11 14  1  0  0  0  0
  9 10  1  0  0  0  0
  9 11  1  0  0  0  0
  9 29  1  0  0  0  0
  7  8  1  0  0  0  0
  7  9  1  0  0  0  0
 33 34  1  0  0  0  0
 33 35  1  0  0  0  0
 33 36  1  0  0  0  0
 31 32  1  0  0  0  0
 31 33  1  0  0  0  0
M  END
$$$$
default_name
  -OEChem-02102213163D

 36 37  0     1  0  0  0  0  0999 V2000
   -4.0843   -4.0736    1.2944 H   0  0  0  0  0  0  0  0  0  0  0  0
   -4.0342   -3.2816    0.5484 C   0  0  0  0  0  0  0  0  0  0  0  0
   -4.8842   -2.6126    0.6694 H   0  0  0  0  0  0  0  0  0  0  0  0
   -4.0433   -3.7186   -0.4486 H   0  0  0  0  0  0  0  0  0  0  0  0
   -2.7532   -2.5046    0.7444 C   0  0  0  0  0  0  0  0  0  0  0  0
   -1.9803   -2.8096    1.6434 O   0  0  0  0  0  0  0  0  0  0  0  0
   -2.5332   -1.4966   -0.0966 N   0  0  0  0  0  0  0  0  0  0  0  0
   -3.2312   -1.2816   -0.7936 H   0  0  0  0  0  0  0  0  0  0  0  0
   -1.3593   -0.6196   -0.0536 C   0  0  1  0  0  0  0  0  0  0  0  0
   -0.4622   -1.2317   -0.1545 H   0  0  0  0  0  0  0  0  0  0  0  0
   -1.4074    0.3593   -1.2373 C   0  0  0  0  0  0  0  0  0  0  0  0
   -0.4172    0.7988   -1.3706 H   0  0  0  0  0  0  0  0  0  0  0  0
   -1.6442   -0.2020   -2.1428 H   0  0  0  0  0  0  0  0  0  0  0  0
   -2.3958    1.4774   -1.0993 C   0  0  0  0  0  0  0  0  0  0  0  0
   -2.1569    2.7778   -1.3813 C   0  0  0  0  0  0  0  0  0  0  0  0
   -1.2063    3.1700   -1.7258 H   0  0  0  0  0  0  0  0  0  0  0  0
   -3.3078    3.5149   -1.1828 N   0  0  0  0  0  0  0  0  0  0  0  0
   -3.3625    4.5124   -1.3282 H   0  0  0  0  0  0  0  0  0  0  0  0
   -4.3570    2.7182   -0.7764 C   0  0  0  0  0  0  0  0  0  0  0  0
   -5.7023    2.9822   -0.4813 C   0  0  0  0  0  0  0  0  0  0  0  0
   -6.0913    3.9873   -0.5528 H   0  0  0  0  0  0  0  0  0  0  0  0
   -6.5364    1.9212   -0.0896 C   0  0  0  0  0  0  0  0  0  0  0  0
   -7.5764    2.1060    0.1429 H   0  0  0  0  0  0  0  0  0  0  0  0
   -6.0147    0.6181    0.0063 C   0  0  0  0  0  0  0  0  0  0  0  0
   -6.6579   -0.1939    0.3161 H   0  0  0  0  0  0  0  0  0  0  0  0
   -4.6605    0.3647   -0.2908 C   0  0  0  0  0  0  0  0  0  0  0  0
   -4.2693   -0.6388   -0.2002 H   0  0  0  0  0  0  0  0  0  0  0  0
   -3.7984    1.4077   -0.6930 C   0  0  0  0  0  0  0  0  0  0  0  0
   -1.2663    0.1182    1.2910 C   0  0  0  0  0  0  0  0  0  0  0  0
   -0.1906    0.1931    1.8833 O   0  0  0  0  0  0  0  0  0  0  0  0
   -2.3930    0.6605    1.7722 N   0  0  0  0  0  0  0  0  0  0  0  0
   -3.2451    0.5077    1.2518 H   0  0  0  0  0  0  0  0  0  0  0  0
   -2.4787    1.3954    3.0311 C   0  0  0  0  0  0  0  0  0  0  0  0
   -1.7166    2.1767    3.0539 H   0  0  0  0  0  0  0  0  0  0  0  0
   -3.4649    1.8498    3.1344 H   0  0  0  0  0  0  0  0  0  0  0  0
   -2.3058    0.7133    3.8652 H   0  0  0  0  0  0  0  0  0  0  0  0
  5  6  2  0  0  0  0
  5  7  1  0  0  0  0
  2  3  1  0  0  0  0
  2  4  1  0  0  0  0
  2  5  1  0  0  0  0
  1  2  1  0  0  0  0
 29 30  2  0  0  0  0
 29 31  1  0  0  0  0
 26 27  1  0  0  0  0
 26 28  2  0  0  0  0
 24 25  1  0  0  0  0
 24 26  1  0  0  0  0
 22 23  1  0  0  0  0
 22 24  2  0  0  0  0
 20 21  1  0  0  0  0
 20 22  1  0  0  0  0
 19 20  2  0  0  0  0
 19 28  1  0  0  0  0
 17 18  1  0  0  0  0
 17 19  1  0  0  0  0
 15 16  1  0  0  0  0
 15 17  1  0  0  0  0
 14 15  2  0  0  0  0
 14 28  1  0  0  0  0
 11 12  1  0  0  0  0
 11 13  1  0  0  0  0
 11 14  1  0  0  0  0
  9 10  1  0  0  0  0
  9 11  1  0  0  0  0
  9 29  1  0  0  0  0
  7  8  1  0  0  0  0
  7  9  1  0  0  0  0
 33 34  1  0  0  0  0
 33 35  1  0  0  0  0
 33 36  1  0  0  0  0
 31 32  1  0  0  0  0
 31 33  1  0  0  0  0
M  END
$$$$
default_name
  -OEChem-02102213163D

 36 37  0     1  0  0  0  0  0999 V2000
   -4.0843   -4.0736    1.2944 H   0  0  0  0  0  0  0  0  0  0  0  0
   -4.0342   -3.2816    0.5484 C   0  0  0  0  0  0  0  0  0  0  0  0
   -4.8842   -2.6126    0.6694 H   0  0  0  0  0  0  0  0  0  0  0  0
   -4.0433   -3.7186   -0.4486 H   0  0  0  0  0  0  0  0  0  0  0  0
   -2.7532   -2.5046    0.7444 C   0  0  0  0  0  0  0  0  0  0  0  0
   -1.9803   -2.8096    1.6434 O   0  0  0  0  0  0  0  0  0  0  0  0
   -2.5332   -1.4966   -0.0966 N   0  0  0  0  0  0  0  0  0  0  0  0
   -3.2312   -1.2816   -0.7936 H   0  0  0  0  0  0  0  0  0  0  0  0
   -1.3593   -0.6196   -0.0536 C   0  0  1  0  0  0  0  0  0  0  0  0
   -0.4622   -1.2317   -0.1545 H   0  0  0  0  0  0  0  0  0  0  0  0
   -1.4074    0.3593   -1.2373 C   0  0  0  0  0  0  0  0  0  0  0  0
   -0.4172    0.7988   -1.3706 H   0  0  0  0  0  0  0  0  0  0  0  0
   -1.6442   -0.2020   -2.1428 H   0  0  0  0  0  0  0  0  0  0  0  0
   -2.3958    1.4774   -1.0993 C   0  0  0  0  0  0  0  0  0  0  0  0
   -2.2681    2.7110   -1.6373 C   0  0  0  0  0  0  0  0  0  0  0  0
   -1.4176    3.0444   -2.2218 H   0  0  0  0  0  0  0  0  0  0  0  0
   -3.3889    3.4632   -1.3450 N   0  0  0  0  0  0  0  0  0  0  0  0
   -3.5108    4.4201   -1.6429 H   0  0  0  0  0  0  0  0  0  0  0  0
   -4.3080    2.7415   -0.6135 C   0  0  0  0  0  0  0  0  0  0  0  0
   -5.5816    3.0431   -0.1103 C   0  0  0  0  0  0  0  0  0  0  0  0
   -6.0176    4.0178   -0.2727 H   0  0  0  0  0  0  0  0  0  0  0  0
   -6.2818    2.0599    0.6096 C   0  0  0  0  0  0  0  0  0  0  0  0
   -7.2649    2.2749    1.0061 H   0  0  0  0  0  0  0  0  0  0  0  0
   -5.6990    0.7968    0.8198 C   0  0  0  0  0  0  0  0  0  0  0  0
   -6.2377    0.0462    1.3814 H   0  0  0  0  0  0  0  0  0  0  0  0
   -4.4173    0.5054    0.3112 C   0  0  0  0  0  0  0  0  0  0  0  0
   -3.9756   -0.4644    0.4913 H   0  0  0  0  0  0  0  0  0  0  0  0
   -3.6909    1.4691   -0.4213 C   0  0  0  0  0  0  0  0  0  0  0  0
   -1.2663    0.1182    1.2910 C   0  0  0  0  0  0  0  0  0  0  0  0
   -0.1906    0.1931    1.8833 O   0  0  0  0  0  0  0  0  0  0  0  0
   -2.3930    0.6605    1.7722 N   0  0  0  0  0  0  0  0  0  0  0  0
   -3.2451    0.5077    1.2518 H   0  0  0  0  0  0  0  0  0  0  0  0
   -2.4787    1.3954    3.0311 C   0  0  0  0  0  0  0  0  0  0  0  0
   -1.7166    2.1767    3.0539 H   0  0  0  0  0  0  0  0  0  0  0  0
   -3.4649    1.8498    3.1344 H   0  0  0  0  0  0  0  0  0  0  0  0
   -2.3058    0.7133    3.8652 H   0  0  0  0  0  0  0  0  0  0  0  0
  5  6  2  0  0  0  0
  5  7  1  0  0  0  0
  2  3  1  0  0  0  0
  2  4  1  0  0  0  0
  2  5  1  0  0  0  0
  1  2  1  0  0  0  0
 29 30  2  0  0  0  0
 29 31  1  0  0  0  0
 26 27  1  0  0  0  0
 26 28  2  0  0  0  0
 24 25  1  0  0  0  0
 24 26  1  0  0  0  0
 22 23  1  0  0  0  0
 22 24  2  0  0  0  0
 20 21  1  0  0  0  0
 20 22  1  0  0  0  0
 19 20  2  0  0  0  0
 19 28  1  0  0  0  0
 17 18  1  0  0  0  0
 17 19  1  0  0  0  0
 15 16  1  0  0  0  0
 15 17  1  0  0  0  0
 14 15  2  0  0  0  0
 14 28  1  0  0  0  0
 11 12  1  0  0  0  0
 11 13  1  0  0  0  0
 11 14  1  0  0  0  0
  9 10  1  0  0  0  0
  9 11  1  0  0  0  0
  9 29  1  0  0  0  0
  7  8  1  0  0  0  0
  7  9  1  0  0  0  0
 33 34  1  0  0  0  0
 33 35  1  0  0  0  0
 33 36  1  0  0  0  0
 31 32  1  0  0  0  0
 31 33  1  0  0  0  0
M  END
$$$$
default_name
  -OEChem-02102213163D

 36 37  0     1  0  0  0  0  0999 V2000
   -4.0843   -4.0736    1.2944 H   0  0  0  0  0  0  0  0  0  0  0  0
   -4.0342   -3.2816    0.5484 C   0  0  0  0  0  0  0  0  0  0  0  0
   -4.8842   -2.6126    0.6694 H   0  0  0  0  0  0  0  0  0  0  0  0
   -4.0433   -3.7186   -0.4486 H   0  0  0  0  0  0  0  0  0  0  0  0
   -2.7532   -2.5046    0.7444 C   0  0  0  0  0  0  0  0  0  0  0  0
   -1.9803   -2.8096    1.6434 O   0  0  0  0  0  0  0  0  0  0  0  0
   -2.5332   -1.4966   -0.0966 N   0  0  0  0  0  0  0  0  0  0  0  0
   -3.2312   -1.2816   -0.7936 H   0  0  0  0  0  0  0  0  0  0  0  0
   -1.3593   -0.6196   -0.0536 C   0  0  1  0  0  0  0  0  0  0  0  0
   -0.4622   -1.2317   -0.1545 H   0  0  0  0  0  0  0  0  0  0  0  0
   -1.4074    0.3593   -1.2373 C   0  0  0  0  0  0  0  0  0  0  0  0
   -0.4172    0.7988   -1.3706 H   0  0  0  0  0  0  0  0  0  0  0  0
   -1.6442   -0.2020   -2.1428 H   0  0  0  0  0  0  0  0  0  0  0  0
   -2.3958    1.4774   -1.0993 C   0  0  0  0  0  0  0  0  0  0  0  0
   -2.4234    2.6002   -1.8518 C   0  0  0  0  0  0  0  0  0  0  0  0
   -1.7144    2.8334   -2.6386 H   0  0  0  0  0  0  0  0  0  0  0  0
   -3.4973    3.3837   -1.4773 N   0  0  0  0  0  0  0  0  0  0  0  0
   -3.7126    4.2737   -1.9024 H   0  0  0  0  0  0  0  0  0  0  0  0
   -4.2296    2.7929   -0.4695 C   0  0  0  0  0  0  0  0  0  0  0  0
   -5.3949    3.1681    0.2144 C   0  0  0  0  0  0  0  0  0  0  0  0
   -5.8931    4.0969   -0.0216 H   0  0  0  0  0  0  0  0  0  0  0  0
   -5.9042    2.3194    1.2121 C   0  0  0  0  0  0  0  0  0  0  0  0
   -6.8014    2.5928    1.7509 H   0  0  0  0  0  0  0  0  0  0  0  0
   -5.2412    1.1159    1.5141 C   0  0  0  0  0  0  0  0  0  0  0  0
   -5.6318    0.4700    2.2883 H   0  0  0  0  0  0  0  0  0  0  0  0
   -4.0695    0.7499    0.8217 C   0  0  0  0  0  0  0  0  0  0  0  0
   -3.5626   -0.1710    1.0728 H   0  0  0  0  0  0  0  0  0  0  0  0
   -3.5361    1.5775   -0.1901 C   0  0  0  0  0  0  0  0  0  0  0  0
   -1.2663    0.1182    1.2910 C   0  0  0  0  0  0  0  0  0  0  0  0
   -0.1906    0.1931    1.8833 O   0  0  0  0  0  0  0  0  0  0  0  0
   -2.3930    0.6605    1.7722 N   0  0  0  0  0  0  0  0  0  0  0  0
   -3.2451    0.5077    1.2518 H   0  0  0  0  0  0  0  0  0  0  0  0
   -2.4787    1.3954    3.0311 C   0  0  0  0  0  0  0  0  0  0  0  0
   -1.7166    2.1767    3.0539 H   0  0  0  0  0  0  0  0  0  0  0  0
   -3.4649    1.8498    3.1344 H   0  0  0  0  0  0  0  0  0  0  0  0
   -2.3058    0.7133    3.8652 H   0  0  0  0  0  0  0  0  0  0  0  0
  5  6  2  0  0  0  0
  5  7  1  0  0  0  0
  2  3  1  0  0  0  0
  2  4  1  0  0  0  0
  2  5  1  0  0  0  0
  1  2  1  0  0  0  0
 29 30  2  0  0  0  0
 29 31  1  0  0  0  0
 26 27  1  0  0  0  0
 26 28  2  0  0  0  0
 24 25  1  0  0  0  0
 24 26  1  0  0  0  0
 22 23  1  0  0  0  0
 22 24  2  0  0  0  0
 20 21  1  0  0  0  0
 20 22  1  0  0  0  0
 19 20  2  0  0  0  0
 19 28  1  0  0  0  0
 17 18  1  0  0  0  0
 17 19  1  0  0  0  0
 15 16  1  0  0  0  0
 15 17  1  0  0  0  0
 14 15  2  0  0  0  0
 14 28  1  0  0  0  0
 11 12  1  0  0  0  0
 11 13  1  0  0  0  0
 11 14  1  0  0  0  0
  9 10  1  0  0  0  0
  9 11  1  0  0  0  0
  9 29  1  0  0  0  0
  7  8  1  0  0  0  0
  7  9  1  0  0  0  0
 33 34  1  0  0  0  0
 33 35  1  0  0  0  0
 33 36  1  0  0  0  0
 31 32  1  0  0  0  0
 31 33  1  0  0  0  0
M  END
$$$$
default_name
  -OEChem-02102213163D

 36 37  0     1  0  0  0  0  0999 V2000
   -4.0843   -4.0736    1.2944 H   0  0  0  0  0  0  0  0  0  0  0  0
   -4.0342   -3.2816    0.5484 C   0  0  0  0  0  0  0  0  0  0  0  0
   -4.8842   -2.6126    0.6694 H   0  0  0  0  0  0  0  0  0  0  0  0
   -4.0433   -3.7186   -0.4486 H   0  0  0  0  0  0  0  0  0  0  0  0
   -2.7532   -2.5046    0.7444 C   0  0  0  0  0  0  0  0  0  0  0  0
   -1.9803   -2.8096    1.6434 O   0  0  0  0  0  0  0  0  0  0  0  0
   -2.5332   -1.4966   -0.0966 N   0  0  0  0  0  0  0  0  0  0  0  0
   -3.2312   -1.2816   -0.7936 H   0  0  0  0  0  0  0  0  0  0  0  0
   -1.3593   -0.6196   -0.0536 C   0  0  1  0  0  0  0  0  0  0  0  0
   -0.4622   -1.2317   -0.1545 H   0  0  0  0  0  0  0  0  0  0  0  0
   -1.4074    0.3593   -1.2373 C   0  0  0  0  0  0  0  0  0  0  0  0
   -0.3857    0.5930   -1.5421 H   0  0  0  0  0  0  0  0  0  0  0  0
   -1.8977   -0.1354   -2.0774 H   0  0  0  0  0  0  0  0  0  0  0  0
   -2.1172    1.6512   -0.9669 C   0  0  0  0  0  0  0  0  0  0  0  0
   -2.2833    2.6581   -1.8536 C   0  0  0  0  0  0  0  0  0  0  0  0
   -1.9018    2.6556   -2.8688 H   0  0  0  0  0  0  0  0  0  0  0  0
   -3.0248    3.6691   -1.2745 N   0  0  0  0  0  0  0  0  0  0  0  0
   -3.2687    4.5246   -1.7519 H   0  0  0  0  0  0  0  0  0  0  0  0
   -3.3900    3.3548    0.0172 C   0  0  0  0  0  0  0  0  0  0  0  0
   -4.1505    4.0230    0.9875 C   0  0  0  0  0  0  0  0  0  0  0  0
   -4.5770    4.9926    0.7765 H   0  0  0  0  0  0  0  0  0  0  0  0
   -4.3481    3.4143    2.2387 C   0  0  0  0  0  0  0  0  0  0  0  0
   -4.9310    3.9153    2.9997 H   0  0  0  0  0  0  0  0  0  0  0  0
   -3.7808    2.1542    2.5025 C   0  0  0  0  0  0  0  0  0  0  0  0
   -3.9284    1.6932    3.4694 H   0  0  0  0  0  0  0  0  0  0  0  0
   -3.0165    1.4926    1.5205 C   0  0  0  0  0  0  0  0  0  0  0  0
   -2.5752    0.5310    1.7409 H   0  0  0  0  0  0  0  0  0  0  0  0
   -2.8047    2.0745    0.2518 C   0  0  0  0  0  0  0  0  0  0  0  0
   -1.2663    0.1182    1.2910 C   0  0  0  0  0  0  0  0  0  0  0  0
   -0.1906    0.1931    1.8833 O   0  0  0  0  0  0  0  0  0  0  0  0
   -2.3930    0.6605    1.7722 N   0  0  0  0  0  0  0  0  0  0  0  0
   -3.2451    0.5077    1.2518 H   0  0  0  0  0  0  0  0  0  0  0  0
   -2.4787    1.3954    3.0311 C   0  0  0  0  0  0  0  0  0  0  0  0
   -1.7166    2.1767    3.0539 H   0  0  0  0  0  0  0  0  0  0  0  0
   -3.4649    1.8498    3.1344 H   0  0  0  0  0  0  0  0  0  0  0  0
   -2.3058    0.7133    3.8652 H   0  0  0  0  0  0  0  0  0  0  0  0
  5  6  2  0  0  0  0
  5  7  1  0  0  0  0
  2  3  1  0  0  0  0
  2  4  1  0  0  0  0
  2  5  1  0  0  0  0
  1  2  1  0  0  0  0
 29 30  2  0  0  0  0
 29 31  1  0  0  0  0
 26 27  1  0  0  0  0
 26 28  2  0  0  0  0
 24 25  1  0  0  0  0
 24 26  1  0  0  0  0
 22 23  1  0  0  0  0
 22 24  2  0  0  0  0
 20 21  1  0  0  0  0
 20 22  1  0  0  0  0
 19 20  2  0  0  0  0
 19 28  1  0  0  0  0
 17 18  1  0  0  0  0
 17 19  1  0  0  0  0
 15 16  1  0  0  0  0
 15 17  1  0  0  0  0
 14 15  2  0  0  0  0
 14 28  1  0  0  0  0
 11 12  1  0  0  0  0
 11 13  1  0  0  0  0
 11 14  1  0  0  0  0
  9 10  1  0  0  0  0
  9 11  1  0  0  0  0
  9 29  1  0  0  0  0
  7  8  1  0  0  0  0
  7  9  1  0  0  0  0
 33 34  1  0  0  0  0
 33 35  1  0  0  0  0
 33 36  1  0  0  0  0
 31 32  1  0  0  0  0
 31 33  1  0  0  0  0
M  END
$$$$
default_name
  -OEChem-02102213163D

 36 37  0     1  0  0  0  0  0999 V2000
   -4.0843   -4.0736    1.2944 H   0  0  0  0  0  0  0  0  0  0  0  0
   -4.0342   -3.2816    0.5484 C   0  0  0  0  0  0  0  0  0  0  0  0
   -4.8842   -2.6126    0.6694 H   0  0  0  0  0  0  0  0  0  0  0  0
   -4.0433   -3.7186   -0.4486 H   0  0  0  0  0  0  0  0  0  0  0  0
   -2.7532   -2.5046    0.7444 C   0  0  0  0  0  0  0  0  0  0  0  0
   -1.9803   -2.8096    1.6434 O   0  0  0  0  0  0  0  0  0  0  0  0
   -2.5332   -1.4966   -0.0966 N   0  0  0  0  0  0  0  0  0  0  0  0
   -3.2312   -1.2816   -0.7936 H   0  0  0  0  0  0  0  0  0  0  0  0
   -1.3593   -0.6196   -0.0536 C   0  0  1  0  0  0  0  0  0  0  0  0
   -0.4622   -1.2317   -0.1545 H   0  0  0  0  0  0  0  0  0  0  0  0
   -1.4074    0.3593   -1.2373 C   0  0  0  0  0  0  0  0  0  0  0  0
   -0.3857    0.5930   -1.5421 H   0  0  0  0  0  0  0  0  0  0  0  0
   -1.8977   -0.1354   -2.0774 H   0  0  0  0  0  0  0  0  0  0  0  0
   -2.1172    1.6512   -0.9669 C   0  0  0  0  0  0  0  0  0  0  0  0
   -2.5352    2.5304   -1.9049 C   0  0  0  0  0  0  0  0  0  0  0  0
   -2.3871    2.4107   -2.9726 H   0  0  0  0  0  0  0  0  0  0  0  0
   -3.1909    3.5824   -1.2959 N   0  0  0  0  0  0  0  0  0  0  0  0
   -3.5854    4.3612   -1.8027 H   0  0  0  0  0  0  0  0  0  0  0  0
   -3.2429    3.4240    0.0727 C   0  0  0  0  0  0  0  0  0  0  0  0
   -3.8101    4.1855    1.1045 C   0  0  0  0  0  0  0  0  0  0  0  0
   -4.3307    5.1057    0.8831 H   0  0  0  0  0  0  0  0  0  0  0  0
   -3.6902    3.7356    2.4305 C   0  0  0  0  0  0  0  0  0  0  0  0
   -4.1204    4.3104    3.2394 H   0  0  0  0  0  0  0  0  0  0  0  0
   -3.0033    2.5389    2.7052 C   0  0  0  0  0  0  0  0  0  0  0  0
   -2.9062    2.2008    3.7276 H   0  0  0  0  0  0  0  0  0  0  0  0
   -2.4354    1.7826    1.6603 C   0  0  0  0  0  0  0  0  0  0  0  0
   -1.8989    0.8720    1.8865 H   0  0  0  0  0  0  0  0  0  0  0  0
   -2.5439    2.2041    0.3174 C   0  0  0  0  0  0  0  0  0  0  0  0
   -1.2663    0.1182    1.2910 C   0  0  0  0  0  0  0  0  0  0  0  0
   -0.1906    0.1931    1.8833 O   0  0  0  0  0  0  0  0  0  0  0  0
   -2.3930    0.6605    1.7722 N   0  0  0  0  0  0  0  0  0  0  0  0
   -3.2451    0.5077    1.2518 H   0  0  0  0  0  0  0  0  0  0  0  0
   -2.4787    1.3954    3.0311 C   0  0  0  0  0  0  0  0  0  0  0  0
   -1.7166    2.1767    3.0539 H   0  0  0  0  0  0  0  0  0  0  0  0
   -3.4649    1.8498    3.1344 H   0  0  0  0  0  0  0  0  0  0  0  0
   -2.3058    0.7133    3.8652 H   0  0  0  0  0  0  0  0  0  0  0  0
  5  6  2  0  0  0  0
  5  7  1  0  0  0  0
  2  3  1  0  0  0  0
  2  4  1  0  0  0  0
  2  5  1  0  0  0  0
  1  2  1  0  0  0  0
 29 30  2  0  0  0  0
 29 31  1  0  0  0  0
 26 27  1  0  0  0  0
 26 28  2  0  0  0  0
 24 25  1  0  0  0  0
 24 26  1  0  0  0  0
 22 23  1  0  0  0  0
 22 24  2  0  0  0  0
 20 21  1  0  0  0  0
 20 22  1  0  0  0  0
 19 20  2  0  0  0  0
 19 28  1  0  0  0  0
 17 18  1  0  0  0  0
 17 19  1  0  0  0  0
 15 16  1  0  0  0  0
 15 17  1  0  0  0  0
 14 15  2  0  0  0  0
 14 28  1  0  0  0  0
 11 12  1  0  0  0  0
 11 13  1  0  0  0  0
 11 14  1  0  0  0  0
  9 10  1  0  0  0  0
  9 11  1  0  0  0  0
  9 29  1  0  0  0  0
  7  8  1  0  0  0  0
  7  9  1  0  0  0  0
 33 34  1  0  0  0  0
 33 35  1  0  0  0  0
 33 36  1  0  0  0  0
 31 32  1  0  0  0  0
 31 33  1  0  0  0  0
M  END
$$$$
default_name
  -OEChem-02102213163D

 36 37  0     1  0  0  0  0  0999 V2000
   -4.0843   -4.0736    1.2944 H   0  0  0  0  0  0  0  0  0  0  0  0
   -4.0342   -3.2816    0.5484 C   0  0  0  0  0  0  0  0  0  0  0  0
   -4.8842   -2.6126    0.6694 H   0  0  0  0  0  0  0  0  0  0  0  0
   -4.0433   -3.7186   -0.4486 H   0  0  0  0  0  0  0  0  0  0  0  0
   -2.7532   -2.5046    0.7444 C   0  0  0  0  0  0  0  0  0  0  0  0
   -1.9803   -2.8096    1.6434 O   0  0  0  0  0  0  0  0  0  0  0  0
   -2.5332   -1.4966   -0.0966 N   0  0  0  0  0  0  0  0  0  0  0  0
   -3.2312   -1.2816   -0.7936 H   0  0  0  0  0  0  0  0  0  0  0  0
   -1.3593   -0.6196   -0.0536 C   0  0  1  0  0  0  0  0  0  0  0  0
   -0.4622   -1.2317   -0.1545 H   0  0  0  0  0  0  0  0  0  0  0  0
   -1.4074    0.3593   -1.2373 C   0  0  0  0  0  0  0  0  0  0  0  0
   -0.3857    0.5930   -1.5421 H   0  0  0  0  0  0  0  0  0  0  0  0
   -1.8977   -0.1354   -2.0774 H   0  0  0  0  0  0  0  0  0  0  0  0
   -2.1172    1.6512   -0.9669 C   0  0  0  0  0  0  0  0  0  0  0  0
   -2.7840    2.3890   -1.8827 C   0  0  0  0  0  0  0  0  0  0  0  0
   -2.8677    2.1387   -2.9345 H   0  0  0  0  0  0  0  0  0  0  0  0
   -3.3520    3.4882   -1.2688 N   0  0  0  0  0  0  0  0  0  0  0  0
   -3.8949    4.1825   -1.7612 H   0  0  0  0  0  0  0  0  0  0  0  0
   -3.0917    3.5045    0.0849 C   0  0  0  0  0  0  0  0  0  0  0  0
   -3.4629    4.3727    1.1216 C   0  0  0  0  0  0  0  0  0  0  0  0
   -4.0742    5.2394    0.9173 H   0  0  0  0  0  0  0  0  0  0  0  0
   -3.0269    4.1003    2.4295 C   0  0  0  0  0  0  0  0  0  0  0  0
   -3.3025    4.7594    3.2417 H   0  0  0  0  0  0  0  0  0  0  0  0
   -2.2251    2.9717    2.6803 C   0  0  0  0  0  0  0  0  0  0  0  0
   -1.8850    2.7705    3.6867 H   0  0  0  0  0  0  0  0  0  0  0  0
   -1.8565    2.1070    1.6303 C   0  0  0  0  0  0  0  0  0  0  0  0
   -1.2292    1.2509    1.8345 H   0  0  0  0  0  0  0  0  0  0  0  0
   -2.2833    2.3495    0.3067 C   0  0  0  0  0  0  0  0  0  0  0  0
   -1.2663    0.1182    1.2910 C   0  0  0  0  0  0  0  0  0  0  0  0
   -0.1906    0.1931    1.8833 O   0  0  0  0  0  0  0  0  0  0  0  0
   -2.3930    0.6605    1.7722 N   0  0  0  0  0  0  0  0  0  0  0  0
   -3.2451    0.5077    1.2518 H   0  0  0  0  0  0  0  0  0  0  0  0
   -2.4787    1.3954    3.0311 C   0  0  0  0  0  0  0  0  0  0  0  0
   -1.7166    2.1767    3.0539 H   0  0  0  0  0  0  0  0  0  0  0  0
   -3.4649    1.8498    3.1344 H   0  0  0  0  0  0  0  0  0  0  0  0
   -2.3058    0.7133    3.8652 H   0  0  0  0  0  0  0  0  0  0  0  0
  5  6  2  0  0  0  0
  5  7  1  0  0  0  0
  2  3  1  0  0  0  0
  2  4  1  0  0  0  0
  2  5  1  0  0  0  0
  1  2  1  0  0  0  0
 29 30  2  0  0  0  0
 29 31  1  0  0  0  0
 26 27  1  0  0  0  0
 26 28  2  0  0  0  0
 24 25  1  0  0  0  0
 24 26  1  0  0  0  0
 22 23  1  0  0  0  0
 22 24  2  0  0  0  0
 20 21  1  0  0  0  0
 20 22  1  0  0  0  0
 19 20  2  0  0  0  0
 19 28  1  0  0  0  0
 17 18  1  0  0  0  0
 17 19  1  0  0  0  0
 15 16  1  0  0  0  0
 15 17  1  0  0  0  0
 14 15  2  0  0  0  0
 14 28  1  0  0  0  0
 11 12  1  0  0  0  0
 11 13  1  0  0  0  0
 11 14  1  0  0  0  0
  9 10  1  0  0  0  0
  9 11  1  0  0  0  0
  9 29  1  0  0  0  0
  7  8  1  0  0  0  0
  7  9  1  0  0  0  0
 33 34  1  0  0  0  0
 33 35  1  0  0  0  0
 33 36  1  0  0  0  0
 31 32  1  0  0  0  0
 31 33  1  0  0  0  0
M  END
$$$$
default_name
  -OEChem-02102213163D

 36 37  0     1  0  0  0  0  0999 V2000
   -4.0843   -4.0736    1.2944 H   0  0  0  0  0  0  0  0  0  0  0  0
   -4.0342   -3.2816    0.5484 C   0  0  0  0  0  0  0  0  0  0  0  0
   -4.8842   -2.6126    0.6694 H   0  0  0  0  0  0  0  0  0  0  0  0
   -4.0433   -3.7186   -0.4486 H   0  0  0  0  0  0  0  0  0  0  0  0
   -2.7532   -2.5046    0.7444 C   0  0  0  0  0  0  0  0  0  0  0  0
   -1.9803   -2.8096    1.6434 O   0  0  0  0  0  0  0  0  0  0  0  0
   -2.5332   -1.4966   -0.0966 N   0  0  0  0  0  0  0  0  0  0  0  0
   -3.2312   -1.2816   -0.7936 H   0  0  0  0  0  0  0  0  0  0  0  0
   -1.3593   -0.6196   -0.0536 C   0  0  1  0  0  0  0  0  0  0  0  0
   -0.4622   -1.2317   -0.1545 H   0  0  0  0  0  0  0  0  0  0  0  0
   -1.4074    0.3593   -1.2373 C   0  0  0  0  0  0  0  0  0  0  0  0
   -0.3857    0.5930   -1.5421 H   0  0  0  0  0  0  0  0  0  0  0  0
   -1.8977   -0.1354   -2.0774 H   0  0  0  0  0  0  0  0  0  0  0  0
   -2.1172    1.6512   -0.9669 C   0  0  0  0  0  0  0  0  0  0  0  0
   -3.0128    2.2436   -1.7883 C   0  0  0  0  0  0  0  0  0  0  0  0
   -3.3107    1.8581   -2.7572 H   0  0  0  0  0  0  0  0  0  0  0  0
   -3.4972    3.3930   -1.1952 N   0  0  0  0  0  0  0  0  0  0  0  0
   -4.1763    4.0004   -1.6301 H   0  0  0  0  0  0  0  0  0  0  0  0
   -2.9467    3.5908    0.0532 C   0  0  0  0  0  0  0  0  0  0  0  0
   -3.1324    4.5719    1.0377 C   0  0  0  0  0  0  0  0  0  0  0  0
   -3.8251    5.3848    0.8767 H   0  0  0  0  0  0  0  0  0  0  0  0
   -2.4034    4.4834    2.2360 C   0  0  0  0  0  0  0  0  0  0  0  0
   -2.5328    5.2315    3.0063 H   0  0  0  0  0  0  0  0  0  0  0  0
   -1.4992    3.4230    2.4296 C   0  0  0  0  0  0  0  0  0  0  0  0
   -0.9342    3.3634    3.3495 H   0  0  0  0  0  0  0  0  0  0  0  0
   -1.3191    2.4437    1.4323 C   0  0  0  0  0  0  0  0  0  0  0  0
   -0.6115    1.6418    1.5884 H   0  0  0  0  0  0  0  0  0  0  0  0
   -2.0408    2.5009    0.2204 C   0  0  0  0  0  0  0  0  0  0  0  0
   -1.2663    0.1182    1.2910 C   0  0  0  0  0  0  0  0  0  0  0  0
   -0.1906    0.1931    1.8833 O   0  0  0  0  0  0  0  0  0  0  0  0
   -2.3930    0.6605    1.7722 N   0  0  0  0  0  0  0  0  0  0  0  0
   -3.2451    0.5077    1.2518 H   0  0  0  0  0  0  0  0  0  0  0  0
   -2.4787    1.3954    3.0311 C   0  0  0  0  0  0  0  0  0  0  0  0
   -1.7166    2.1767    3.0539 H   0  0  0  0  0  0  0  0  0  0  0  0
   -3.4649    1.8498    3.1344 H   0  0  0  0  0  0  0  0  0  0  0  0
   -2.3058    0.7133    3.8652 H   0  0  0  0  0  0  0  0  0  0  0  0
  5  6  2  0  0  0  0
  5  7  1  0  0  0  0
  2  3  1  0  0  0  0
  2  4  1  0  0  0  0
  2  5  1  0  0  0  0
  1  2  1  0  0  0  0
 29 30  2  0  0  0  0
 29 31  1  0  0  0  0
 26 27  1  0  0  0  0
 26 28  2  0  0  0  0
 24 25  1  0  0  0  0
 24 26  1  0  0  0  0
 22 23  1  0  0  0  0
 22 24  2  0  0  0  0
 20 21  1  0  0  0  0
 20 22  1  0  0  0  0
 19 20  2  0  0  0  0
 19 28  1  0  0  0  0
 17 18  1  0  0  0  0
 17 19  1  0  0  0  0
 15 16  1  0  0  0  0
 15 17  1  0  0  0  0
 14 15  2  0  0  0  0
 14 28  1  0  0  0  0
 11 12  1  0  0  0  0
 11 13  1  0  0  0  0
 11 14  1  0  0  0  0
  9 10  1  0  0  0  0
  9 11  1  0  0  0  0
  9 29  1  0  0  0  0
  7  8  1  0  0  0  0
  7  9  1  0  0  0  0
 33 34  1  0  0  0  0
 33 35  1  0  0  0  0
 33 36  1  0  0  0  0
 31 32  1  0  0  0  0
 31 33  1  0  0  0  0
M  END
$$$$
default_name
  -OEChem-02102213163D

 36 37  0     1  0  0  0  0  0999 V2000
   -4.0843   -4.0736    1.2944 H   0  0  0  0  0  0  0  0  0  0  0  0
   -4.0342   -3.2816    0.5484 C   0  0  0  0  0  0  0  0  0  0  0  0
   -4.8842   -2.6126    0.6694 H   0  0  0  0  0  0  0  0  0  0  0  0
   -4.0433   -3.7186   -0.4486 H   0  0  0  0  0  0  0  0  0  0  0  0
   -2.7532   -2.5046    0.7444 C   0  0  0  0  0  0  0  0  0  0  0  0
   -1.9803   -2.8096    1.6434 O   0  0  0  0  0  0  0  0  0  0  0  0
   -2.5332   -1.4966   -0.0966 N   0  0  0  0  0  0  0  0  0  0  0  0
   -3.2312   -1.2816   -0.7936 H   0  0  0  0  0  0  0  0  0  0  0  0
   -1.3593   -0.6196   -0.0536 C   0  0  1  0  0  0  0  0  0  0  0  0
   -0.4622   -1.2317   -0.1545 H   0  0  0  0  0  0  0  0  0  0  0  0
   -1.4074    0.3593   -1.2373 C   0  0  0  0  0  0  0  0  0  0  0  0
   -0.3857    0.5930   -1.5421 H   0  0  0  0  0  0  0  0  0  0  0  0
   -1.8977   -0.1354   -2.0774 H   0  0  0  0  0  0  0  0  0  0  0  0
   -2.1172    1.6512   -0.9669 C   0  0  0  0  0  0  0  0  0  0  0  0
   -3.2059    2.1040   -1.6283 C   0  0  0  0  0  0  0  0  0  0  0  0
   -3.6859    1.5882   -2.4527 H   0  0  0  0  0  0  0  0  0  0  0  0
   -3.6166    3.3033   -1.0801 N   0  0  0  0  0  0  0  0  0  0  0  0
   -4.4103    3.8275   -1.4183 H   0  0  0  0  0  0  0  0  0  0  0  0
   -2.8177    3.6771   -0.0205 C   0  0  0  0  0  0  0  0  0  0  0  0
   -2.8412    4.7694    0.8586 C   0  0  0  0  0  0  0  0  0  0  0  0
   -3.6004    5.5319    0.7640 H   0  0  0  0  0  0  0  0  0  0  0  0
   -1.8623    4.8588    1.8629 C   0  0  0  0  0  0  0  0  0  0  0  0
   -1.8640    5.6947    2.5493 H   0  0  0  0  0  0  0  0  0  0  0  0
   -0.8751    3.8621    1.9702 C   0  0  0  0  0  0  0  0  0  0  0  0
   -0.1188    3.9392    2.7391 H   0  0  0  0  0  0  0  0  0  0  0  0
   -0.8599    2.7697    1.0799 C   0  0  0  0  0  0  0  0  0  0  0  0
   -0.0881    2.0180    1.1650 H   0  0  0  0  0  0  0  0  0  0  0  0
   -1.8329    2.6477    0.0643 C   0  0  0  0  0  0  0  0  0  0  0  0
   -1.2663    0.1182    1.2910 C   0  0  0  0  0  0  0  0  0  0  0  0
   -0.1906    0.1931    1.8833 O   0  0  0  0  0  0  0  0  0  0  0  0
   -2.3930    0.6605    1.7722 N   0  0  0  0  0  0  0  0  0  0  0  0
   -3.2451    0.5077    1.2518 H   0  0  0  0  0  0  0  0  0  0  0  0
   -2.4787    1.3954    3.0311 C   0  0  0  0  0  0  0  0  0  0  0  0
   -1.7166    2.1767    3.0539 H   0  0  0  0  0  0  0  0  0  0  0  0
   -3.4649    1.8498    3.1344 H   0  0  0  0  0  0  0  0  0  0  0  0
   -2.3058    0.7133    3.8652 H   0  0  0  0  0  0  0  0  0  0  0  0
  5  6  2  0  0  0  0
  5  7  1  0  0  0  0
  2  3  1  0  0  0  0
  2  4  1  0  0  0  0
  2  5  1  0  0  0  0
  1  2  1  0  0  0  0
 29 30  2  0  0  0  0
 29 31  1  0  0  0  0
 26 27  1  0  0  0  0
 26 28  2  0  0  0  0
 24 25  1  0  0  0  0
 24 26  1  0  0  0  0
 22 23  1  0  0  0  0
 22 24  2  0  0  0  0
 20 21  1  0  0  0  0
 20 22  1  0  0  0  0
 19 20  2  0  0  0  0
 19 28  1  0  0  0  0
 17 18  1  0  0  0  0
 17 19  1  0  0  0  0
 15 16  1  0  0  0  0
 15 17  1  0  0  0  0
 14 15  2  0  0  0  0
 14 28  1  0  0  0  0
 11 12  1  0  0  0  0
 11 13  1  0  0  0  0
 11 14  1  0  0  0  0
  9 10  1  0  0  0  0
  9 11  1  0  0  0  0
  9 29  1  0  0  0  0
  7  8  1  0  0  0  0
  7  9  1  0  0  0  0
 33 34  1  0  0  0  0
 33 35  1  0  0  0  0
 33 36  1  0  0  0  0
 31 32  1  0  0  0  0
 31 33  1  0  0  0  0
M  END
$$$$
default_name
  -OEChem-02102213163D

 36 37  0     1  0  0  0  0  0999 V2000
   -4.0843   -4.0736    1.2944 H   0  0  0  0  0  0  0  0  0  0  0  0
   -4.0342   -3.2816    0.5484 C   0  0  0  0  0  0  0  0  0  0  0  0
   -4.8842   -2.6126    0.6694 H   0  0  0  0  0  0  0  0  0  0  0  0
   -4.0433   -3.7186   -0.4486 H   0  0  0  0  0  0  0  0  0  0  0  0
   -2.7532   -2.5046    0.7444 C   0  0  0  0  0  0  0  0  0  0  0  0
   -1.9803   -2.8096    1.6434 O   0  0  0  0  0  0  0  0  0  0  0  0
   -2.5332   -1.4966   -0.0966 N   0  0  0  0  0  0  0  0  0  0  0  0
   -3.2312   -1.2816   -0.7936 H   0  0  0  0  0  0  0  0  0  0  0  0
   -1.3593   -0.6196   -0.0536 C   0  0  1  0  0  0  0  0  0  0  0  0
   -0.4622   -1.2317   -0.1545 H   0  0  0  0  0  0  0  0  0  0  0  0
   -1.4074    0.3593   -1.2373 C   0  0  0  0  0  0  0  0  0  0  0  0
   -0.3857    0.5930   -1.5421 H   0  0  0  0  0  0  0  0  0  0  0  0
   -1.8977   -0.1354   -2.0774 H   0  0  0  0  0  0  0  0  0  0  0  0
   -2.1172    1.6512   -0.9669 C   0  0  0  0  0  0  0  0  0  0  0  0
   -3.3502    1.9797   -1.4135 C   0  0  0  0  0  0  0  0  0  0  0  0
   -3.9678    1.3473   -2.0417 H   0  0  0  0  0  0  0  0  0  0  0  0
   -3.7021    3.2252   -0.9312 N   0  0  0  0  0  0  0  0  0  0  0  0
   -4.5810    3.6755   -1.1404 H   0  0  0  0  0  0  0  0  0  0  0  0
   -2.7136    3.7574   -0.1309 C   0  0  0  0  0  0  0  0  0  0  0  0
   -2.6092    4.9518    0.5964 C   0  0  0  0  0  0  0  0  0  0  0  0
   -3.4153    5.6706    0.5871 H   0  0  0  0  0  0  0  0  0  0  0  0
   -1.4403    5.2009    1.3358 C   0  0  0  0  0  0  0  0  0  0  0  0
   -1.3415    6.1172    1.9020 H   0  0  0  0  0  0  0  0  0  0  0  0
   -0.3952    4.2591    1.3333 C   0  0  0  0  0  0  0  0  0  0  0  0
    0.5057    4.4587    1.8969 H   0  0  0  0  0  0  0  0  0  0  0  0
   -0.5103    3.0629    0.5971 C   0  0  0  0  0  0  0  0  0  0  0  0
    0.3055    2.3540    0.5930 H   0  0  0  0  0  0  0  0  0  0  0  0
   -1.6738    2.7802   -0.1508 C   0  0  0  0  0  0  0  0  0  0  0  0
   -1.2663    0.1182    1.2910 C   0  0  0  0  0  0  0  0  0  0  0  0
   -0.1906    0.1931    1.8833 O   0  0  0  0  0  0  0  0  0  0  0  0
   -2.3930    0.6605    1.7722 N   0  0  0  0  0  0  0  0  0  0  0  0
   -3.2451    0.5077    1.2518 H   0  0  0  0  0  0  0  0  0  0  0  0
   -2.4787    1.3954    3.0311 C   0  0  0  0  0  0  0  0  0  0  0  0
   -1.7166    2.1767    3.0539 H   0  0  0  0  0  0  0  0  0  0  0  0
   -3.4649    1.8498    3.1344 H   0  0  0  0  0  0  0  0  0  0  0  0
   -2.3058    0.7133    3.8652 H   0  0  0  0  0  0  0  0  0  0  0  0
  5  6  2  0  0  0  0
  5  7  1  0  0  0  0
  2  3  1  0  0  0  0
  2  4  1  0  0  0  0
  2  5  1  0  0  0  0
  1  2  1  0  0  0  0
 29 30  2  0  0  0  0
 29 31  1  0  0  0  0
 26 27  1  0  0  0  0
 26 28  2  0  0  0  0
 24 25  1  0  0  0  0
 24 26  1  0  0  0  0
 22 23  1  0  0  0  0
 22 24  2  0  0  0  0
 20 21  1  0  0  0  0
 20 22  1  0  0  0  0
 19 20  2  0  0  0  0
 19 28  1  0  0  0  0
 17 18  1  0  0  0  0
 17 19  1  0  0  0  0
 15 16  1  0  0  0  0
 15 17  1  0  0  0  0
 14 15  2  0  0  0  0
 14 28  1  0  0  0  0
 11 12  1  0  0  0  0
 11 13  1  0  0  0  0
 11 14  1  0  0  0  0
  9 10  1  0  0  0  0
  9 11  1  0  0  0  0
  9 29  1  0  0  0  0
  7  8  1  0  0  0  0
  7  9  1  0  0  0  0
 33 34  1  0  0  0  0
 33 35  1  0  0  0  0
 33 36  1  0  0  0  0
 31 32  1  0  0  0  0
 31 33  1  0  0  0  0
M  END
$$$$
default_name
  -OEChem-02102213163D

 36 37  0     1  0  0  0  0  0999 V2000
   -4.0843   -4.0736    1.2944 H   0  0  0  0  0  0  0  0  0  0  0  0
   -4.0342   -3.2816    0.5484 C   0  0  0  0  0  0  0  0  0  0  0  0
   -4.8842   -2.6126    0.6694 H   0  0  0  0  0  0  0  0  0  0  0  0
   -4.0433   -3.7186   -0.4486 H   0  0  0  0  0  0  0  0  0  0  0  0
   -2.7532   -2.5046    0.7444 C   0  0  0  0  0  0  0  0  0  0  0  0
   -1.9803   -2.8096    1.6434 O   0  0  0  0  0  0  0  0  0  0  0  0
   -2.5332   -1.4966   -0.0966 N   0  0  0  0  0  0  0  0  0  0  0  0
   -3.2312   -1.2816   -0.7936 H   0  0  0  0  0  0  0  0  0  0  0  0
   -1.3593   -0.6196   -0.0536 C   0  0  1  0  0  0  0  0  0  0  0  0
   -0.4622   -1.2317   -0.1545 H   0  0  0  0  0  0  0  0  0  0  0  0
   -1.4074    0.3593   -1.2373 C   0  0  0  0  0  0  0  0  0  0  0  0
   -0.3857    0.5930   -1.5421 H   0  0  0  0  0  0  0  0  0  0  0  0
   -1.8977   -0.1354   -2.0774 H   0  0  0  0  0  0  0  0  0  0  0  0
   -2.1172    1.6512   -0.9669 C   0  0  0  0  0  0  0  0  0  0  0  0
   -3.4359    1.8793   -1.1586 C   0  0  0  0  0  0  0  0  0  0  0  0
   -4.1372    1.1518   -1.5524 H   0  0  0  0  0  0  0  0  0  0  0  0
   -3.7477    3.1640   -0.7587 N   0  0  0  0  0  0  0  0  0  0  0  0
   -4.6768    3.5548   -0.8152 H   0  0  0  0  0  0  0  0  0  0  0  0
   -2.6414    3.8263   -0.2707 C   0  0  0  0  0  0  0  0  0  0  0  0
   -2.4520    5.1067    0.2689 C   0  0  0  0  0  0  0  0  0  0  0  0
   -3.2824    5.7916    0.3578 H   0  0  0  0  0  0  0  0  0  0  0  0
   -1.1664    5.4866    0.6906 C   0  0  0  0  0  0  0  0  0  0  0  0
   -1.0011    6.4705    1.1083 H   0  0  0  0  0  0  0  0  0  0  0  0
   -0.0923    4.5869    0.5624 C   0  0  0  0  0  0  0  0  0  0  0  0
    0.8968    4.8863    0.8804 H   0  0  0  0  0  0  0  0  0  0  0  0
   -0.2940    3.3032    0.0167 C   0  0  0  0  0  0  0  0  0  0  0  0
    0.5423    2.6268   -0.0884 H   0  0  0  0  0  0  0  0  0  0  0  0
   -1.5743    2.8892   -0.4103 C   0  0  0  0  0  0  0  0  0  0  0  0
   -1.2663    0.1182    1.2910 C   0  0  0  0  0  0  0  0  0  0  0  0
   -0.1906    0.1931    1.8833 O   0  0  0  0  0  0  0  0  0  0  0  0
   -2.3930    0.6605    1.7722 N   0  0  0  0  0  0  0  0  0  0  0  0
   -3.2451    0.5077    1.2518 H   0  0  0  0  0  0  0  0  0  0  0  0
   -2.4787    1.3954    3.0311 C   0  0  0  0  0  0  0  0  0  0  0  0
   -1.7166    2.1767    3.0539 H   0  0  0  0  0  0  0  0  0  0  0  0
   -3.4649    1.8498    3.1344 H   0  0  0  0  0  0  0  0  0  0  0  0
   -2.3058    0.7133    3.8652 H   0  0  0  0  0  0  0  0  0  0  0  0
  5  6  2  0  0  0  0
  5  7  1  0  0  0  0
  2  3  1  0  0  0  0
  2  4  1  0  0  0  0
  2  5  1  0  0  0  0
  1  2  1  0  0  0  0
 29 30  2  0  0  0  0
 29 31  1  0  0  0  0
 26 27  1  0  0  0  0
 26 28  2  0  0  0  0
 24 25  1  0  0  0  0
 24 26  1  0  0  0  0
 22 23  1  0  0  0  0
 22 24  2  0  0  0  0
 20 21  1  0  0  0  0
 20 22  1  0  0  0  0
 19 20  2  0  0  0  0
 19 28  1  0  0  0  0
 17 18  1  0  0  0  0
 17 19  1  0  0  0  0
 15 16  1  0  0  0  0
 15 17  1  0  0  0  0
 14 15  2  0  0  0  0
 14 28  1  0  0  0  0
 11 12  1  0  0  0  0
 11 13  1  0  0  0  0
 11 14  1  0  0  0  0
  9 10  1  0  0  0  0
  9 11  1  0  0  0  0
  9 29  1  0  0  0  0
  7  8  1  0  0  0  0
  7  9  1  0  0  0  0
 33 34  1  0  0  0  0
 33 35  1  0  0  0  0
 33 36  1  0  0  0  0
 31 32  1  0  0  0  0
 31 33  1  0  0  0  0
M  END
$$$$
default_name
  -OEChem-02102213163D

 36 37  0     1  0  0  0  0  0999 V2000
   -4.0843   -4.0736    1.2944 H   0  0  0  0  0  0  0  0  0  0  0  0
   -4.0342   -3.2816    0.5484 C   0  0  0  0  0  0  0  0  0  0  0  0
   -4.8842   -2.6126    0.6694 H   0  0  0  0  0  0  0  0  0  0  0  0
   -4.0433   -3.7186   -0.4486 H   0  0  0  0  0  0  0  0  0  0  0  0
   -2.7532   -2.5046    0.7444 C   0  0  0  0  0  0  0  0  0  0  0  0
   -1.9803   -2.8096    1.6434 O   0  0  0  0  0  0  0  0  0  0  0  0
   -2.5332   -1.4966   -0.0966 N   0  0  0  0  0  0  0  0  0  0  0  0
   -3.2312   -1.2816   -0.7936 H   0  0  0  0  0  0  0  0  0  0  0  0
   -1.3593   -0.6196   -0.0536 C   0  0  1  0  0  0  0  0  0  0  0  0
   -0.4622   -1.2317   -0.1545 H   0  0  0  0  0  0  0  0  0  0  0  0
   -1.4074    0.3593   -1.2373 C   0  0  0  0  0  0  0  0  0  0  0  0
   -0.3857    0.5930   -1.5421 H   0  0  0  0  0  0  0  0  0  0  0  0
   -1.8977   -0.1354   -2.0774 H   0  0  0  0  0  0  0  0  0  0  0  0
   -2.1172    1.6512   -0.9669 C   0  0  0  0  0  0  0  0  0  0  0  0
   -3.4571    1.8095   -0.8810 C   0  0  0  0  0  0  0  0  0  0  0  0
   -4.1824    1.0151   -1.0179 H   0  0  0  0  0  0  0  0  0  0  0  0
   -3.7505    3.1239   -0.5745 N   0  0  0  0  0  0  0  0  0  0  0  0
   -4.6912    3.4736   -0.4650 H   0  0  0  0  0  0  0  0  0  0  0  0
   -2.6061    3.8791   -0.4302 C   0  0  0  0  0  0  0  0  0  0  0  0
   -2.3805    5.2235   -0.1014 C   0  0  0  0  0  0  0  0  0  0  0  0
   -3.2109    5.8865    0.0919 H   0  0  0  0  0  0  0  0  0  0  0  0
   -1.0590    5.6961   -0.0288 C   0  0  0  0  0  0  0  0  0  0  0  0
   -0.8657    6.7303    0.2224 H   0  0  0  0  0  0  0  0  0  0  0  0
    0.0130    4.8232   -0.2900 C   0  0  0  0  0  0  0  0  0  0  0  0
    1.0278    5.1931   -0.2412 H   0  0  0  0  0  0  0  0  0  0  0  0
   -0.2257    3.4744   -0.6215 C   0  0  0  0  0  0  0  0  0  0  0  0
    0.6063    2.8178   -0.8329 H   0  0  0  0  0  0  0  0  0  0  0  0
   -1.5411    2.9674   -0.6966 C   0  0  0  0  0  0  0  0  0  0  0  0
   -1.2663    0.1182    1.2910 C   0  0  0  0  0  0  0  0  0  0  0  0
   -0.1906    0.1931    1.8833 O   0  0  0  0  0  0  0  0  0  0  0  0
   -2.3930    0.6605    1.7722 N   0  0  0  0  0  0  0  0  0  0  0  0
   -3.2451    0.5077    1.2518 H   0  0  0  0  0  0  0  0  0  0  0  0
   -2.4787    1.3954    3.0311 C   0  0  0  0  0  0  0  0  0  0  0  0
   -1.7166    2.1767    3.0539 H   0  0  0  0  0  0  0  0  0  0  0  0
   -3.4649    1.8498    3.1344 H   0  0  0  0  0  0  0  0  0  0  0  0
   -2.3058    0.7133    3.8652 H   0  0  0  0  0  0  0  0  0  0  0  0
  5  6  2  0  0  0  0
  5  7  1  0  0  0  0
  2  3  1  0  0  0  0
  2  4  1  0  0  0  0
  2  5  1  0  0  0  0
  1  2  1  0  0  0  0
 29 30  2  0  0  0  0
 29 31  1  0  0  0  0
 26 27  1  0  0  0  0
 26 28  2  0  0  0  0
 24 25  1  0  0  0  0
 24 26  1  0  0  0  0
 22 23  1  0  0  0  0
 22 24  2  0  0  0  0
 20 21  1  0  0  0  0
 20 22  1  0  0  0  0
 19 20  2  0  0  0  0
 19 28  1  0  0  0  0
 17 18  1  0  0  0  0
 17 19  1  0  0  0  0
 15 16  1  0  0  0  0
 15 17  1  0  0  0  0
 14 15  2  0  0  0  0
 14 28  1  0  0  0  0
 11 12  1  0  0  0  0
 11 13  1  0  0  0  0
 11 14  1  0  0  0  0
  9 10  1  0  0  0  0
  9 11  1  0  0  0  0
  9 29  1  0  0  0  0
  7  8  1  0  0  0  0
  7  9  1  0  0  0  0
 33 34  1  0  0  0  0
 33 35  1  0  0  0  0
 33 36  1  0  0  0  0
 31 32  1  0  0  0  0
 31 33  1  0  0  0  0
M  END
$$$$
default_name
  -OEChem-02102213163D

 36 37  0     1  0  0  0  0  0999 V2000
   -4.0843   -4.0736    1.2944 H   0  0  0  0  0  0  0  0  0  0  0  0
   -4.0342   -3.2816    0.5484 C   0  0  0  0  0  0  0  0  0  0  0  0
   -4.8842   -2.6126    0.6694 H   0  0  0  0  0  0  0  0  0  0  0  0
   -4.0433   -3.7186   -0.4486 H   0  0  0  0  0  0  0  0  0  0  0  0
   -2.7532   -2.5046    0.7444 C   0  0  0  0  0  0  0  0  0  0  0  0
   -1.9803   -2.8096    1.6434 O   0  0  0  0  0  0  0  0  0  0  0  0
   -2.5332   -1.4966   -0.0966 N   0  0  0  0  0  0  0  0  0  0  0  0
   -3.2312   -1.2816   -0.7936 H   0  0  0  0  0  0  0  0  0  0  0  0
   -1.3593   -0.6196   -0.0536 C   0  0  1  0  0  0  0  0  0  0  0  0
   -0.4622   -1.2317   -0.1545 H   0  0  0  0  0  0  0  0  0  0  0  0
   -1.4074    0.3593   -1.2373 C   0  0  0  0  0  0  0  0  0  0  0  0
   -0.3857    0.5930   -1.5421 H   0  0  0  0  0  0  0  0  0  0  0  0
   -1.8977   -0.1354   -2.0774 H   0  0  0  0  0  0  0  0  0  0  0  0
   -2.1172    1.6512   -0.9669 C   0  0  0  0  0  0  0  0  0  0  0  0
   -3.4123    1.7752   -0.5995 C   0  0  0  0  0  0  0  0  0  0  0  0
   -4.1005    0.9464   -0.4748 H   0  0  0  0  0  0  0  0  0  0  0  0
   -3.7102    3.1076   -0.3910 N   0  0  0  0  0  0  0  0  0  0  0  0
   -4.6231    3.4374   -0.1135 H   0  0  0  0  0  0  0  0  0  0  0  0
   -2.6101    3.9122   -0.5987 C   0  0  0  0  0  0  0  0  0  0  0  0
   -2.3995    5.2942   -0.4894 C   0  0  0  0  0  0  0  0  0  0  0  0
   -3.2056    5.9490   -0.1925 H   0  0  0  0  0  0  0  0  0  0  0  0
   -1.1256    5.8154   -0.7733 C   0  0  0  0  0  0  0  0  0  0  0  0
   -0.9448    6.8789   -0.6954 H   0  0  0  0  0  0  0  0  0  0  0  0
   -0.0866    4.9519   -1.1658 C   0  0  0  0  0  0  0  0  0  0  0  0
    0.8897    5.3580   -1.3913 H   0  0  0  0  0  0  0  0  0  0  0  0
   -0.3102    3.5646   -1.2743 C   0  0  0  0  0  0  0  0  0  0  0  0
    0.4931    2.9140   -1.5897 H   0  0  0  0  0  0  0  0  0  0  0  0
   -1.5766    3.0093   -0.9901 C   0  0  0  0  0  0  0  0  0  0  0  0
   -1.2663    0.1182    1.2910 C   0  0  0  0  0  0  0  0  0  0  0  0
   -0.1906    0.1931    1.8833 O   0  0  0  0  0  0  0  0  0  0  0  0
   -2.3930    0.6605    1.7722 N   0  0  0  0  0  0  0  0  0  0  0  0
   -3.2451    0.5077    1.2518 H   0  0  0  0  0  0  0  0  0  0  0  0
   -2.4787    1.3954    3.0311 C   0  0  0  0  0  0  0  0  0  0  0  0
   -1.7166    2.1767    3.0539 H   0  0  0  0  0  0  0  0  0  0  0  0
   -3.4649    1.8498    3.1344 H   0  0  0  0  0  0  0  0  0  0  0  0
   -2.3058    0.7133    3.8652 H   0  0  0  0  0  0  0  0  0  0  0  0
  5  6  2  0  0  0  0
  5  7  1  0  0  0  0
  2  3  1  0  0  0  0
  2  4  1  0  0  0  0
  2  5  1  0  0  0  0
  1  2  1  0  0  0  0
 29 30  2  0  0  0  0
 29 31  1  0  0  0  0
 26 27  1  0  0  0  0
 26 28  2  0  0  0  0
 24 25  1  0  0  0  0
 24 26  1  0  0  0  0
 22 23  1  0  0  0  0
 22 24  2  0  0  0  0
 20 21  1  0  0  0  0
 20 22  1  0  0  0  0
 19 20  2  0  0  0  0
 19 28  1  0  0  0  0
 17 18  1  0  0  0  0
 17 19  1  0  0  0  0
 15 16  1  0  0  0  0
 15 17  1  0  0  0  0
 14 15  2  0  0  0  0
 14 28  1  0  0  0  0
 11 12  1  0  0  0  0
 11 13  1  0  0  0  0
 11 14  1  0  0  0  0
  9 10  1  0  0  0  0
  9 11  1  0  0  0  0
  9 29  1  0  0  0  0
  7  8  1  0  0  0  0
  7  9  1  0  0  0  0
 33 34  1  0  0  0  0
 33 35  1  0  0  0  0
 33 36  1  0  0  0  0
 31 32  1  0  0  0  0
 31 33  1  0  0  0  0
M  END
$$$$
default_name
  -OEChem-02102213163D

 36 37  0     1  0  0  0  0  0999 V2000
   -4.0843   -4.0736    1.2944 H   0  0  0  0  0  0  0  0  0  0  0  0
   -4.0342   -3.2816    0.5484 C   0  0  0  0  0  0  0  0  0  0  0  0
   -4.8842   -2.6126    0.6694 H   0  0  0  0  0  0  0  0  0  0  0  0
   -4.0433   -3.7186   -0.4486 H   0  0  0  0  0  0  0  0  0  0  0  0
   -2.7532   -2.5046    0.7444 C   0  0  0  0  0  0  0  0  0  0  0  0
   -1.9803   -2.8096    1.6434 O   0  0  0  0  0  0  0  0  0  0  0  0
   -2.5332   -1.4966   -0.0966 N   0  0  0  0  0  0  0  0  0  0  0  0
   -3.2312   -1.2816   -0.7936 H   0  0  0  0  0  0  0  0  0  0  0  0
   -1.3593   -0.6196   -0.0536 C   0  0  1  0  0  0  0  0  0  0  0  0
   -0.4622   -1.2317   -0.1545 H   0  0  0  0  0  0  0  0  0  0  0  0
   -1.4074    0.3593   -1.2373 C   0  0  0  0  0  0  0  0  0  0  0  0
   -0.3857    0.5930   -1.5421 H   0  0  0  0  0  0  0  0  0  0  0  0
   -1.8977   -0.1354   -2.0774 H   0  0  0  0  0  0  0  0  0  0  0  0
   -2.1172    1.6512   -0.9669 C   0  0  0  0  0  0  0  0  0  0  0  0
   -3.3047    1.7786   -0.3335 C   0  0  0  0  0  0  0  0  0  0  0  0
   -3.8970    0.9504    0.0399 H   0  0  0  0  0  0  0  0  0  0  0  0
   -3.6296    3.1162   -0.2207 N   0  0  0  0  0  0  0  0  0  0  0  0
   -4.4772    3.4488    0.2153 H   0  0  0  0  0  0  0  0  0  0  0  0
   -2.6531    3.9233   -0.7646 C   0  0  0  0  0  0  0  0  0  0  0  0
   -2.5078    5.3142   -0.8686 C   0  0  0  0  0  0  0  0  0  0  0  0
   -3.2669    5.9747   -0.4761 H   0  0  0  0  0  0  0  0  0  0  0  0
   -1.3616    5.8362   -1.4922 C   0  0  0  0  0  0  0  0  0  0  0  0
   -1.2329    6.9064   -1.5824 H   0  0  0  0  0  0  0  0  0  0  0  0
   -0.3841    4.9641   -2.0053 C   0  0  0  0  0  0  0  0  0  0  0  0
    0.4921    5.3699   -2.4917 H   0  0  0  0  0  0  0  0  0  0  0  0
   -0.5416    3.5678   -1.8970 C   0  0  0  0  0  0  0  0  0  0  0  0
    0.2105    2.9089   -2.3073 H   0  0  0  0  0  0  0  0  0  0  0  0
   -1.6783    3.0122   -1.2708 C   0  0  0  0  0  0  0  0  0  0  0  0
   -1.2663    0.1182    1.2910 C   0  0  0  0  0  0  0  0  0  0  0  0
   -0.1906    0.1931    1.8833 O   0  0  0  0  0  0  0  0  0  0  0  0
   -2.3930    0.6605    1.7722 N   0  0  0  0  0  0  0  0  0  0  0  0
   -3.2451    0.5077    1.2518 H   0  0  0  0  0  0  0  0  0  0  0  0
   -2.4787    1.3954    3.0311 C   0  0  0  0  0  0  0  0  0  0  0  0
   -1.7166    2.1767    3.0539 H   0  0  0  0  0  0  0  0  0  0  0  0
   -3.4649    1.8498    3.1344 H   0  0  0  0  0  0  0  0  0  0  0  0
   -2.3058    0.7133    3.8652 H   0  0  0  0  0  0  0  0  0  0  0  0
  5  6  2  0  0  0  0
  5  7  1  0  0  0  0
  2  3  1  0  0  0  0
  2  4  1  0  0  0  0
  2  5  1  0  0  0  0
  1  2  1  0  0  0  0
 29 30  2  0  0  0  0
 29 31  1  0  0  0  0
 26 27  1  0  0  0  0
 26 28  2  0  0  0  0
 24 25  1  0  0  0  0
 24 26  1  0  0  0  0
 22 23  1  0  0  0  0
 22 24  2  0  0  0  0
 20 21  1  0  0  0  0
 20 22  1  0  0  0  0
 19 20  2  0  0  0  0
 19 28  1  0  0  0  0
 17 18  1  0  0  0  0
 17 19  1  0  0  0  0
 15 16  1  0  0  0  0
 15 17  1  0  0  0  0
 14 15  2  0  0  0  0
 14 28  1  0  0  0  0
 11 12  1  0  0  0  0
 11 13  1  0  0  0  0
 11 14  1  0  0  0  0
  9 10  1  0  0  0  0
  9 11  1  0  0  0  0
  9 29  1  0  0  0  0
  7  8  1  0  0  0  0
  7  9  1  0  0  0  0
 33 34  1  0  0  0  0
 33 35  1  0  0  0  0
 33 36  1  0  0  0  0
 31 32  1  0  0  0  0
 31 33  1  0  0  0  0
M  END
$$$$
default_name
  -OEChem-02102213163D

 36 37  0     1  0  0  0  0  0999 V2000
   -4.0843   -4.0736    1.2944 H   0  0  0  0  0  0  0  0  0  0  0  0
   -4.0342   -3.2816    0.5484 C   0  0  0  0  0  0  0  0  0  0  0  0
   -4.8842   -2.6126    0.6694 H   0  0  0  0  0  0  0  0  0  0  0  0
   -4.0433   -3.7186   -0.4486 H   0  0  0  0  0  0  0  0  0  0  0  0
   -2.7532   -2.5046    0.7444 C   0  0  0  0  0  0  0  0  0  0  0  0
   -1.9803   -2.8096    1.6434 O   0  0  0  0  0  0  0  0  0  0  0  0
   -2.5332   -1.4966   -0.0966 N   0  0  0  0  0  0  0  0  0  0  0  0
   -3.2312   -1.2816   -0.7936 H   0  0  0  0  0  0  0  0  0  0  0  0
   -1.3593   -0.6196   -0.0536 C   0  0  1  0  0  0  0  0  0  0  0  0
   -0.4622   -1.2317   -0.1545 H   0  0  0  0  0  0  0  0  0  0  0  0
   -1.4074    0.3593   -1.2373 C   0  0  0  0  0  0  0  0  0  0  0  0
   -0.3857    0.5930   -1.5421 H   0  0  0  0  0  0  0  0  0  0  0  0
   -1.8977   -0.1354   -2.0774 H   0  0  0  0  0  0  0  0  0  0  0  0
   -2.1172    1.6512   -0.9669 C   0  0  0  0  0  0  0  0  0  0  0  0
   -3.1416    1.8196   -0.1009 C   0  0  0  0  0  0  0  0  0  0  0  0
   -3.5858    1.0269    0.4912 H   0  0  0  0  0  0  0  0  0  0  0  0
   -3.5141    3.1492   -0.0753 N   0  0  0  0  0  0  0  0  0  0  0  0
   -4.2635    3.5068    0.4989 H   0  0  0  0  0  0  0  0  0  0  0  0
   -2.7321    3.9117   -0.9166 C   0  0  0  0  0  0  0  0  0  0  0  0
   -2.6978    5.2819   -1.2132 C   0  0  0  0  0  0  0  0  0  0  0  0
   -3.3905    5.9619   -0.7395 H   0  0  0  0  0  0  0  0  0  0  0  0
   -1.7510    5.7572   -2.1365 C   0  0  0  0  0  0  0  0  0  0  0  0
   -1.7104    6.8106   -2.3783 H   0  0  0  0  0  0  0  0  0  0  0  0
   -0.8594    4.8591   -2.7513 C   0  0  0  0  0  0  0  0  0  0  0  0
   -0.1381    5.2279   -3.4674 H   0  0  0  0  0  0  0  0  0  0  0  0
   -0.9042    3.4837   -2.4472 C   0  0  0  0  0  0  0  0  0  0  0  0
   -0.2225    2.8028   -2.9367 H   0  0  0  0  0  0  0  0  0  0  0  0
   -1.8394    2.9758   -1.5196 C   0  0  0  0  0  0  0  0  0  0  0  0
   -1.2663    0.1182    1.2910 C   0  0  0  0  0  0  0  0  0  0  0  0
   -0.1906    0.1931    1.8833 O   0  0  0  0  0  0  0  0  0  0  0  0
   -2.3930    0.6605    1.7722 N   0  0  0  0  0  0  0  0  0  0  0  0
   -3.2451    0.5077    1.2518 H   0  0  0  0  0  0  0  0  0  0  0  0
   -2.4787    1.3954    3.0311 C   0  0  0  0  0  0  0  0  0  0  0  0
   -1.7166    2.1767    3.0539 H   0  0  0  0  0  0  0  0  0  0  0  0
   -3.4649    1.8498    3.1344 H   0  0  0  0  0  0  0  0  0  0  0  0
   -2.3058    0.7133    3.8652 H   0  0  0  0  0  0  0  0  0  0  0  0
  5  6  2  0  0  0  0
  5  7  1  0  0  0  0
  2  3  1  0  0  0  0
  2  4  1  0  0  0  0
  2  5  1  0  0  0  0
  1  2  1  0  0  0  0
 29 30  2  0  0  0  0
 29 31  1  0  0  0  0
 26 27  1  0  0  0  0
 26 28  2  0  0  0  0
 24 25  1  0  0  0  0
 24 26  1  0  0  0  0
 22 23  1  0  0  0  0
 22 24  2  0  0  0  0
 20 21  1  0  0  0  0
 20 22  1  0  0  0  0
 19 20  2  0  0  0  0
 19 28  1  0  0  0  0
 17 18  1  0  0  0  0
 17 19  1  0  0  0  0
 15 16  1  0  0  0  0
 15 17  1  0  0  0  0
 14 15  2  0  0  0  0
 14 28  1  0  0  0  0
 11 12  1  0  0  0  0
 11 13  1  0  0  0  0
 11 14  1  0  0  0  0
  9 10  1  0  0  0  0
  9 11  1  0  0  0  0
  9 29  1  0  0  0  0
  7  8  1  0  0  0  0
  7  9  1  0  0  0  0
 33 34  1  0  0  0  0
 33 35  1  0  0  0  0
 33 36  1  0  0  0  0
 31 32  1  0  0  0  0
 31 33  1  0  0  0  0
M  END
$$$$
default_name
  -OEChem-02102213163D

 36 37  0     1  0  0  0  0  0999 V2000
   -4.0843   -4.0736    1.2944 H   0  0  0  0  0  0  0  0  0  0  0  0
   -4.0342   -3.2816    0.5484 C   0  0  0  0  0  0  0  0  0  0  0  0
   -4.8842   -2.6126    0.6694 H   0  0  0  0  0  0  0  0  0  0  0  0
   -4.0433   -3.7186   -0.4486 H   0  0  0  0  0  0  0  0  0  0  0  0
   -2.7532   -2.5046    0.7444 C   0  0  0  0  0  0  0  0  0  0  0  0
   -1.9803   -2.8096    1.6434 O   0  0  0  0  0  0  0  0  0  0  0  0
   -2.5332   -1.4966   -0.0966 N   0  0  0  0  0  0  0  0  0  0  0  0
   -3.2312   -1.2816   -0.7936 H   0  0  0  0  0  0  0  0  0  0  0  0
   -1.3593   -0.6196   -0.0536 C   0  0  1  0  0  0  0  0  0  0  0  0
   -0.4622   -1.2317   -0.1545 H   0  0  0  0  0  0  0  0  0  0  0  0
   -1.4074    0.3593   -1.2373 C   0  0  0  0  0  0  0  0  0  0  0  0
   -0.3857    0.5930   -1.5421 H   0  0  0  0  0  0  0  0  0  0  0  0
   -1.8977   -0.1354   -2.0774 H   0  0  0  0  0  0  0  0  0  0  0  0
   -2.1172    1.6512   -0.9669 C   0  0  0  0  0  0  0  0  0  0  0  0
   -2.9340    1.8952    0.0824 C   0  0  0  0  0  0  0  0  0  0  0  0
   -3.1881    1.1707    0.8483 H   0  0  0  0  0  0  0  0  0  0  0  0
   -3.3717    3.2043    0.0354 N   0  0  0  0  0  0  0  0  0  0  0  0
   -3.9965    3.6076    0.7181 H   0  0  0  0  0  0  0  0  0  0  0  0
   -2.8418    3.8782   -1.0444 C   0  0  0  0  0  0  0  0  0  0  0  0
   -2.9568    5.1995   -1.4996 C   0  0  0  0  0  0  0  0  0  0  0  0
   -3.5681    5.9115   -0.9648 H   0  0  0  0  0  0  0  0  0  0  0  0
   -2.2671    5.5837   -2.6623 C   0  0  0  0  0  0  0  0  0  0  0  0
   -2.3447    6.5983   -3.0289 H   0  0  0  0  0  0  0  0  0  0  0  0
   -1.4801    4.6441   -3.3530 C   0  0  0  0  0  0  0  0  0  0  0  0
   -0.9578    4.9417   -4.2518 H   0  0  0  0  0  0  0  0  0  0  0  0
   -1.3733    3.3181   -2.8875 C   0  0  0  0  0  0  0  0  0  0  0  0
   -0.7761    2.6030   -3.4351 H   0  0  0  0  0  0  0  0  0  0  0  0
   -2.0487    2.9026   -1.7195 C   0  0  0  0  0  0  0  0  0  0  0  0
   -1.2663    0.1182    1.2910 C   0  0  0  0  0  0  0  0  0  0  0  0
   -0.1906    0.1931    1.8833 O   0  0  0  0  0  0  0  0  0  0  0  0
   -2.3930    0.6605    1.7722 N   0  0  0  0  0  0  0  0  0  0  0  0
   -3.2451    0.5077    1.2518 H   0  0  0  0  0  0  0  0  0  0  0  0
   -2.4787    1.3954    3.0311 C   0  0  0  0  0  0  0  0  0  0  0  0
   -1.7166    2.1767    3.0539 H   0  0  0  0  0  0  0  0  0  0  0  0
   -3.4649    1.8498    3.1344 H   0  0  0  0  0  0  0  0  0  0  0  0
   -2.3058    0.7133    3.8652 H   0  0  0  0  0  0  0  0  0  0  0  0
  5  6  2  0  0  0  0
  5  7  1  0  0  0  0
  2  3  1  0  0  0  0
  2  4  1  0  0  0  0
  2  5  1  0  0  0  0
  1  2  1  0  0  0  0
 29 30  2  0  0  0  0
 29 31  1  0  0  0  0
 26 27  1  0  0  0  0
 26 28  2  0  0  0  0
 24 25  1  0  0  0  0
 24 26  1  0  0  0  0
 22 23  1  0  0  0  0
 22 24  2  0  0  0  0
 20 21  1  0  0  0  0
 20 22  1  0  0  0  0
 19 20  2  0  0  0  0
 19 28  1  0  0  0  0
 17 18  1  0  0  0  0
 17 19  1  0  0  0  0
 15 16  1  0  0  0  0
 15 17  1  0  0  0  0
 14 15  2  0  0  0  0
 14 28  1  0  0  0  0
 11 12  1  0  0  0  0
 11 13  1  0  0  0  0
 11 14  1  0  0  0  0
  9 10  1  0  0  0  0
  9 11  1  0  0  0  0
  9 29  1  0  0  0  0
  7  8  1  0  0  0  0
  7  9  1  0  0  0  0
 33 34  1  0  0  0  0
 33 35  1  0  0  0  0
 33 36  1  0  0  0  0
 31 32  1  0  0  0  0
 31 33  1  0  0  0  0
M  END
$$$$
default_name
  -OEChem-02102213163D

 36 37  0     1  0  0  0  0  0999 V2000
   -4.0843   -4.0736    1.2944 H   0  0  0  0  0  0  0  0  0  0  0  0
   -4.0342   -3.2816    0.5484 C   0  0  0  0  0  0  0  0  0  0  0  0
   -4.8842   -2.6126    0.6694 H   0  0  0  0  0  0  0  0  0  0  0  0
   -4.0433   -3.7186   -0.4486 H   0  0  0  0  0  0  0  0  0  0  0  0
   -2.7532   -2.5046    0.7444 C   0  0  0  0  0  0  0  0  0  0  0  0
   -1.9803   -2.8096    1.6434 O   0  0  0  0  0  0  0  0  0  0  0  0
   -2.5332   -1.4966   -0.0966 N   0  0  0  0  0  0  0  0  0  0  0  0
   -3.2312   -1.2816   -0.7936 H   0  0  0  0  0  0  0  0  0  0  0  0
   -1.3593   -0.6196   -0.0536 C   0  0  1  0  0  0  0  0  0  0  0  0
   -0.4622   -1.2317   -0.1545 H   0  0  0  0  0  0  0  0  0  0  0  0
   -1.4074    0.3593   -1.2373 C   0  0  0  0  0  0  0  0  0  0  0  0
   -0.3857    0.5930   -1.5421 H   0  0  0  0  0  0  0  0  0  0  0  0
   -1.8977   -0.1354   -2.0774 H   0  0  0  0  0  0  0  0  0  0  0  0
   -2.1172    1.6512   -0.9669 C   0  0  0  0  0  0  0  0  0  0  0  0
   -2.6962    2.0005    0.2038 C   0  0  0  0  0  0  0  0  0  0  0  0
   -2.7310    1.3719    1.0869 H   0  0  0  0  0  0  0  0  0  0  0  0
   -3.2120    3.2778    0.1037 N   0  0  0  0  0  0  0  0  0  0  0  0
   -3.6944    3.7444    0.8579 H   0  0  0  0  0  0  0  0  0  0  0  0
   -2.9747    3.8250   -1.1393 C   0  0  0  0  0  0  0  0  0  0  0  0
   -3.2670    5.0728   -1.7084 C   0  0  0  0  0  0  0  0  0  0  0  0
   -3.7875    5.8269   -1.1366 H   0  0  0  0  0  0  0  0  0  0  0  0
   -2.8748    5.3275   -3.0337 C   0  0  0  0  0  0  0  0  0  0  0  0
   -3.0926    6.2838   -3.4897 H   0  0  0  0  0  0  0  0  0  0  0  0
   -2.2038    4.3336   -3.7694 C   0  0  0  0  0  0  0  0  0  0  0  0
   -1.9112    4.5309   -4.7915 H   0  0  0  0  0  0  0  0  0  0  0  0
   -1.9170    3.0823   -3.1878 C   0  0  0  0  0  0  0  0  0  0  0  0
   -1.4128    2.3230   -3.7685 H   0  0  0  0  0  0  0  0  0  0  0  0
   -2.2921    2.7977   -1.8569 C   0  0  0  0  0  0  0  0  0  0  0  0
   -1.2663    0.1182    1.2910 C   0  0  0  0  0  0  0  0  0  0  0  0
   -0.1906    0.1931    1.8833 O   0  0  0  0  0  0  0  0  0  0  0  0
   -2.3930    0.6605    1.7722 N   0  0  0  0  0  0  0  0  0  0  0  0
   -3.2451    0.5077    1.2518 H   0  0  0  0  0  0  0  0  0  0  0  0
   -2.4787    1.3954    3.0311 C   0  0  0  0  0  0  0  0  0  0  0  0
   -1.7166    2.1767    3.0539 H   0  0  0  0  0  0  0  0  0  0  0  0
   -3.4649    1.8498    3.1344 H   0  0  0  0  0  0  0  0  0  0  0  0
   -2.3058    0.7133    3.8652 H   0  0  0  0  0  0  0  0  0  0  0  0
  5  6  2  0  0  0  0
  5  7  1  0  0  0  0
  2  3  1  0  0  0  0
  2  4  1  0  0  0  0
  2  5  1  0  0  0  0
  1  2  1  0  0  0  0
 29 30  2  0  0  0  0
 29 31  1  0  0  0  0
 26 27  1  0  0  0  0
 26 28  2  0  0  0  0
 24 25  1  0  0  0  0
 24 26  1  0  0  0  0
 22 23  1  0  0  0  0
 22 24  2  0  0  0  0
 20 21  1  0  0  0  0
 20 22  1  0  0  0  0
 19 20  2  0  0  0  0
 19 28  1  0  0  0  0
 17 18  1  0  0  0  0
 17 19  1  0  0  0  0
 15 16  1  0  0  0  0
 15 17  1  0  0  0  0
 14 15  2  0  0  0  0
 14 28  1  0  0  0  0
 11 12  1  0  0  0  0
 11 13  1  0  0  0  0
 11 14  1  0  0  0  0
  9 10  1  0  0  0  0
  9 11  1  0  0  0  0
  9 29  1  0  0  0  0
  7  8  1  0  0  0  0
  7  9  1  0  0  0  0
 33 34  1  0  0  0  0
 33 35  1  0  0  0  0
 33 36  1  0  0  0  0
 31 32  1  0  0  0  0
 31 33  1  0  0  0  0
M  END
$$$$
default_name
  -OEChem-02102213163D

 36 37  0     1  0  0  0  0  0999 V2000
   -4.0843   -4.0736    1.2944 H   0  0  0  0  0  0  0  0  0  0  0  0
   -4.0342   -3.2816    0.5484 C   0  0  0  0  0  0  0  0  0  0  0  0
   -4.8842   -2.6126    0.6694 H   0  0  0  0  0  0  0  0  0  0  0  0
   -4.0433   -3.7186   -0.4486 H   0  0  0  0  0  0  0  0  0  0  0  0
   -2.7532   -2.5046    0.7444 C   0  0  0  0  0  0  0  0  0  0  0  0
   -1.9803   -2.8096    1.6434 O   0  0  0  0  0  0  0  0  0  0  0  0
   -2.5332   -1.4966   -0.0966 N   0  0  0  0  0  0  0  0  0  0  0  0
   -3.2312   -1.2816   -0.7936 H   0  0  0  0  0  0  0  0  0  0  0  0
   -1.3593   -0.6196   -0.0536 C   0  0  1  0  0  0  0  0  0  0  0  0
   -0.4622   -1.2317   -0.1545 H   0  0  0  0  0  0  0  0  0  0  0  0
   -1.4074    0.3593   -1.2373 C   0  0  0  0  0  0  0  0  0  0  0  0
   -0.3857    0.5930   -1.5421 H   0  0  0  0  0  0  0  0  0  0  0  0
   -1.8977   -0.1354   -2.0774 H   0  0  0  0  0  0  0  0  0  0  0  0
   -2.1172    1.6512   -0.9669 C   0  0  0  0  0  0  0  0  0  0  0  0
   -2.4443    2.1282    0.2551 C   0  0  0  0  0  0  0  0  0  0  0  0
   -2.2456    1.6169    1.1907 H   0  0  0  0  0  0  0  0  0  0  0  0
   -3.0459    3.3646    0.1251 N   0  0  0  0  0  0  0  0  0  0  0  0
   -3.3778    3.9077    0.9087 H   0  0  0  0  0  0  0  0  0  0  0  0
   -3.1218    3.7558   -1.1947 C   0  0  0  0  0  0  0  0  0  0  0  0
   -3.6073    4.9103   -1.8254 C   0  0  0  0  0  0  0  0  0  0  0  0
   -4.0339    5.7139   -1.2432 H   0  0  0  0  0  0  0  0  0  0  0  0
   -3.5328    5.0062   -3.2255 C   0  0  0  0  0  0  0  0  0  0  0  0
   -3.9032    5.8886   -3.7294 H   0  0  0  0  0  0  0  0  0  0  0  0
   -2.9812    3.9489   -3.9721 C   0  0  0  0  0  0  0  0  0  0  0  0
   -2.9334    4.0233   -5.0497 H   0  0  0  0  0  0  0  0  0  0  0  0
   -2.4981    2.7923   -3.3277 C   0  0  0  0  0  0  0  0  0  0  0  0
   -2.0890    1.9819   -3.9141 H   0  0  0  0  0  0  0  0  0  0  0  0
   -2.5530    2.6681   -1.9225 C   0  0  0  0  0  0  0  0  0  0  0  0
   -1.2663    0.1182    1.2910 C   0  0  0  0  0  0  0  0  0  0  0  0
   -0.1906    0.1931    1.8833 O   0  0  0  0  0  0  0  0  0  0  0  0
   -2.3930    0.6605    1.7722 N   0  0  0  0  0  0  0  0  0  0  0  0
   -3.2451    0.5077    1.2518 H   0  0  0  0  0  0  0  0  0  0  0  0
   -2.4787    1.3954    3.0311 C   0  0  0  0  0  0  0  0  0  0  0  0
   -1.7166    2.1767    3.0539 H   0  0  0  0  0  0  0  0  0  0  0  0
   -3.4649    1.8498    3.1344 H   0  0  0  0  0  0  0  0  0  0  0  0
   -2.3058    0.7133    3.8652 H   0  0  0  0  0  0  0  0  0  0  0  0
  5  6  2  0  0  0  0
  5  7  1  0  0  0  0
  2  3  1  0  0  0  0
  2  4  1  0  0  0  0
  2  5  1  0  0  0  0
  1  2  1  0  0  0  0
 29 30  2  0  0  0  0
 29 31  1  0  0  0  0
 26 27  1  0  0  0  0
 26 28  2  0  0  0  0
 24 25  1  0  0  0  0
 24 26  1  0  0  0  0
 22 23  1  0  0  0  0
 22 24  2  0  0  0  0
 20 21  1  0  0  0  0
 20 22  1  0  0  0  0
 19 20  2  0  0  0  0
 19 28  1  0  0  0  0
 17 18  1  0  0  0  0
 17 19  1  0  0  0  0
 15 16  1  0  0  0  0
 15 17  1  0  0  0  0
 14 15  2  0  0  0  0
 14 28  1  0  0  0  0
 11 12  1  0  0  0  0
 11 13  1  0  0  0  0
 11 14  1  0  0  0  0
  9 10  1  0  0  0  0
  9 11  1  0  0  0  0
  9 29  1  0  0  0  0
  7  8  1  0  0  0  0
  7  9  1  0  0  0  0
 33 34  1  0  0  0  0
 33 35  1  0  0  0  0
 33 36  1  0  0  0  0
 31 32  1  0  0  0  0
 31 33  1  0  0  0  0
M  END
$$$$
default_name
  -OEChem-02102213163D

 36 37  0     1  0  0  0  0  0999 V2000
   -4.0843   -4.0736    1.2944 H   0  0  0  0  0  0  0  0  0  0  0  0
   -4.0342   -3.2816    0.5484 C   0  0  0  0  0  0  0  0  0  0  0  0
   -4.8842   -2.6126    0.6694 H   0  0  0  0  0  0  0  0  0  0  0  0
   -4.0433   -3.7186   -0.4486 H   0  0  0  0  0  0  0  0  0  0  0  0
   -2.7532   -2.5046    0.7444 C   0  0  0  0  0  0  0  0  0  0  0  0
   -1.9803   -2.8096    1.6434 O   0  0  0  0  0  0  0  0  0  0  0  0
   -2.5332   -1.4966   -0.0966 N   0  0  0  0  0  0  0  0  0  0  0  0
   -3.2312   -1.2816   -0.7936 H   0  0  0  0  0  0  0  0  0  0  0  0
   -1.3593   -0.6196   -0.0536 C   0  0  1  0  0  0  0  0  0  0  0  0
   -0.4622   -1.2317   -0.1545 H   0  0  0  0  0  0  0  0  0  0  0  0
   -1.4074    0.3593   -1.2373 C   0  0  0  0  0  0  0  0  0  0  0  0
   -0.3857    0.5930   -1.5421 H   0  0  0  0  0  0  0  0  0  0  0  0
   -1.8977   -0.1354   -2.0774 H   0  0  0  0  0  0  0  0  0  0  0  0
   -2.1172    1.6512   -0.9669 C   0  0  0  0  0  0  0  0  0  0  0  0
   -2.1955    2.2695    0.2328 C   0  0  0  0  0  0  0  0  0  0  0  0
   -1.7651    1.8889    1.1526 H   0  0  0  0  0  0  0  0  0  0  0  0
   -2.8848    3.4587    0.0981 N   0  0  0  0  0  0  0  0  0  0  0  0
   -3.0682    4.0864    0.8672 H   0  0  0  0  0  0  0  0  0  0  0  0
   -3.2730    3.6753   -1.2070 C   0  0  0  0  0  0  0  0  0  0  0  0
   -3.9546    4.7231   -1.8425 C   0  0  0  0  0  0  0  0  0  0  0  0
   -4.2903    5.5801   -1.2774 H   0  0  0  0  0  0  0  0  0  0  0  0
   -4.1961    4.6415   -3.2246 C   0  0  0  0  0  0  0  0  0  0  0  0
   -4.7212    5.4397   -3.7316 H   0  0  0  0  0  0  0  0  0  0  0  0
   -3.7594    3.5161   -3.9472 C   0  0  0  0  0  0  0  0  0  0  0  0
   -3.9546    3.4536   -5.0088 H   0  0  0  0  0  0  0  0  0  0  0  0
   -3.0770    2.4679   -3.2976 C   0  0  0  0  0  0  0  0  0  0  0  0
   -2.7588    1.6030   -3.8621 H   0  0  0  0  0  0  0  0  0  0  0  0
   -2.8135    2.5227   -1.9118 C   0  0  0  0  0  0  0  0  0  0  0  0
   -1.2663    0.1182    1.2910 C   0  0  0  0  0  0  0  0  0  0  0  0
   -0.1906    0.1931    1.8833 O   0  0  0  0  0  0  0  0  0  0  0  0
   -2.3930    0.6605    1.7722 N   0  0  0  0  0  0  0  0  0  0  0  0
   -3.2451    0.5077    1.2518 H   0  0  0  0  0  0  0  0  0  0  0  0
   -2.4787    1.3954    3.0311 C   0  0  0  0  0  0  0  0  0  0  0  0
   -1.7166    2.1767    3.0539 H   0  0  0  0  0  0  0  0  0  0  0  0
   -3.4649    1.8498    3.1344 H   0  0  0  0  0  0  0  0  0  0  0  0
   -2.3058    0.7133    3.8652 H   0  0  0  0  0  0  0  0  0  0  0  0
  5  6  2  0  0  0  0
  5  7  1  0  0  0  0
  2  3  1  0  0  0  0
  2  4  1  0  0  0  0
  2  5  1  0  0  0  0
  1  2  1  0  0  0  0
 29 30  2  0  0  0  0
 29 31  1  0  0  0  0
 26 27  1  0  0  0  0
 26 28  2  0  0  0  0
 24 25  1  0  0  0  0
 24 26  1  0  0  0  0
 22 23  1  0  0  0  0
 22 24  2  0  0  0  0
 20 21  1  0  0  0  0
 20 22  1  0  0  0  0
 19 20  2  0  0  0  0
 19 28  1  0  0  0  0
 17 18  1  0  0  0  0
 17 19  1  0  0  0  0
 15 16  1  0  0  0  0
 15 17  1  0  0  0  0
 14 15  2  0  0  0  0
 14 28  1  0  0  0  0
 11 12  1  0  0  0  0
 11 13  1  0  0  0  0
 11 14  1  0  0  0  0
  9 10  1  0  0  0  0
  9 11  1  0  0  0  0
  9 29  1  0  0  0  0
  7  8  1  0  0  0  0
  7  9  1  0  0  0  0
 33 34  1  0  0  0  0
 33 35  1  0  0  0  0
 33 36  1  0  0  0  0
 31 32  1  0  0  0  0
 31 33  1  0  0  0  0
M  END
$$$$
default_name
  -OEChem-02102213163D

 36 37  0     1  0  0  0  0  0999 V2000
   -4.0843   -4.0736    1.2944 H   0  0  0  0  0  0  0  0  0  0  0  0
   -4.0342   -3.2816    0.5484 C   0  0  0  0  0  0  0  0  0  0  0  0
   -4.8842   -2.6126    0.6694 H   0  0  0  0  0  0  0  0  0  0  0  0
   -4.0433   -3.7186   -0.4486 H   0  0  0  0  0  0  0  0  0  0  0  0
   -2.7532   -2.5046    0.7444 C   0  0  0  0  0  0  0  0  0  0  0  0
   -1.9803   -2.8096    1.6434 O   0  0  0  0  0  0  0  0  0  0  0  0
   -2.5332   -1.4966   -0.0966 N   0  0  0  0  0  0  0  0  0  0  0  0
   -3.2312   -1.2816   -0.7936 H   0  0  0  0  0  0  0  0  0  0  0  0
   -1.3593   -0.6196   -0.0536 C   0  0  1  0  0  0  0  0  0  0  0  0
   -0.4622   -1.2317   -0.1545 H   0  0  0  0  0  0  0  0  0  0  0  0
   -1.4074    0.3593   -1.2373 C   0  0  0  0  0  0  0  0  0  0  0  0
   -0.3857    0.5930   -1.5421 H   0  0  0  0  0  0  0  0  0  0  0  0
   -1.8977   -0.1354   -2.0774 H   0  0  0  0  0  0  0  0  0  0  0  0
   -2.1172    1.6512   -0.9669 C   0  0  0  0  0  0  0  0  0  0  0  0
   -1.9667    2.4150    0.1385 C   0  0  0  0  0  0  0  0  0  0  0  0
   -1.3221    2.1694    0.9753 H   0  0  0  0  0  0  0  0  0  0  0  0
   -2.7395    3.5539    0.0245 N   0  0  0  0  0  0  0  0  0  0  0  0
   -2.7869    4.2685    0.7361 H   0  0  0  0  0  0  0  0  0  0  0  0
   -3.4180    3.5890   -1.1752 C   0  0  0  0  0  0  0  0  0  0  0  0
   -4.2850    4.5240   -1.7587 C   0  0  0  0  0  0  0  0  0  0  0  0
   -4.5394    5.4347   -1.2367 H   0  0  0  0  0  0  0  0  0  0  0  0
   -4.8195    4.2584   -3.0310 C   0  0  0  0  0  0  0  0  0  0  0  0
   -5.4908    4.9676   -3.4962 H   0  0  0  0  0  0  0  0  0  0  0  0
   -4.4853    3.0648   -3.6965 C   0  0  0  0  0  0  0  0  0  0  0  0
   -4.9054    2.8607   -4.6716 H   0  0  0  0  0  0  0  0  0  0  0  0
   -3.6144    2.1312   -3.0996 C   0  0  0  0  0  0  0  0  0  0  0  0
   -3.3764    1.2121   -3.6160 H   0  0  0  0  0  0  0  0  0  0  0  0
   -3.0560    2.3713   -1.8254 C   0  0  0  0  0  0  0  0  0  0  0  0
   -1.2663    0.1182    1.2910 C   0  0  0  0  0  0  0  0  0  0  0  0
   -0.1906    0.1931    1.8833 O   0  0  0  0  0  0  0  0  0  0  0  0
   -2.3930    0.6605    1.7722 N   0  0  0  0  0  0  0  0  0  0  0  0
   -3.2451    0.5077    1.2518 H   0  0  0  0  0  0  0  0  0  0  0  0
   -2.4787    1.3954    3.0311 C   0  0  0  0  0  0  0  0  0  0  0  0
   -1.7166    2.1767    3.0539 H   0  0  0  0  0  0  0  0  0  0  0  0
   -3.4649    1.8498    3.1344 H   0  0  0  0  0  0  0  0  0  0  0  0
   -2.3058    0.7133    3.8652 H   0  0  0  0  0  0  0  0  0  0  0  0
  5  6  2  0  0  0  0
  5  7  1  0  0  0  0
  2  3  1  0  0  0  0
  2  4  1  0  0  0  0
  2  5  1  0  0  0  0
  1  2  1  0  0  0  0
 29 30  2  0  0  0  0
 29 31  1  0  0  0  0
 26 27  1  0  0  0  0
 26 28  2  0  0  0  0
 24 25  1  0  0  0  0
 24 26  1  0  0  0  0
 22 23  1  0  0  0  0
 22 24  2  0  0  0  0
 20 21  1  0  0  0  0
 20 22  1  0  0  0  0
 19 20  2  0  0  0  0
 19 28  1  0  0  0  0
 17 18  1  0  0  0  0
 17 19  1  0  0  0  0
 15 16  1  0  0  0  0
 15 17  1  0  0  0  0
 14 15  2  0  0  0  0
 14 28  1  0  0  0  0
 11 12  1  0  0  0  0
 11 13  1  0  0  0  0
 11 14  1  0  0  0  0
  9 10  1  0  0  0  0
  9 11  1  0  0  0  0
  9 29  1  0  0  0  0
  7  8  1  0  0  0  0
  7  9  1  0  0  0  0
 33 34  1  0  0  0  0
 33 35  1  0  0  0  0
 33 36  1  0  0  0  0
 31 32  1  0  0  0  0
 31 33  1  0  0  0  0
M  END
$$$$
default_name
  -OEChem-02102213163D

 36 37  0     1  0  0  0  0  0999 V2000
   -4.0843   -4.0736    1.2944 H   0  0  0  0  0  0  0  0  0  0  0  0
   -4.0342   -3.2816    0.5484 C   0  0  0  0  0  0  0  0  0  0  0  0
   -4.8842   -2.6126    0.6694 H   0  0  0  0  0  0  0  0  0  0  0  0
   -4.0433   -3.7186   -0.4486 H   0  0  0  0  0  0  0  0  0  0  0  0
   -2.7532   -2.5046    0.7444 C   0  0  0  0  0  0  0  0  0  0  0  0
   -1.9803   -2.8096    1.6434 O   0  0  0  0  0  0  0  0  0  0  0  0
   -2.5332   -1.4966   -0.0966 N   0  0  0  0  0  0  0  0  0  0  0  0
   -3.2312   -1.2816   -0.7936 H   0  0  0  0  0  0  0  0  0  0  0  0
   -1.3593   -0.6196   -0.0536 C   0  0  1  0  0  0  0  0  0  0  0  0
   -0.4622   -1.2317   -0.1545 H   0  0  0  0  0  0  0  0  0  0  0  0
   -1.4074    0.3593   -1.2373 C   0  0  0  0  0  0  0  0  0  0  0  0
   -0.3857    0.5930   -1.5421 H   0  0  0  0  0  0  0  0  0  0  0  0
   -1.8977   -0.1354   -2.0774 H   0  0  0  0  0  0  0  0  0  0  0  0
   -2.1172    1.6512   -0.9669 C   0  0  0  0  0  0  0  0  0  0  0  0
   -1.7736    2.5546   -0.0216 C   0  0  0  0  0  0  0  0  0  0  0  0
   -0.9468    2.4393    0.6708 H   0  0  0  0  0  0  0  0  0  0  0  0
   -2.6201    3.6437   -0.0907 N   0  0  0  0  0  0  0  0  0  0  0  0
   -2.5529    4.4414    0.5243 H   0  0  0  0  0  0  0  0  0  0  0  0
   -3.5470    3.5027   -1.1016 C   0  0  0  0  0  0  0  0  0  0  0  0
   -4.5762    4.3265   -1.5795 C   0  0  0  0  0  0  0  0  0  0  0  0
   -4.7642    5.2877   -1.1241 H   0  0  0  0  0  0  0  0  0  0  0  0
   -5.3607    3.8830   -2.6579 C   0  0  0  0  0  0  0  0  0  0  0  0
   -6.1596    4.5044   -3.0393 H   0  0  0  0  0  0  0  0  0  0  0  0
   -5.1094    2.6257   -3.2370 C   0  0  0  0  0  0  0  0  0  0  0  0
   -5.7208    2.2849   -4.0612 H   0  0  0  0  0  0  0  0  0  0  0  0
   -4.0735    1.8052   -2.7472 C   0  0  0  0  0  0  0  0  0  0  0  0
   -3.8999    0.8359   -3.1926 H   0  0  0  0  0  0  0  0  0  0  0  0
   -3.2639    2.2245   -1.6694 C   0  0  0  0  0  0  0  0  0  0  0  0
   -1.2663    0.1182    1.2910 C   0  0  0  0  0  0  0  0  0  0  0  0
   -0.1906    0.1931    1.8833 O   0  0  0  0  0  0  0  0  0  0  0  0
   -2.3930    0.6605    1.7722 N   0  0  0  0  0  0  0  0  0  0  0  0
   -3.2451    0.5077    1.2518 H   0  0  0  0  0  0  0  0  0  0  0  0
   -2.4787    1.3954    3.0311 C   0  0  0  0  0  0  0  0  0  0  0  0
   -1.7166    2.1767    3.0539 H   0  0  0  0  0  0  0  0  0  0  0  0
   -3.4649    1.8498    3.1344 H   0  0  0  0  0  0  0  0  0  0  0  0
   -2.3058    0.7133    3.8652 H   0  0  0  0  0  0  0  0  0  0  0  0
  5  6  2  0  0  0  0
  5  7  1  0  0  0  0
  2  3  1  0  0  0  0
  2  4  1  0  0  0  0
  2  5  1  0  0  0  0
  1  2  1  0  0  0  0
 29 30  2  0  0  0  0
 29 31  1  0  0  0  0
 26 27  1  0  0  0  0
 26 28  2  0  0  0  0
 24 25  1  0  0  0  0
 24 26  1  0  0  0  0
 22 23  1  0  0  0  0
 22 24  2  0  0  0  0
 20 21  1  0  0  0  0
 20 22  1  0  0  0  0
 19 20  2  0  0  0  0
 19 28  1  0  0  0  0
 17 18  1  0  0  0  0
 17 19  1  0  0  0  0
 15 16  1  0  0  0  0
 15 17  1  0  0  0  0
 14 15  2  0  0  0  0
 14 28  1  0  0  0  0
 11 12  1  0  0  0  0
 11 13  1  0  0  0  0
 11 14  1  0  0  0  0
  9 10  1  0  0  0  0
  9 11  1  0  0  0  0
  9 29  1  0  0  0  0
  7  8  1  0  0  0  0
  7  9  1  0  0  0  0
 33 34  1  0  0  0  0
 33 35  1  0  0  0  0
 33 36  1  0  0  0  0
 31 32  1  0  0  0  0
 31 33  1  0  0  0  0
M  END
$$$$
default_name
  -OEChem-02102213163D

 36 37  0     1  0  0  0  0  0999 V2000
   -4.0843   -4.0736    1.2944 H   0  0  0  0  0  0  0  0  0  0  0  0
   -4.0342   -3.2816    0.5484 C   0  0  0  0  0  0  0  0  0  0  0  0
   -4.8842   -2.6126    0.6694 H   0  0  0  0  0  0  0  0  0  0  0  0
   -4.0433   -3.7186   -0.4486 H   0  0  0  0  0  0  0  0  0  0  0  0
   -2.7532   -2.5046    0.7444 C   0  0  0  0  0  0  0  0  0  0  0  0
   -1.9803   -2.8096    1.6434 O   0  0  0  0  0  0  0  0  0  0  0  0
   -2.5332   -1.4966   -0.0966 N   0  0  0  0  0  0  0  0  0  0  0  0
   -3.2312   -1.2816   -0.7936 H   0  0  0  0  0  0  0  0  0  0  0  0
   -1.3593   -0.6196   -0.0536 C   0  0  1  0  0  0  0  0  0  0  0  0
   -0.4622   -1.2317   -0.1545 H   0  0  0  0  0  0  0  0  0  0  0  0
   -1.4074    0.3593   -1.2373 C   0  0  0  0  0  0  0  0  0  0  0  0
   -0.3857    0.5930   -1.5421 H   0  0  0  0  0  0  0  0  0  0  0  0
   -1.8977   -0.1354   -2.0774 H   0  0  0  0  0  0  0  0  0  0  0  0
   -2.1172    1.6512   -0.9669 C   0  0  0  0  0  0  0  0  0  0  0  0
   -1.6293    2.6788   -0.2363 C   0  0  0  0  0  0  0  0  0  0  0  0
   -0.6649    2.6802    0.2598 H   0  0  0  0  0  0  0  0  0  0  0  0
   -2.5347    3.7218   -0.2396 N   0  0  0  0  0  0  0  0  0  0  0  0
   -2.3821    4.5934    0.2464 H   0  0  0  0  0  0  0  0  0  0  0  0
   -3.6511    3.4224   -0.9911 C   0  0  0  0  0  0  0  0  0  0  0  0
   -4.8083    4.1441   -1.3173 C   0  0  0  0  0  0  0  0  0  0  0  0
   -4.9493    5.1489   -0.9471 H   0  0  0  0  0  0  0  0  0  0  0  0
   -5.7826    3.5408   -2.1308 C   0  0  0  0  0  0  0  0  0  0  0  0
   -6.6821    4.0818   -2.3919 H   0  0  0  0  0  0  0  0  0  0  0  0
   -5.5893    2.2287   -2.6002 C   0  0  0  0  0  0  0  0  0  0  0  0
   -6.3453    1.7654   -3.2190 H   0  0  0  0  0  0  0  0  0  0  0  0
   -4.4232    1.5120   -2.2644 C   0  0  0  0  0  0  0  0  0  0  0  0
   -4.2934    0.4999   -2.6206 H   0  0  0  0  0  0  0  0  0  0  0  0
   -3.4230    2.0920   -1.4543 C   0  0  0  0  0  0  0  0  0  0  0  0
   -1.2663    0.1182    1.2910 C   0  0  0  0  0  0  0  0  0  0  0  0
   -0.1906    0.1931    1.8833 O   0  0  0  0  0  0  0  0  0  0  0  0
   -2.3930    0.6605    1.7722 N   0  0  0  0  0  0  0  0  0  0  0  0
   -3.2451    0.5077    1.2518 H   0  0  0  0  0  0  0  0  0  0  0  0
   -2.4787    1.3954    3.0311 C   0  0  0  0  0  0  0  0  0  0  0  0
   -1.7166    2.1767    3.0539 H   0  0  0  0  0  0  0  0  0  0  0  0
   -3.4649    1.8498    3.1344 H   0  0  0  0  0  0  0  0  0  0  0  0
   -2.3058    0.7133    3.8652 H   0  0  0  0  0  0  0  0  0  0  0  0
  5  6  2  0  0  0  0
  5  7  1  0  0  0  0
  2  3  1  0  0  0  0
  2  4  1  0  0  0  0
  2  5  1  0  0  0  0
  1  2  1  0  0  0  0
 29 30  2  0  0  0  0
 29 31  1  0  0  0  0
 26 27  1  0  0  0  0
 26 28  2  0  0  0  0
 24 25  1  0  0  0  0
 24 26  1  0  0  0  0
 22 23  1  0  0  0  0
 22 24  2  0  0  0  0
 20 21  1  0  0  0  0
 20 22  1  0  0  0  0
 19 20  2  0  0  0  0
 19 28  1  0  0  0  0
 17 18  1  0  0  0  0
 17 19  1  0  0  0  0
 15 16  1  0  0  0  0
 15 17  1  0  0  0  0
 14 15  2  0  0  0  0
 14 28  1  0  0  0  0
 11 12  1  0  0  0  0
 11 13  1  0  0  0  0
 11 14  1  0  0  0  0
  9 10  1  0  0  0  0
  9 11  1  0  0  0  0
  9 29  1  0  0  0  0
  7  8  1  0  0  0  0
  7  9  1  0  0  0  0
 33 34  1  0  0  0  0
 33 35  1  0  0  0  0
 33 36  1  0  0  0  0
 31 32  1  0  0  0  0
 31 33  1  0  0  0  0
M  END
$$$$
default_name
  -OEChem-02102213163D

 36 37  0     1  0  0  0  0  0999 V2000
   -4.0843   -4.0736    1.2944 H   0  0  0  0  0  0  0  0  0  0  0  0
   -4.0342   -3.2816    0.5484 C   0  0  0  0  0  0  0  0  0  0  0  0
   -4.8842   -2.6126    0.6694 H   0  0  0  0  0  0  0  0  0  0  0  0
   -4.0433   -3.7186   -0.4486 H   0  0  0  0  0  0  0  0  0  0  0  0
   -2.7532   -2.5046    0.7444 C   0  0  0  0  0  0  0  0  0  0  0  0
   -1.9803   -2.8096    1.6434 O   0  0  0  0  0  0  0  0  0  0  0  0
   -2.5332   -1.4966   -0.0966 N   0  0  0  0  0  0  0  0  0  0  0  0
   -3.2312   -1.2816   -0.7936 H   0  0  0  0  0  0  0  0  0  0  0  0
   -1.3593   -0.6196   -0.0536 C   0  0  1  0  0  0  0  0  0  0  0  0
   -0.4622   -1.2317   -0.1545 H   0  0  0  0  0  0  0  0  0  0  0  0
   -1.4074    0.3593   -1.2373 C   0  0  0  0  0  0  0  0  0  0  0  0
   -0.3857    0.5930   -1.5421 H   0  0  0  0  0  0  0  0  0  0  0  0
   -1.8977   -0.1354   -2.0774 H   0  0  0  0  0  0  0  0  0  0  0  0
   -2.1172    1.6512   -0.9669 C   0  0  0  0  0  0  0  0  0  0  0  0
   -1.5436    2.7793   -0.4912 C   0  0  0  0  0  0  0  0  0  0  0  0
   -0.4956    2.8757   -0.2295 H   0  0  0  0  0  0  0  0  0  0  0  0
   -2.4890    3.7830   -0.4120 N   0  0  0  0  0  0  0  0  0  0  0  0
   -2.2863    4.7141   -0.0788 H   0  0  0  0  0  0  0  0  0  0  0  0
   -3.7233    3.3535   -0.8513 C   0  0  0  0  0  0  0  0  0  0  0  0
   -4.9655    3.9892   -0.9898 C   0  0  0  0  0  0  0  0  0  0  0  0
   -5.0821    5.0280   -0.7179 H   0  0  0  0  0  0  0  0  0  0  0  0
   -6.0566    3.2552   -1.4856 C   0  0  0  0  0  0  0  0  0  0  0  0
   -7.0226    3.7286   -1.5983 H   0  0  0  0  0  0  0  0  0  0  0  0
   -5.8922    1.9009   -1.8293 C   0  0  0  0  0  0  0  0  0  0  0  0
   -6.7364    1.3377   -2.2025 H   0  0  0  0  0  0  0  0  0  0  0  0
   -4.6395    1.2717   -1.6841 C   0  0  0  0  0  0  0  0  0  0  0  0
   -4.5303    0.2271   -1.9392 H   0  0  0  0  0  0  0  0  0  0  0  0
   -3.5226    1.9830   -1.1948 C   0  0  0  0  0  0  0  0  0  0  0  0
   -1.2663    0.1182    1.2910 C   0  0  0  0  0  0  0  0  0  0  0  0
   -0.1906    0.1931    1.8833 O   0  0  0  0  0  0  0  0  0  0  0  0
   -2.3930    0.6605    1.7722 N   0  0  0  0  0  0  0  0  0  0  0  0
   -3.2451    0.5077    1.2518 H   0  0  0  0  0  0  0  0  0  0  0  0
   -2.4787    1.3954    3.0311 C   0  0  0  0  0  0  0  0  0  0  0  0
   -1.7166    2.1767    3.0539 H   0  0  0  0  0  0  0  0  0  0  0  0
   -3.4649    1.8498    3.1344 H   0  0  0  0  0  0  0  0  0  0  0  0
   -2.3058    0.7133    3.8652 H   0  0  0  0  0  0  0  0  0  0  0  0
  5  6  2  0  0  0  0
  5  7  1  0  0  0  0
  2  3  1  0  0  0  0
  2  4  1  0  0  0  0
  2  5  1  0  0  0  0
  1  2  1  0  0  0  0
 29 30  2  0  0  0  0
 29 31  1  0  0  0  0
 26 27  1  0  0  0  0
 26 28  2  0  0  0  0
 24 25  1  0  0  0  0
 24 26  1  0  0  0  0
 22 23  1  0  0  0  0
 22 24  2  0  0  0  0
 20 21  1  0  0  0  0
 20 22  1  0  0  0  0
 19 20  2  0  0  0  0
 19 28  1  0  0  0  0
 17 18  1  0  0  0  0
 17 19  1  0  0  0  0
 15 16  1  0  0  0  0
 15 17  1  0  0  0  0
 14 15  2  0  0  0  0
 14 28  1  0  0  0  0
 11 12  1  0  0  0  0
 11 13  1  0  0  0  0
 11 14  1  0  0  0  0
  9 10  1  0  0  0  0
  9 11  1  0  0  0  0
  9 29  1  0  0  0  0
  7  8  1  0  0  0  0
  7  9  1  0  0  0  0
 33 34  1  0  0  0  0
 33 35  1  0  0  0  0
 33 36  1  0  0  0  0
 31 32  1  0  0  0  0
 31 33  1  0  0  0  0
M  END
$$$$
default_name
  -OEChem-02102213163D

 36 37  0     1  0  0  0  0  0999 V2000
   -4.0843   -4.0736    1.2944 H   0  0  0  0  0  0  0  0  0  0  0  0
   -4.0342   -3.2816    0.5484 C   0  0  0  0  0  0  0  0  0  0  0  0
   -4.8842   -2.6126    0.6694 H   0  0  0  0  0  0  0  0  0  0  0  0
   -4.0433   -3.7186   -0.4486 H   0  0  0  0  0  0  0  0  0  0  0  0
   -2.7532   -2.5046    0.7444 C   0  0  0  0  0  0  0  0  0  0  0  0
   -1.9803   -2.8096    1.6434 O   0  0  0  0  0  0  0  0  0  0  0  0
   -2.5332   -1.4966   -0.0966 N   0  0  0  0  0  0  0  0  0  0  0  0
   -3.2312   -1.2816   -0.7936 H   0  0  0  0  0  0  0  0  0  0  0  0
   -1.3593   -0.6196   -0.0536 C   0  0  1  0  0  0  0  0  0  0  0  0
   -0.4622   -1.2317   -0.1545 H   0  0  0  0  0  0  0  0  0  0  0  0
   -1.4074    0.3593   -1.2373 C   0  0  0  0  0  0  0  0  0  0  0  0
   -0.3857    0.5930   -1.5421 H   0  0  0  0  0  0  0  0  0  0  0  0
   -1.8977   -0.1354   -2.0774 H   0  0  0  0  0  0  0  0  0  0  0  0
   -2.1172    1.6512   -0.9669 C   0  0  0  0  0  0  0  0  0  0  0  0
   -1.5224    2.8490   -0.7688 C   0  0  0  0  0  0  0  0  0  0  0  0
   -0.4503    3.0125   -0.7640 H   0  0  0  0  0  0  0  0  0  0  0  0
   -2.4863    3.8231   -0.5963 N   0  0  0  0  0  0  0  0  0  0  0  0
   -2.2720    4.7953   -0.4291 H   0  0  0  0  0  0  0  0  0  0  0  0
   -3.7586    3.3007   -0.6918 C   0  0  0  0  0  0  0  0  0  0  0  0
   -5.0370    3.8724   -0.6195 C   0  0  0  0  0  0  0  0  0  0  0  0
   -5.1536    4.9330   -0.4520 H   0  0  0  0  0  0  0  0  0  0  0  0
   -6.1639    3.0457   -0.7662 C   0  0  0  0  0  0  0  0  0  0  0  0
   -7.1579    3.4688   -0.7124 H   0  0  0  0  0  0  0  0  0  0  0  0
   -5.9975    1.6646   -0.9769 C   0  0  0  0  0  0  0  0  0  0  0  0
   -6.8674    1.0310   -1.0809 H   0  0  0  0  0  0  0  0  0  0  0  0
   -4.7078    1.1005   -1.0458 C   0  0  0  0  0  0  0  0  0  0  0  0
   -4.5943    0.0361   -1.1947 H   0  0  0  0  0  0  0  0  0  0  0  0
   -3.5557    1.9048   -0.9085 C   0  0  0  0  0  0  0  0  0  0  0  0
   -1.2663    0.1182    1.2910 C   0  0  0  0  0  0  0  0  0  0  0  0
   -0.1906    0.1931    1.8833 O   0  0  0  0  0  0  0  0  0  0  0  0
   -2.3930    0.6605    1.7722 N   0  0  0  0  0  0  0  0  0  0  0  0
   -3.2451    0.5077    1.2518 H   0  0  0  0  0  0  0  0  0  0  0  0
   -2.4787    1.3954    3.0311 C   0  0  0  0  0  0  0  0  0  0  0  0
   -1.7166    2.1767    3.0539 H   0  0  0  0  0  0  0  0  0  0  0  0
   -3.4649    1.8498    3.1344 H   0  0  0  0  0  0  0  0  0  0  0  0
   -2.3058    0.7133    3.8652 H   0  0  0  0  0  0  0  0  0  0  0  0
  5  6  2  0  0  0  0
  5  7  1  0  0  0  0
  2  3  1  0  0  0  0
  2  4  1  0  0  0  0
  2  5  1  0  0  0  0
  1  2  1  0  0  0  0
 29 30  2  0  0  0  0
 29 31  1  0  0  0  0
 26 27  1  0  0  0  0
 26 28  2  0  0  0  0
 24 25  1  0  0  0  0
 24 26  1  0  0  0  0
 22 23  1  0  0  0  0
 22 24  2  0  0  0  0
 20 21  1  0  0  0  0
 20 22  1  0  0  0  0
 19 20  2  0  0  0  0
 19 28  1  0  0  0  0
 17 18  1  0  0  0  0
 17 19  1  0  0  0  0
 15 16  1  0  0  0  0
 15 17  1  0  0  0  0
 14 15  2  0  0  0  0
 14 28  1  0  0  0  0
 11 12  1  0  0  0  0
 11 13  1  0  0  0  0
 11 14  1  0  0  0  0
  9 10  1  0  0  0  0
  9 11  1  0  0  0  0
  9 29  1  0  0  0  0
  7  8  1  0  0  0  0
  7  9  1  0  0  0  0
 33 34  1  0  0  0  0
 33 35  1  0  0  0  0
 33 36  1  0  0  0  0
 31 32  1  0  0  0  0
 31 33  1  0  0  0  0
M  END
$$$$
default_name
  -OEChem-02102213163D

 36 37  0     1  0  0  0  0  0999 V2000
   -4.0843   -4.0736    1.2944 H   0  0  0  0  0  0  0  0  0  0  0  0
   -4.0342   -3.2816    0.5484 C   0  0  0  0  0  0  0  0  0  0  0  0
   -4.8842   -2.6126    0.6694 H   0  0  0  0  0  0  0  0  0  0  0  0
   -4.0433   -3.7186   -0.4486 H   0  0  0  0  0  0  0  0  0  0  0  0
   -2.7532   -2.5046    0.7444 C   0  0  0  0  0  0  0  0  0  0  0  0
   -1.9803   -2.8096    1.6434 O   0  0  0  0  0  0  0  0  0  0  0  0
   -2.5332   -1.4966   -0.0966 N   0  0  0  0  0  0  0  0  0  0  0  0
   -3.2312   -1.2816   -0.7936 H   0  0  0  0  0  0  0  0  0  0  0  0
   -1.3593   -0.6196   -0.0536 C   0  0  1  0  0  0  0  0  0  0  0  0
   -0.4622   -1.2317   -0.1545 H   0  0  0  0  0  0  0  0  0  0  0  0
   -1.4074    0.3593   -1.2373 C   0  0  0  0  0  0  0  0  0  0  0  0
   -0.3857    0.5930   -1.5421 H   0  0  0  0  0  0  0  0  0  0  0  0
   -1.8977   -0.1354   -2.0774 H   0  0  0  0  0  0  0  0  0  0  0  0
   -2.1172    1.6512   -0.9669 C   0  0  0  0  0  0  0  0  0  0  0  0
   -1.5671    2.8834   -1.0503 C   0  0  0  0  0  0  0  0  0  0  0  0
   -0.5322    3.0812   -1.3071 H   0  0  0  0  0  0  0  0  0  0  0  0
   -2.5266    3.8393   -0.7798 N   0  0  0  0  0  0  0  0  0  0  0  0
   -2.3400    4.8315   -0.7806 H   0  0  0  0  0  0  0  0  0  0  0  0
   -3.7546    3.2676   -0.5233 C   0  0  0  0  0  0  0  0  0  0  0  0
   -5.0179    3.8016   -0.2315 C   0  0  0  0  0  0  0  0  0  0  0  0
   -5.1589    4.8705   -0.1676 H   0  0  0  0  0  0  0  0  0  0  0  0
   -6.0973    2.9264   -0.0217 C   0  0  0  0  0  0  0  0  0  0  0  0
   -7.0788    3.3201    0.2054 H   0  0  0  0  0  0  0  0  0  0  0  0
   -5.8979    1.5360   -0.1011 C   0  0  0  0  0  0  0  0  0  0  0  0
   -6.7294    0.8660    0.0692 H   0  0  0  0  0  0  0  0  0  0  0  0
   -4.6233    1.0103   -0.3931 C   0  0  0  0  0  0  0  0  0  0  0  0
   -4.4811   -0.0601   -0.4379 H   0  0  0  0  0  0  0  0  0  0  0  0
   -3.5202    1.8629   -0.6150 C   0  0  0  0  0  0  0  0  0  0  0  0
   -1.2663    0.1182    1.2910 C   0  0  0  0  0  0  0  0  0  0  0  0
   -0.1906    0.1931    1.8833 O   0  0  0  0  0  0  0  0  0  0  0  0
   -2.3930    0.6605    1.7722 N   0  0  0  0  0  0  0  0  0  0  0  0
   -3.2451    0.5077    1.2518 H   0  0  0  0  0  0  0  0  0  0  0  0
   -2.4787    1.3954    3.0311 C   0  0  0  0  0  0  0  0  0  0  0  0
   -1.7166    2.1767    3.0539 H   0  0  0  0  0  0  0  0  0  0  0  0
   -3.4649    1.8498    3.1344 H   0  0  0  0  0  0  0  0  0  0  0  0
   -2.3058    0.7133    3.8652 H   0  0  0  0  0  0  0  0  0  0  0  0
  5  6  2  0  0  0  0
  5  7  1  0  0  0  0
  2  3  1  0  0  0  0
  2  4  1  0  0  0  0
  2  5  1  0  0  0  0
  1  2  1  0  0  0  0
 29 30  2  0  0  0  0
 29 31  1  0  0  0  0
 26 27  1  0  0  0  0
 26 28  2  0  0  0  0
 24 25  1  0  0  0  0
 24 26  1  0  0  0  0
 22 23  1  0  0  0  0
 22 24  2  0  0  0  0
 20 21  1  0  0  0  0
 20 22  1  0  0  0  0
 19 20  2  0  0  0  0
 19 28  1  0  0  0  0
 17 18  1  0  0  0  0
 17 19  1  0  0  0  0
 15 16  1  0  0  0  0
 15 17  1  0  0  0  0
 14 15  2  0  0  0  0
 14 28  1  0  0  0  0
 11 12  1  0  0  0  0
 11 13  1  0  0  0  0
 11 14  1  0  0  0  0
  9 10  1  0  0  0  0
  9 11  1  0  0  0  0
  9 29  1  0  0  0  0
  7  8  1  0  0  0  0
  7  9  1  0  0  0  0
 33 34  1  0  0  0  0
 33 35  1  0  0  0  0
 33 36  1  0  0  0  0
 31 32  1  0  0  0  0
 31 33  1  0  0  0  0
M  END
$$$$
default_name
  -OEChem-02102213163D

 36 37  0     1  0  0  0  0  0999 V2000
   -4.0843   -4.0736    1.2944 H   0  0  0  0  0  0  0  0  0  0  0  0
   -4.0342   -3.2816    0.5484 C   0  0  0  0  0  0  0  0  0  0  0  0
   -4.8842   -2.6126    0.6694 H   0  0  0  0  0  0  0  0  0  0  0  0
   -4.0433   -3.7186   -0.4486 H   0  0  0  0  0  0  0  0  0  0  0  0
   -2.7532   -2.5046    0.7444 C   0  0  0  0  0  0  0  0  0  0  0  0
   -1.9803   -2.8096    1.6434 O   0  0  0  0  0  0  0  0  0  0  0  0
   -2.5332   -1.4966   -0.0966 N   0  0  0  0  0  0  0  0  0  0  0  0
   -3.2312   -1.2816   -0.7936 H   0  0  0  0  0  0  0  0  0  0  0  0
   -1.3593   -0.6196   -0.0536 C   0  0  1  0  0  0  0  0  0  0  0  0
   -0.4622   -1.2317   -0.1545 H   0  0  0  0  0  0  0  0  0  0  0  0
   -1.4074    0.3593   -1.2373 C   0  0  0  0  0  0  0  0  0  0  0  0
   -0.3857    0.5930   -1.5421 H   0  0  0  0  0  0  0  0  0  0  0  0
   -1.8977   -0.1354   -2.0774 H   0  0  0  0  0  0  0  0  0  0  0  0
   -2.1172    1.6512   -0.9669 C   0  0  0  0  0  0  0  0  0  0  0  0
   -1.6747    2.8800   -1.3164 C   0  0  0  0  0  0  0  0  0  0  0  0
   -0.7357    3.0771   -1.8218 H   0  0  0  0  0  0  0  0  0  0  0  0
   -2.6072    3.8307   -0.9501 N   0  0  0  0  0  0  0  0  0  0  0  0
   -2.4859    4.8202   -1.1093 H   0  0  0  0  0  0  0  0  0  0  0  0
   -3.7116    3.2565   -0.3574 C   0  0  0  0  0  0  0  0  0  0  0  0
   -4.9097    3.7817    0.1477 C   0  0  0  0  0  0  0  0  0  0  0  0
   -5.0977    4.8448    0.1160 H   0  0  0  0  0  0  0  0  0  0  0  0
   -5.8613    2.9056    0.6971 C   0  0  0  0  0  0  0  0  0  0  0  0
   -6.7907    3.2927    1.0925 H   0  0  0  0  0  0  0  0  0  0  0  0
   -5.6004    1.5237    0.7384 C   0  0  0  0  0  0  0  0  0  0  0  0
   -6.3317    0.8542    1.1696 H   0  0  0  0  0  0  0  0  0  0  0  0
   -4.3919    1.0071    0.2296 C   0  0  0  0  0  0  0  0  0  0  0  0
   -4.1984   -0.0550    0.2797 H   0  0  0  0  0  0  0  0  0  0  0  0
   -3.4185    1.8600   -0.3343 C   0  0  0  0  0  0  0  0  0  0  0  0
   -1.2663    0.1182    1.2910 C   0  0  0  0  0  0  0  0  0  0  0  0
   -0.1906    0.1931    1.8833 O   0  0  0  0  0  0  0  0  0  0  0  0
   -2.3930    0.6605    1.7722 N   0  0  0  0  0  0  0  0  0  0  0  0
   -3.2451    0.5077    1.2518 H   0  0  0  0  0  0  0  0  0  0  0  0
   -2.4787    1.3954    3.0311 C   0  0  0  0  0  0  0  0  0  0  0  0
   -1.7166    2.1767    3.0539 H   0  0  0  0  0  0  0  0  0  0  0  0
   -3.4649    1.8498    3.1344 H   0  0  0  0  0  0  0  0  0  0  0  0
   -2.3058    0.7133    3.8652 H   0  0  0  0  0  0  0  0  0  0  0  0
  5  6  2  0  0  0  0
  5  7  1  0  0  0  0
  2  3  1  0  0  0  0
  2  4  1  0  0  0  0
  2  5  1  0  0  0  0
  1  2  1  0  0  0  0
 29 30  2  0  0  0  0
 29 31  1  0  0  0  0
 26 27  1  0  0  0  0
 26 28  2  0  0  0  0
 24 25  1  0  0  0  0
 24 26  1  0  0  0  0
 22 23  1  0  0  0  0
 22 24  2  0  0  0  0
 20 21  1  0  0  0  0
 20 22  1  0  0  0  0
 19 20  2  0  0  0  0
 19 28  1  0  0  0  0
 17 18  1  0  0  0  0
 17 19  1  0  0  0  0
 15 16  1  0  0  0  0
 15 17  1  0  0  0  0
 14 15  2  0  0  0  0
 14 28  1  0  0  0  0
 11 12  1  0  0  0  0
 11 13  1  0  0  0  0
 11 14  1  0  0  0  0
  9 10  1  0  0  0  0
  9 11  1  0  0  0  0
  9 29  1  0  0  0  0
  7  8  1  0  0  0  0
  7  9  1  0  0  0  0
 33 34  1  0  0  0  0
 33 35  1  0  0  0  0
 33 36  1  0  0  0  0
 31 32  1  0  0  0  0
 31 33  1  0  0  0  0
M  END
$$$$
default_name
  -OEChem-02102213163D

 36 37  0     1  0  0  0  0  0999 V2000
   -4.0843   -4.0736    1.2944 H   0  0  0  0  0  0  0  0  0  0  0  0
   -4.0342   -3.2816    0.5484 C   0  0  0  0  0  0  0  0  0  0  0  0
   -4.8842   -2.6126    0.6694 H   0  0  0  0  0  0  0  0  0  0  0  0
   -4.0433   -3.7186   -0.4486 H   0  0  0  0  0  0  0  0  0  0  0  0
   -2.7532   -2.5046    0.7444 C   0  0  0  0  0  0  0  0  0  0  0  0
   -1.9803   -2.8096    1.6434 O   0  0  0  0  0  0  0  0  0  0  0  0
   -2.5332   -1.4966   -0.0966 N   0  0  0  0  0  0  0  0  0  0  0  0
   -3.2312   -1.2816   -0.7936 H   0  0  0  0  0  0  0  0  0  0  0  0
   -1.3593   -0.6196   -0.0536 C   0  0  1  0  0  0  0  0  0  0  0  0
   -0.4622   -1.2317   -0.1545 H   0  0  0  0  0  0  0  0  0  0  0  0
   -1.4074    0.3593   -1.2373 C   0  0  0  0  0  0  0  0  0  0  0  0
   -0.3857    0.5930   -1.5421 H   0  0  0  0  0  0  0  0  0  0  0  0
   -1.8977   -0.1354   -2.0774 H   0  0  0  0  0  0  0  0  0  0  0  0
   -2.1172    1.6512   -0.9669 C   0  0  0  0  0  0  0  0  0  0  0  0
   -1.8379    2.8390   -1.5490 C   0  0  0  0  0  0  0  0  0  0  0  0
   -1.0469    3.0006   -2.2731 H   0  0  0  0  0  0  0  0  0  0  0  0
   -2.7227    3.7977   -1.0955 N   0  0  0  0  0  0  0  0  0  0  0  0
   -2.6996    4.7621   -1.3930 H   0  0  0  0  0  0  0  0  0  0  0  0
   -3.6326    3.2681   -0.2054 C   0  0  0  0  0  0  0  0  0  0  0  0
   -4.7196    3.8140    0.4922 C   0  0  0  0  0  0  0  0  0  0  0  0
   -4.9741    4.8576    0.3794 H   0  0  0  0  0  0  0  0  0  0  0  0
   -5.4720    2.9846    1.3414 C   0  0  0  0  0  0  0  0  0  0  0  0
   -6.3132    3.3885    1.8884 H   0  0  0  0  0  0  0  0  0  0  0  0
   -5.1251    1.6287    1.4845 C   0  0  0  0  0  0  0  0  0  0  0  0
   -5.7016    0.9962    2.1453 H   0  0  0  0  0  0  0  0  0  0  0  0
   -4.0293    1.0912    0.7799 C   0  0  0  0  0  0  0  0  0  0  0  0
   -3.7655    0.0511    0.9091 H   0  0  0  0  0  0  0  0  0  0  0  0
   -3.2575    1.8964   -0.0855 C   0  0  0  0  0  0  0  0  0  0  0  0
   -1.2663    0.1182    1.2910 C   0  0  0  0  0  0  0  0  0  0  0  0
   -0.1906    0.1931    1.8833 O   0  0  0  0  0  0  0  0  0  0  0  0
   -2.3930    0.6605    1.7722 N   0  0  0  0  0  0  0  0  0  0  0  0
   -3.2451    0.5077    1.2518 H   0  0  0  0  0  0  0  0  0  0  0  0
   -2.4787    1.3954    3.0311 C   0  0  0  0  0  0  0  0  0  0  0  0
   -1.7166    2.1767    3.0539 H   0  0  0  0  0  0  0  0  0  0  0  0
   -3.4649    1.8498    3.1344 H   0  0  0  0  0  0  0  0  0  0  0  0
   -2.3058    0.7133    3.8652 H   0  0  0  0  0  0  0  0  0  0  0  0
  5  6  2  0  0  0  0
  5  7  1  0  0  0  0
  2  3  1  0  0  0  0
  2  4  1  0  0  0  0
  2  5  1  0  0  0  0
  1  2  1  0  0  0  0
 29 30  2  0  0  0  0
 29 31  1  0  0  0  0
 26 27  1  0  0  0  0
 26 28  2  0  0  0  0
 24 25  1  0  0  0  0
 24 26  1  0  0  0  0
 22 23  1  0  0  0  0
 22 24  2  0  0  0  0
 20 21  1  0  0  0  0
 20 22  1  0  0  0  0
 19 20  2  0  0  0  0
 19 28  1  0  0  0  0
 17 18  1  0  0  0  0
 17 19  1  0  0  0  0
 15 16  1  0  0  0  0
 15 17  1  0  0  0  0
 14 15  2  0  0  0  0
 14 28  1  0  0  0  0
 11 12  1  0  0  0  0
 11 13  1  0  0  0  0
 11 14  1  0  0  0  0
  9 10  1  0  0  0  0
  9 11  1  0  0  0  0
  9 29  1  0  0  0  0
  7  8  1  0  0  0  0
  7  9  1  0  0  0  0
 33 34  1  0  0  0  0
 33 35  1  0  0  0  0
 33 36  1  0  0  0  0
 31 32  1  0  0  0  0
 31 33  1  0  0  0  0
M  END
$$$$
default_name
  -OEChem-02102213163D

 36 37  0     1  0  0  0  0  0999 V2000
   -4.0843   -4.0736    1.2944 H   0  0  0  0  0  0  0  0  0  0  0  0
   -4.0342   -3.2816    0.5484 C   0  0  0  0  0  0  0  0  0  0  0  0
   -4.8842   -2.6126    0.6694 H   0  0  0  0  0  0  0  0  0  0  0  0
   -4.0433   -3.7186   -0.4486 H   0  0  0  0  0  0  0  0  0  0  0  0
   -2.7532   -2.5046    0.7444 C   0  0  0  0  0  0  0  0  0  0  0  0
   -1.9803   -2.8096    1.6434 O   0  0  0  0  0  0  0  0  0  0  0  0
   -2.5332   -1.4966   -0.0966 N   0  0  0  0  0  0  0  0  0  0  0  0
   -3.2312   -1.2816   -0.7936 H   0  0  0  0  0  0  0  0  0  0  0  0
   -1.3593   -0.6196   -0.0536 C   0  0  1  0  0  0  0  0  0  0  0  0
   -0.4622   -1.2317   -0.1545 H   0  0  0  0  0  0  0  0  0  0  0  0
   -1.4074    0.3593   -1.2373 C   0  0  0  0  0  0  0  0  0  0  0  0
   -0.3857    0.5930   -1.5421 H   0  0  0  0  0  0  0  0  0  0  0  0
   -1.8977   -0.1354   -2.0774 H   0  0  0  0  0  0  0  0  0  0  0  0
   -2.1172    1.6512   -0.9669 C   0  0  0  0  0  0  0  0  0  0  0  0
   -2.0454    2.7633   -1.7322 C   0  0  0  0  0  0  0  0  0  0  0  0
   -1.4446    2.8568   -2.6302 H   0  0  0  0  0  0  0  0  0  0  0  0
   -2.8651    3.7426   -1.2061 N   0  0  0  0  0  0  0  0  0  0  0  0
   -2.9666    4.6613   -1.6121 H   0  0  0  0  0  0  0  0  0  0  0  0
   -3.5229    3.3016   -0.0776 C   0  0  0  0  0  0  0  0  0  0  0  0
   -4.4607    3.8963    0.7787 C   0  0  0  0  0  0  0  0  0  0  0  0
   -4.7965    4.9080    0.6047 H   0  0  0  0  0  0  0  0  0  0  0  0
   -4.9559    3.1581    1.8672 C   0  0  0  0  0  0  0  0  0  0  0  0
   -5.6789    3.6008    2.5389 H   0  0  0  0  0  0  0  0  0  0  0  0
   -4.5045    1.8437    2.0862 C   0  0  0  0  0  0  0  0  0  0  0  0
   -4.8818    1.2823    2.9297 H   0  0  0  0  0  0  0  0  0  0  0  0
   -3.5601    1.2567    1.2201 C   0  0  0  0  0  0  0  0  0  0  0  0
   -3.2118    0.2510    1.4075 H   0  0  0  0  0  0  0  0  0  0  0  0
   -3.0481    1.9696    0.1144 C   0  0  0  0  0  0  0  0  0  0  0  0
   -1.2663    0.1182    1.2910 C   0  0  0  0  0  0  0  0  0  0  0  0
   -0.1906    0.1931    1.8833 O   0  0  0  0  0  0  0  0  0  0  0  0
   -2.3930    0.6605    1.7722 N   0  0  0  0  0  0  0  0  0  0  0  0
   -3.2451    0.5077    1.2518 H   0  0  0  0  0  0  0  0  0  0  0  0
   -2.4787    1.3954    3.0311 C   0  0  0  0  0  0  0  0  0  0  0  0
   -1.7166    2.1767    3.0539 H   0  0  0  0  0  0  0  0  0  0  0  0
   -3.4649    1.8498    3.1344 H   0  0  0  0  0  0  0  0  0  0  0  0
   -2.3058    0.7133    3.8652 H   0  0  0  0  0  0  0  0  0  0  0  0
  5  6  2  0  0  0  0
  5  7  1  0  0  0  0
  2  3  1  0  0  0  0
  2  4  1  0  0  0  0
  2  5  1  0  0  0  0
  1  2  1  0  0  0  0
 29 30  2  0  0  0  0
 29 31  1  0  0  0  0
 26 27  1  0  0  0  0
 26 28  2  0  0  0  0
 24 25  1  0  0  0  0
 24 26  1  0  0  0  0
 22 23  1  0  0  0  0
 22 24  2  0  0  0  0
 20 21  1  0  0  0  0
 20 22  1  0  0  0  0
 19 20  2  0  0  0  0
 19 28  1  0  0  0  0
 17 18  1  0  0  0  0
 17 19  1  0  0  0  0
 15 16  1  0  0  0  0
 15 17  1  0  0  0  0
 14 15  2  0  0  0  0
 14 28  1  0  0  0  0
 11 12  1  0  0  0  0
 11 13  1  0  0  0  0
 11 14  1  0  0  0  0
  9 10  1  0  0  0  0
  9 11  1  0  0  0  0
  9 29  1  0  0  0  0
  7  8  1  0  0  0  0
  7  9  1  0  0  0  0
 33 34  1  0  0  0  0
 33 35  1  0  0  0  0
 33 36  1  0  0  0  0
 31 32  1  0  0  0  0
 31 33  1  0  0  0  0
M  END
$$$$
default_name
  -OEChem-02102213163D

 36 37  0     1  0  0  0  0  0999 V2000
   -4.0843   -4.0736    1.2944 H   0  0  0  0  0  0  0  0  0  0  0  0
   -4.0342   -3.2816    0.5484 C   0  0  0  0  0  0  0  0  0  0  0  0
   -4.8842   -2.6126    0.6694 H   0  0  0  0  0  0  0  0  0  0  0  0
   -4.0433   -3.7186   -0.4486 H   0  0  0  0  0  0  0  0  0  0  0  0
   -2.7532   -2.5046    0.7444 C   0  0  0  0  0  0  0  0  0  0  0  0
   -1.9803   -2.8096    1.6434 O   0  0  0  0  0  0  0  0  0  0  0  0
   -2.5332   -1.4966   -0.0966 N   0  0  0  0  0  0  0  0  0  0  0  0
   -3.2312   -1.2816   -0.7936 H   0  0  0  0  0  0  0  0  0  0  0  0
   -1.3593   -0.6196   -0.0536 C   0  0  1  0  0  0  0  0  0  0  0  0
   -0.4622   -1.2317   -0.1545 H   0  0  0  0  0  0  0  0  0  0  0  0
   -1.4074    0.3593   -1.2373 C   0  0  0  0  0  0  0  0  0  0  0  0
   -0.4246    0.3865   -1.7113 H   0  0  0  0  0  0  0  0  0  0  0  0
   -2.1185   -0.0201   -1.9731 H   0  0  0  0  0  0  0  0  0  0  0  0
   -1.7916    1.7647   -0.8862 C   0  0  0  0  0  0  0  0  0  0  0  0
   -1.8989    2.7921   -1.7584 C   0  0  0  0  0  0  0  0  0  0  0  0
   -1.6991    2.7221   -2.8221 H   0  0  0  0  0  0  0  0  0  0  0  0
   -2.3184    3.9260   -1.0908 N   0  0  0  0  0  0  0  0  0  0  0  0
   -2.4632    4.8170   -1.5428 H   0  0  0  0  0  0  0  0  0  0  0  0
   -2.5195    3.6799    0.2508 C   0  0  0  0  0  0  0  0  0  0  0  0
   -2.9606    4.4784    1.3158 C   0  0  0  0  0  0  0  0  0  0  0  0
   -3.2150    5.5155    1.1536 H   0  0  0  0  0  0  0  0  0  0  0  0
   -3.0652    3.9107    2.5971 C   0  0  0  0  0  0  0  0  0  0  0  0
   -3.4026    4.5116    3.4308 H   0  0  0  0  0  0  0  0  0  0  0  0
   -2.7237    2.5604    2.7955 C   0  0  0  0  0  0  0  0  0  0  0  0
   -2.7977    2.1299    3.7846 H   0  0  0  0  0  0  0  0  0  0  0  0
   -2.2797    1.7677    1.7181 C   0  0  0  0  0  0  0  0  0  0  0  0
   -2.0079    0.7354    1.8869 H   0  0  0  0  0  0  0  0  0  0  0  0
   -2.1697    2.3065    0.4179 C   0  0  0  0  0  0  0  0  0  0  0  0
   -1.2663    0.1182    1.2910 C   0  0  0  0  0  0  0  0  0  0  0  0
   -0.1906    0.1931    1.8833 O   0  0  0  0  0  0  0  0  0  0  0  0
   -2.3930    0.6605    1.7722 N   0  0  0  0  0  0  0  0  0  0  0  0
   -3.2451    0.5077    1.2518 H   0  0  0  0  0  0  0  0  0  0  0  0
   -2.4787    1.3954    3.0311 C   0  0  0  0  0  0  0  0  0  0  0  0
   -1.7166    2.1767    3.0539 H   0  0  0  0  0  0  0  0  0  0  0  0
   -3.4649    1.8498    3.1344 H   0  0  0  0  0  0  0  0  0  0  0  0
   -2.3058    0.7133    3.8652 H   0  0  0  0  0  0  0  0  0  0  0  0
  5  6  2  0  0  0  0
  5  7  1  0  0  0  0
  2  3  1  0  0  0  0
  2  4  1  0  0  0  0
  2  5  1  0  0  0  0
  1  2  1  0  0  0  0
 29 30  2  0  0  0  0
 29 31  1  0  0  0  0
 26 27  1  0  0  0  0
 26 28  2  0  0  0  0
 24 25  1  0  0  0  0
 24 26  1  0  0  0  0
 22 23  1  0  0  0  0
 22 24  2  0  0  0  0
 20 21  1  0  0  0  0
 20 22  1  0  0  0  0
 19 20  2  0  0  0  0
 19 28  1  0  0  0  0
 17 18  1  0  0  0  0
 17 19  1  0  0  0  0
 15 16  1  0  0  0  0
 15 17  1  0  0  0  0
 14 15  2  0  0  0  0
 14 28  1  0  0  0  0
 11 12  1  0  0  0  0
 11 13  1  0  0  0  0
 11 14  1  0  0  0  0
  9 10  1  0  0  0  0
  9 11  1  0  0  0  0
  9 29  1  0  0  0  0
  7  8  1  0  0  0  0
  7  9  1  0  0  0  0
 33 34  1  0  0  0  0
 33 35  1  0  0  0  0
 33 36  1  0  0  0  0
 31 32  1  0  0  0  0
 31 33  1  0  0  0  0
M  END
$$$$
default_name
  -OEChem-02102213163D

 36 37  0     1  0  0  0  0  0999 V2000
   -4.0843   -4.0736    1.2944 H   0  0  0  0  0  0  0  0  0  0  0  0
   -4.0342   -3.2816    0.5484 C   0  0  0  0  0  0  0  0  0  0  0  0
   -4.8842   -2.6126    0.6694 H   0  0  0  0  0  0  0  0  0  0  0  0
   -4.0433   -3.7186   -0.4486 H   0  0  0  0  0  0  0  0  0  0  0  0
   -2.7532   -2.5046    0.7444 C   0  0  0  0  0  0  0  0  0  0  0  0
   -1.9803   -2.8096    1.6434 O   0  0  0  0  0  0  0  0  0  0  0  0
   -2.5332   -1.4966   -0.0966 N   0  0  0  0  0  0  0  0  0  0  0  0
   -3.2312   -1.2816   -0.7936 H   0  0  0  0  0  0  0  0  0  0  0  0
   -1.3593   -0.6196   -0.0536 C   0  0  1  0  0  0  0  0  0  0  0  0
   -0.4622   -1.2317   -0.1545 H   0  0  0  0  0  0  0  0  0  0  0  0
   -1.4074    0.3593   -1.2373 C   0  0  0  0  0  0  0  0  0  0  0  0
   -0.4246    0.3865   -1.7113 H   0  0  0  0  0  0  0  0  0  0  0  0
   -2.1185   -0.0201   -1.9731 H   0  0  0  0  0  0  0  0  0  0  0  0
   -1.7916    1.7647   -0.8862 C   0  0  0  0  0  0  0  0  0  0  0  0
   -2.1761    2.7178   -1.7646 C   0  0  0  0  0  0  0  0  0  0  0  0
   -2.2338    2.5801   -2.8387 H   0  0  0  0  0  0  0  0  0  0  0  0
   -2.4996    3.8744   -1.0825 N   0  0  0  0  0  0  0  0  0  0  0  0
   -2.8099    4.7207   -1.5369 H   0  0  0  0  0  0  0  0  0  0  0  0
   -2.3545    3.7178    0.2796 C   0  0  0  0  0  0  0  0  0  0  0  0
   -2.5802    4.5685    1.3712 C   0  0  0  0  0  0  0  0  0  0  0  0
   -2.9369    5.5760    1.2155 H   0  0  0  0  0  0  0  0  0  0  0  0
   -2.3340    4.0923    2.6703 C   0  0  0  0  0  0  0  0  0  0  0  0
   -2.5014    4.7346    3.5244 H   0  0  0  0  0  0  0  0  0  0  0  0
   -1.8628    2.7801    2.8582 C   0  0  0  0  0  0  0  0  0  0  0  0
   -1.6667    2.4205    3.8589 H   0  0  0  0  0  0  0  0  0  0  0  0
   -1.6376    1.9344    1.7535 C   0  0  0  0  0  0  0  0  0  0  0  0
   -1.2627    0.9331    1.9111 H   0  0  0  0  0  0  0  0  0  0  0  0
   -1.8811    2.3807    0.4365 C   0  0  0  0  0  0  0  0  0  0  0  0
   -1.2663    0.1182    1.2910 C   0  0  0  0  0  0  0  0  0  0  0  0
   -0.1906    0.1931    1.8833 O   0  0  0  0  0  0  0  0  0  0  0  0
   -2.3930    0.6605    1.7722 N   0  0  0  0  0  0  0  0  0  0  0  0
   -3.2451    0.5077    1.2518 H   0  0  0  0  0  0  0  0  0  0  0  0
   -2.4787    1.3954    3.0311 C   0  0  0  0  0  0  0  0  0  0  0  0
   -1.7166    2.1767    3.0539 H   0  0  0  0  0  0  0  0  0  0  0  0
   -3.4649    1.8498    3.1344 H   0  0  0  0  0  0  0  0  0  0  0  0
   -2.3058    0.7133    3.8652 H   0  0  0  0  0  0  0  0  0  0  0  0
  5  6  2  0  0  0  0
  5  7  1  0  0  0  0
  2  3  1  0  0  0  0
  2  4  1  0  0  0  0
  2  5  1  0  0  0  0
  1  2  1  0  0  0  0
 29 30  2  0  0  0  0
 29 31  1  0  0  0  0
 26 27  1  0  0  0  0
 26 28  2  0  0  0  0
 24 25  1  0  0  0  0
 24 26  1  0  0  0  0
 22 23  1  0  0  0  0
 22 24  2  0  0  0  0
 20 21  1  0  0  0  0
 20 22  1  0  0  0  0
 19 20  2  0  0  0  0
 19 28  1  0  0  0  0
 17 18  1  0  0  0  0
 17 19  1  0  0  0  0
 15 16  1  0  0  0  0
 15 17  1  0  0  0  0
 14 15  2  0  0  0  0
 14 28  1  0  0  0  0
 11 12  1  0  0  0  0
 11 13  1  0  0  0  0
 11 14  1  0  0  0  0
  9 10  1  0  0  0  0
  9 11  1  0  0  0  0
  9 29  1  0  0  0  0
  7  8  1  0  0  0  0
  7  9  1  0  0  0  0
 33 34  1  0  0  0  0
 33 35  1  0  0  0  0
 33 36  1  0  0  0  0
 31 32  1  0  0  0  0
 31 33  1  0  0  0  0
M  END
$$$$
default_name
  -OEChem-02102213163D

 36 37  0     1  0  0  0  0  0999 V2000
   -4.0843   -4.0736    1.2944 H   0  0  0  0  0  0  0  0  0  0  0  0
   -4.0342   -3.2816    0.5484 C   0  0  0  0  0  0  0  0  0  0  0  0
   -4.8842   -2.6126    0.6694 H   0  0  0  0  0  0  0  0  0  0  0  0
   -4.0433   -3.7186   -0.4486 H   0  0  0  0  0  0  0  0  0  0  0  0
   -2.7532   -2.5046    0.7444 C   0  0  0  0  0  0  0  0  0  0  0  0
   -1.9803   -2.8096    1.6434 O   0  0  0  0  0  0  0  0  0  0  0  0
   -2.5332   -1.4966   -0.0966 N   0  0  0  0  0  0  0  0  0  0  0  0
   -3.2312   -1.2816   -0.7936 H   0  0  0  0  0  0  0  0  0  0  0  0
   -1.3593   -0.6196   -0.0536 C   0  0  1  0  0  0  0  0  0  0  0  0
   -0.4622   -1.2317   -0.1545 H   0  0  0  0  0  0  0  0  0  0  0  0
   -1.4074    0.3593   -1.2373 C   0  0  0  0  0  0  0  0  0  0  0  0
   -0.4246    0.3865   -1.7113 H   0  0  0  0  0  0  0  0  0  0  0  0
   -2.1185   -0.0201   -1.9731 H   0  0  0  0  0  0  0  0  0  0  0  0
   -1.7916    1.7647   -0.8862 C   0  0  0  0  0  0  0  0  0  0  0  0
   -2.4408    2.6289   -1.6983 C   0  0  0  0  0  0  0  0  0  0  0  0
   -2.7457    2.4094   -2.7156 H   0  0  0  0  0  0  0  0  0  0  0  0
   -2.6694    3.8141   -1.0270 N   0  0  0  0  0  0  0  0  0  0  0  0
   -3.1375    4.6072   -1.4407 H   0  0  0  0  0  0  0  0  0  0  0  0
   -2.1904    3.7663    0.2649 C   0  0  0  0  0  0  0  0  0  0  0  0
   -2.2048    4.6823    1.3265 C   0  0  0  0  0  0  0  0  0  0  0  0
   -2.6569    5.6555    1.2038 H   0  0  0  0  0  0  0  0  0  0  0  0
   -1.6210    4.3169    2.5515 C   0  0  0  0  0  0  0  0  0  0  0  0
   -1.6217    5.0108    3.3813 H   0  0  0  0  0  0  0  0  0  0  0  0
   -1.0292    3.0486    2.6953 C   0  0  0  0  0  0  0  0  0  0  0  0
   -0.5738    2.7747    3.6370 H   0  0  0  0  0  0  0  0  0  0  0  0
   -1.0188    2.1367    1.6208 C   0  0  0  0  0  0  0  0  0  0  0  0
   -0.5491    1.1708    1.7406 H   0  0  0  0  0  0  0  0  0  0  0  0
   -1.6023    2.4712    0.3796 C   0  0  0  0  0  0  0  0  0  0  0  0
   -1.2663    0.1182    1.2910 C   0  0  0  0  0  0  0  0  0  0  0  0
   -0.1906    0.1931    1.8833 O   0  0  0  0  0  0  0  0  0  0  0  0
   -2.3930    0.6605    1.7722 N   0  0  0  0  0  0  0  0  0  0  0  0
   -3.2451    0.5077    1.2518 H   0  0  0  0  0  0  0  0  0  0  0  0
   -2.4787    1.3954    3.0311 C   0  0  0  0  0  0  0  0  0  0  0  0
   -1.7166    2.1767    3.0539 H   0  0  0  0  0  0  0  0  0  0  0  0
   -3.4649    1.8498    3.1344 H   0  0  0  0  0  0  0  0  0  0  0  0
   -2.3058    0.7133    3.8652 H   0  0  0  0  0  0  0  0  0  0  0  0
  5  6  2  0  0  0  0
  5  7  1  0  0  0  0
  2  3  1  0  0  0  0
  2  4  1  0  0  0  0
  2  5  1  0  0  0  0
  1  2  1  0  0  0  0
 29 30  2  0  0  0  0
 29 31  1  0  0  0  0
 26 27  1  0  0  0  0
 26 28  2  0  0  0  0
 24 25  1  0  0  0  0
 24 26  1  0  0  0  0
 22 23  1  0  0  0  0
 22 24  2  0  0  0  0
 20 21  1  0  0  0  0
 20 22  1  0  0  0  0
 19 20  2  0  0  0  0
 19 28  1  0  0  0  0
 17 18  1  0  0  0  0
 17 19  1  0  0  0  0
 15 16  1  0  0  0  0
 15 17  1  0  0  0  0
 14 15  2  0  0  0  0
 14 28  1  0  0  0  0
 11 12  1  0  0  0  0
 11 13  1  0  0  0  0
 11 14  1  0  0  0  0
  9 10  1  0  0  0  0
  9 11  1  0  0  0  0
  9 29  1  0  0  0  0
  7  8  1  0  0  0  0
  7  9  1  0  0  0  0
 33 34  1  0  0  0  0
 33 35  1  0  0  0  0
 33 36  1  0  0  0  0
 31 32  1  0  0  0  0
 31 33  1  0  0  0  0
M  END
$$$$
default_name
  -OEChem-02102213163D

 36 37  0     1  0  0  0  0  0999 V2000
   -4.0843   -4.0736    1.2944 H   0  0  0  0  0  0  0  0  0  0  0  0
   -4.0342   -3.2816    0.5484 C   0  0  0  0  0  0  0  0  0  0  0  0
   -4.8842   -2.6126    0.6694 H   0  0  0  0  0  0  0  0  0  0  0  0
   -4.0433   -3.7186   -0.4486 H   0  0  0  0  0  0  0  0  0  0  0  0
   -2.7532   -2.5046    0.7444 C   0  0  0  0  0  0  0  0  0  0  0  0
   -1.9803   -2.8096    1.6434 O   0  0  0  0  0  0  0  0  0  0  0  0
   -2.5332   -1.4966   -0.0966 N   0  0  0  0  0  0  0  0  0  0  0  0
   -3.2312   -1.2816   -0.7936 H   0  0  0  0  0  0  0  0  0  0  0  0
   -1.3593   -0.6196   -0.0536 C   0  0  1  0  0  0  0  0  0  0  0  0
   -0.4622   -1.2317   -0.1545 H   0  0  0  0  0  0  0  0  0  0  0  0
   -1.4074    0.3593   -1.2373 C   0  0  0  0  0  0  0  0  0  0  0  0
   -0.4246    0.3865   -1.7113 H   0  0  0  0  0  0  0  0  0  0  0  0
   -2.1185   -0.0201   -1.9731 H   0  0  0  0  0  0  0  0  0  0  0  0
   -1.7916    1.7647   -0.8862 C   0  0  0  0  0  0  0  0  0  0  0  0
   -2.6751    2.5313   -1.5641 C   0  0  0  0  0  0  0  0  0  0  0  0
   -3.2000    2.2216   -2.4611 H   0  0  0  0  0  0  0  0  0  0  0  0
   -2.8164    3.7492   -0.9283 N   0  0  0  0  0  0  0  0  0  0  0  0
   -3.4237    4.4840   -1.2608 H   0  0  0  0  0  0  0  0  0  0  0  0
   -2.0385    3.8222    0.2076 C   0  0  0  0  0  0  0  0  0  0  0  0
   -1.8599    4.8120    1.1847 C   0  0  0  0  0  0  0  0  0  0  0  0
   -2.3942    5.7484    1.1193 H   0  0  0  0  0  0  0  0  0  0  0  0
   -0.9747    4.5692    2.2489 C   0  0  0  0  0  0  0  0  0  0  0  0
   -0.8235    5.3214    3.0112 H   0  0  0  0  0  0  0  0  0  0  0  0
   -0.2799    3.3478    2.3178 C   0  0  0  0  0  0  0  0  0  0  0  0
    0.4065    3.1684    3.1338 H   0  0  0  0  0  0  0  0  0  0  0  0
   -0.4657    2.3608    1.3291 C   0  0  0  0  0  0  0  0  0  0  0  0
    0.0844    1.4323    1.3868 H   0  0  0  0  0  0  0  0  0  0  0  0
   -1.3523    2.5716    0.2509 C   0  0  0  0  0  0  0  0  0  0  0  0
   -1.2663    0.1182    1.2910 C   0  0  0  0  0  0  0  0  0  0  0  0
   -0.1906    0.1931    1.8833 O   0  0  0  0  0  0  0  0  0  0  0  0
   -2.3930    0.6605    1.7722 N   0  0  0  0  0  0  0  0  0  0  0  0
   -3.2451    0.5077    1.2518 H   0  0  0  0  0  0  0  0  0  0  0  0
   -2.4787    1.3954    3.0311 C   0  0  0  0  0  0  0  0  0  0  0  0
   -1.7166    2.1767    3.0539 H   0  0  0  0  0  0  0  0  0  0  0  0
   -3.4649    1.8498    3.1344 H   0  0  0  0  0  0  0  0  0  0  0  0
   -2.3058    0.7133    3.8652 H   0  0  0  0  0  0  0  0  0  0  0  0
  5  6  2  0  0  0  0
  5  7  1  0  0  0  0
  2  3  1  0  0  0  0
  2  4  1  0  0  0  0
  2  5  1  0  0  0  0
  1  2  1  0  0  0  0
 29 30  2  0  0  0  0
 29 31  1  0  0  0  0
 26 27  1  0  0  0  0
 26 28  2  0  0  0  0
 24 25  1  0  0  0  0
 24 26  1  0  0  0  0
 22 23  1  0  0  0  0
 22 24  2  0  0  0  0
 20 21  1  0  0  0  0
 20 22  1  0  0  0  0
 19 20  2  0  0  0  0
 19 28  1  0  0  0  0
 17 18  1  0  0  0  0
 17 19  1  0  0  0  0
 15 16  1  0  0  0  0
 15 17  1  0  0  0  0
 14 15  2  0  0  0  0
 14 28  1  0  0  0  0
 11 12  1  0  0  0  0
 11 13  1  0  0  0  0
 11 14  1  0  0  0  0
  9 10  1  0  0  0  0
  9 11  1  0  0  0  0
  9 29  1  0  0  0  0
  7  8  1  0  0  0  0
  7  9  1  0  0  0  0
 33 34  1  0  0  0  0
 33 35  1  0  0  0  0
 33 36  1  0  0  0  0
 31 32  1  0  0  0  0
 31 33  1  0  0  0  0
M  END
$$$$
default_name
  -OEChem-02102213163D

 36 37  0     1  0  0  0  0  0999 V2000
   -4.0843   -4.0736    1.2944 H   0  0  0  0  0  0  0  0  0  0  0  0
   -4.0342   -3.2816    0.5484 C   0  0  0  0  0  0  0  0  0  0  0  0
   -4.8842   -2.6126    0.6694 H   0  0  0  0  0  0  0  0  0  0  0  0
   -4.0433   -3.7186   -0.4486 H   0  0  0  0  0  0  0  0  0  0  0  0
   -2.7532   -2.5046    0.7444 C   0  0  0  0  0  0  0  0  0  0  0  0
   -1.9803   -2.8096    1.6434 O   0  0  0  0  0  0  0  0  0  0  0  0
   -2.5332   -1.4966   -0.0966 N   0  0  0  0  0  0  0  0  0  0  0  0
   -3.2312   -1.2816   -0.7936 H   0  0  0  0  0  0  0  0  0  0  0  0
   -1.3593   -0.6196   -0.0536 C   0  0  1  0  0  0  0  0  0  0  0  0
   -0.4622   -1.2317   -0.1545 H   0  0  0  0  0  0  0  0  0  0  0  0
   -1.4074    0.3593   -1.2373 C   0  0  0  0  0  0  0  0  0  0  0  0
   -0.4246    0.3865   -1.7113 H   0  0  0  0  0  0  0  0  0  0  0  0
   -2.1185   -0.0201   -1.9731 H   0  0  0  0  0  0  0  0  0  0  0  0
   -1.7916    1.7647   -0.8862 C   0  0  0  0  0  0  0  0  0  0  0  0
   -2.8628    2.4318   -1.3711 C   0  0  0  0  0  0  0  0  0  0  0  0
   -3.5656    2.0296   -2.0925 H   0  0  0  0  0  0  0  0  0  0  0  0
   -2.9305    3.6842   -0.7929 N   0  0  0  0  0  0  0  0  0  0  0  0
   -3.6490    4.3595   -1.0093 H   0  0  0  0  0  0  0  0  0  0  0  0
   -1.9090    3.8815    0.1117 C   0  0  0  0  0  0  0  0  0  0  0  0
   -1.5690    4.9488    0.9553 C   0  0  0  0  0  0  0  0  0  0  0  0
   -2.1665    5.8485    0.9677 H   0  0  0  0  0  0  0  0  0  0  0  0
   -0.4392    4.8320    1.7829 C   0  0  0  0  0  0  0  0  0  0  0  0
   -0.1611    5.6454    2.4394 H   0  0  0  0  0  0  0  0  0  0  0  0
    0.3341    3.6571    1.7515 C   0  0  0  0  0  0  0  0  0  0  0  0
    1.2074    3.5747    2.3837 H   0  0  0  0  0  0  0  0  0  0  0  0
   -0.0158    2.5914    0.8981 C   0  0  0  0  0  0  0  0  0  0  0  0
    0.5946    1.6999    0.8741 H   0  0  0  0  0  0  0  0  0  0  0  0
   -1.1481    2.6753    0.0593 C   0  0  0  0  0  0  0  0  0  0  0  0
   -1.2663    0.1182    1.2910 C   0  0  0  0  0  0  0  0  0  0  0  0
   -0.1906    0.1931    1.8833 O   0  0  0  0  0  0  0  0  0  0  0  0
   -2.3930    0.6605    1.7722 N   0  0  0  0  0  0  0  0  0  0  0  0
   -3.2451    0.5077    1.2518 H   0  0  0  0  0  0  0  0  0  0  0  0
   -2.4787    1.3954    3.0311 C   0  0  0  0  0  0  0  0  0  0  0  0
   -1.7166    2.1767    3.0539 H   0  0  0  0  0  0  0  0  0  0  0  0
   -3.4649    1.8498    3.1344 H   0  0  0  0  0  0  0  0  0  0  0  0
   -2.3058    0.7133    3.8652 H   0  0  0  0  0  0  0  0  0  0  0  0
  5  6  2  0  0  0  0
  5  7  1  0  0  0  0
  2  3  1  0  0  0  0
  2  4  1  0  0  0  0
  2  5  1  0  0  0  0
  1  2  1  0  0  0  0
 29 30  2  0  0  0  0
 29 31  1  0  0  0  0
 26 27  1  0  0  0  0
 26 28  2  0  0  0  0
 24 25  1  0  0  0  0
 24 26  1  0  0  0  0
 22 23  1  0  0  0  0
 22 24  2  0  0  0  0
 20 21  1  0  0  0  0
 20 22  1  0  0  0  0
 19 20  2  0  0  0  0
 19 28  1  0  0  0  0
 17 18  1  0  0  0  0
 17 19  1  0  0  0  0
 15 16  1  0  0  0  0
 15 17  1  0  0  0  0
 14 15  2  0  0  0  0
 14 28  1  0  0  0  0
 11 12  1  0  0  0  0
 11 13  1  0  0  0  0
 11 14  1  0  0  0  0
  9 10  1  0  0  0  0
  9 11  1  0  0  0  0
  9 29  1  0  0  0  0
  7  8  1  0  0  0  0
  7  9  1  0  0  0  0
 33 34  1  0  0  0  0
 33 35  1  0  0  0  0
 33 36  1  0  0  0  0
 31 32  1  0  0  0  0
 31 33  1  0  0  0  0
M  END
$$$$
default_name
  -OEChem-02102213163D

 36 37  0     1  0  0  0  0  0999 V2000
   -4.0843   -4.0736    1.2944 H   0  0  0  0  0  0  0  0  0  0  0  0
   -4.0342   -3.2816    0.5484 C   0  0  0  0  0  0  0  0  0  0  0  0
   -4.8842   -2.6126    0.6694 H   0  0  0  0  0  0  0  0  0  0  0  0
   -4.0433   -3.7186   -0.4486 H   0  0  0  0  0  0  0  0  0  0  0  0
   -2.7532   -2.5046    0.7444 C   0  0  0  0  0  0  0  0  0  0  0  0
   -1.9803   -2.8096    1.6434 O   0  0  0  0  0  0  0  0  0  0  0  0
   -2.5332   -1.4966   -0.0966 N   0  0  0  0  0  0  0  0  0  0  0  0
   -3.2312   -1.2816   -0.7936 H   0  0  0  0  0  0  0  0  0  0  0  0
   -1.3593   -0.6196   -0.0536 C   0  0  1  0  0  0  0  0  0  0  0  0
   -0.4622   -1.2317   -0.1545 H   0  0  0  0  0  0  0  0  0  0  0  0
   -1.4074    0.3593   -1.2373 C   0  0  0  0  0  0  0  0  0  0  0  0
   -0.4246    0.3865   -1.7113 H   0  0  0  0  0  0  0  0  0  0  0  0
   -2.1185   -0.0201   -1.9731 H   0  0  0  0  0  0  0  0  0  0  0  0
   -1.7916    1.7647   -0.8862 C   0  0  0  0  0  0  0  0  0  0  0  0
   -2.9913    2.3371   -1.1325 C   0  0  0  0  0  0  0  0  0  0  0  0
   -3.8177    1.8464   -1.6351 H   0  0  0  0  0  0  0  0  0  0  0  0
   -3.0039    3.6235   -0.6301 N   0  0  0  0  0  0  0  0  0  0  0  0
   -3.7981    4.2424   -0.7034 H   0  0  0  0  0  0  0  0  0  0  0  0
   -1.8107    3.9403   -0.0163 C   0  0  0  0  0  0  0  0  0  0  0  0
   -1.3521    5.0834    0.6541 C   0  0  0  0  0  0  0  0  0  0  0  0
   -1.9894    5.9490    0.7593 H   0  0  0  0  0  0  0  0  0  0  0  0
   -0.0510    5.0873    1.1854 C   0  0  0  0  0  0  0  0  0  0  0  0
    0.3203    5.9605    1.7048 H   0  0  0  0  0  0  0  0  0  0  0  0
    0.7710    3.9556    1.0348 C   0  0  0  0  0  0  0  0  0  0  0  0
    1.7743    3.9660    1.4379 H   0  0  0  0  0  0  0  0  0  0  0  0
    0.3002    2.8129    0.3574 C   0  0  0  0  0  0  0  0  0  0  0  0
    0.9467    1.9552    0.2372 H   0  0  0  0  0  0  0  0  0  0  0  0
   -1.0038    2.7751   -0.1822 C   0  0  0  0  0  0  0  0  0  0  0  0
   -1.2663    0.1182    1.2910 C   0  0  0  0  0  0  0  0  0  0  0  0
   -0.1906    0.1931    1.8833 O   0  0  0  0  0  0  0  0  0  0  0  0
   -2.3930    0.6605    1.7722 N   0  0  0  0  0  0  0  0  0  0  0  0
   -3.2451    0.5077    1.2518 H   0  0  0  0  0  0  0  0  0  0  0  0
   -2.4787    1.3954    3.0311 C   0  0  0  0  0  0  0  0  0  0  0  0
   -1.7166    2.1767    3.0539 H   0  0  0  0  0  0  0  0  0  0  0  0
   -3.4649    1.8498    3.1344 H   0  0  0  0  0  0  0  0  0  0  0  0
   -2.3058    0.7133    3.8652 H   0  0  0  0  0  0  0  0  0  0  0  0
  5  6  2  0  0  0  0
  5  7  1  0  0  0  0
  2  3  1  0  0  0  0
  2  4  1  0  0  0  0
  2  5  1  0  0  0  0
  1  2  1  0  0  0  0
 29 30  2  0  0  0  0
 29 31  1  0  0  0  0
 26 27  1  0  0  0  0
 26 28  2  0  0  0  0
 24 25  1  0  0  0  0
 24 26  1  0  0  0  0
 22 23  1  0  0  0  0
 22 24  2  0  0  0  0
 20 21  1  0  0  0  0
 20 22  1  0  0  0  0
 19 20  2  0  0  0  0
 19 28  1  0  0  0  0
 17 18  1  0  0  0  0
 17 19  1  0  0  0  0
 15 16  1  0  0  0  0
 15 17  1  0  0  0  0
 14 15  2  0  0  0  0
 14 28  1  0  0  0  0
 11 12  1  0  0  0  0
 11 13  1  0  0  0  0
 11 14  1  0  0  0  0
  9 10  1  0  0  0  0
  9 11  1  0  0  0  0
  9 29  1  0  0  0  0
  7  8  1  0  0  0  0
  7  9  1  0  0  0  0
 33 34  1  0  0  0  0
 33 35  1  0  0  0  0
 33 36  1  0  0  0  0
 31 32  1  0  0  0  0
 31 33  1  0  0  0  0
M  END
$$$$
default_name
  -OEChem-02102213163D

 36 37  0     1  0  0  0  0  0999 V2000
   -4.0843   -4.0736    1.2944 H   0  0  0  0  0  0  0  0  0  0  0  0
   -4.0342   -3.2816    0.5484 C   0  0  0  0  0  0  0  0  0  0  0  0
   -4.8842   -2.6126    0.6694 H   0  0  0  0  0  0  0  0  0  0  0  0
   -4.0433   -3.7186   -0.4486 H   0  0  0  0  0  0  0  0  0  0  0  0
   -2.7532   -2.5046    0.7444 C   0  0  0  0  0  0  0  0  0  0  0  0
   -1.9803   -2.8096    1.6434 O   0  0  0  0  0  0  0  0  0  0  0  0
   -2.5332   -1.4966   -0.0966 N   0  0  0  0  0  0  0  0  0  0  0  0
   -3.2312   -1.2816   -0.7936 H   0  0  0  0  0  0  0  0  0  0  0  0
   -1.3593   -0.6196   -0.0536 C   0  0  1  0  0  0  0  0  0  0  0  0
   -0.4622   -1.2317   -0.1545 H   0  0  0  0  0  0  0  0  0  0  0  0
   -1.4074    0.3593   -1.2373 C   0  0  0  0  0  0  0  0  0  0  0  0
   -0.4246    0.3865   -1.7113 H   0  0  0  0  0  0  0  0  0  0  0  0
   -2.1185   -0.0201   -1.9731 H   0  0  0  0  0  0  0  0  0  0  0  0
   -1.7916    1.7647   -0.8862 C   0  0  0  0  0  0  0  0  0  0  0  0
   -3.0518    2.2536   -0.8647 C   0  0  0  0  0  0  0  0  0  0  0  0
   -3.9390    1.6845   -1.1199 H   0  0  0  0  0  0  0  0  0  0  0  0
   -3.0316    3.5712   -0.4510 N   0  0  0  0  0  0  0  0  0  0  0  0
   -3.8608    4.1405   -0.3640 H   0  0  0  0  0  0  0  0  0  0  0  0
   -1.7505    3.9946   -0.1677 C   0  0  0  0  0  0  0  0  0  0  0  0
   -1.2237    5.2065    0.3016 C   0  0  0  0  0  0  0  0  0  0  0  0
   -1.8751    6.0429    0.5085 H   0  0  0  0  0  0  0  0  0  0  0  0
    0.1635    5.3179    0.4971 C   0  0  0  0  0  0  0  0  0  0  0  0
    0.5878    6.2453    0.8575 H   0  0  0  0  0  0  0  0  0  0  0  0
    1.0010    4.2228    0.2168 C   0  0  0  0  0  0  0  0  0  0  0  0
    2.0686    4.3155    0.3607 H   0  0  0  0  0  0  0  0  0  0  0  0
    0.4608    3.0101   -0.2564 C   0  0  0  0  0  0  0  0  0  0  0  0
    1.1168    2.1810   -0.4805 H   0  0  0  0  0  0  0  0  0  0  0  0
   -0.9289    2.8643   -0.4572 C   0  0  0  0  0  0  0  0  0  0  0  0
   -1.2663    0.1182    1.2910 C   0  0  0  0  0  0  0  0  0  0  0  0
   -0.1906    0.1931    1.8833 O   0  0  0  0  0  0  0  0  0  0  0  0
   -2.3930    0.6605    1.7722 N   0  0  0  0  0  0  0  0  0  0  0  0
   -3.2451    0.5077    1.2518 H   0  0  0  0  0  0  0  0  0  0  0  0
   -2.4787    1.3954    3.0311 C   0  0  0  0  0  0  0  0  0  0  0  0
   -1.7166    2.1767    3.0539 H   0  0  0  0  0  0  0  0  0  0  0  0
   -3.4649    1.8498    3.1344 H   0  0  0  0  0  0  0  0  0  0  0  0
   -2.3058    0.7133    3.8652 H   0  0  0  0  0  0  0  0  0  0  0  0
  5  6  2  0  0  0  0
  5  7  1  0  0  0  0
  2  3  1  0  0  0  0
  2  4  1  0  0  0  0
  2  5  1  0  0  0  0
  1  2  1  0  0  0  0
 29 30  2  0  0  0  0
 29 31  1  0  0  0  0
 26 27  1  0  0  0  0
 26 28  2  0  0  0  0
 24 25  1  0  0  0  0
 24 26  1  0  0  0  0
 22 23  1  0  0  0  0
 22 24  2  0  0  0  0
 20 21  1  0  0  0  0
 20 22  1  0  0  0  0
 19 20  2  0  0  0  0
 19 28  1  0  0  0  0
 17 18  1  0  0  0  0
 17 19  1  0  0  0  0
 15 16  1  0  0  0  0
 15 17  1  0  0  0  0
 14 15  2  0  0  0  0
 14 28  1  0  0  0  0
 11 12  1  0  0  0  0
 11 13  1  0  0  0  0
 11 14  1  0  0  0  0
  9 10  1  0  0  0  0
  9 11  1  0  0  0  0
  9 29  1  0  0  0  0
  7  8  1  0  0  0  0
  7  9  1  0  0  0  0
 33 34  1  0  0  0  0
 33 35  1  0  0  0  0
 33 36  1  0  0  0  0
 31 32  1  0  0  0  0
 31 33  1  0  0  0  0
M  END
$$$$
default_name
  -OEChem-02102213163D

 36 37  0     1  0  0  0  0  0999 V2000
   -4.0843   -4.0736    1.2944 H   0  0  0  0  0  0  0  0  0  0  0  0
   -4.0342   -3.2816    0.5484 C   0  0  0  0  0  0  0  0  0  0  0  0
   -4.8842   -2.6126    0.6694 H   0  0  0  0  0  0  0  0  0  0  0  0
   -4.0433   -3.7186   -0.4486 H   0  0  0  0  0  0  0  0  0  0  0  0
   -2.7532   -2.5046    0.7444 C   0  0  0  0  0  0  0  0  0  0  0  0
   -1.9803   -2.8096    1.6434 O   0  0  0  0  0  0  0  0  0  0  0  0
   -2.5332   -1.4966   -0.0966 N   0  0  0  0  0  0  0  0  0  0  0  0
   -3.2312   -1.2816   -0.7936 H   0  0  0  0  0  0  0  0  0  0  0  0
   -1.3593   -0.6196   -0.0536 C   0  0  1  0  0  0  0  0  0  0  0  0
   -0.4622   -1.2317   -0.1545 H   0  0  0  0  0  0  0  0  0  0  0  0
   -1.4074    0.3593   -1.2373 C   0  0  0  0  0  0  0  0  0  0  0  0
   -0.4246    0.3865   -1.7113 H   0  0  0  0  0  0  0  0  0  0  0  0
   -2.1185   -0.0201   -1.9731 H   0  0  0  0  0  0  0  0  0  0  0  0
   -1.7916    1.7647   -0.8862 C   0  0  0  0  0  0  0  0  0  0  0  0
   -3.0401    2.1871   -0.5857 C   0  0  0  0  0  0  0  0  0  0  0  0
   -3.9214    1.5550   -0.5820 H   0  0  0  0  0  0  0  0  0  0  0  0
   -3.0117    3.5309   -0.2679 N   0  0  0  0  0  0  0  0  0  0  0  0
   -3.8327    4.0608   -0.0143 H   0  0  0  0  0  0  0  0  0  0  0  0
   -1.7324    4.0407   -0.3321 C   0  0  0  0  0  0  0  0  0  0  0  0
   -1.1928    5.3099   -0.0782 C   0  0  0  0  0  0  0  0  0  0  0  0
   -1.8312    6.1239    0.2322 H   0  0  0  0  0  0  0  0  0  0  0  0
    0.1896    5.5080   -0.2351 C   0  0  0  0  0  0  0  0  0  0  0  0
    0.6234    6.4804   -0.0448 H   0  0  0  0  0  0  0  0  0  0  0  0
    1.0084    4.4406   -0.6469 C   0  0  0  0  0  0  0  0  0  0  0  0
    2.0702    4.5995   -0.7744 H   0  0  0  0  0  0  0  0  0  0  0  0
    0.4550    3.1696   -0.9012 C   0  0  0  0  0  0  0  0  0  0  0  0
    1.0932    2.3617   -1.2299 H   0  0  0  0  0  0  0  0  0  0  0  0
   -0.9288    2.9367   -0.7469 C   0  0  0  0  0  0  0  0  0  0  0  0
   -1.2663    0.1182    1.2910 C   0  0  0  0  0  0  0  0  0  0  0  0
   -0.1906    0.1931    1.8833 O   0  0  0  0  0  0  0  0  0  0  0  0
   -2.3930    0.6605    1.7722 N   0  0  0  0  0  0  0  0  0  0  0  0
   -3.2451    0.5077    1.2518 H   0  0  0  0  0  0  0  0  0  0  0  0
   -2.4787    1.3954    3.0311 C   0  0  0  0  0  0  0  0  0  0  0  0
   -1.7166    2.1767    3.0539 H   0  0  0  0  0  0  0  0  0  0  0  0
   -3.4649    1.8498    3.1344 H   0  0  0  0  0  0  0  0  0  0  0  0
   -2.3058    0.7133    3.8652 H   0  0  0  0  0  0  0  0  0  0  0  0
  5  6  2  0  0  0  0
  5  7  1  0  0  0  0
  2  3  1  0  0  0  0
  2  4  1  0  0  0  0
  2  5  1  0  0  0  0
  1  2  1  0  0  0  0
 29 30  2  0  0  0  0
 29 31  1  0  0  0  0
 26 27  1  0  0  0  0
 26 28  2  0  0  0  0
 24 25  1  0  0  0  0
 24 26  1  0  0  0  0
 22 23  1  0  0  0  0
 22 24  2  0  0  0  0
 20 21  1  0  0  0  0
 20 22  1  0  0  0  0
 19 20  2  0  0  0  0
 19 28  1  0  0  0  0
 17 18  1  0  0  0  0
 17 19  1  0  0  0  0
 15 16  1  0  0  0  0
 15 17  1  0  0  0  0
 14 15  2  0  0  0  0
 14 28  1  0  0  0  0
 11 12  1  0  0  0  0
 11 13  1  0  0  0  0
 11 14  1  0  0  0  0
  9 10  1  0  0  0  0
  9 11  1  0  0  0  0
  9 29  1  0  0  0  0
  7  8  1  0  0  0  0
  7  9  1  0  0  0  0
 33 34  1  0  0  0  0
 33 35  1  0  0  0  0
 33 36  1  0  0  0  0
 31 32  1  0  0  0  0
 31 33  1  0  0  0  0
M  END
$$$$
default_name
  -OEChem-02102213163D

 36 37  0     1  0  0  0  0  0999 V2000
   -4.0843   -4.0736    1.2944 H   0  0  0  0  0  0  0  0  0  0  0  0
   -4.0342   -3.2816    0.5484 C   0  0  0  0  0  0  0  0  0  0  0  0
   -4.8842   -2.6126    0.6694 H   0  0  0  0  0  0  0  0  0  0  0  0
   -4.0433   -3.7186   -0.4486 H   0  0  0  0  0  0  0  0  0  0  0  0
   -2.7532   -2.5046    0.7444 C   0  0  0  0  0  0  0  0  0  0  0  0
   -1.9803   -2.8096    1.6434 O   0  0  0  0  0  0  0  0  0  0  0  0
   -2.5332   -1.4966   -0.0966 N   0  0  0  0  0  0  0  0  0  0  0  0
   -3.2312   -1.2816   -0.7936 H   0  0  0  0  0  0  0  0  0  0  0  0
   -1.3593   -0.6196   -0.0536 C   0  0  1  0  0  0  0  0  0  0  0  0
   -0.4622   -1.2317   -0.1545 H   0  0  0  0  0  0  0  0  0  0  0  0
   -1.4074    0.3593   -1.2373 C   0  0  0  0  0  0  0  0  0  0  0  0
   -0.4246    0.3865   -1.7113 H   0  0  0  0  0  0  0  0  0  0  0  0
   -2.1185   -0.0201   -1.9731 H   0  0  0  0  0  0  0  0  0  0  0  0
   -1.7916    1.7647   -0.8862 C   0  0  0  0  0  0  0  0  0  0  0  0
   -2.9571    2.1421   -0.3146 C   0  0  0  0  0  0  0  0  0  0  0  0
   -3.7659    1.4666   -0.0582 H   0  0  0  0  0  0  0  0  0  0  0  0
   -2.9456    3.5053   -0.0931 N   0  0  0  0  0  0  0  0  0  0  0  0
   -3.7159    4.0087    0.3221 H   0  0  0  0  0  0  0  0  0  0  0  0
   -1.7575    4.0753   -0.4984 C   0  0  0  0  0  0  0  0  0  0  0  0
   -1.2614    5.3863   -0.4595 C   0  0  0  0  0  0  0  0  0  0  0  0
   -1.8608    6.1865   -0.0507 H   0  0  0  0  0  0  0  0  0  0  0  0
    0.0256    5.6446   -0.9614 C   0  0  0  0  0  0  0  0  0  0  0  0
    0.4245    6.6498   -0.9406 H   0  0  0  0  0  0  0  0  0  0  0  0
    0.7927    4.5941   -1.4974 C   0  0  0  0  0  0  0  0  0  0  0  0
    1.7791    4.7987   -1.8901 H   0  0  0  0  0  0  0  0  0  0  0  0
    0.2831    3.2805   -1.5333 C   0  0  0  0  0  0  0  0  0  0  0  0
    0.8776    2.4852   -1.9600 H   0  0  0  0  0  0  0  0  0  0  0  0
   -1.0034    2.9874   -1.0315 C   0  0  0  0  0  0  0  0  0  0  0  0
   -1.2663    0.1182    1.2910 C   0  0  0  0  0  0  0  0  0  0  0  0
   -0.1906    0.1931    1.8833 O   0  0  0  0  0  0  0  0  0  0  0  0
   -2.3930    0.6605    1.7722 N   0  0  0  0  0  0  0  0  0  0  0  0
   -3.2451    0.5077    1.2518 H   0  0  0  0  0  0  0  0  0  0  0  0
   -2.4787    1.3954    3.0311 C   0  0  0  0  0  0  0  0  0  0  0  0
   -1.7166    2.1767    3.0539 H   0  0  0  0  0  0  0  0  0  0  0  0
   -3.4649    1.8498    3.1344 H   0  0  0  0  0  0  0  0  0  0  0  0
   -2.3058    0.7133    3.8652 H   0  0  0  0  0  0  0  0  0  0  0  0
  5  6  2  0  0  0  0
  5  7  1  0  0  0  0
  2  3  1  0  0  0  0
  2  4  1  0  0  0  0
  2  5  1  0  0  0  0
  1  2  1  0  0  0  0
 29 30  2  0  0  0  0
 29 31  1  0  0  0  0
 26 27  1  0  0  0  0
 26 28  2  0  0  0  0
 24 25  1  0  0  0  0
 24 26  1  0  0  0  0
 22 23  1  0  0  0  0
 22 24  2  0  0  0  0
 20 21  1  0  0  0  0
 20 22  1  0  0  0  0
 19 20  2  0  0  0  0
 19 28  1  0  0  0  0
 17 18  1  0  0  0  0
 17 19  1  0  0  0  0
 15 16  1  0  0  0  0
 15 17  1  0  0  0  0
 14 15  2  0  0  0  0
 14 28  1  0  0  0  0
 11 12  1  0  0  0  0
 11 13  1  0  0  0  0
 11 14  1  0  0  0  0
  9 10  1  0  0  0  0
  9 11  1  0  0  0  0
  9 29  1  0  0  0  0
  7  8  1  0  0  0  0
  7  9  1  0  0  0  0
 33 34  1  0  0  0  0
 33 35  1  0  0  0  0
 33 36  1  0  0  0  0
 31 32  1  0  0  0  0
 31 33  1  0  0  0  0
M  END
$$$$
default_name
  -OEChem-02102213163D

 36 37  0     1  0  0  0  0  0999 V2000
   -4.0843   -4.0736    1.2944 H   0  0  0  0  0  0  0  0  0  0  0  0
   -4.0342   -3.2816    0.5484 C   0  0  0  0  0  0  0  0  0  0  0  0
   -4.8842   -2.6126    0.6694 H   0  0  0  0  0  0  0  0  0  0  0  0
   -4.0433   -3.7186   -0.4486 H   0  0  0  0  0  0  0  0  0  0  0  0
   -2.7532   -2.5046    0.7444 C   0  0  0  0  0  0  0  0  0  0  0  0
   -1.9803   -2.8096    1.6434 O   0  0  0  0  0  0  0  0  0  0  0  0
   -2.5332   -1.4966   -0.0966 N   0  0  0  0  0  0  0  0  0  0  0  0
   -3.2312   -1.2816   -0.7936 H   0  0  0  0  0  0  0  0  0  0  0  0
   -1.3593   -0.6196   -0.0536 C   0  0  1  0  0  0  0  0  0  0  0  0
   -0.4622   -1.2317   -0.1545 H   0  0  0  0  0  0  0  0  0  0  0  0
   -1.4074    0.3593   -1.2373 C   0  0  0  0  0  0  0  0  0  0  0  0
   -0.4246    0.3865   -1.7113 H   0  0  0  0  0  0  0  0  0  0  0  0
   -2.1185   -0.0201   -1.9731 H   0  0  0  0  0  0  0  0  0  0  0  0
   -1.7916    1.7647   -0.8862 C   0  0  0  0  0  0  0  0  0  0  0  0
   -2.8084    2.1216   -0.0699 C   0  0  0  0  0  0  0  0  0  0  0  0
   -3.4832    1.4255    0.4159 H   0  0  0  0  0  0  0  0  0  0  0  0
   -2.8378    3.4962    0.0613 N   0  0  0  0  0  0  0  0  0  0  0  0
   -3.5183    3.9877    0.6221 H   0  0  0  0  0  0  0  0  0  0  0  0
   -1.8243    4.0963   -0.6553 C   0  0  0  0  0  0  0  0  0  0  0  0
   -1.4248    5.4308   -0.8162 C   0  0  0  0  0  0  0  0  0  0  0  0
   -1.9618    6.2264   -0.3210 H   0  0  0  0  0  0  0  0  0  0  0  0
   -0.3173    5.7184   -1.6321 C   0  0  0  0  0  0  0  0  0  0  0  0
    0.0046    6.7419   -1.7688 H   0  0  0  0  0  0  0  0  0  0  0  0
    0.3686    4.6728   -2.2768 C   0  0  0  0  0  0  0  0  0  0  0  0
    1.2150    4.8993   -2.9103 H   0  0  0  0  0  0  0  0  0  0  0  0
   -0.0430    3.3353   -2.1095 C   0  0  0  0  0  0  0  0  0  0  0  0
    0.4846    2.5429   -2.6211 H   0  0  0  0  0  0  0  0  0  0  0  0
   -1.1476    3.0130   -1.2917 C   0  0  0  0  0  0  0  0  0  0  0  0
   -1.2663    0.1182    1.2910 C   0  0  0  0  0  0  0  0  0  0  0  0
   -0.1906    0.1931    1.8833 O   0  0  0  0  0  0  0  0  0  0  0  0
   -2.3930    0.6605    1.7722 N   0  0  0  0  0  0  0  0  0  0  0  0
   -3.2451    0.5077    1.2518 H   0  0  0  0  0  0  0  0  0  0  0  0
   -2.4787    1.3954    3.0311 C   0  0  0  0  0  0  0  0  0  0  0  0
   -1.7166    2.1767    3.0539 H   0  0  0  0  0  0  0  0  0  0  0  0
   -3.4649    1.8498    3.1344 H   0  0  0  0  0  0  0  0  0  0  0  0
   -2.3058    0.7133    3.8652 H   0  0  0  0  0  0  0  0  0  0  0  0
  5  6  2  0  0  0  0
  5  7  1  0  0  0  0
  2  3  1  0  0  0  0
  2  4  1  0  0  0  0
  2  5  1  0  0  0  0
  1  2  1  0  0  0  0
 29 30  2  0  0  0  0
 29 31  1  0  0  0  0
 26 27  1  0  0  0  0
 26 28  2  0  0  0  0
 24 25  1  0  0  0  0
 24 26  1  0  0  0  0
 22 23  1  0  0  0  0
 22 24  2  0  0  0  0
 20 21  1  0  0  0  0
 20 22  1  0  0  0  0
 19 20  2  0  0  0  0
 19 28  1  0  0  0  0
 17 18  1  0  0  0  0
 17 19  1  0  0  0  0
 15 16  1  0  0  0  0
 15 17  1  0  0  0  0
 14 15  2  0  0  0  0
 14 28  1  0  0  0  0
 11 12  1  0  0  0  0
 11 13  1  0  0  0  0
 11 14  1  0  0  0  0
  9 10  1  0  0  0  0
  9 11  1  0  0  0  0
  9 29  1  0  0  0  0
  7  8  1  0  0  0  0
  7  9  1  0  0  0  0
 33 34  1  0  0  0  0
 33 35  1  0  0  0  0
 33 36  1  0  0  0  0
 31 32  1  0  0  0  0
 31 33  1  0  0  0  0
M  END
$$$$
default_name
  -OEChem-02102213163D

 36 37  0     1  0  0  0  0  0999 V2000
   -4.0843   -4.0736    1.2944 H   0  0  0  0  0  0  0  0  0  0  0  0
   -4.0342   -3.2816    0.5484 C   0  0  0  0  0  0  0  0  0  0  0  0
   -4.8842   -2.6126    0.6694 H   0  0  0  0  0  0  0  0  0  0  0  0
   -4.0433   -3.7186   -0.4486 H   0  0  0  0  0  0  0  0  0  0  0  0
   -2.7532   -2.5046    0.7444 C   0  0  0  0  0  0  0  0  0  0  0  0
   -1.9803   -2.8096    1.6434 O   0  0  0  0  0  0  0  0  0  0  0  0
   -2.5332   -1.4966   -0.0966 N   0  0  0  0  0  0  0  0  0  0  0  0
   -3.2312   -1.2816   -0.7936 H   0  0  0  0  0  0  0  0  0  0  0  0
   -1.3593   -0.6196   -0.0536 C   0  0  1  0  0  0  0  0  0  0  0  0
   -0.4622   -1.2317   -0.1545 H   0  0  0  0  0  0  0  0  0  0  0  0
   -1.4074    0.3593   -1.2373 C   0  0  0  0  0  0  0  0  0  0  0  0
   -0.4246    0.3865   -1.7113 H   0  0  0  0  0  0  0  0  0  0  0  0
   -2.1185   -0.0201   -1.9731 H   0  0  0  0  0  0  0  0  0  0  0  0
   -1.7916    1.7647   -0.8862 C   0  0  0  0  0  0  0  0  0  0  0  0
   -2.6042    2.1271    0.1316 C   0  0  0  0  0  0  0  0  0  0  0  0
   -3.0927    1.4343    0.8080 H   0  0  0  0  0  0  0  0  0  0  0  0
   -2.6956    3.5042    0.1850 N   0  0  0  0  0  0  0  0  0  0  0  0
   -3.2533    3.9994    0.8653 H   0  0  0  0  0  0  0  0  0  0  0  0
   -1.9281    4.1020   -0.7919 C   0  0  0  0  0  0  0  0  0  0  0  0
   -1.6720    5.4401   -1.1240 C   0  0  0  0  0  0  0  0  0  0  0  0
   -2.1274    6.2409   -0.5601 H   0  0  0  0  0  0  0  0  0  0  0  0
   -0.8159    5.7244   -2.2016 C   0  0  0  0  0  0  0  0  0  0  0  0
   -0.6075    6.7505   -2.4729 H   0  0  0  0  0  0  0  0  0  0  0  0
   -0.2350    4.6715   -2.9319 C   0  0  0  0  0  0  0  0  0  0  0  0
    0.4165    4.8947   -3.7655 H   0  0  0  0  0  0  0  0  0  0  0  0
   -0.5011    3.3303   -2.5905 C   0  0  0  0  0  0  0  0  0  0  0  0
   -0.0589    2.5310   -3.1682 H   0  0  0  0  0  0  0  0  0  0  0  0
   -1.3516    3.0117   -1.5097 C   0  0  0  0  0  0  0  0  0  0  0  0
   -1.2663    0.1182    1.2910 C   0  0  0  0  0  0  0  0  0  0  0  0
   -0.1906    0.1931    1.8833 O   0  0  0  0  0  0  0  0  0  0  0  0
   -2.3930    0.6605    1.7722 N   0  0  0  0  0  0  0  0  0  0  0  0
   -3.2451    0.5077    1.2518 H   0  0  0  0  0  0  0  0  0  0  0  0
   -2.4787    1.3954    3.0311 C   0  0  0  0  0  0  0  0  0  0  0  0
   -1.7166    2.1767    3.0539 H   0  0  0  0  0  0  0  0  0  0  0  0
   -3.4649    1.8498    3.1344 H   0  0  0  0  0  0  0  0  0  0  0  0
   -2.3058    0.7133    3.8652 H   0  0  0  0  0  0  0  0  0  0  0  0
  5  6  2  0  0  0  0
  5  7  1  0  0  0  0
  2  3  1  0  0  0  0
  2  4  1  0  0  0  0
  2  5  1  0  0  0  0
  1  2  1  0  0  0  0
 29 30  2  0  0  0  0
 29 31  1  0  0  0  0
 26 27  1  0  0  0  0
 26 28  2  0  0  0  0
 24 25  1  0  0  0  0
 24 26  1  0  0  0  0
 22 23  1  0  0  0  0
 22 24  2  0  0  0  0
 20 21  1  0  0  0  0
 20 22  1  0  0  0  0
 19 20  2  0  0  0  0
 19 28  1  0  0  0  0
 17 18  1  0  0  0  0
 17 19  1  0  0  0  0
 15 16  1  0  0  0  0
 15 17  1  0  0  0  0
 14 15  2  0  0  0  0
 14 28  1  0  0  0  0
 11 12  1  0  0  0  0
 11 13  1  0  0  0  0
 11 14  1  0  0  0  0
  9 10  1  0  0  0  0
  9 11  1  0  0  0  0
  9 29  1  0  0  0  0
  7  8  1  0  0  0  0
  7  9  1  0  0  0  0
 33 34  1  0  0  0  0
 33 35  1  0  0  0  0
 33 36  1  0  0  0  0
 31 32  1  0  0  0  0
 31 33  1  0  0  0  0
M  END
$$$$
default_name
  -OEChem-02102213163D

 36 37  0     1  0  0  0  0  0999 V2000
   -4.0843   -4.0736    1.2944 H   0  0  0  0  0  0  0  0  0  0  0  0
   -4.0342   -3.2816    0.5484 C   0  0  0  0  0  0  0  0  0  0  0  0
   -4.8842   -2.6126    0.6694 H   0  0  0  0  0  0  0  0  0  0  0  0
   -4.0433   -3.7186   -0.4486 H   0  0  0  0  0  0  0  0  0  0  0  0
   -2.7532   -2.5046    0.7444 C   0  0  0  0  0  0  0  0  0  0  0  0
   -1.9803   -2.8096    1.6434 O   0  0  0  0  0  0  0  0  0  0  0  0
   -2.5332   -1.4966   -0.0966 N   0  0  0  0  0  0  0  0  0  0  0  0
   -3.2312   -1.2816   -0.7936 H   0  0  0  0  0  0  0  0  0  0  0  0
   -1.3593   -0.6196   -0.0536 C   0  0  1  0  0  0  0  0  0  0  0  0
   -0.4622   -1.2317   -0.1545 H   0  0  0  0  0  0  0  0  0  0  0  0
   -1.4074    0.3593   -1.2373 C   0  0  0  0  0  0  0  0  0  0  0  0
   -0.4246    0.3865   -1.7113 H   0  0  0  0  0  0  0  0  0  0  0  0
   -2.1185   -0.0201   -1.9731 H   0  0  0  0  0  0  0  0  0  0  0  0
   -1.7916    1.7647   -0.8862 C   0  0  0  0  0  0  0  0  0  0  0  0
   -2.3583    2.1581    0.2764 C   0  0  0  0  0  0  0  0  0  0  0  0
   -2.6207    1.4925    1.0914 H   0  0  0  0  0  0  0  0  0  0  0  0
   -2.5287    3.5287    0.2694 N   0  0  0  0  0  0  0  0  0  0  0  0
   -2.9390    4.0429    1.0351 H   0  0  0  0  0  0  0  0  0  0  0  0
   -2.0620    4.0922   -0.8991 C   0  0  0  0  0  0  0  0  0  0  0  0
   -1.9859    5.4137   -1.3619 C   0  0  0  0  0  0  0  0  0  0  0  0
   -2.3463    6.2289   -0.7519 H   0  0  0  0  0  0  0  0  0  0  0  0
   -1.4360    5.6621   -2.6311 C   0  0  0  0  0  0  0  0  0  0  0  0
   -1.3702    6.6749   -3.0051 H   0  0  0  0  0  0  0  0  0  0  0  0
   -0.9769    4.5901   -3.4181 C   0  0  0  0  0  0  0  0  0  0  0  0
   -0.5622    4.7850   -4.3975 H   0  0  0  0  0  0  0  0  0  0  0  0
   -1.0601    3.2657   -2.9436 C   0  0  0  0  0  0  0  0  0  0  0  0
   -0.7160    2.4502   -3.5639 H   0  0  0  0  0  0  0  0  0  0  0  0
   -1.6015    2.9836   -1.6707 C   0  0  0  0  0  0  0  0  0  0  0  0
   -1.2663    0.1182    1.2910 C   0  0  0  0  0  0  0  0  0  0  0  0
   -0.1906    0.1931    1.8833 O   0  0  0  0  0  0  0  0  0  0  0  0
   -2.3930    0.6605    1.7722 N   0  0  0  0  0  0  0  0  0  0  0  0
   -3.2451    0.5077    1.2518 H   0  0  0  0  0  0  0  0  0  0  0  0
   -2.4787    1.3954    3.0311 C   0  0  0  0  0  0  0  0  0  0  0  0
   -1.7166    2.1767    3.0539 H   0  0  0  0  0  0  0  0  0  0  0  0
   -3.4649    1.8498    3.1344 H   0  0  0  0  0  0  0  0  0  0  0  0
   -2.3058    0.7133    3.8652 H   0  0  0  0  0  0  0  0  0  0  0  0
  5  6  2  0  0  0  0
  5  7  1  0  0  0  0
  2  3  1  0  0  0  0
  2  4  1  0  0  0  0
  2  5  1  0  0  0  0
  1  2  1  0  0  0  0
 29 30  2  0  0  0  0
 29 31  1  0  0  0  0
 26 27  1  0  0  0  0
 26 28  2  0  0  0  0
 24 25  1  0  0  0  0
 24 26  1  0  0  0  0
 22 23  1  0  0  0  0
 22 24  2  0  0  0  0
 20 21  1  0  0  0  0
 20 22  1  0  0  0  0
 19 20  2  0  0  0  0
 19 28  1  0  0  0  0
 17 18  1  0  0  0  0
 17 19  1  0  0  0  0
 15 16  1  0  0  0  0
 15 17  1  0  0  0  0
 14 15  2  0  0  0  0
 14 28  1  0  0  0  0
 11 12  1  0  0  0  0
 11 13  1  0  0  0  0
 11 14  1  0  0  0  0
  9 10  1  0  0  0  0
  9 11  1  0  0  0  0
  9 29  1  0  0  0  0
  7  8  1  0  0  0  0
  7  9  1  0  0  0  0
 33 34  1  0  0  0  0
 33 35  1  0  0  0  0
 33 36  1  0  0  0  0
 31 32  1  0  0  0  0
 31 33  1  0  0  0  0
M  END
$$$$
default_name
  -OEChem-02102213163D

 36 37  0     1  0  0  0  0  0999 V2000
   -4.0843   -4.0736    1.2944 H   0  0  0  0  0  0  0  0  0  0  0  0
   -4.0342   -3.2816    0.5484 C   0  0  0  0  0  0  0  0  0  0  0  0
   -4.8842   -2.6126    0.6694 H   0  0  0  0  0  0  0  0  0  0  0  0
   -4.0433   -3.7186   -0.4486 H   0  0  0  0  0  0  0  0  0  0  0  0
   -2.7532   -2.5046    0.7444 C   0  0  0  0  0  0  0  0  0  0  0  0
   -1.9803   -2.8096    1.6434 O   0  0  0  0  0  0  0  0  0  0  0  0
   -2.5332   -1.4966   -0.0966 N   0  0  0  0  0  0  0  0  0  0  0  0
   -3.2312   -1.2816   -0.7936 H   0  0  0  0  0  0  0  0  0  0  0  0
   -1.3593   -0.6196   -0.0536 C   0  0  1  0  0  0  0  0  0  0  0  0
   -0.4622   -1.2317   -0.1545 H   0  0  0  0  0  0  0  0  0  0  0  0
   -1.4074    0.3593   -1.2373 C   0  0  0  0  0  0  0  0  0  0  0  0
   -0.4246    0.3865   -1.7113 H   0  0  0  0  0  0  0  0  0  0  0  0
   -2.1185   -0.0201   -1.9731 H   0  0  0  0  0  0  0  0  0  0  0  0
   -1.7916    1.7647   -0.8862 C   0  0  0  0  0  0  0  0  0  0  0  0
   -2.0875    2.2127    0.3545 C   0  0  0  0  0  0  0  0  0  0  0  0
   -2.0997    1.5962    1.2467 H   0  0  0  0  0  0  0  0  0  0  0  0
   -2.3485    3.5681    0.3087 N   0  0  0  0  0  0  0  0  0  0  0  0
   -2.5969    4.1152    1.1200 H   0  0  0  0  0  0  0  0  0  0  0  0
   -2.2166    4.0675   -0.9695 C   0  0  0  0  0  0  0  0  0  0  0  0
   -2.3454    5.3534   -1.5138 C   0  0  0  0  0  0  0  0  0  0  0  0
   -2.6036    6.1914   -0.8832 H   0  0  0  0  0  0  0  0  0  0  0  0
   -2.1355    5.5359   -2.8914 C   0  0  0  0  0  0  0  0  0  0  0  0
   -2.2315    6.5204   -3.3290 H   0  0  0  0  0  0  0  0  0  0  0  0
   -1.8066    4.4343   -3.7023 C   0  0  0  0  0  0  0  0  0  0  0  0
   -1.6542    4.5778   -4.7631 H   0  0  0  0  0  0  0  0  0  0  0  0
   -1.6818    3.1459   -3.1447 C   0  0  0  0  0  0  0  0  0  0  0  0
   -1.4419    2.3061   -3.7812 H   0  0  0  0  0  0  0  0  0  0  0  0
   -1.8802    2.9306   -1.7637 C   0  0  0  0  0  0  0  0  0  0  0  0
   -1.2663    0.1182    1.2910 C   0  0  0  0  0  0  0  0  0  0  0  0
   -0.1906    0.1931    1.8833 O   0  0  0  0  0  0  0  0  0  0  0  0
   -2.3930    0.6605    1.7722 N   0  0  0  0  0  0  0  0  0  0  0  0
   -3.2451    0.5077    1.2518 H   0  0  0  0  0  0  0  0  0  0  0  0
   -2.4787    1.3954    3.0311 C   0  0  0  0  0  0  0  0  0  0  0  0
   -1.7166    2.1767    3.0539 H   0  0  0  0  0  0  0  0  0  0  0  0
   -3.4649    1.8498    3.1344 H   0  0  0  0  0  0  0  0  0  0  0  0
   -2.3058    0.7133    3.8652 H   0  0  0  0  0  0  0  0  0  0  0  0
  5  6  2  0  0  0  0
  5  7  1  0  0  0  0
  2  3  1  0  0  0  0
  2  4  1  0  0  0  0
  2  5  1  0  0  0  0
  1  2  1  0  0  0  0
 29 30  2  0  0  0  0
 29 31  1  0  0  0  0
 26 27  1  0  0  0  0
 26 28  2  0  0  0  0
 24 25  1  0  0  0  0
 24 26  1  0  0  0  0
 22 23  1  0  0  0  0
 22 24  2  0  0  0  0
 20 21  1  0  0  0  0
 20 22  1  0  0  0  0
 19 20  2  0  0  0  0
 19 28  1  0  0  0  0
 17 18  1  0  0  0  0
 17 19  1  0  0  0  0
 15 16  1  0  0  0  0
 15 17  1  0  0  0  0
 14 15  2  0  0  0  0
 14 28  1  0  0  0  0
 11 12  1  0  0  0  0
 11 13  1  0  0  0  0
 11 14  1  0  0  0  0
  9 10  1  0  0  0  0
  9 11  1  0  0  0  0
  9 29  1  0  0  0  0
  7  8  1  0  0  0  0
  7  9  1  0  0  0  0
 33 34  1  0  0  0  0
 33 35  1  0  0  0  0
 33 36  1  0  0  0  0
 31 32  1  0  0  0  0
 31 33  1  0  0  0  0
M  END
$$$$
default_name
  -OEChem-02102213163D

 36 37  0     1  0  0  0  0  0999 V2000
   -4.0843   -4.0736    1.2944 H   0  0  0  0  0  0  0  0  0  0  0  0
   -4.0342   -3.2816    0.5484 C   0  0  0  0  0  0  0  0  0  0  0  0
   -4.8842   -2.6126    0.6694 H   0  0  0  0  0  0  0  0  0  0  0  0
   -4.0433   -3.7186   -0.4486 H   0  0  0  0  0  0  0  0  0  0  0  0
   -2.7532   -2.5046    0.7444 C   0  0  0  0  0  0  0  0  0  0  0  0
   -1.9803   -2.8096    1.6434 O   0  0  0  0  0  0  0  0  0  0  0  0
   -2.5332   -1.4966   -0.0966 N   0  0  0  0  0  0  0  0  0  0  0  0
   -3.2312   -1.2816   -0.7936 H   0  0  0  0  0  0  0  0  0  0  0  0
   -1.3593   -0.6196   -0.0536 C   0  0  1  0  0  0  0  0  0  0  0  0
   -0.4622   -1.2317   -0.1545 H   0  0  0  0  0  0  0  0  0  0  0  0
   -1.4074    0.3593   -1.2373 C   0  0  0  0  0  0  0  0  0  0  0  0
   -0.4246    0.3865   -1.7113 H   0  0  0  0  0  0  0  0  0  0  0  0
   -2.1185   -0.0201   -1.9731 H   0  0  0  0  0  0  0  0  0  0  0  0
   -1.7916    1.7647   -0.8862 C   0  0  0  0  0  0  0  0  0  0  0  0
   -1.8103    2.2869    0.3606 C   0  0  0  0  0  0  0  0  0  0  0  0
   -1.5649    1.7382    1.2633 H   0  0  0  0  0  0  0  0  0  0  0  0
   -2.1673    3.6197    0.3004 N   0  0  0  0  0  0  0  0  0  0  0  0
   -2.2502    4.2115    1.1141 H   0  0  0  0  0  0  0  0  0  0  0  0
   -2.3816    4.0296   -0.9983 C   0  0  0  0  0  0  0  0  0  0  0  0
   -2.7258    5.2633   -1.5693 C   0  0  0  0  0  0  0  0  0  0  0  0
   -2.8817    6.1309   -0.9451 H   0  0  0  0  0  0  0  0  0  0  0  0
   -2.8667    5.3543   -2.9646 C   0  0  0  0  0  0  0  0  0  0  0  0
   -3.1327    6.2974   -3.4226 H   0  0  0  0  0  0  0  0  0  0  0  0
   -2.6676    4.2146   -3.7651 C   0  0  0  0  0  0  0  0  0  0  0  0
   -2.7852    4.2872   -4.8374 H   0  0  0  0  0  0  0  0  0  0  0  0
   -2.3239    2.9793   -3.1802 C   0  0  0  0  0  0  0  0  0  0  0  0
   -2.1870    2.1085   -3.8055 H   0  0  0  0  0  0  0  0  0  0  0  0
   -2.1688    2.8564   -1.7824 C   0  0  0  0  0  0  0  0  0  0  0  0
   -1.2663    0.1182    1.2910 C   0  0  0  0  0  0  0  0  0  0  0  0
   -0.1906    0.1931    1.8833 O   0  0  0  0  0  0  0  0  0  0  0  0
   -2.3930    0.6605    1.7722 N   0  0  0  0  0  0  0  0  0  0  0  0
   -3.2451    0.5077    1.2518 H   0  0  0  0  0  0  0  0  0  0  0  0
   -2.4787    1.3954    3.0311 C   0  0  0  0  0  0  0  0  0  0  0  0
   -1.7166    2.1767    3.0539 H   0  0  0  0  0  0  0  0  0  0  0  0
   -3.4649    1.8498    3.1344 H   0  0  0  0  0  0  0  0  0  0  0  0
   -2.3058    0.7133    3.8652 H   0  0  0  0  0  0  0  0  0  0  0  0
  5  6  2  0  0  0  0
  5  7  1  0  0  0  0
  2  3  1  0  0  0  0
  2  4  1  0  0  0  0
  2  5  1  0  0  0  0
  1  2  1  0  0  0  0
 29 30  2  0  0  0  0
 29 31  1  0  0  0  0
 26 27  1  0  0  0  0
 26 28  2  0  0  0  0
 24 25  1  0  0  0  0
 24 26  1  0  0  0  0
 22 23  1  0  0  0  0
 22 24  2  0  0  0  0
 20 21  1  0  0  0  0
 20 22  1  0  0  0  0
 19 20  2  0  0  0  0
 19 28  1  0  0  0  0
 17 18  1  0  0  0  0
 17 19  1  0  0  0  0
 15 16  1  0  0  0  0
 15 17  1  0  0  0  0
 14 15  2  0  0  0  0
 14 28  1  0  0  0  0
 11 12  1  0  0  0  0
 11 13  1  0  0  0  0
 11 14  1  0  0  0  0
  9 10  1  0  0  0  0
  9 11  1  0  0  0  0
  9 29  1  0  0  0  0
  7  8  1  0  0  0  0
  7  9  1  0  0  0  0
 33 34  1  0  0  0  0
 33 35  1  0  0  0  0
 33 36  1  0  0  0  0
 31 32  1  0  0  0  0
 31 33  1  0  0  0  0
M  END
$$$$
default_name
  -OEChem-02102213163D

 36 37  0     1  0  0  0  0  0999 V2000
   -4.0843   -4.0736    1.2944 H   0  0  0  0  0  0  0  0  0  0  0  0
   -4.0342   -3.2816    0.5484 C   0  0  0  0  0  0  0  0  0  0  0  0
   -4.8842   -2.6126    0.6694 H   0  0  0  0  0  0  0  0  0  0  0  0
   -4.0433   -3.7186   -0.4486 H   0  0  0  0  0  0  0  0  0  0  0  0
   -2.7532   -2.5046    0.7444 C   0  0  0  0  0  0  0  0  0  0  0  0
   -1.9803   -2.8096    1.6434 O   0  0  0  0  0  0  0  0  0  0  0  0
   -2.5332   -1.4966   -0.0966 N   0  0  0  0  0  0  0  0  0  0  0  0
   -3.2312   -1.2816   -0.7936 H   0  0  0  0  0  0  0  0  0  0  0  0
   -1.3593   -0.6196   -0.0536 C   0  0  1  0  0  0  0  0  0  0  0  0
   -0.4622   -1.2317   -0.1545 H   0  0  0  0  0  0  0  0  0  0  0  0
   -1.4074    0.3593   -1.2373 C   0  0  0  0  0  0  0  0  0  0  0  0
   -0.4246    0.3865   -1.7113 H   0  0  0  0  0  0  0  0  0  0  0  0
   -2.1185   -0.0201   -1.9731 H   0  0  0  0  0  0  0  0  0  0  0  0
   -1.7916    1.7647   -0.8862 C   0  0  0  0  0  0  0  0  0  0  0  0
   -1.5456    2.3758    0.2943 C   0  0  0  0  0  0  0  0  0  0  0  0
   -1.0530    1.9089    1.1402 H   0  0  0  0  0  0  0  0  0  0  0  0
   -1.9975    3.6800    0.2450 N   0  0  0  0  0  0  0  0  0  0  0  0
   -1.9226    4.3251    1.0180 H   0  0  0  0  0  0  0  0  0  0  0  0
   -2.5457    3.9811   -0.9836 C   0  0  0  0  0  0  0  0  0  0  0  0
   -3.1012    5.1495   -1.5246 C   0  0  0  0  0  0  0  0  0  0  0  0
   -3.1616    6.0514   -0.9334 H   0  0  0  0  0  0  0  0  0  0  0  0
   -3.5797    5.1297   -2.8458 C   0  0  0  0  0  0  0  0  0  0  0  0
   -4.0124    6.0212   -3.2795 H   0  0  0  0  0  0  0  0  0  0  0  0
   -3.5012    3.9460   -3.6021 C   0  0  0  0  0  0  0  0  0  0  0  0
   -3.8781    3.9330   -4.6154 H   0  0  0  0  0  0  0  0  0  0  0  0
   -2.9427    2.7770   -3.0475 C   0  0  0  0  0  0  0  0  0  0  0  0
   -2.9006    1.8708   -3.6349 H   0  0  0  0  0  0  0  0  0  0  0  0
   -2.4476    2.7659   -1.7254 C   0  0  0  0  0  0  0  0  0  0  0  0
   -1.2663    0.1182    1.2910 C   0  0  0  0  0  0  0  0  0  0  0  0
   -0.1906    0.1931    1.8833 O   0  0  0  0  0  0  0  0  0  0  0  0
   -2.3930    0.6605    1.7722 N   0  0  0  0  0  0  0  0  0  0  0  0
   -3.2451    0.5077    1.2518 H   0  0  0  0  0  0  0  0  0  0  0  0
   -2.4787    1.3954    3.0311 C   0  0  0  0  0  0  0  0  0  0  0  0
   -1.7166    2.1767    3.0539 H   0  0  0  0  0  0  0  0  0  0  0  0
   -3.4649    1.8498    3.1344 H   0  0  0  0  0  0  0  0  0  0  0  0
   -2.3058    0.7133    3.8652 H   0  0  0  0  0  0  0  0  0  0  0  0
  5  6  2  0  0  0  0
  5  7  1  0  0  0  0
  2  3  1  0  0  0  0
  2  4  1  0  0  0  0
  2  5  1  0  0  0  0
  1  2  1  0  0  0  0
 29 30  2  0  0  0  0
 29 31  1  0  0  0  0
 26 27  1  0  0  0  0
 26 28  2  0  0  0  0
 24 25  1  0  0  0  0
 24 26  1  0  0  0  0
 22 23  1  0  0  0  0
 22 24  2  0  0  0  0
 20 21  1  0  0  0  0
 20 22  1  0  0  0  0
 19 20  2  0  0  0  0
 19 28  1  0  0  0  0
 17 18  1  0  0  0  0
 17 19  1  0  0  0  0
 15 16  1  0  0  0  0
 15 17  1  0  0  0  0
 14 15  2  0  0  0  0
 14 28  1  0  0  0  0
 11 12  1  0  0  0  0
 11 13  1  0  0  0  0
 11 14  1  0  0  0  0
  9 10  1  0  0  0  0
  9 11  1  0  0  0  0
  9 29  1  0  0  0  0
  7  8  1  0  0  0  0
  7  9  1  0  0  0  0
 33 34  1  0  0  0  0
 33 35  1  0  0  0  0
 33 36  1  0  0  0  0
 31 32  1  0  0  0  0
 31 33  1  0  0  0  0
M  END
$$$$
default_name
  -OEChem-02102213163D

 36 37  0     1  0  0  0  0  0999 V2000
   -4.0843   -4.0736    1.2944 H   0  0  0  0  0  0  0  0  0  0  0  0
   -4.0342   -3.2816    0.5484 C   0  0  0  0  0  0  0  0  0  0  0  0
   -4.8842   -2.6126    0.6694 H   0  0  0  0  0  0  0  0  0  0  0  0
   -4.0433   -3.7186   -0.4486 H   0  0  0  0  0  0  0  0  0  0  0  0
   -2.7532   -2.5046    0.7444 C   0  0  0  0  0  0  0  0  0  0  0  0
   -1.9803   -2.8096    1.6434 O   0  0  0  0  0  0  0  0  0  0  0  0
   -2.5332   -1.4966   -0.0966 N   0  0  0  0  0  0  0  0  0  0  0  0
   -3.2312   -1.2816   -0.7936 H   0  0  0  0  0  0  0  0  0  0  0  0
   -1.3593   -0.6196   -0.0536 C   0  0  1  0  0  0  0  0  0  0  0  0
   -0.4622   -1.2317   -0.1545 H   0  0  0  0  0  0  0  0  0  0  0  0
   -1.4074    0.3593   -1.2373 C   0  0  0  0  0  0  0  0  0  0  0  0
   -0.4246    0.3865   -1.7113 H   0  0  0  0  0  0  0  0  0  0  0  0
   -2.1185   -0.0201   -1.9731 H   0  0  0  0  0  0  0  0  0  0  0  0
   -1.7916    1.7647   -0.8862 C   0  0  0  0  0  0  0  0  0  0  0  0
   -1.3113    2.4734    0.1601 C   0  0  0  0  0  0  0  0  0  0  0  0
   -0.5988    2.0966    0.8857 H   0  0  0  0  0  0  0  0  0  0  0  0
   -1.8505    3.7449    0.1462 N   0  0  0  0  0  0  0  0  0  0  0  0
   -1.6363    4.4483    0.8380 H   0  0  0  0  0  0  0  0  0  0  0  0
   -2.6977    3.9252   -0.9264 C   0  0  0  0  0  0  0  0  0  0  0  0
   -3.4461    5.0198   -1.3827 C   0  0  0  0  0  0  0  0  0  0  0  0
   -3.4244    5.9585   -0.8489 H   0  0  0  0  0  0  0  0  0  0  0  0
   -4.2260    4.8775   -2.5431 C   0  0  0  0  0  0  0  0  0  0  0  0
   -4.8106    5.7105   -2.9094 H   0  0  0  0  0  0  0  0  0  0  0  0
   -4.2505    3.6469   -3.2246 C   0  0  0  0  0  0  0  0  0  0  0  0
   -4.8584    3.5393   -4.1123 H   0  0  0  0  0  0  0  0  0  0  0  0
   -3.4958    2.5529   -2.7557 C   0  0  0  0  0  0  0  0  0  0  0  0
   -3.5341    1.6092   -3.2812 H   0  0  0  0  0  0  0  0  0  0  0  0
   -2.6976    2.6655   -1.5968 C   0  0  0  0  0  0  0  0  0  0  0  0
   -1.2663    0.1182    1.2910 C   0  0  0  0  0  0  0  0  0  0  0  0
   -0.1906    0.1931    1.8833 O   0  0  0  0  0  0  0  0  0  0  0  0
   -2.3930    0.6605    1.7722 N   0  0  0  0  0  0  0  0  0  0  0  0
   -3.2451    0.5077    1.2518 H   0  0  0  0  0  0  0  0  0  0  0  0
   -2.4787    1.3954    3.0311 C   0  0  0  0  0  0  0  0  0  0  0  0
   -1.7166    2.1767    3.0539 H   0  0  0  0  0  0  0  0  0  0  0  0
   -3.4649    1.8498    3.1344 H   0  0  0  0  0  0  0  0  0  0  0  0
   -2.3058    0.7133    3.8652 H   0  0  0  0  0  0  0  0  0  0  0  0
  5  6  2  0  0  0  0
  5  7  1  0  0  0  0
  2  3  1  0  0  0  0
  2  4  1  0  0  0  0
  2  5  1  0  0  0  0
  1  2  1  0  0  0  0
 29 30  2  0  0  0  0
 29 31  1  0  0  0  0
 26 27  1  0  0  0  0
 26 28  2  0  0  0  0
 24 25  1  0  0  0  0
 24 26  1  0  0  0  0
 22 23  1  0  0  0  0
 22 24  2  0  0  0  0
 20 21  1  0  0  0  0
 20 22  1  0  0  0  0
 19 20  2  0  0  0  0
 19 28  1  0  0  0  0
 17 18  1  0  0  0  0
 17 19  1  0  0  0  0
 15 16  1  0  0  0  0
 15 17  1  0  0  0  0
 14 15  2  0  0  0  0
 14 28  1  0  0  0  0
 11 12  1  0  0  0  0
 11 13  1  0  0  0  0
 11 14  1  0  0  0  0
  9 10  1  0  0  0  0
  9 11  1  0  0  0  0
  9 29  1  0  0  0  0
  7  8  1  0  0  0  0
  7  9  1  0  0  0  0
 33 34  1  0  0  0  0
 33 35  1  0  0  0  0
 33 36  1  0  0  0  0
 31 32  1  0  0  0  0
 31 33  1  0  0  0  0
M  END
$$$$
default_name
  -OEChem-02102213163D

 36 37  0     1  0  0  0  0  0999 V2000
   -4.0843   -4.0736    1.2944 H   0  0  0  0  0  0  0  0  0  0  0  0
   -4.0342   -3.2816    0.5484 C   0  0  0  0  0  0  0  0  0  0  0  0
   -4.8842   -2.6126    0.6694 H   0  0  0  0  0  0  0  0  0  0  0  0
   -4.0433   -3.7186   -0.4486 H   0  0  0  0  0  0  0  0  0  0  0  0
   -2.7532   -2.5046    0.7444 C   0  0  0  0  0  0  0  0  0  0  0  0
   -1.9803   -2.8096    1.6434 O   0  0  0  0  0  0  0  0  0  0  0  0
   -2.5332   -1.4966   -0.0966 N   0  0  0  0  0  0  0  0  0  0  0  0
   -3.2312   -1.2816   -0.7936 H   0  0  0  0  0  0  0  0  0  0  0  0
   -1.3593   -0.6196   -0.0536 C   0  0  1  0  0  0  0  0  0  0  0  0
   -0.4622   -1.2317   -0.1545 H   0  0  0  0  0  0  0  0  0  0  0  0
   -1.4074    0.3593   -1.2373 C   0  0  0  0  0  0  0  0  0  0  0  0
   -0.4246    0.3865   -1.7113 H   0  0  0  0  0  0  0  0  0  0  0  0
   -2.1185   -0.0201   -1.9731 H   0  0  0  0  0  0  0  0  0  0  0  0
   -1.7916    1.7647   -0.8862 C   0  0  0  0  0  0  0  0  0  0  0  0
   -1.1236    2.5729   -0.0328 C   0  0  0  0  0  0  0  0  0  0  0  0
   -0.2331    2.2886    0.5171 H   0  0  0  0  0  0  0  0  0  0  0  0
   -1.7364    3.8099    0.0108 N   0  0  0  0  0  0  0  0  0  0  0  0
   -1.4110    4.5727    0.5865 H   0  0  0  0  0  0  0  0  0  0  0  0
   -2.8272    3.8659   -0.8305 C   0  0  0  0  0  0  0  0  0  0  0  0
   -3.7369    4.8830   -1.1534 C   0  0  0  0  0  0  0  0  0  0  0  0
   -3.6521    5.8584   -0.6973 H   0  0  0  0  0  0  0  0  0  0  0  0
   -4.7615    4.6147   -2.0772 C   0  0  0  0  0  0  0  0  0  0  0  0
   -5.4729    5.3866   -2.3376 H   0  0  0  0  0  0  0  0  0  0  0  0
   -4.8645    3.3375   -2.6583 C   0  0  0  0  0  0  0  0  0  0  0  0
   -5.6593    3.1330   -3.3622 H   0  0  0  0  0  0  0  0  0  0  0  0
   -3.9457    2.3222   -2.3248 C   0  0  0  0  0  0  0  0  0  0  0  0
   -4.0443    1.3417   -2.7684 H   0  0  0  0  0  0  0  0  0  0  0  0
   -2.9018    2.5618   -1.4051 C   0  0  0  0  0  0  0  0  0  0  0  0
   -1.2663    0.1182    1.2910 C   0  0  0  0  0  0  0  0  0  0  0  0
   -0.1906    0.1931    1.8833 O   0  0  0  0  0  0  0  0  0  0  0  0
   -2.3930    0.6605    1.7722 N   0  0  0  0  0  0  0  0  0  0  0  0
   -3.2451    0.5077    1.2518 H   0  0  0  0  0  0  0  0  0  0  0  0
   -2.4787    1.3954    3.0311 C   0  0  0  0  0  0  0  0  0  0  0  0
   -1.7166    2.1767    3.0539 H   0  0  0  0  0  0  0  0  0  0  0  0
   -3.4649    1.8498    3.1344 H   0  0  0  0  0  0  0  0  0  0  0  0
   -2.3058    0.7133    3.8652 H   0  0  0  0  0  0  0  0  0  0  0  0
  5  6  2  0  0  0  0
  5  7  1  0  0  0  0
  2  3  1  0  0  0  0
  2  4  1  0  0  0  0
  2  5  1  0  0  0  0
  1  2  1  0  0  0  0
 29 30  2  0  0  0  0
 29 31  1  0  0  0  0
 26 27  1  0  0  0  0
 26 28  2  0  0  0  0
 24 25  1  0  0  0  0
 24 26  1  0  0  0  0
 22 23  1  0  0  0  0
 22 24  2  0  0  0  0
 20 21  1  0  0  0  0
 20 22  1  0  0  0  0
 19 20  2  0  0  0  0
 19 28  1  0  0  0  0
 17 18  1  0  0  0  0
 17 19  1  0  0  0  0
 15 16  1  0  0  0  0
 15 17  1  0  0  0  0
 14 15  2  0  0  0  0
 14 28  1  0  0  0  0
 11 12  1  0  0  0  0
 11 13  1  0  0  0  0
 11 14  1  0  0  0  0
  9 10  1  0  0  0  0
  9 11  1  0  0  0  0
  9 29  1  0  0  0  0
  7  8  1  0  0  0  0
  7  9  1  0  0  0  0
 33 34  1  0  0  0  0
 33 35  1  0  0  0  0
 33 36  1  0  0  0  0
 31 32  1  0  0  0  0
 31 33  1  0  0  0  0
M  END
$$$$
default_name
  -OEChem-02102213163D

 36 37  0     1  0  0  0  0  0999 V2000
   -4.0843   -4.0736    1.2944 H   0  0  0  0  0  0  0  0  0  0  0  0
   -4.0342   -3.2816    0.5484 C   0  0  0  0  0  0  0  0  0  0  0  0
   -4.8842   -2.6126    0.6694 H   0  0  0  0  0  0  0  0  0  0  0  0
   -4.0433   -3.7186   -0.4486 H   0  0  0  0  0  0  0  0  0  0  0  0
   -2.7532   -2.5046    0.7444 C   0  0  0  0  0  0  0  0  0  0  0  0
   -1.9803   -2.8096    1.6434 O   0  0  0  0  0  0  0  0  0  0  0  0
   -2.5332   -1.4966   -0.0966 N   0  0  0  0  0  0  0  0  0  0  0  0
   -3.2312   -1.2816   -0.7936 H   0  0  0  0  0  0  0  0  0  0  0  0
   -1.3593   -0.6196   -0.0536 C   0  0  1  0  0  0  0  0  0  0  0  0
   -0.4622   -1.2317   -0.1545 H   0  0  0  0  0  0  0  0  0  0  0  0
   -1.4074    0.3593   -1.2373 C   0  0  0  0  0  0  0  0  0  0  0  0
   -0.4246    0.3865   -1.7113 H   0  0  0  0  0  0  0  0  0  0  0  0
   -2.1185   -0.0201   -1.9731 H   0  0  0  0  0  0  0  0  0  0  0  0
   -1.7916    1.7647   -0.8862 C   0  0  0  0  0  0  0  0  0  0  0  0
   -0.9951    2.6676   -0.2714 C   0  0  0  0  0  0  0  0  0  0  0  0
    0.0189    2.4718    0.0597 H   0  0  0  0  0  0  0  0  0  0  0  0
   -1.6630    3.8706   -0.1519 N   0  0  0  0  0  0  0  0  0  0  0  0
   -1.2619    4.6898    0.2806 H   0  0  0  0  0  0  0  0  0  0  0  0
   -2.9254    3.8070   -0.7025 C   0  0  0  0  0  0  0  0  0  0  0  0
   -3.9539    4.7484   -0.8522 C   0  0  0  0  0  0  0  0  0  0  0  0
   -3.8291    5.7579   -0.4890 H   0  0  0  0  0  0  0  0  0  0  0  0
   -5.1497    4.3593   -1.4797 C   0  0  0  0  0  0  0  0  0  0  0  0
   -5.9543    5.0715   -1.6030 H   0  0  0  0  0  0  0  0  0  0  0  0
   -5.3014    3.0391   -1.9416 C   0  0  0  0  0  0  0  0  0  0  0  0
   -6.2262    2.7417   -2.4164 H   0  0  0  0  0  0  0  0  0  0  0  0
   -4.2617    2.1008   -1.7840 C   0  0  0  0  0  0  0  0  0  0  0  0
   -4.3964    1.0863   -2.1315 H   0  0  0  0  0  0  0  0  0  0  0  0
   -3.0462    2.4620   -1.1636 C   0  0  0  0  0  0  0  0  0  0  0  0
   -1.2663    0.1182    1.2910 C   0  0  0  0  0  0  0  0  0  0  0  0
   -0.1906    0.1931    1.8833 O   0  0  0  0  0  0  0  0  0  0  0  0
   -2.3930    0.6605    1.7722 N   0  0  0  0  0  0  0  0  0  0  0  0
   -3.2451    0.5077    1.2518 H   0  0  0  0  0  0  0  0  0  0  0  0
   -2.4787    1.3954    3.0311 C   0  0  0  0  0  0  0  0  0  0  0  0
   -1.7166    2.1767    3.0539 H   0  0  0  0  0  0  0  0  0  0  0  0
   -3.4649    1.8498    3.1344 H   0  0  0  0  0  0  0  0  0  0  0  0
   -2.3058    0.7133    3.8652 H   0  0  0  0  0  0  0  0  0  0  0  0
  5  6  2  0  0  0  0
  5  7  1  0  0  0  0
  2  3  1  0  0  0  0
  2  4  1  0  0  0  0
  2  5  1  0  0  0  0
  1  2  1  0  0  0  0
 29 30  2  0  0  0  0
 29 31  1  0  0  0  0
 26 27  1  0  0  0  0
 26 28  2  0  0  0  0
 24 25  1  0  0  0  0
 24 26  1  0  0  0  0
 22 23  1  0  0  0  0
 22 24  2  0  0  0  0
 20 21  1  0  0  0  0
 20 22  1  0  0  0  0
 19 20  2  0  0  0  0
 19 28  1  0  0  0  0
 17 18  1  0  0  0  0
 17 19  1  0  0  0  0
 15 16  1  0  0  0  0
 15 17  1  0  0  0  0
 14 15  2  0  0  0  0
 14 28  1  0  0  0  0
 11 12  1  0  0  0  0
 11 13  1  0  0  0  0
 11 14  1  0  0  0  0
  9 10  1  0  0  0  0
  9 11  1  0  0  0  0
  9 29  1  0  0  0  0
  7  8  1  0  0  0  0
  7  9  1  0  0  0  0
 33 34  1  0  0  0  0
 33 35  1  0  0  0  0
 33 36  1  0  0  0  0
 31 32  1  0  0  0  0
 31 33  1  0  0  0  0
M  END
$$$$
default_name
  -OEChem-02102213163D

 36 37  0     1  0  0  0  0  0999 V2000
   -4.0843   -4.0736    1.2944 H   0  0  0  0  0  0  0  0  0  0  0  0
   -4.0342   -3.2816    0.5484 C   0  0  0  0  0  0  0  0  0  0  0  0
   -4.8842   -2.6126    0.6694 H   0  0  0  0  0  0  0  0  0  0  0  0
   -4.0433   -3.7186   -0.4486 H   0  0  0  0  0  0  0  0  0  0  0  0
   -2.7532   -2.5046    0.7444 C   0  0  0  0  0  0  0  0  0  0  0  0
   -1.9803   -2.8096    1.6434 O   0  0  0  0  0  0  0  0  0  0  0  0
   -2.5332   -1.4966   -0.0966 N   0  0  0  0  0  0  0  0  0  0  0  0
   -3.2312   -1.2816   -0.7936 H   0  0  0  0  0  0  0  0  0  0  0  0
   -1.3593   -0.6196   -0.0536 C   0  0  1  0  0  0  0  0  0  0  0  0
   -0.4622   -1.2317   -0.1545 H   0  0  0  0  0  0  0  0  0  0  0  0
   -1.4074    0.3593   -1.2373 C   0  0  0  0  0  0  0  0  0  0  0  0
   -0.4246    0.3865   -1.7113 H   0  0  0  0  0  0  0  0  0  0  0  0
   -2.1185   -0.0201   -1.9731 H   0  0  0  0  0  0  0  0  0  0  0  0
   -1.7916    1.7647   -0.8862 C   0  0  0  0  0  0  0  0  0  0  0  0
   -0.9346    2.7511   -0.5393 C   0  0  0  0  0  0  0  0  0  0  0  0
    0.1403    2.6337   -0.4555 H   0  0  0  0  0  0  0  0  0  0  0  0
   -1.6353    3.9229   -0.3310 N   0  0  0  0  0  0  0  0  0  0  0  0
   -1.1993    4.7918   -0.0587 H   0  0  0  0  0  0  0  0  0  0  0  0
   -2.9856    3.7528   -0.5511 C   0  0  0  0  0  0  0  0  0  0  0  0
   -4.0822    4.6253   -0.4997 C   0  0  0  0  0  0  0  0  0  0  0  0
   -3.9435    5.6640   -0.2381 H   0  0  0  0  0  0  0  0  0  0  0  0
   -5.3641    4.1287   -0.7914 C   0  0  0  0  0  0  0  0  0  0  0  0
   -6.2219    4.7867   -0.7557 H   0  0  0  0  0  0  0  0  0  0  0  0
   -5.5314    2.7719   -1.1236 C   0  0  0  0  0  0  0  0  0  0  0  0
   -6.5205    2.3922   -1.3392 H   0  0  0  0  0  0  0  0  0  0  0  0
   -4.4223    1.9036   -1.1703 C   0  0  0  0  0  0  0  0  0  0  0  0
   -4.5665    0.8605   -1.4139 H   0  0  0  0  0  0  0  0  0  0  0  0
   -3.1210    2.3728   -0.8887 C   0  0  0  0  0  0  0  0  0  0  0  0
   -1.2663    0.1182    1.2910 C   0  0  0  0  0  0  0  0  0  0  0  0
   -0.1906    0.1931    1.8833 O   0  0  0  0  0  0  0  0  0  0  0  0
   -2.3930    0.6605    1.7722 N   0  0  0  0  0  0  0  0  0  0  0  0
   -3.2451    0.5077    1.2518 H   0  0  0  0  0  0  0  0  0  0  0  0
   -2.4787    1.3954    3.0311 C   0  0  0  0  0  0  0  0  0  0  0  0
   -1.7166    2.1767    3.0539 H   0  0  0  0  0  0  0  0  0  0  0  0
   -3.4649    1.8498    3.1344 H   0  0  0  0  0  0  0  0  0  0  0  0
   -2.3058    0.7133    3.8652 H   0  0  0  0  0  0  0  0  0  0  0  0
  5  6  2  0  0  0  0
  5  7  1  0  0  0  0
  2  3  1  0  0  0  0
  2  4  1  0  0  0  0
  2  5  1  0  0  0  0
  1  2  1  0  0  0  0
 29 30  2  0  0  0  0
 29 31  1  0  0  0  0
 26 27  1  0  0  0  0
 26 28  2  0  0  0  0
 24 25  1  0  0  0  0
 24 26  1  0  0  0  0
 22 23  1  0  0  0  0
 22 24  2  0  0  0  0
 20 21  1  0  0  0  0
 20 22  1  0  0  0  0
 19 20  2  0  0  0  0
 19 28  1  0  0  0  0
 17 18  1  0  0  0  0
 17 19  1  0  0  0  0
 15 16  1  0  0  0  0
 15 17  1  0  0  0  0
 14 15  2  0  0  0  0
 14 28  1  0  0  0  0
 11 12  1  0  0  0  0
 11 13  1  0  0  0  0
 11 14  1  0  0  0  0
  9 10  1  0  0  0  0
  9 11  1  0  0  0  0
  9 29  1  0  0  0  0
  7  8  1  0  0  0  0
  7  9  1  0  0  0  0
 33 34  1  0  0  0  0
 33 35  1  0  0  0  0
 33 36  1  0  0  0  0
 31 32  1  0  0  0  0
 31 33  1  0  0  0  0
M  END
$$$$
default_name
  -OEChem-02102213163D

 36 37  0     1  0  0  0  0  0999 V2000
   -4.0843   -4.0736    1.2944 H   0  0  0  0  0  0  0  0  0  0  0  0
   -4.0342   -3.2816    0.5484 C   0  0  0  0  0  0  0  0  0  0  0  0
   -4.8842   -2.6126    0.6694 H   0  0  0  0  0  0  0  0  0  0  0  0
   -4.0433   -3.7186   -0.4486 H   0  0  0  0  0  0  0  0  0  0  0  0
   -2.7532   -2.5046    0.7444 C   0  0  0  0  0  0  0  0  0  0  0  0
   -1.9803   -2.8096    1.6434 O   0  0  0  0  0  0  0  0  0  0  0  0
   -2.5332   -1.4966   -0.0966 N   0  0  0  0  0  0  0  0  0  0  0  0
   -3.2312   -1.2816   -0.7936 H   0  0  0  0  0  0  0  0  0  0  0  0
   -1.3593   -0.6196   -0.0536 C   0  0  1  0  0  0  0  0  0  0  0  0
   -0.4622   -1.2317   -0.1545 H   0  0  0  0  0  0  0  0  0  0  0  0
   -1.4074    0.3593   -1.2373 C   0  0  0  0  0  0  0  0  0  0  0  0
   -0.4246    0.3865   -1.7113 H   0  0  0  0  0  0  0  0  0  0  0  0
   -2.1185   -0.0201   -1.9731 H   0  0  0  0  0  0  0  0  0  0  0  0
   -1.7916    1.7647   -0.8862 C   0  0  0  0  0  0  0  0  0  0  0  0
   -0.9463    2.8176   -0.8182 C   0  0  0  0  0  0  0  0  0  0  0  0
    0.1226    2.7632   -0.9934 H   0  0  0  0  0  0  0  0  0  0  0  0
   -1.6552    3.9632   -0.5142 N   0  0  0  0  0  0  0  0  0  0  0  0
   -1.2273    4.8715   -0.4085 H   0  0  0  0  0  0  0  0  0  0  0  0
   -3.0038    3.7067   -0.3866 C   0  0  0  0  0  0  0  0  0  0  0  0
   -4.1131    4.5219   -0.1198 C   0  0  0  0  0  0  0  0  0  0  0  0
   -3.9873    5.5830    0.0382 H   0  0  0  0  0  0  0  0  0  0  0  0
   -5.3903    3.9387   -0.0591 C   0  0  0  0  0  0  0  0  0  0  0  0
   -6.2574    4.5516    0.1466 H   0  0  0  0  0  0  0  0  0  0  0  0
   -5.5388    2.5541   -0.2599 C   0  0  0  0  0  0  0  0  0  0  0  0
   -6.5222    2.1082   -0.2041 H   0  0  0  0  0  0  0  0  0  0  0  0
   -4.4165    1.7441   -0.5254 C   0  0  0  0  0  0  0  0  0  0  0  0
   -4.5429    0.6798   -0.6645 H   0  0  0  0  0  0  0  0  0  0  0  0
   -3.1211    2.3004   -0.5990 C   0  0  0  0  0  0  0  0  0  0  0  0
   -1.2663    0.1182    1.2910 C   0  0  0  0  0  0  0  0  0  0  0  0
   -0.1906    0.1931    1.8833 O   0  0  0  0  0  0  0  0  0  0  0  0
   -2.3930    0.6605    1.7722 N   0  0  0  0  0  0  0  0  0  0  0  0
   -3.2451    0.5077    1.2518 H   0  0  0  0  0  0  0  0  0  0  0  0
   -2.4787    1.3954    3.0311 C   0  0  0  0  0  0  0  0  0  0  0  0
   -1.7166    2.1767    3.0539 H   0  0  0  0  0  0  0  0  0  0  0  0
   -3.4649    1.8498    3.1344 H   0  0  0  0  0  0  0  0  0  0  0  0
   -2.3058    0.7133    3.8652 H   0  0  0  0  0  0  0  0  0  0  0  0
  5  6  2  0  0  0  0
  5  7  1  0  0  0  0
  2  3  1  0  0  0  0
  2  4  1  0  0  0  0
  2  5  1  0  0  0  0
  1  2  1  0  0  0  0
 29 30  2  0  0  0  0
 29 31  1  0  0  0  0
 26 27  1  0  0  0  0
 26 28  2  0  0  0  0
 24 25  1  0  0  0  0
 24 26  1  0  0  0  0
 22 23  1  0  0  0  0
 22 24  2  0  0  0  0
 20 21  1  0  0  0  0
 20 22  1  0  0  0  0
 19 20  2  0  0  0  0
 19 28  1  0  0  0  0
 17 18  1  0  0  0  0
 17 19  1  0  0  0  0
 15 16  1  0  0  0  0
 15 17  1  0  0  0  0
 14 15  2  0  0  0  0
 14 28  1  0  0  0  0
 11 12  1  0  0  0  0
 11 13  1  0  0  0  0
 11 14  1  0  0  0  0
  9 10  1  0  0  0  0
  9 11  1  0  0  0  0
  9 29  1  0  0  0  0
  7  8  1  0  0  0  0
  7  9  1  0  0  0  0
 33 34  1  0  0  0  0
 33 35  1  0  0  0  0
 33 36  1  0  0  0  0
 31 32  1  0  0  0  0
 31 33  1  0  0  0  0
M  END
$$$$
default_name
  -OEChem-02102213163D

 36 37  0     1  0  0  0  0  0999 V2000
   -4.0843   -4.0736    1.2944 H   0  0  0  0  0  0  0  0  0  0  0  0
   -4.0342   -3.2816    0.5484 C   0  0  0  0  0  0  0  0  0  0  0  0
   -4.8842   -2.6126    0.6694 H   0  0  0  0  0  0  0  0  0  0  0  0
   -4.0433   -3.7186   -0.4486 H   0  0  0  0  0  0  0  0  0  0  0  0
   -2.7532   -2.5046    0.7444 C   0  0  0  0  0  0  0  0  0  0  0  0
   -1.9803   -2.8096    1.6434 O   0  0  0  0  0  0  0  0  0  0  0  0
   -2.5332   -1.4966   -0.0966 N   0  0  0  0  0  0  0  0  0  0  0  0
   -3.2312   -1.2816   -0.7936 H   0  0  0  0  0  0  0  0  0  0  0  0
   -1.3593   -0.6196   -0.0536 C   0  0  1  0  0  0  0  0  0  0  0  0
   -0.4622   -1.2317   -0.1545 H   0  0  0  0  0  0  0  0  0  0  0  0
   -1.4074    0.3593   -1.2373 C   0  0  0  0  0  0  0  0  0  0  0  0
   -0.4246    0.3865   -1.7113 H   0  0  0  0  0  0  0  0  0  0  0  0
   -2.1185   -0.0201   -1.9731 H   0  0  0  0  0  0  0  0  0  0  0  0
   -1.7916    1.7647   -0.8862 C   0  0  0  0  0  0  0  0  0  0  0  0
   -1.0293    2.8626   -1.0893 C   0  0  0  0  0  0  0  0  0  0  0  0
   -0.0328    2.8516   -1.5172 H   0  0  0  0  0  0  0  0  0  0  0  0
   -1.7213    3.9888   -0.6889 N   0  0  0  0  0  0  0  0  0  0  0  0
   -1.3441    4.9236   -0.7449 H   0  0  0  0  0  0  0  0  0  0  0  0
   -2.9786    3.6721   -0.2203 C   0  0  0  0  0  0  0  0  0  0  0  0
   -4.0445    4.4454    0.2614 C   0  0  0  0  0  0  0  0  0  0  0  0
   -3.9578    5.5204    0.3211 H   0  0  0  0  0  0  0  0  0  0  0  0
   -5.2263    3.8021    0.6671 C   0  0  0  0  0  0  0  0  0  0  0  0
   -6.0585    4.3822    1.0423 H   0  0  0  0  0  0  0  0  0  0  0  0
   -5.3231    2.4006    0.5906 C   0  0  0  0  0  0  0  0  0  0  0  0
   -6.2310    1.9091    0.9116 H   0  0  0  0  0  0  0  0  0  0  0  0
   -4.2446    1.6331    0.1066 C   0  0  0  0  0  0  0  0  0  0  0  0
   -4.3273    0.5563    0.0657 H   0  0  0  0  0  0  0  0  0  0  0  0
   -3.0465    2.2497   -0.3144 C   0  0  0  0  0  0  0  0  0  0  0  0
   -1.2663    0.1182    1.2910 C   0  0  0  0  0  0  0  0  0  0  0  0
   -0.1906    0.1931    1.8833 O   0  0  0  0  0  0  0  0  0  0  0  0
   -2.3930    0.6605    1.7722 N   0  0  0  0  0  0  0  0  0  0  0  0
   -3.2451    0.5077    1.2518 H   0  0  0  0  0  0  0  0  0  0  0  0
   -2.4787    1.3954    3.0311 C   0  0  0  0  0  0  0  0  0  0  0  0
   -1.7166    2.1767    3.0539 H   0  0  0  0  0  0  0  0  0  0  0  0
   -3.4649    1.8498    3.1344 H   0  0  0  0  0  0  0  0  0  0  0  0
   -2.3058    0.7133    3.8652 H   0  0  0  0  0  0  0  0  0  0  0  0
  5  6  2  0  0  0  0
  5  7  1  0  0  0  0
  2  3  1  0  0  0  0
  2  4  1  0  0  0  0
  2  5  1  0  0  0  0
  1  2  1  0  0  0  0
 29 30  2  0  0  0  0
 29 31  1  0  0  0  0
 26 27  1  0  0  0  0
 26 28  2  0  0  0  0
 24 25  1  0  0  0  0
 24 26  1  0  0  0  0
 22 23  1  0  0  0  0
 22 24  2  0  0  0  0
 20 21  1  0  0  0  0
 20 22  1  0  0  0  0
 19 20  2  0  0  0  0
 19 28  1  0  0  0  0
 17 18  1  0  0  0  0
 17 19  1  0  0  0  0
 15 16  1  0  0  0  0
 15 17  1  0  0  0  0
 14 15  2  0  0  0  0
 14 28  1  0  0  0  0
 11 12  1  0  0  0  0
 11 13  1  0  0  0  0
 11 14  1  0  0  0  0
  9 10  1  0  0  0  0
  9 11  1  0  0  0  0
  9 29  1  0  0  0  0
  7  8  1  0  0  0  0
  7  9  1  0  0  0  0
 33 34  1  0  0  0  0
 33 35  1  0  0  0  0
 33 36  1  0  0  0  0
 31 32  1  0  0  0  0
 31 33  1  0  0  0  0
M  END
$$$$
default_name
  -OEChem-02102213163D

 36 37  0     1  0  0  0  0  0999 V2000
   -4.0843   -4.0736    1.2944 H   0  0  0  0  0  0  0  0  0  0  0  0
   -4.0342   -3.2816    0.5484 C   0  0  0  0  0  0  0  0  0  0  0  0
   -4.8842   -2.6126    0.6694 H   0  0  0  0  0  0  0  0  0  0  0  0
   -4.0433   -3.7186   -0.4486 H   0  0  0  0  0  0  0  0  0  0  0  0
   -2.7532   -2.5046    0.7444 C   0  0  0  0  0  0  0  0  0  0  0  0
   -1.9803   -2.8096    1.6434 O   0  0  0  0  0  0  0  0  0  0  0  0
   -2.5332   -1.4966   -0.0966 N   0  0  0  0  0  0  0  0  0  0  0  0
   -3.2312   -1.2816   -0.7936 H   0  0  0  0  0  0  0  0  0  0  0  0
   -1.3593   -0.6196   -0.0536 C   0  0  1  0  0  0  0  0  0  0  0  0
   -0.4622   -1.2317   -0.1545 H   0  0  0  0  0  0  0  0  0  0  0  0
   -1.4074    0.3593   -1.2373 C   0  0  0  0  0  0  0  0  0  0  0  0
   -0.4246    0.3865   -1.7113 H   0  0  0  0  0  0  0  0  0  0  0  0
   -2.1185   -0.0201   -1.9731 H   0  0  0  0  0  0  0  0  0  0  0  0
   -1.7916    1.7647   -0.8862 C   0  0  0  0  0  0  0  0  0  0  0  0
   -1.1780    2.8831   -1.3340 C   0  0  0  0  0  0  0  0  0  0  0  0
   -0.3155    2.8928   -1.9913 H   0  0  0  0  0  0  0  0  0  0  0  0
   -1.8291    3.9979   -0.8434 N   0  0  0  0  0  0  0  0  0  0  0  0
   -1.5418    4.9445   -1.0449 H   0  0  0  0  0  0  0  0  0  0  0  0
   -2.9118    3.6511   -0.0635 C   0  0  0  0  0  0  0  0  0  0  0  0
   -3.8811    4.4010    0.6181 C   0  0  0  0  0  0  0  0  0  0  0  0
   -3.8567    5.4805    0.5913 H   0  0  0  0  0  0  0  0  0  0  0  0
   -4.8833    3.7283    1.3378 C   0  0  0  0  0  0  0  0  0  0  0  0
   -5.6387    4.2901    1.8705 H   0  0  0  0  0  0  0  0  0  0  0  0
   -4.8990    2.3218    1.3700 C   0  0  0  0  0  0  0  0  0  0  0  0
   -5.6670    1.8084    1.9318 H   0  0  0  0  0  0  0  0  0  0  0  0
   -3.9185    1.5783    0.6828 C   0  0  0  0  0  0  0  0  0  0  0  0
   -3.9343    0.4986    0.7268 H   0  0  0  0  0  0  0  0  0  0  0  0
   -2.9023    2.2241   -0.0542 C   0  0  0  0  0  0  0  0  0  0  0  0
   -1.2663    0.1182    1.2910 C   0  0  0  0  0  0  0  0  0  0  0  0
   -0.1906    0.1931    1.8833 O   0  0  0  0  0  0  0  0  0  0  0  0
   -2.3930    0.6605    1.7722 N   0  0  0  0  0  0  0  0  0  0  0  0
   -3.2451    0.5077    1.2518 H   0  0  0  0  0  0  0  0  0  0  0  0
   -2.4787    1.3954    3.0311 C   0  0  0  0  0  0  0  0  0  0  0  0
   -1.7166    2.1767    3.0539 H   0  0  0  0  0  0  0  0  0  0  0  0
   -3.4649    1.8498    3.1344 H   0  0  0  0  0  0  0  0  0  0  0  0
   -2.3058    0.7133    3.8652 H   0  0  0  0  0  0  0  0  0  0  0  0
  5  6  2  0  0  0  0
  5  7  1  0  0  0  0
  2  3  1  0  0  0  0
  2  4  1  0  0  0  0
  2  5  1  0  0  0  0
  1  2  1  0  0  0  0
 29 30  2  0  0  0  0
 29 31  1  0  0  0  0
 26 27  1  0  0  0  0
 26 28  2  0  0  0  0
 24 25  1  0  0  0  0
 24 26  1  0  0  0  0
 22 23  1  0  0  0  0
 22 24  2  0  0  0  0
 20 21  1  0  0  0  0
 20 22  1  0  0  0  0
 19 20  2  0  0  0  0
 19 28  1  0  0  0  0
 17 18  1  0  0  0  0
 17 19  1  0  0  0  0
 15 16  1  0  0  0  0
 15 17  1  0  0  0  0
 14 15  2  0  0  0  0
 14 28  1  0  0  0  0
 11 12  1  0  0  0  0
 11 13  1  0  0  0  0
 11 14  1  0  0  0  0
  9 10  1  0  0  0  0
  9 11  1  0  0  0  0
  9 29  1  0  0  0  0
  7  8  1  0  0  0  0
  7  9  1  0  0  0  0
 33 34  1  0  0  0  0
 33 35  1  0  0  0  0
 33 36  1  0  0  0  0
 31 32  1  0  0  0  0
 31 33  1  0  0  0  0
M  END
$$$$
default_name
  -OEChem-02102213163D

 36 37  0     1  0  0  0  0  0999 V2000
   -4.0843   -4.0736    1.2944 H   0  0  0  0  0  0  0  0  0  0  0  0
   -4.0342   -3.2816    0.5484 C   0  0  0  0  0  0  0  0  0  0  0  0
   -4.8842   -2.6126    0.6694 H   0  0  0  0  0  0  0  0  0  0  0  0
   -4.0433   -3.7186   -0.4486 H   0  0  0  0  0  0  0  0  0  0  0  0
   -2.7532   -2.5046    0.7444 C   0  0  0  0  0  0  0  0  0  0  0  0
   -1.9803   -2.8096    1.6434 O   0  0  0  0  0  0  0  0  0  0  0  0
   -2.5332   -1.4966   -0.0966 N   0  0  0  0  0  0  0  0  0  0  0  0
   -3.2312   -1.2816   -0.7936 H   0  0  0  0  0  0  0  0  0  0  0  0
   -1.3593   -0.6196   -0.0536 C   0  0  1  0  0  0  0  0  0  0  0  0
   -0.4622   -1.2317   -0.1545 H   0  0  0  0  0  0  0  0  0  0  0  0
   -1.4074    0.3593   -1.2373 C   0  0  0  0  0  0  0  0  0  0  0  0
   -0.4246    0.3865   -1.7113 H   0  0  0  0  0  0  0  0  0  0  0  0
   -2.1185   -0.0201   -1.9731 H   0  0  0  0  0  0  0  0  0  0  0  0
   -1.7916    1.7647   -0.8862 C   0  0  0  0  0  0  0  0  0  0  0  0
   -1.3822    2.8776   -1.5356 C   0  0  0  0  0  0  0  0  0  0  0  0
   -0.7061    2.8839   -2.3834 H   0  0  0  0  0  0  0  0  0  0  0  0
   -1.9713    3.9899   -0.9670 N   0  0  0  0  0  0  0  0  0  0  0  0
   -1.8067    4.9328   -1.2881 H   0  0  0  0  0  0  0  0  0  0  0  0
   -2.8080    3.6454    0.0732 C   0  0  0  0  0  0  0  0  0  0  0  0
   -3.6340    4.3917    0.9259 C   0  0  0  0  0  0  0  0  0  0  0  0
   -3.6911    5.4660    0.8305 H   0  0  0  0  0  0  0  0  0  0  0  0
   -4.3848    3.7223    1.9073 C   0  0  0  0  0  0  0  0  0  0  0  0
   -5.0265    4.2815    2.5747 H   0  0  0  0  0  0  0  0  0  0  0  0
   -4.2954    2.3232    2.0251 C   0  0  0  0  0  0  0  0  0  0  0  0
   -4.8684    1.8131    2.7870 H   0  0  0  0  0  0  0  0  0  0  0  0
   -3.4604    1.5834    1.1639 C   0  0  0  0  0  0  0  0  0  0  0  0
   -3.3908    0.5105    1.2738 H   0  0  0  0  0  0  0  0  0  0  0  0
   -2.6983    2.2254    0.1639 C   0  0  0  0  0  0  0  0  0  0  0  0
   -1.2663    0.1182    1.2910 C   0  0  0  0  0  0  0  0  0  0  0  0
   -0.1906    0.1931    1.8833 O   0  0  0  0  0  0  0  0  0  0  0  0
   -2.3930    0.6605    1.7722 N   0  0  0  0  0  0  0  0  0  0  0  0
   -3.2451    0.5077    1.2518 H   0  0  0  0  0  0  0  0  0  0  0  0
   -2.4787    1.3954    3.0311 C   0  0  0  0  0  0  0  0  0  0  0  0
   -1.7166    2.1767    3.0539 H   0  0  0  0  0  0  0  0  0  0  0  0
   -3.4649    1.8498    3.1344 H   0  0  0  0  0  0  0  0  0  0  0  0
   -2.3058    0.7133    3.8652 H   0  0  0  0  0  0  0  0  0  0  0  0
  5  6  2  0  0  0  0
  5  7  1  0  0  0  0
  2  3  1  0  0  0  0
  2  4  1  0  0  0  0
  2  5  1  0  0  0  0
  1  2  1  0  0  0  0
 29 30  2  0  0  0  0
 29 31  1  0  0  0  0
 26 27  1  0  0  0  0
 26 28  2  0  0  0  0
 24 25  1  0  0  0  0
 24 26  1  0  0  0  0
 22 23  1  0  0  0  0
 22 24  2  0  0  0  0
 20 21  1  0  0  0  0
 20 22  1  0  0  0  0
 19 20  2  0  0  0  0
 19 28  1  0  0  0  0
 17 18  1  0  0  0  0
 17 19  1  0  0  0  0
 15 16  1  0  0  0  0
 15 17  1  0  0  0  0
 14 15  2  0  0  0  0
 14 28  1  0  0  0  0
 11 12  1  0  0  0  0
 11 13  1  0  0  0  0
 11 14  1  0  0  0  0
  9 10  1  0  0  0  0
  9 11  1  0  0  0  0
  9 29  1  0  0  0  0
  7  8  1  0  0  0  0
  7  9  1  0  0  0  0
 33 34  1  0  0  0  0
 33 35  1  0  0  0  0
 33 36  1  0  0  0  0
 31 32  1  0  0  0  0
 31 33  1  0  0  0  0
M  END
$$$$
default_name
  -OEChem-02102213163D

 36 37  0     1  0  0  0  0  0999 V2000
   -4.0843   -4.0736    1.2944 H   0  0  0  0  0  0  0  0  0  0  0  0
   -4.0342   -3.2816    0.5484 C   0  0  0  0  0  0  0  0  0  0  0  0
   -4.8842   -2.6126    0.6694 H   0  0  0  0  0  0  0  0  0  0  0  0
   -4.0433   -3.7186   -0.4486 H   0  0  0  0  0  0  0  0  0  0  0  0
   -2.7532   -2.5046    0.7444 C   0  0  0  0  0  0  0  0  0  0  0  0
   -1.9803   -2.8096    1.6434 O   0  0  0  0  0  0  0  0  0  0  0  0
   -2.5332   -1.4966   -0.0966 N   0  0  0  0  0  0  0  0  0  0  0  0
   -3.2312   -1.2816   -0.7936 H   0  0  0  0  0  0  0  0  0  0  0  0
   -1.3593   -0.6196   -0.0536 C   0  0  1  0  0  0  0  0  0  0  0  0
   -0.4622   -1.2317   -0.1545 H   0  0  0  0  0  0  0  0  0  0  0  0
   -1.4074    0.3593   -1.2373 C   0  0  0  0  0  0  0  0  0  0  0  0
   -0.4246    0.3865   -1.7113 H   0  0  0  0  0  0  0  0  0  0  0  0
   -2.1185   -0.0201   -1.9731 H   0  0  0  0  0  0  0  0  0  0  0  0
   -1.7916    1.7647   -0.8862 C   0  0  0  0  0  0  0  0  0  0  0  0
   -1.6281    2.8466   -1.6803 C   0  0  0  0  0  0  0  0  0  0  0  0
   -1.1780    2.8257   -2.6668 H   0  0  0  0  0  0  0  0  0  0  0  0
   -2.1382    3.9654   -1.0514 N   0  0  0  0  0  0  0  0  0  0  0  0
   -2.1210    4.8893   -1.4579 H   0  0  0  0  0  0  0  0  0  0  0  0
   -2.6742    3.6552    0.1803 C   0  0  0  0  0  0  0  0  0  0  0  0
   -3.3200    4.4181    1.1639 C   0  0  0  0  0  0  0  0  0  0  0  0
   -3.4722    5.4780    1.0222 H   0  0  0  0  0  0  0  0  0  0  0  0
   -3.7646    3.7845    2.3369 C   0  0  0  0  0  0  0  0  0  0  0  0
   -4.2639    4.3570    3.1069 H   0  0  0  0  0  0  0  0  0  0  0  0
   -3.5535    2.4045    2.5113 C   0  0  0  0  0  0  0  0  0  0  0  0
   -3.8897    1.9227    3.4190 H   0  0  0  0  0  0  0  0  0  0  0  0
   -2.9014    1.6480    1.5170 C   0  0  0  0  0  0  0  0  0  0  0  0
   -2.7337    0.5913    1.6695 H   0  0  0  0  0  0  0  0  0  0  0  0
   -2.4484    2.2535    0.3249 C   0  0  0  0  0  0  0  0  0  0  0  0
   -1.2663    0.1182    1.2910 C   0  0  0  0  0  0  0  0  0  0  0  0
   -0.1906    0.1931    1.8833 O   0  0  0  0  0  0  0  0  0  0  0  0
   -2.3930    0.6605    1.7722 N   0  0  0  0  0  0  0  0  0  0  0  0
   -3.2451    0.5077    1.2518 H   0  0  0  0  0  0  0  0  0  0  0  0
   -2.4787    1.3954    3.0311 C   0  0  0  0  0  0  0  0  0  0  0  0
   -1.7166    2.1767    3.0539 H   0  0  0  0  0  0  0  0  0  0  0  0
   -3.4649    1.8498    3.1344 H   0  0  0  0  0  0  0  0  0  0  0  0
   -2.3058    0.7133    3.8652 H   0  0  0  0  0  0  0  0  0  0  0  0
  5  6  2  0  0  0  0
  5  7  1  0  0  0  0
  2  3  1  0  0  0  0
  2  4  1  0  0  0  0
  2  5  1  0  0  0  0
  1  2  1  0  0  0  0
 29 30  2  0  0  0  0
 29 31  1  0  0  0  0
 26 27  1  0  0  0  0
 26 28  2  0  0  0  0
 24 25  1  0  0  0  0
 24 26  1  0  0  0  0
 22 23  1  0  0  0  0
 22 24  2  0  0  0  0
 20 21  1  0  0  0  0
 20 22  1  0  0  0  0
 19 20  2  0  0  0  0
 19 28  1  0  0  0  0
 17 18  1  0  0  0  0
 17 19  1  0  0  0  0
 15 16  1  0  0  0  0
 15 17  1  0  0  0  0
 14 15  2  0  0  0  0
 14 28  1  0  0  0  0
 11 12  1  0  0  0  0
 11 13  1  0  0  0  0
 11 14  1  0  0  0  0
  9 10  1  0  0  0  0
  9 11  1  0  0  0  0
  9 29  1  0  0  0  0
  7  8  1  0  0  0  0
  7  9  1  0  0  0  0
 33 34  1  0  0  0  0
 33 35  1  0  0  0  0
 33 36  1  0  0  0  0
 31 32  1  0  0  0  0
 31 33  1  0  0  0  0
M  END
$$$$
default_name
  -OEChem-02102213163D

 36 37  0     1  0  0  0  0  0999 V2000
   -4.0843   -4.0736    1.2944 H   0  0  0  0  0  0  0  0  0  0  0  0
   -4.0342   -3.2816    0.5484 C   0  0  0  0  0  0  0  0  0  0  0  0
   -4.8842   -2.6126    0.6694 H   0  0  0  0  0  0  0  0  0  0  0  0
   -4.0433   -3.7186   -0.4486 H   0  0  0  0  0  0  0  0  0  0  0  0
   -2.7532   -2.5046    0.7444 C   0  0  0  0  0  0  0  0  0  0  0  0
   -1.9803   -2.8096    1.6434 O   0  0  0  0  0  0  0  0  0  0  0  0
   -2.5332   -1.4966   -0.0966 N   0  0  0  0  0  0  0  0  0  0  0  0
   -3.2312   -1.2816   -0.7936 H   0  0  0  0  0  0  0  0  0  0  0  0
   -1.3593   -0.6196   -0.0536 C   0  0  1  0  0  0  0  0  0  0  0  0
   -0.4622   -1.2317   -0.1545 H   0  0  0  0  0  0  0  0  0  0  0  0
   -1.4074    0.3593   -1.2373 C   0  0  0  0  0  0  0  0  0  0  0  0
   -0.5312    0.1935   -1.8666 H   0  0  0  0  0  0  0  0  0  0  0  0
   -2.2916    0.1362   -1.8368 H   0  0  0  0  0  0  0  0  0  0  0  0
   -1.4411    1.8101   -0.8629 C   0  0  0  0  0  0  0  0  0  0  0  0
   -1.4852    2.8456   -1.7310 C   0  0  0  0  0  0  0  0  0  0  0  0
   -1.4823    2.7462   -2.8109 H   0  0  0  0  0  0  0  0  0  0  0  0
   -1.5545    4.0347   -1.0319 N   0  0  0  0  0  0  0  0  0  0  0  0
   -1.5922    4.9405   -1.4760 H   0  0  0  0  0  0  0  0  0  0  0  0
   -1.5754    3.8223    0.3302 C   0  0  0  0  0  0  0  0  0  0  0  0
   -1.6664    4.6837    1.4329 C   0  0  0  0  0  0  0  0  0  0  0  0
   -1.7329    5.7521    1.2890 H   0  0  0  0  0  0  0  0  0  0  0  0
   -1.6678    4.1374    2.7278 C   0  0  0  0  0  0  0  0  0  0  0  0
   -1.7363    4.7864    3.5903 H   0  0  0  0  0  0  0  0  0  0  0  0
   -1.5734    2.7444    2.9009 C   0  0  0  0  0  0  0  0  0  0  0  0
   -1.5665    2.3289    3.8991 H   0  0  0  0  0  0  0  0  0  0  0  0
   -1.4805    1.8882    1.7853 C   0  0  0  0  0  0  0  0  0  0  0  0
   -1.3950    0.8210    1.9328 H   0  0  0  0  0  0  0  0  0  0  0  0
   -1.4827    2.4053    0.4717 C   0  0  0  0  0  0  0  0  0  0  0  0
   -1.2663    0.1182    1.2910 C   0  0  0  0  0  0  0  0  0  0  0  0
   -0.1906    0.1931    1.8833 O   0  0  0  0  0  0  0  0  0  0  0  0
   -2.3930    0.6605    1.7722 N   0  0  0  0  0  0  0  0  0  0  0  0
   -3.2451    0.5077    1.2518 H   0  0  0  0  0  0  0  0  0  0  0  0
   -2.4787    1.3954    3.0311 C   0  0  0  0  0  0  0  0  0  0  0  0
   -1.7166    2.1767    3.0539 H   0  0  0  0  0  0  0  0  0  0  0  0
   -3.4649    1.8498    3.1344 H   0  0  0  0  0  0  0  0  0  0  0  0
   -2.3058    0.7133    3.8652 H   0  0  0  0  0  0  0  0  0  0  0  0
  5  6  2  0  0  0  0
  5  7  1  0  0  0  0
  2  3  1  0  0  0  0
  2  4  1  0  0  0  0
  2  5  1  0  0  0  0
  1  2  1  0  0  0  0
 29 30  2  0  0  0  0
 29 31  1  0  0  0  0
 26 27  1  0  0  0  0
 26 28  2  0  0  0  0
 24 25  1  0  0  0  0
 24 26  1  0  0  0  0
 22 23  1  0  0  0  0
 22 24  2  0  0  0  0
 20 21  1  0  0  0  0
 20 22  1  0  0  0  0
 19 20  2  0  0  0  0
 19 28  1  0  0  0  0
 17 18  1  0  0  0  0
 17 19  1  0  0  0  0
 15 16  1  0  0  0  0
 15 17  1  0  0  0  0
 14 15  2  0  0  0  0
 14 28  1  0  0  0  0
 11 12  1  0  0  0  0
 11 13  1  0  0  0  0
 11 14  1  0  0  0  0
  9 10  1  0  0  0  0
  9 11  1  0  0  0  0
  9 29  1  0  0  0  0
  7  8  1  0  0  0  0
  7  9  1  0  0  0  0
 33 34  1  0  0  0  0
 33 35  1  0  0  0  0
 33 36  1  0  0  0  0
 31 32  1  0  0  0  0
 31 33  1  0  0  0  0
M  END
$$$$
default_name
  -OEChem-02102213163D

 36 37  0     1  0  0  0  0  0999 V2000
   -4.0843   -4.0736    1.2944 H   0  0  0  0  0  0  0  0  0  0  0  0
   -4.0342   -3.2816    0.5484 C   0  0  0  0  0  0  0  0  0  0  0  0
   -4.8842   -2.6126    0.6694 H   0  0  0  0  0  0  0  0  0  0  0  0
   -4.0433   -3.7186   -0.4486 H   0  0  0  0  0  0  0  0  0  0  0  0
   -2.7532   -2.5046    0.7444 C   0  0  0  0  0  0  0  0  0  0  0  0
   -1.9803   -2.8096    1.6434 O   0  0  0  0  0  0  0  0  0  0  0  0
   -2.5332   -1.4966   -0.0966 N   0  0  0  0  0  0  0  0  0  0  0  0
   -3.2312   -1.2816   -0.7936 H   0  0  0  0  0  0  0  0  0  0  0  0
   -1.3593   -0.6196   -0.0536 C   0  0  1  0  0  0  0  0  0  0  0  0
   -0.4622   -1.2317   -0.1545 H   0  0  0  0  0  0  0  0  0  0  0  0
   -1.4074    0.3593   -1.2373 C   0  0  0  0  0  0  0  0  0  0  0  0
   -0.5312    0.1935   -1.8666 H   0  0  0  0  0  0  0  0  0  0  0  0
   -2.2916    0.1362   -1.8368 H   0  0  0  0  0  0  0  0  0  0  0  0
   -1.4411    1.8101   -0.8629 C   0  0  0  0  0  0  0  0  0  0  0  0
   -1.7687    2.8284   -1.6897 C   0  0  0  0  0  0  0  0  0  0  0  0
   -2.0298    2.7142   -2.7361 H   0  0  0  0  0  0  0  0  0  0  0  0
   -1.7384    4.0203   -0.9927 N   0  0  0  0  0  0  0  0  0  0  0  0
   -1.9453    4.9156   -1.4110 H   0  0  0  0  0  0  0  0  0  0  0  0
   -1.4037    3.8262    0.3306 C   0  0  0  0  0  0  0  0  0  0  0  0
   -1.2718    4.6954    1.4230 C   0  0  0  0  0  0  0  0  0  0  0  0
   -1.4420    5.7552    1.3029 H   0  0  0  0  0  0  0  0  0  0  0  0
   -0.9134    4.1684    2.6755 C   0  0  0  0  0  0  0  0  0  0  0  0
   -0.8059    4.8238    3.5293 H   0  0  0  0  0  0  0  0  0  0  0  0
   -0.6877    2.7869    2.8161 C   0  0  0  0  0  0  0  0  0  0  0  0
   -0.4040    2.3868    3.7797 H   0  0  0  0  0  0  0  0  0  0  0  0
   -0.8213    1.9228    1.7107 C   0  0  0  0  0  0  0  0  0  0  0  0
   -0.6320    0.8654    1.8295 H   0  0  0  0  0  0  0  0  0  0  0  0
   -1.1860    2.4201    0.4409 C   0  0  0  0  0  0  0  0  0  0  0  0
   -1.2663    0.1182    1.2910 C   0  0  0  0  0  0  0  0  0  0  0  0
   -0.1906    0.1931    1.8833 O   0  0  0  0  0  0  0  0  0  0  0  0
   -2.3930    0.6605    1.7722 N   0  0  0  0  0  0  0  0  0  0  0  0
   -3.2451    0.5077    1.2518 H   0  0  0  0  0  0  0  0  0  0  0  0
   -2.4787    1.3954    3.0311 C   0  0  0  0  0  0  0  0  0  0  0  0
   -1.7166    2.1767    3.0539 H   0  0  0  0  0  0  0  0  0  0  0  0
   -3.4649    1.8498    3.1344 H   0  0  0  0  0  0  0  0  0  0  0  0
   -2.3058    0.7133    3.8652 H   0  0  0  0  0  0  0  0  0  0  0  0
  5  6  2  0  0  0  0
  5  7  1  0  0  0  0
  2  3  1  0  0  0  0
  2  4  1  0  0  0  0
  2  5  1  0  0  0  0
  1  2  1  0  0  0  0
 29 30  2  0  0  0  0
 29 31  1  0  0  0  0
 26 27  1  0  0  0  0
 26 28  2  0  0  0  0
 24 25  1  0  0  0  0
 24 26  1  0  0  0  0
 22 23  1  0  0  0  0
 22 24  2  0  0  0  0
 20 21  1  0  0  0  0
 20 22  1  0  0  0  0
 19 20  2  0  0  0  0
 19 28  1  0  0  0  0
 17 18  1  0  0  0  0
 17 19  1  0  0  0  0
 15 16  1  0  0  0  0
 15 17  1  0  0  0  0
 14 15  2  0  0  0  0
 14 28  1  0  0  0  0
 11 12  1  0  0  0  0
 11 13  1  0  0  0  0
 11 14  1  0  0  0  0
  9 10  1  0  0  0  0
  9 11  1  0  0  0  0
  9 29  1  0  0  0  0
  7  8  1  0  0  0  0
  7  9  1  0  0  0  0
 33 34  1  0  0  0  0
 33 35  1  0  0  0  0
 33 36  1  0  0  0  0
 31 32  1  0  0  0  0
 31 33  1  0  0  0  0
M  END
$$$$
default_name
  -OEChem-02102213163D

 36 37  0     1  0  0  0  0  0999 V2000
   -4.0843   -4.0736    1.2944 H   0  0  0  0  0  0  0  0  0  0  0  0
   -4.0342   -3.2816    0.5484 C   0  0  0  0  0  0  0  0  0  0  0  0
   -4.8842   -2.6126    0.6694 H   0  0  0  0  0  0  0  0  0  0  0  0
   -4.0433   -3.7186   -0.4486 H   0  0  0  0  0  0  0  0  0  0  0  0
   -2.7532   -2.5046    0.7444 C   0  0  0  0  0  0  0  0  0  0  0  0
   -1.9803   -2.8096    1.6434 O   0  0  0  0  0  0  0  0  0  0  0  0
   -2.5332   -1.4966   -0.0966 N   0  0  0  0  0  0  0  0  0  0  0  0
   -3.2312   -1.2816   -0.7936 H   0  0  0  0  0  0  0  0  0  0  0  0
   -1.3593   -0.6196   -0.0536 C   0  0  1  0  0  0  0  0  0  0  0  0
   -0.4622   -1.2317   -0.1545 H   0  0  0  0  0  0  0  0  0  0  0  0
   -1.4074    0.3593   -1.2373 C   0  0  0  0  0  0  0  0  0  0  0  0
   -0.5312    0.1935   -1.8666 H   0  0  0  0  0  0  0  0  0  0  0  0
   -2.2916    0.1362   -1.8368 H   0  0  0  0  0  0  0  0  0  0  0  0
   -1.4411    1.8101   -0.8629 C   0  0  0  0  0  0  0  0  0  0  0  0
   -2.0311    2.7936   -1.5787 C   0  0  0  0  0  0  0  0  0  0  0  0
   -2.5378    2.6483   -2.5264 H   0  0  0  0  0  0  0  0  0  0  0  0
   -1.9053    3.9948   -0.9087 N   0  0  0  0  0  0  0  0  0  0  0  0
   -2.2684    4.8690   -1.2595 H   0  0  0  0  0  0  0  0  0  0  0  0
   -1.2380    3.8410    0.2879 C   0  0  0  0  0  0  0  0  0  0  0  0
   -0.8940    4.7322    1.3145 C   0  0  0  0  0  0  0  0  0  0  0  0
   -1.1577    5.7772    1.2435 H   0  0  0  0  0  0  0  0  0  0  0  0
   -0.1997    4.2468    2.4358 C   0  0  0  0  0  0  0  0  0  0  0  0
    0.0750    4.9197    3.2369 H   0  0  0  0  0  0  0  0  0  0  0  0
    0.1438    2.8847    2.5120 C   0  0  0  0  0  0  0  0  0  0  0  0
    0.6853    2.5171    3.3727 H   0  0  0  0  0  0  0  0  0  0  0  0
   -0.2054    1.9984    1.4734 C   0  0  0  0  0  0  0  0  0  0  0  0
    0.0763    0.9570    1.5384 H   0  0  0  0  0  0  0  0  0  0  0  0
   -0.9082    2.4535    0.3367 C   0  0  0  0  0  0  0  0  0  0  0  0
   -1.2663    0.1182    1.2910 C   0  0  0  0  0  0  0  0  0  0  0  0
   -0.1906    0.1931    1.8833 O   0  0  0  0  0  0  0  0  0  0  0  0
   -2.3930    0.6605    1.7722 N   0  0  0  0  0  0  0  0  0  0  0  0
   -3.2451    0.5077    1.2518 H   0  0  0  0  0  0  0  0  0  0  0  0
   -2.4787    1.3954    3.0311 C   0  0  0  0  0  0  0  0  0  0  0  0
   -1.7166    2.1767    3.0539 H   0  0  0  0  0  0  0  0  0  0  0  0
   -3.4649    1.8498    3.1344 H   0  0  0  0  0  0  0  0  0  0  0  0
   -2.3058    0.7133    3.8652 H   0  0  0  0  0  0  0  0  0  0  0  0
  5  6  2  0  0  0  0
  5  7  1  0  0  0  0
  2  3  1  0  0  0  0
  2  4  1  0  0  0  0
  2  5  1  0  0  0  0
  1  2  1  0  0  0  0
 29 30  2  0  0  0  0
 29 31  1  0  0  0  0
 26 27  1  0  0  0  0
 26 28  2  0  0  0  0
 24 25  1  0  0  0  0
 24 26  1  0  0  0  0
 22 23  1  0  0  0  0
 22 24  2  0  0  0  0
 20 21  1  0  0  0  0
 20 22  1  0  0  0  0
 19 20  2  0  0  0  0
 19 28  1  0  0  0  0
 17 18  1  0  0  0  0
 17 19  1  0  0  0  0
 15 16  1  0  0  0  0
 15 17  1  0  0  0  0
 14 15  2  0  0  0  0
 14 28  1  0  0  0  0
 11 12  1  0  0  0  0
 11 13  1  0  0  0  0
 11 14  1  0  0  0  0
  9 10  1  0  0  0  0
  9 11  1  0  0  0  0
  9 29  1  0  0  0  0
  7  8  1  0  0  0  0
  7  9  1  0  0  0  0
 33 34  1  0  0  0  0
 33 35  1  0  0  0  0
 33 36  1  0  0  0  0
 31 32  1  0  0  0  0
 31 33  1  0  0  0  0
M  END
$$$$
default_name
  -OEChem-02102213163D

 36 37  0     1  0  0  0  0  0999 V2000
   -4.0843   -4.0736    1.2944 H   0  0  0  0  0  0  0  0  0  0  0  0
   -4.0342   -3.2816    0.5484 C   0  0  0  0  0  0  0  0  0  0  0  0
   -4.8842   -2.6126    0.6694 H   0  0  0  0  0  0  0  0  0  0  0  0
   -4.0433   -3.7186   -0.4486 H   0  0  0  0  0  0  0  0  0  0  0  0
   -2.7532   -2.5046    0.7444 C   0  0  0  0  0  0  0  0  0  0  0  0
   -1.9803   -2.8096    1.6434 O   0  0  0  0  0  0  0  0  0  0  0  0
   -2.5332   -1.4966   -0.0966 N   0  0  0  0  0  0  0  0  0  0  0  0
   -3.2312   -1.2816   -0.7936 H   0  0  0  0  0  0  0  0  0  0  0  0
   -1.3593   -0.6196   -0.0536 C   0  0  1  0  0  0  0  0  0  0  0  0
   -0.4622   -1.2317   -0.1545 H   0  0  0  0  0  0  0  0  0  0  0  0
   -1.4074    0.3593   -1.2373 C   0  0  0  0  0  0  0  0  0  0  0  0
   -0.5312    0.1935   -1.8666 H   0  0  0  0  0  0  0  0  0  0  0  0
   -2.2916    0.1362   -1.8368 H   0  0  0  0  0  0  0  0  0  0  0  0
   -1.4411    1.8101   -0.8629 C   0  0  0  0  0  0  0  0  0  0  0  0
   -2.2545    2.7437   -1.4055 C   0  0  0  0  0  0  0  0  0  0  0  0
   -2.9718    2.5530   -2.1963 H   0  0  0  0  0  0  0  0  0  0  0  0
   -2.0438    3.9598   -0.7855 N   0  0  0  0  0  0  0  0  0  0  0  0
   -2.5395    4.8040   -1.0320 H   0  0  0  0  0  0  0  0  0  0  0  0
   -1.0896    3.8658    0.2052 C   0  0  0  0  0  0  0  0  0  0  0  0
   -0.5586    4.7915    1.1148 C   0  0  0  0  0  0  0  0  0  0  0  0
   -0.8995    5.8164    1.1147 H   0  0  0  0  0  0  0  0  0  0  0  0
    0.4246    4.3674    2.0251 C   0  0  0  0  0  0  0  0  0  0  0  0
    0.8464    5.0676    2.7333 H   0  0  0  0  0  0  0  0  0  0  0  0
    0.8645    3.0311    2.0094 C   0  0  0  0  0  0  0  0  0  0  0  0
    1.6271    2.7111    2.7059 H   0  0  0  0  0  0  0  0  0  0  0  0
    0.3251    2.1098    1.0893 C   0  0  0  0  0  0  0  0  0  0  0  0
    0.6816    1.0896    1.0791 H   0  0  0  0  0  0  0  0  0  0  0  0
   -0.6681    2.5030    0.1663 C   0  0  0  0  0  0  0  0  0  0  0  0
   -1.2663    0.1182    1.2910 C   0  0  0  0  0  0  0  0  0  0  0  0
   -0.1906    0.1931    1.8833 O   0  0  0  0  0  0  0  0  0  0  0  0
   -2.3930    0.6605    1.7722 N   0  0  0  0  0  0  0  0  0  0  0  0
   -3.2451    0.5077    1.2518 H   0  0  0  0  0  0  0  0  0  0  0  0
   -2.4787    1.3954    3.0311 C   0  0  0  0  0  0  0  0  0  0  0  0
   -1.7166    2.1767    3.0539 H   0  0  0  0  0  0  0  0  0  0  0  0
   -3.4649    1.8498    3.1344 H   0  0  0  0  0  0  0  0  0  0  0  0
   -2.3058    0.7133    3.8652 H   0  0  0  0  0  0  0  0  0  0  0  0
  5  6  2  0  0  0  0
  5  7  1  0  0  0  0
  2  3  1  0  0  0  0
  2  4  1  0  0  0  0
  2  5  1  0  0  0  0
  1  2  1  0  0  0  0
 29 30  2  0  0  0  0
 29 31  1  0  0  0  0
 26 27  1  0  0  0  0
 26 28  2  0  0  0  0
 24 25  1  0  0  0  0
 24 26  1  0  0  0  0
 22 23  1  0  0  0  0
 22 24  2  0  0  0  0
 20 21  1  0  0  0  0
 20 22  1  0  0  0  0
 19 20  2  0  0  0  0
 19 28  1  0  0  0  0
 17 18  1  0  0  0  0
 17 19  1  0  0  0  0
 15 16  1  0  0  0  0
 15 17  1  0  0  0  0
 14 15  2  0  0  0  0
 14 28  1  0  0  0  0
 11 12  1  0  0  0  0
 11 13  1  0  0  0  0
 11 14  1  0  0  0  0
  9 10  1  0  0  0  0
  9 11  1  0  0  0  0
  9 29  1  0  0  0  0
  7  8  1  0  0  0  0
  7  9  1  0  0  0  0
 33 34  1  0  0  0  0
 33 35  1  0  0  0  0
 33 36  1  0  0  0  0
 31 32  1  0  0  0  0
 31 33  1  0  0  0  0
M  END
$$$$
default_name
  -OEChem-02102213163D

 36 37  0     1  0  0  0  0  0999 V2000
   -4.0843   -4.0736    1.2944 H   0  0  0  0  0  0  0  0  0  0  0  0
   -4.0342   -3.2816    0.5484 C   0  0  0  0  0  0  0  0  0  0  0  0
   -4.8842   -2.6126    0.6694 H   0  0  0  0  0  0  0  0  0  0  0  0
   -4.0433   -3.7186   -0.4486 H   0  0  0  0  0  0  0  0  0  0  0  0
   -2.7532   -2.5046    0.7444 C   0  0  0  0  0  0  0  0  0  0  0  0
   -1.9803   -2.8096    1.6434 O   0  0  0  0  0  0  0  0  0  0  0  0
   -2.5332   -1.4966   -0.0966 N   0  0  0  0  0  0  0  0  0  0  0  0
   -3.2312   -1.2816   -0.7936 H   0  0  0  0  0  0  0  0  0  0  0  0
   -1.3593   -0.6196   -0.0536 C   0  0  1  0  0  0  0  0  0  0  0  0
   -0.4622   -1.2317   -0.1545 H   0  0  0  0  0  0  0  0  0  0  0  0
   -1.4074    0.3593   -1.2373 C   0  0  0  0  0  0  0  0  0  0  0  0
   -0.5312    0.1935   -1.8666 H   0  0  0  0  0  0  0  0  0  0  0  0
   -2.2916    0.1362   -1.8368 H   0  0  0  0  0  0  0  0  0  0  0  0
   -1.4411    1.8101   -0.8629 C   0  0  0  0  0  0  0  0  0  0  0  0
   -2.4237    2.6821   -1.1819 C   0  0  0  0  0  0  0  0  0  0  0  0
   -3.3020    2.4348   -1.7681 H   0  0  0  0  0  0  0  0  0  0  0  0
   -2.1445    3.9177   -0.6317 N   0  0  0  0  0  0  0  0  0  0  0  0
   -2.7402    4.7250   -0.7440 H   0  0  0  0  0  0  0  0  0  0  0  0
   -0.9686    3.8989    0.0879 C   0  0  0  0  0  0  0  0  0  0  0  0
   -0.2884    4.8693    0.8375 C   0  0  0  0  0  0  0  0  0  0  0  0
   -0.6848    5.8703    0.9254 H   0  0  0  0  0  0  0  0  0  0  0  0
    0.9168    4.5217    1.4712 C   0  0  0  0  0  0  0  0  0  0  0  0
    1.4558    5.2574    2.0527 H   0  0  0  0  0  0  0  0  0  0  0  0
    1.4252    3.2162    1.3425 C   0  0  0  0  0  0  0  0  0  0  0  0
    2.3571    2.9554    1.8248 H   0  0  0  0  0  0  0  0  0  0  0  0
    0.7341    2.2495    0.5848 C   0  0  0  0  0  0  0  0  0  0  0  0
    1.1426    1.2541    0.4831 H   0  0  0  0  0  0  0  0  0  0  0  0
   -0.4820    2.5654   -0.0587 C   0  0  0  0  0  0  0  0  0  0  0  0
   -1.2663    0.1182    1.2910 C   0  0  0  0  0  0  0  0  0  0  0  0
   -0.1906    0.1931    1.8833 O   0  0  0  0  0  0  0  0  0  0  0  0
   -2.3930    0.6605    1.7722 N   0  0  0  0  0  0  0  0  0  0  0  0
   -3.2451    0.5077    1.2518 H   0  0  0  0  0  0  0  0  0  0  0  0
   -2.4787    1.3954    3.0311 C   0  0  0  0  0  0  0  0  0  0  0  0
   -1.7166    2.1767    3.0539 H   0  0  0  0  0  0  0  0  0  0  0  0
   -3.4649    1.8498    3.1344 H   0  0  0  0  0  0  0  0  0  0  0  0
   -2.3058    0.7133    3.8652 H   0  0  0  0  0  0  0  0  0  0  0  0
  5  6  2  0  0  0  0
  5  7  1  0  0  0  0
  2  3  1  0  0  0  0
  2  4  1  0  0  0  0
  2  5  1  0  0  0  0
  1  2  1  0  0  0  0
 29 30  2  0  0  0  0
 29 31  1  0  0  0  0
 26 27  1  0  0  0  0
 26 28  2  0  0  0  0
 24 25  1  0  0  0  0
 24 26  1  0  0  0  0
 22 23  1  0  0  0  0
 22 24  2  0  0  0  0
 20 21  1  0  0  0  0
 20 22  1  0  0  0  0
 19 20  2  0  0  0  0
 19 28  1  0  0  0  0
 17 18  1  0  0  0  0
 17 19  1  0  0  0  0
 15 16  1  0  0  0  0
 15 17  1  0  0  0  0
 14 15  2  0  0  0  0
 14 28  1  0  0  0  0
 11 12  1  0  0  0  0
 11 13  1  0  0  0  0
 11 14  1  0  0  0  0
  9 10  1  0  0  0  0
  9 11  1  0  0  0  0
  9 29  1  0  0  0  0
  7  8  1  0  0  0  0
  7  9  1  0  0  0  0
 33 34  1  0  0  0  0
 33 35  1  0  0  0  0
 33 36  1  0  0  0  0
 31 32  1  0  0  0  0
 31 33  1  0  0  0  0
M  END
$$$$
default_name
  -OEChem-02102213163D

 36 37  0     1  0  0  0  0  0999 V2000
   -4.0843   -4.0736    1.2944 H   0  0  0  0  0  0  0  0  0  0  0  0
   -4.0342   -3.2816    0.5484 C   0  0  0  0  0  0  0  0  0  0  0  0
   -4.8842   -2.6126    0.6694 H   0  0  0  0  0  0  0  0  0  0  0  0
   -4.0433   -3.7186   -0.4486 H   0  0  0  0  0  0  0  0  0  0  0  0
   -2.7532   -2.5046    0.7444 C   0  0  0  0  0  0  0  0  0  0  0  0
   -1.9803   -2.8096    1.6434 O   0  0  0  0  0  0  0  0  0  0  0  0
   -2.5332   -1.4966   -0.0966 N   0  0  0  0  0  0  0  0  0  0  0  0
   -3.2312   -1.2816   -0.7936 H   0  0  0  0  0  0  0  0  0  0  0  0
   -1.3593   -0.6196   -0.0536 C   0  0  1  0  0  0  0  0  0  0  0  0
   -0.4622   -1.2317   -0.1545 H   0  0  0  0  0  0  0  0  0  0  0  0
   -1.4074    0.3593   -1.2373 C   0  0  0  0  0  0  0  0  0  0  0  0
   -0.5312    0.1935   -1.8666 H   0  0  0  0  0  0  0  0  0  0  0  0
   -2.2916    0.1362   -1.8368 H   0  0  0  0  0  0  0  0  0  0  0  0
   -1.4411    1.8101   -0.8629 C   0  0  0  0  0  0  0  0  0  0  0  0
   -2.5271    2.6130   -0.9232 C   0  0  0  0  0  0  0  0  0  0  0  0
   -3.5061    2.3018   -1.2711 H   0  0  0  0  0  0  0  0  0  0  0  0
   -2.2005    3.8715   -0.4576 N   0  0  0  0  0  0  0  0  0  0  0  0
   -2.8568    4.6374   -0.4150 H   0  0  0  0  0  0  0  0  0  0  0  0
   -0.8833    3.9380   -0.0559 C   0  0  0  0  0  0  0  0  0  0  0  0
   -0.1020    4.9604    0.5016 C   0  0  0  0  0  0  0  0  0  0  0  0
   -0.5283    5.9350    0.6884 H   0  0  0  0  0  0  0  0  0  0  0  0
    1.2436    4.6994    0.8119 C   0  0  0  0  0  0  0  0  0  0  0  0
    1.8617    5.4761    1.2415 H   0  0  0  0  0  0  0  0  0  0  0  0
    1.7878    3.4274    0.5567 C   0  0  0  0  0  0  0  0  0  0  0  0
    2.8258    3.2335    0.7893 H   0  0  0  0  0  0  0  0  0  0  0  0
    0.9938    2.4079   -0.0058 C   0  0  0  0  0  0  0  0  0  0  0  0
    1.4280    1.4393   -0.2091 H   0  0  0  0  0  0  0  0  0  0  0  0
   -0.3627    2.6364   -0.3230 C   0  0  0  0  0  0  0  0  0  0  0  0
   -1.2663    0.1182    1.2910 C   0  0  0  0  0  0  0  0  0  0  0  0
   -0.1906    0.1931    1.8833 O   0  0  0  0  0  0  0  0  0  0  0  0
   -2.3930    0.6605    1.7722 N   0  0  0  0  0  0  0  0  0  0  0  0
   -3.2451    0.5077    1.2518 H   0  0  0  0  0  0  0  0  0  0  0  0
   -2.4787    1.3954    3.0311 C   0  0  0  0  0  0  0  0  0  0  0  0
   -1.7166    2.1767    3.0539 H   0  0  0  0  0  0  0  0  0  0  0  0
   -3.4649    1.8498    3.1344 H   0  0  0  0  0  0  0  0  0  0  0  0
   -2.3058    0.7133    3.8652 H   0  0  0  0  0  0  0  0  0  0  0  0
  5  6  2  0  0  0  0
  5  7  1  0  0  0  0
  2  3  1  0  0  0  0
  2  4  1  0  0  0  0
  2  5  1  0  0  0  0
  1  2  1  0  0  0  0
 29 30  2  0  0  0  0
 29 31  1  0  0  0  0
 26 27  1  0  0  0  0
 26 28  2  0  0  0  0
 24 25  1  0  0  0  0
 24 26  1  0  0  0  0
 22 23  1  0  0  0  0
 22 24  2  0  0  0  0
 20 21  1  0  0  0  0
 20 22  1  0  0  0  0
 19 20  2  0  0  0  0
 19 28  1  0  0  0  0
 17 18  1  0  0  0  0
 17 19  1  0  0  0  0
 15 16  1  0  0  0  0
 15 17  1  0  0  0  0
 14 15  2  0  0  0  0
 14 28  1  0  0  0  0
 11 12  1  0  0  0  0
 11 13  1  0  0  0  0
 11 14  1  0  0  0  0
  9 10  1  0  0  0  0
  9 11  1  0  0  0  0
  9 29  1  0  0  0  0
  7  8  1  0  0  0  0
  7  9  1  0  0  0  0
 33 34  1  0  0  0  0
 33 35  1  0  0  0  0
 33 36  1  0  0  0  0
 31 32  1  0  0  0  0
 31 33  1  0  0  0  0
M  END
$$$$
default_name
  -OEChem-02102213163D

 36 37  0     1  0  0  0  0  0999 V2000
   -4.0843   -4.0736    1.2944 H   0  0  0  0  0  0  0  0  0  0  0  0
   -4.0342   -3.2816    0.5484 C   0  0  0  0  0  0  0  0  0  0  0  0
   -4.8842   -2.6126    0.6694 H   0  0  0  0  0  0  0  0  0  0  0  0
   -4.0433   -3.7186   -0.4486 H   0  0  0  0  0  0  0  0  0  0  0  0
   -2.7532   -2.5046    0.7444 C   0  0  0  0  0  0  0  0  0  0  0  0
   -1.9803   -2.8096    1.6434 O   0  0  0  0  0  0  0  0  0  0  0  0
   -2.5332   -1.4966   -0.0966 N   0  0  0  0  0  0  0  0  0  0  0  0
   -3.2312   -1.2816   -0.7936 H   0  0  0  0  0  0  0  0  0  0  0  0
   -1.3593   -0.6196   -0.0536 C   0  0  1  0  0  0  0  0  0  0  0  0
   -0.4622   -1.2317   -0.1545 H   0  0  0  0  0  0  0  0  0  0  0  0
   -1.4074    0.3593   -1.2373 C   0  0  0  0  0  0  0  0  0  0  0  0
   -0.5312    0.1935   -1.8666 H   0  0  0  0  0  0  0  0  0  0  0  0
   -2.2916    0.1362   -1.8368 H   0  0  0  0  0  0  0  0  0  0  0  0
   -1.4411    1.8101   -0.8629 C   0  0  0  0  0  0  0  0  0  0  0  0
   -2.5577    2.5410   -0.6471 C   0  0  0  0  0  0  0  0  0  0  0  0
   -3.5701    2.1631   -0.7391 H   0  0  0  0  0  0  0  0  0  0  0  0
   -2.2079    3.8243   -0.2752 N   0  0  0  0  0  0  0  0  0  0  0  0
   -2.8814    4.5471   -0.0675 H   0  0  0  0  0  0  0  0  0  0  0  0
   -0.8394    3.9804   -0.2165 C   0  0  0  0  0  0  0  0  0  0  0  0
   -0.0120    5.0584    0.1298 C   0  0  0  0  0  0  0  0  0  0  0  0
   -0.4408    6.0064    0.4199 H   0  0  0  0  0  0  0  0  0  0  0  0
    1.3825    4.8884    0.0923 C   0  0  0  0  0  0  0  0  0  0  0  0
    2.0364    5.7089    0.3550 H   0  0  0  0  0  0  0  0  0  0  0  0
    1.9275    3.6503   -0.2943 C   0  0  0  0  0  0  0  0  0  0  0  0
    3.0010    3.5264   -0.3299 H   0  0  0  0  0  0  0  0  0  0  0  0
    1.0863    2.5743   -0.6422 C   0  0  0  0  0  0  0  0  0  0  0  0
    1.5182    1.6327   -0.9502 H   0  0  0  0  0  0  0  0  0  0  0  0
   -0.3183    2.7111   -0.6087 C   0  0  0  0  0  0  0  0  0  0  0  0
   -1.2663    0.1182    1.2910 C   0  0  0  0  0  0  0  0  0  0  0  0
   -0.1906    0.1931    1.8833 O   0  0  0  0  0  0  0  0  0  0  0  0
   -2.3930    0.6605    1.7722 N   0  0  0  0  0  0  0  0  0  0  0  0
   -3.2451    0.5077    1.2518 H   0  0  0  0  0  0  0  0  0  0  0  0
   -2.4787    1.3954    3.0311 C   0  0  0  0  0  0  0  0  0  0  0  0
   -1.7166    2.1767    3.0539 H   0  0  0  0  0  0  0  0  0  0  0  0
   -3.4649    1.8498    3.1344 H   0  0  0  0  0  0  0  0  0  0  0  0
   -2.3058    0.7133    3.8652 H   0  0  0  0  0  0  0  0  0  0  0  0
  5  6  2  0  0  0  0
  5  7  1  0  0  0  0
  2  3  1  0  0  0  0
  2  4  1  0  0  0  0
  2  5  1  0  0  0  0
  1  2  1  0  0  0  0
 29 30  2  0  0  0  0
 29 31  1  0  0  0  0
 26 27  1  0  0  0  0
 26 28  2  0  0  0  0
 24 25  1  0  0  0  0
 24 26  1  0  0  0  0
 22 23  1  0  0  0  0
 22 24  2  0  0  0  0
 20 21  1  0  0  0  0
 20 22  1  0  0  0  0
 19 20  2  0  0  0  0
 19 28  1  0  0  0  0
 17 18  1  0  0  0  0
 17 19  1  0  0  0  0
 15 16  1  0  0  0  0
 15 17  1  0  0  0  0
 14 15  2  0  0  0  0
 14 28  1  0  0  0  0
 11 12  1  0  0  0  0
 11 13  1  0  0  0  0
 11 14  1  0  0  0  0
  9 10  1  0  0  0  0
  9 11  1  0  0  0  0
  9 29  1  0  0  0  0
  7  8  1  0  0  0  0
  7  9  1  0  0  0  0
 33 34  1  0  0  0  0
 33 35  1  0  0  0  0
 33 36  1  0  0  0  0
 31 32  1  0  0  0  0
 31 33  1  0  0  0  0
M  END
$$$$
default_name
  -OEChem-02102213163D

 36 37  0     1  0  0  0  0  0999 V2000
   -4.0843   -4.0736    1.2944 H   0  0  0  0  0  0  0  0  0  0  0  0
   -4.0342   -3.2816    0.5484 C   0  0  0  0  0  0  0  0  0  0  0  0
   -4.8842   -2.6126    0.6694 H   0  0  0  0  0  0  0  0  0  0  0  0
   -4.0433   -3.7186   -0.4486 H   0  0  0  0  0  0  0  0  0  0  0  0
   -2.7532   -2.5046    0.7444 C   0  0  0  0  0  0  0  0  0  0  0  0
   -1.9803   -2.8096    1.6434 O   0  0  0  0  0  0  0  0  0  0  0  0
   -2.5332   -1.4966   -0.0966 N   0  0  0  0  0  0  0  0  0  0  0  0
   -3.2312   -1.2816   -0.7936 H   0  0  0  0  0  0  0  0  0  0  0  0
   -1.3593   -0.6196   -0.0536 C   0  0  1  0  0  0  0  0  0  0  0  0
   -0.4622   -1.2317   -0.1545 H   0  0  0  0  0  0  0  0  0  0  0  0
   -1.4074    0.3593   -1.2373 C   0  0  0  0  0  0  0  0  0  0  0  0
   -0.5312    0.1935   -1.8666 H   0  0  0  0  0  0  0  0  0  0  0  0
   -2.2916    0.1362   -1.8368 H   0  0  0  0  0  0  0  0  0  0  0  0
   -1.4411    1.8101   -0.8629 C   0  0  0  0  0  0  0  0  0  0  0  0
   -2.5135    2.4711   -0.3722 C   0  0  0  0  0  0  0  0  0  0  0  0
   -3.4897    2.0280   -0.2083 H   0  0  0  0  0  0  0  0  0  0  0  0
   -2.1664    3.7792   -0.0969 N   0  0  0  0  0  0  0  0  0  0  0  0
   -2.8122    4.4604    0.2748 H   0  0  0  0  0  0  0  0  0  0  0  0
   -0.8399    4.0233   -0.3827 C   0  0  0  0  0  0  0  0  0  0  0  0
   -0.0246    5.1567   -0.2524 C   0  0  0  0  0  0  0  0  0  0  0  0
   -0.4281    6.0793    0.1383 H   0  0  0  0  0  0  0  0  0  0  0  0
    1.3242    5.0757   -0.6388 C   0  0  0  0  0  0  0  0  0  0  0  0
    1.9679    5.9400   -0.5464 H   0  0  0  0  0  0  0  0  0  0  0  0
    1.8348    3.8696   -1.1527 C   0  0  0  0  0  0  0  0  0  0  0  0
    2.8710    3.8141   -1.4566 H   0  0  0  0  0  0  0  0  0  0  0  0
    1.0055    2.7373   -1.2812 C   0  0  0  0  0  0  0  0  0  0  0  0
    1.4072    1.8210   -1.6899 H   0  0  0  0  0  0  0  0  0  0  0  0
   -0.3518    2.7845   -0.8962 C   0  0  0  0  0  0  0  0  0  0  0  0
   -1.2663    0.1182    1.2910 C   0  0  0  0  0  0  0  0  0  0  0  0
   -0.1906    0.1931    1.8833 O   0  0  0  0  0  0  0  0  0  0  0  0
   -2.3930    0.6605    1.7722 N   0  0  0  0  0  0  0  0  0  0  0  0
   -3.2451    0.5077    1.2518 H   0  0  0  0  0  0  0  0  0  0  0  0
   -2.4787    1.3954    3.0311 C   0  0  0  0  0  0  0  0  0  0  0  0
   -1.7166    2.1767    3.0539 H   0  0  0  0  0  0  0  0  0  0  0  0
   -3.4649    1.8498    3.1344 H   0  0  0  0  0  0  0  0  0  0  0  0
   -2.3058    0.7133    3.8652 H   0  0  0  0  0  0  0  0  0  0  0  0
  5  6  2  0  0  0  0
  5  7  1  0  0  0  0
  2  3  1  0  0  0  0
  2  4  1  0  0  0  0
  2  5  1  0  0  0  0
  1  2  1  0  0  0  0
 29 30  2  0  0  0  0
 29 31  1  0  0  0  0
 26 27  1  0  0  0  0
 26 28  2  0  0  0  0
 24 25  1  0  0  0  0
 24 26  1  0  0  0  0
 22 23  1  0  0  0  0
 22 24  2  0  0  0  0
 20 21  1  0  0  0  0
 20 22  1  0  0  0  0
 19 20  2  0  0  0  0
 19 28  1  0  0  0  0
 17 18  1  0  0  0  0
 17 19  1  0  0  0  0
 15 16  1  0  0  0  0
 15 17  1  0  0  0  0
 14 15  2  0  0  0  0
 14 28  1  0  0  0  0
 11 12  1  0  0  0  0
 11 13  1  0  0  0  0
 11 14  1  0  0  0  0
  9 10  1  0  0  0  0
  9 11  1  0  0  0  0
  9 29  1  0  0  0  0
  7  8  1  0  0  0  0
  7  9  1  0  0  0  0
 33 34  1  0  0  0  0
 33 35  1  0  0  0  0
 33 36  1  0  0  0  0
 31 32  1  0  0  0  0
 31 33  1  0  0  0  0
M  END
$$$$
default_name
  -OEChem-02102213163D

 36 37  0     1  0  0  0  0  0999 V2000
   -4.0843   -4.0736    1.2944 H   0  0  0  0  0  0  0  0  0  0  0  0
   -4.0342   -3.2816    0.5484 C   0  0  0  0  0  0  0  0  0  0  0  0
   -4.8842   -2.6126    0.6694 H   0  0  0  0  0  0  0  0  0  0  0  0
   -4.0433   -3.7186   -0.4486 H   0  0  0  0  0  0  0  0  0  0  0  0
   -2.7532   -2.5046    0.7444 C   0  0  0  0  0  0  0  0  0  0  0  0
   -1.9803   -2.8096    1.6434 O   0  0  0  0  0  0  0  0  0  0  0  0
   -2.5332   -1.4966   -0.0966 N   0  0  0  0  0  0  0  0  0  0  0  0
   -3.2312   -1.2816   -0.7936 H   0  0  0  0  0  0  0  0  0  0  0  0
   -1.3593   -0.6196   -0.0536 C   0  0  1  0  0  0  0  0  0  0  0  0
   -0.4622   -1.2317   -0.1545 H   0  0  0  0  0  0  0  0  0  0  0  0
   -1.4074    0.3593   -1.2373 C   0  0  0  0  0  0  0  0  0  0  0  0
   -0.5312    0.1935   -1.8666 H   0  0  0  0  0  0  0  0  0  0  0  0
   -2.2916    0.1362   -1.8368 H   0  0  0  0  0  0  0  0  0  0  0  0
   -1.4411    1.8101   -0.8629 C   0  0  0  0  0  0  0  0  0  0  0  0
   -2.3973    2.4080   -0.1174 C   0  0  0  0  0  0  0  0  0  0  0  0
   -3.2703    1.9058    0.2849 H   0  0  0  0  0  0  0  0  0  0  0  0
   -2.0787    3.7394    0.0653 N   0  0  0  0  0  0  0  0  0  0  0  0
   -2.6539    4.3831    0.5886 H   0  0  0  0  0  0  0  0  0  0  0  0
   -0.8849    4.0638   -0.5435 C   0  0  0  0  0  0  0  0  0  0  0  0
   -0.1388    5.2487   -0.6190 C   0  0  0  0  0  0  0  0  0  0  0  0
   -0.4911    6.1490   -0.1374 H   0  0  0  0  0  0  0  0  0  0  0  0
    1.0726    5.2485   -1.3314 C   0  0  0  0  0  0  0  0  0  0  0  0
    1.6610    6.1534   -1.4013 H   0  0  0  0  0  0  0  0  0  0  0  0
    1.5160    4.0705   -1.9599 C   0  0  0  0  0  0  0  0  0  0  0  0
    2.4444    4.0770   -2.5140 H   0  0  0  0  0  0  0  0  0  0  0  0
    0.7569    2.8858   -1.8790 C   0  0  0  0  0  0  0  0  0  0  0  0
    1.1024    1.9913   -2.3776 H   0  0  0  0  0  0  0  0  0  0  0  0
   -0.4610    2.8516   -1.1659 C   0  0  0  0  0  0  0  0  0  0  0  0
   -1.2663    0.1182    1.2910 C   0  0  0  0  0  0  0  0  0  0  0  0
   -0.1906    0.1931    1.8833 O   0  0  0  0  0  0  0  0  0  0  0  0
   -2.3930    0.6605    1.7722 N   0  0  0  0  0  0  0  0  0  0  0  0
   -3.2451    0.5077    1.2518 H   0  0  0  0  0  0  0  0  0  0  0  0
   -2.4787    1.3954    3.0311 C   0  0  0  0  0  0  0  0  0  0  0  0
   -1.7166    2.1767    3.0539 H   0  0  0  0  0  0  0  0  0  0  0  0
   -3.4649    1.8498    3.1344 H   0  0  0  0  0  0  0  0  0  0  0  0
   -2.3058    0.7133    3.8652 H   0  0  0  0  0  0  0  0  0  0  0  0
  5  6  2  0  0  0  0
  5  7  1  0  0  0  0
  2  3  1  0  0  0  0
  2  4  1  0  0  0  0
  2  5  1  0  0  0  0
  1  2  1  0  0  0  0
 29 30  2  0  0  0  0
 29 31  1  0  0  0  0
 26 27  1  0  0  0  0
 26 28  2  0  0  0  0
 24 25  1  0  0  0  0
 24 26  1  0  0  0  0
 22 23  1  0  0  0  0
 22 24  2  0  0  0  0
 20 21  1  0  0  0  0
 20 22  1  0  0  0  0
 19 20  2  0  0  0  0
 19 28  1  0  0  0  0
 17 18  1  0  0  0  0
 17 19  1  0  0  0  0
 15 16  1  0  0  0  0
 15 17  1  0  0  0  0
 14 15  2  0  0  0  0
 14 28  1  0  0  0  0
 11 12  1  0  0  0  0
 11 13  1  0  0  0  0
 11 14  1  0  0  0  0
  9 10  1  0  0  0  0
  9 11  1  0  0  0  0
  9 29  1  0  0  0  0
  7  8  1  0  0  0  0
  7  9  1  0  0  0  0
 33 34  1  0  0  0  0
 33 35  1  0  0  0  0
 33 36  1  0  0  0  0
 31 32  1  0  0  0  0
 31 33  1  0  0  0  0
M  END
$$$$
default_name
  -OEChem-02102213163D

 36 37  0     1  0  0  0  0  0999 V2000
   -4.0843   -4.0736    1.2944 H   0  0  0  0  0  0  0  0  0  0  0  0
   -4.0342   -3.2816    0.5484 C   0  0  0  0  0  0  0  0  0  0  0  0
   -4.8842   -2.6126    0.6694 H   0  0  0  0  0  0  0  0  0  0  0  0
   -4.0433   -3.7186   -0.4486 H   0  0  0  0  0  0  0  0  0  0  0  0
   -2.7532   -2.5046    0.7444 C   0  0  0  0  0  0  0  0  0  0  0  0
   -1.9803   -2.8096    1.6434 O   0  0  0  0  0  0  0  0  0  0  0  0
   -2.5332   -1.4966   -0.0966 N   0  0  0  0  0  0  0  0  0  0  0  0
   -3.2312   -1.2816   -0.7936 H   0  0  0  0  0  0  0  0  0  0  0  0
   -1.3593   -0.6196   -0.0536 C   0  0  1  0  0  0  0  0  0  0  0  0
   -0.4622   -1.2317   -0.1545 H   0  0  0  0  0  0  0  0  0  0  0  0
   -1.4074    0.3593   -1.2373 C   0  0  0  0  0  0  0  0  0  0  0  0
   -0.5312    0.1935   -1.8666 H   0  0  0  0  0  0  0  0  0  0  0  0
   -2.2916    0.1362   -1.8368 H   0  0  0  0  0  0  0  0  0  0  0  0
   -1.4411    1.8101   -0.8629 C   0  0  0  0  0  0  0  0  0  0  0  0
   -2.2172    2.3561    0.1000 C   0  0  0  0  0  0  0  0  0  0  0  0
   -2.9269    1.8049    0.7071 H   0  0  0  0  0  0  0  0  0  0  0  0
   -1.9507    3.7076    0.2001 N   0  0  0  0  0  0  0  0  0  0  0  0
   -2.4175    4.3205    0.8526 H   0  0  0  0  0  0  0  0  0  0  0  0
   -0.9713    4.0990   -0.6877 C   0  0  0  0  0  0  0  0  0  0  0  0
   -0.3469    5.3279   -0.9450 C   0  0  0  0  0  0  0  0  0  0  0  0
   -0.6255    6.2106   -0.3883 H   0  0  0  0  0  0  0  0  0  0  0  0
    0.6448    5.3952   -1.9385 C   0  0  0  0  0  0  0  0  0  0  0  0
    1.1365    6.3348   -2.1514 H   0  0  0  0  0  0  0  0  0  0  0  0
    0.9929    4.2392   -2.6608 C   0  0  0  0  0  0  0  0  0  0  0  0
    1.7505    4.2973   -3.4300 H   0  0  0  0  0  0  0  0  0  0  0  0
    0.3573    3.0097   -2.3951 C   0  0  0  0  0  0  0  0  0  0  0  0
    0.6247    2.1322   -2.9665 H   0  0  0  0  0  0  0  0  0  0  0  0
   -0.6383    2.9077   -1.3994 C   0  0  0  0  0  0  0  0  0  0  0  0
   -1.2663    0.1182    1.2910 C   0  0  0  0  0  0  0  0  0  0  0  0
   -0.1906    0.1931    1.8833 O   0  0  0  0  0  0  0  0  0  0  0  0
   -2.3930    0.6605    1.7722 N   0  0  0  0  0  0  0  0  0  0  0  0
   -3.2451    0.5077    1.2518 H   0  0  0  0  0  0  0  0  0  0  0  0
   -2.4787    1.3954    3.0311 C   0  0  0  0  0  0  0  0  0  0  0  0
   -1.7166    2.1767    3.0539 H   0  0  0  0  0  0  0  0  0  0  0  0
   -3.4649    1.8498    3.1344 H   0  0  0  0  0  0  0  0  0  0  0  0
   -2.3058    0.7133    3.8652 H   0  0  0  0  0  0  0  0  0  0  0  0
  5  6  2  0  0  0  0
  5  7  1  0  0  0  0
  2  3  1  0  0  0  0
  2  4  1  0  0  0  0
  2  5  1  0  0  0  0
  1  2  1  0  0  0  0
 29 30  2  0  0  0  0
 29 31  1  0  0  0  0
 26 27  1  0  0  0  0
 26 28  2  0  0  0  0
 24 25  1  0  0  0  0
 24 26  1  0  0  0  0
 22 23  1  0  0  0  0
 22 24  2  0  0  0  0
 20 21  1  0  0  0  0
 20 22  1  0  0  0  0
 19 20  2  0  0  0  0
 19 28  1  0  0  0  0
 17 18  1  0  0  0  0
 17 19  1  0  0  0  0
 15 16  1  0  0  0  0
 15 17  1  0  0  0  0
 14 15  2  0  0  0  0
 14 28  1  0  0  0  0
 11 12  1  0  0  0  0
 11 13  1  0  0  0  0
 11 14  1  0  0  0  0
  9 10  1  0  0  0  0
  9 11  1  0  0  0  0
  9 29  1  0  0  0  0
  7  8  1  0  0  0  0
  7  9  1  0  0  0  0
 33 34  1  0  0  0  0
 33 35  1  0  0  0  0
 33 36  1  0  0  0  0
 31 32  1  0  0  0  0
 31 33  1  0  0  0  0
M  END
$$$$
default_name
  -OEChem-02102213163D

 36 37  0     1  0  0  0  0  0999 V2000
   -4.0843   -4.0736    1.2944 H   0  0  0  0  0  0  0  0  0  0  0  0
   -4.0342   -3.2816    0.5484 C   0  0  0  0  0  0  0  0  0  0  0  0
   -4.8842   -2.6126    0.6694 H   0  0  0  0  0  0  0  0  0  0  0  0
   -4.0433   -3.7186   -0.4486 H   0  0  0  0  0  0  0  0  0  0  0  0
   -2.7532   -2.5046    0.7444 C   0  0  0  0  0  0  0  0  0  0  0  0
   -1.9803   -2.8096    1.6434 O   0  0  0  0  0  0  0  0  0  0  0  0
   -2.5332   -1.4966   -0.0966 N   0  0  0  0  0  0  0  0  0  0  0  0
   -3.2312   -1.2816   -0.7936 H   0  0  0  0  0  0  0  0  0  0  0  0
   -1.3593   -0.6196   -0.0536 C   0  0  1  0  0  0  0  0  0  0  0  0
   -0.4622   -1.2317   -0.1545 H   0  0  0  0  0  0  0  0  0  0  0  0
   -1.4074    0.3593   -1.2373 C   0  0  0  0  0  0  0  0  0  0  0  0
   -0.5312    0.1935   -1.8666 H   0  0  0  0  0  0  0  0  0  0  0  0
   -2.2916    0.1362   -1.8368 H   0  0  0  0  0  0  0  0  0  0  0  0
   -1.4411    1.8101   -0.8629 C   0  0  0  0  0  0  0  0  0  0  0  0
   -1.9854    2.3189    0.2651 C   0  0  0  0  0  0  0  0  0  0  0  0
   -2.4828    1.7320    1.0295 H   0  0  0  0  0  0  0  0  0  0  0  0
   -1.7913    3.6859    0.2985 N   0  0  0  0  0  0  0  0  0  0  0  0
   -2.1189    4.2768    1.0486 H   0  0  0  0  0  0  0  0  0  0  0  0
   -1.0931    4.1266   -0.8056 C   0  0  0  0  0  0  0  0  0  0  0  0
   -0.6348    5.3892   -1.2082 C   0  0  0  0  0  0  0  0  0  0  0  0
   -0.8223    6.2600   -0.5974 H   0  0  0  0  0  0  0  0  0  0  0  0
    0.0701    5.5057   -2.4185 C   0  0  0  0  0  0  0  0  0  0  0  0
    0.4302    6.4717   -2.7457 H   0  0  0  0  0  0  0  0  0  0  0  0
    0.3010    4.3643   -3.2078 C   0  0  0  0  0  0  0  0  0  0  0  0
    0.8365    4.4598   -4.1423 H   0  0  0  0  0  0  0  0  0  0  0  0
   -0.1660    3.1005   -2.7942 C   0  0  0  0  0  0  0  0  0  0  0  0
    0.0067    2.2339   -3.4165 H   0  0  0  0  0  0  0  0  0  0  0  0
   -0.8717    2.9492   -1.5809 C   0  0  0  0  0  0  0  0  0  0  0  0
   -1.2663    0.1182    1.2910 C   0  0  0  0  0  0  0  0  0  0  0  0
   -0.1906    0.1931    1.8833 O   0  0  0  0  0  0  0  0  0  0  0  0
   -2.3930    0.6605    1.7722 N   0  0  0  0  0  0  0  0  0  0  0  0
   -3.2451    0.5077    1.2518 H   0  0  0  0  0  0  0  0  0  0  0  0
   -2.4787    1.3954    3.0311 C   0  0  0  0  0  0  0  0  0  0  0  0
   -1.7166    2.1767    3.0539 H   0  0  0  0  0  0  0  0  0  0  0  0
   -3.4649    1.8498    3.1344 H   0  0  0  0  0  0  0  0  0  0  0  0
   -2.3058    0.7133    3.8652 H   0  0  0  0  0  0  0  0  0  0  0  0
  5  6  2  0  0  0  0
  5  7  1  0  0  0  0
  2  3  1  0  0  0  0
  2  4  1  0  0  0  0
  2  5  1  0  0  0  0
  1  2  1  0  0  0  0
 29 30  2  0  0  0  0
 29 31  1  0  0  0  0
 26 27  1  0  0  0  0
 26 28  2  0  0  0  0
 24 25  1  0  0  0  0
 24 26  1  0  0  0  0
 22 23  1  0  0  0  0
 22 24  2  0  0  0  0
 20 21  1  0  0  0  0
 20 22  1  0  0  0  0
 19 20  2  0  0  0  0
 19 28  1  0  0  0  0
 17 18  1  0  0  0  0
 17 19  1  0  0  0  0
 15 16  1  0  0  0  0
 15 17  1  0  0  0  0
 14 15  2  0  0  0  0
 14 28  1  0  0  0  0
 11 12  1  0  0  0  0
 11 13  1  0  0  0  0
 11 14  1  0  0  0  0
  9 10  1  0  0  0  0
  9 11  1  0  0  0  0
  9 29  1  0  0  0  0
  7  8  1  0  0  0  0
  7  9  1  0  0  0  0
 33 34  1  0  0  0  0
 33 35  1  0  0  0  0
 33 36  1  0  0  0  0
 31 32  1  0  0  0  0
 31 33  1  0  0  0  0
M  END
$$$$
default_name
  -OEChem-02102213163D

 36 37  0     1  0  0  0  0  0999 V2000
   -4.0843   -4.0736    1.2944 H   0  0  0  0  0  0  0  0  0  0  0  0
   -4.0342   -3.2816    0.5484 C   0  0  0  0  0  0  0  0  0  0  0  0
   -4.8842   -2.6126    0.6694 H   0  0  0  0  0  0  0  0  0  0  0  0
   -4.0433   -3.7186   -0.4486 H   0  0  0  0  0  0  0  0  0  0  0  0
   -2.7532   -2.5046    0.7444 C   0  0  0  0  0  0  0  0  0  0  0  0
   -1.9803   -2.8096    1.6434 O   0  0  0  0  0  0  0  0  0  0  0  0
   -2.5332   -1.4966   -0.0966 N   0  0  0  0  0  0  0  0  0  0  0  0
   -3.2312   -1.2816   -0.7936 H   0  0  0  0  0  0  0  0  0  0  0  0
   -1.3593   -0.6196   -0.0536 C   0  0  1  0  0  0  0  0  0  0  0  0
   -0.4622   -1.2317   -0.1545 H   0  0  0  0  0  0  0  0  0  0  0  0
   -1.4074    0.3593   -1.2373 C   0  0  0  0  0  0  0  0  0  0  0  0
   -0.5312    0.1935   -1.8666 H   0  0  0  0  0  0  0  0  0  0  0  0
   -2.2916    0.1362   -1.8368 H   0  0  0  0  0  0  0  0  0  0  0  0
   -1.4411    1.8101   -0.8629 C   0  0  0  0  0  0  0  0  0  0  0  0
   -1.7177    2.2989    0.3668 C   0  0  0  0  0  0  0  0  0  0  0  0
   -1.9685    1.6922    1.2300 H   0  0  0  0  0  0  0  0  0  0  0  0
   -1.6113    3.6758    0.3538 N   0  0  0  0  0  0  0  0  0  0  0  0
   -1.7786    4.2551    1.1635 H   0  0  0  0  0  0  0  0  0  0  0  0
   -1.2420    4.1446   -0.8891 C   0  0  0  0  0  0  0  0  0  0  0  0
   -0.9828    5.4282   -1.3907 C   0  0  0  0  0  0  0  0  0  0  0  0
   -1.0678    6.2937   -0.7503 H   0  0  0  0  0  0  0  0  0  0  0  0
   -0.6125    5.5725   -2.7387 C   0  0  0  0  0  0  0  0  0  0  0  0
   -0.4097    6.5548   -3.1435 H   0  0  0  0  0  0  0  0  0  0  0  0
   -0.5124    4.4371   -3.5635 C   0  0  0  0  0  0  0  0  0  0  0  0
   -0.2353    4.5536   -4.6022 H   0  0  0  0  0  0  0  0  0  0  0  0
   -0.7773    3.1520   -3.0491 C   0  0  0  0  0  0  0  0  0  0  0  0
   -0.7097    2.2896   -3.6969 H   0  0  0  0  0  0  0  0  0  0  0  0
   -1.1453    2.9730   -1.6980 C   0  0  0  0  0  0  0  0  0  0  0  0
   -1.2663    0.1182    1.2910 C   0  0  0  0  0  0  0  0  0  0  0  0
   -0.1906    0.1931    1.8833 O   0  0  0  0  0  0  0  0  0  0  0  0
   -2.3930    0.6605    1.7722 N   0  0  0  0  0  0  0  0  0  0  0  0
   -3.2451    0.5077    1.2518 H   0  0  0  0  0  0  0  0  0  0  0  0
   -2.4787    1.3954    3.0311 C   0  0  0  0  0  0  0  0  0  0  0  0
   -1.7166    2.1767    3.0539 H   0  0  0  0  0  0  0  0  0  0  0  0
   -3.4649    1.8498    3.1344 H   0  0  0  0  0  0  0  0  0  0  0  0
   -2.3058    0.7133    3.8652 H   0  0  0  0  0  0  0  0  0  0  0  0
  5  6  2  0  0  0  0
  5  7  1  0  0  0  0
  2  3  1  0  0  0  0
  2  4  1  0  0  0  0
  2  5  1  0  0  0  0
  1  2  1  0  0  0  0
 29 30  2  0  0  0  0
 29 31  1  0  0  0  0
 26 27  1  0  0  0  0
 26 28  2  0  0  0  0
 24 25  1  0  0  0  0
 24 26  1  0  0  0  0
 22 23  1  0  0  0  0
 22 24  2  0  0  0  0
 20 21  1  0  0  0  0
 20 22  1  0  0  0  0
 19 20  2  0  0  0  0
 19 28  1  0  0  0  0
 17 18  1  0  0  0  0
 17 19  1  0  0  0  0
 15 16  1  0  0  0  0
 15 17  1  0  0  0  0
 14 15  2  0  0  0  0
 14 28  1  0  0  0  0
 11 12  1  0  0  0  0
 11 13  1  0  0  0  0
 11 14  1  0  0  0  0
  9 10  1  0  0  0  0
  9 11  1  0  0  0  0
  9 29  1  0  0  0  0
  7  8  1  0  0  0  0
  7  9  1  0  0  0  0
 33 34  1  0  0  0  0
 33 35  1  0  0  0  0
 33 36  1  0  0  0  0
 31 32  1  0  0  0  0
 31 33  1  0  0  0  0
M  END
$$$$
default_name
  -OEChem-02102213163D

 36 37  0     1  0  0  0  0  0999 V2000
   -4.0843   -4.0736    1.2944 H   0  0  0  0  0  0  0  0  0  0  0  0
   -4.0342   -3.2816    0.5484 C   0  0  0  0  0  0  0  0  0  0  0  0
   -4.8842   -2.6126    0.6694 H   0  0  0  0  0  0  0  0  0  0  0  0
   -4.0433   -3.7186   -0.4486 H   0  0  0  0  0  0  0  0  0  0  0  0
   -2.7532   -2.5046    0.7444 C   0  0  0  0  0  0  0  0  0  0  0  0
   -1.9803   -2.8096    1.6434 O   0  0  0  0  0  0  0  0  0  0  0  0
   -2.5332   -1.4966   -0.0966 N   0  0  0  0  0  0  0  0  0  0  0  0
   -3.2312   -1.2816   -0.7936 H   0  0  0  0  0  0  0  0  0  0  0  0
   -1.3593   -0.6196   -0.0536 C   0  0  1  0  0  0  0  0  0  0  0  0
   -0.4622   -1.2317   -0.1545 H   0  0  0  0  0  0  0  0  0  0  0  0
   -1.4074    0.3593   -1.2373 C   0  0  0  0  0  0  0  0  0  0  0  0
   -0.5312    0.1935   -1.8666 H   0  0  0  0  0  0  0  0  0  0  0  0
   -2.2916    0.1362   -1.8368 H   0  0  0  0  0  0  0  0  0  0  0  0
   -1.4411    1.8101   -0.8629 C   0  0  0  0  0  0  0  0  0  0  0  0
   -1.4324    2.2975    0.3980 C   0  0  0  0  0  0  0  0  0  0  0  0
   -1.4188    1.6882    1.2951 H   0  0  0  0  0  0  0  0  0  0  0  0
   -1.4229    3.6781    0.3621 N   0  0  0  0  0  0  0  0  0  0  0  0
   -1.4196    4.2568    1.1892 H   0  0  0  0  0  0  0  0  0  0  0  0
   -1.4080    4.1520   -0.9325 C   0  0  0  0  0  0  0  0  0  0  0  0
   -1.3671    5.4423   -1.4801 C   0  0  0  0  0  0  0  0  0  0  0  0
   -1.3455    6.3096   -0.8366 H   0  0  0  0  0  0  0  0  0  0  0  0
   -1.3564    5.5910   -2.8775 C   0  0  0  0  0  0  0  0  0  0  0  0
   -1.3260    6.5785   -3.3178 H   0  0  0  0  0  0  0  0  0  0  0  0
   -1.3919    4.4529   -3.7038 C   0  0  0  0  0  0  0  0  0  0  0  0
   -1.3919    4.5721   -4.7784 H   0  0  0  0  0  0  0  0  0  0  0  0
   -1.4349    3.1608   -3.1424 C   0  0  0  0  0  0  0  0  0  0  0  0
   -1.4754    2.2955   -3.7886 H   0  0  0  0  0  0  0  0  0  0  0  0
   -1.4405    2.9777   -1.7427 C   0  0  0  0  0  0  0  0  0  0  0  0
   -1.2663    0.1182    1.2910 C   0  0  0  0  0  0  0  0  0  0  0  0
   -0.1906    0.1931    1.8833 O   0  0  0  0  0  0  0  0  0  0  0  0
   -2.3930    0.6605    1.7722 N   0  0  0  0  0  0  0  0  0  0  0  0
   -3.2451    0.5077    1.2518 H   0  0  0  0  0  0  0  0  0  0  0  0
   -2.4787    1.3954    3.0311 C   0  0  0  0  0  0  0  0  0  0  0  0
   -1.7166    2.1767    3.0539 H   0  0  0  0  0  0  0  0  0  0  0  0
   -3.4649    1.8498    3.1344 H   0  0  0  0  0  0  0  0  0  0  0  0
   -2.3058    0.7133    3.8652 H   0  0  0  0  0  0  0  0  0  0  0  0
  5  6  2  0  0  0  0
  5  7  1  0  0  0  0
  2  3  1  0  0  0  0
  2  4  1  0  0  0  0
  2  5  1  0  0  0  0
  1  2  1  0  0  0  0
 29 30  2  0  0  0  0
 29 31  1  0  0  0  0
 26 27  1  0  0  0  0
 26 28  2  0  0  0  0
 24 25  1  0  0  0  0
 24 26  1  0  0  0  0
 22 23  1  0  0  0  0
 22 24  2  0  0  0  0
 20 21  1  0  0  0  0
 20 22  1  0  0  0  0
 19 20  2  0  0  0  0
 19 28  1  0  0  0  0
 17 18  1  0  0  0  0
 17 19  1  0  0  0  0
 15 16  1  0  0  0  0
 15 17  1  0  0  0  0
 14 15  2  0  0  0  0
 14 28  1  0  0  0  0
 11 12  1  0  0  0  0
 11 13  1  0  0  0  0
 11 14  1  0  0  0  0
  9 10  1  0  0  0  0
  9 11  1  0  0  0  0
  9 29  1  0  0  0  0
  7  8  1  0  0  0  0
  7  9  1  0  0  0  0
 33 34  1  0  0  0  0
 33 35  1  0  0  0  0
 33 36  1  0  0  0  0
 31 32  1  0  0  0  0
 31 33  1  0  0  0  0
M  END
$$$$
default_name
  -OEChem-02102213163D

 36 37  0     1  0  0  0  0  0999 V2000
   -4.0843   -4.0736    1.2944 H   0  0  0  0  0  0  0  0  0  0  0  0
   -4.0342   -3.2816    0.5484 C   0  0  0  0  0  0  0  0  0  0  0  0
   -4.8842   -2.6126    0.6694 H   0  0  0  0  0  0  0  0  0  0  0  0
   -4.0433   -3.7186   -0.4486 H   0  0  0  0  0  0  0  0  0  0  0  0
   -2.7532   -2.5046    0.7444 C   0  0  0  0  0  0  0  0  0  0  0  0
   -1.9803   -2.8096    1.6434 O   0  0  0  0  0  0  0  0  0  0  0  0
   -2.5332   -1.4966   -0.0966 N   0  0  0  0  0  0  0  0  0  0  0  0
   -3.2312   -1.2816   -0.7936 H   0  0  0  0  0  0  0  0  0  0  0  0
   -1.3593   -0.6196   -0.0536 C   0  0  1  0  0  0  0  0  0  0  0  0
   -0.4622   -1.2317   -0.1545 H   0  0  0  0  0  0  0  0  0  0  0  0
   -1.4074    0.3593   -1.2373 C   0  0  0  0  0  0  0  0  0  0  0  0
   -0.5312    0.1935   -1.8666 H   0  0  0  0  0  0  0  0  0  0  0  0
   -2.2916    0.1362   -1.8368 H   0  0  0  0  0  0  0  0  0  0  0  0
   -1.4411    1.8101   -0.8629 C   0  0  0  0  0  0  0  0  0  0  0  0
   -1.1489    2.3147    0.3568 C   0  0  0  0  0  0  0  0  0  0  0  0
   -0.8713    1.7202    1.2203 H   0  0  0  0  0  0  0  0  0  0  0  0
   -1.2389    3.6925    0.3229 N   0  0  0  0  0  0  0  0  0  0  0  0
   -1.0666    4.2818    1.1242 H   0  0  0  0  0  0  0  0  0  0  0  0
   -1.5797    4.1481   -0.9329 C   0  0  0  0  0  0  0  0  0  0  0  0
   -1.7616    5.4306   -1.4701 C   0  0  0  0  0  0  0  0  0  0  0  0
   -1.6364    6.3064   -0.8506 H   0  0  0  0  0  0  0  0  0  0  0  0
   -2.1109    5.5600   -2.8253 C   0  0  0  0  0  0  0  0  0  0  0  0
   -2.2563    6.5411   -3.2567 H   0  0  0  0  0  0  0  0  0  0  0  0
   -2.2776    4.4104   -3.6190 C   0  0  0  0  0  0  0  0  0  0  0  0
   -2.5545    4.5143   -4.6590 H   0  0  0  0  0  0  0  0  0  0  0  0
   -2.0942    3.1263   -3.0679 C   0  0  0  0  0  0  0  0  0  0  0  0
   -2.2385    2.2511   -3.6854 H   0  0  0  0  0  0  0  0  0  0  0  0
   -1.7371    2.9628   -1.7119 C   0  0  0  0  0  0  0  0  0  0  0  0
   -1.2663    0.1182    1.2910 C   0  0  0  0  0  0  0  0  0  0  0  0
   -0.1906    0.1931    1.8833 O   0  0  0  0  0  0  0  0  0  0  0  0
   -2.3930    0.6605    1.7722 N   0  0  0  0  0  0  0  0  0  0  0  0
   -3.2451    0.5077    1.2518 H   0  0  0  0  0  0  0  0  0  0  0  0
   -2.4787    1.3954    3.0311 C   0  0  0  0  0  0  0  0  0  0  0  0
   -1.7166    2.1767    3.0539 H   0  0  0  0  0  0  0  0  0  0  0  0
   -3.4649    1.8498    3.1344 H   0  0  0  0  0  0  0  0  0  0  0  0
   -2.3058    0.7133    3.8652 H   0  0  0  0  0  0  0  0  0  0  0  0
  5  6  2  0  0  0  0
  5  7  1  0  0  0  0
  2  3  1  0  0  0  0
  2  4  1  0  0  0  0
  2  5  1  0  0  0  0
  1  2  1  0  0  0  0
 29 30  2  0  0  0  0
 29 31  1  0  0  0  0
 26 27  1  0  0  0  0
 26 28  2  0  0  0  0
 24 25  1  0  0  0  0
 24 26  1  0  0  0  0
 22 23  1  0  0  0  0
 22 24  2  0  0  0  0
 20 21  1  0  0  0  0
 20 22  1  0  0  0  0
 19 20  2  0  0  0  0
 19 28  1  0  0  0  0
 17 18  1  0  0  0  0
 17 19  1  0  0  0  0
 15 16  1  0  0  0  0
 15 17  1  0  0  0  0
 14 15  2  0  0  0  0
 14 28  1  0  0  0  0
 11 12  1  0  0  0  0
 11 13  1  0  0  0  0
 11 14  1  0  0  0  0
  9 10  1  0  0  0  0
  9 11  1  0  0  0  0
  9 29  1  0  0  0  0
  7  8  1  0  0  0  0
  7  9  1  0  0  0  0
 33 34  1  0  0  0  0
 33 35  1  0  0  0  0
 33 36  1  0  0  0  0
 31 32  1  0  0  0  0
 31 33  1  0  0  0  0
M  END
$$$$
default_name
  -OEChem-02102213163D

 36 37  0     1  0  0  0  0  0999 V2000
   -4.0843   -4.0736    1.2944 H   0  0  0  0  0  0  0  0  0  0  0  0
   -4.0342   -3.2816    0.5484 C   0  0  0  0  0  0  0  0  0  0  0  0
   -4.8842   -2.6126    0.6694 H   0  0  0  0  0  0  0  0  0  0  0  0
   -4.0433   -3.7186   -0.4486 H   0  0  0  0  0  0  0  0  0  0  0  0
   -2.7532   -2.5046    0.7444 C   0  0  0  0  0  0  0  0  0  0  0  0
   -1.9803   -2.8096    1.6434 O   0  0  0  0  0  0  0  0  0  0  0  0
   -2.5332   -1.4966   -0.0966 N   0  0  0  0  0  0  0  0  0  0  0  0
   -3.2312   -1.2816   -0.7936 H   0  0  0  0  0  0  0  0  0  0  0  0
   -1.3593   -0.6196   -0.0536 C   0  0  1  0  0  0  0  0  0  0  0  0
   -0.4622   -1.2317   -0.1545 H   0  0  0  0  0  0  0  0  0  0  0  0
   -1.4074    0.3593   -1.2373 C   0  0  0  0  0  0  0  0  0  0  0  0
   -0.5312    0.1935   -1.8666 H   0  0  0  0  0  0  0  0  0  0  0  0
   -2.2916    0.1362   -1.8368 H   0  0  0  0  0  0  0  0  0  0  0  0
   -1.4411    1.8101   -0.8629 C   0  0  0  0  0  0  0  0  0  0  0  0
   -0.8865    2.3495    0.2457 C   0  0  0  0  0  0  0  0  0  0  0  0
   -0.3633    1.7861    1.0107 H   0  0  0  0  0  0  0  0  0  0  0  0
   -1.0721    3.7180    0.2388 N   0  0  0  0  0  0  0  0  0  0  0  0
   -0.7435    4.3284    0.9728 H   0  0  0  0  0  0  0  0  0  0  0  0
   -1.7454    4.1333   -0.8903 C   0  0  0  0  0  0  0  0  0  0  0  0
   -2.1395    5.3938   -1.3616 C   0  0  0  0  0  0  0  0  0  0  0  0
   -1.9207    6.2845   -0.7911 H   0  0  0  0  0  0  0  0  0  0  0  0
   -2.8245    5.4815   -2.5856 C   0  0  0  0  0  0  0  0  0  0  0  0
   -3.1372    6.4452   -2.9644 H   0  0  0  0  0  0  0  0  0  0  0  0
   -3.1092    4.3126   -3.3149 C   0  0  0  0  0  0  0  0  0  0  0  0
   -3.6438    4.3839   -4.2520 H   0  0  0  0  0  0  0  0  0  0  0  0
   -2.7100    3.0507   -2.8305 C   0  0  0  0  0  0  0  0  0  0  0  0
   -2.9468    2.1595   -3.3942 H   0  0  0  0  0  0  0  0  0  0  0  0
   -2.0150    2.9295   -1.6078 C   0  0  0  0  0  0  0  0  0  0  0  0
   -1.2663    0.1182    1.2910 C   0  0  0  0  0  0  0  0  0  0  0  0
   -0.1906    0.1931    1.8833 O   0  0  0  0  0  0  0  0  0  0  0  0
   -2.3930    0.6605    1.7722 N   0  0  0  0  0  0  0  0  0  0  0  0
   -3.2451    0.5077    1.2518 H   0  0  0  0  0  0  0  0  0  0  0  0
   -2.4787    1.3954    3.0311 C   0  0  0  0  0  0  0  0  0  0  0  0
   -1.7166    2.1767    3.0539 H   0  0  0  0  0  0  0  0  0  0  0  0
   -3.4649    1.8498    3.1344 H   0  0  0  0  0  0  0  0  0  0  0  0
   -2.3058    0.7133    3.8652 H   0  0  0  0  0  0  0  0  0  0  0  0
  5  6  2  0  0  0  0
  5  7  1  0  0  0  0
  2  3  1  0  0  0  0
  2  4  1  0  0  0  0
  2  5  1  0  0  0  0
  1  2  1  0  0  0  0
 29 30  2  0  0  0  0
 29 31  1  0  0  0  0
 26 27  1  0  0  0  0
 26 28  2  0  0  0  0
 24 25  1  0  0  0  0
 24 26  1  0  0  0  0
 22 23  1  0  0  0  0
 22 24  2  0  0  0  0
 20 21  1  0  0  0  0
 20 22  1  0  0  0  0
 19 20  2  0  0  0  0
 19 28  1  0  0  0  0
 17 18  1  0  0  0  0
 17 19  1  0  0  0  0
 15 16  1  0  0  0  0
 15 17  1  0  0  0  0
 14 15  2  0  0  0  0
 14 28  1  0  0  0  0
 11 12  1  0  0  0  0
 11 13  1  0  0  0  0
 11 14  1  0  0  0  0
  9 10  1  0  0  0  0
  9 11  1  0  0  0  0
  9 29  1  0  0  0  0
  7  8  1  0  0  0  0
  7  9  1  0  0  0  0
 33 34  1  0  0  0  0
 33 35  1  0  0  0  0
 33 36  1  0  0  0  0
 31 32  1  0  0  0  0
 31 33  1  0  0  0  0
M  END
$$$$
default_name
  -OEChem-02102213163D

 36 37  0     1  0  0  0  0  0999 V2000
   -4.0843   -4.0736    1.2944 H   0  0  0  0  0  0  0  0  0  0  0  0
   -4.0342   -3.2816    0.5484 C   0  0  0  0  0  0  0  0  0  0  0  0
   -4.8842   -2.6126    0.6694 H   0  0  0  0  0  0  0  0  0  0  0  0
   -4.0433   -3.7186   -0.4486 H   0  0  0  0  0  0  0  0  0  0  0  0
   -2.7532   -2.5046    0.7444 C   0  0  0  0  0  0  0  0  0  0  0  0
   -1.9803   -2.8096    1.6434 O   0  0  0  0  0  0  0  0  0  0  0  0
   -2.5332   -1.4966   -0.0966 N   0  0  0  0  0  0  0  0  0  0  0  0
   -3.2312   -1.2816   -0.7936 H   0  0  0  0  0  0  0  0  0  0  0  0
   -1.3593   -0.6196   -0.0536 C   0  0  1  0  0  0  0  0  0  0  0  0
   -0.4622   -1.2317   -0.1545 H   0  0  0  0  0  0  0  0  0  0  0  0
   -1.4074    0.3593   -1.2373 C   0  0  0  0  0  0  0  0  0  0  0  0
   -0.5312    0.1935   -1.8666 H   0  0  0  0  0  0  0  0  0  0  0  0
   -2.2916    0.1362   -1.8368 H   0  0  0  0  0  0  0  0  0  0  0  0
   -1.4411    1.8101   -0.8629 C   0  0  0  0  0  0  0  0  0  0  0  0
   -0.6631    2.3993    0.0725 C   0  0  0  0  0  0  0  0  0  0  0  0
    0.0706    1.8814    0.6805 H   0  0  0  0  0  0  0  0  0  0  0  0
   -0.9336    3.7530    0.1157 N   0  0  0  0  0  0  0  0  0  0  0  0
   -0.4723    4.3934    0.7453 H   0  0  0  0  0  0  0  0  0  0  0  0
   -1.8938    4.1084   -0.8075 C   0  0  0  0  0  0  0  0  0  0  0  0
   -2.4749    5.3344   -1.1619 C   0  0  0  0  0  0  0  0  0  0  0  0
   -2.1790    6.2452   -0.6624 H   0  0  0  0  0  0  0  0  0  0  0  0
   -3.4488    5.3610   -2.1748 C   0  0  0  0  0  0  0  0  0  0  0  0
   -3.9087    6.2973   -2.4608 H   0  0  0  0  0  0  0  0  0  0  0  0
   -3.8299    4.1661   -2.8123 C   0  0  0  0  0  0  0  0  0  0  0  0
   -4.5855    4.1900   -3.5852 H   0  0  0  0  0  0  0  0  0  0  0  0
   -3.2405    2.9393   -2.4465 C   0  0  0  0  0  0  0  0  0  0  0  0
   -3.5521    2.0269   -2.9350 H   0  0  0  0  0  0  0  0  0  0  0  0
   -2.2551    2.8799   -1.4374 C   0  0  0  0  0  0  0  0  0  0  0  0
   -1.2663    0.1182    1.2910 C   0  0  0  0  0  0  0  0  0  0  0  0
   -0.1906    0.1931    1.8833 O   0  0  0  0  0  0  0  0  0  0  0  0
   -2.3930    0.6605    1.7722 N   0  0  0  0  0  0  0  0  0  0  0  0
   -3.2451    0.5077    1.2518 H   0  0  0  0  0  0  0  0  0  0  0  0
   -2.4787    1.3954    3.0311 C   0  0  0  0  0  0  0  0  0  0  0  0
   -1.7166    2.1767    3.0539 H   0  0  0  0  0  0  0  0  0  0  0  0
   -3.4649    1.8498    3.1344 H   0  0  0  0  0  0  0  0  0  0  0  0
   -2.3058    0.7133    3.8652 H   0  0  0  0  0  0  0  0  0  0  0  0
  5  6  2  0  0  0  0
  5  7  1  0  0  0  0
  2  3  1  0  0  0  0
  2  4  1  0  0  0  0
  2  5  1  0  0  0  0
  1  2  1  0  0  0  0
 29 30  2  0  0  0  0
 29 31  1  0  0  0  0
 26 27  1  0  0  0  0
 26 28  2  0  0  0  0
 24 25  1  0  0  0  0
 24 26  1  0  0  0  0
 22 23  1  0  0  0  0
 22 24  2  0  0  0  0
 20 21  1  0  0  0  0
 20 22  1  0  0  0  0
 19 20  2  0  0  0  0
 19 28  1  0  0  0  0
 17 18  1  0  0  0  0
 17 19  1  0  0  0  0
 15 16  1  0  0  0  0
 15 17  1  0  0  0  0
 14 15  2  0  0  0  0
 14 28  1  0  0  0  0
 11 12  1  0  0  0  0
 11 13  1  0  0  0  0
 11 14  1  0  0  0  0
  9 10  1  0  0  0  0
  9 11  1  0  0  0  0
  9 29  1  0  0  0  0
  7  8  1  0  0  0  0
  7  9  1  0  0  0  0
 33 34  1  0  0  0  0
 33 35  1  0  0  0  0
 33 36  1  0  0  0  0
 31 32  1  0  0  0  0
 31 33  1  0  0  0  0
M  END
$$$$
default_name
  -OEChem-02102213163D

 36 37  0     1  0  0  0  0  0999 V2000
   -4.0843   -4.0736    1.2944 H   0  0  0  0  0  0  0  0  0  0  0  0
   -4.0342   -3.2816    0.5484 C   0  0  0  0  0  0  0  0  0  0  0  0
   -4.8842   -2.6126    0.6694 H   0  0  0  0  0  0  0  0  0  0  0  0
   -4.0433   -3.7186   -0.4486 H   0  0  0  0  0  0  0  0  0  0  0  0
   -2.7532   -2.5046    0.7444 C   0  0  0  0  0  0  0  0  0  0  0  0
   -1.9803   -2.8096    1.6434 O   0  0  0  0  0  0  0  0  0  0  0  0
   -2.5332   -1.4966   -0.0966 N   0  0  0  0  0  0  0  0  0  0  0  0
   -3.2312   -1.2816   -0.7936 H   0  0  0  0  0  0  0  0  0  0  0  0
   -1.3593   -0.6196   -0.0536 C   0  0  1  0  0  0  0  0  0  0  0  0
   -0.4622   -1.2317   -0.1545 H   0  0  0  0  0  0  0  0  0  0  0  0
   -1.4074    0.3593   -1.2373 C   0  0  0  0  0  0  0  0  0  0  0  0
   -0.5312    0.1935   -1.8666 H   0  0  0  0  0  0  0  0  0  0  0  0
   -2.2916    0.1362   -1.8368 H   0  0  0  0  0  0  0  0  0  0  0  0
   -1.4411    1.8101   -0.8629 C   0  0  0  0  0  0  0  0  0  0  0  0
   -0.4939    2.4610   -0.1510 C   0  0  0  0  0  0  0  0  0  0  0  0
    0.4009    1.9996    0.2523 H   0  0  0  0  0  0  0  0  0  0  0  0
   -0.8329    3.7951   -0.0381 N   0  0  0  0  0  0  0  0  0  0  0  0
   -0.2716    4.4724    0.4572 H   0  0  0  0  0  0  0  0  0  0  0  0
   -2.0148    4.0754   -0.6902 C   0  0  0  0  0  0  0  0  0  0  0  0
   -2.7450    5.2566   -0.8847 C   0  0  0  0  0  0  0  0  0  0  0  0
   -2.3937    6.1914   -0.4731 H   0  0  0  0  0  0  0  0  0  0  0  0
   -3.9410    5.2067   -1.6209 C   0  0  0  0  0  0  0  0  0  0  0  0
   -4.5181    6.1075   -1.7802 H   0  0  0  0  0  0  0  0  0  0  0  0
   -4.3906    3.9810   -2.1453 C   0  0  0  0  0  0  0  0  0  0  0  0
   -5.3156    3.9456   -2.7041 H   0  0  0  0  0  0  0  0  0  0  0  0
   -3.6495    2.7996   -1.9420 C   0  0  0  0  0  0  0  0  0  0  0  0
   -4.0131    1.8624   -2.3390 H   0  0  0  0  0  0  0  0  0  0  0  0
   -2.4412    2.8175   -1.2123 C   0  0  0  0  0  0  0  0  0  0  0  0
   -1.2663    0.1182    1.2910 C   0  0  0  0  0  0  0  0  0  0  0  0
   -0.1906    0.1931    1.8833 O   0  0  0  0  0  0  0  0  0  0  0  0
   -2.3930    0.6605    1.7722 N   0  0  0  0  0  0  0  0  0  0  0  0
   -3.2451    0.5077    1.2518 H   0  0  0  0  0  0  0  0  0  0  0  0
   -2.4787    1.3954    3.0311 C   0  0  0  0  0  0  0  0  0  0  0  0
   -1.7166    2.1767    3.0539 H   0  0  0  0  0  0  0  0  0  0  0  0
   -3.4649    1.8498    3.1344 H   0  0  0  0  0  0  0  0  0  0  0  0
   -2.3058    0.7133    3.8652 H   0  0  0  0  0  0  0  0  0  0  0  0
  5  6  2  0  0  0  0
  5  7  1  0  0  0  0
  2  3  1  0  0  0  0
  2  4  1  0  0  0  0
  2  5  1  0  0  0  0
  1  2  1  0  0  0  0
 29 30  2  0  0  0  0
 29 31  1  0  0  0  0
 26 27  1  0  0  0  0
 26 28  2  0  0  0  0
 24 25  1  0  0  0  0
 24 26  1  0  0  0  0
 22 23  1  0  0  0  0
 22 24  2  0  0  0  0
 20 21  1  0  0  0  0
 20 22  1  0  0  0  0
 19 20  2  0  0  0  0
 19 28  1  0  0  0  0
 17 18  1  0  0  0  0
 17 19  1  0  0  0  0
 15 16  1  0  0  0  0
 15 17  1  0  0  0  0
 14 15  2  0  0  0  0
 14 28  1  0  0  0  0
 11 12  1  0  0  0  0
 11 13  1  0  0  0  0
 11 14  1  0  0  0  0
  9 10  1  0  0  0  0
  9 11  1  0  0  0  0
  9 29  1  0  0  0  0
  7  8  1  0  0  0  0
  7  9  1  0  0  0  0
 33 34  1  0  0  0  0
 33 35  1  0  0  0  0
 33 36  1  0  0  0  0
 31 32  1  0  0  0  0
 31 33  1  0  0  0  0
M  END
$$$$
default_name
  -OEChem-02102213163D

 36 37  0     1  0  0  0  0  0999 V2000
   -4.0843   -4.0736    1.2944 H   0  0  0  0  0  0  0  0  0  0  0  0
   -4.0342   -3.2816    0.5484 C   0  0  0  0  0  0  0  0  0  0  0  0
   -4.8842   -2.6126    0.6694 H   0  0  0  0  0  0  0  0  0  0  0  0
   -4.0433   -3.7186   -0.4486 H   0  0  0  0  0  0  0  0  0  0  0  0
   -2.7532   -2.5046    0.7444 C   0  0  0  0  0  0  0  0  0  0  0  0
   -1.9803   -2.8096    1.6434 O   0  0  0  0  0  0  0  0  0  0  0  0
   -2.5332   -1.4966   -0.0966 N   0  0  0  0  0  0  0  0  0  0  0  0
   -3.2312   -1.2816   -0.7936 H   0  0  0  0  0  0  0  0  0  0  0  0
   -1.3593   -0.6196   -0.0536 C   0  0  1  0  0  0  0  0  0  0  0  0
   -0.4622   -1.2317   -0.1545 H   0  0  0  0  0  0  0  0  0  0  0  0
   -1.4074    0.3593   -1.2373 C   0  0  0  0  0  0  0  0  0  0  0  0
   -0.5312    0.1935   -1.8666 H   0  0  0  0  0  0  0  0  0  0  0  0
   -2.2916    0.1362   -1.8368 H   0  0  0  0  0  0  0  0  0  0  0  0
   -1.4411    1.8101   -0.8629 C   0  0  0  0  0  0  0  0  0  0  0  0
   -0.3905    2.5301   -0.4097 C   0  0  0  0  0  0  0  0  0  0  0  0
    0.6050    2.1326   -0.2447 H   0  0  0  0  0  0  0  0  0  0  0  0
   -0.7769    3.8413   -0.2122 N   0  0  0  0  0  0  0  0  0  0  0  0
   -0.1550    4.5600    0.1283 H   0  0  0  0  0  0  0  0  0  0  0  0
   -2.1002    4.0363   -0.5464 C   0  0  0  0  0  0  0  0  0  0  0  0
   -2.9314    5.1656   -0.5487 C   0  0  0  0  0  0  0  0  0  0  0  0
   -2.5502    6.1266   -0.2361 H   0  0  0  0  0  0  0  0  0  0  0  0
   -4.2678    5.0289   -0.9617 C   0  0  0  0  0  0  0  0  0  0  0  0
   -4.9240    5.8887   -0.9690 H   0  0  0  0  0  0  0  0  0  0  0  0
   -4.7532    3.7698   -1.3596 C   0  0  0  0  0  0  0  0  0  0  0  0
   -5.7842    3.6676   -1.6686 H   0  0  0  0  0  0  0  0  0  0  0  0
   -3.9092    2.6412   -1.3514 C   0  0  0  0  0  0  0  0  0  0  0  0
   -4.2984    1.6772   -1.6468 H   0  0  0  0  0  0  0  0  0  0  0  0
   -2.5604    2.7466   -0.9480 C   0  0  0  0  0  0  0  0  0  0  0  0
   -1.2663    0.1182    1.2910 C   0  0  0  0  0  0  0  0  0  0  0  0
   -0.1906    0.1931    1.8833 O   0  0  0  0  0  0  0  0  0  0  0  0
   -2.3930    0.6605    1.7722 N   0  0  0  0  0  0  0  0  0  0  0  0
   -3.2451    0.5077    1.2518 H   0  0  0  0  0  0  0  0  0  0  0  0
   -2.4787    1.3954    3.0311 C   0  0  0  0  0  0  0  0  0  0  0  0
   -1.7166    2.1767    3.0539 H   0  0  0  0  0  0  0  0  0  0  0  0
   -3.4649    1.8498    3.1344 H   0  0  0  0  0  0  0  0  0  0  0  0
   -2.3058    0.7133    3.8652 H   0  0  0  0  0  0  0  0  0  0  0  0
  5  6  2  0  0  0  0
  5  7  1  0  0  0  0
  2  3  1  0  0  0  0
  2  4  1  0  0  0  0
  2  5  1  0  0  0  0
  1  2  1  0  0  0  0
 29 30  2  0  0  0  0
 29 31  1  0  0  0  0
 26 27  1  0  0  0  0
 26 28  2  0  0  0  0
 24 25  1  0  0  0  0
 24 26  1  0  0  0  0
 22 23  1  0  0  0  0
 22 24  2  0  0  0  0
 20 21  1  0  0  0  0
 20 22  1  0  0  0  0
 19 20  2  0  0  0  0
 19 28  1  0  0  0  0
 17 18  1  0  0  0  0
 17 19  1  0  0  0  0
 15 16  1  0  0  0  0
 15 17  1  0  0  0  0
 14 15  2  0  0  0  0
 14 28  1  0  0  0  0
 11 12  1  0  0  0  0
 11 13  1  0  0  0  0
 11 14  1  0  0  0  0
  9 10  1  0  0  0  0
  9 11  1  0  0  0  0
  9 29  1  0  0  0  0
  7  8  1  0  0  0  0
  7  9  1  0  0  0  0
 33 34  1  0  0  0  0
 33 35  1  0  0  0  0
 33 36  1  0  0  0  0
 31 32  1  0  0  0  0
 31 33  1  0  0  0  0
M  END
$$$$
default_name
  -OEChem-02102213163D

 36 37  0     1  0  0  0  0  0999 V2000
   -4.0843   -4.0736    1.2944 H   0  0  0  0  0  0  0  0  0  0  0  0
   -4.0342   -3.2816    0.5484 C   0  0  0  0  0  0  0  0  0  0  0  0
   -4.8842   -2.6126    0.6694 H   0  0  0  0  0  0  0  0  0  0  0  0
   -4.0433   -3.7186   -0.4486 H   0  0  0  0  0  0  0  0  0  0  0  0
   -2.7532   -2.5046    0.7444 C   0  0  0  0  0  0  0  0  0  0  0  0
   -1.9803   -2.8096    1.6434 O   0  0  0  0  0  0  0  0  0  0  0  0
   -2.5332   -1.4966   -0.0966 N   0  0  0  0  0  0  0  0  0  0  0  0
   -3.2312   -1.2816   -0.7936 H   0  0  0  0  0  0  0  0  0  0  0  0
   -1.3593   -0.6196   -0.0536 C   0  0  1  0  0  0  0  0  0  0  0  0
   -0.4622   -1.2317   -0.1545 H   0  0  0  0  0  0  0  0  0  0  0  0
   -1.4074    0.3593   -1.2373 C   0  0  0  0  0  0  0  0  0  0  0  0
   -0.5312    0.1935   -1.8666 H   0  0  0  0  0  0  0  0  0  0  0  0
   -2.2916    0.1362   -1.8368 H   0  0  0  0  0  0  0  0  0  0  0  0
   -1.4411    1.8101   -0.8629 C   0  0  0  0  0  0  0  0  0  0  0  0
   -0.3599    2.6021   -0.6859 C   0  0  0  0  0  0  0  0  0  0  0  0
    0.6690    2.2714   -0.7767 H   0  0  0  0  0  0  0  0  0  0  0  0
   -0.7694    3.8885   -0.3946 N   0  0  0  0  0  0  0  0  0  0  0  0
   -0.1305    4.6502   -0.2192 H   0  0  0  0  0  0  0  0  0  0  0  0
   -2.1441    3.9938   -0.3859 C   0  0  0  0  0  0  0  0  0  0  0  0
   -3.0214    5.0676   -0.1770 C   0  0  0  0  0  0  0  0  0  0  0  0
   -2.6377    6.0553    0.0324 H   0  0  0  0  0  0  0  0  0  0  0  0
   -4.4067    4.8400   -0.2420 C   0  0  0  0  0  0  0  0  0  0  0  0
   -5.0986    5.6559   -0.0825 H   0  0  0  0  0  0  0  0  0  0  0  0
   -4.8929    3.5470   -0.5085 C   0  0  0  0  0  0  0  0  0  0  0  0
   -5.9595    3.3747   -0.5494 H   0  0  0  0  0  0  0  0  0  0  0  0
   -4.0018    2.4748   -0.7150 C   0  0  0  0  0  0  0  0  0  0  0  0
   -4.3887    1.4838   -0.9056 H   0  0  0  0  0  0  0  0  0  0  0  0
   -2.6049    2.6718   -0.6623 C   0  0  0  0  0  0  0  0  0  0  0  0
   -1.2663    0.1182    1.2910 C   0  0  0  0  0  0  0  0  0  0  0  0
   -0.1906    0.1931    1.8833 O   0  0  0  0  0  0  0  0  0  0  0  0
   -2.3930    0.6605    1.7722 N   0  0  0  0  0  0  0  0  0  0  0  0
   -3.2451    0.5077    1.2518 H   0  0  0  0  0  0  0  0  0  0  0  0
   -2.4787    1.3954    3.0311 C   0  0  0  0  0  0  0  0  0  0  0  0
   -1.7166    2.1767    3.0539 H   0  0  0  0  0  0  0  0  0  0  0  0
   -3.4649    1.8498    3.1344 H   0  0  0  0  0  0  0  0  0  0  0  0
   -2.3058    0.7133    3.8652 H   0  0  0  0  0  0  0  0  0  0  0  0
  5  6  2  0  0  0  0
  5  7  1  0  0  0  0
  2  3  1  0  0  0  0
  2  4  1  0  0  0  0
  2  5  1  0  0  0  0
  1  2  1  0  0  0  0
 29 30  2  0  0  0  0
 29 31  1  0  0  0  0
 26 27  1  0  0  0  0
 26 28  2  0  0  0  0
 24 25  1  0  0  0  0
 24 26  1  0  0  0  0
 22 23  1  0  0  0  0
 22 24  2  0  0  0  0
 20 21  1  0  0  0  0
 20 22  1  0  0  0  0
 19 20  2  0  0  0  0
 19 28  1  0  0  0  0
 17 18  1  0  0  0  0
 17 19  1  0  0  0  0
 15 16  1  0  0  0  0
 15 17  1  0  0  0  0
 14 15  2  0  0  0  0
 14 28  1  0  0  0  0
 11 12  1  0  0  0  0
 11 13  1  0  0  0  0
 11 14  1  0  0  0  0
  9 10  1  0  0  0  0
  9 11  1  0  0  0  0
  9 29  1  0  0  0  0
  7  8  1  0  0  0  0
  7  9  1  0  0  0  0
 33 34  1  0  0  0  0
 33 35  1  0  0  0  0
 33 36  1  0  0  0  0
 31 32  1  0  0  0  0
 31 33  1  0  0  0  0
M  END
$$$$
default_name
  -OEChem-02102213163D

 36 37  0     1  0  0  0  0  0999 V2000
   -4.0843   -4.0736    1.2944 H   0  0  0  0  0  0  0  0  0  0  0  0
   -4.0342   -3.2816    0.5484 C   0  0  0  0  0  0  0  0  0  0  0  0
   -4.8842   -2.6126    0.6694 H   0  0  0  0  0  0  0  0  0  0  0  0
   -4.0433   -3.7186   -0.4486 H   0  0  0  0  0  0  0  0  0  0  0  0
   -2.7532   -2.5046    0.7444 C   0  0  0  0  0  0  0  0  0  0  0  0
   -1.9803   -2.8096    1.6434 O   0  0  0  0  0  0  0  0  0  0  0  0
   -2.5332   -1.4966   -0.0966 N   0  0  0  0  0  0  0  0  0  0  0  0
   -3.2312   -1.2816   -0.7936 H   0  0  0  0  0  0  0  0  0  0  0  0
   -1.3593   -0.6196   -0.0536 C   0  0  1  0  0  0  0  0  0  0  0  0
   -0.4622   -1.2317   -0.1545 H   0  0  0  0  0  0  0  0  0  0  0  0
   -1.4074    0.3593   -1.2373 C   0  0  0  0  0  0  0  0  0  0  0  0
   -0.5312    0.1935   -1.8666 H   0  0  0  0  0  0  0  0  0  0  0  0
   -2.2916    0.1362   -1.8368 H   0  0  0  0  0  0  0  0  0  0  0  0
   -1.4411    1.8101   -0.8629 C   0  0  0  0  0  0  0  0  0  0  0  0
   -0.4041    2.6720   -0.9607 C   0  0  0  0  0  0  0  0  0  0  0  0
    0.5885    2.4064   -1.3074 H   0  0  0  0  0  0  0  0  0  0  0  0
   -0.8110    3.9336   -0.5730 N   0  0  0  0  0  0  0  0  0  0  0  0
   -0.1997    4.7370   -0.5616 H   0  0  0  0  0  0  0  0  0  0  0  0
   -2.1435    3.9509   -0.2196 C   0  0  0  0  0  0  0  0  0  0  0  0
   -3.0089    4.9692    0.2052 C   0  0  0  0  0  0  0  0  0  0  0  0
   -2.6504    5.9823    0.3141 H   0  0  0  0  0  0  0  0  0  0  0  0
   -4.3484    4.6527    0.4891 C   0  0  0  0  0  0  0  0  0  0  0  0
   -5.0302    5.4249    0.8190 H   0  0  0  0  0  0  0  0  0  0  0  0
   -4.8002    3.3276    0.3498 C   0  0  0  0  0  0  0  0  0  0  0  0
   -5.8294    3.0870    0.5773 H   0  0  0  0  0  0  0  0  0  0  0  0
   -3.9210    2.3118   -0.0760 C   0  0  0  0  0  0  0  0  0  0  0  0
   -4.2776    1.2955   -0.1660 H   0  0  0  0  0  0  0  0  0  0  0  0
   -2.5713    2.5984   -0.3749 C   0  0  0  0  0  0  0  0  0  0  0  0
   -1.2663    0.1182    1.2910 C   0  0  0  0  0  0  0  0  0  0  0  0
   -0.1906    0.1931    1.8833 O   0  0  0  0  0  0  0  0  0  0  0  0
   -2.3930    0.6605    1.7722 N   0  0  0  0  0  0  0  0  0  0  0  0
   -3.2451    0.5077    1.2518 H   0  0  0  0  0  0  0  0  0  0  0  0
   -2.4787    1.3954    3.0311 C   0  0  0  0  0  0  0  0  0  0  0  0
   -1.7166    2.1767    3.0539 H   0  0  0  0  0  0  0  0  0  0  0  0
   -3.4649    1.8498    3.1344 H   0  0  0  0  0  0  0  0  0  0  0  0
   -2.3058    0.7133    3.8652 H   0  0  0  0  0  0  0  0  0  0  0  0
  5  6  2  0  0  0  0
  5  7  1  0  0  0  0
  2  3  1  0  0  0  0
  2  4  1  0  0  0  0
  2  5  1  0  0  0  0
  1  2  1  0  0  0  0
 29 30  2  0  0  0  0
 29 31  1  0  0  0  0
 26 27  1  0  0  0  0
 26 28  2  0  0  0  0
 24 25  1  0  0  0  0
 24 26  1  0  0  0  0
 22 23  1  0  0  0  0
 22 24  2  0  0  0  0
 20 21  1  0  0  0  0
 20 22  1  0  0  0  0
 19 20  2  0  0  0  0
 19 28  1  0  0  0  0
 17 18  1  0  0  0  0
 17 19  1  0  0  0  0
 15 16  1  0  0  0  0
 15 17  1  0  0  0  0
 14 15  2  0  0  0  0
 14 28  1  0  0  0  0
 11 12  1  0  0  0  0
 11 13  1  0  0  0  0
 11 14  1  0  0  0  0
  9 10  1  0  0  0  0
  9 11  1  0  0  0  0
  9 29  1  0  0  0  0
  7  8  1  0  0  0  0
  7  9  1  0  0  0  0
 33 34  1  0  0  0  0
 33 35  1  0  0  0  0
 33 36  1  0  0  0  0
 31 32  1  0  0  0  0
 31 33  1  0  0  0  0
M  END
$$$$
default_name
  -OEChem-02102213163D

 36 37  0     1  0  0  0  0  0999 V2000
   -4.0843   -4.0736    1.2944 H   0  0  0  0  0  0  0  0  0  0  0  0
   -4.0342   -3.2816    0.5484 C   0  0  0  0  0  0  0  0  0  0  0  0
   -4.8842   -2.6126    0.6694 H   0  0  0  0  0  0  0  0  0  0  0  0
   -4.0433   -3.7186   -0.4486 H   0  0  0  0  0  0  0  0  0  0  0  0
   -2.7532   -2.5046    0.7444 C   0  0  0  0  0  0  0  0  0  0  0  0
   -1.9803   -2.8096    1.6434 O   0  0  0  0  0  0  0  0  0  0  0  0
   -2.5332   -1.4966   -0.0966 N   0  0  0  0  0  0  0  0  0  0  0  0
   -3.2312   -1.2816   -0.7936 H   0  0  0  0  0  0  0  0  0  0  0  0
   -1.3593   -0.6196   -0.0536 C   0  0  1  0  0  0  0  0  0  0  0  0
   -0.4622   -1.2317   -0.1545 H   0  0  0  0  0  0  0  0  0  0  0  0
   -1.4074    0.3593   -1.2373 C   0  0  0  0  0  0  0  0  0  0  0  0
   -0.5312    0.1935   -1.8666 H   0  0  0  0  0  0  0  0  0  0  0  0
   -2.2916    0.1362   -1.8368 H   0  0  0  0  0  0  0  0  0  0  0  0
   -1.4411    1.8101   -0.8629 C   0  0  0  0  0  0  0  0  0  0  0  0
   -0.5203    2.7350   -1.2155 C   0  0  0  0  0  0  0  0  0  0  0  0
    0.3691    2.5286   -1.8007 H   0  0  0  0  0  0  0  0  0  0  0  0
   -0.8987    3.9734   -0.7351 N   0  0  0  0  0  0  0  0  0  0  0  0
   -0.3579    4.8143   -0.8754 H   0  0  0  0  0  0  0  0  0  0  0  0
   -2.0985    3.9105   -0.0589 C   0  0  0  0  0  0  0  0  0  0  0  0
   -2.8947    4.8773    0.5718 C   0  0  0  0  0  0  0  0  0  0  0  0
   -2.5874    5.9126    0.5898 H   0  0  0  0  0  0  0  0  0  0  0  0
   -4.0968    4.4798    1.1817 C   0  0  0  0  0  0  0  0  0  0  0  0
   -4.7232    5.2115    1.6739 H   0  0  0  0  0  0  0  0  0  0  0  0
   -4.4814    3.1268    1.1570 C   0  0  0  0  0  0  0  0  0  0  0  0
   -5.4029    2.8240    1.6347 H   0  0  0  0  0  0  0  0  0  0  0  0
   -3.6723    2.1633    0.5218 C   0  0  0  0  0  0  0  0  0  0  0  0
   -3.9729    1.1252    0.5217 H   0  0  0  0  0  0  0  0  0  0  0  0
   -2.4622    2.5314   -0.1052 C   0  0  0  0  0  0  0  0  0  0  0  0
   -1.2663    0.1182    1.2910 C   0  0  0  0  0  0  0  0  0  0  0  0
   -0.1906    0.1931    1.8833 O   0  0  0  0  0  0  0  0  0  0  0  0
   -2.3930    0.6605    1.7722 N   0  0  0  0  0  0  0  0  0  0  0  0
   -3.2451    0.5077    1.2518 H   0  0  0  0  0  0  0  0  0  0  0  0
   -2.4787    1.3954    3.0311 C   0  0  0  0  0  0  0  0  0  0  0  0
   -1.7166    2.1767    3.0539 H   0  0  0  0  0  0  0  0  0  0  0  0
   -3.4649    1.8498    3.1344 H   0  0  0  0  0  0  0  0  0  0  0  0
   -2.3058    0.7133    3.8652 H   0  0  0  0  0  0  0  0  0  0  0  0
  5  6  2  0  0  0  0
  5  7  1  0  0  0  0
  2  3  1  0  0  0  0
  2  4  1  0  0  0  0
  2  5  1  0  0  0  0
  1  2  1  0  0  0  0
 29 30  2  0  0  0  0
 29 31  1  0  0  0  0
 26 27  1  0  0  0  0
 26 28  2  0  0  0  0
 24 25  1  0  0  0  0
 24 26  1  0  0  0  0
 22 23  1  0  0  0  0
 22 24  2  0  0  0  0
 20 21  1  0  0  0  0
 20 22  1  0  0  0  0
 19 20  2  0  0  0  0
 19 28  1  0  0  0  0
 17 18  1  0  0  0  0
 17 19  1  0  0  0  0
 15 16  1  0  0  0  0
 15 17  1  0  0  0  0
 14 15  2  0  0  0  0
 14 28  1  0  0  0  0
 11 12  1  0  0  0  0
 11 13  1  0  0  0  0
 11 14  1  0  0  0  0
  9 10  1  0  0  0  0
  9 11  1  0  0  0  0
  9 29  1  0  0  0  0
  7  8  1  0  0  0  0
  7  9  1  0  0  0  0
 33 34  1  0  0  0  0
 33 35  1  0  0  0  0
 33 36  1  0  0  0  0
 31 32  1  0  0  0  0
 31 33  1  0  0  0  0
M  END
$$$$
default_name
  -OEChem-02102213163D

 36 37  0     1  0  0  0  0  0999 V2000
   -4.0843   -4.0736    1.2944 H   0  0  0  0  0  0  0  0  0  0  0  0
   -4.0342   -3.2816    0.5484 C   0  0  0  0  0  0  0  0  0  0  0  0
   -4.8842   -2.6126    0.6694 H   0  0  0  0  0  0  0  0  0  0  0  0
   -4.0433   -3.7186   -0.4486 H   0  0  0  0  0  0  0  0  0  0  0  0
   -2.7532   -2.5046    0.7444 C   0  0  0  0  0  0  0  0  0  0  0  0
   -1.9803   -2.8096    1.6434 O   0  0  0  0  0  0  0  0  0  0  0  0
   -2.5332   -1.4966   -0.0966 N   0  0  0  0  0  0  0  0  0  0  0  0
   -3.2312   -1.2816   -0.7936 H   0  0  0  0  0  0  0  0  0  0  0  0
   -1.3593   -0.6196   -0.0536 C   0  0  1  0  0  0  0  0  0  0  0  0
   -0.4622   -1.2317   -0.1545 H   0  0  0  0  0  0  0  0  0  0  0  0
   -1.4074    0.3593   -1.2373 C   0  0  0  0  0  0  0  0  0  0  0  0
   -0.5312    0.1935   -1.8666 H   0  0  0  0  0  0  0  0  0  0  0  0
   -2.2916    0.1362   -1.8368 H   0  0  0  0  0  0  0  0  0  0  0  0
   -1.4411    1.8101   -0.8629 C   0  0  0  0  0  0  0  0  0  0  0  0
   -0.7004    2.7869   -1.4329 C   0  0  0  0  0  0  0  0  0  0  0  0
    0.0257    2.6296   -2.2229 H   0  0  0  0  0  0  0  0  0  0  0  0
   -1.0266    4.0052   -0.8700 N   0  0  0  0  0  0  0  0  0  0  0  0
   -0.5944    4.8769   -1.1393 H   0  0  0  0  0  0  0  0  0  0  0  0
   -2.0122    3.8753    0.0853 C   0  0  0  0  0  0  0  0  0  0  0  0
   -2.6865    4.7980    0.8979 C   0  0  0  0  0  0  0  0  0  0  0  0
   -2.4529    5.8510    0.8407 H   0  0  0  0  0  0  0  0  0  0  0  0
   -3.6690    4.3332    1.7887 C   0  0  0  0  0  0  0  0  0  0  0  0
   -4.1988    5.0301    2.4240 H   0  0  0  0  0  0  0  0  0  0  0  0
   -3.9582    2.9580    1.8580 C   0  0  0  0  0  0  0  0  0  0  0  0
   -4.7090    2.6038    2.5507 H   0  0  0  0  0  0  0  0  0  0  0  0
   -3.2727    2.0394    1.0379 C   0  0  0  0  0  0  0  0  0  0  0  0
   -3.4952    0.9843    1.1107 H   0  0  0  0  0  0  0  0  0  0  0  0
   -2.2849    2.4752    0.1284 C   0  0  0  0  0  0  0  0  0  0  0  0
   -1.2663    0.1182    1.2910 C   0  0  0  0  0  0  0  0  0  0  0  0
   -0.1906    0.1931    1.8833 O   0  0  0  0  0  0  0  0  0  0  0  0
   -2.3930    0.6605    1.7722 N   0  0  0  0  0  0  0  0  0  0  0  0
   -3.2451    0.5077    1.2518 H   0  0  0  0  0  0  0  0  0  0  0  0
   -2.4787    1.3954    3.0311 C   0  0  0  0  0  0  0  0  0  0  0  0
   -1.7166    2.1767    3.0539 H   0  0  0  0  0  0  0  0  0  0  0  0
   -3.4649    1.8498    3.1344 H   0  0  0  0  0  0  0  0  0  0  0  0
   -2.3058    0.7133    3.8652 H   0  0  0  0  0  0  0  0  0  0  0  0
  5  6  2  0  0  0  0
  5  7  1  0  0  0  0
  2  3  1  0  0  0  0
  2  4  1  0  0  0  0
  2  5  1  0  0  0  0
  1  2  1  0  0  0  0
 29 30  2  0  0  0  0
 29 31  1  0  0  0  0
 26 27  1  0  0  0  0
 26 28  2  0  0  0  0
 24 25  1  0  0  0  0
 24 26  1  0  0  0  0
 22 23  1  0  0  0  0
 22 24  2  0  0  0  0
 20 21  1  0  0  0  0
 20 22  1  0  0  0  0
 19 20  2  0  0  0  0
 19 28  1  0  0  0  0
 17 18  1  0  0  0  0
 17 19  1  0  0  0  0
 15 16  1  0  0  0  0
 15 17  1  0  0  0  0
 14 15  2  0  0  0  0
 14 28  1  0  0  0  0
 11 12  1  0  0  0  0
 11 13  1  0  0  0  0
 11 14  1  0  0  0  0
  9 10  1  0  0  0  0
  9 11  1  0  0  0  0
  9 29  1  0  0  0  0
  7  8  1  0  0  0  0
  7  9  1  0  0  0  0
 33 34  1  0  0  0  0
 33 35  1  0  0  0  0
 33 36  1  0  0  0  0
 31 32  1  0  0  0  0
 31 33  1  0  0  0  0
M  END
$$$$
default_name
  -OEChem-02102213163D

 36 37  0     1  0  0  0  0  0999 V2000
   -4.0843   -4.0736    1.2944 H   0  0  0  0  0  0  0  0  0  0  0  0
   -4.0342   -3.2816    0.5484 C   0  0  0  0  0  0  0  0  0  0  0  0
   -4.8842   -2.6126    0.6694 H   0  0  0  0  0  0  0  0  0  0  0  0
   -4.0433   -3.7186   -0.4486 H   0  0  0  0  0  0  0  0  0  0  0  0
   -2.7532   -2.5046    0.7444 C   0  0  0  0  0  0  0  0  0  0  0  0
   -1.9803   -2.8096    1.6434 O   0  0  0  0  0  0  0  0  0  0  0  0
   -2.5332   -1.4966   -0.0966 N   0  0  0  0  0  0  0  0  0  0  0  0
   -3.2312   -1.2816   -0.7936 H   0  0  0  0  0  0  0  0  0  0  0  0
   -1.3593   -0.6196   -0.0536 C   0  0  1  0  0  0  0  0  0  0  0  0
   -0.4622   -1.2317   -0.1545 H   0  0  0  0  0  0  0  0  0  0  0  0
   -1.4074    0.3593   -1.2373 C   0  0  0  0  0  0  0  0  0  0  0  0
   -0.5312    0.1935   -1.8666 H   0  0  0  0  0  0  0  0  0  0  0  0
   -2.2916    0.1362   -1.8368 H   0  0  0  0  0  0  0  0  0  0  0  0
   -1.4411    1.8101   -0.8629 C   0  0  0  0  0  0  0  0  0  0  0  0
   -0.9322    2.8242   -1.5981 C   0  0  0  0  0  0  0  0  0  0  0  0
   -0.4183    2.7024   -2.5453 H   0  0  0  0  0  0  0  0  0  0  0  0
   -1.1861    4.0269   -0.9684 N   0  0  0  0  0  0  0  0  0  0  0  0
   -0.8930    4.9205   -1.3354 H   0  0  0  0  0  0  0  0  0  0  0  0
   -1.8904    3.8477    0.2032 C   0  0  0  0  0  0  0  0  0  0  0  0
   -2.3987    4.7368    1.1611 C   0  0  0  0  0  0  0  0  0  0  0  0
   -2.2562    5.8016    1.0497 H   0  0  0  0  0  0  0  0  0  0  0  0
   -3.0943    4.2227    2.2687 C   0  0  0  0  0  0  0  0  0  0  0  0
   -3.4925    4.8932    3.0182 H   0  0  0  0  0  0  0  0  0  0  0  0
   -3.2664    2.8330    2.4049 C   0  0  0  0  0  0  0  0  0  0  0  0
   -3.7950    2.4413    3.2630 H   0  0  0  0  0  0  0  0  0  0  0  0
   -2.7495    1.9486    1.4370 C   0  0  0  0  0  0  0  0  0  0  0  0
   -2.8771    0.8826    1.5607 H   0  0  0  0  0  0  0  0  0  0  0  0
   -2.0515    2.4338    0.3099 C   0  0  0  0  0  0  0  0  0  0  0  0
   -1.2663    0.1182    1.2910 C   0  0  0  0  0  0  0  0  0  0  0  0
   -0.1906    0.1931    1.8833 O   0  0  0  0  0  0  0  0  0  0  0  0
   -2.3930    0.6605    1.7722 N   0  0  0  0  0  0  0  0  0  0  0  0
   -3.2451    0.5077    1.2518 H   0  0  0  0  0  0  0  0  0  0  0  0
   -2.4787    1.3954    3.0311 C   0  0  0  0  0  0  0  0  0  0  0  0
   -1.7166    2.1767    3.0539 H   0  0  0  0  0  0  0  0  0  0  0  0
   -3.4649    1.8498    3.1344 H   0  0  0  0  0  0  0  0  0  0  0  0
   -2.3058    0.7133    3.8652 H   0  0  0  0  0  0  0  0  0  0  0  0
  5  6  2  0  0  0  0
  5  7  1  0  0  0  0
  2  3  1  0  0  0  0
  2  4  1  0  0  0  0
  2  5  1  0  0  0  0
  1  2  1  0  0  0  0
 29 30  2  0  0  0  0
 29 31  1  0  0  0  0
 26 27  1  0  0  0  0
 26 28  2  0  0  0  0
 24 25  1  0  0  0  0
 24 26  1  0  0  0  0
 22 23  1  0  0  0  0
 22 24  2  0  0  0  0
 20 21  1  0  0  0  0
 20 22  1  0  0  0  0
 19 20  2  0  0  0  0
 19 28  1  0  0  0  0
 17 18  1  0  0  0  0
 17 19  1  0  0  0  0
 15 16  1  0  0  0  0
 15 17  1  0  0  0  0
 14 15  2  0  0  0  0
 14 28  1  0  0  0  0
 11 12  1  0  0  0  0
 11 13  1  0  0  0  0
 11 14  1  0  0  0  0
  9 10  1  0  0  0  0
  9 11  1  0  0  0  0
  9 29  1  0  0  0  0
  7  8  1  0  0  0  0
  7  9  1  0  0  0  0
 33 34  1  0  0  0  0
 33 35  1  0  0  0  0
 33 36  1  0  0  0  0
 31 32  1  0  0  0  0
 31 33  1  0  0  0  0
M  END
$$$$
default_name
  -OEChem-02102213163D

 36 37  0     1  0  0  0  0  0999 V2000
   -4.0843   -4.0736    1.2944 H   0  0  0  0  0  0  0  0  0  0  0  0
   -4.0342   -3.2816    0.5484 C   0  0  0  0  0  0  0  0  0  0  0  0
   -4.8842   -2.6126    0.6694 H   0  0  0  0  0  0  0  0  0  0  0  0
   -4.0433   -3.7186   -0.4486 H   0  0  0  0  0  0  0  0  0  0  0  0
   -2.7532   -2.5046    0.7444 C   0  0  0  0  0  0  0  0  0  0  0  0
   -1.9803   -2.8096    1.6434 O   0  0  0  0  0  0  0  0  0  0  0  0
   -2.5332   -1.4966   -0.0966 N   0  0  0  0  0  0  0  0  0  0  0  0
   -3.2312   -1.2816   -0.7936 H   0  0  0  0  0  0  0  0  0  0  0  0
   -1.3593   -0.6196   -0.0536 C   0  0  1  0  0  0  0  0  0  0  0  0
   -0.4622   -1.2317   -0.1545 H   0  0  0  0  0  0  0  0  0  0  0  0
   -1.4074    0.3593   -1.2373 C   0  0  0  0  0  0  0  0  0  0  0  0
   -0.5312    0.1935   -1.8666 H   0  0  0  0  0  0  0  0  0  0  0  0
   -2.2916    0.1362   -1.8368 H   0  0  0  0  0  0  0  0  0  0  0  0
   -1.4411    1.8101   -0.8629 C   0  0  0  0  0  0  0  0  0  0  0  0
   -1.1999    2.8442   -1.6997 C   0  0  0  0  0  0  0  0  0  0  0  0
   -0.9327    2.7422   -2.7458 H   0  0  0  0  0  0  0  0  0  0  0  0
   -1.3661    4.0370   -1.0236 N   0  0  0  0  0  0  0  0  0  0  0  0
   -1.2333    4.9422   -1.4502 H   0  0  0  0  0  0  0  0  0  0  0  0
   -1.7414    3.8296    0.2867 C   0  0  0  0  0  0  0  0  0  0  0  0
   -2.0507    4.6978    1.3436 C   0  0  0  0  0  0  0  0  0  0  0  0
   -2.0106    5.7679    1.2026 H   0  0  0  0  0  0  0  0  0  0  0  0
   -2.4117    4.1559    2.5890 C   0  0  0  0  0  0  0  0  0  0  0  0
   -2.6526    4.8101    3.4160 H   0  0  0  0  0  0  0  0  0  0  0  0
   -2.4530    2.7601    2.7607 C   0  0  0  0  0  0  0  0  0  0  0  0
   -2.7231    2.3475    3.7229 H   0  0  0  0  0  0  0  0  0  0  0  0
   -2.1382    1.8970    1.6919 C   0  0  0  0  0  0  0  0  0  0  0  0
   -2.1608    0.8269    1.8411 H   0  0  0  0  0  0  0  0  0  0  0  0
   -1.7778    2.4100    0.4270 C   0  0  0  0  0  0  0  0  0  0  0  0
   -1.2663    0.1182    1.2910 C   0  0  0  0  0  0  0  0  0  0  0  0
   -0.1906    0.1931    1.8833 O   0  0  0  0  0  0  0  0  0  0  0  0
   -2.3930    0.6605    1.7722 N   0  0  0  0  0  0  0  0  0  0  0  0
   -3.2451    0.5077    1.2518 H   0  0  0  0  0  0  0  0  0  0  0  0
   -2.4787    1.3954    3.0311 C   0  0  0  0  0  0  0  0  0  0  0  0
   -1.7166    2.1767    3.0539 H   0  0  0  0  0  0  0  0  0  0  0  0
   -3.4649    1.8498    3.1344 H   0  0  0  0  0  0  0  0  0  0  0  0
   -2.3058    0.7133    3.8652 H   0  0  0  0  0  0  0  0  0  0  0  0
  5  6  2  0  0  0  0
  5  7  1  0  0  0  0
  2  3  1  0  0  0  0
  2  4  1  0  0  0  0
  2  5  1  0  0  0  0
  1  2  1  0  0  0  0
 29 30  2  0  0  0  0
 29 31  1  0  0  0  0
 26 27  1  0  0  0  0
 26 28  2  0  0  0  0
 24 25  1  0  0  0  0
 24 26  1  0  0  0  0
 22 23  1  0  0  0  0
 22 24  2  0  0  0  0
 20 21  1  0  0  0  0
 20 22  1  0  0  0  0
 19 20  2  0  0  0  0
 19 28  1  0  0  0  0
 17 18  1  0  0  0  0
 17 19  1  0  0  0  0
 15 16  1  0  0  0  0
 15 17  1  0  0  0  0
 14 15  2  0  0  0  0
 14 28  1  0  0  0  0
 11 12  1  0  0  0  0
 11 13  1  0  0  0  0
 11 14  1  0  0  0  0
  9 10  1  0  0  0  0
  9 11  1  0  0  0  0
  9 29  1  0  0  0  0
  7  8  1  0  0  0  0
  7  9  1  0  0  0  0
 33 34  1  0  0  0  0
 33 35  1  0  0  0  0
 33 36  1  0  0  0  0
 31 32  1  0  0  0  0
 31 33  1  0  0  0  0
M  END
$$$$
default_name
  -OEChem-02102213163D

 36 37  0     1  0  0  0  0  0999 V2000
   -4.0843   -4.0736    1.2944 H   0  0  0  0  0  0  0  0  0  0  0  0
   -4.0342   -3.2816    0.5484 C   0  0  0  0  0  0  0  0  0  0  0  0
   -4.8842   -2.6126    0.6694 H   0  0  0  0  0  0  0  0  0  0  0  0
   -4.0433   -3.7186   -0.4486 H   0  0  0  0  0  0  0  0  0  0  0  0
   -2.7532   -2.5046    0.7444 C   0  0  0  0  0  0  0  0  0  0  0  0
   -1.9803   -2.8096    1.6434 O   0  0  0  0  0  0  0  0  0  0  0  0
   -2.5332   -1.4966   -0.0966 N   0  0  0  0  0  0  0  0  0  0  0  0
   -3.2312   -1.2816   -0.7936 H   0  0  0  0  0  0  0  0  0  0  0  0
   -1.3593   -0.6196   -0.0536 C   0  0  1  0  0  0  0  0  0  0  0  0
   -0.4622   -1.2317   -0.1545 H   0  0  0  0  0  0  0  0  0  0  0  0
   -1.4074    0.3593   -1.2373 C   0  0  0  0  0  0  0  0  0  0  0  0
   -0.6982    0.0270   -1.9975 H   0  0  0  0  0  0  0  0  0  0  0  0
   -2.4051    0.3227   -1.6779 H   0  0  0  0  0  0  0  0  0  0  0  0
   -1.0897    1.7843   -0.8986 C   0  0  0  0  0  0  0  0  0  0  0  0
   -1.0704    2.8151   -1.7731 C   0  0  0  0  0  0  0  0  0  0  0  0
   -1.2663    2.7265   -2.8360 H   0  0  0  0  0  0  0  0  0  0  0  0
   -0.7853    3.9880   -1.1018 N   0  0  0  0  0  0  0  0  0  0  0  0
   -0.7154    4.8868   -1.5561 H   0  0  0  0  0  0  0  0  0  0  0  0
   -0.6220    3.7723    0.2500 C   0  0  0  0  0  0  0  0  0  0  0  0
   -0.3560    4.6249    1.3311 C   0  0  0  0  0  0  0  0  0  0  0  0
   -0.2319    5.6862    1.1735 H   0  0  0  0  0  0  0  0  0  0  0  0
   -0.2514    4.0788    2.6218 C   0  0  0  0  0  0  0  0  0  0  0  0
   -0.0457    4.7209    3.4675 H   0  0  0  0  0  0  0  0  0  0  0  0
   -0.4083    2.6937    2.8116 C   0  0  0  0  0  0  0  0  0  0  0  0
   -0.3188    2.2766    3.8052 H   0  0  0  0  0  0  0  0  0  0  0  0
   -0.6734    1.8459    1.7174 C   0  0  0  0  0  0  0  0  0  0  0  0
   -0.7785    0.7819    1.8754 H   0  0  0  0  0  0  0  0  0  0  0  0
   -0.7905    2.3642    0.4095 C   0  0  0  0  0  0  0  0  0  0  0  0
   -1.2663    0.1182    1.2910 C   0  0  0  0  0  0  0  0  0  0  0  0
   -0.1906    0.1931    1.8833 O   0  0  0  0  0  0  0  0  0  0  0  0
   -2.3930    0.6605    1.7722 N   0  0  0  0  0  0  0  0  0  0  0  0
   -3.2451    0.5077    1.2518 H   0  0  0  0  0  0  0  0  0  0  0  0
   -2.4787    1.3954    3.0311 C   0  0  0  0  0  0  0  0  0  0  0  0
   -1.7166    2.1767    3.0539 H   0  0  0  0  0  0  0  0  0  0  0  0
   -3.4649    1.8498    3.1344 H   0  0  0  0  0  0  0  0  0  0  0  0
   -2.3058    0.7133    3.8652 H   0  0  0  0  0  0  0  0  0  0  0  0
  5  6  2  0  0  0  0
  5  7  1  0  0  0  0
  2  3  1  0  0  0  0
  2  4  1  0  0  0  0
  2  5  1  0  0  0  0
  1  2  1  0  0  0  0
 29 30  2  0  0  0  0
 29 31  1  0  0  0  0
 26 27  1  0  0  0  0
 26 28  2  0  0  0  0
 24 25  1  0  0  0  0
 24 26  1  0  0  0  0
 22 23  1  0  0  0  0
 22 24  2  0  0  0  0
 20 21  1  0  0  0  0
 20 22  1  0  0  0  0
 19 20  2  0  0  0  0
 19 28  1  0  0  0  0
 17 18  1  0  0  0  0
 17 19  1  0  0  0  0
 15 16  1  0  0  0  0
 15 17  1  0  0  0  0
 14 15  2  0  0  0  0
 14 28  1  0  0  0  0
 11 12  1  0  0  0  0
 11 13  1  0  0  0  0
 11 14  1  0  0  0  0
  9 10  1  0  0  0  0
  9 11  1  0  0  0  0
  9 29  1  0  0  0  0
  7  8  1  0  0  0  0
  7  9  1  0  0  0  0
 33 34  1  0  0  0  0
 33 35  1  0  0  0  0
 33 36  1  0  0  0  0
 31 32  1  0  0  0  0
 31 33  1  0  0  0  0
M  END
$$$$
default_name
  -OEChem-02102213163D

 36 37  0     1  0  0  0  0  0999 V2000
   -4.0843   -4.0736    1.2944 H   0  0  0  0  0  0  0  0  0  0  0  0
   -4.0342   -3.2816    0.5484 C   0  0  0  0  0  0  0  0  0  0  0  0
   -4.8842   -2.6126    0.6694 H   0  0  0  0  0  0  0  0  0  0  0  0
   -4.0433   -3.7186   -0.4486 H   0  0  0  0  0  0  0  0  0  0  0  0
   -2.7532   -2.5046    0.7444 C   0  0  0  0  0  0  0  0  0  0  0  0
   -1.9803   -2.8096    1.6434 O   0  0  0  0  0  0  0  0  0  0  0  0
   -2.5332   -1.4966   -0.0966 N   0  0  0  0  0  0  0  0  0  0  0  0
   -3.2312   -1.2816   -0.7936 H   0  0  0  0  0  0  0  0  0  0  0  0
   -1.3593   -0.6196   -0.0536 C   0  0  1  0  0  0  0  0  0  0  0  0
   -0.4622   -1.2317   -0.1545 H   0  0  0  0  0  0  0  0  0  0  0  0
   -1.4074    0.3593   -1.2373 C   0  0  0  0  0  0  0  0  0  0  0  0
   -0.6982    0.0270   -1.9975 H   0  0  0  0  0  0  0  0  0  0  0  0
   -2.4051    0.3227   -1.6779 H   0  0  0  0  0  0  0  0  0  0  0  0
   -1.0897    1.7843   -0.8986 C   0  0  0  0  0  0  0  0  0  0  0  0
   -1.3409    2.8545   -1.6854 C   0  0  0  0  0  0  0  0  0  0  0  0
   -1.7891    2.8039   -2.6716 H   0  0  0  0  0  0  0  0  0  0  0  0
   -0.9593    4.0103   -1.0326 N   0  0  0  0  0  0  0  0  0  0  0  0
   -1.0506    4.9324   -1.4334 H   0  0  0  0  0  0  0  0  0  0  0  0
   -0.4553    3.7417    0.2222 C   0  0  0  0  0  0  0  0  0  0  0  0
    0.0258    4.5576    1.2563 C   0  0  0  0  0  0  0  0  0  0  0  0
    0.0520    5.6310    1.1395 H   0  0  0  0  0  0  0  0  0  0  0  0
    0.4749    3.9588    2.4457 C   0  0  0  0  0  0  0  0  0  0  0  0
    0.8503    4.5720    3.2537 H   0  0  0  0  0  0  0  0  0  0  0  0
    0.4417    2.5588    2.5816 C   0  0  0  0  0  0  0  0  0  0  0  0
    0.7959    2.1018    3.4952 H   0  0  0  0  0  0  0  0  0  0  0  0
   -0.0421    1.7485    1.5349 C   0  0  0  0  0  0  0  0  0  0  0  0
   -0.0497    0.6736    1.6473 H   0  0  0  0  0  0  0  0  0  0  0  0
   -0.5061    2.3197    0.3302 C   0  0  0  0  0  0  0  0  0  0  0  0
   -1.2663    0.1182    1.2910 C   0  0  0  0  0  0  0  0  0  0  0  0
   -0.1906    0.1931    1.8833 O   0  0  0  0  0  0  0  0  0  0  0  0
   -2.3930    0.6605    1.7722 N   0  0  0  0  0  0  0  0  0  0  0  0
   -3.2451    0.5077    1.2518 H   0  0  0  0  0  0  0  0  0  0  0  0
   -2.4787    1.3954    3.0311 C   0  0  0  0  0  0  0  0  0  0  0  0
   -1.7166    2.1767    3.0539 H   0  0  0  0  0  0  0  0  0  0  0  0
   -3.4649    1.8498    3.1344 H   0  0  0  0  0  0  0  0  0  0  0  0
   -2.3058    0.7133    3.8652 H   0  0  0  0  0  0  0  0  0  0  0  0
  5  6  2  0  0  0  0
  5  7  1  0  0  0  0
  2  3  1  0  0  0  0
  2  4  1  0  0  0  0
  2  5  1  0  0  0  0
  1  2  1  0  0  0  0
 29 30  2  0  0  0  0
 29 31  1  0  0  0  0
 26 27  1  0  0  0  0
 26 28  2  0  0  0  0
 24 25  1  0  0  0  0
 24 26  1  0  0  0  0
 22 23  1  0  0  0  0
 22 24  2  0  0  0  0
 20 21  1  0  0  0  0
 20 22  1  0  0  0  0
 19 20  2  0  0  0  0
 19 28  1  0  0  0  0
 17 18  1  0  0  0  0
 17 19  1  0  0  0  0
 15 16  1  0  0  0  0
 15 17  1  0  0  0  0
 14 15  2  0  0  0  0
 14 28  1  0  0  0  0
 11 12  1  0  0  0  0
 11 13  1  0  0  0  0
 11 14  1  0  0  0  0
  9 10  1  0  0  0  0
  9 11  1  0  0  0  0
  9 29  1  0  0  0  0
  7  8  1  0  0  0  0
  7  9  1  0  0  0  0
 33 34  1  0  0  0  0
 33 35  1  0  0  0  0
 33 36  1  0  0  0  0
 31 32  1  0  0  0  0
 31 33  1  0  0  0  0
M  END
$$$$
default_name
  -OEChem-02102213163D

 36 37  0     1  0  0  0  0  0999 V2000
   -4.0843   -4.0736    1.2944 H   0  0  0  0  0  0  0  0  0  0  0  0
   -4.0342   -3.2816    0.5484 C   0  0  0  0  0  0  0  0  0  0  0  0
   -4.8842   -2.6126    0.6694 H   0  0  0  0  0  0  0  0  0  0  0  0
   -4.0433   -3.7186   -0.4486 H   0  0  0  0  0  0  0  0  0  0  0  0
   -2.7532   -2.5046    0.7444 C   0  0  0  0  0  0  0  0  0  0  0  0
   -1.9803   -2.8096    1.6434 O   0  0  0  0  0  0  0  0  0  0  0  0
   -2.5332   -1.4966   -0.0966 N   0  0  0  0  0  0  0  0  0  0  0  0
   -3.2312   -1.2816   -0.7936 H   0  0  0  0  0  0  0  0  0  0  0  0
   -1.3593   -0.6196   -0.0536 C   0  0  1  0  0  0  0  0  0  0  0  0
   -0.4622   -1.2317   -0.1545 H   0  0  0  0  0  0  0  0  0  0  0  0
   -1.4074    0.3593   -1.2373 C   0  0  0  0  0  0  0  0  0  0  0  0
   -0.6982    0.0270   -1.9975 H   0  0  0  0  0  0  0  0  0  0  0  0
   -2.4051    0.3227   -1.6779 H   0  0  0  0  0  0  0  0  0  0  0  0
   -1.0897    1.7843   -0.8986 C   0  0  0  0  0  0  0  0  0  0  0  0
   -1.5829    2.8720   -1.5320 C   0  0  0  0  0  0  0  0  0  0  0  0
   -2.2582    2.8392   -2.3799 H   0  0  0  0  0  0  0  0  0  0  0  0
   -1.1117    4.0179   -0.9218 N   0  0  0  0  0  0  0  0  0  0  0  0
   -1.3468    4.9501   -1.2299 H   0  0  0  0  0  0  0  0  0  0  0  0
   -0.2994    3.7235    0.1526 C   0  0  0  0  0  0  0  0  0  0  0  0
    0.3801    4.5190    1.0864 C   0  0  0  0  0  0  0  0  0  0  0  0
    0.3212    5.5962    1.0337 H   0  0  0  0  0  0  0  0  0  0  0  0
    1.1401    3.8949    2.0903 C   0  0  0  0  0  0  0  0  0  0  0  0
    1.6718    4.4923    2.8186 H   0  0  0  0  0  0  0  0  0  0  0  0
    1.2139    2.4909    2.1429 C   0  0  0  0  0  0  0  0  0  0  0  0
    1.8066    2.0151    2.9120 H   0  0  0  0  0  0  0  0  0  0  0  0
    0.5284    1.7014    1.1979 C   0  0  0  0  0  0  0  0  0  0  0  0
    0.6044    0.6242    1.2417 H   0  0  0  0  0  0  0  0  0  0  0  0
   -0.2483    2.2977    0.1811 C   0  0  0  0  0  0  0  0  0  0  0  0
   -1.2663    0.1182    1.2910 C   0  0  0  0  0  0  0  0  0  0  0  0
   -0.1906    0.1931    1.8833 O   0  0  0  0  0  0  0  0  0  0  0  0
   -2.3930    0.6605    1.7722 N   0  0  0  0  0  0  0  0  0  0  0  0
   -3.2451    0.5077    1.2518 H   0  0  0  0  0  0  0  0  0  0  0  0
   -2.4787    1.3954    3.0311 C   0  0  0  0  0  0  0  0  0  0  0  0
   -1.7166    2.1767    3.0539 H   0  0  0  0  0  0  0  0  0  0  0  0
   -3.4649    1.8498    3.1344 H   0  0  0  0  0  0  0  0  0  0  0  0
   -2.3058    0.7133    3.8652 H   0  0  0  0  0  0  0  0  0  0  0  0
  5  6  2  0  0  0  0
  5  7  1  0  0  0  0
  2  3  1  0  0  0  0
  2  4  1  0  0  0  0
  2  5  1  0  0  0  0
  1  2  1  0  0  0  0
 29 30  2  0  0  0  0
 29 31  1  0  0  0  0
 26 27  1  0  0  0  0
 26 28  2  0  0  0  0
 24 25  1  0  0  0  0
 24 26  1  0  0  0  0
 22 23  1  0  0  0  0
 22 24  2  0  0  0  0
 20 21  1  0  0  0  0
 20 22  1  0  0  0  0
 19 20  2  0  0  0  0
 19 28  1  0  0  0  0
 17 18  1  0  0  0  0
 17 19  1  0  0  0  0
 15 16  1  0  0  0  0
 15 17  1  0  0  0  0
 14 15  2  0  0  0  0
 14 28  1  0  0  0  0
 11 12  1  0  0  0  0
 11 13  1  0  0  0  0
 11 14  1  0  0  0  0
  9 10  1  0  0  0  0
  9 11  1  0  0  0  0
  9 29  1  0  0  0  0
  7  8  1  0  0  0  0
  7  9  1  0  0  0  0
 33 34  1  0  0  0  0
 33 35  1  0  0  0  0
 33 36  1  0  0  0  0
 31 32  1  0  0  0  0
 31 33  1  0  0  0  0
M  END
$$$$
default_name
  -OEChem-02102213163D

 36 37  0     1  0  0  0  0  0999 V2000
   -4.0843   -4.0736    1.2944 H   0  0  0  0  0  0  0  0  0  0  0  0
   -4.0342   -3.2816    0.5484 C   0  0  0  0  0  0  0  0  0  0  0  0
   -4.8842   -2.6126    0.6694 H   0  0  0  0  0  0  0  0  0  0  0  0
   -4.0433   -3.7186   -0.4486 H   0  0  0  0  0  0  0  0  0  0  0  0
   -2.7532   -2.5046    0.7444 C   0  0  0  0  0  0  0  0  0  0  0  0
   -1.9803   -2.8096    1.6434 O   0  0  0  0  0  0  0  0  0  0  0  0
   -2.5332   -1.4966   -0.0966 N   0  0  0  0  0  0  0  0  0  0  0  0
   -3.2312   -1.2816   -0.7936 H   0  0  0  0  0  0  0  0  0  0  0  0
   -1.3593   -0.6196   -0.0536 C   0  0  1  0  0  0  0  0  0  0  0  0
   -0.4622   -1.2317   -0.1545 H   0  0  0  0  0  0  0  0  0  0  0  0
   -1.4074    0.3593   -1.2373 C   0  0  0  0  0  0  0  0  0  0  0  0
   -0.6982    0.0270   -1.9975 H   0  0  0  0  0  0  0  0  0  0  0  0
   -2.4051    0.3227   -1.6779 H   0  0  0  0  0  0  0  0  0  0  0  0
   -1.0897    1.7843   -0.8986 C   0  0  0  0  0  0  0  0  0  0  0  0
   -1.7799    2.8664   -1.3233 C   0  0  0  0  0  0  0  0  0  0  0  0
   -2.6416    2.8298   -1.9808 H   0  0  0  0  0  0  0  0  0  0  0  0
   -1.2320    4.0103   -0.7768 N   0  0  0  0  0  0  0  0  0  0  0  0
   -1.5840    4.9387   -0.9595 H   0  0  0  0  0  0  0  0  0  0  0  0
   -0.1648    3.7189    0.0460 C   0  0  0  0  0  0  0  0  0  0  0  0
    0.6828    4.5117    0.8329 C   0  0  0  0  0  0  0  0  0  0  0  0
    0.5571    5.5841    0.8633 H   0  0  0  0  0  0  0  0  0  0  0  0
    1.6990    3.8917    1.5798 C   0  0  0  0  0  0  0  0  0  0  0  0
    2.3630    4.4872    2.1917 H   0  0  0  0  0  0  0  0  0  0  0  0
    1.8559    2.4946    1.5254 C   0  0  0  0  0  0  0  0  0  0  0  0
    2.6443    2.0225    2.0951 H   0  0  0  0  0  0  0  0  0  0  0  0
    0.9994    1.7078    0.7294 C   0  0  0  0  0  0  0  0  0  0  0  0
    1.1393    0.6370    0.6862 H   0  0  0  0  0  0  0  0  0  0  0  0
   -0.0348    2.2996   -0.0276 C   0  0  0  0  0  0  0  0  0  0  0  0
   -1.2663    0.1182    1.2910 C   0  0  0  0  0  0  0  0  0  0  0  0
   -0.1906    0.1931    1.8833 O   0  0  0  0  0  0  0  0  0  0  0  0
   -2.3930    0.6605    1.7722 N   0  0  0  0  0  0  0  0  0  0  0  0
   -3.2451    0.5077    1.2518 H   0  0  0  0  0  0  0  0  0  0  0  0
   -2.4787    1.3954    3.0311 C   0  0  0  0  0  0  0  0  0  0  0  0
   -1.7166    2.1767    3.0539 H   0  0  0  0  0  0  0  0  0  0  0  0
   -3.4649    1.8498    3.1344 H   0  0  0  0  0  0  0  0  0  0  0  0
   -2.3058    0.7133    3.8652 H   0  0  0  0  0  0  0  0  0  0  0  0
  5  6  2  0  0  0  0
  5  7  1  0  0  0  0
  2  3  1  0  0  0  0
  2  4  1  0  0  0  0
  2  5  1  0  0  0  0
  1  2  1  0  0  0  0
 29 30  2  0  0  0  0
 29 31  1  0  0  0  0
 26 27  1  0  0  0  0
 26 28  2  0  0  0  0
 24 25  1  0  0  0  0
 24 26  1  0  0  0  0
 22 23  1  0  0  0  0
 22 24  2  0  0  0  0
 20 21  1  0  0  0  0
 20 22  1  0  0  0  0
 19 20  2  0  0  0  0
 19 28  1  0  0  0  0
 17 18  1  0  0  0  0
 17 19  1  0  0  0  0
 15 16  1  0  0  0  0
 15 17  1  0  0  0  0
 14 15  2  0  0  0  0
 14 28  1  0  0  0  0
 11 12  1  0  0  0  0
 11 13  1  0  0  0  0
 11 14  1  0  0  0  0
  9 10  1  0  0  0  0
  9 11  1  0  0  0  0
  9 29  1  0  0  0  0
  7  8  1  0  0  0  0
  7  9  1  0  0  0  0
 33 34  1  0  0  0  0
 33 35  1  0  0  0  0
 33 36  1  0  0  0  0
 31 32  1  0  0  0  0
 31 33  1  0  0  0  0
M  END
$$$$
default_name
  -OEChem-02102213163D

 36 37  0     1  0  0  0  0  0999 V2000
   -4.0843   -4.0736    1.2944 H   0  0  0  0  0  0  0  0  0  0  0  0
   -4.0342   -3.2816    0.5484 C   0  0  0  0  0  0  0  0  0  0  0  0
   -4.8842   -2.6126    0.6694 H   0  0  0  0  0  0  0  0  0  0  0  0
   -4.0433   -3.7186   -0.4486 H   0  0  0  0  0  0  0  0  0  0  0  0
   -2.7532   -2.5046    0.7444 C   0  0  0  0  0  0  0  0  0  0  0  0
   -1.9803   -2.8096    1.6434 O   0  0  0  0  0  0  0  0  0  0  0  0
   -2.5332   -1.4966   -0.0966 N   0  0  0  0  0  0  0  0  0  0  0  0
   -3.2312   -1.2816   -0.7936 H   0  0  0  0  0  0  0  0  0  0  0  0
   -1.3593   -0.6196   -0.0536 C   0  0  1  0  0  0  0  0  0  0  0  0
   -0.4622   -1.2317   -0.1545 H   0  0  0  0  0  0  0  0  0  0  0  0
   -1.4074    0.3593   -1.2373 C   0  0  0  0  0  0  0  0  0  0  0  0
   -0.6982    0.0270   -1.9975 H   0  0  0  0  0  0  0  0  0  0  0  0
   -2.4051    0.3227   -1.6779 H   0  0  0  0  0  0  0  0  0  0  0  0
   -1.0897    1.7843   -0.8986 C   0  0  0  0  0  0  0  0  0  0  0  0
   -1.9185    2.8379   -1.0736 C   0  0  0  0  0  0  0  0  0  0  0  0
   -2.9131    2.7764   -1.5014 H   0  0  0  0  0  0  0  0  0  0  0  0
   -1.3121    3.9879   -0.6075 N   0  0  0  0  0  0  0  0  0  0  0  0
   -1.7458    4.8989   -0.6405 H   0  0  0  0  0  0  0  0  0  0  0  0
   -0.0608    3.7281   -0.0903 C   0  0  0  0  0  0  0  0  0  0  0  0
    0.9132    4.5363    0.5133 C   0  0  0  0  0  0  0  0  0  0  0  0
    0.7438    5.5955    0.6401 H   0  0  0  0  0  0  0  0  0  0  0  0
    2.1134    3.9492    0.9490 C   0  0  0  0  0  0  0  0  0  0  0  0
    2.8766    4.5571    1.4159 H   0  0  0  0  0  0  0  0  0  0  0  0
    2.3238    2.5696    0.7711 C   0  0  0  0  0  0  0  0  0  0  0  0
    3.2521    2.1235    1.1003 H   0  0  0  0  0  0  0  0  0  0  0  0
    1.3386    1.7672    0.1614 C   0  0  0  0  0  0  0  0  0  0  0  0
    1.5186    0.7111    0.0187 H   0  0  0  0  0  0  0  0  0  0  0  0
    0.1200    2.3255   -0.2816 C   0  0  0  0  0  0  0  0  0  0  0  0
   -1.2663    0.1182    1.2910 C   0  0  0  0  0  0  0  0  0  0  0  0
   -0.1906    0.1931    1.8833 O   0  0  0  0  0  0  0  0  0  0  0  0
   -2.3930    0.6605    1.7722 N   0  0  0  0  0  0  0  0  0  0  0  0
   -3.2451    0.5077    1.2518 H   0  0  0  0  0  0  0  0  0  0  0  0
   -2.4787    1.3954    3.0311 C   0  0  0  0  0  0  0  0  0  0  0  0
   -1.7166    2.1767    3.0539 H   0  0  0  0  0  0  0  0  0  0  0  0
   -3.4649    1.8498    3.1344 H   0  0  0  0  0  0  0  0  0  0  0  0
   -2.3058    0.7133    3.8652 H   0  0  0  0  0  0  0  0  0  0  0  0
  5  6  2  0  0  0  0
  5  7  1  0  0  0  0
  2  3  1  0  0  0  0
  2  4  1  0  0  0  0
  2  5  1  0  0  0  0
  1  2  1  0  0  0  0
 29 30  2  0  0  0  0
 29 31  1  0  0  0  0
 26 27  1  0  0  0  0
 26 28  2  0  0  0  0
 24 25  1  0  0  0  0
 24 26  1  0  0  0  0
 22 23  1  0  0  0  0
 22 24  2  0  0  0  0
 20 21  1  0  0  0  0
 20 22  1  0  0  0  0
 19 20  2  0  0  0  0
 19 28  1  0  0  0  0
 17 18  1  0  0  0  0
 17 19  1  0  0  0  0
 15 16  1  0  0  0  0
 15 17  1  0  0  0  0
 14 15  2  0  0  0  0
 14 28  1  0  0  0  0
 11 12  1  0  0  0  0
 11 13  1  0  0  0  0
 11 14  1  0  0  0  0
  9 10  1  0  0  0  0
  9 11  1  0  0  0  0
  9 29  1  0  0  0  0
  7  8  1  0  0  0  0
  7  9  1  0  0  0  0
 33 34  1  0  0  0  0
 33 35  1  0  0  0  0
 33 36  1  0  0  0  0
 31 32  1  0  0  0  0
 31 33  1  0  0  0  0
M  END
$$$$
default_name
  -OEChem-02102213163D

 36 37  0     1  0  0  0  0  0999 V2000
   -4.0843   -4.0736    1.2944 H   0  0  0  0  0  0  0  0  0  0  0  0
   -4.0342   -3.2816    0.5484 C   0  0  0  0  0  0  0  0  0  0  0  0
   -4.8842   -2.6126    0.6694 H   0  0  0  0  0  0  0  0  0  0  0  0
   -4.0433   -3.7186   -0.4486 H   0  0  0  0  0  0  0  0  0  0  0  0
   -2.7532   -2.5046    0.7444 C   0  0  0  0  0  0  0  0  0  0  0  0
   -1.9803   -2.8096    1.6434 O   0  0  0  0  0  0  0  0  0  0  0  0
   -2.5332   -1.4966   -0.0966 N   0  0  0  0  0  0  0  0  0  0  0  0
   -3.2312   -1.2816   -0.7936 H   0  0  0  0  0  0  0  0  0  0  0  0
   -1.3593   -0.6196   -0.0536 C   0  0  1  0  0  0  0  0  0  0  0  0
   -0.4622   -1.2317   -0.1545 H   0  0  0  0  0  0  0  0  0  0  0  0
   -1.4074    0.3593   -1.2373 C   0  0  0  0  0  0  0  0  0  0  0  0
   -0.6982    0.0270   -1.9975 H   0  0  0  0  0  0  0  0  0  0  0  0
   -2.4051    0.3227   -1.6779 H   0  0  0  0  0  0  0  0  0  0  0  0
   -1.0897    1.7843   -0.8986 C   0  0  0  0  0  0  0  0  0  0  0  0
   -1.9893    2.7886   -0.7998 C   0  0  0  0  0  0  0  0  0  0  0  0
   -3.0543    2.6826   -0.9745 H   0  0  0  0  0  0  0  0  0  0  0  0
   -1.3465    3.9523   -0.4255 N   0  0  0  0  0  0  0  0  0  0  0  0
   -1.8213    4.8336   -0.2948 H   0  0  0  0  0  0  0  0  0  0  0  0
    0.0056    3.7505   -0.2471 C   0  0  0  0  0  0  0  0  0  0  0  0
    1.0557    4.5911    0.1491 C   0  0  0  0  0  0  0  0  0  0  0  0
    0.8685    5.6297    0.3791 H   0  0  0  0  0  0  0  0  0  0  0  0
    2.3551    4.0636    0.2409 C   0  0  0  0  0  0  0  0  0  0  0  0
    3.1777    4.6973    0.5439 H   0  0  0  0  0  0  0  0  0  0  0  0
    2.5858    2.7107   -0.0685 C   0  0  0  0  0  0  0  0  0  0  0  0
    3.5885    2.3111   -0.0046 H   0  0  0  0  0  0  0  0  0  0  0  0
    1.5231    1.8756   -0.4676 C   0  0  0  0  0  0  0  0  0  0  0  0
    1.7164    0.8415   -0.7153 H   0  0  0  0  0  0  0  0  0  0  0  0
    0.2056    2.3735   -0.5636 C   0  0  0  0  0  0  0  0  0  0  0  0
   -1.2663    0.1182    1.2910 C   0  0  0  0  0  0  0  0  0  0  0  0
   -0.1906    0.1931    1.8833 O   0  0  0  0  0  0  0  0  0  0  0  0
   -2.3930    0.6605    1.7722 N   0  0  0  0  0  0  0  0  0  0  0  0
   -3.2451    0.5077    1.2518 H   0  0  0  0  0  0  0  0  0  0  0  0
   -2.4787    1.3954    3.0311 C   0  0  0  0  0  0  0  0  0  0  0  0
   -1.7166    2.1767    3.0539 H   0  0  0  0  0  0  0  0  0  0  0  0
   -3.4649    1.8498    3.1344 H   0  0  0  0  0  0  0  0  0  0  0  0
   -2.3058    0.7133    3.8652 H   0  0  0  0  0  0  0  0  0  0  0  0
  5  6  2  0  0  0  0
  5  7  1  0  0  0  0
  2  3  1  0  0  0  0
  2  4  1  0  0  0  0
  2  5  1  0  0  0  0
  1  2  1  0  0  0  0
 29 30  2  0  0  0  0
 29 31  1  0  0  0  0
 26 27  1  0  0  0  0
 26 28  2  0  0  0  0
 24 25  1  0  0  0  0
 24 26  1  0  0  0  0
 22 23  1  0  0  0  0
 22 24  2  0  0  0  0
 20 21  1  0  0  0  0
 20 22  1  0  0  0  0
 19 20  2  0  0  0  0
 19 28  1  0  0  0  0
 17 18  1  0  0  0  0
 17 19  1  0  0  0  0
 15 16  1  0  0  0  0
 15 17  1  0  0  0  0
 14 15  2  0  0  0  0
 14 28  1  0  0  0  0
 11 12  1  0  0  0  0
 11 13  1  0  0  0  0
 11 14  1  0  0  0  0
  9 10  1  0  0  0  0
  9 11  1  0  0  0  0
  9 29  1  0  0  0  0
  7  8  1  0  0  0  0
  7  9  1  0  0  0  0
 33 34  1  0  0  0  0
 33 35  1  0  0  0  0
 33 36  1  0  0  0  0
 31 32  1  0  0  0  0
 31 33  1  0  0  0  0
M  END
$$$$
default_name
  -OEChem-02102213163D

 36 37  0     1  0  0  0  0  0999 V2000
   -4.0843   -4.0736    1.2944 H   0  0  0  0  0  0  0  0  0  0  0  0
   -4.0342   -3.2816    0.5484 C   0  0  0  0  0  0  0  0  0  0  0  0
   -4.8842   -2.6126    0.6694 H   0  0  0  0  0  0  0  0  0  0  0  0
   -4.0433   -3.7186   -0.4486 H   0  0  0  0  0  0  0  0  0  0  0  0
   -2.7532   -2.5046    0.7444 C   0  0  0  0  0  0  0  0  0  0  0  0
   -1.9803   -2.8096    1.6434 O   0  0  0  0  0  0  0  0  0  0  0  0
   -2.5332   -1.4966   -0.0966 N   0  0  0  0  0  0  0  0  0  0  0  0
   -3.2312   -1.2816   -0.7936 H   0  0  0  0  0  0  0  0  0  0  0  0
   -1.3593   -0.6196   -0.0536 C   0  0  1  0  0  0  0  0  0  0  0  0
   -0.4622   -1.2317   -0.1545 H   0  0  0  0  0  0  0  0  0  0  0  0
   -1.4074    0.3593   -1.2373 C   0  0  0  0  0  0  0  0  0  0  0  0
   -0.6982    0.0270   -1.9975 H   0  0  0  0  0  0  0  0  0  0  0  0
   -2.4051    0.3227   -1.6779 H   0  0  0  0  0  0  0  0  0  0  0  0
   -1.0897    1.7843   -0.8986 C   0  0  0  0  0  0  0  0  0  0  0  0
   -1.9874    2.7218   -0.5207 C   0  0  0  0  0  0  0  0  0  0  0  0
   -3.0556    2.5549   -0.4359 H   0  0  0  0  0  0  0  0  0  0  0  0
   -1.3329    3.9060   -0.2432 N   0  0  0  0  0  0  0  0  0  0  0  0
   -1.8054    4.7471    0.0541 H   0  0  0  0  0  0  0  0  0  0  0  0
    0.0298    3.7847   -0.4137 C   0  0  0  0  0  0  0  0  0  0  0  0
    1.1005    4.6724   -0.2347 C   0  0  0  0  0  0  0  0  0  0  0  0
    0.9228    5.6844    0.0982 H   0  0  0  0  0  0  0  0  0  0  0  0
    2.4076    4.2272   -0.4963 C   0  0  0  0  0  0  0  0  0  0  0  0
    3.2458    4.8981   -0.3648 H   0  0  0  0  0  0  0  0  0  0  0  0
    2.6240    2.9085   -0.9362 C   0  0  0  0  0  0  0  0  0  0  0  0
    3.6305    2.5727   -1.1443 H   0  0  0  0  0  0  0  0  0  0  0  0
    1.5401    2.0255   -1.1145 C   0  0  0  0  0  0  0  0  0  0  0  0
    1.7191    1.0192   -1.4658 H   0  0  0  0  0  0  0  0  0  0  0  0
    0.2160    2.4403   -0.8544 C   0  0  0  0  0  0  0  0  0  0  0  0
   -1.2663    0.1182    1.2910 C   0  0  0  0  0  0  0  0  0  0  0  0
   -0.1906    0.1931    1.8833 O   0  0  0  0  0  0  0  0  0  0  0  0
   -2.3930    0.6605    1.7722 N   0  0  0  0  0  0  0  0  0  0  0  0
   -3.2451    0.5077    1.2518 H   0  0  0  0  0  0  0  0  0  0  0  0
   -2.4787    1.3954    3.0311 C   0  0  0  0  0  0  0  0  0  0  0  0
   -1.7166    2.1767    3.0539 H   0  0  0  0  0  0  0  0  0  0  0  0
   -3.4649    1.8498    3.1344 H   0  0  0  0  0  0  0  0  0  0  0  0
   -2.3058    0.7133    3.8652 H   0  0  0  0  0  0  0  0  0  0  0  0
  5  6  2  0  0  0  0
  5  7  1  0  0  0  0
  2  3  1  0  0  0  0
  2  4  1  0  0  0  0
  2  5  1  0  0  0  0
  1  2  1  0  0  0  0
 29 30  2  0  0  0  0
 29 31  1  0  0  0  0
 26 27  1  0  0  0  0
 26 28  2  0  0  0  0
 24 25  1  0  0  0  0
 24 26  1  0  0  0  0
 22 23  1  0  0  0  0
 22 24  2  0  0  0  0
 20 21  1  0  0  0  0
 20 22  1  0  0  0  0
 19 20  2  0  0  0  0
 19 28  1  0  0  0  0
 17 18  1  0  0  0  0
 17 19  1  0  0  0  0
 15 16  1  0  0  0  0
 15 17  1  0  0  0  0
 14 15  2  0  0  0  0
 14 28  1  0  0  0  0
 11 12  1  0  0  0  0
 11 13  1  0  0  0  0
 11 14  1  0  0  0  0
  9 10  1  0  0  0  0
  9 11  1  0  0  0  0
  9 29  1  0  0  0  0
  7  8  1  0  0  0  0
  7  9  1  0  0  0  0
 33 34  1  0  0  0  0
 33 35  1  0  0  0  0
 33 36  1  0  0  0  0
 31 32  1  0  0  0  0
 31 33  1  0  0  0  0
M  END
$$$$
default_name
  -OEChem-02102213163D

 36 37  0     1  0  0  0  0  0999 V2000
   -4.0843   -4.0736    1.2944 H   0  0  0  0  0  0  0  0  0  0  0  0
   -4.0342   -3.2816    0.5484 C   0  0  0  0  0  0  0  0  0  0  0  0
   -4.8842   -2.6126    0.6694 H   0  0  0  0  0  0  0  0  0  0  0  0
   -4.0433   -3.7186   -0.4486 H   0  0  0  0  0  0  0  0  0  0  0  0
   -2.7532   -2.5046    0.7444 C   0  0  0  0  0  0  0  0  0  0  0  0
   -1.9803   -2.8096    1.6434 O   0  0  0  0  0  0  0  0  0  0  0  0
   -2.5332   -1.4966   -0.0966 N   0  0  0  0  0  0  0  0  0  0  0  0
   -3.2312   -1.2816   -0.7936 H   0  0  0  0  0  0  0  0  0  0  0  0
   -1.3593   -0.6196   -0.0536 C   0  0  1  0  0  0  0  0  0  0  0  0
   -0.4622   -1.2317   -0.1545 H   0  0  0  0  0  0  0  0  0  0  0  0
   -1.4074    0.3593   -1.2373 C   0  0  0  0  0  0  0  0  0  0  0  0
   -0.6982    0.0270   -1.9975 H   0  0  0  0  0  0  0  0  0  0  0  0
   -2.4051    0.3227   -1.6779 H   0  0  0  0  0  0  0  0  0  0  0  0
   -1.0897    1.7843   -0.8986 C   0  0  0  0  0  0  0  0  0  0  0  0
   -1.9129    2.6421   -0.2552 C   0  0  0  0  0  0  0  0  0  0  0  0
   -2.9168    2.4019    0.0776 H   0  0  0  0  0  0  0  0  0  0  0  0
   -1.2722    3.8520   -0.0730 N   0  0  0  0  0  0  0  0  0  0  0  0
   -1.6990    4.6453    0.3825 H   0  0  0  0  0  0  0  0  0  0  0  0
    0.0102    3.8283   -0.5786 C   0  0  0  0  0  0  0  0  0  0  0  0
    1.0446    4.7745   -0.6119 C   0  0  0  0  0  0  0  0  0  0  0  0
    0.9029    5.7558   -0.1834 H   0  0  0  0  0  0  0  0  0  0  0  0
    2.2673    4.4286   -1.2123 C   0  0  0  0  0  0  0  0  0  0  0  0
    3.0761    5.1459   -1.2482 H   0  0  0  0  0  0  0  0  0  0  0  0
    2.4358    3.1493   -1.7729 C   0  0  0  0  0  0  0  0  0  0  0  0
    3.3753    2.8903   -2.2412 H   0  0  0  0  0  0  0  0  0  0  0  0
    1.3886    2.2069   -1.7354 C   0  0  0  0  0  0  0  0  0  0  0  0
    1.5267    1.2323   -2.1816 H   0  0  0  0  0  0  0  0  0  0  0  0
    0.1506    2.5214   -1.1342 C   0  0  0  0  0  0  0  0  0  0  0  0
   -1.2663    0.1182    1.2910 C   0  0  0  0  0  0  0  0  0  0  0  0
   -0.1906    0.1931    1.8833 O   0  0  0  0  0  0  0  0  0  0  0  0
   -2.3930    0.6605    1.7722 N   0  0  0  0  0  0  0  0  0  0  0  0
   -3.2451    0.5077    1.2518 H   0  0  0  0  0  0  0  0  0  0  0  0
   -2.4787    1.3954    3.0311 C   0  0  0  0  0  0  0  0  0  0  0  0
   -1.7166    2.1767    3.0539 H   0  0  0  0  0  0  0  0  0  0  0  0
   -3.4649    1.8498    3.1344 H   0  0  0  0  0  0  0  0  0  0  0  0
   -2.3058    0.7133    3.8652 H   0  0  0  0  0  0  0  0  0  0  0  0
  5  6  2  0  0  0  0
  5  7  1  0  0  0  0
  2  3  1  0  0  0  0
  2  4  1  0  0  0  0
  2  5  1  0  0  0  0
  1  2  1  0  0  0  0
 29 30  2  0  0  0  0
 29 31  1  0  0  0  0
 26 27  1  0  0  0  0
 26 28  2  0  0  0  0
 24 25  1  0  0  0  0
 24 26  1  0  0  0  0
 22 23  1  0  0  0  0
 22 24  2  0  0  0  0
 20 21  1  0  0  0  0
 20 22  1  0  0  0  0
 19 20  2  0  0  0  0
 19 28  1  0  0  0  0
 17 18  1  0  0  0  0
 17 19  1  0  0  0  0
 15 16  1  0  0  0  0
 15 17  1  0  0  0  0
 14 15  2  0  0  0  0
 14 28  1  0  0  0  0
 11 12  1  0  0  0  0
 11 13  1  0  0  0  0
 11 14  1  0  0  0  0
  9 10  1  0  0  0  0
  9 11  1  0  0  0  0
  9 29  1  0  0  0  0
  7  8  1  0  0  0  0
  7  9  1  0  0  0  0
 33 34  1  0  0  0  0
 33 35  1  0  0  0  0
 33 36  1  0  0  0  0
 31 32  1  0  0  0  0
 31 33  1  0  0  0  0
M  END
$$$$
default_name
  -OEChem-02102213163D

 36 37  0     1  0  0  0  0  0999 V2000
   -4.0843   -4.0736    1.2944 H   0  0  0  0  0  0  0  0  0  0  0  0
   -4.0342   -3.2816    0.5484 C   0  0  0  0  0  0  0  0  0  0  0  0
   -4.8842   -2.6126    0.6694 H   0  0  0  0  0  0  0  0  0  0  0  0
   -4.0433   -3.7186   -0.4486 H   0  0  0  0  0  0  0  0  0  0  0  0
   -2.7532   -2.5046    0.7444 C   0  0  0  0  0  0  0  0  0  0  0  0
   -1.9803   -2.8096    1.6434 O   0  0  0  0  0  0  0  0  0  0  0  0
   -2.5332   -1.4966   -0.0966 N   0  0  0  0  0  0  0  0  0  0  0  0
   -3.2312   -1.2816   -0.7936 H   0  0  0  0  0  0  0  0  0  0  0  0
   -1.3593   -0.6196   -0.0536 C   0  0  1  0  0  0  0  0  0  0  0  0
   -0.4622   -1.2317   -0.1545 H   0  0  0  0  0  0  0  0  0  0  0  0
   -1.4074    0.3593   -1.2373 C   0  0  0  0  0  0  0  0  0  0  0  0
   -0.6982    0.0270   -1.9975 H   0  0  0  0  0  0  0  0  0  0  0  0
   -2.4051    0.3227   -1.6779 H   0  0  0  0  0  0  0  0  0  0  0  0
   -1.0897    1.7843   -0.8986 C   0  0  0  0  0  0  0  0  0  0  0  0
   -1.7710    2.5549   -0.0214 C   0  0  0  0  0  0  0  0  0  0  0  0
   -2.6474    2.2340    0.5310 H   0  0  0  0  0  0  0  0  0  0  0  0
   -1.1685    3.7940    0.0735 N   0  0  0  0  0  0  0  0  0  0  0  0
   -1.5096    4.5353    0.6679 H   0  0  0  0  0  0  0  0  0  0  0  0
   -0.0518    3.8783   -0.7307 C   0  0  0  0  0  0  0  0  0  0  0  0
    0.8918    4.8906   -0.9570 C   0  0  0  0  0  0  0  0  0  0  0  0
    0.8102    5.8390   -0.4467 H   0  0  0  0  0  0  0  0  0  0  0  0
    1.9439    4.6543   -1.8583 C   0  0  0  0  0  0  0  0  0  0  0  0
    2.6804    5.4238   -2.0462 H   0  0  0  0  0  0  0  0  0  0  0  0
    2.0340    3.4168   -2.5215 C   0  0  0  0  0  0  0  0  0  0  0  0
    2.8404    3.2423   -3.2204 H   0  0  0  0  0  0  0  0  0  0  0  0
    1.0788    2.4073   -2.2879 C   0  0  0  0  0  0  0  0  0  0  0  0
    1.1523    1.4661   -2.8140 H   0  0  0  0  0  0  0  0  0  0  0  0
    0.0138    2.6112   -1.3840 C   0  0  0  0  0  0  0  0  0  0  0  0
   -1.2663    0.1182    1.2910 C   0  0  0  0  0  0  0  0  0  0  0  0
   -0.1906    0.1931    1.8833 O   0  0  0  0  0  0  0  0  0  0  0  0
   -2.3930    0.6605    1.7722 N   0  0  0  0  0  0  0  0  0  0  0  0
   -3.2451    0.5077    1.2518 H   0  0  0  0  0  0  0  0  0  0  0  0
   -2.4787    1.3954    3.0311 C   0  0  0  0  0  0  0  0  0  0  0  0
   -1.7166    2.1767    3.0539 H   0  0  0  0  0  0  0  0  0  0  0  0
   -3.4649    1.8498    3.1344 H   0  0  0  0  0  0  0  0  0  0  0  0
   -2.3058    0.7133    3.8652 H   0  0  0  0  0  0  0  0  0  0  0  0
  5  6  2  0  0  0  0
  5  7  1  0  0  0  0
  2  3  1  0  0  0  0
  2  4  1  0  0  0  0
  2  5  1  0  0  0  0
  1  2  1  0  0  0  0
 29 30  2  0  0  0  0
 29 31  1  0  0  0  0
 26 27  1  0  0  0  0
 26 28  2  0  0  0  0
 24 25  1  0  0  0  0
 24 26  1  0  0  0  0
 22 23  1  0  0  0  0
 22 24  2  0  0  0  0
 20 21  1  0  0  0  0
 20 22  1  0  0  0  0
 19 20  2  0  0  0  0
 19 28  1  0  0  0  0
 17 18  1  0  0  0  0
 17 19  1  0  0  0  0
 15 16  1  0  0  0  0
 15 17  1  0  0  0  0
 14 15  2  0  0  0  0
 14 28  1  0  0  0  0
 11 12  1  0  0  0  0
 11 13  1  0  0  0  0
 11 14  1  0  0  0  0
  9 10  1  0  0  0  0
  9 11  1  0  0  0  0
  9 29  1  0  0  0  0
  7  8  1  0  0  0  0
  7  9  1  0  0  0  0
 33 34  1  0  0  0  0
 33 35  1  0  0  0  0
 33 36  1  0  0  0  0
 31 32  1  0  0  0  0
 31 33  1  0  0  0  0
M  END
$$$$
default_name
  -OEChem-02102213163D

 36 37  0     1  0  0  0  0  0999 V2000
   -4.0843   -4.0736    1.2944 H   0  0  0  0  0  0  0  0  0  0  0  0
   -4.0342   -3.2816    0.5484 C   0  0  0  0  0  0  0  0  0  0  0  0
   -4.8842   -2.6126    0.6694 H   0  0  0  0  0  0  0  0  0  0  0  0
   -4.0433   -3.7186   -0.4486 H   0  0  0  0  0  0  0  0  0  0  0  0
   -2.7532   -2.5046    0.7444 C   0  0  0  0  0  0  0  0  0  0  0  0
   -1.9803   -2.8096    1.6434 O   0  0  0  0  0  0  0  0  0  0  0  0
   -2.5332   -1.4966   -0.0966 N   0  0  0  0  0  0  0  0  0  0  0  0
   -3.2312   -1.2816   -0.7936 H   0  0  0  0  0  0  0  0  0  0  0  0
   -1.3593   -0.6196   -0.0536 C   0  0  1  0  0  0  0  0  0  0  0  0
   -0.4622   -1.2317   -0.1545 H   0  0  0  0  0  0  0  0  0  0  0  0
   -1.4074    0.3593   -1.2373 C   0  0  0  0  0  0  0  0  0  0  0  0
   -0.6982    0.0270   -1.9975 H   0  0  0  0  0  0  0  0  0  0  0  0
   -2.4051    0.3227   -1.6779 H   0  0  0  0  0  0  0  0  0  0  0  0
   -1.0897    1.7843   -0.8986 C   0  0  0  0  0  0  0  0  0  0  0  0
   -1.5714    2.4662    0.1647 C   0  0  0  0  0  0  0  0  0  0  0  0
   -2.2658    2.0628    0.8936 H   0  0  0  0  0  0  0  0  0  0  0  0
   -1.0289    3.7361    0.1862 N   0  0  0  0  0  0  0  0  0  0  0  0
   -1.2499    4.4243    0.8910 H   0  0  0  0  0  0  0  0  0  0  0  0
   -0.1521    3.9313   -0.8597 C   0  0  0  0  0  0  0  0  0  0  0  0
    0.6525    5.0127   -1.2463 C   0  0  0  0  0  0  0  0  0  0  0  0
    0.6510    5.9285   -0.6736 H   0  0  0  0  0  0  0  0  0  0  0  0
    1.4592    4.8888   -2.3904 C   0  0  0  0  0  0  0  0  0  0  0  0
    2.0856    5.7128   -2.7044 H   0  0  0  0  0  0  0  0  0  0  0  0
    1.4461    3.6928   -3.1311 C   0  0  0  0  0  0  0  0  0  0  0  0
    2.0620    3.6048   -4.0154 H   0  0  0  0  0  0  0  0  0  0  0  0
    0.6319    2.6130   -2.7343 C   0  0  0  0  0  0  0  0  0  0  0  0
    0.6212    1.7047   -3.3199 H   0  0  0  0  0  0  0  0  0  0  0  0
   -0.1850    2.7037   -1.5866 C   0  0  0  0  0  0  0  0  0  0  0  0
   -1.2663    0.1182    1.2910 C   0  0  0  0  0  0  0  0  0  0  0  0
   -0.1906    0.1931    1.8833 O   0  0  0  0  0  0  0  0  0  0  0  0
   -2.3930    0.6605    1.7722 N   0  0  0  0  0  0  0  0  0  0  0  0
   -3.2451    0.5077    1.2518 H   0  0  0  0  0  0  0  0  0  0  0  0
   -2.4787    1.3954    3.0311 C   0  0  0  0  0  0  0  0  0  0  0  0
   -1.7166    2.1767    3.0539 H   0  0  0  0  0  0  0  0  0  0  0  0
   -3.4649    1.8498    3.1344 H   0  0  0  0  0  0  0  0  0  0  0  0
   -2.3058    0.7133    3.8652 H   0  0  0  0  0  0  0  0  0  0  0  0
  5  6  2  0  0  0  0
  5  7  1  0  0  0  0
  2  3  1  0  0  0  0
  2  4  1  0  0  0  0
  2  5  1  0  0  0  0
  1  2  1  0  0  0  0
 29 30  2  0  0  0  0
 29 31  1  0  0  0  0
 26 27  1  0  0  0  0
 26 28  2  0  0  0  0
 24 25  1  0  0  0  0
 24 26  1  0  0  0  0
 22 23  1  0  0  0  0
 22 24  2  0  0  0  0
 20 21  1  0  0  0  0
 20 22  1  0  0  0  0
 19 20  2  0  0  0  0
 19 28  1  0  0  0  0
 17 18  1  0  0  0  0
 17 19  1  0  0  0  0
 15 16  1  0  0  0  0
 15 17  1  0  0  0  0
 14 15  2  0  0  0  0
 14 28  1  0  0  0  0
 11 12  1  0  0  0  0
 11 13  1  0  0  0  0
 11 14  1  0  0  0  0
  9 10  1  0  0  0  0
  9 11  1  0  0  0  0
  9 29  1  0  0  0  0
  7  8  1  0  0  0  0
  7  9  1  0  0  0  0
 33 34  1  0  0  0  0
 33 35  1  0  0  0  0
 33 36  1  0  0  0  0
 31 32  1  0  0  0  0
 31 33  1  0  0  0  0
M  END
$$$$
default_name
  -OEChem-02102213163D

 36 37  0     1  0  0  0  0  0999 V2000
   -4.0843   -4.0736    1.2944 H   0  0  0  0  0  0  0  0  0  0  0  0
   -4.0342   -3.2816    0.5484 C   0  0  0  0  0  0  0  0  0  0  0  0
   -4.8842   -2.6126    0.6694 H   0  0  0  0  0  0  0  0  0  0  0  0
   -4.0433   -3.7186   -0.4486 H   0  0  0  0  0  0  0  0  0  0  0  0
   -2.7532   -2.5046    0.7444 C   0  0  0  0  0  0  0  0  0  0  0  0
   -1.9803   -2.8096    1.6434 O   0  0  0  0  0  0  0  0  0  0  0  0
   -2.5332   -1.4966   -0.0966 N   0  0  0  0  0  0  0  0  0  0  0  0
   -3.2312   -1.2816   -0.7936 H   0  0  0  0  0  0  0  0  0  0  0  0
   -1.3593   -0.6196   -0.0536 C   0  0  1  0  0  0  0  0  0  0  0  0
   -0.4622   -1.2317   -0.1545 H   0  0  0  0  0  0  0  0  0  0  0  0
   -1.4074    0.3593   -1.2373 C   0  0  0  0  0  0  0  0  0  0  0  0
   -0.6982    0.0270   -1.9975 H   0  0  0  0  0  0  0  0  0  0  0  0
   -2.4051    0.3227   -1.6779 H   0  0  0  0  0  0  0  0  0  0  0  0
   -1.0897    1.7843   -0.8986 C   0  0  0  0  0  0  0  0  0  0  0  0
   -1.3275    2.3819    0.2905 C   0  0  0  0  0  0  0  0  0  0  0  0
   -1.7979    1.8998    1.1404 H   0  0  0  0  0  0  0  0  0  0  0  0
   -0.8629    3.6821    0.2577 N   0  0  0  0  0  0  0  0  0  0  0  0
   -0.9376    4.3202    1.0364 H   0  0  0  0  0  0  0  0  0  0  0  0
   -0.2838    3.9837   -0.9566 C   0  0  0  0  0  0  0  0  0  0  0  0
    0.3430    5.1326   -1.4602 C   0  0  0  0  0  0  0  0  0  0  0  0
    0.4361    6.0180   -0.8487 H   0  0  0  0  0  0  0  0  0  0  0  0
    0.8465    5.1162   -2.7722 C   0  0  0  0  0  0  0  0  0  0  0  0
    1.3321    5.9934   -3.1779 H   0  0  0  0  0  0  0  0  0  0  0  0
    0.7120    3.9584   -3.5602 C   0  0  0  0  0  0  0  0  0  0  0  0
    1.0934    3.9530   -4.5719 H   0  0  0  0  0  0  0  0  0  0  0  0
    0.0784    2.8101   -3.0443 C   0  0  0  0  0  0  0  0  0  0  0  0
   -0.0301    1.9319   -3.6648 H   0  0  0  0  0  0  0  0  0  0  0  0
   -0.4324    2.7925   -1.7283 C   0  0  0  0  0  0  0  0  0  0  0  0
   -1.2663    0.1182    1.2910 C   0  0  0  0  0  0  0  0  0  0  0  0
   -0.1906    0.1931    1.8833 O   0  0  0  0  0  0  0  0  0  0  0  0
   -2.3930    0.6605    1.7722 N   0  0  0  0  0  0  0  0  0  0  0  0
   -3.2451    0.5077    1.2518 H   0  0  0  0  0  0  0  0  0  0  0  0
   -2.4787    1.3954    3.0311 C   0  0  0  0  0  0  0  0  0  0  0  0
   -1.7166    2.1767    3.0539 H   0  0  0  0  0  0  0  0  0  0  0  0
   -3.4649    1.8498    3.1344 H   0  0  0  0  0  0  0  0  0  0  0  0
   -2.3058    0.7133    3.8652 H   0  0  0  0  0  0  0  0  0  0  0  0
  5  6  2  0  0  0  0
  5  7  1  0  0  0  0
  2  3  1  0  0  0  0
  2  4  1  0  0  0  0
  2  5  1  0  0  0  0
  1  2  1  0  0  0  0
 29 30  2  0  0  0  0
 29 31  1  0  0  0  0
 26 27  1  0  0  0  0
 26 28  2  0  0  0  0
 24 25  1  0  0  0  0
 24 26  1  0  0  0  0
 22 23  1  0  0  0  0
 22 24  2  0  0  0  0
 20 21  1  0  0  0  0
 20 22  1  0  0  0  0
 19 20  2  0  0  0  0
 19 28  1  0  0  0  0
 17 18  1  0  0  0  0
 17 19  1  0  0  0  0
 15 16  1  0  0  0  0
 15 17  1  0  0  0  0
 14 15  2  0  0  0  0
 14 28  1  0  0  0  0
 11 12  1  0  0  0  0
 11 13  1  0  0  0  0
 11 14  1  0  0  0  0
  9 10  1  0  0  0  0
  9 11  1  0  0  0  0
  9 29  1  0  0  0  0
  7  8  1  0  0  0  0
  7  9  1  0  0  0  0
 33 34  1  0  0  0  0
 33 35  1  0  0  0  0
 33 36  1  0  0  0  0
 31 32  1  0  0  0  0
 31 33  1  0  0  0  0
M  END
$$$$
default_name
  -OEChem-02102213163D

 36 37  0     1  0  0  0  0  0999 V2000
   -4.0843   -4.0736    1.2944 H   0  0  0  0  0  0  0  0  0  0  0  0
   -4.0342   -3.2816    0.5484 C   0  0  0  0  0  0  0  0  0  0  0  0
   -4.8842   -2.6126    0.6694 H   0  0  0  0  0  0  0  0  0  0  0  0
   -4.0433   -3.7186   -0.4486 H   0  0  0  0  0  0  0  0  0  0  0  0
   -2.7532   -2.5046    0.7444 C   0  0  0  0  0  0  0  0  0  0  0  0
   -1.9803   -2.8096    1.6434 O   0  0  0  0  0  0  0  0  0  0  0  0
   -2.5332   -1.4966   -0.0966 N   0  0  0  0  0  0  0  0  0  0  0  0
   -3.2312   -1.2816   -0.7936 H   0  0  0  0  0  0  0  0  0  0  0  0
   -1.3593   -0.6196   -0.0536 C   0  0  1  0  0  0  0  0  0  0  0  0
   -0.4622   -1.2317   -0.1545 H   0  0  0  0  0  0  0  0  0  0  0  0
   -1.4074    0.3593   -1.2373 C   0  0  0  0  0  0  0  0  0  0  0  0
   -0.6982    0.0270   -1.9975 H   0  0  0  0  0  0  0  0  0  0  0  0
   -2.4051    0.3227   -1.6779 H   0  0  0  0  0  0  0  0  0  0  0  0
   -1.0897    1.7843   -0.8986 C   0  0  0  0  0  0  0  0  0  0  0  0
   -1.0560    2.3079    0.3473 C   0  0  0  0  0  0  0  0  0  0  0  0
   -1.2758    1.7562    1.2548 H   0  0  0  0  0  0  0  0  0  0  0  0
   -0.6818    3.6358    0.2828 N   0  0  0  0  0  0  0  0  0  0  0  0
   -0.5942    4.2298    1.0944 H   0  0  0  0  0  0  0  0  0  0  0  0
   -0.4380    4.0319   -1.0150 C   0  0  0  0  0  0  0  0  0  0  0  0
   -0.0156    5.2419   -1.5841 C   0  0  0  0  0  0  0  0  0  0  0  0
    0.1803    6.1015   -0.9600 H   0  0  0  0  0  0  0  0  0  0  0  0
    0.1473    5.3209   -2.9777 C   0  0  0  0  0  0  0  0  0  0  0  0
    0.4714    6.2462   -3.4345 H   0  0  0  0  0  0  0  0  0  0  0  0
   -0.1182    4.1956   -3.7793 C   0  0  0  0  0  0  0  0  0  0  0  0
    0.0005    4.2632   -4.8519 H   0  0  0  0  0  0  0  0  0  0  0  0
   -0.5441    2.9851   -3.1967 C   0  0  0  0  0  0  0  0  0  0  0  0
   -0.7575    2.1322   -3.8252 H   0  0  0  0  0  0  0  0  0  0  0  0
   -0.7114    2.8716   -1.7995 C   0  0  0  0  0  0  0  0  0  0  0  0
   -1.2663    0.1182    1.2910 C   0  0  0  0  0  0  0  0  0  0  0  0
   -0.1906    0.1931    1.8833 O   0  0  0  0  0  0  0  0  0  0  0  0
   -2.3930    0.6605    1.7722 N   0  0  0  0  0  0  0  0  0  0  0  0
   -3.2451    0.5077    1.2518 H   0  0  0  0  0  0  0  0  0  0  0  0
   -2.4787    1.3954    3.0311 C   0  0  0  0  0  0  0  0  0  0  0  0
   -1.7166    2.1767    3.0539 H   0  0  0  0  0  0  0  0  0  0  0  0
   -3.4649    1.8498    3.1344 H   0  0  0  0  0  0  0  0  0  0  0  0
   -2.3058    0.7133    3.8652 H   0  0  0  0  0  0  0  0  0  0  0  0
  5  6  2  0  0  0  0
  5  7  1  0  0  0  0
  2  3  1  0  0  0  0
  2  4  1  0  0  0  0
  2  5  1  0  0  0  0
  1  2  1  0  0  0  0
 29 30  2  0  0  0  0
 29 31  1  0  0  0  0
 26 27  1  0  0  0  0
 26 28  2  0  0  0  0
 24 25  1  0  0  0  0
 24 26  1  0  0  0  0
 22 23  1  0  0  0  0
 22 24  2  0  0  0  0
 20 21  1  0  0  0  0
 20 22  1  0  0  0  0
 19 20  2  0  0  0  0
 19 28  1  0  0  0  0
 17 18  1  0  0  0  0
 17 19  1  0  0  0  0
 15 16  1  0  0  0  0
 15 17  1  0  0  0  0
 14 15  2  0  0  0  0
 14 28  1  0  0  0  0
 11 12  1  0  0  0  0
 11 13  1  0  0  0  0
 11 14  1  0  0  0  0
  9 10  1  0  0  0  0
  9 11  1  0  0  0  0
  9 29  1  0  0  0  0
  7  8  1  0  0  0  0
  7  9  1  0  0  0  0
 33 34  1  0  0  0  0
 33 35  1  0  0  0  0
 33 36  1  0  0  0  0
 31 32  1  0  0  0  0
 31 33  1  0  0  0  0
M  END
$$$$
default_name
  -OEChem-02102213163D

 36 37  0     1  0  0  0  0  0999 V2000
   -4.0843   -4.0736    1.2944 H   0  0  0  0  0  0  0  0  0  0  0  0
   -4.0342   -3.2816    0.5484 C   0  0  0  0  0  0  0  0  0  0  0  0
   -4.8842   -2.6126    0.6694 H   0  0  0  0  0  0  0  0  0  0  0  0
   -4.0433   -3.7186   -0.4486 H   0  0  0  0  0  0  0  0  0  0  0  0
   -2.7532   -2.5046    0.7444 C   0  0  0  0  0  0  0  0  0  0  0  0
   -1.9803   -2.8096    1.6434 O   0  0  0  0  0  0  0  0  0  0  0  0
   -2.5332   -1.4966   -0.0966 N   0  0  0  0  0  0  0  0  0  0  0  0
   -3.2312   -1.2816   -0.7936 H   0  0  0  0  0  0  0  0  0  0  0  0
   -1.3593   -0.6196   -0.0536 C   0  0  1  0  0  0  0  0  0  0  0  0
   -0.4622   -1.2317   -0.1545 H   0  0  0  0  0  0  0  0  0  0  0  0
   -1.4074    0.3593   -1.2373 C   0  0  0  0  0  0  0  0  0  0  0  0
   -0.6982    0.0270   -1.9975 H   0  0  0  0  0  0  0  0  0  0  0  0
   -2.4051    0.3227   -1.6779 H   0  0  0  0  0  0  0  0  0  0  0  0
   -1.0897    1.7843   -0.8986 C   0  0  0  0  0  0  0  0  0  0  0  0
   -0.7755    2.2491    0.3314 C   0  0  0  0  0  0  0  0  0  0  0  0
   -0.7348    1.6418    1.2289 H   0  0  0  0  0  0  0  0  0  0  0  0
   -0.4980    3.6002    0.2601 N   0  0  0  0  0  0  0  0  0  0  0  0
   -0.2429    4.1595    1.0609 H   0  0  0  0  0  0  0  0  0  0  0  0
   -0.6040    4.0727   -1.0308 C   0  0  0  0  0  0  0  0  0  0  0  0
   -0.3989    5.3334   -1.6095 C   0  0  0  0  0  0  0  0  0  0  0  0
   -0.0991    6.1733   -1.0000 H   0  0  0  0  0  0  0  0  0  0  0  0
   -0.5905    5.4890   -2.9930 C   0  0  0  0  0  0  0  0  0  0  0  0
   -0.4380    6.4542   -3.4567 H   0  0  0  0  0  0  0  0  0  0  0  0
   -0.9879    4.3882   -3.7737 C   0  0  0  0  0  0  0  0  0  0  0  0
   -1.1423    4.5143   -4.8364 H   0  0  0  0  0  0  0  0  0  0  0  0
   -1.1931    3.1261   -3.1811 C   0  0  0  0  0  0  0  0  0  0  0  0
   -1.5112    2.2919   -3.7902 H   0  0  0  0  0  0  0  0  0  0  0  0
   -1.0030    2.9356   -1.7952 C   0  0  0  0  0  0  0  0  0  0  0  0
   -1.2663    0.1182    1.2910 C   0  0  0  0  0  0  0  0  0  0  0  0
   -0.1906    0.1931    1.8833 O   0  0  0  0  0  0  0  0  0  0  0  0
   -2.3930    0.6605    1.7722 N   0  0  0  0  0  0  0  0  0  0  0  0
   -3.2451    0.5077    1.2518 H   0  0  0  0  0  0  0  0  0  0  0  0
   -2.4787    1.3954    3.0311 C   0  0  0  0  0  0  0  0  0  0  0  0
   -1.7166    2.1767    3.0539 H   0  0  0  0  0  0  0  0  0  0  0  0
   -3.4649    1.8498    3.1344 H   0  0  0  0  0  0  0  0  0  0  0  0
   -2.3058    0.7133    3.8652 H   0  0  0  0  0  0  0  0  0  0  0  0
  5  6  2  0  0  0  0
  5  7  1  0  0  0  0
  2  3  1  0  0  0  0
  2  4  1  0  0  0  0
  2  5  1  0  0  0  0
  1  2  1  0  0  0  0
 29 30  2  0  0  0  0
 29 31  1  0  0  0  0
 26 27  1  0  0  0  0
 26 28  2  0  0  0  0
 24 25  1  0  0  0  0
 24 26  1  0  0  0  0
 22 23  1  0  0  0  0
 22 24  2  0  0  0  0
 20 21  1  0  0  0  0
 20 22  1  0  0  0  0
 19 20  2  0  0  0  0
 19 28  1  0  0  0  0
 17 18  1  0  0  0  0
 17 19  1  0  0  0  0
 15 16  1  0  0  0  0
 15 17  1  0  0  0  0
 14 15  2  0  0  0  0
 14 28  1  0  0  0  0
 11 12  1  0  0  0  0
 11 13  1  0  0  0  0
 11 14  1  0  0  0  0
  9 10  1  0  0  0  0
  9 11  1  0  0  0  0
  9 29  1  0  0  0  0
  7  8  1  0  0  0  0
  7  9  1  0  0  0  0
 33 34  1  0  0  0  0
 33 35  1  0  0  0  0
 33 36  1  0  0  0  0
 31 32  1  0  0  0  0
 31 33  1  0  0  0  0
M  END
$$$$
default_name
  -OEChem-02102213163D

 36 37  0     1  0  0  0  0  0999 V2000
   -4.0843   -4.0736    1.2944 H   0  0  0  0  0  0  0  0  0  0  0  0
   -4.0342   -3.2816    0.5484 C   0  0  0  0  0  0  0  0  0  0  0  0
   -4.8842   -2.6126    0.6694 H   0  0  0  0  0  0  0  0  0  0  0  0
   -4.0433   -3.7186   -0.4486 H   0  0  0  0  0  0  0  0  0  0  0  0
   -2.7532   -2.5046    0.7444 C   0  0  0  0  0  0  0  0  0  0  0  0
   -1.9803   -2.8096    1.6434 O   0  0  0  0  0  0  0  0  0  0  0  0
   -2.5332   -1.4966   -0.0966 N   0  0  0  0  0  0  0  0  0  0  0  0
   -3.2312   -1.2816   -0.7936 H   0  0  0  0  0  0  0  0  0  0  0  0
   -1.3593   -0.6196   -0.0536 C   0  0  1  0  0  0  0  0  0  0  0  0
   -0.4622   -1.2317   -0.1545 H   0  0  0  0  0  0  0  0  0  0  0  0
   -1.4074    0.3593   -1.2373 C   0  0  0  0  0  0  0  0  0  0  0  0
   -0.6982    0.0270   -1.9975 H   0  0  0  0  0  0  0  0  0  0  0  0
   -2.4051    0.3227   -1.6779 H   0  0  0  0  0  0  0  0  0  0  0  0
   -1.0897    1.7843   -0.8986 C   0  0  0  0  0  0  0  0  0  0  0  0
   -0.5051    2.2097    0.2437 C   0  0  0  0  0  0  0  0  0  0  0  0
   -0.2120    1.5643    1.0645 H   0  0  0  0  0  0  0  0  0  0  0  0
   -0.3240    3.5779    0.1909 N   0  0  0  0  0  0  0  0  0  0  0  0
    0.0924    4.1139    0.9382 H   0  0  0  0  0  0  0  0  0  0  0  0
   -0.7707    4.1032   -1.0029 C   0  0  0  0  0  0  0  0  0  0  0  0
   -0.7807    5.4008   -1.5347 C   0  0  0  0  0  0  0  0  0  0  0  0
   -0.3831    6.2285   -0.9660 H   0  0  0  0  0  0  0  0  0  0  0  0
   -1.3168    5.6091   -2.8169 C   0  0  0  0  0  0  0  0  0  0  0  0
   -1.3339    6.6032   -3.2429 H   0  0  0  0  0  0  0  0  0  0  0  0
   -1.8378    4.5230   -3.5437 C   0  0  0  0  0  0  0  0  0  0  0  0
   -2.2569    4.6891   -4.5265 H   0  0  0  0  0  0  0  0  0  0  0  0
   -1.8244    3.2234   -2.9985 C   0  0  0  0  0  0  0  0  0  0  0  0
   -2.2400    2.4001   -3.5621 H   0  0  0  0  0  0  0  0  0  0  0  0
   -1.2873    2.9802   -1.7158 C   0  0  0  0  0  0  0  0  0  0  0  0
   -1.2663    0.1182    1.2910 C   0  0  0  0  0  0  0  0  0  0  0  0
   -0.1906    0.1931    1.8833 O   0  0  0  0  0  0  0  0  0  0  0  0
   -2.3930    0.6605    1.7722 N   0  0  0  0  0  0  0  0  0  0  0  0
   -3.2451    0.5077    1.2518 H   0  0  0  0  0  0  0  0  0  0  0  0
   -2.4787    1.3954    3.0311 C   0  0  0  0  0  0  0  0  0  0  0  0
   -1.7166    2.1767    3.0539 H   0  0  0  0  0  0  0  0  0  0  0  0
   -3.4649    1.8498    3.1344 H   0  0  0  0  0  0  0  0  0  0  0  0
   -2.3058    0.7133    3.8652 H   0  0  0  0  0  0  0  0  0  0  0  0
  5  6  2  0  0  0  0
  5  7  1  0  0  0  0
  2  3  1  0  0  0  0
  2  4  1  0  0  0  0
  2  5  1  0  0  0  0
  1  2  1  0  0  0  0
 29 30  2  0  0  0  0
 29 31  1  0  0  0  0
 26 27  1  0  0  0  0
 26 28  2  0  0  0  0
 24 25  1  0  0  0  0
 24 26  1  0  0  0  0
 22 23  1  0  0  0  0
 22 24  2  0  0  0  0
 20 21  1  0  0  0  0
 20 22  1  0  0  0  0
 19 20  2  0  0  0  0
 19 28  1  0  0  0  0
 17 18  1  0  0  0  0
 17 19  1  0  0  0  0
 15 16  1  0  0  0  0
 15 17  1  0  0  0  0
 14 15  2  0  0  0  0
 14 28  1  0  0  0  0
 11 12  1  0  0  0  0
 11 13  1  0  0  0  0
 11 14  1  0  0  0  0
  9 10  1  0  0  0  0
  9 11  1  0  0  0  0
  9 29  1  0  0  0  0
  7  8  1  0  0  0  0
  7  9  1  0  0  0  0
 33 34  1  0  0  0  0
 33 35  1  0  0  0  0
 33 36  1  0  0  0  0
 31 32  1  0  0  0  0
 31 33  1  0  0  0  0
M  END
$$$$
default_name
  -OEChem-02102213163D

 36 37  0     1  0  0  0  0  0999 V2000
   -4.0843   -4.0736    1.2944 H   0  0  0  0  0  0  0  0  0  0  0  0
   -4.0342   -3.2816    0.5484 C   0  0  0  0  0  0  0  0  0  0  0  0
   -4.8842   -2.6126    0.6694 H   0  0  0  0  0  0  0  0  0  0  0  0
   -4.0433   -3.7186   -0.4486 H   0  0  0  0  0  0  0  0  0  0  0  0
   -2.7532   -2.5046    0.7444 C   0  0  0  0  0  0  0  0  0  0  0  0
   -1.9803   -2.8096    1.6434 O   0  0  0  0  0  0  0  0  0  0  0  0
   -2.5332   -1.4966   -0.0966 N   0  0  0  0  0  0  0  0  0  0  0  0
   -3.2312   -1.2816   -0.7936 H   0  0  0  0  0  0  0  0  0  0  0  0
   -1.3593   -0.6196   -0.0536 C   0  0  1  0  0  0  0  0  0  0  0  0
   -0.4622   -1.2317   -0.1545 H   0  0  0  0  0  0  0  0  0  0  0  0
   -1.4074    0.3593   -1.2373 C   0  0  0  0  0  0  0  0  0  0  0  0
   -0.6982    0.0270   -1.9975 H   0  0  0  0  0  0  0  0  0  0  0  0
   -2.4051    0.3227   -1.6779 H   0  0  0  0  0  0  0  0  0  0  0  0
   -1.0897    1.7843   -0.8986 C   0  0  0  0  0  0  0  0  0  0  0  0
   -0.2631    2.1922    0.0903 C   0  0  0  0  0  0  0  0  0  0  0  0
    0.2571    1.5290    0.7728 H   0  0  0  0  0  0  0  0  0  0  0  0
   -0.1716    3.5702    0.0800 N   0  0  0  0  0  0  0  0  0  0  0  0
    0.3886    4.0962    0.7347 H   0  0  0  0  0  0  0  0  0  0  0  0
   -0.9267    4.1215   -0.9333 C   0  0  0  0  0  0  0  0  0  0  0  0
   -1.1350    5.4394   -1.3648 C   0  0  0  0  0  0  0  0  0  0  0  0
   -0.6522    6.2633   -0.8602 H   0  0  0  0  0  0  0  0  0  0  0  0
   -1.9821    5.6729   -2.4615 C   0  0  0  0  0  0  0  0  0  0  0  0
   -2.1555    6.6829   -2.8077 H   0  0  0  0  0  0  0  0  0  0  0  0
   -2.6101    4.5909   -3.1050 C   0  0  0  0  0  0  0  0  0  0  0  0
   -3.2676    4.7758   -3.9432 H   0  0  0  0  0  0  0  0  0  0  0  0
   -2.3950    3.2705   -2.6616 C   0  0  0  0  0  0  0  0  0  0  0  0
   -2.8941    2.4496   -3.1565 H   0  0  0  0  0  0  0  0  0  0  0  0
   -1.5451    3.0022   -1.5667 C   0  0  0  0  0  0  0  0  0  0  0  0
   -1.2663    0.1182    1.2910 C   0  0  0  0  0  0  0  0  0  0  0  0
   -0.1906    0.1931    1.8833 O   0  0  0  0  0  0  0  0  0  0  0  0
   -2.3930    0.6605    1.7722 N   0  0  0  0  0  0  0  0  0  0  0  0
   -3.2451    0.5077    1.2518 H   0  0  0  0  0  0  0  0  0  0  0  0
   -2.4787    1.3954    3.0311 C   0  0  0  0  0  0  0  0  0  0  0  0
   -1.7166    2.1767    3.0539 H   0  0  0  0  0  0  0  0  0  0  0  0
   -3.4649    1.8498    3.1344 H   0  0  0  0  0  0  0  0  0  0  0  0
   -2.3058    0.7133    3.8652 H   0  0  0  0  0  0  0  0  0  0  0  0
  5  6  2  0  0  0  0
  5  7  1  0  0  0  0
  2  3  1  0  0  0  0
  2  4  1  0  0  0  0
  2  5  1  0  0  0  0
  1  2  1  0  0  0  0
 29 30  2  0  0  0  0
 29 31  1  0  0  0  0
 26 27  1  0  0  0  0
 26 28  2  0  0  0  0
 24 25  1  0  0  0  0
 24 26  1  0  0  0  0
 22 23  1  0  0  0  0
 22 24  2  0  0  0  0
 20 21  1  0  0  0  0
 20 22  1  0  0  0  0
 19 20  2  0  0  0  0
 19 28  1  0  0  0  0
 17 18  1  0  0  0  0
 17 19  1  0  0  0  0
 15 16  1  0  0  0  0
 15 17  1  0  0  0  0
 14 15  2  0  0  0  0
 14 28  1  0  0  0  0
 11 12  1  0  0  0  0
 11 13  1  0  0  0  0
 11 14  1  0  0  0  0
  9 10  1  0  0  0  0
  9 11  1  0  0  0  0
  9 29  1  0  0  0  0
  7  8  1  0  0  0  0
  7  9  1  0  0  0  0
 33 34  1  0  0  0  0
 33 35  1  0  0  0  0
 33 36  1  0  0  0  0
 31 32  1  0  0  0  0
 31 33  1  0  0  0  0
M  END
$$$$
default_name
  -OEChem-02102213163D

 36 37  0     1  0  0  0  0  0999 V2000
   -4.0843   -4.0736    1.2944 H   0  0  0  0  0  0  0  0  0  0  0  0
   -4.0342   -3.2816    0.5484 C   0  0  0  0  0  0  0  0  0  0  0  0
   -4.8842   -2.6126    0.6694 H   0  0  0  0  0  0  0  0  0  0  0  0
   -4.0433   -3.7186   -0.4486 H   0  0  0  0  0  0  0  0  0  0  0  0
   -2.7532   -2.5046    0.7444 C   0  0  0  0  0  0  0  0  0  0  0  0
   -1.9803   -2.8096    1.6434 O   0  0  0  0  0  0  0  0  0  0  0  0
   -2.5332   -1.4966   -0.0966 N   0  0  0  0  0  0  0  0  0  0  0  0
   -3.2312   -1.2816   -0.7936 H   0  0  0  0  0  0  0  0  0  0  0  0
   -1.3593   -0.6196   -0.0536 C   0  0  1  0  0  0  0  0  0  0  0  0
   -0.4622   -1.2317   -0.1545 H   0  0  0  0  0  0  0  0  0  0  0  0
   -1.4074    0.3593   -1.2373 C   0  0  0  0  0  0  0  0  0  0  0  0
   -0.6982    0.0270   -1.9975 H   0  0  0  0  0  0  0  0  0  0  0  0
   -2.4051    0.3227   -1.6779 H   0  0  0  0  0  0  0  0  0  0  0  0
   -1.0897    1.7843   -0.8986 C   0  0  0  0  0  0  0  0  0  0  0  0
   -0.0661    2.1979   -0.1184 C   0  0  0  0  0  0  0  0  0  0  0  0
    0.6405    1.5384    0.3737 H   0  0  0  0  0  0  0  0  0  0  0  0
   -0.0513    3.5779   -0.0650 N   0  0  0  0  0  0  0  0  0  0  0  0
    0.6258    4.1076    0.4643 H   0  0  0  0  0  0  0  0  0  0  0  0
   -1.0612    4.1261   -0.8267 C   0  0  0  0  0  0  0  0  0  0  0  0
   -1.4377    5.4466   -1.1113 C   0  0  0  0  0  0  0  0  0  0  0  0
   -0.8882    6.2754   -0.6898 H   0  0  0  0  0  0  0  0  0  0  0  0
   -2.5410    5.6762   -1.9511 C   0  0  0  0  0  0  0  0  0  0  0  0
   -2.8466    6.6879   -2.1809 H   0  0  0  0  0  0  0  0  0  0  0  0
   -3.2521    4.5872   -2.4875 C   0  0  0  0  0  0  0  0  0  0  0  0
   -4.1054    4.7684   -3.1264 H   0  0  0  0  0  0  0  0  0  0  0  0
   -2.8659    3.2641   -2.1931 C   0  0  0  0  0  0  0  0  0  0  0  0
   -3.4290    2.4368   -2.6010 H   0  0  0  0  0  0  0  0  0  0  0  0
   -1.7586    3.0002   -1.3581 C   0  0  0  0  0  0  0  0  0  0  0  0
   -1.2663    0.1182    1.2910 C   0  0  0  0  0  0  0  0  0  0  0  0
   -0.1906    0.1931    1.8833 O   0  0  0  0  0  0  0  0  0  0  0  0
   -2.3930    0.6605    1.7722 N   0  0  0  0  0  0  0  0  0  0  0  0
   -3.2451    0.5077    1.2518 H   0  0  0  0  0  0  0  0  0  0  0  0
   -2.4787    1.3954    3.0311 C   0  0  0  0  0  0  0  0  0  0  0  0
   -1.7166    2.1767    3.0539 H   0  0  0  0  0  0  0  0  0  0  0  0
   -3.4649    1.8498    3.1344 H   0  0  0  0  0  0  0  0  0  0  0  0
   -2.3058    0.7133    3.8652 H   0  0  0  0  0  0  0  0  0  0  0  0
  5  6  2  0  0  0  0
  5  7  1  0  0  0  0
  2  3  1  0  0  0  0
  2  4  1  0  0  0  0
  2  5  1  0  0  0  0
  1  2  1  0  0  0  0
 29 30  2  0  0  0  0
 29 31  1  0  0  0  0
 26 27  1  0  0  0  0
 26 28  2  0  0  0  0
 24 25  1  0  0  0  0
 24 26  1  0  0  0  0
 22 23  1  0  0  0  0
 22 24  2  0  0  0  0
 20 21  1  0  0  0  0
 20 22  1  0  0  0  0
 19 20  2  0  0  0  0
 19 28  1  0  0  0  0
 17 18  1  0  0  0  0
 17 19  1  0  0  0  0
 15 16  1  0  0  0  0
 15 17  1  0  0  0  0
 14 15  2  0  0  0  0
 14 28  1  0  0  0  0
 11 12  1  0  0  0  0
 11 13  1  0  0  0  0
 11 14  1  0  0  0  0
  9 10  1  0  0  0  0
  9 11  1  0  0  0  0
  9 29  1  0  0  0  0
  7  8  1  0  0  0  0
  7  9  1  0  0  0  0
 33 34  1  0  0  0  0
 33 35  1  0  0  0  0
 33 36  1  0  0  0  0
 31 32  1  0  0  0  0
 31 33  1  0  0  0  0
M  END
$$$$
default_name
  -OEChem-02102213163D

 36 37  0     1  0  0  0  0  0999 V2000
   -4.0843   -4.0736    1.2944 H   0  0  0  0  0  0  0  0  0  0  0  0
   -4.0342   -3.2816    0.5484 C   0  0  0  0  0  0  0  0  0  0  0  0
   -4.8842   -2.6126    0.6694 H   0  0  0  0  0  0  0  0  0  0  0  0
   -4.0433   -3.7186   -0.4486 H   0  0  0  0  0  0  0  0  0  0  0  0
   -2.7532   -2.5046    0.7444 C   0  0  0  0  0  0  0  0  0  0  0  0
   -1.9803   -2.8096    1.6434 O   0  0  0  0  0  0  0  0  0  0  0  0
   -2.5332   -1.4966   -0.0966 N   0  0  0  0  0  0  0  0  0  0  0  0
   -3.2312   -1.2816   -0.7936 H   0  0  0  0  0  0  0  0  0  0  0  0
   -1.3593   -0.6196   -0.0536 C   0  0  1  0  0  0  0  0  0  0  0  0
   -0.4622   -1.2317   -0.1545 H   0  0  0  0  0  0  0  0  0  0  0  0
   -1.4074    0.3593   -1.2373 C   0  0  0  0  0  0  0  0  0  0  0  0
   -0.6982    0.0270   -1.9975 H   0  0  0  0  0  0  0  0  0  0  0  0
   -2.4051    0.3227   -1.6779 H   0  0  0  0  0  0  0  0  0  0  0  0
   -1.0897    1.7843   -0.8986 C   0  0  0  0  0  0  0  0  0  0  0  0
    0.0725    2.2263   -0.3681 C   0  0  0  0  0  0  0  0  0  0  0  0
    0.9120    1.5918   -0.1057 H   0  0  0  0  0  0  0  0  0  0  0  0
    0.0288    3.6003   -0.2343 N   0  0  0  0  0  0  0  0  0  0  0  0
    0.7876    4.1473    0.1454 H   0  0  0  0  0  0  0  0  0  0  0  0
   -1.1652    4.1169   -0.6904 C   0  0  0  0  0  0  0  0  0  0  0  0
   -1.6681    5.4220   -0.7917 C   0  0  0  0  0  0  0  0  0  0  0  0
   -1.0749    6.2640   -0.4666 H   0  0  0  0  0  0  0  0  0  0  0  0
   -2.9554    5.6186   -1.3203 C   0  0  0  0  0  0  0  0  0  0  0  0
   -3.3602    6.6180   -1.4050 H   0  0  0  0  0  0  0  0  0  0  0  0
   -3.7200    4.5122   -1.7333 C   0  0  0  0  0  0  0  0  0  0  0  0
   -4.7131    4.6674   -2.1316 H   0  0  0  0  0  0  0  0  0  0  0  0
   -3.2052    3.2048   -1.6250 C   0  0  0  0  0  0  0  0  0  0  0  0
   -3.8083    2.3627   -1.9335 H   0  0  0  0  0  0  0  0  0  0  0  0
   -1.9135    2.9743   -1.1041 C   0  0  0  0  0  0  0  0  0  0  0  0
   -1.2663    0.1182    1.2910 C   0  0  0  0  0  0  0  0  0  0  0  0
   -0.1906    0.1931    1.8833 O   0  0  0  0  0  0  0  0  0  0  0  0
   -2.3930    0.6605    1.7722 N   0  0  0  0  0  0  0  0  0  0  0  0
   -3.2451    0.5077    1.2518 H   0  0  0  0  0  0  0  0  0  0  0  0
   -2.4787    1.3954    3.0311 C   0  0  0  0  0  0  0  0  0  0  0  0
   -1.7166    2.1767    3.0539 H   0  0  0  0  0  0  0  0  0  0  0  0
   -3.4649    1.8498    3.1344 H   0  0  0  0  0  0  0  0  0  0  0  0
   -2.3058    0.7133    3.8652 H   0  0  0  0  0  0  0  0  0  0  0  0
  5  6  2  0  0  0  0
  5  7  1  0  0  0  0
  2  3  1  0  0  0  0
  2  4  1  0  0  0  0
  2  5  1  0  0  0  0
  1  2  1  0  0  0  0
 29 30  2  0  0  0  0
 29 31  1  0  0  0  0
 26 27  1  0  0  0  0
 26 28  2  0  0  0  0
 24 25  1  0  0  0  0
 24 26  1  0  0  0  0
 22 23  1  0  0  0  0
 22 24  2  0  0  0  0
 20 21  1  0  0  0  0
 20 22  1  0  0  0  0
 19 20  2  0  0  0  0
 19 28  1  0  0  0  0
 17 18  1  0  0  0  0
 17 19  1  0  0  0  0
 15 16  1  0  0  0  0
 15 17  1  0  0  0  0
 14 15  2  0  0  0  0
 14 28  1  0  0  0  0
 11 12  1  0  0  0  0
 11 13  1  0  0  0  0
 11 14  1  0  0  0  0
  9 10  1  0  0  0  0
  9 11  1  0  0  0  0
  9 29  1  0  0  0  0
  7  8  1  0  0  0  0
  7  9  1  0  0  0  0
 33 34  1  0  0  0  0
 33 35  1  0  0  0  0
 33 36  1  0  0  0  0
 31 32  1  0  0  0  0
 31 33  1  0  0  0  0
M  END
$$$$
default_name
  -OEChem-02102213163D

 36 37  0     1  0  0  0  0  0999 V2000
   -4.0843   -4.0736    1.2944 H   0  0  0  0  0  0  0  0  0  0  0  0
   -4.0342   -3.2816    0.5484 C   0  0  0  0  0  0  0  0  0  0  0  0
   -4.8842   -2.6126    0.6694 H   0  0  0  0  0  0  0  0  0  0  0  0
   -4.0433   -3.7186   -0.4486 H   0  0  0  0  0  0  0  0  0  0  0  0
   -2.7532   -2.5046    0.7444 C   0  0  0  0  0  0  0  0  0  0  0  0
   -1.9803   -2.8096    1.6434 O   0  0  0  0  0  0  0  0  0  0  0  0
   -2.5332   -1.4966   -0.0966 N   0  0  0  0  0  0  0  0  0  0  0  0
   -3.2312   -1.2816   -0.7936 H   0  0  0  0  0  0  0  0  0  0  0  0
   -1.3593   -0.6196   -0.0536 C   0  0  1  0  0  0  0  0  0  0  0  0
   -0.4622   -1.2317   -0.1545 H   0  0  0  0  0  0  0  0  0  0  0  0
   -1.4074    0.3593   -1.2373 C   0  0  0  0  0  0  0  0  0  0  0  0
   -0.6982    0.0270   -1.9975 H   0  0  0  0  0  0  0  0  0  0  0  0
   -2.4051    0.3227   -1.6779 H   0  0  0  0  0  0  0  0  0  0  0  0
   -1.0897    1.7843   -0.8986 C   0  0  0  0  0  0  0  0  0  0  0  0
    0.1433    2.2756   -0.6419 C   0  0  0  0  0  0  0  0  0  0  0  0
    1.0532    1.6856   -0.6326 H   0  0  0  0  0  0  0  0  0  0  0  0
    0.0632    3.6358   -0.4163 N   0  0  0  0  0  0  0  0  0  0  0  0
    0.8631    4.2127   -0.2004 H   0  0  0  0  0  0  0  0  0  0  0  0
   -1.2316    4.0945   -0.5336 C   0  0  0  0  0  0  0  0  0  0  0  0
   -1.8106    5.3672   -0.4275 C   0  0  0  0  0  0  0  0  0  0  0  0
   -1.1996    6.2298   -0.2056 H   0  0  0  0  0  0  0  0  0  0  0  0
   -3.1970    5.5042   -0.6121 C   0  0  0  0  0  0  0  0  0  0  0  0
   -3.6613    6.4779   -0.5331 H   0  0  0  0  0  0  0  0  0  0  0  0
   -3.9820    4.3711   -0.8937 C   0  0  0  0  0  0  0  0  0  0  0  0
   -5.0495    4.4798   -1.0267 H   0  0  0  0  0  0  0  0  0  0  0  0
   -3.3896    3.0964   -0.9960 C   0  0  0  0  0  0  0  0  0  0  0  0
   -4.0061    2.2323   -1.1995 H   0  0  0  0  0  0  0  0  0  0  0  0
   -1.9990    2.9264   -0.8221 C   0  0  0  0  0  0  0  0  0  0  0  0
   -1.2663    0.1182    1.2910 C   0  0  0  0  0  0  0  0  0  0  0  0
   -0.1906    0.1931    1.8833 O   0  0  0  0  0  0  0  0  0  0  0  0
   -2.3930    0.6605    1.7722 N   0  0  0  0  0  0  0  0  0  0  0  0
   -3.2451    0.5077    1.2518 H   0  0  0  0  0  0  0  0  0  0  0  0
   -2.4787    1.3954    3.0311 C   0  0  0  0  0  0  0  0  0  0  0  0
   -1.7166    2.1767    3.0539 H   0  0  0  0  0  0  0  0  0  0  0  0
   -3.4649    1.8498    3.1344 H   0  0  0  0  0  0  0  0  0  0  0  0
   -2.3058    0.7133    3.8652 H   0  0  0  0  0  0  0  0  0  0  0  0
  5  6  2  0  0  0  0
  5  7  1  0  0  0  0
  2  3  1  0  0  0  0
  2  4  1  0  0  0  0
  2  5  1  0  0  0  0
  1  2  1  0  0  0  0
 29 30  2  0  0  0  0
 29 31  1  0  0  0  0
 26 27  1  0  0  0  0
 26 28  2  0  0  0  0
 24 25  1  0  0  0  0
 24 26  1  0  0  0  0
 22 23  1  0  0  0  0
 22 24  2  0  0  0  0
 20 21  1  0  0  0  0
 20 22  1  0  0  0  0
 19 20  2  0  0  0  0
 19 28  1  0  0  0  0
 17 18  1  0  0  0  0
 17 19  1  0  0  0  0
 15 16  1  0  0  0  0
 15 17  1  0  0  0  0
 14 15  2  0  0  0  0
 14 28  1  0  0  0  0
 11 12  1  0  0  0  0
 11 13  1  0  0  0  0
 11 14  1  0  0  0  0
  9 10  1  0  0  0  0
  9 11  1  0  0  0  0
  9 29  1  0  0  0  0
  7  8  1  0  0  0  0
  7  9  1  0  0  0  0
 33 34  1  0  0  0  0
 33 35  1  0  0  0  0
 33 36  1  0  0  0  0
 31 32  1  0  0  0  0
 31 33  1  0  0  0  0
M  END
$$$$
default_name
  -OEChem-02102213163D

 36 37  0     1  0  0  0  0  0999 V2000
   -4.0843   -4.0736    1.2944 H   0  0  0  0  0  0  0  0  0  0  0  0
   -4.0342   -3.2816    0.5484 C   0  0  0  0  0  0  0  0  0  0  0  0
   -4.8842   -2.6126    0.6694 H   0  0  0  0  0  0  0  0  0  0  0  0
   -4.0433   -3.7186   -0.4486 H   0  0  0  0  0  0  0  0  0  0  0  0
   -2.7532   -2.5046    0.7444 C   0  0  0  0  0  0  0  0  0  0  0  0
   -1.9803   -2.8096    1.6434 O   0  0  0  0  0  0  0  0  0  0  0  0
   -2.5332   -1.4966   -0.0966 N   0  0  0  0  0  0  0  0  0  0  0  0
   -3.2312   -1.2816   -0.7936 H   0  0  0  0  0  0  0  0  0  0  0  0
   -1.3593   -0.6196   -0.0536 C   0  0  1  0  0  0  0  0  0  0  0  0
   -0.4622   -1.2317   -0.1545 H   0  0  0  0  0  0  0  0  0  0  0  0
   -1.4074    0.3593   -1.2373 C   0  0  0  0  0  0  0  0  0  0  0  0
   -0.6982    0.0270   -1.9975 H   0  0  0  0  0  0  0  0  0  0  0  0
   -2.4051    0.3227   -1.6779 H   0  0  0  0  0  0  0  0  0  0  0  0
   -1.0897    1.7843   -0.8986 C   0  0  0  0  0  0  0  0  0  0  0  0
    0.1414    2.3424   -0.9210 C   0  0  0  0  0  0  0  0  0  0  0  0
    1.0545    1.8134   -1.1712 H   0  0  0  0  0  0  0  0  0  0  0  0
    0.0496    3.6822   -0.5985 N   0  0  0  0  0  0  0  0  0  0  0  0
    0.8472    4.2992   -0.5493 H   0  0  0  0  0  0  0  0  0  0  0  0
   -1.2559    4.0603   -0.3671 C   0  0  0  0  0  0  0  0  0  0  0  0
   -1.8554    5.2860   -0.0437 C   0  0  0  0  0  0  0  0  0  0  0  0
   -1.2539    6.1751    0.0753 H   0  0  0  0  0  0  0  0  0  0  0  0
   -3.2495    5.3407    0.1250 C   0  0  0  0  0  0  0  0  0  0  0  0
   -3.7294    6.2771    0.3756 H   0  0  0  0  0  0  0  0  0  0  0  0
   -4.0202    4.1733   -0.0259 C   0  0  0  0  0  0  0  0  0  0  0  0
   -5.0915    4.2182    0.1130 H   0  0  0  0  0  0  0  0  0  0  0  0
   -3.4066    2.9464   -0.3491 C   0  0  0  0  0  0  0  0  0  0  0  0
   -4.0088    2.0545   -0.4490 H   0  0  0  0  0  0  0  0  0  0  0  0
   -2.0094    2.8596   -0.5313 C   0  0  0  0  0  0  0  0  0  0  0  0
   -1.2663    0.1182    1.2910 C   0  0  0  0  0  0  0  0  0  0  0  0
   -0.1906    0.1931    1.8833 O   0  0  0  0  0  0  0  0  0  0  0  0
   -2.3930    0.6605    1.7722 N   0  0  0  0  0  0  0  0  0  0  0  0
   -3.2451    0.5077    1.2518 H   0  0  0  0  0  0  0  0  0  0  0  0
   -2.4787    1.3954    3.0311 C   0  0  0  0  0  0  0  0  0  0  0  0
   -1.7166    2.1767    3.0539 H   0  0  0  0  0  0  0  0  0  0  0  0
   -3.4649    1.8498    3.1344 H   0  0  0  0  0  0  0  0  0  0  0  0
   -2.3058    0.7133    3.8652 H   0  0  0  0  0  0  0  0  0  0  0  0
  5  6  2  0  0  0  0
  5  7  1  0  0  0  0
  2  3  1  0  0  0  0
  2  4  1  0  0  0  0
  2  5  1  0  0  0  0
  1  2  1  0  0  0  0
 29 30  2  0  0  0  0
 29 31  1  0  0  0  0
 26 27  1  0  0  0  0
 26 28  2  0  0  0  0
 24 25  1  0  0  0  0
 24 26  1  0  0  0  0
 22 23  1  0  0  0  0
 22 24  2  0  0  0  0
 20 21  1  0  0  0  0
 20 22  1  0  0  0  0
 19 20  2  0  0  0  0
 19 28  1  0  0  0  0
 17 18  1  0  0  0  0
 17 19  1  0  0  0  0
 15 16  1  0  0  0  0
 15 17  1  0  0  0  0
 14 15  2  0  0  0  0
 14 28  1  0  0  0  0
 11 12  1  0  0  0  0
 11 13  1  0  0  0  0
 11 14  1  0  0  0  0
  9 10  1  0  0  0  0
  9 11  1  0  0  0  0
  9 29  1  0  0  0  0
  7  8  1  0  0  0  0
  7  9  1  0  0  0  0
 33 34  1  0  0  0  0
 33 35  1  0  0  0  0
 33 36  1  0  0  0  0
 31 32  1  0  0  0  0
 31 33  1  0  0  0  0
M  END
$$$$
default_name
  -OEChem-02102213163D

 36 37  0     1  0  0  0  0  0999 V2000
   -4.0843   -4.0736    1.2944 H   0  0  0  0  0  0  0  0  0  0  0  0
   -4.0342   -3.2816    0.5484 C   0  0  0  0  0  0  0  0  0  0  0  0
   -4.8842   -2.6126    0.6694 H   0  0  0  0  0  0  0  0  0  0  0  0
   -4.0433   -3.7186   -0.4486 H   0  0  0  0  0  0  0  0  0  0  0  0
   -2.7532   -2.5046    0.7444 C   0  0  0  0  0  0  0  0  0  0  0  0
   -1.9803   -2.8096    1.6434 O   0  0  0  0  0  0  0  0  0  0  0  0
   -2.5332   -1.4966   -0.0966 N   0  0  0  0  0  0  0  0  0  0  0  0
   -3.2312   -1.2816   -0.7936 H   0  0  0  0  0  0  0  0  0  0  0  0
   -1.3593   -0.6196   -0.0536 C   0  0  1  0  0  0  0  0  0  0  0  0
   -0.4622   -1.2317   -0.1545 H   0  0  0  0  0  0  0  0  0  0  0  0
   -1.4074    0.3593   -1.2373 C   0  0  0  0  0  0  0  0  0  0  0  0
   -0.6982    0.0270   -1.9975 H   0  0  0  0  0  0  0  0  0  0  0  0
   -2.4051    0.3227   -1.6779 H   0  0  0  0  0  0  0  0  0  0  0  0
   -1.0897    1.7843   -0.8986 C   0  0  0  0  0  0  0  0  0  0  0  0
    0.0670    2.4221   -1.1865 C   0  0  0  0  0  0  0  0  0  0  0  0
    0.9157    1.9664   -1.6847 H   0  0  0  0  0  0  0  0  0  0  0  0
   -0.0111    3.7362   -0.7687 N   0  0  0  0  0  0  0  0  0  0  0  0
    0.7408    4.4009   -0.8777 H   0  0  0  0  0  0  0  0  0  0  0  0
   -1.2363    4.0167   -0.2021 C   0  0  0  0  0  0  0  0  0  0  0  0
   -1.7995    5.1838    0.3336 C   0  0  0  0  0  0  0  0  0  0  0  0
   -1.2340    6.1037    0.3569 H   0  0  0  0  0  0  0  0  0  0  0  0
   -3.1093    5.1392    0.8411 C   0  0  0  0  0  0  0  0  0  0  0  0
   -3.5598    6.0293    1.2591 H   0  0  0  0  0  0  0  0  0  0  0  0
   -3.8320    3.9325    0.8108 C   0  0  0  0  0  0  0  0  0  0  0  0
   -4.8363    3.9006    1.2099 H   0  0  0  0  0  0  0  0  0  0  0  0
   -3.2551    2.7650    0.2718 C   0  0  0  0  0  0  0  0  0  0  0  0
   -3.8164    1.8415    0.2668 H   0  0  0  0  0  0  0  0  0  0  0  0
   -1.9440    2.7785   -0.2515 C   0  0  0  0  0  0  0  0  0  0  0  0
   -1.2663    0.1182    1.2910 C   0  0  0  0  0  0  0  0  0  0  0  0
   -0.1906    0.1931    1.8833 O   0  0  0  0  0  0  0  0  0  0  0  0
   -2.3930    0.6605    1.7722 N   0  0  0  0  0  0  0  0  0  0  0  0
   -3.2451    0.5077    1.2518 H   0  0  0  0  0  0  0  0  0  0  0  0
   -2.4787    1.3954    3.0311 C   0  0  0  0  0  0  0  0  0  0  0  0
   -1.7166    2.1767    3.0539 H   0  0  0  0  0  0  0  0  0  0  0  0
   -3.4649    1.8498    3.1344 H   0  0  0  0  0  0  0  0  0  0  0  0
   -2.3058    0.7133    3.8652 H   0  0  0  0  0  0  0  0  0  0  0  0
  5  6  2  0  0  0  0
  5  7  1  0  0  0  0
  2  3  1  0  0  0  0
  2  4  1  0  0  0  0
  2  5  1  0  0  0  0
  1  2  1  0  0  0  0
 29 30  2  0  0  0  0
 29 31  1  0  0  0  0
 26 27  1  0  0  0  0
 26 28  2  0  0  0  0
 24 25  1  0  0  0  0
 24 26  1  0  0  0  0
 22 23  1  0  0  0  0
 22 24  2  0  0  0  0
 20 21  1  0  0  0  0
 20 22  1  0  0  0  0
 19 20  2  0  0  0  0
 19 28  1  0  0  0  0
 17 18  1  0  0  0  0
 17 19  1  0  0  0  0
 15 16  1  0  0  0  0
 15 17  1  0  0  0  0
 14 15  2  0  0  0  0
 14 28  1  0  0  0  0
 11 12  1  0  0  0  0
 11 13  1  0  0  0  0
 11 14  1  0  0  0  0
  9 10  1  0  0  0  0
  9 11  1  0  0  0  0
  9 29  1  0  0  0  0
  7  8  1  0  0  0  0
  7  9  1  0  0  0  0
 33 34  1  0  0  0  0
 33 35  1  0  0  0  0
 33 36  1  0  0  0  0
 31 32  1  0  0  0  0
 31 33  1  0  0  0  0
M  END
$$$$
default_name
  -OEChem-02102213163D

 36 37  0     1  0  0  0  0  0999 V2000
   -4.0843   -4.0736    1.2944 H   0  0  0  0  0  0  0  0  0  0  0  0
   -4.0342   -3.2816    0.5484 C   0  0  0  0  0  0  0  0  0  0  0  0
   -4.8842   -2.6126    0.6694 H   0  0  0  0  0  0  0  0  0  0  0  0
   -4.0433   -3.7186   -0.4486 H   0  0  0  0  0  0  0  0  0  0  0  0
   -2.7532   -2.5046    0.7444 C   0  0  0  0  0  0  0  0  0  0  0  0
   -1.9803   -2.8096    1.6434 O   0  0  0  0  0  0  0  0  0  0  0  0
   -2.5332   -1.4966   -0.0966 N   0  0  0  0  0  0  0  0  0  0  0  0
   -3.2312   -1.2816   -0.7936 H   0  0  0  0  0  0  0  0  0  0  0  0
   -1.3593   -0.6196   -0.0536 C   0  0  1  0  0  0  0  0  0  0  0  0
   -0.4622   -1.2317   -0.1545 H   0  0  0  0  0  0  0  0  0  0  0  0
   -1.4074    0.3593   -1.2373 C   0  0  0  0  0  0  0  0  0  0  0  0
   -0.6982    0.0270   -1.9975 H   0  0  0  0  0  0  0  0  0  0  0  0
   -2.4051    0.3227   -1.6779 H   0  0  0  0  0  0  0  0  0  0  0  0
   -1.0897    1.7843   -0.8986 C   0  0  0  0  0  0  0  0  0  0  0  0
   -0.0749    2.5093   -1.4203 C   0  0  0  0  0  0  0  0  0  0  0  0
    0.6463    2.1342   -2.1382 H   0  0  0  0  0  0  0  0  0  0  0  0
   -0.1148    3.7941   -0.9152 N   0  0  0  0  0  0  0  0  0  0  0  0
    0.5514    4.5110   -1.1631 H   0  0  0  0  0  0  0  0  0  0  0  0
   -1.1742    3.9667   -0.0500 C   0  0  0  0  0  0  0  0  0  0  0  0
   -1.6467    5.0677    0.6786 C   0  0  0  0  0  0  0  0  0  0  0  0
   -1.1412    6.0205    0.6202 H   0  0  0  0  0  0  0  0  0  0  0  0
   -2.7858    4.9135    1.4871 C   0  0  0  0  0  0  0  0  0  0  0  0
   -3.1640    5.7514    2.0571 H   0  0  0  0  0  0  0  0  0  0  0  0
   -3.4302    3.6650    1.5594 C   0  0  0  0  0  0  0  0  0  0  0  0
   -4.3014    3.5486    2.1892 H   0  0  0  0  0  0  0  0  0  0  0  0
   -2.9453    2.5647    0.8243 C   0  0  0  0  0  0  0  0  0  0  0  0
   -3.4419    1.6077    0.8992 H   0  0  0  0  0  0  0  0  0  0  0  0
   -1.8072    2.6886   -0.0017 C   0  0  0  0  0  0  0  0  0  0  0  0
   -1.2663    0.1182    1.2910 C   0  0  0  0  0  0  0  0  0  0  0  0
   -0.1906    0.1931    1.8833 O   0  0  0  0  0  0  0  0  0  0  0  0
   -2.3930    0.6605    1.7722 N   0  0  0  0  0  0  0  0  0  0  0  0
   -3.2451    0.5077    1.2518 H   0  0  0  0  0  0  0  0  0  0  0  0
   -2.4787    1.3954    3.0311 C   0  0  0  0  0  0  0  0  0  0  0  0
   -1.7166    2.1767    3.0539 H   0  0  0  0  0  0  0  0  0  0  0  0
   -3.4649    1.8498    3.1344 H   0  0  0  0  0  0  0  0  0  0  0  0
   -2.3058    0.7133    3.8652 H   0  0  0  0  0  0  0  0  0  0  0  0
  5  6  2  0  0  0  0
  5  7  1  0  0  0  0
  2  3  1  0  0  0  0
  2  4  1  0  0  0  0
  2  5  1  0  0  0  0
  1  2  1  0  0  0  0
 29 30  2  0  0  0  0
 29 31  1  0  0  0  0
 26 27  1  0  0  0  0
 26 28  2  0  0  0  0
 24 25  1  0  0  0  0
 24 26  1  0  0  0  0
 22 23  1  0  0  0  0
 22 24  2  0  0  0  0
 20 21  1  0  0  0  0
 20 22  1  0  0  0  0
 19 20  2  0  0  0  0
 19 28  1  0  0  0  0
 17 18  1  0  0  0  0
 17 19  1  0  0  0  0
 15 16  1  0  0  0  0
 15 17  1  0  0  0  0
 14 15  2  0  0  0  0
 14 28  1  0  0  0  0
 11 12  1  0  0  0  0
 11 13  1  0  0  0  0
 11 14  1  0  0  0  0
  9 10  1  0  0  0  0
  9 11  1  0  0  0  0
  9 29  1  0  0  0  0
  7  8  1  0  0  0  0
  7  9  1  0  0  0  0
 33 34  1  0  0  0  0
 33 35  1  0  0  0  0
 33 36  1  0  0  0  0
 31 32  1  0  0  0  0
 31 33  1  0  0  0  0
M  END
$$$$
default_name
  -OEChem-02102213163D

 36 37  0     1  0  0  0  0  0999 V2000
   -4.0843   -4.0736    1.2944 H   0  0  0  0  0  0  0  0  0  0  0  0
   -4.0342   -3.2816    0.5484 C   0  0  0  0  0  0  0  0  0  0  0  0
   -4.8842   -2.6126    0.6694 H   0  0  0  0  0  0  0  0  0  0  0  0
   -4.0433   -3.7186   -0.4486 H   0  0  0  0  0  0  0  0  0  0  0  0
   -2.7532   -2.5046    0.7444 C   0  0  0  0  0  0  0  0  0  0  0  0
   -1.9803   -2.8096    1.6434 O   0  0  0  0  0  0  0  0  0  0  0  0
   -2.5332   -1.4966   -0.0966 N   0  0  0  0  0  0  0  0  0  0  0  0
   -3.2312   -1.2816   -0.7936 H   0  0  0  0  0  0  0  0  0  0  0  0
   -1.3593   -0.6196   -0.0536 C   0  0  1  0  0  0  0  0  0  0  0  0
   -0.4622   -1.2317   -0.1545 H   0  0  0  0  0  0  0  0  0  0  0  0
   -1.4074    0.3593   -1.2373 C   0  0  0  0  0  0  0  0  0  0  0  0
   -0.6982    0.0270   -1.9975 H   0  0  0  0  0  0  0  0  0  0  0  0
   -2.4051    0.3227   -1.6779 H   0  0  0  0  0  0  0  0  0  0  0  0
   -1.0897    1.7843   -0.8986 C   0  0  0  0  0  0  0  0  0  0  0  0
   -0.2746    2.5981   -1.6064 C   0  0  0  0  0  0  0  0  0  0  0  0
    0.2647    2.3054   -2.5007 H   0  0  0  0  0  0  0  0  0  0  0  0
   -0.2544    3.8521   -1.0280 N   0  0  0  0  0  0  0  0  0  0  0  0
    0.2917    4.6219   -1.3862 H   0  0  0  0  0  0  0  0  0  0  0  0
   -1.0739    3.9137    0.0789 C   0  0  0  0  0  0  0  0  0  0  0  0
   -1.4074    4.9456    0.9679 C   0  0  0  0  0  0  0  0  0  0  0  0
   -0.9820    5.9311    0.8471 H   0  0  0  0  0  0  0  0  0  0  0  0
   -2.3012    4.6790    2.0192 C   0  0  0  0  0  0  0  0  0  0  0  0
   -2.5692    5.4623    2.7152 H   0  0  0  0  0  0  0  0  0  0  0  0
   -2.8422    3.3890    2.1690 C   0  0  0  0  0  0  0  0  0  0  0  0
   -3.5231    3.1861    2.9841 H   0  0  0  0  0  0  0  0  0  0  0  0
   -2.4985    2.3589    1.2707 C   0  0  0  0  0  0  0  0  0  0  0  0
   -2.9109    1.3691    1.4051 H   0  0  0  0  0  0  0  0  0  0  0  0
   -1.6084    2.5961    0.2009 C   0  0  0  0  0  0  0  0  0  0  0  0
   -1.2663    0.1182    1.2910 C   0  0  0  0  0  0  0  0  0  0  0  0
   -0.1906    0.1931    1.8833 O   0  0  0  0  0  0  0  0  0  0  0  0
   -2.3930    0.6605    1.7722 N   0  0  0  0  0  0  0  0  0  0  0  0
   -3.2451    0.5077    1.2518 H   0  0  0  0  0  0  0  0  0  0  0  0
   -2.4787    1.3954    3.0311 C   0  0  0  0  0  0  0  0  0  0  0  0
   -1.7166    2.1767    3.0539 H   0  0  0  0  0  0  0  0  0  0  0  0
   -3.4649    1.8498    3.1344 H   0  0  0  0  0  0  0  0  0  0  0  0
   -2.3058    0.7133    3.8652 H   0  0  0  0  0  0  0  0  0  0  0  0
  5  6  2  0  0  0  0
  5  7  1  0  0  0  0
  2  3  1  0  0  0  0
  2  4  1  0  0  0  0
  2  5  1  0  0  0  0
  1  2  1  0  0  0  0
 29 30  2  0  0  0  0
 29 31  1  0  0  0  0
 26 27  1  0  0  0  0
 26 28  2  0  0  0  0
 24 25  1  0  0  0  0
 24 26  1  0  0  0  0
 22 23  1  0  0  0  0
 22 24  2  0  0  0  0
 20 21  1  0  0  0  0
 20 22  1  0  0  0  0
 19 20  2  0  0  0  0
 19 28  1  0  0  0  0
 17 18  1  0  0  0  0
 17 19  1  0  0  0  0
 15 16  1  0  0  0  0
 15 17  1  0  0  0  0
 14 15  2  0  0  0  0
 14 28  1  0  0  0  0
 11 12  1  0  0  0  0
 11 13  1  0  0  0  0
 11 14  1  0  0  0  0
  9 10  1  0  0  0  0
  9 11  1  0  0  0  0
  9 29  1  0  0  0  0
  7  8  1  0  0  0  0
  7  9  1  0  0  0  0
 33 34  1  0  0  0  0
 33 35  1  0  0  0  0
 33 36  1  0  0  0  0
 31 32  1  0  0  0  0
 31 33  1  0  0  0  0
M  END
$$$$
default_name
  -OEChem-02102213163D

 36 37  0     1  0  0  0  0  0999 V2000
   -4.0843   -4.0736    1.2944 H   0  0  0  0  0  0  0  0  0  0  0  0
   -4.0342   -3.2816    0.5484 C   0  0  0  0  0  0  0  0  0  0  0  0
   -4.8842   -2.6126    0.6694 H   0  0  0  0  0  0  0  0  0  0  0  0
   -4.0433   -3.7186   -0.4486 H   0  0  0  0  0  0  0  0  0  0  0  0
   -2.7532   -2.5046    0.7444 C   0  0  0  0  0  0  0  0  0  0  0  0
   -1.9803   -2.8096    1.6434 O   0  0  0  0  0  0  0  0  0  0  0  0
   -2.5332   -1.4966   -0.0966 N   0  0  0  0  0  0  0  0  0  0  0  0
   -3.2312   -1.2816   -0.7936 H   0  0  0  0  0  0  0  0  0  0  0  0
   -1.3593   -0.6196   -0.0536 C   0  0  1  0  0  0  0  0  0  0  0  0
   -0.4622   -1.2317   -0.1545 H   0  0  0  0  0  0  0  0  0  0  0  0
   -1.4074    0.3593   -1.2373 C   0  0  0  0  0  0  0  0  0  0  0  0
   -0.6982    0.0270   -1.9975 H   0  0  0  0  0  0  0  0  0  0  0  0
   -2.4051    0.3227   -1.6779 H   0  0  0  0  0  0  0  0  0  0  0  0
   -1.0897    1.7843   -0.8986 C   0  0  0  0  0  0  0  0  0  0  0  0
   -0.5185    2.6823   -1.7322 C   0  0  0  0  0  0  0  0  0  0  0  0
   -0.2032    2.4684   -2.7476 H   0  0  0  0  0  0  0  0  0  0  0  0
   -0.4204    3.9060   -1.0994 N   0  0  0  0  0  0  0  0  0  0  0  0
   -0.0206    4.7261   -1.5316 H   0  0  0  0  0  0  0  0  0  0  0  0
   -0.9422    3.8613    0.1759 C   0  0  0  0  0  0  0  0  0  0  0  0
   -1.0979    4.8258    1.1818 C   0  0  0  0  0  0  0  0  0  0  0  0
   -0.7672    5.8415    1.0222 H   0  0  0  0  0  0  0  0  0  0  0  0
   -1.6884    4.4517    2.4010 C   0  0  0  0  0  0  0  0  0  0  0  0
   -1.8157    5.1818    3.1888 H   0  0  0  0  0  0  0  0  0  0  0  0
   -2.1082    3.1234    2.5980 C   0  0  0  0  0  0  0  0  0  0  0  0
   -2.5544    2.8379    3.5406 H   0  0  0  0  0  0  0  0  0  0  0  0
   -1.9449    2.1618    1.5806 C   0  0  0  0  0  0  0  0  0  0  0  0
   -2.2596    1.1419    1.7500 H   0  0  0  0  0  0  0  0  0  0  0  0
   -1.3610    2.5073    0.3426 C   0  0  0  0  0  0  0  0  0  0  0  0
   -1.2663    0.1182    1.2910 C   0  0  0  0  0  0  0  0  0  0  0  0
   -0.1906    0.1931    1.8833 O   0  0  0  0  0  0  0  0  0  0  0  0
   -2.3930    0.6605    1.7722 N   0  0  0  0  0  0  0  0  0  0  0  0
   -3.2451    0.5077    1.2518 H   0  0  0  0  0  0  0  0  0  0  0  0
   -2.4787    1.3954    3.0311 C   0  0  0  0  0  0  0  0  0  0  0  0
   -1.7166    2.1767    3.0539 H   0  0  0  0  0  0  0  0  0  0  0  0
   -3.4649    1.8498    3.1344 H   0  0  0  0  0  0  0  0  0  0  0  0
   -2.3058    0.7133    3.8652 H   0  0  0  0  0  0  0  0  0  0  0  0
  5  6  2  0  0  0  0
  5  7  1  0  0  0  0
  2  3  1  0  0  0  0
  2  4  1  0  0  0  0
  2  5  1  0  0  0  0
  1  2  1  0  0  0  0
 29 30  2  0  0  0  0
 29 31  1  0  0  0  0
 26 27  1  0  0  0  0
 26 28  2  0  0  0  0
 24 25  1  0  0  0  0
 24 26  1  0  0  0  0
 22 23  1  0  0  0  0
 22 24  2  0  0  0  0
 20 21  1  0  0  0  0
 20 22  1  0  0  0  0
 19 20  2  0  0  0  0
 19 28  1  0  0  0  0
 17 18  1  0  0  0  0
 17 19  1  0  0  0  0
 15 16  1  0  0  0  0
 15 17  1  0  0  0  0
 14 15  2  0  0  0  0
 14 28  1  0  0  0  0
 11 12  1  0  0  0  0
 11 13  1  0  0  0  0
 11 14  1  0  0  0  0
  9 10  1  0  0  0  0
  9 11  1  0  0  0  0
  9 29  1  0  0  0  0
  7  8  1  0  0  0  0
  7  9  1  0  0  0  0
 33 34  1  0  0  0  0
 33 35  1  0  0  0  0
 33 36  1  0  0  0  0
 31 32  1  0  0  0  0
 31 33  1  0  0  0  0
M  END
$$$$
default_name
  -OEChem-02102213163D

 36 37  0     1  0  0  0  0  0999 V2000
   -4.0843   -4.0736    1.2944 H   0  0  0  0  0  0  0  0  0  0  0  0
   -4.0342   -3.2816    0.5484 C   0  0  0  0  0  0  0  0  0  0  0  0
   -4.8842   -2.6126    0.6694 H   0  0  0  0  0  0  0  0  0  0  0  0
   -4.0433   -3.7186   -0.4486 H   0  0  0  0  0  0  0  0  0  0  0  0
   -2.7532   -2.5046    0.7444 C   0  0  0  0  0  0  0  0  0  0  0  0
   -1.9803   -2.8096    1.6434 O   0  0  0  0  0  0  0  0  0  0  0  0
   -2.5332   -1.4966   -0.0966 N   0  0  0  0  0  0  0  0  0  0  0  0
   -3.2312   -1.2816   -0.7936 H   0  0  0  0  0  0  0  0  0  0  0  0
   -1.3593   -0.6196   -0.0536 C   0  0  1  0  0  0  0  0  0  0  0  0
   -0.4622   -1.2317   -0.1545 H   0  0  0  0  0  0  0  0  0  0  0  0
   -1.4074    0.3593   -1.2373 C   0  0  0  0  0  0  0  0  0  0  0  0
   -0.6982    0.0270   -1.9975 H   0  0  0  0  0  0  0  0  0  0  0  0
   -2.4051    0.3227   -1.6779 H   0  0  0  0  0  0  0  0  0  0  0  0
   -1.0897    1.7843   -0.8986 C   0  0  0  0  0  0  0  0  0  0  0  0
   -0.7899    2.7563   -1.7890 C   0  0  0  0  0  0  0  0  0  0  0  0
   -0.7254    2.6120   -2.8619 H   0  0  0  0  0  0  0  0  0  0  0  0
   -0.6015    3.9524   -1.1246 N   0  0  0  0  0  0  0  0  0  0  0  0
   -0.3640    4.8165   -1.5896 H   0  0  0  0  0  0  0  0  0  0  0  0
   -0.7881    3.8131    0.2343 C   0  0  0  0  0  0  0  0  0  0  0  0
   -0.7393    4.7164    1.3057 C   0  0  0  0  0  0  0  0  0  0  0  0
   -0.5113    5.7580    1.1335 H   0  0  0  0  0  0  0  0  0  0  0  0
   -0.9893    4.2469    2.6065 C   0  0  0  0  0  0  0  0  0  0  0  0
   -0.9550    4.9289    3.4453 H   0  0  0  0  0  0  0  0  0  0  0  0
   -1.2780    2.8862    2.8172 C   0  0  0  0  0  0  0  0  0  0  0  0
   -1.4615    2.5277    3.8206 H   0  0  0  0  0  0  0  0  0  0  0  0
   -1.3224    1.9868    1.7330 C   0  0  0  0  0  0  0  0  0  0  0  0
   -1.5322    0.9416    1.9104 H   0  0  0  0  0  0  0  0  0  0  0  0
   -1.0821    2.4282    0.4138 C   0  0  0  0  0  0  0  0  0  0  0  0
   -1.2663    0.1182    1.2910 C   0  0  0  0  0  0  0  0  0  0  0  0
   -0.1906    0.1931    1.8833 O   0  0  0  0  0  0  0  0  0  0  0  0
   -2.3930    0.6605    1.7722 N   0  0  0  0  0  0  0  0  0  0  0  0
   -3.2451    0.5077    1.2518 H   0  0  0  0  0  0  0  0  0  0  0  0
   -2.4787    1.3954    3.0311 C   0  0  0  0  0  0  0  0  0  0  0  0
   -1.7166    2.1767    3.0539 H   0  0  0  0  0  0  0  0  0  0  0  0
   -3.4649    1.8498    3.1344 H   0  0  0  0  0  0  0  0  0  0  0  0
   -2.3058    0.7133    3.8652 H   0  0  0  0  0  0  0  0  0  0  0  0
  5  6  2  0  0  0  0
  5  7  1  0  0  0  0
  2  3  1  0  0  0  0
  2  4  1  0  0  0  0
  2  5  1  0  0  0  0
  1  2  1  0  0  0  0
 29 30  2  0  0  0  0
 29 31  1  0  0  0  0
 26 27  1  0  0  0  0
 26 28  2  0  0  0  0
 24 25  1  0  0  0  0
 24 26  1  0  0  0  0
 22 23  1  0  0  0  0
 22 24  2  0  0  0  0
 20 21  1  0  0  0  0
 20 22  1  0  0  0  0
 19 20  2  0  0  0  0
 19 28  1  0  0  0  0
 17 18  1  0  0  0  0
 17 19  1  0  0  0  0
 15 16  1  0  0  0  0
 15 17  1  0  0  0  0
 14 15  2  0  0  0  0
 14 28  1  0  0  0  0
 11 12  1  0  0  0  0
 11 13  1  0  0  0  0
 11 14  1  0  0  0  0
  9 10  1  0  0  0  0
  9 11  1  0  0  0  0
  9 29  1  0  0  0  0
  7  8  1  0  0  0  0
  7  9  1  0  0  0  0
 33 34  1  0  0  0  0
 33 35  1  0  0  0  0
 33 36  1  0  0  0  0
 31 32  1  0  0  0  0
 31 33  1  0  0  0  0
M  END
$$$$
default_name
  -OEChem-02102213163D

 36 37  0     1  0  0  0  0  0999 V2000
   -4.0843   -4.0736    1.2944 H   0  0  0  0  0  0  0  0  0  0  0  0
   -4.0342   -3.2816    0.5484 C   0  0  0  0  0  0  0  0  0  0  0  0
   -4.8842   -2.6126    0.6694 H   0  0  0  0  0  0  0  0  0  0  0  0
   -4.0433   -3.7186   -0.4486 H   0  0  0  0  0  0  0  0  0  0  0  0
   -2.7532   -2.5046    0.7444 C   0  0  0  0  0  0  0  0  0  0  0  0
   -1.9803   -2.8096    1.6434 O   0  0  0  0  0  0  0  0  0  0  0  0
   -2.5332   -1.4966   -0.0966 N   0  0  0  0  0  0  0  0  0  0  0  0
   -3.2312   -1.2816   -0.7936 H   0  0  0  0  0  0  0  0  0  0  0  0
   -1.3593   -0.6196   -0.0536 C   0  0  1  0  0  0  0  0  0  0  0  0
   -0.4622   -1.2317   -0.1545 H   0  0  0  0  0  0  0  0  0  0  0  0
   -1.4074    0.3593   -1.2373 C   0  0  0  0  0  0  0  0  0  0  0  0
   -0.9144   -0.1016   -2.0951 H   0  0  0  0  0  0  0  0  0  0  0  0
   -2.4514    0.5268   -1.5072 H   0  0  0  0  0  0  0  0  0  0  0  0
   -0.7613    1.6889   -0.9908 C   0  0  0  0  0  0  0  0  0  0  0  0
   -0.6828    2.7026   -1.8819 C   0  0  0  0  0  0  0  0  0  0  0  0
   -1.0657    2.6641   -2.8958 H   0  0  0  0  0  0  0  0  0  0  0  0
   -0.0631    3.7889   -1.2958 N   0  0  0  0  0  0  0  0  0  0  0  0
    0.1077    4.6595   -1.7775 H   0  0  0  0  0  0  0  0  0  0  0  0
    0.2758    3.5333    0.0159 C   0  0  0  0  0  0  0  0  0  0  0  0
    0.8812    4.3061    1.0171 C   0  0  0  0  0  0  0  0  0  0  0  0
    1.1858    5.3225    0.8151 H   0  0  0  0  0  0  0  0  0  0  0  0
    1.0876    3.7390    2.2863 C   0  0  0  0  0  0  0  0  0  0  0  0
    1.5541    4.3197    3.0706 H   0  0  0  0  0  0  0  0  0  0  0  0
    0.6923    2.4117    2.5336 C   0  0  0  0  0  0  0  0  0  0  0  0
    0.8606    1.9766    3.5091 H   0  0  0  0  0  0  0  0  0  0  0  0
    0.0865    1.6435    1.5192 C   0  0  0  0  0  0  0  0  0  0  0  0
   -0.2002    0.6207    1.7186 H   0  0  0  0  0  0  0  0  0  0  0  0
   -0.1403    2.1860    0.2357 C   0  0  0  0  0  0  0  0  0  0  0  0
   -1.2663    0.1182    1.2910 C   0  0  0  0  0  0  0  0  0  0  0  0
   -0.1906    0.1931    1.8833 O   0  0  0  0  0  0  0  0  0  0  0  0
   -2.3930    0.6605    1.7722 N   0  0  0  0  0  0  0  0  0  0  0  0
   -3.2451    0.5077    1.2518 H   0  0  0  0  0  0  0  0  0  0  0  0
   -2.4787    1.3954    3.0311 C   0  0  0  0  0  0  0  0  0  0  0  0
   -1.7166    2.1767    3.0539 H   0  0  0  0  0  0  0  0  0  0  0  0
   -3.4649    1.8498    3.1344 H   0  0  0  0  0  0  0  0  0  0  0  0
   -2.3058    0.7133    3.8652 H   0  0  0  0  0  0  0  0  0  0  0  0
  5  6  2  0  0  0  0
  5  7  1  0  0  0  0
  2  3  1  0  0  0  0
  2  4  1  0  0  0  0
  2  5  1  0  0  0  0
  1  2  1  0  0  0  0
 29 30  2  0  0  0  0
 29 31  1  0  0  0  0
 26 27  1  0  0  0  0
 26 28  2  0  0  0  0
 24 25  1  0  0  0  0
 24 26  1  0  0  0  0
 22 23  1  0  0  0  0
 22 24  2  0  0  0  0
 20 21  1  0  0  0  0
 20 22  1  0  0  0  0
 19 20  2  0  0  0  0
 19 28  1  0  0  0  0
 17 18  1  0  0  0  0
 17 19  1  0  0  0  0
 15 16  1  0  0  0  0
 15 17  1  0  0  0  0
 14 15  2  0  0  0  0
 14 28  1  0  0  0  0
 11 12  1  0  0  0  0
 11 13  1  0  0  0  0
 11 14  1  0  0  0  0
  9 10  1  0  0  0  0
  9 11  1  0  0  0  0
  9 29  1  0  0  0  0
  7  8  1  0  0  0  0
  7  9  1  0  0  0  0
 33 34  1  0  0  0  0
 33 35  1  0  0  0  0
 33 36  1  0  0  0  0
 31 32  1  0  0  0  0
 31 33  1  0  0  0  0
M  END
$$$$
default_name
  -OEChem-02102213163D

 36 37  0     1  0  0  0  0  0999 V2000
   -4.0843   -4.0736    1.2944 H   0  0  0  0  0  0  0  0  0  0  0  0
   -4.0342   -3.2816    0.5484 C   0  0  0  0  0  0  0  0  0  0  0  0
   -4.8842   -2.6126    0.6694 H   0  0  0  0  0  0  0  0  0  0  0  0
   -4.0433   -3.7186   -0.4486 H   0  0  0  0  0  0  0  0  0  0  0  0
   -2.7532   -2.5046    0.7444 C   0  0  0  0  0  0  0  0  0  0  0  0
   -1.9803   -2.8096    1.6434 O   0  0  0  0  0  0  0  0  0  0  0  0
   -2.5332   -1.4966   -0.0966 N   0  0  0  0  0  0  0  0  0  0  0  0
   -3.2312   -1.2816   -0.7936 H   0  0  0  0  0  0  0  0  0  0  0  0
   -1.3593   -0.6196   -0.0536 C   0  0  1  0  0  0  0  0  0  0  0  0
   -0.4622   -1.2317   -0.1545 H   0  0  0  0  0  0  0  0  0  0  0  0
   -1.4074    0.3593   -1.2373 C   0  0  0  0  0  0  0  0  0  0  0  0
   -0.9144   -0.1016   -2.0951 H   0  0  0  0  0  0  0  0  0  0  0  0
   -2.4514    0.5268   -1.5072 H   0  0  0  0  0  0  0  0  0  0  0  0
   -0.7613    1.6889   -0.9908 C   0  0  0  0  0  0  0  0  0  0  0  0
   -0.9217    2.7946   -1.7520 C   0  0  0  0  0  0  0  0  0  0  0  0
   -1.5281    2.8432   -2.6498 H   0  0  0  0  0  0  0  0  0  0  0  0
   -0.2153    3.8450   -1.1996 N   0  0  0  0  0  0  0  0  0  0  0  0
   -0.1867    4.7701   -1.6027 H   0  0  0  0  0  0  0  0  0  0  0  0
    0.4261    3.4702   -0.0382 C   0  0  0  0  0  0  0  0  0  0  0  0
    1.2242    4.1644    0.8824 C   0  0  0  0  0  0  0  0  0  0  0  0
    1.4435    5.2119    0.7363 H   0  0  0  0  0  0  0  0  0  0  0  0
    1.7361    3.4776    1.9965 C   0  0  0  0  0  0  0  0  0  0  0  0
    2.3545    3.9964    2.7165 H   0  0  0  0  0  0  0  0  0  0  0  0
    1.4485    2.1115    2.1708 C   0  0  0  0  0  0  0  0  0  0  0  0
    1.8512    1.5850    3.0249 H   0  0  0  0  0  0  0  0  0  0  0  0
    0.6467    1.4234    1.2380 C   0  0  0  0  0  0  0  0  0  0  0  0
    0.4445    0.3709    1.3768 H   0  0  0  0  0  0  0  0  0  0  0  0
    0.1124    2.0862    0.1119 C   0  0  0  0  0  0  0  0  0  0  0  0
   -1.2663    0.1182    1.2910 C   0  0  0  0  0  0  0  0  0  0  0  0
   -0.1906    0.1931    1.8833 O   0  0  0  0  0  0  0  0  0  0  0  0
   -2.3930    0.6605    1.7722 N   0  0  0  0  0  0  0  0  0  0  0  0
   -3.2451    0.5077    1.2518 H   0  0  0  0  0  0  0  0  0  0  0  0
   -2.4787    1.3954    3.0311 C   0  0  0  0  0  0  0  0  0  0  0  0
   -1.7166    2.1767    3.0539 H   0  0  0  0  0  0  0  0  0  0  0  0
   -3.4649    1.8498    3.1344 H   0  0  0  0  0  0  0  0  0  0  0  0
   -2.3058    0.7133    3.8652 H   0  0  0  0  0  0  0  0  0  0  0  0
  5  6  2  0  0  0  0
  5  7  1  0  0  0  0
  2  3  1  0  0  0  0
  2  4  1  0  0  0  0
  2  5  1  0  0  0  0
  1  2  1  0  0  0  0
 29 30  2  0  0  0  0
 29 31  1  0  0  0  0
 26 27  1  0  0  0  0
 26 28  2  0  0  0  0
 24 25  1  0  0  0  0
 24 26  1  0  0  0  0
 22 23  1  0  0  0  0
 22 24  2  0  0  0  0
 20 21  1  0  0  0  0
 20 22  1  0  0  0  0
 19 20  2  0  0  0  0
 19 28  1  0  0  0  0
 17 18  1  0  0  0  0
 17 19  1  0  0  0  0
 15 16  1  0  0  0  0
 15 17  1  0  0  0  0
 14 15  2  0  0  0  0
 14 28  1  0  0  0  0
 11 12  1  0  0  0  0
 11 13  1  0  0  0  0
 11 14  1  0  0  0  0
  9 10  1  0  0  0  0
  9 11  1  0  0  0  0
  9 29  1  0  0  0  0
  7  8  1  0  0  0  0
  7  9  1  0  0  0  0
 33 34  1  0  0  0  0
 33 35  1  0  0  0  0
 33 36  1  0  0  0  0
 31 32  1  0  0  0  0
 31 33  1  0  0  0  0
M  END
$$$$
default_name
  -OEChem-02102213163D

 36 37  0     1  0  0  0  0  0999 V2000
   -4.0843   -4.0736    1.2944 H   0  0  0  0  0  0  0  0  0  0  0  0
   -4.0342   -3.2816    0.5484 C   0  0  0  0  0  0  0  0  0  0  0  0
   -4.8842   -2.6126    0.6694 H   0  0  0  0  0  0  0  0  0  0  0  0
   -4.0433   -3.7186   -0.4486 H   0  0  0  0  0  0  0  0  0  0  0  0
   -2.7532   -2.5046    0.7444 C   0  0  0  0  0  0  0  0  0  0  0  0
   -1.9803   -2.8096    1.6434 O   0  0  0  0  0  0  0  0  0  0  0  0
   -2.5332   -1.4966   -0.0966 N   0  0  0  0  0  0  0  0  0  0  0  0
   -3.2312   -1.2816   -0.7936 H   0  0  0  0  0  0  0  0  0  0  0  0
   -1.3593   -0.6196   -0.0536 C   0  0  1  0  0  0  0  0  0  0  0  0
   -0.4622   -1.2317   -0.1545 H   0  0  0  0  0  0  0  0  0  0  0  0
   -1.4074    0.3593   -1.2373 C   0  0  0  0  0  0  0  0  0  0  0  0
   -0.9144   -0.1016   -2.0951 H   0  0  0  0  0  0  0  0  0  0  0  0
   -2.4514    0.5268   -1.5072 H   0  0  0  0  0  0  0  0  0  0  0  0
   -0.7613    1.6889   -0.9908 C   0  0  0  0  0  0  0  0  0  0  0  0
   -1.1265    2.8588   -1.5615 C   0  0  0  0  0  0  0  0  0  0  0  0
   -1.9259    2.9690   -2.2861 H   0  0  0  0  0  0  0  0  0  0  0  0
   -0.3426    3.8820   -1.0655 N   0  0  0  0  0  0  0  0  0  0  0  0
   -0.4357    4.8450   -1.3539 H   0  0  0  0  0  0  0  0  0  0  0  0
    0.5616    3.4218   -0.1319 C   0  0  0  0  0  0  0  0  0  0  0  0
    1.5307    4.0572    0.6577 C   0  0  0  0  0  0  0  0  0  0  0  0
    1.6790    5.1248    0.5887 H   0  0  0  0  0  0  0  0  0  0  0  0
    2.3072    3.2851    1.5385 C   0  0  0  0  0  0  0  0  0  0  0  0
    3.0601    3.7577    2.1546 H   0  0  0  0  0  0  0  0  0  0  0  0
    2.1083    1.8943    1.6131 C   0  0  0  0  0  0  0  0  0  0  0  0
    2.7136    1.3030    2.2861 H   0  0  0  0  0  0  0  0  0  0  0  0
    1.1327    1.2660    0.8133 C   0  0  0  0  0  0  0  0  0  0  0  0
    0.9993    0.1951    0.8707 H   0  0  0  0  0  0  0  0  0  0  0  0
    0.3323    2.0144   -0.0769 C   0  0  0  0  0  0  0  0  0  0  0  0
   -1.2663    0.1182    1.2910 C   0  0  0  0  0  0  0  0  0  0  0  0
   -0.1906    0.1931    1.8833 O   0  0  0  0  0  0  0  0  0  0  0  0
   -2.3930    0.6605    1.7722 N   0  0  0  0  0  0  0  0  0  0  0  0
   -3.2451    0.5077    1.2518 H   0  0  0  0  0  0  0  0  0  0  0  0
   -2.4787    1.3954    3.0311 C   0  0  0  0  0  0  0  0  0  0  0  0
   -1.7166    2.1767    3.0539 H   0  0  0  0  0  0  0  0  0  0  0  0
   -3.4649    1.8498    3.1344 H   0  0  0  0  0  0  0  0  0  0  0  0
   -2.3058    0.7133    3.8652 H   0  0  0  0  0  0  0  0  0  0  0  0
  5  6  2  0  0  0  0
  5  7  1  0  0  0  0
  2  3  1  0  0  0  0
  2  4  1  0  0  0  0
  2  5  1  0  0  0  0
  1  2  1  0  0  0  0
 29 30  2  0  0  0  0
 29 31  1  0  0  0  0
 26 27  1  0  0  0  0
 26 28  2  0  0  0  0
 24 25  1  0  0  0  0
 24 26  1  0  0  0  0
 22 23  1  0  0  0  0
 22 24  2  0  0  0  0
 20 21  1  0  0  0  0
 20 22  1  0  0  0  0
 19 20  2  0  0  0  0
 19 28  1  0  0  0  0
 17 18  1  0  0  0  0
 17 19  1  0  0  0  0
 15 16  1  0  0  0  0
 15 17  1  0  0  0  0
 14 15  2  0  0  0  0
 14 28  1  0  0  0  0
 11 12  1  0  0  0  0
 11 13  1  0  0  0  0
 11 14  1  0  0  0  0
  9 10  1  0  0  0  0
  9 11  1  0  0  0  0
  9 29  1  0  0  0  0
  7  8  1  0  0  0  0
  7  9  1  0  0  0  0
 33 34  1  0  0  0  0
 33 35  1  0  0  0  0
 33 36  1  0  0  0  0
 31 32  1  0  0  0  0
 31 33  1  0  0  0  0
M  END
$$$$
default_name
  -OEChem-02102213163D

 36 37  0     1  0  0  0  0  0999 V2000
   -4.0843   -4.0736    1.2944 H   0  0  0  0  0  0  0  0  0  0  0  0
   -4.0342   -3.2816    0.5484 C   0  0  0  0  0  0  0  0  0  0  0  0
   -4.8842   -2.6126    0.6694 H   0  0  0  0  0  0  0  0  0  0  0  0
   -4.0433   -3.7186   -0.4486 H   0  0  0  0  0  0  0  0  0  0  0  0
   -2.7532   -2.5046    0.7444 C   0  0  0  0  0  0  0  0  0  0  0  0
   -1.9803   -2.8096    1.6434 O   0  0  0  0  0  0  0  0  0  0  0  0
   -2.5332   -1.4966   -0.0966 N   0  0  0  0  0  0  0  0  0  0  0  0
   -3.2312   -1.2816   -0.7936 H   0  0  0  0  0  0  0  0  0  0  0  0
   -1.3593   -0.6196   -0.0536 C   0  0  1  0  0  0  0  0  0  0  0  0
   -0.4622   -1.2317   -0.1545 H   0  0  0  0  0  0  0  0  0  0  0  0
   -1.4074    0.3593   -1.2373 C   0  0  0  0  0  0  0  0  0  0  0  0
   -0.9144   -0.1016   -2.0951 H   0  0  0  0  0  0  0  0  0  0  0  0
   -2.4514    0.5268   -1.5072 H   0  0  0  0  0  0  0  0  0  0  0  0
   -0.7613    1.6889   -0.9908 C   0  0  0  0  0  0  0  0  0  0  0  0
   -1.2834    2.8908   -1.3233 C   0  0  0  0  0  0  0  0  0  0  0  0
   -2.2320    3.0330   -1.8293 H   0  0  0  0  0  0  0  0  0  0  0  0
   -0.4363    3.8973   -0.9025 N   0  0  0  0  0  0  0  0  0  0  0  0
   -0.6222    4.8789   -1.0480 H   0  0  0  0  0  0  0  0  0  0  0  0
    0.6730    3.3912   -0.2590 C   0  0  0  0  0  0  0  0  0  0  0  0
    1.7796    3.9917    0.3583 C   0  0  0  0  0  0  0  0  0  0  0  0
    1.8763    5.0672    0.3823 H   0  0  0  0  0  0  0  0  0  0  0  0
    2.7618    3.1745    0.9435 C   0  0  0  0  0  0  0  0  0  0  0  0
    3.6229    3.6199    1.4232 H   0  0  0  0  0  0  0  0  0  0  0  0
    2.6268    1.7748    0.8988 C   0  0  0  0  0  0  0  0  0  0  0  0
    3.3890    1.1497    1.3430 H   0  0  0  0  0  0  0  0  0  0  0  0
    1.5112    1.1821    0.2739 C   0  0  0  0  0  0  0  0  0  0  0  0
    1.4265    0.1054    0.2349 H   0  0  0  0  0  0  0  0  0  0  0  0
    0.5044    1.9754   -0.3177 C   0  0  0  0  0  0  0  0  0  0  0  0
   -1.2663    0.1182    1.2910 C   0  0  0  0  0  0  0  0  0  0  0  0
   -0.1906    0.1931    1.8833 O   0  0  0  0  0  0  0  0  0  0  0  0
   -2.3930    0.6605    1.7722 N   0  0  0  0  0  0  0  0  0  0  0  0
   -3.2451    0.5077    1.2518 H   0  0  0  0  0  0  0  0  0  0  0  0
   -2.4787    1.3954    3.0311 C   0  0  0  0  0  0  0  0  0  0  0  0
   -1.7166    2.1767    3.0539 H   0  0  0  0  0  0  0  0  0  0  0  0
   -3.4649    1.8498    3.1344 H   0  0  0  0  0  0  0  0  0  0  0  0
   -2.3058    0.7133    3.8652 H   0  0  0  0  0  0  0  0  0  0  0  0
  5  6  2  0  0  0  0
  5  7  1  0  0  0  0
  2  3  1  0  0  0  0
  2  4  1  0  0  0  0
  2  5  1  0  0  0  0
  1  2  1  0  0  0  0
 29 30  2  0  0  0  0
 29 31  1  0  0  0  0
 26 27  1  0  0  0  0
 26 28  2  0  0  0  0
 24 25  1  0  0  0  0
 24 26  1  0  0  0  0
 22 23  1  0  0  0  0
 22 24  2  0  0  0  0
 20 21  1  0  0  0  0
 20 22  1  0  0  0  0
 19 20  2  0  0  0  0
 19 28  1  0  0  0  0
 17 18  1  0  0  0  0
 17 19  1  0  0  0  0
 15 16  1  0  0  0  0
 15 17  1  0  0  0  0
 14 15  2  0  0  0  0
 14 28  1  0  0  0  0
 11 12  1  0  0  0  0
 11 13  1  0  0  0  0
 11 14  1  0  0  0  0
  9 10  1  0  0  0  0
  9 11  1  0  0  0  0
  9 29  1  0  0  0  0
  7  8  1  0  0  0  0
  7  9  1  0  0  0  0
 33 34  1  0  0  0  0
 33 35  1  0  0  0  0
 33 36  1  0  0  0  0
 31 32  1  0  0  0  0
 31 33  1  0  0  0  0
M  END
$$$$
default_name
  -OEChem-02102213163D

 36 37  0     1  0  0  0  0  0999 V2000
   -4.0843   -4.0736    1.2944 H   0  0  0  0  0  0  0  0  0  0  0  0
   -4.0342   -3.2816    0.5484 C   0  0  0  0  0  0  0  0  0  0  0  0
   -4.8842   -2.6126    0.6694 H   0  0  0  0  0  0  0  0  0  0  0  0
   -4.0433   -3.7186   -0.4486 H   0  0  0  0  0  0  0  0  0  0  0  0
   -2.7532   -2.5046    0.7444 C   0  0  0  0  0  0  0  0  0  0  0  0
   -1.9803   -2.8096    1.6434 O   0  0  0  0  0  0  0  0  0  0  0  0
   -2.5332   -1.4966   -0.0966 N   0  0  0  0  0  0  0  0  0  0  0  0
   -3.2312   -1.2816   -0.7936 H   0  0  0  0  0  0  0  0  0  0  0  0
   -1.3593   -0.6196   -0.0536 C   0  0  1  0  0  0  0  0  0  0  0  0
   -0.4622   -1.2317   -0.1545 H   0  0  0  0  0  0  0  0  0  0  0  0
   -1.4074    0.3593   -1.2373 C   0  0  0  0  0  0  0  0  0  0  0  0
   -0.9144   -0.1016   -2.0951 H   0  0  0  0  0  0  0  0  0  0  0  0
   -2.4514    0.5268   -1.5072 H   0  0  0  0  0  0  0  0  0  0  0  0
   -0.7613    1.6889   -0.9908 C   0  0  0  0  0  0  0  0  0  0  0  0
   -1.3816    2.8885   -1.0535 C   0  0  0  0  0  0  0  0  0  0  0  0
   -2.4255    3.0309   -1.3107 H   0  0  0  0  0  0  0  0  0  0  0  0
   -0.4901    3.8900   -0.7219 N   0  0  0  0  0  0  0  0  0  0  0  0
   -0.7335    4.8696   -0.7060 H   0  0  0  0  0  0  0  0  0  0  0  0
    0.7527    3.3806   -0.4108 C   0  0  0  0  0  0  0  0  0  0  0  0
    1.9541    3.9725    0.0046 C   0  0  0  0  0  0  0  0  0  0  0  0
    2.0219    5.0430    0.1312 H   0  0  0  0  0  0  0  0  0  0  0  0
    3.0690    3.1534    0.2521 C   0  0  0  0  0  0  0  0  0  0  0  0
    4.0043    3.5924    0.5721 H   0  0  0  0  0  0  0  0  0  0  0  0
    2.9687    1.7612    0.0763 C   0  0  0  0  0  0  0  0  0  0  0  0
    3.8313    1.1356    0.2598 H   0  0  0  0  0  0  0  0  0  0  0  0
    1.7566    1.1773   -0.3435 C   0  0  0  0  0  0  0  0  0  0  0  0
    1.6970    0.1079   -0.4874 H   0  0  0  0  0  0  0  0  0  0  0  0
    0.6170    1.9719   -0.5942 C   0  0  0  0  0  0  0  0  0  0  0  0
   -1.2663    0.1182    1.2910 C   0  0  0  0  0  0  0  0  0  0  0  0
   -0.1906    0.1931    1.8833 O   0  0  0  0  0  0  0  0  0  0  0  0
   -2.3930    0.6605    1.7722 N   0  0  0  0  0  0  0  0  0  0  0  0
   -3.2451    0.5077    1.2518 H   0  0  0  0  0  0  0  0  0  0  0  0
   -2.4787    1.3954    3.0311 C   0  0  0  0  0  0  0  0  0  0  0  0
   -1.7166    2.1767    3.0539 H   0  0  0  0  0  0  0  0  0  0  0  0
   -3.4649    1.8498    3.1344 H   0  0  0  0  0  0  0  0  0  0  0  0
   -2.3058    0.7133    3.8652 H   0  0  0  0  0  0  0  0  0  0  0  0
  5  6  2  0  0  0  0
  5  7  1  0  0  0  0
  2  3  1  0  0  0  0
  2  4  1  0  0  0  0
  2  5  1  0  0  0  0
  1  2  1  0  0  0  0
 29 30  2  0  0  0  0
 29 31  1  0  0  0  0
 26 27  1  0  0  0  0
 26 28  2  0  0  0  0
 24 25  1  0  0  0  0
 24 26  1  0  0  0  0
 22 23  1  0  0  0  0
 22 24  2  0  0  0  0
 20 21  1  0  0  0  0
 20 22  1  0  0  0  0
 19 20  2  0  0  0  0
 19 28  1  0  0  0  0
 17 18  1  0  0  0  0
 17 19  1  0  0  0  0
 15 16  1  0  0  0  0
 15 17  1  0  0  0  0
 14 15  2  0  0  0  0
 14 28  1  0  0  0  0
 11 12  1  0  0  0  0
 11 13  1  0  0  0  0
 11 14  1  0  0  0  0
  9 10  1  0  0  0  0
  9 11  1  0  0  0  0
  9 29  1  0  0  0  0
  7  8  1  0  0  0  0
  7  9  1  0  0  0  0
 33 34  1  0  0  0  0
 33 35  1  0  0  0  0
 33 36  1  0  0  0  0
 31 32  1  0  0  0  0
 31 33  1  0  0  0  0
M  END
$$$$
default_name
  -OEChem-02102213163D

 36 37  0     1  0  0  0  0  0999 V2000
   -4.0843   -4.0736    1.2944 H   0  0  0  0  0  0  0  0  0  0  0  0
   -4.0342   -3.2816    0.5484 C   0  0  0  0  0  0  0  0  0  0  0  0
   -4.8842   -2.6126    0.6694 H   0  0  0  0  0  0  0  0  0  0  0  0
   -4.0433   -3.7186   -0.4486 H   0  0  0  0  0  0  0  0  0  0  0  0
   -2.7532   -2.5046    0.7444 C   0  0  0  0  0  0  0  0  0  0  0  0
   -1.9803   -2.8096    1.6434 O   0  0  0  0  0  0  0  0  0  0  0  0
   -2.5332   -1.4966   -0.0966 N   0  0  0  0  0  0  0  0  0  0  0  0
   -3.2312   -1.2816   -0.7936 H   0  0  0  0  0  0  0  0  0  0  0  0
   -1.3593   -0.6196   -0.0536 C   0  0  1  0  0  0  0  0  0  0  0  0
   -0.4622   -1.2317   -0.1545 H   0  0  0  0  0  0  0  0  0  0  0  0
   -1.4074    0.3593   -1.2373 C   0  0  0  0  0  0  0  0  0  0  0  0
   -0.9144   -0.1016   -2.0951 H   0  0  0  0  0  0  0  0  0  0  0  0
   -2.4514    0.5268   -1.5072 H   0  0  0  0  0  0  0  0  0  0  0  0
   -0.7613    1.6889   -0.9908 C   0  0  0  0  0  0  0  0  0  0  0  0
   -1.4144    2.8520   -0.7707 C   0  0  0  0  0  0  0  0  0  0  0  0
   -2.4932    2.9627   -0.7656 H   0  0  0  0  0  0  0  0  0  0  0  0
   -0.5003    3.8604   -0.5359 N   0  0  0  0  0  0  0  0  0  0  0  0
   -0.7622    4.8177   -0.3510 H   0  0  0  0  0  0  0  0  0  0  0  0
    0.7953    3.3907   -0.5768 C   0  0  0  0  0  0  0  0  0  0  0  0
    2.0423    4.0008   -0.3792 C   0  0  0  0  0  0  0  0  0  0  0  0
    2.1060    5.0538   -0.1474 H   0  0  0  0  0  0  0  0  0  0  0  0
    3.2079    3.2233   -0.4887 C   0  0  0  0  0  0  0  0  0  0  0  0
    4.1785    3.6770   -0.3406 H   0  0  0  0  0  0  0  0  0  0  0  0
    3.1107    1.8543   -0.7981 C   0  0  0  0  0  0  0  0  0  0  0  0
    4.0104    1.2617   -0.8896 H   0  0  0  0  0  0  0  0  0  0  0  0
    1.8521    1.2521   -0.9966 C   0  0  0  0  0  0  0  0  0  0  0  0
    1.7923    0.2024   -1.2469 H   0  0  0  0  0  0  0  0  0  0  0  0
    0.6624    2.0042   -0.8875 C   0  0  0  0  0  0  0  0  0  0  0  0
   -1.2663    0.1182    1.2910 C   0  0  0  0  0  0  0  0  0  0  0  0
   -0.1906    0.1931    1.8833 O   0  0  0  0  0  0  0  0  0  0  0  0
   -2.3930    0.6605    1.7722 N   0  0  0  0  0  0  0  0  0  0  0  0
   -3.2451    0.5077    1.2518 H   0  0  0  0  0  0  0  0  0  0  0  0
   -2.4787    1.3954    3.0311 C   0  0  0  0  0  0  0  0  0  0  0  0
   -1.7166    2.1767    3.0539 H   0  0  0  0  0  0  0  0  0  0  0  0
   -3.4649    1.8498    3.1344 H   0  0  0  0  0  0  0  0  0  0  0  0
   -2.3058    0.7133    3.8652 H   0  0  0  0  0  0  0  0  0  0  0  0
  5  6  2  0  0  0  0
  5  7  1  0  0  0  0
  2  3  1  0  0  0  0
  2  4  1  0  0  0  0
  2  5  1  0  0  0  0
  1  2  1  0  0  0  0
 29 30  2  0  0  0  0
 29 31  1  0  0  0  0
 26 27  1  0  0  0  0
 26 28  2  0  0  0  0
 24 25  1  0  0  0  0
 24 26  1  0  0  0  0
 22 23  1  0  0  0  0
 22 24  2  0  0  0  0
 20 21  1  0  0  0  0
 20 22  1  0  0  0  0
 19 20  2  0  0  0  0
 19 28  1  0  0  0  0
 17 18  1  0  0  0  0
 17 19  1  0  0  0  0
 15 16  1  0  0  0  0
 15 17  1  0  0  0  0
 14 15  2  0  0  0  0
 14 28  1  0  0  0  0
 11 12  1  0  0  0  0
 11 13  1  0  0  0  0
 11 14  1  0  0  0  0
  9 10  1  0  0  0  0
  9 11  1  0  0  0  0
  9 29  1  0  0  0  0
  7  8  1  0  0  0  0
  7  9  1  0  0  0  0
 33 34  1  0  0  0  0
 33 35  1  0  0  0  0
 33 36  1  0  0  0  0
 31 32  1  0  0  0  0
 31 33  1  0  0  0  0
M  END
$$$$
default_name
  -OEChem-02102213163D

 36 37  0     1  0  0  0  0  0999 V2000
   -4.0843   -4.0736    1.2944 H   0  0  0  0  0  0  0  0  0  0  0  0
   -4.0342   -3.2816    0.5484 C   0  0  0  0  0  0  0  0  0  0  0  0
   -4.8842   -2.6126    0.6694 H   0  0  0  0  0  0  0  0  0  0  0  0
   -4.0433   -3.7186   -0.4486 H   0  0  0  0  0  0  0  0  0  0  0  0
   -2.7532   -2.5046    0.7444 C   0  0  0  0  0  0  0  0  0  0  0  0
   -1.9803   -2.8096    1.6434 O   0  0  0  0  0  0  0  0  0  0  0  0
   -2.5332   -1.4966   -0.0966 N   0  0  0  0  0  0  0  0  0  0  0  0
   -3.2312   -1.2816   -0.7936 H   0  0  0  0  0  0  0  0  0  0  0  0
   -1.3593   -0.6196   -0.0536 C   0  0  1  0  0  0  0  0  0  0  0  0
   -0.4622   -1.2317   -0.1545 H   0  0  0  0  0  0  0  0  0  0  0  0
   -1.4074    0.3593   -1.2373 C   0  0  0  0  0  0  0  0  0  0  0  0
   -0.9144   -0.1016   -2.0951 H   0  0  0  0  0  0  0  0  0  0  0  0
   -2.4514    0.5268   -1.5072 H   0  0  0  0  0  0  0  0  0  0  0  0
   -0.7613    1.6889   -0.9908 C   0  0  0  0  0  0  0  0  0  0  0  0
   -1.3795    2.7838   -0.4941 C   0  0  0  0  0  0  0  0  0  0  0  0
   -2.4305    2.8332   -0.2312 H   0  0  0  0  0  0  0  0  0  0  0  0
   -0.4661    3.8107   -0.3572 N   0  0  0  0  0  0  0  0  0  0  0  0
   -0.7061    4.7267   -0.0074 H   0  0  0  0  0  0  0  0  0  0  0  0
    0.7979    3.4208   -0.7459 C   0  0  0  0  0  0  0  0  0  0  0  0
    2.0382    4.0748   -0.7670 C   0  0  0  0  0  0  0  0  0  0  0  0
    2.1227    5.0990   -0.4347 H   0  0  0  0  0  0  0  0  0  0  0  0
    3.1689    3.3794   -1.2284 C   0  0  0  0  0  0  0  0  0  0  0  0
    4.1336    3.8679   -1.2529 H   0  0  0  0  0  0  0  0  0  0  0  0
    3.0431    2.0479   -1.6650 C   0  0  0  0  0  0  0  0  0  0  0  0
    3.9141    1.5193   -2.0270 H   0  0  0  0  0  0  0  0  0  0  0  0
    1.7911    1.4012   -1.6411 C   0  0  0  0  0  0  0  0  0  0  0  0
    1.7060    0.3825   -1.9919 H   0  0  0  0  0  0  0  0  0  0  0  0
    0.6376    2.0701   -1.1777 C   0  0  0  0  0  0  0  0  0  0  0  0
   -1.2663    0.1182    1.2910 C   0  0  0  0  0  0  0  0  0  0  0  0
   -0.1906    0.1931    1.8833 O   0  0  0  0  0  0  0  0  0  0  0  0
   -2.3930    0.6605    1.7722 N   0  0  0  0  0  0  0  0  0  0  0  0
   -3.2451    0.5077    1.2518 H   0  0  0  0  0  0  0  0  0  0  0  0
   -2.4787    1.3954    3.0311 C   0  0  0  0  0  0  0  0  0  0  0  0
   -1.7166    2.1767    3.0539 H   0  0  0  0  0  0  0  0  0  0  0  0
   -3.4649    1.8498    3.1344 H   0  0  0  0  0  0  0  0  0  0  0  0
   -2.3058    0.7133    3.8652 H   0  0  0  0  0  0  0  0  0  0  0  0
  5  6  2  0  0  0  0
  5  7  1  0  0  0  0
  2  3  1  0  0  0  0
  2  4  1  0  0  0  0
  2  5  1  0  0  0  0
  1  2  1  0  0  0  0
 29 30  2  0  0  0  0
 29 31  1  0  0  0  0
 26 27  1  0  0  0  0
 26 28  2  0  0  0  0
 24 25  1  0  0  0  0
 24 26  1  0  0  0  0
 22 23  1  0  0  0  0
 22 24  2  0  0  0  0
 20 21  1  0  0  0  0
 20 22  1  0  0  0  0
 19 20  2  0  0  0  0
 19 28  1  0  0  0  0
 17 18  1  0  0  0  0
 17 19  1  0  0  0  0
 15 16  1  0  0  0  0
 15 17  1  0  0  0  0
 14 15  2  0  0  0  0
 14 28  1  0  0  0  0
 11 12  1  0  0  0  0
 11 13  1  0  0  0  0
 11 14  1  0  0  0  0
  9 10  1  0  0  0  0
  9 11  1  0  0  0  0
  9 29  1  0  0  0  0
  7  8  1  0  0  0  0
  7  9  1  0  0  0  0
 33 34  1  0  0  0  0
 33 35  1  0  0  0  0
 33 36  1  0  0  0  0
 31 32  1  0  0  0  0
 31 33  1  0  0  0  0
M  END
$$$$
default_name
  -OEChem-02102213163D

 36 37  0     1  0  0  0  0  0999 V2000
   -4.0843   -4.0736    1.2944 H   0  0  0  0  0  0  0  0  0  0  0  0
   -4.0342   -3.2816    0.5484 C   0  0  0  0  0  0  0  0  0  0  0  0
   -4.8842   -2.6126    0.6694 H   0  0  0  0  0  0  0  0  0  0  0  0
   -4.0433   -3.7186   -0.4486 H   0  0  0  0  0  0  0  0  0  0  0  0
   -2.7532   -2.5046    0.7444 C   0  0  0  0  0  0  0  0  0  0  0  0
   -1.9803   -2.8096    1.6434 O   0  0  0  0  0  0  0  0  0  0  0  0
   -2.5332   -1.4966   -0.0966 N   0  0  0  0  0  0  0  0  0  0  0  0
   -3.2312   -1.2816   -0.7936 H   0  0  0  0  0  0  0  0  0  0  0  0
   -1.3593   -0.6196   -0.0536 C   0  0  1  0  0  0  0  0  0  0  0  0
   -0.4622   -1.2317   -0.1545 H   0  0  0  0  0  0  0  0  0  0  0  0
   -1.4074    0.3593   -1.2373 C   0  0  0  0  0  0  0  0  0  0  0  0
   -0.9144   -0.1016   -2.0951 H   0  0  0  0  0  0  0  0  0  0  0  0
   -2.4514    0.5268   -1.5072 H   0  0  0  0  0  0  0  0  0  0  0  0
   -0.7613    1.6889   -0.9908 C   0  0  0  0  0  0  0  0  0  0  0  0
   -1.2795    2.6886   -0.2425 C   0  0  0  0  0  0  0  0  0  0  0  0
   -2.2418    2.6511    0.2563 H   0  0  0  0  0  0  0  0  0  0  0  0
   -0.3900    3.7442   -0.1980 N   0  0  0  0  0  0  0  0  0  0  0  0
   -0.5692    4.6029    0.3015 H   0  0  0  0  0  0  0  0  0  0  0  0
    0.7603    3.4688   -0.9064 C   0  0  0  0  0  0  0  0  0  0  0  0
    1.9419    4.1893   -1.1325 C   0  0  0  0  0  0  0  0  0  0  0  0
    2.0710    5.1753   -0.7110 H   0  0  0  0  0  0  0  0  0  0  0  0
    2.9548    3.6110   -1.9165 C   0  0  0  0  0  0  0  0  0  0  0  0
    3.8726    4.1522   -2.1024 H   0  0  0  0  0  0  0  0  0  0  0  0
    2.7705    2.3287   -2.4652 C   0  0  0  0  0  0  0  0  0  0  0  0
    3.5490    1.8910   -3.0747 H   0  0  0  0  0  0  0  0  0  0  0  0
    1.5779    1.6145   -2.2330 C   0  0  0  0  0  0  0  0  0  0  0  0
    1.4438    0.6359   -2.6715 H   0  0  0  0  0  0  0  0  0  0  0  0
    0.5441    2.1651   -1.4449 C   0  0  0  0  0  0  0  0  0  0  0  0
   -1.2663    0.1182    1.2910 C   0  0  0  0  0  0  0  0  0  0  0  0
   -0.1906    0.1931    1.8833 O   0  0  0  0  0  0  0  0  0  0  0  0
   -2.3930    0.6605    1.7722 N   0  0  0  0  0  0  0  0  0  0  0  0
   -3.2451    0.5077    1.2518 H   0  0  0  0  0  0  0  0  0  0  0  0
   -2.4787    1.3954    3.0311 C   0  0  0  0  0  0  0  0  0  0  0  0
   -1.7166    2.1767    3.0539 H   0  0  0  0  0  0  0  0  0  0  0  0
   -3.4649    1.8498    3.1344 H   0  0  0  0  0  0  0  0  0  0  0  0
   -2.3058    0.7133    3.8652 H   0  0  0  0  0  0  0  0  0  0  0  0
  5  6  2  0  0  0  0
  5  7  1  0  0  0  0
  2  3  1  0  0  0  0
  2  4  1  0  0  0  0
  2  5  1  0  0  0  0
  1  2  1  0  0  0  0
 29 30  2  0  0  0  0
 29 31  1  0  0  0  0
 26 27  1  0  0  0  0
 26 28  2  0  0  0  0
 24 25  1  0  0  0  0
 24 26  1  0  0  0  0
 22 23  1  0  0  0  0
 22 24  2  0  0  0  0
 20 21  1  0  0  0  0
 20 22  1  0  0  0  0
 19 20  2  0  0  0  0
 19 28  1  0  0  0  0
 17 18  1  0  0  0  0
 17 19  1  0  0  0  0
 15 16  1  0  0  0  0
 15 17  1  0  0  0  0
 14 15  2  0  0  0  0
 14 28  1  0  0  0  0
 11 12  1  0  0  0  0
 11 13  1  0  0  0  0
 11 14  1  0  0  0  0
  9 10  1  0  0  0  0
  9 11  1  0  0  0  0
  9 29  1  0  0  0  0
  7  8  1  0  0  0  0
  7  9  1  0  0  0  0
 33 34  1  0  0  0  0
 33 35  1  0  0  0  0
 33 36  1  0  0  0  0
 31 32  1  0  0  0  0
 31 33  1  0  0  0  0
M  END
$$$$
default_name
  -OEChem-02102213163D

 36 37  0     1  0  0  0  0  0999 V2000
   -4.0843   -4.0736    1.2944 H   0  0  0  0  0  0  0  0  0  0  0  0
   -4.0342   -3.2816    0.5484 C   0  0  0  0  0  0  0  0  0  0  0  0
   -4.8842   -2.6126    0.6694 H   0  0  0  0  0  0  0  0  0  0  0  0
   -4.0433   -3.7186   -0.4486 H   0  0  0  0  0  0  0  0  0  0  0  0
   -2.7532   -2.5046    0.7444 C   0  0  0  0  0  0  0  0  0  0  0  0
   -1.9803   -2.8096    1.6434 O   0  0  0  0  0  0  0  0  0  0  0  0
   -2.5332   -1.4966   -0.0966 N   0  0  0  0  0  0  0  0  0  0  0  0
   -3.2312   -1.2816   -0.7936 H   0  0  0  0  0  0  0  0  0  0  0  0
   -1.3593   -0.6196   -0.0536 C   0  0  1  0  0  0  0  0  0  0  0  0
   -0.4622   -1.2317   -0.1545 H   0  0  0  0  0  0  0  0  0  0  0  0
   -1.4074    0.3593   -1.2373 C   0  0  0  0  0  0  0  0  0  0  0  0
   -0.9144   -0.1016   -2.0951 H   0  0  0  0  0  0  0  0  0  0  0  0
   -2.4514    0.5268   -1.5072 H   0  0  0  0  0  0  0  0  0  0  0  0
   -0.7613    1.6889   -0.9908 C   0  0  0  0  0  0  0  0  0  0  0  0
   -1.1210    2.5727   -0.0331 C   0  0  0  0  0  0  0  0  0  0  0  0
   -1.9397    2.4289    0.6634 H   0  0  0  0  0  0  0  0  0  0  0  0
   -0.2771    3.6654   -0.0692 N   0  0  0  0  0  0  0  0  0  0  0  0
   -0.3608    4.4547    0.5546 H   0  0  0  0  0  0  0  0  0  0  0  0
    0.6851    3.5315   -1.0475 C   0  0  0  0  0  0  0  0  0  0  0  0
    1.7602    4.3365   -1.4505 C   0  0  0  0  0  0  0  0  0  0  0  0
    1.9543    5.2777   -0.9574 H   0  0  0  0  0  0  0  0  0  0  0  0
    2.5802    3.9024   -2.5061 C   0  0  0  0  0  0  0  0  0  0  0  0
    3.4134    4.5105   -2.8313 H   0  0  0  0  0  0  0  0  0  0  0  0
    2.3115    2.6776   -3.1442 C   0  0  0  0  0  0  0  0  0  0  0  0
    2.9399    2.3513   -3.9614 H   0  0  0  0  0  0  0  0  0  0  0  0
    1.2270    1.8776   -2.7320 C   0  0  0  0  0  0  0  0  0  0  0  0
    1.0237    0.9453   -3.2396 H   0  0  0  0  0  0  0  0  0  0  0  0
    0.3885    2.2826   -1.6710 C   0  0  0  0  0  0  0  0  0  0  0  0
   -1.2663    0.1182    1.2910 C   0  0  0  0  0  0  0  0  0  0  0  0
   -0.1906    0.1931    1.8833 O   0  0  0  0  0  0  0  0  0  0  0  0
   -2.3930    0.6605    1.7722 N   0  0  0  0  0  0  0  0  0  0  0  0
   -3.2451    0.5077    1.2518 H   0  0  0  0  0  0  0  0  0  0  0  0
   -2.4787    1.3954    3.0311 C   0  0  0  0  0  0  0  0  0  0  0  0
   -1.7166    2.1767    3.0539 H   0  0  0  0  0  0  0  0  0  0  0  0
   -3.4649    1.8498    3.1344 H   0  0  0  0  0  0  0  0  0  0  0  0
   -2.3058    0.7133    3.8652 H   0  0  0  0  0  0  0  0  0  0  0  0
  5  6  2  0  0  0  0
  5  7  1  0  0  0  0
  2  3  1  0  0  0  0
  2  4  1  0  0  0  0
  2  5  1  0  0  0  0
  1  2  1  0  0  0  0
 29 30  2  0  0  0  0
 29 31  1  0  0  0  0
 26 27  1  0  0  0  0
 26 28  2  0  0  0  0
 24 25  1  0  0  0  0
 24 26  1  0  0  0  0
 22 23  1  0  0  0  0
 22 24  2  0  0  0  0
 20 21  1  0  0  0  0
 20 22  1  0  0  0  0
 19 20  2  0  0  0  0
 19 28  1  0  0  0  0
 17 18  1  0  0  0  0
 17 19  1  0  0  0  0
 15 16  1  0  0  0  0
 15 17  1  0  0  0  0
 14 15  2  0  0  0  0
 14 28  1  0  0  0  0
 11 12  1  0  0  0  0
 11 13  1  0  0  0  0
 11 14  1  0  0  0  0
  9 10  1  0  0  0  0
  9 11  1  0  0  0  0
  9 29  1  0  0  0  0
  7  8  1  0  0  0  0
  7  9  1  0  0  0  0
 33 34  1  0  0  0  0
 33 35  1  0  0  0  0
 33 36  1  0  0  0  0
 31 32  1  0  0  0  0
 31 33  1  0  0  0  0
M  END
$$$$
default_name
  -OEChem-02102213163D

 36 37  0     1  0  0  0  0  0999 V2000
   -4.0843   -4.0736    1.2944 H   0  0  0  0  0  0  0  0  0  0  0  0
   -4.0342   -3.2816    0.5484 C   0  0  0  0  0  0  0  0  0  0  0  0
   -4.8842   -2.6126    0.6694 H   0  0  0  0  0  0  0  0  0  0  0  0
   -4.0433   -3.7186   -0.4486 H   0  0  0  0  0  0  0  0  0  0  0  0
   -2.7532   -2.5046    0.7444 C   0  0  0  0  0  0  0  0  0  0  0  0
   -1.9803   -2.8096    1.6434 O   0  0  0  0  0  0  0  0  0  0  0  0
   -2.5332   -1.4966   -0.0966 N   0  0  0  0  0  0  0  0  0  0  0  0
   -3.2312   -1.2816   -0.7936 H   0  0  0  0  0  0  0  0  0  0  0  0
   -1.3593   -0.6196   -0.0536 C   0  0  1  0  0  0  0  0  0  0  0  0
   -0.4622   -1.2317   -0.1545 H   0  0  0  0  0  0  0  0  0  0  0  0
   -1.4074    0.3593   -1.2373 C   0  0  0  0  0  0  0  0  0  0  0  0
   -0.9144   -0.1016   -2.0951 H   0  0  0  0  0  0  0  0  0  0  0  0
   -2.4514    0.5268   -1.5072 H   0  0  0  0  0  0  0  0  0  0  0  0
   -0.7613    1.6889   -0.9908 C   0  0  0  0  0  0  0  0  0  0  0  0
   -0.9149    2.4442    0.1199 C   0  0  0  0  0  0  0  0  0  0  0  0
   -1.5451    2.1816    0.9626 H   0  0  0  0  0  0  0  0  0  0  0  0
   -0.1350    3.5798    0.0206 N   0  0  0  0  0  0  0  0  0  0  0  0
   -0.0950    4.2922    0.7348 H   0  0  0  0  0  0  0  0  0  0  0  0
    0.5774    3.6046   -1.1595 C   0  0  0  0  0  0  0  0  0  0  0  0
    1.5053    4.5066   -1.6996 C   0  0  0  0  0  0  0  0  0  0  0  0
    1.7807    5.3991   -1.1573 H   0  0  0  0  0  0  0  0  0  0  0  0
    2.0705    4.2336   -2.9571 C   0  0  0  0  0  0  0  0  0  0  0  0
    2.7871    4.9184   -3.3900 H   0  0  0  0  0  0  0  0  0  0  0  0
    1.6974    3.0709   -3.6557 C   0  0  0  0  0  0  0  0  0  0  0  0
    2.1284    2.8690   -4.6266 H   0  0  0  0  0  0  0  0  0  0  0  0
    0.7622    2.1724   -3.1041 C   0  0  0  0  0  0  0  0  0  0  0  0
    0.4744    1.2896   -3.6573 H   0  0  0  0  0  0  0  0  0  0  0  0
    0.1812    2.4148   -1.8405 C   0  0  0  0  0  0  0  0  0  0  0  0
   -1.2663    0.1182    1.2910 C   0  0  0  0  0  0  0  0  0  0  0  0
   -0.1906    0.1931    1.8833 O   0  0  0  0  0  0  0  0  0  0  0  0
   -2.3930    0.6605    1.7722 N   0  0  0  0  0  0  0  0  0  0  0  0
   -3.2451    0.5077    1.2518 H   0  0  0  0  0  0  0  0  0  0  0  0
   -2.4787    1.3954    3.0311 C   0  0  0  0  0  0  0  0  0  0  0  0
   -1.7166    2.1767    3.0539 H   0  0  0  0  0  0  0  0  0  0  0  0
   -3.4649    1.8498    3.1344 H   0  0  0  0  0  0  0  0  0  0  0  0
   -2.3058    0.7133    3.8652 H   0  0  0  0  0  0  0  0  0  0  0  0
  5  6  2  0  0  0  0
  5  7  1  0  0  0  0
  2  3  1  0  0  0  0
  2  4  1  0  0  0  0
  2  5  1  0  0  0  0
  1  2  1  0  0  0  0
 29 30  2  0  0  0  0
 29 31  1  0  0  0  0
 26 27  1  0  0  0  0
 26 28  2  0  0  0  0
 24 25  1  0  0  0  0
 24 26  1  0  0  0  0
 22 23  1  0  0  0  0
 22 24  2  0  0  0  0
 20 21  1  0  0  0  0
 20 22  1  0  0  0  0
 19 20  2  0  0  0  0
 19 28  1  0  0  0  0
 17 18  1  0  0  0  0
 17 19  1  0  0  0  0
 15 16  1  0  0  0  0
 15 17  1  0  0  0  0
 14 15  2  0  0  0  0
 14 28  1  0  0  0  0
 11 12  1  0  0  0  0
 11 13  1  0  0  0  0
 11 14  1  0  0  0  0
  9 10  1  0  0  0  0
  9 11  1  0  0  0  0
  9 29  1  0  0  0  0
  7  8  1  0  0  0  0
  7  9  1  0  0  0  0
 33 34  1  0  0  0  0
 33 35  1  0  0  0  0
 33 36  1  0  0  0  0
 31 32  1  0  0  0  0
 31 33  1  0  0  0  0
M  END
$$$$
default_name
  -OEChem-02102213163D

 36 37  0     1  0  0  0  0  0999 V2000
   -4.0843   -4.0736    1.2944 H   0  0  0  0  0  0  0  0  0  0  0  0
   -4.0342   -3.2816    0.5484 C   0  0  0  0  0  0  0  0  0  0  0  0
   -4.8842   -2.6126    0.6694 H   0  0  0  0  0  0  0  0  0  0  0  0
   -4.0433   -3.7186   -0.4486 H   0  0  0  0  0  0  0  0  0  0  0  0
   -2.7532   -2.5046    0.7444 C   0  0  0  0  0  0  0  0  0  0  0  0
   -1.9803   -2.8096    1.6434 O   0  0  0  0  0  0  0  0  0  0  0  0
   -2.5332   -1.4966   -0.0966 N   0  0  0  0  0  0  0  0  0  0  0  0
   -3.2312   -1.2816   -0.7936 H   0  0  0  0  0  0  0  0  0  0  0  0
   -1.3593   -0.6196   -0.0536 C   0  0  1  0  0  0  0  0  0  0  0  0
   -0.4622   -1.2317   -0.1545 H   0  0  0  0  0  0  0  0  0  0  0  0
   -1.4074    0.3593   -1.2373 C   0  0  0  0  0  0  0  0  0  0  0  0
   -0.9144   -0.1016   -2.0951 H   0  0  0  0  0  0  0  0  0  0  0  0
   -2.4514    0.5268   -1.5072 H   0  0  0  0  0  0  0  0  0  0  0  0
   -0.7613    1.6889   -0.9908 C   0  0  0  0  0  0  0  0  0  0  0  0
   -0.6752    2.3118    0.2060 C   0  0  0  0  0  0  0  0  0  0  0  0
   -1.0846    1.9262    1.1333 H   0  0  0  0  0  0  0  0  0  0  0  0
    0.0264    3.4930    0.0652 N   0  0  0  0  0  0  0  0  0  0  0  0
    0.2100    4.1264    0.8296 H   0  0  0  0  0  0  0  0  0  0  0  0
    0.4445    3.6832   -1.2348 C   0  0  0  0  0  0  0  0  0  0  0  0
    1.1947    4.6877   -1.8628 C   0  0  0  0  0  0  0  0  0  0  0  0
    1.5620    5.5313   -1.2969 H   0  0  0  0  0  0  0  0  0  0  0  0
    1.4605    4.5822   -3.2387 C   0  0  0  0  0  0  0  0  0  0  0  0
    2.0366    5.3480   -3.7403 H   0  0  0  0  0  0  0  0  0  0  0  0
    0.9700    3.4816   -3.9650 C   0  0  0  0  0  0  0  0  0  0  0  0
    1.1697    3.4087   -5.0251 H   0  0  0  0  0  0  0  0  0  0  0  0
    0.2153    2.4788   -3.3238 C   0  0  0  0  0  0  0  0  0  0  0  0
   -0.1668    1.6455   -3.8961 H   0  0  0  0  0  0  0  0  0  0  0  0
   -0.0635    2.5525   -1.9419 C   0  0  0  0  0  0  0  0  0  0  0  0
   -1.2663    0.1182    1.2910 C   0  0  0  0  0  0  0  0  0  0  0  0
   -0.1906    0.1931    1.8833 O   0  0  0  0  0  0  0  0  0  0  0  0
   -2.3930    0.6605    1.7722 N   0  0  0  0  0  0  0  0  0  0  0  0
   -3.2451    0.5077    1.2518 H   0  0  0  0  0  0  0  0  0  0  0  0
   -2.4787    1.3954    3.0311 C   0  0  0  0  0  0  0  0  0  0  0  0
   -1.7166    2.1767    3.0539 H   0  0  0  0  0  0  0  0  0  0  0  0
   -3.4649    1.8498    3.1344 H   0  0  0  0  0  0  0  0  0  0  0  0
   -2.3058    0.7133    3.8652 H   0  0  0  0  0  0  0  0  0  0  0  0
  5  6  2  0  0  0  0
  5  7  1  0  0  0  0
  2  3  1  0  0  0  0
  2  4  1  0  0  0  0
  2  5  1  0  0  0  0
  1  2  1  0  0  0  0
 29 30  2  0  0  0  0
 29 31  1  0  0  0  0
 26 27  1  0  0  0  0
 26 28  2  0  0  0  0
 24 25  1  0  0  0  0
 24 26  1  0  0  0  0
 22 23  1  0  0  0  0
 22 24  2  0  0  0  0
 20 21  1  0  0  0  0
 20 22  1  0  0  0  0
 19 20  2  0  0  0  0
 19 28  1  0  0  0  0
 17 18  1  0  0  0  0
 17 19  1  0  0  0  0
 15 16  1  0  0  0  0
 15 17  1  0  0  0  0
 14 15  2  0  0  0  0
 14 28  1  0  0  0  0
 11 12  1  0  0  0  0
 11 13  1  0  0  0  0
 11 14  1  0  0  0  0
  9 10  1  0  0  0  0
  9 11  1  0  0  0  0
  9 29  1  0  0  0  0
  7  8  1  0  0  0  0
  7  9  1  0  0  0  0
 33 34  1  0  0  0  0
 33 35  1  0  0  0  0
 33 36  1  0  0  0  0
 31 32  1  0  0  0  0
 31 33  1  0  0  0  0
M  END
$$$$
default_name
  -OEChem-02102213163D

 36 37  0     1  0  0  0  0  0999 V2000
   -4.0843   -4.0736    1.2944 H   0  0  0  0  0  0  0  0  0  0  0  0
   -4.0342   -3.2816    0.5484 C   0  0  0  0  0  0  0  0  0  0  0  0
   -4.8842   -2.6126    0.6694 H   0  0  0  0  0  0  0  0  0  0  0  0
   -4.0433   -3.7186   -0.4486 H   0  0  0  0  0  0  0  0  0  0  0  0
   -2.7532   -2.5046    0.7444 C   0  0  0  0  0  0  0  0  0  0  0  0
   -1.9803   -2.8096    1.6434 O   0  0  0  0  0  0  0  0  0  0  0  0
   -2.5332   -1.4966   -0.0966 N   0  0  0  0  0  0  0  0  0  0  0  0
   -3.2312   -1.2816   -0.7936 H   0  0  0  0  0  0  0  0  0  0  0  0
   -1.3593   -0.6196   -0.0536 C   0  0  1  0  0  0  0  0  0  0  0  0
   -0.4622   -1.2317   -0.1545 H   0  0  0  0  0  0  0  0  0  0  0  0
   -1.4074    0.3593   -1.2373 C   0  0  0  0  0  0  0  0  0  0  0  0
   -0.9144   -0.1016   -2.0951 H   0  0  0  0  0  0  0  0  0  0  0  0
   -2.4514    0.5268   -1.5072 H   0  0  0  0  0  0  0  0  0  0  0  0
   -0.7613    1.6889   -0.9908 C   0  0  0  0  0  0  0  0  0  0  0  0
   -0.4183    2.1845    0.2194 C   0  0  0  0  0  0  0  0  0  0  0  0
   -0.5898    1.6801    1.1640 H   0  0  0  0  0  0  0  0  0  0  0  0
    0.1963    3.4112    0.0614 N   0  0  0  0  0  0  0  0  0  0  0  0
    0.5334    3.9687    0.8326 H   0  0  0  0  0  0  0  0  0  0  0  0
    0.2955    3.7617   -1.2682 C   0  0  0  0  0  0  0  0  0  0  0  0
    0.8496    4.8677   -1.9288 C   0  0  0  0  0  0  0  0  0  0  0  0
    1.3129    5.6653   -1.3668 H   0  0  0  0  0  0  0  0  0  0  0  0
    0.7917    4.9244   -3.3318 C   0  0  0  0  0  0  0  0  0  0  0  0
    1.2129    5.7702   -3.8584 H   0  0  0  0  0  0  0  0  0  0  0  0
    0.1789    3.8820   -4.0508 C   0  0  0  0  0  0  0  0  0  0  0  0
    0.1292    3.9337   -5.1297 H   0  0  0  0  0  0  0  0  0  0  0  0
   -0.3765    2.7761   -3.3763 C   0  0  0  0  0  0  0  0  0  0  0  0
   -0.8562    1.9886   -3.9400 H   0  0  0  0  0  0  0  0  0  0  0  0
   -0.3291    2.6864   -1.9682 C   0  0  0  0  0  0  0  0  0  0  0  0
   -1.2663    0.1182    1.2910 C   0  0  0  0  0  0  0  0  0  0  0  0
   -0.1906    0.1931    1.8833 O   0  0  0  0  0  0  0  0  0  0  0  0
   -2.3930    0.6605    1.7722 N   0  0  0  0  0  0  0  0  0  0  0  0
   -3.2451    0.5077    1.2518 H   0  0  0  0  0  0  0  0  0  0  0  0
   -2.4787    1.3954    3.0311 C   0  0  0  0  0  0  0  0  0  0  0  0
   -1.7166    2.1767    3.0539 H   0  0  0  0  0  0  0  0  0  0  0  0
   -3.4649    1.8498    3.1344 H   0  0  0  0  0  0  0  0  0  0  0  0
   -2.3058    0.7133    3.8652 H   0  0  0  0  0  0  0  0  0  0  0  0
  5  6  2  0  0  0  0
  5  7  1  0  0  0  0
  2  3  1  0  0  0  0
  2  4  1  0  0  0  0
  2  5  1  0  0  0  0
  1  2  1  0  0  0  0
 29 30  2  0  0  0  0
 29 31  1  0  0  0  0
 26 27  1  0  0  0  0
 26 28  2  0  0  0  0
 24 25  1  0  0  0  0
 24 26  1  0  0  0  0
 22 23  1  0  0  0  0
 22 24  2  0  0  0  0
 20 21  1  0  0  0  0
 20 22  1  0  0  0  0
 19 20  2  0  0  0  0
 19 28  1  0  0  0  0
 17 18  1  0  0  0  0
 17 19  1  0  0  0  0
 15 16  1  0  0  0  0
 15 17  1  0  0  0  0
 14 15  2  0  0  0  0
 14 28  1  0  0  0  0
 11 12  1  0  0  0  0
 11 13  1  0  0  0  0
 11 14  1  0  0  0  0
  9 10  1  0  0  0  0
  9 11  1  0  0  0  0
  9 29  1  0  0  0  0
  7  8  1  0  0  0  0
  7  9  1  0  0  0  0
 33 34  1  0  0  0  0
 33 35  1  0  0  0  0
 33 36  1  0  0  0  0
 31 32  1  0  0  0  0
 31 33  1  0  0  0  0
M  END
$$$$
default_name
  -OEChem-02102213163D

 36 37  0     1  0  0  0  0  0999 V2000
   -4.0843   -4.0736    1.2944 H   0  0  0  0  0  0  0  0  0  0  0  0
   -4.0342   -3.2816    0.5484 C   0  0  0  0  0  0  0  0  0  0  0  0
   -4.8842   -2.6126    0.6694 H   0  0  0  0  0  0  0  0  0  0  0  0
   -4.0433   -3.7186   -0.4486 H   0  0  0  0  0  0  0  0  0  0  0  0
   -2.7532   -2.5046    0.7444 C   0  0  0  0  0  0  0  0  0  0  0  0
   -1.9803   -2.8096    1.6434 O   0  0  0  0  0  0  0  0  0  0  0  0
   -2.5332   -1.4966   -0.0966 N   0  0  0  0  0  0  0  0  0  0  0  0
   -3.2312   -1.2816   -0.7936 H   0  0  0  0  0  0  0  0  0  0  0  0
   -1.3593   -0.6196   -0.0536 C   0  0  1  0  0  0  0  0  0  0  0  0
   -0.4622   -1.2317   -0.1545 H   0  0  0  0  0  0  0  0  0  0  0  0
   -1.4074    0.3593   -1.2373 C   0  0  0  0  0  0  0  0  0  0  0  0
   -0.9144   -0.1016   -2.0951 H   0  0  0  0  0  0  0  0  0  0  0  0
   -2.4514    0.5268   -1.5072 H   0  0  0  0  0  0  0  0  0  0  0  0
   -0.7613    1.6889   -0.9908 C   0  0  0  0  0  0  0  0  0  0  0  0
   -0.1617    2.0710    0.1591 C   0  0  0  0  0  0  0  0  0  0  0  0
   -0.0943    1.4600    1.0526 H   0  0  0  0  0  0  0  0  0  0  0  0
    0.3630    3.3398    0.0097 N   0  0  0  0  0  0  0  0  0  0  0  0
    0.8533    3.8298    0.7437 H   0  0  0  0  0  0  0  0  0  0  0  0
    0.1406    3.8351   -1.2576 C   0  0  0  0  0  0  0  0  0  0  0  0
    0.4933    5.0342   -1.8932 C   0  0  0  0  0  0  0  0  0  0  0  0
    1.0507    5.7918   -1.3622 H   0  0  0  0  0  0  0  0  0  0  0  0
    0.1099    5.2369   -3.2300 C   0  0  0  0  0  0  0  0  0  0  0  0
    0.3722    6.1560   -3.7362 H   0  0  0  0  0  0  0  0  0  0  0  0
   -0.6220    4.2445   -3.9074 C   0  0  0  0  0  0  0  0  0  0  0  0
   -0.9222    4.4081   -4.9332 H   0  0  0  0  0  0  0  0  0  0  0  0
   -0.9728    3.0439   -3.2579 C   0  0  0  0  0  0  0  0  0  0  0  0
   -1.5467    2.2955   -3.7857 H   0  0  0  0  0  0  0  0  0  0  0  0
   -0.5973    2.8074   -1.9178 C   0  0  0  0  0  0  0  0  0  0  0  0
   -1.2663    0.1182    1.2910 C   0  0  0  0  0  0  0  0  0  0  0  0
   -0.1906    0.1931    1.8833 O   0  0  0  0  0  0  0  0  0  0  0  0
   -2.3930    0.6605    1.7722 N   0  0  0  0  0  0  0  0  0  0  0  0
   -3.2451    0.5077    1.2518 H   0  0  0  0  0  0  0  0  0  0  0  0
   -2.4787    1.3954    3.0311 C   0  0  0  0  0  0  0  0  0  0  0  0
   -1.7166    2.1767    3.0539 H   0  0  0  0  0  0  0  0  0  0  0  0
   -3.4649    1.8498    3.1344 H   0  0  0  0  0  0  0  0  0  0  0  0
   -2.3058    0.7133    3.8652 H   0  0  0  0  0  0  0  0  0  0  0  0
  5  6  2  0  0  0  0
  5  7  1  0  0  0  0
  2  3  1  0  0  0  0
  2  4  1  0  0  0  0
  2  5  1  0  0  0  0
  1  2  1  0  0  0  0
 29 30  2  0  0  0  0
 29 31  1  0  0  0  0
 26 27  1  0  0  0  0
 26 28  2  0  0  0  0
 24 25  1  0  0  0  0
 24 26  1  0  0  0  0
 22 23  1  0  0  0  0
 22 24  2  0  0  0  0
 20 21  1  0  0  0  0
 20 22  1  0  0  0  0
 19 20  2  0  0  0  0
 19 28  1  0  0  0  0
 17 18  1  0  0  0  0
 17 19  1  0  0  0  0
 15 16  1  0  0  0  0
 15 17  1  0  0  0  0
 14 15  2  0  0  0  0
 14 28  1  0  0  0  0
 11 12  1  0  0  0  0
 11 13  1  0  0  0  0
 11 14  1  0  0  0  0
  9 10  1  0  0  0  0
  9 11  1  0  0  0  0
  9 29  1  0  0  0  0
  7  8  1  0  0  0  0
  7  9  1  0  0  0  0
 33 34  1  0  0  0  0
 33 35  1  0  0  0  0
 33 36  1  0  0  0  0
 31 32  1  0  0  0  0
 31 33  1  0  0  0  0
M  END
$$$$
default_name
  -OEChem-02102213163D

 36 37  0     1  0  0  0  0  0999 V2000
   -4.0843   -4.0736    1.2944 H   0  0  0  0  0  0  0  0  0  0  0  0
   -4.0342   -3.2816    0.5484 C   0  0  0  0  0  0  0  0  0  0  0  0
   -4.8842   -2.6126    0.6694 H   0  0  0  0  0  0  0  0  0  0  0  0
   -4.0433   -3.7186   -0.4486 H   0  0  0  0  0  0  0  0  0  0  0  0
   -2.7532   -2.5046    0.7444 C   0  0  0  0  0  0  0  0  0  0  0  0
   -1.9803   -2.8096    1.6434 O   0  0  0  0  0  0  0  0  0  0  0  0
   -2.5332   -1.4966   -0.0966 N   0  0  0  0  0  0  0  0  0  0  0  0
   -3.2312   -1.2816   -0.7936 H   0  0  0  0  0  0  0  0  0  0  0  0
   -1.3593   -0.6196   -0.0536 C   0  0  1  0  0  0  0  0  0  0  0  0
   -0.4622   -1.2317   -0.1545 H   0  0  0  0  0  0  0  0  0  0  0  0
   -1.4074    0.3593   -1.2373 C   0  0  0  0  0  0  0  0  0  0  0  0
   -0.9144   -0.1016   -2.0951 H   0  0  0  0  0  0  0  0  0  0  0  0
   -2.4514    0.5268   -1.5072 H   0  0  0  0  0  0  0  0  0  0  0  0
   -0.7613    1.6889   -0.9908 C   0  0  0  0  0  0  0  0  0  0  0  0
    0.0772    1.9790    0.0292 C   0  0  0  0  0  0  0  0  0  0  0  0
    0.3681    1.2809    0.8066 H   0  0  0  0  0  0  0  0  0  0  0  0
    0.5152    3.2837   -0.0865 N   0  0  0  0  0  0  0  0  0  0  0  0
    1.1477    3.7191    0.5688 H   0  0  0  0  0  0  0  0  0  0  0  0
   -0.0098    3.8981   -1.2035 C   0  0  0  0  0  0  0  0  0  0  0  0
    0.1503    5.1759   -1.7585 C   0  0  0  0  0  0  0  0  0  0  0  0
    0.7930    5.9024   -1.2834 H   0  0  0  0  0  0  0  0  0  0  0  0
   -0.5387    5.4983   -2.9402 C   0  0  0  0  0  0  0  0  0  0  0  0
   -0.4283    6.4793   -3.3821 H   0  0  0  0  0  0  0  0  0  0  0  0
   -1.3782    4.5446   -3.5445 C   0  0  0  0  0  0  0  0  0  0  0  0
   -1.9128    4.7997   -4.4490 H   0  0  0  0  0  0  0  0  0  0  0  0
   -1.5330    3.2640   -2.9768 C   0  0  0  0  0  0  0  0  0  0  0  0
   -2.1914    2.5454   -3.4439 H   0  0  0  0  0  0  0  0  0  0  0  0
   -0.8500    2.9072   -1.7939 C   0  0  0  0  0  0  0  0  0  0  0  0
   -1.2663    0.1182    1.2910 C   0  0  0  0  0  0  0  0  0  0  0  0
   -0.1906    0.1931    1.8833 O   0  0  0  0  0  0  0  0  0  0  0  0
   -2.3930    0.6605    1.7722 N   0  0  0  0  0  0  0  0  0  0  0  0
   -3.2451    0.5077    1.2518 H   0  0  0  0  0  0  0  0  0  0  0  0
   -2.4787    1.3954    3.0311 C   0  0  0  0  0  0  0  0  0  0  0  0
   -1.7166    2.1767    3.0539 H   0  0  0  0  0  0  0  0  0  0  0  0
   -3.4649    1.8498    3.1344 H   0  0  0  0  0  0  0  0  0  0  0  0
   -2.3058    0.7133    3.8652 H   0  0  0  0  0  0  0  0  0  0  0  0
  5  6  2  0  0  0  0
  5  7  1  0  0  0  0
  2  3  1  0  0  0  0
  2  4  1  0  0  0  0
  2  5  1  0  0  0  0
  1  2  1  0  0  0  0
 29 30  2  0  0  0  0
 29 31  1  0  0  0  0
 26 27  1  0  0  0  0
 26 28  2  0  0  0  0
 24 25  1  0  0  0  0
 24 26  1  0  0  0  0
 22 23  1  0  0  0  0
 22 24  2  0  0  0  0
 20 21  1  0  0  0  0
 20 22  1  0  0  0  0
 19 20  2  0  0  0  0
 19 28  1  0  0  0  0
 17 18  1  0  0  0  0
 17 19  1  0  0  0  0
 15 16  1  0  0  0  0
 15 17  1  0  0  0  0
 14 15  2  0  0  0  0
 14 28  1  0  0  0  0
 11 12  1  0  0  0  0
 11 13  1  0  0  0  0
 11 14  1  0  0  0  0
  9 10  1  0  0  0  0
  9 11  1  0  0  0  0
  9 29  1  0  0  0  0
  7  8  1  0  0  0  0
  7  9  1  0  0  0  0
 33 34  1  0  0  0  0
 33 35  1  0  0  0  0
 33 36  1  0  0  0  0
 31 32  1  0  0  0  0
 31 33  1  0  0  0  0
M  END
$$$$
default_name
  -OEChem-02102213163D

 36 37  0     1  0  0  0  0  0999 V2000
   -4.0843   -4.0736    1.2944 H   0  0  0  0  0  0  0  0  0  0  0  0
   -4.0342   -3.2816    0.5484 C   0  0  0  0  0  0  0  0  0  0  0  0
   -4.8842   -2.6126    0.6694 H   0  0  0  0  0  0  0  0  0  0  0  0
   -4.0433   -3.7186   -0.4486 H   0  0  0  0  0  0  0  0  0  0  0  0
   -2.7532   -2.5046    0.7444 C   0  0  0  0  0  0  0  0  0  0  0  0
   -1.9803   -2.8096    1.6434 O   0  0  0  0  0  0  0  0  0  0  0  0
   -2.5332   -1.4966   -0.0966 N   0  0  0  0  0  0  0  0  0  0  0  0
   -3.2312   -1.2816   -0.7936 H   0  0  0  0  0  0  0  0  0  0  0  0
   -1.3593   -0.6196   -0.0536 C   0  0  1  0  0  0  0  0  0  0  0  0
   -0.4622   -1.2317   -0.1545 H   0  0  0  0  0  0  0  0  0  0  0  0
   -1.4074    0.3593   -1.2373 C   0  0  0  0  0  0  0  0  0  0  0  0
   -0.9144   -0.1016   -2.0951 H   0  0  0  0  0  0  0  0  0  0  0  0
   -2.4514    0.5268   -1.5072 H   0  0  0  0  0  0  0  0  0  0  0  0
   -0.7613    1.6889   -0.9908 C   0  0  0  0  0  0  0  0  0  0  0  0
    0.2821    1.9148   -0.1613 C   0  0  0  0  0  0  0  0  0  0  0  0
    0.7659    1.1551    0.4429 H   0  0  0  0  0  0  0  0  0  0  0  0
    0.6425    3.2467   -0.2207 N   0  0  0  0  0  0  0  0  0  0  0  0
    1.3966    3.6443    0.3200 H   0  0  0  0  0  0  0  0  0  0  0  0
   -0.1452    3.9465   -1.1098 C   0  0  0  0  0  0  0  0  0  0  0  0
   -0.1562    5.2831   -1.5338 C   0  0  0  0  0  0  0  0  0  0  0  0
    0.5575    5.9895   -1.1358 H   0  0  0  0  0  0  0  0  0  0  0  0
   -1.1097    5.6908   -2.4822 C   0  0  0  0  0  0  0  0  0  0  0  0
   -1.1339    6.7180   -2.8202 H   0  0  0  0  0  0  0  0  0  0  0  0
   -2.0380    4.7619   -2.9869 C   0  0  0  0  0  0  0  0  0  0  0  0
   -2.7752    5.0818   -3.7102 H   0  0  0  0  0  0  0  0  0  0  0  0
   -2.0190    3.4214   -2.5521 C   0  0  0  0  0  0  0  0  0  0  0  0
   -2.7462    2.7212   -2.9378 H   0  0  0  0  0  0  0  0  0  0  0  0
   -1.0699    2.9791   -1.6052 C   0  0  0  0  0  0  0  0  0  0  0  0
   -1.2663    0.1182    1.2910 C   0  0  0  0  0  0  0  0  0  0  0  0
   -0.1906    0.1931    1.8833 O   0  0  0  0  0  0  0  0  0  0  0  0
   -2.3930    0.6605    1.7722 N   0  0  0  0  0  0  0  0  0  0  0  0
   -3.2451    0.5077    1.2518 H   0  0  0  0  0  0  0  0  0  0  0  0
   -2.4787    1.3954    3.0311 C   0  0  0  0  0  0  0  0  0  0  0  0
   -1.7166    2.1767    3.0539 H   0  0  0  0  0  0  0  0  0  0  0  0
   -3.4649    1.8498    3.1344 H   0  0  0  0  0  0  0  0  0  0  0  0
   -2.3058    0.7133    3.8652 H   0  0  0  0  0  0  0  0  0  0  0  0
  5  6  2  0  0  0  0
  5  7  1  0  0  0  0
  2  3  1  0  0  0  0
  2  4  1  0  0  0  0
  2  5  1  0  0  0  0
  1  2  1  0  0  0  0
 29 30  2  0  0  0  0
 29 31  1  0  0  0  0
 26 27  1  0  0  0  0
 26 28  2  0  0  0  0
 24 25  1  0  0  0  0
 24 26  1  0  0  0  0
 22 23  1  0  0  0  0
 22 24  2  0  0  0  0
 20 21  1  0  0  0  0
 20 22  1  0  0  0  0
 19 20  2  0  0  0  0
 19 28  1  0  0  0  0
 17 18  1  0  0  0  0
 17 19  1  0  0  0  0
 15 16  1  0  0  0  0
 15 17  1  0  0  0  0
 14 15  2  0  0  0  0
 14 28  1  0  0  0  0
 11 12  1  0  0  0  0
 11 13  1  0  0  0  0
 11 14  1  0  0  0  0
  9 10  1  0  0  0  0
  9 11  1  0  0  0  0
  9 29  1  0  0  0  0
  7  8  1  0  0  0  0
  7  9  1  0  0  0  0
 33 34  1  0  0  0  0
 33 35  1  0  0  0  0
 33 36  1  0  0  0  0
 31 32  1  0  0  0  0
 31 33  1  0  0  0  0
M  END
$$$$
default_name
  -OEChem-02102213163D

 36 37  0     1  0  0  0  0  0999 V2000
   -4.0843   -4.0736    1.2944 H   0  0  0  0  0  0  0  0  0  0  0  0
   -4.0342   -3.2816    0.5484 C   0  0  0  0  0  0  0  0  0  0  0  0
   -4.8842   -2.6126    0.6694 H   0  0  0  0  0  0  0  0  0  0  0  0
   -4.0433   -3.7186   -0.4486 H   0  0  0  0  0  0  0  0  0  0  0  0
   -2.7532   -2.5046    0.7444 C   0  0  0  0  0  0  0  0  0  0  0  0
   -1.9803   -2.8096    1.6434 O   0  0  0  0  0  0  0  0  0  0  0  0
   -2.5332   -1.4966   -0.0966 N   0  0  0  0  0  0  0  0  0  0  0  0
   -3.2312   -1.2816   -0.7936 H   0  0  0  0  0  0  0  0  0  0  0  0
   -1.3593   -0.6196   -0.0536 C   0  0  1  0  0  0  0  0  0  0  0  0
   -0.4622   -1.2317   -0.1545 H   0  0  0  0  0  0  0  0  0  0  0  0
   -1.4074    0.3593   -1.2373 C   0  0  0  0  0  0  0  0  0  0  0  0
   -0.9144   -0.1016   -2.0951 H   0  0  0  0  0  0  0  0  0  0  0  0
   -2.4514    0.5268   -1.5072 H   0  0  0  0  0  0  0  0  0  0  0  0
   -0.7613    1.6889   -0.9908 C   0  0  0  0  0  0  0  0  0  0  0  0
    0.4389    1.8827   -0.3995 C   0  0  0  0  0  0  0  0  0  0  0  0
    1.0719    1.0911   -0.0139 H   0  0  0  0  0  0  0  0  0  0  0  0
    0.7362    3.2314   -0.3836 N   0  0  0  0  0  0  0  0  0  0  0  0
    1.5832    3.6104    0.0141 H   0  0  0  0  0  0  0  0  0  0  0  0
   -0.2566    3.9771   -0.9827 C   0  0  0  0  0  0  0  0  0  0  0  0
   -0.4051    5.3486   -1.2344 C   0  0  0  0  0  0  0  0  0  0  0  0
    0.3602    6.0471   -0.9295 H   0  0  0  0  0  0  0  0  0  0  0  0
   -1.5643    5.8014   -1.8872 C   0  0  0  0  0  0  0  0  0  0  0  0
   -1.6966    6.8558   -2.0888 H   0  0  0  0  0  0  0  0  0  0  0  0
   -2.5565    4.8814   -2.2725 C   0  0  0  0  0  0  0  0  0  0  0  0
   -3.4506    5.2350   -2.7670 H   0  0  0  0  0  0  0  0  0  0  0  0
   -2.3975    3.5053   -2.0126 C   0  0  0  0  0  0  0  0  0  0  0  0
   -3.1735    2.8109   -2.3020 H   0  0  0  0  0  0  0  0  0  0  0  0
   -1.2420    3.0180   -1.3643 C   0  0  0  0  0  0  0  0  0  0  0  0
   -1.2663    0.1182    1.2910 C   0  0  0  0  0  0  0  0  0  0  0  0
   -0.1906    0.1931    1.8833 O   0  0  0  0  0  0  0  0  0  0  0  0
   -2.3930    0.6605    1.7722 N   0  0  0  0  0  0  0  0  0  0  0  0
   -3.2451    0.5077    1.2518 H   0  0  0  0  0  0  0  0  0  0  0  0
   -2.4787    1.3954    3.0311 C   0  0  0  0  0  0  0  0  0  0  0  0
   -1.7166    2.1767    3.0539 H   0  0  0  0  0  0  0  0  0  0  0  0
   -3.4649    1.8498    3.1344 H   0  0  0  0  0  0  0  0  0  0  0  0
   -2.3058    0.7133    3.8652 H   0  0  0  0  0  0  0  0  0  0  0  0
  5  6  2  0  0  0  0
  5  7  1  0  0  0  0
  2  3  1  0  0  0  0
  2  4  1  0  0  0  0
  2  5  1  0  0  0  0
  1  2  1  0  0  0  0
 29 30  2  0  0  0  0
 29 31  1  0  0  0  0
 26 27  1  0  0  0  0
 26 28  2  0  0  0  0
 24 25  1  0  0  0  0
 24 26  1  0  0  0  0
 22 23  1  0  0  0  0
 22 24  2  0  0  0  0
 20 21  1  0  0  0  0
 20 22  1  0  0  0  0
 19 20  2  0  0  0  0
 19 28  1  0  0  0  0
 17 18  1  0  0  0  0
 17 19  1  0  0  0  0
 15 16  1  0  0  0  0
 15 17  1  0  0  0  0
 14 15  2  0  0  0  0
 14 28  1  0  0  0  0
 11 12  1  0  0  0  0
 11 13  1  0  0  0  0
 11 14  1  0  0  0  0
  9 10  1  0  0  0  0
  9 11  1  0  0  0  0
  9 29  1  0  0  0  0
  7  8  1  0  0  0  0
  7  9  1  0  0  0  0
 33 34  1  0  0  0  0
 33 35  1  0  0  0  0
 33 36  1  0  0  0  0
 31 32  1  0  0  0  0
 31 33  1  0  0  0  0
M  END
$$$$
default_name
  -OEChem-02102213163D

 36 37  0     1  0  0  0  0  0999 V2000
   -4.0843   -4.0736    1.2944 H   0  0  0  0  0  0  0  0  0  0  0  0
   -4.0342   -3.2816    0.5484 C   0  0  0  0  0  0  0  0  0  0  0  0
   -4.8842   -2.6126    0.6694 H   0  0  0  0  0  0  0  0  0  0  0  0
   -4.0433   -3.7186   -0.4486 H   0  0  0  0  0  0  0  0  0  0  0  0
   -2.7532   -2.5046    0.7444 C   0  0  0  0  0  0  0  0  0  0  0  0
   -1.9803   -2.8096    1.6434 O   0  0  0  0  0  0  0  0  0  0  0  0
   -2.5332   -1.4966   -0.0966 N   0  0  0  0  0  0  0  0  0  0  0  0
   -3.2312   -1.2816   -0.7936 H   0  0  0  0  0  0  0  0  0  0  0  0
   -1.3593   -0.6196   -0.0536 C   0  0  1  0  0  0  0  0  0  0  0  0
   -0.4622   -1.2317   -0.1545 H   0  0  0  0  0  0  0  0  0  0  0  0
   -1.4074    0.3593   -1.2373 C   0  0  0  0  0  0  0  0  0  0  0  0
   -0.9144   -0.1016   -2.0951 H   0  0  0  0  0  0  0  0  0  0  0  0
   -2.4514    0.5268   -1.5072 H   0  0  0  0  0  0  0  0  0  0  0  0
   -0.7613    1.6889   -0.9908 C   0  0  0  0  0  0  0  0  0  0  0  0
    0.5371    1.8850   -0.6692 C   0  0  0  0  0  0  0  0  0  0  0  0
    1.2654    1.0932   -0.5325 H   0  0  0  0  0  0  0  0  0  0  0  0
    0.7900    3.2387   -0.5642 N   0  0  0  0  0  0  0  0  0  0  0  0
    1.6945    3.6197   -0.3279 H   0  0  0  0  0  0  0  0  0  0  0  0
   -0.3363    3.9877   -0.8310 C   0  0  0  0  0  0  0  0  0  0  0  0
   -0.5796    5.3678   -0.8807 C   0  0  0  0  0  0  0  0  0  0  0  0
    0.2146    6.0713   -0.6784 H   0  0  0  0  0  0  0  0  0  0  0  0
   -1.8716    5.8225   -1.1957 C   0  0  0  0  0  0  0  0  0  0  0  0
   -2.0781    6.8834   -1.2377 H   0  0  0  0  0  0  0  0  0  0  0  0
   -2.8984    4.8950   -1.4501 C   0  0  0  0  0  0  0  0  0  0  0  0
   -3.8929    5.2491   -1.6838 H   0  0  0  0  0  0  0  0  0  0  0  0
   -2.6429    3.5101   -1.3953 C   0  0  0  0  0  0  0  0  0  0  0  0
   -3.4439    2.8084   -1.5797 H   0  0  0  0  0  0  0  0  0  0  0  0
   -1.3546    3.0215   -1.0878 C   0  0  0  0  0  0  0  0  0  0  0  0
   -1.2663    0.1182    1.2910 C   0  0  0  0  0  0  0  0  0  0  0  0
   -0.1906    0.1931    1.8833 O   0  0  0  0  0  0  0  0  0  0  0  0
   -2.3930    0.6605    1.7722 N   0  0  0  0  0  0  0  0  0  0  0  0
   -3.2451    0.5077    1.2518 H   0  0  0  0  0  0  0  0  0  0  0  0
   -2.4787    1.3954    3.0311 C   0  0  0  0  0  0  0  0  0  0  0  0
   -1.7166    2.1767    3.0539 H   0  0  0  0  0  0  0  0  0  0  0  0
   -3.4649    1.8498    3.1344 H   0  0  0  0  0  0  0  0  0  0  0  0
   -2.3058    0.7133    3.8652 H   0  0  0  0  0  0  0  0  0  0  0  0
  5  6  2  0  0  0  0
  5  7  1  0  0  0  0
  2  3  1  0  0  0  0
  2  4  1  0  0  0  0
  2  5  1  0  0  0  0
  1  2  1  0  0  0  0
 29 30  2  0  0  0  0
 29 31  1  0  0  0  0
 26 27  1  0  0  0  0
 26 28  2  0  0  0  0
 24 25  1  0  0  0  0
 24 26  1  0  0  0  0
 22 23  1  0  0  0  0
 22 24  2  0  0  0  0
 20 21  1  0  0  0  0
 20 22  1  0  0  0  0
 19 20  2  0  0  0  0
 19 28  1  0  0  0  0
 17 18  1  0  0  0  0
 17 19  1  0  0  0  0
 15 16  1  0  0  0  0
 15 17  1  0  0  0  0
 14 15  2  0  0  0  0
 14 28  1  0  0  0  0
 11 12  1  0  0  0  0
 11 13  1  0  0  0  0
 11 14  1  0  0  0  0
  9 10  1  0  0  0  0
  9 11  1  0  0  0  0
  9 29  1  0  0  0  0
  7  8  1  0  0  0  0
  7  9  1  0  0  0  0
 33 34  1  0  0  0  0
 33 35  1  0  0  0  0
 33 36  1  0  0  0  0
 31 32  1  0  0  0  0
 31 33  1  0  0  0  0
M  END
$$$$
default_name
  -OEChem-02102213163D

 36 37  0     1  0  0  0  0  0999 V2000
   -4.0843   -4.0736    1.2944 H   0  0  0  0  0  0  0  0  0  0  0  0
   -4.0342   -3.2816    0.5484 C   0  0  0  0  0  0  0  0  0  0  0  0
   -4.8842   -2.6126    0.6694 H   0  0  0  0  0  0  0  0  0  0  0  0
   -4.0433   -3.7186   -0.4486 H   0  0  0  0  0  0  0  0  0  0  0  0
   -2.7532   -2.5046    0.7444 C   0  0  0  0  0  0  0  0  0  0  0  0
   -1.9803   -2.8096    1.6434 O   0  0  0  0  0  0  0  0  0  0  0  0
   -2.5332   -1.4966   -0.0966 N   0  0  0  0  0  0  0  0  0  0  0  0
   -3.2312   -1.2816   -0.7936 H   0  0  0  0  0  0  0  0  0  0  0  0
   -1.3593   -0.6196   -0.0536 C   0  0  1  0  0  0  0  0  0  0  0  0
   -0.4622   -1.2317   -0.1545 H   0  0  0  0  0  0  0  0  0  0  0  0
   -1.4074    0.3593   -1.2373 C   0  0  0  0  0  0  0  0  0  0  0  0
   -0.9144   -0.1016   -2.0951 H   0  0  0  0  0  0  0  0  0  0  0  0
   -2.4514    0.5268   -1.5072 H   0  0  0  0  0  0  0  0  0  0  0  0
   -0.7613    1.6889   -0.9908 C   0  0  0  0  0  0  0  0  0  0  0  0
    0.5699    1.9215   -0.9521 C   0  0  0  0  0  0  0  0  0  0  0  0
    1.3331    1.1614   -1.0776 H   0  0  0  0  0  0  0  0  0  0  0  0
    0.8002    3.2683   -0.7502 N   0  0  0  0  0  0  0  0  0  0  0  0
    1.7232    3.6716   -0.6829 H   0  0  0  0  0  0  0  0  0  0  0  0
   -0.3790    3.9776   -0.6649 C   0  0  0  0  0  0  0  0  0  0  0  0
   -0.6678    5.3395   -0.4969 C   0  0  0  0  0  0  0  0  0  0  0  0
    0.1305    6.0605   -0.3997 H   0  0  0  0  0  0  0  0  0  0  0  0
   -2.0104    5.7526   -0.4549 C   0  0  0  0  0  0  0  0  0  0  0  0
   -2.2523    6.7988   -0.3249 H   0  0  0  0  0  0  0  0  0  0  0  0
   -3.0404    4.8019   -0.5756 C   0  0  0  0  0  0  0  0  0  0  0  0
   -4.0720    5.1231   -0.5344 H   0  0  0  0  0  0  0  0  0  0  0  0
   -2.7384    3.4354   -0.7421 C   0  0  0  0  0  0  0  0  0  0  0  0
   -3.5392    2.7139   -0.8202 H   0  0  0  0  0  0  0  0  0  0  0  0
   -1.4001    2.9892   -0.7945 C   0  0  0  0  0  0  0  0  0  0  0  0
   -1.2663    0.1182    1.2910 C   0  0  0  0  0  0  0  0  0  0  0  0
   -0.1906    0.1931    1.8833 O   0  0  0  0  0  0  0  0  0  0  0  0
   -2.3930    0.6605    1.7722 N   0  0  0  0  0  0  0  0  0  0  0  0
   -3.2451    0.5077    1.2518 H   0  0  0  0  0  0  0  0  0  0  0  0
   -2.4787    1.3954    3.0311 C   0  0  0  0  0  0  0  0  0  0  0  0
   -1.7166    2.1767    3.0539 H   0  0  0  0  0  0  0  0  0  0  0  0
   -3.4649    1.8498    3.1344 H   0  0  0  0  0  0  0  0  0  0  0  0
   -2.3058    0.7133    3.8652 H   0  0  0  0  0  0  0  0  0  0  0  0
  5  6  2  0  0  0  0
  5  7  1  0  0  0  0
  2  3  1  0  0  0  0
  2  4  1  0  0  0  0
  2  5  1  0  0  0  0
  1  2  1  0  0  0  0
 29 30  2  0  0  0  0
 29 31  1  0  0  0  0
 26 27  1  0  0  0  0
 26 28  2  0  0  0  0
 24 25  1  0  0  0  0
 24 26  1  0  0  0  0
 22 23  1  0  0  0  0
 22 24  2  0  0  0  0
 20 21  1  0  0  0  0
 20 22  1  0  0  0  0
 19 20  2  0  0  0  0
 19 28  1  0  0  0  0
 17 18  1  0  0  0  0
 17 19  1  0  0  0  0
 15 16  1  0  0  0  0
 15 17  1  0  0  0  0
 14 15  2  0  0  0  0
 14 28  1  0  0  0  0
 11 12  1  0  0  0  0
 11 13  1  0  0  0  0
 11 14  1  0  0  0  0
  9 10  1  0  0  0  0
  9 11  1  0  0  0  0
  9 29  1  0  0  0  0
  7  8  1  0  0  0  0
  7  9  1  0  0  0  0
 33 34  1  0  0  0  0
 33 35  1  0  0  0  0
 33 36  1  0  0  0  0
 31 32  1  0  0  0  0
 31 33  1  0  0  0  0
M  END
$$$$
default_name
  -OEChem-02102213163D

 36 37  0     1  0  0  0  0  0999 V2000
   -4.0843   -4.0736    1.2944 H   0  0  0  0  0  0  0  0  0  0  0  0
   -4.0342   -3.2816    0.5484 C   0  0  0  0  0  0  0  0  0  0  0  0
   -4.8842   -2.6126    0.6694 H   0  0  0  0  0  0  0  0  0  0  0  0
   -4.0433   -3.7186   -0.4486 H   0  0  0  0  0  0  0  0  0  0  0  0
   -2.7532   -2.5046    0.7444 C   0  0  0  0  0  0  0  0  0  0  0  0
   -1.9803   -2.8096    1.6434 O   0  0  0  0  0  0  0  0  0  0  0  0
   -2.5332   -1.4966   -0.0966 N   0  0  0  0  0  0  0  0  0  0  0  0
   -3.2312   -1.2816   -0.7936 H   0  0  0  0  0  0  0  0  0  0  0  0
   -1.3593   -0.6196   -0.0536 C   0  0  1  0  0  0  0  0  0  0  0  0
   -0.4622   -1.2317   -0.1545 H   0  0  0  0  0  0  0  0  0  0  0  0
   -1.4074    0.3593   -1.2373 C   0  0  0  0  0  0  0  0  0  0  0  0
   -0.9144   -0.1016   -2.0951 H   0  0  0  0  0  0  0  0  0  0  0  0
   -2.4514    0.5268   -1.5072 H   0  0  0  0  0  0  0  0  0  0  0  0
   -0.7613    1.6889   -0.9908 C   0  0  0  0  0  0  0  0  0  0  0  0
    0.5351    1.9897   -1.2287 C   0  0  0  0  0  0  0  0  0  0  0  0
    1.2705    1.2909   -1.6121 H   0  0  0  0  0  0  0  0  0  0  0  0
    0.7660    3.3180   -0.9289 N   0  0  0  0  0  0  0  0  0  0  0  0
    1.6671    3.7625   -1.0265 H   0  0  0  0  0  0  0  0  0  0  0  0
   -0.3816    3.9475   -0.4958 C   0  0  0  0  0  0  0  0  0  0  0  0
   -0.6636    5.2656   -0.1091 C   0  0  0  0  0  0  0  0  0  0  0  0
    0.1138    6.0153   -0.1125 H   0  0  0  0  0  0  0  0  0  0  0  0
   -1.9715    5.5965    0.2847 C   0  0  0  0  0  0  0  0  0  0  0  0
   -2.2074    6.6078    0.5873 H   0  0  0  0  0  0  0  0  0  0  0  0
   -2.9728    4.6083    0.2912 C   0  0  0  0  0  0  0  0  0  0  0  0
   -3.9757    4.8654    0.6029 H   0  0  0  0  0  0  0  0  0  0  0  0
   -2.6774    3.2863   -0.0976 C   0  0  0  0  0  0  0  0  0  0  0  0
   -3.4529    2.5338   -0.0753 H   0  0  0  0  0  0  0  0  0  0  0  0
   -1.3752    2.9233   -0.5043 C   0  0  0  0  0  0  0  0  0  0  0  0
   -1.2663    0.1182    1.2910 C   0  0  0  0  0  0  0  0  0  0  0  0
   -0.1906    0.1931    1.8833 O   0  0  0  0  0  0  0  0  0  0  0  0
   -2.3930    0.6605    1.7722 N   0  0  0  0  0  0  0  0  0  0  0  0
   -3.2451    0.5077    1.2518 H   0  0  0  0  0  0  0  0  0  0  0  0
   -2.4787    1.3954    3.0311 C   0  0  0  0  0  0  0  0  0  0  0  0
   -1.7166    2.1767    3.0539 H   0  0  0  0  0  0  0  0  0  0  0  0
   -3.4649    1.8498    3.1344 H   0  0  0  0  0  0  0  0  0  0  0  0
   -2.3058    0.7133    3.8652 H   0  0  0  0  0  0  0  0  0  0  0  0
  5  6  2  0  0  0  0
  5  7  1  0  0  0  0
  2  3  1  0  0  0  0
  2  4  1  0  0  0  0
  2  5  1  0  0  0  0
  1  2  1  0  0  0  0
 29 30  2  0  0  0  0
 29 31  1  0  0  0  0
 26 27  1  0  0  0  0
 26 28  2  0  0  0  0
 24 25  1  0  0  0  0
 24 26  1  0  0  0  0
 22 23  1  0  0  0  0
 22 24  2  0  0  0  0
 20 21  1  0  0  0  0
 20 22  1  0  0  0  0
 19 20  2  0  0  0  0
 19 28  1  0  0  0  0
 17 18  1  0  0  0  0
 17 19  1  0  0  0  0
 15 16  1  0  0  0  0
 15 17  1  0  0  0  0
 14 15  2  0  0  0  0
 14 28  1  0  0  0  0
 11 12  1  0  0  0  0
 11 13  1  0  0  0  0
 11 14  1  0  0  0  0
  9 10  1  0  0  0  0
  9 11  1  0  0  0  0
  9 29  1  0  0  0  0
  7  8  1  0  0  0  0
  7  9  1  0  0  0  0
 33 34  1  0  0  0  0
 33 35  1  0  0  0  0
 33 36  1  0  0  0  0
 31 32  1  0  0  0  0
 31 33  1  0  0  0  0
M  END
$$$$
default_name
  -OEChem-02102213163D

 36 37  0     1  0  0  0  0  0999 V2000
   -4.0843   -4.0736    1.2944 H   0  0  0  0  0  0  0  0  0  0  0  0
   -4.0342   -3.2816    0.5484 C   0  0  0  0  0  0  0  0  0  0  0  0
   -4.8842   -2.6126    0.6694 H   0  0  0  0  0  0  0  0  0  0  0  0
   -4.0433   -3.7186   -0.4486 H   0  0  0  0  0  0  0  0  0  0  0  0
   -2.7532   -2.5046    0.7444 C   0  0  0  0  0  0  0  0  0  0  0  0
   -1.9803   -2.8096    1.6434 O   0  0  0  0  0  0  0  0  0  0  0  0
   -2.5332   -1.4966   -0.0966 N   0  0  0  0  0  0  0  0  0  0  0  0
   -3.2312   -1.2816   -0.7936 H   0  0  0  0  0  0  0  0  0  0  0  0
   -1.3593   -0.6196   -0.0536 C   0  0  1  0  0  0  0  0  0  0  0  0
   -0.4622   -1.2317   -0.1545 H   0  0  0  0  0  0  0  0  0  0  0  0
   -1.4074    0.3593   -1.2373 C   0  0  0  0  0  0  0  0  0  0  0  0
   -0.9144   -0.1016   -2.0951 H   0  0  0  0  0  0  0  0  0  0  0  0
   -2.4514    0.5268   -1.5072 H   0  0  0  0  0  0  0  0  0  0  0  0
   -0.7613    1.6889   -0.9908 C   0  0  0  0  0  0  0  0  0  0  0  0
    0.4350    2.0850   -1.4803 C   0  0  0  0  0  0  0  0  0  0  0  0
    1.0817    1.4730   -2.0995 H   0  0  0  0  0  0  0  0  0  0  0  0
    0.6899    3.3845   -1.0881 N   0  0  0  0  0  0  0  0  0  0  0  0
    1.5302    3.8863   -1.3354 H   0  0  0  0  0  0  0  0  0  0  0  0
   -0.3440    3.8995   -0.3353 C   0  0  0  0  0  0  0  0  0  0  0  0
   -0.5674    5.1510    0.2564 C   0  0  0  0  0  0  0  0  0  0  0  0
    0.1655    5.9390    0.1638 H   0  0  0  0  0  0  0  0  0  0  0  0
   -1.7574    5.3649    0.9728 C   0  0  0  0  0  0  0  0  0  0  0  0
   -1.9464    6.3235    1.4368 H   0  0  0  0  0  0  0  0  0  0  0  0
   -2.7002    4.3275    1.0914 C   0  0  0  0  0  0  0  0  0  0  0  0
   -3.6106    4.4937    1.6506 H   0  0  0  0  0  0  0  0  0  0  0  0
   -2.4642    3.0729    0.4943 C   0  0  0  0  0  0  0  0  0  0  0  0
   -3.1907    2.2804    0.6044 H   0  0  0  0  0  0  0  0  0  0  0  0
   -1.2818    2.8283   -0.2371 C   0  0  0  0  0  0  0  0  0  0  0  0
   -1.2663    0.1182    1.2910 C   0  0  0  0  0  0  0  0  0  0  0  0
   -0.1906    0.1931    1.8833 O   0  0  0  0  0  0  0  0  0  0  0  0
   -2.3930    0.6605    1.7722 N   0  0  0  0  0  0  0  0  0  0  0  0
   -3.2451    0.5077    1.2518 H   0  0  0  0  0  0  0  0  0  0  0  0
   -2.4787    1.3954    3.0311 C   0  0  0  0  0  0  0  0  0  0  0  0
   -1.7166    2.1767    3.0539 H   0  0  0  0  0  0  0  0  0  0  0  0
   -3.4649    1.8498    3.1344 H   0  0  0  0  0  0  0  0  0  0  0  0
   -2.3058    0.7133    3.8652 H   0  0  0  0  0  0  0  0  0  0  0  0
  5  6  2  0  0  0  0
  5  7  1  0  0  0  0
  2  3  1  0  0  0  0
  2  4  1  0  0  0  0
  2  5  1  0  0  0  0
  1  2  1  0  0  0  0
 29 30  2  0  0  0  0
 29 31  1  0  0  0  0
 26 27  1  0  0  0  0
 26 28  2  0  0  0  0
 24 25  1  0  0  0  0
 24 26  1  0  0  0  0
 22 23  1  0  0  0  0
 22 24  2  0  0  0  0
 20 21  1  0  0  0  0
 20 22  1  0  0  0  0
 19 20  2  0  0  0  0
 19 28  1  0  0  0  0
 17 18  1  0  0  0  0
 17 19  1  0  0  0  0
 15 16  1  0  0  0  0
 15 17  1  0  0  0  0
 14 15  2  0  0  0  0
 14 28  1  0  0  0  0
 11 12  1  0  0  0  0
 11 13  1  0  0  0  0
 11 14  1  0  0  0  0
  9 10  1  0  0  0  0
  9 11  1  0  0  0  0
  9 29  1  0  0  0  0
  7  8  1  0  0  0  0
  7  9  1  0  0  0  0
 33 34  1  0  0  0  0
 33 35  1  0  0  0  0
 33 36  1  0  0  0  0
 31 32  1  0  0  0  0
 31 33  1  0  0  0  0
M  END
$$$$
default_name
  -OEChem-02102213163D

 36 37  0     1  0  0  0  0  0999 V2000
   -4.0843   -4.0736    1.2944 H   0  0  0  0  0  0  0  0  0  0  0  0
   -4.0342   -3.2816    0.5484 C   0  0  0  0  0  0  0  0  0  0  0  0
   -4.8842   -2.6126    0.6694 H   0  0  0  0  0  0  0  0  0  0  0  0
   -4.0433   -3.7186   -0.4486 H   0  0  0  0  0  0  0  0  0  0  0  0
   -2.7532   -2.5046    0.7444 C   0  0  0  0  0  0  0  0  0  0  0  0
   -1.9803   -2.8096    1.6434 O   0  0  0  0  0  0  0  0  0  0  0  0
   -2.5332   -1.4966   -0.0966 N   0  0  0  0  0  0  0  0  0  0  0  0
   -3.2312   -1.2816   -0.7936 H   0  0  0  0  0  0  0  0  0  0  0  0
   -1.3593   -0.6196   -0.0536 C   0  0  1  0  0  0  0  0  0  0  0  0
   -0.4622   -1.2317   -0.1545 H   0  0  0  0  0  0  0  0  0  0  0  0
   -1.4074    0.3593   -1.2373 C   0  0  0  0  0  0  0  0  0  0  0  0
   -0.9144   -0.1016   -2.0951 H   0  0  0  0  0  0  0  0  0  0  0  0
   -2.4514    0.5268   -1.5072 H   0  0  0  0  0  0  0  0  0  0  0  0
   -0.7613    1.6889   -0.9908 C   0  0  0  0  0  0  0  0  0  0  0  0
    0.2765    2.2008   -1.6897 C   0  0  0  0  0  0  0  0  0  0  0  0
    0.7797    1.6952   -2.5066 H   0  0  0  0  0  0  0  0  0  0  0  0
    0.5769    3.4633   -1.2170 N   0  0  0  0  0  0  0  0  0  0  0  0
    1.3218    4.0345   -1.5885 H   0  0  0  0  0  0  0  0  0  0  0  0
   -0.2688    3.8368   -0.1942 C   0  0  0  0  0  0  0  0  0  0  0  0
   -0.3857    5.0038    0.5745 C   0  0  0  0  0  0  0  0  0  0  0  0
    0.2822    5.8366    0.4103 H   0  0  0  0  0  0  0  0  0  0  0  0
   -1.3827    5.0736    1.5624 C   0  0  0  0  0  0  0  0  0  0  0  0
   -1.4872    5.9652    2.1657 H   0  0  0  0  0  0  0  0  0  0  0  0
   -2.2412    3.9786    1.7704 C   0  0  0  0  0  0  0  0  0  0  0  0
   -3.0015    4.0334    2.5373 H   0  0  0  0  0  0  0  0  0  0  0  0
   -2.1133    2.8099    0.9932 C   0  0  0  0  0  0  0  0  0  0  0  0
   -2.7707    1.9710    1.1724 H   0  0  0  0  0  0  0  0  0  0  0  0
   -1.1261    2.7108   -0.0111 C   0  0  0  0  0  0  0  0  0  0  0  0
   -1.2663    0.1182    1.2910 C   0  0  0  0  0  0  0  0  0  0  0  0
   -0.1906    0.1931    1.8833 O   0  0  0  0  0  0  0  0  0  0  0  0
   -2.3930    0.6605    1.7722 N   0  0  0  0  0  0  0  0  0  0  0  0
   -3.2451    0.5077    1.2518 H   0  0  0  0  0  0  0  0  0  0  0  0
   -2.4787    1.3954    3.0311 C   0  0  0  0  0  0  0  0  0  0  0  0
   -1.7166    2.1767    3.0539 H   0  0  0  0  0  0  0  0  0  0  0  0
   -3.4649    1.8498    3.1344 H   0  0  0  0  0  0  0  0  0  0  0  0
   -2.3058    0.7133    3.8652 H   0  0  0  0  0  0  0  0  0  0  0  0
  5  6  2  0  0  0  0
  5  7  1  0  0  0  0
  2  3  1  0  0  0  0
  2  4  1  0  0  0  0
  2  5  1  0  0  0  0
  1  2  1  0  0  0  0
 29 30  2  0  0  0  0
 29 31  1  0  0  0  0
 26 27  1  0  0  0  0
 26 28  2  0  0  0  0
 24 25  1  0  0  0  0
 24 26  1  0  0  0  0
 22 23  1  0  0  0  0
 22 24  2  0  0  0  0
 20 21  1  0  0  0  0
 20 22  1  0  0  0  0
 19 20  2  0  0  0  0
 19 28  1  0  0  0  0
 17 18  1  0  0  0  0
 17 19  1  0  0  0  0
 15 16  1  0  0  0  0
 15 17  1  0  0  0  0
 14 15  2  0  0  0  0
 14 28  1  0  0  0  0
 11 12  1  0  0  0  0
 11 13  1  0  0  0  0
 11 14  1  0  0  0  0
  9 10  1  0  0  0  0
  9 11  1  0  0  0  0
  9 29  1  0  0  0  0
  7  8  1  0  0  0  0
  7  9  1  0  0  0  0
 33 34  1  0  0  0  0
 33 35  1  0  0  0  0
 33 36  1  0  0  0  0
 31 32  1  0  0  0  0
 31 33  1  0  0  0  0
M  END
$$$$
default_name
  -OEChem-02102213163D

 36 37  0     1  0  0  0  0  0999 V2000
   -4.0843   -4.0736    1.2944 H   0  0  0  0  0  0  0  0  0  0  0  0
   -4.0342   -3.2816    0.5484 C   0  0  0  0  0  0  0  0  0  0  0  0
   -4.8842   -2.6126    0.6694 H   0  0  0  0  0  0  0  0  0  0  0  0
   -4.0433   -3.7186   -0.4486 H   0  0  0  0  0  0  0  0  0  0  0  0
   -2.7532   -2.5046    0.7444 C   0  0  0  0  0  0  0  0  0  0  0  0
   -1.9803   -2.8096    1.6434 O   0  0  0  0  0  0  0  0  0  0  0  0
   -2.5332   -1.4966   -0.0966 N   0  0  0  0  0  0  0  0  0  0  0  0
   -3.2312   -1.2816   -0.7936 H   0  0  0  0  0  0  0  0  0  0  0  0
   -1.3593   -0.6196   -0.0536 C   0  0  1  0  0  0  0  0  0  0  0  0
   -0.4622   -1.2317   -0.1545 H   0  0  0  0  0  0  0  0  0  0  0  0
   -1.4074    0.3593   -1.2373 C   0  0  0  0  0  0  0  0  0  0  0  0
   -0.9144   -0.1016   -2.0951 H   0  0  0  0  0  0  0  0  0  0  0  0
   -2.4514    0.5268   -1.5072 H   0  0  0  0  0  0  0  0  0  0  0  0
   -0.7613    1.6889   -0.9908 C   0  0  0  0  0  0  0  0  0  0  0  0
    0.0704    2.3293   -1.8427 C   0  0  0  0  0  0  0  0  0  0  0  0
    0.3850    1.9425   -2.8058 H   0  0  0  0  0  0  0  0  0  0  0  0
    0.4349    3.5489   -1.3068 N   0  0  0  0  0  0  0  0  0  0  0  0
    1.0560    4.1971   -1.7686 H   0  0  0  0  0  0  0  0  0  0  0  0
   -0.1610    3.7637   -0.0822 C   0  0  0  0  0  0  0  0  0  0  0  0
   -0.1308    4.8338    0.8236 C   0  0  0  0  0  0  0  0  0  0  0  0
    0.4558    5.7152    0.6101 H   0  0  0  0  0  0  0  0  0  0  0  0
   -0.8730    4.7423    2.0134 C   0  0  0  0  0  0  0  0  0  0  0  0
   -0.8609    5.5573    2.7244 H   0  0  0  0  0  0  0  0  0  0  0  0
   -1.6271    3.5853    2.2820 C   0  0  0  0  0  0  0  0  0  0  0  0
   -2.1900    3.5157    3.2025 H   0  0  0  0  0  0  0  0  0  0  0  0
   -1.6485    2.5151    1.3653 C   0  0  0  0  0  0  0  0  0  0  0  0
   -2.2213    1.6266    1.5901 H   0  0  0  0  0  0  0  0  0  0  0  0
   -0.9189    2.5787    0.1584 C   0  0  0  0  0  0  0  0  0  0  0  0
   -1.2663    0.1182    1.2910 C   0  0  0  0  0  0  0  0  0  0  0  0
   -0.1906    0.1931    1.8833 O   0  0  0  0  0  0  0  0  0  0  0  0
   -2.3930    0.6605    1.7722 N   0  0  0  0  0  0  0  0  0  0  0  0
   -3.2451    0.5077    1.2518 H   0  0  0  0  0  0  0  0  0  0  0  0
   -2.4787    1.3954    3.0311 C   0  0  0  0  0  0  0  0  0  0  0  0
   -1.7166    2.1767    3.0539 H   0  0  0  0  0  0  0  0  0  0  0  0
   -3.4649    1.8498    3.1344 H   0  0  0  0  0  0  0  0  0  0  0  0
   -2.3058    0.7133    3.8652 H   0  0  0  0  0  0  0  0  0  0  0  0
  5  6  2  0  0  0  0
  5  7  1  0  0  0  0
  2  3  1  0  0  0  0
  2  4  1  0  0  0  0
  2  5  1  0  0  0  0
  1  2  1  0  0  0  0
 29 30  2  0  0  0  0
 29 31  1  0  0  0  0
 26 27  1  0  0  0  0
 26 28  2  0  0  0  0
 24 25  1  0  0  0  0
 24 26  1  0  0  0  0
 22 23  1  0  0  0  0
 22 24  2  0  0  0  0
 20 21  1  0  0  0  0
 20 22  1  0  0  0  0
 19 20  2  0  0  0  0
 19 28  1  0  0  0  0
 17 18  1  0  0  0  0
 17 19  1  0  0  0  0
 15 16  1  0  0  0  0
 15 17  1  0  0  0  0
 14 15  2  0  0  0  0
 14 28  1  0  0  0  0
 11 12  1  0  0  0  0
 11 13  1  0  0  0  0
 11 14  1  0  0  0  0
  9 10  1  0  0  0  0
  9 11  1  0  0  0  0
  9 29  1  0  0  0  0
  7  8  1  0  0  0  0
  7  9  1  0  0  0  0
 33 34  1  0  0  0  0
 33 35  1  0  0  0  0
 33 36  1  0  0  0  0
 31 32  1  0  0  0  0
 31 33  1  0  0  0  0
M  END
$$$$
default_name
  -OEChem-02102213163D

 36 37  0     1  0  0  0  0  0999 V2000
   -4.0843   -4.0736    1.2944 H   0  0  0  0  0  0  0  0  0  0  0  0
   -4.0342   -3.2816    0.5484 C   0  0  0  0  0  0  0  0  0  0  0  0
   -4.8842   -2.6126    0.6694 H   0  0  0  0  0  0  0  0  0  0  0  0
   -4.0433   -3.7186   -0.4486 H   0  0  0  0  0  0  0  0  0  0  0  0
   -2.7532   -2.5046    0.7444 C   0  0  0  0  0  0  0  0  0  0  0  0
   -1.9803   -2.8096    1.6434 O   0  0  0  0  0  0  0  0  0  0  0  0
   -2.5332   -1.4966   -0.0966 N   0  0  0  0  0  0  0  0  0  0  0  0
   -3.2312   -1.2816   -0.7936 H   0  0  0  0  0  0  0  0  0  0  0  0
   -1.3593   -0.6196   -0.0536 C   0  0  1  0  0  0  0  0  0  0  0  0
   -0.4622   -1.2317   -0.1545 H   0  0  0  0  0  0  0  0  0  0  0  0
   -1.4074    0.3593   -1.2373 C   0  0  0  0  0  0  0  0  0  0  0  0
   -0.9144   -0.1016   -2.0951 H   0  0  0  0  0  0  0  0  0  0  0  0
   -2.4514    0.5268   -1.5072 H   0  0  0  0  0  0  0  0  0  0  0  0
   -0.7613    1.6889   -0.9908 C   0  0  0  0  0  0  0  0  0  0  0  0
   -0.1692    2.4617   -1.9288 C   0  0  0  0  0  0  0  0  0  0  0  0
   -0.0754    2.1979   -2.9765 H   0  0  0  0  0  0  0  0  0  0  0  0
    0.2735    3.6356   -1.3513 N   0  0  0  0  0  0  0  0  0  0  0  0
    0.7510    4.3628   -1.8634 H   0  0  0  0  0  0  0  0  0  0  0  0
   -0.0282    3.6852   -0.0069 C   0  0  0  0  0  0  0  0  0  0  0  0
    0.1798    4.6526    0.9867 C   0  0  0  0  0  0  0  0  0  0  0  0
    0.6745    5.5830    0.7498 H   0  0  0  0  0  0  0  0  0  0  0  0
   -0.2630    4.3937    2.2951 C   0  0  0  0  0  0  0  0  0  0  0  0
   -0.1104    5.1277    3.0747 H   0  0  0  0  0  0  0  0  0  0  0  0
   -0.8997    3.1746    2.5912 C   0  0  0  0  0  0  0  0  0  0  0  0
   -1.2313    2.9760    3.6010 H   0  0  0  0  0  0  0  0  0  0  0  0
   -1.1016    2.2086    1.5850 C   0  0  0  0  0  0  0  0  0  0  0  0
   -1.5801    1.2707    1.8290 H   0  0  0  0  0  0  0  0  0  0  0  0
   -0.6741    2.4409    0.2598 C   0  0  0  0  0  0  0  0  0  0  0  0
   -1.2663    0.1182    1.2910 C   0  0  0  0  0  0  0  0  0  0  0  0
   -0.1906    0.1931    1.8833 O   0  0  0  0  0  0  0  0  0  0  0  0
   -2.3930    0.6605    1.7722 N   0  0  0  0  0  0  0  0  0  0  0  0
   -3.2451    0.5077    1.2518 H   0  0  0  0  0  0  0  0  0  0  0  0
   -2.4787    1.3954    3.0311 C   0  0  0  0  0  0  0  0  0  0  0  0
   -1.7166    2.1767    3.0539 H   0  0  0  0  0  0  0  0  0  0  0  0
   -3.4649    1.8498    3.1344 H   0  0  0  0  0  0  0  0  0  0  0  0
   -2.3058    0.7133    3.8652 H   0  0  0  0  0  0  0  0  0  0  0  0
  5  6  2  0  0  0  0
  5  7  1  0  0  0  0
  2  3  1  0  0  0  0
  2  4  1  0  0  0  0
  2  5  1  0  0  0  0
  1  2  1  0  0  0  0
 29 30  2  0  0  0  0
 29 31  1  0  0  0  0
 26 27  1  0  0  0  0
 26 28  2  0  0  0  0
 24 25  1  0  0  0  0
 24 26  1  0  0  0  0
 22 23  1  0  0  0  0
 22 24  2  0  0  0  0
 20 21  1  0  0  0  0
 20 22  1  0  0  0  0
 19 20  2  0  0  0  0
 19 28  1  0  0  0  0
 17 18  1  0  0  0  0
 17 19  1  0  0  0  0
 15 16  1  0  0  0  0
 15 17  1  0  0  0  0
 14 15  2  0  0  0  0
 14 28  1  0  0  0  0
 11 12  1  0  0  0  0
 11 13  1  0  0  0  0
 11 14  1  0  0  0  0
  9 10  1  0  0  0  0
  9 11  1  0  0  0  0
  9 29  1  0  0  0  0
  7  8  1  0  0  0  0
  7  9  1  0  0  0  0
 33 34  1  0  0  0  0
 33 35  1  0  0  0  0
 33 36  1  0  0  0  0
 31 32  1  0  0  0  0
 31 33  1  0  0  0  0
M  END
$$$$
default_name
  -OEChem-02102213163D

 36 37  0     1  0  0  0  0  0999 V2000
   -4.0843   -4.0736    1.2944 H   0  0  0  0  0  0  0  0  0  0  0  0
   -4.0342   -3.2816    0.5484 C   0  0  0  0  0  0  0  0  0  0  0  0
   -4.8842   -2.6126    0.6694 H   0  0  0  0  0  0  0  0  0  0  0  0
   -4.0433   -3.7186   -0.4486 H   0  0  0  0  0  0  0  0  0  0  0  0
   -2.7532   -2.5046    0.7444 C   0  0  0  0  0  0  0  0  0  0  0  0
   -1.9803   -2.8096    1.6434 O   0  0  0  0  0  0  0  0  0  0  0  0
   -2.5332   -1.4966   -0.0966 N   0  0  0  0  0  0  0  0  0  0  0  0
   -3.2312   -1.2816   -0.7936 H   0  0  0  0  0  0  0  0  0  0  0  0
   -1.3593   -0.6196   -0.0536 C   0  0  1  0  0  0  0  0  0  0  0  0
   -0.4622   -1.2317   -0.1545 H   0  0  0  0  0  0  0  0  0  0  0  0
   -1.4074    0.3593   -1.2373 C   0  0  0  0  0  0  0  0  0  0  0  0
   -0.9144   -0.1016   -2.0951 H   0  0  0  0  0  0  0  0  0  0  0  0
   -2.4514    0.5268   -1.5072 H   0  0  0  0  0  0  0  0  0  0  0  0
   -0.7613    1.6889   -0.9908 C   0  0  0  0  0  0  0  0  0  0  0  0
   -0.4261    2.5891   -1.9422 C   0  0  0  0  0  0  0  0  0  0  0  0
   -0.5702    2.4440   -3.0072 H   0  0  0  0  0  0  0  0  0  0  0  0
    0.1036    3.7175   -1.3476 N   0  0  0  0  0  0  0  0  0  0  0  0
    0.4276    4.5206   -1.8665 H   0  0  0  0  0  0  0  0  0  0  0  0
    0.1208    3.6066    0.0265 C   0  0  0  0  0  0  0  0  0  0  0  0
    0.5249    4.4726    1.0527 C   0  0  0  0  0  0  0  0  0  0  0  0
    0.9235    5.4491    0.8197 H   0  0  0  0  0  0  0  0  0  0  0  0
    0.4057    4.0515    2.3882 C   0  0  0  0  0  0  0  0  0  0  0  0
    0.7133    4.7056    3.1928 H   0  0  0  0  0  0  0  0  0  0  0  0
   -0.1086    2.7742    2.6771 C   0  0  0  0  0  0  0  0  0  0  0  0
   -0.1908    2.4511    3.7056 H   0  0  0  0  0  0  0  0  0  0  0  0
   -0.5098    1.9113    1.6375 C   0  0  0  0  0  0  0  0  0  0  0  0
   -0.8907    0.9277    1.8728 H   0  0  0  0  0  0  0  0  0  0  0  0
   -0.4086    2.3070    0.2862 C   0  0  0  0  0  0  0  0  0  0  0  0
   -1.2663    0.1182    1.2910 C   0  0  0  0  0  0  0  0  0  0  0  0
   -0.1906    0.1931    1.8833 O   0  0  0  0  0  0  0  0  0  0  0  0
   -2.3930    0.6605    1.7722 N   0  0  0  0  0  0  0  0  0  0  0  0
   -3.2451    0.5077    1.2518 H   0  0  0  0  0  0  0  0  0  0  0  0
   -2.4787    1.3954    3.0311 C   0  0  0  0  0  0  0  0  0  0  0  0
   -1.7166    2.1767    3.0539 H   0  0  0  0  0  0  0  0  0  0  0  0
   -3.4649    1.8498    3.1344 H   0  0  0  0  0  0  0  0  0  0  0  0
   -2.3058    0.7133    3.8652 H   0  0  0  0  0  0  0  0  0  0  0  0
  5  6  2  0  0  0  0
  5  7  1  0  0  0  0
  2  3  1  0  0  0  0
  2  4  1  0  0  0  0
  2  5  1  0  0  0  0
  1  2  1  0  0  0  0
 29 30  2  0  0  0  0
 29 31  1  0  0  0  0
 26 27  1  0  0  0  0
 26 28  2  0  0  0  0
 24 25  1  0  0  0  0
 24 26  1  0  0  0  0
 22 23  1  0  0  0  0
 22 24  2  0  0  0  0
 20 21  1  0  0  0  0
 20 22  1  0  0  0  0
 19 20  2  0  0  0  0
 19 28  1  0  0  0  0
 17 18  1  0  0  0  0
 17 19  1  0  0  0  0
 15 16  1  0  0  0  0
 15 17  1  0  0  0  0
 14 15  2  0  0  0  0
 14 28  1  0  0  0  0
 11 12  1  0  0  0  0
 11 13  1  0  0  0  0
 11 14  1  0  0  0  0
  9 10  1  0  0  0  0
  9 11  1  0  0  0  0
  9 29  1  0  0  0  0
  7  8  1  0  0  0  0
  7  9  1  0  0  0  0
 33 34  1  0  0  0  0
 33 35  1  0  0  0  0
 33 36  1  0  0  0  0
 31 32  1  0  0  0  0
 31 33  1  0  0  0  0
M  END
$$$$
default_name
  -OEChem-02102213163D

 36 37  0     1  0  0  0  0  0999 V2000
   -4.0843   -4.0736    1.2944 H   0  0  0  0  0  0  0  0  0  0  0  0
   -4.0342   -3.2816    0.5484 C   0  0  0  0  0  0  0  0  0  0  0  0
   -4.8842   -2.6126    0.6694 H   0  0  0  0  0  0  0  0  0  0  0  0
   -4.0433   -3.7186   -0.4486 H   0  0  0  0  0  0  0  0  0  0  0  0
   -2.7532   -2.5046    0.7444 C   0  0  0  0  0  0  0  0  0  0  0  0
   -1.9803   -2.8096    1.6434 O   0  0  0  0  0  0  0  0  0  0  0  0
   -2.5332   -1.4966   -0.0966 N   0  0  0  0  0  0  0  0  0  0  0  0
   -3.2312   -1.2816   -0.7936 H   0  0  0  0  0  0  0  0  0  0  0  0
   -1.3593   -0.6196   -0.0536 C   0  0  1  0  0  0  0  0  0  0  0  0
   -0.4622   -1.2317   -0.1545 H   0  0  0  0  0  0  0  0  0  0  0  0
   -1.4074    0.3593   -1.2373 C   0  0  0  0  0  0  0  0  0  0  0  0
   -1.1648   -0.1835   -2.1526 H   0  0  0  0  0  0  0  0  0  0  0  0
   -2.4274    0.7346   -1.3363 H   0  0  0  0  0  0  0  0  0  0  0  0
   -0.4783    1.5307   -1.1332 C   0  0  0  0  0  0  0  0  0  0  0  0
   -0.3487    2.5158   -2.0500 C   0  0  0  0  0  0  0  0  0  0  0  0
   -0.8943    2.5634   -2.9860 H   0  0  0  0  0  0  0  0  0  0  0  0
    0.5628    3.4511   -1.6007 N   0  0  0  0  0  0  0  0  0  0  0  0
    0.8209    4.2740   -2.1253 H   0  0  0  0  0  0  0  0  0  0  0  0
    1.0567    3.1215   -0.3564 C   0  0  0  0  0  0  0  0  0  0  0  0
    1.9609    3.7490    0.5125 C   0  0  0  0  0  0  0  0  0  0  0  0
    2.4236    4.6856    0.2380 H   0  0  0  0  0  0  0  0  0  0  0  0
    2.2579    3.1412    1.7443 C   0  0  0  0  0  0  0  0  0  0  0  0
    2.9538    3.6101    2.4268 H   0  0  0  0  0  0  0  0  0  0  0  0
    1.6534    1.9176    2.0860 C   0  0  0  0  0  0  0  0  0  0  0  0
    1.8911    1.4493    3.0311 H   0  0  0  0  0  0  0  0  0  0  0  0
    0.7475    1.2949    1.2040 C   0  0  0  0  0  0  0  0  0  0  0  0
    0.3004    0.3485    1.4731 H   0  0  0  0  0  0  0  0  0  0  0  0
    0.4236    1.8829   -0.0379 C   0  0  0  0  0  0  0  0  0  0  0  0
   -1.2663    0.1182    1.2910 C   0  0  0  0  0  0  0  0  0  0  0  0
   -0.1906    0.1931    1.8833 O   0  0  0  0  0  0  0  0  0  0  0  0
   -2.3930    0.6605    1.7722 N   0  0  0  0  0  0  0  0  0  0  0  0
   -3.2451    0.5077    1.2518 H   0  0  0  0  0  0  0  0  0  0  0  0
   -2.4787    1.3954    3.0311 C   0  0  0  0  0  0  0  0  0  0  0  0
   -1.7166    2.1767    3.0539 H   0  0  0  0  0  0  0  0  0  0  0  0
   -3.4649    1.8498    3.1344 H   0  0  0  0  0  0  0  0  0  0  0  0
   -2.3058    0.7133    3.8652 H   0  0  0  0  0  0  0  0  0  0  0  0
  5  6  2  0  0  0  0
  5  7  1  0  0  0  0
  2  3  1  0  0  0  0
  2  4  1  0  0  0  0
  2  5  1  0  0  0  0
  1  2  1  0  0  0  0
 29 30  2  0  0  0  0
 29 31  1  0  0  0  0
 26 27  1  0  0  0  0
 26 28  2  0  0  0  0
 24 25  1  0  0  0  0
 24 26  1  0  0  0  0
 22 23  1  0  0  0  0
 22 24  2  0  0  0  0
 20 21  1  0  0  0  0
 20 22  1  0  0  0  0
 19 20  2  0  0  0  0
 19 28  1  0  0  0  0
 17 18  1  0  0  0  0
 17 19  1  0  0  0  0
 15 16  1  0  0  0  0
 15 17  1  0  0  0  0
 14 15  2  0  0  0  0
 14 28  1  0  0  0  0
 11 12  1  0  0  0  0
 11 13  1  0  0  0  0
 11 14  1  0  0  0  0
  9 10  1  0  0  0  0
  9 11  1  0  0  0  0
  9 29  1  0  0  0  0
  7  8  1  0  0  0  0
  7  9  1  0  0  0  0
 33 34  1  0  0  0  0
 33 35  1  0  0  0  0
 33 36  1  0  0  0  0
 31 32  1  0  0  0  0
 31 33  1  0  0  0  0
M  END
$$$$
default_name
  -OEChem-02102213163D

 36 37  0     1  0  0  0  0  0999 V2000
   -4.0843   -4.0736    1.2944 H   0  0  0  0  0  0  0  0  0  0  0  0
   -4.0342   -3.2816    0.5484 C   0  0  0  0  0  0  0  0  0  0  0  0
   -4.8842   -2.6126    0.6694 H   0  0  0  0  0  0  0  0  0  0  0  0
   -4.0433   -3.7186   -0.4486 H   0  0  0  0  0  0  0  0  0  0  0  0
   -2.7532   -2.5046    0.7444 C   0  0  0  0  0  0  0  0  0  0  0  0
   -1.9803   -2.8096    1.6434 O   0  0  0  0  0  0  0  0  0  0  0  0
   -2.5332   -1.4966   -0.0966 N   0  0  0  0  0  0  0  0  0  0  0  0
   -3.2312   -1.2816   -0.7936 H   0  0  0  0  0  0  0  0  0  0  0  0
   -1.3593   -0.6196   -0.0536 C   0  0  1  0  0  0  0  0  0  0  0  0
   -0.4622   -1.2317   -0.1545 H   0  0  0  0  0  0  0  0  0  0  0  0
   -1.4074    0.3593   -1.2373 C   0  0  0  0  0  0  0  0  0  0  0  0
   -1.1648   -0.1835   -2.1526 H   0  0  0  0  0  0  0  0  0  0  0  0
   -2.4274    0.7346   -1.3363 H   0  0  0  0  0  0  0  0  0  0  0  0
   -0.4783    1.5307   -1.1332 C   0  0  0  0  0  0  0  0  0  0  0  0
   -0.5397    2.6526   -1.8850 C   0  0  0  0  0  0  0  0  0  0  0  0
   -1.2646    2.8292   -2.6721 H   0  0  0  0  0  0  0  0  0  0  0  0
    0.4428    3.5357   -1.4822 N   0  0  0  0  0  0  0  0  0  0  0  0
    0.5875    4.4398   -1.9074 H   0  0  0  0  0  0  0  0  0  0  0  0
    1.1804    3.0302   -0.4328 C   0  0  0  0  0  0  0  0  0  0  0  0
    2.2418    3.5427    0.3269 C   0  0  0  0  0  0  0  0  0  0  0  0
    2.6375    4.5264    0.1208 H   0  0  0  0  0  0  0  0  0  0  0  0
    2.7845    2.7579    1.3586 C   0  0  0  0  0  0  0  0  0  0  0  0
    3.6041    3.1363    1.9543 H   0  0  0  0  0  0  0  0  0  0  0  0
    2.2640    1.4755    1.6115 C   0  0  0  0  0  0  0  0  0  0  0  0
    2.6900    0.8717    2.4009 H   0  0  0  0  0  0  0  0  0  0  0  0
    1.1983    0.9697    0.8403 C   0  0  0  0  0  0  0  0  0  0  0  0
    0.8168   -0.0223    1.0365 H   0  0  0  0  0  0  0  0  0  0  0  0
    0.6273    1.7356   -0.1990 C   0  0  0  0  0  0  0  0  0  0  0  0
   -1.2663    0.1182    1.2910 C   0  0  0  0  0  0  0  0  0  0  0  0
   -0.1906    0.1931    1.8833 O   0  0  0  0  0  0  0  0  0  0  0  0
   -2.3930    0.6605    1.7722 N   0  0  0  0  0  0  0  0  0  0  0  0
   -3.2451    0.5077    1.2518 H   0  0  0  0  0  0  0  0  0  0  0  0
   -2.4787    1.3954    3.0311 C   0  0  0  0  0  0  0  0  0  0  0  0
   -1.7166    2.1767    3.0539 H   0  0  0  0  0  0  0  0  0  0  0  0
   -3.4649    1.8498    3.1344 H   0  0  0  0  0  0  0  0  0  0  0  0
   -2.3058    0.7133    3.8652 H   0  0  0  0  0  0  0  0  0  0  0  0
  5  6  2  0  0  0  0
  5  7  1  0  0  0  0
  2  3  1  0  0  0  0
  2  4  1  0  0  0  0
  2  5  1  0  0  0  0
  1  2  1  0  0  0  0
 29 30  2  0  0  0  0
 29 31  1  0  0  0  0
 26 27  1  0  0  0  0
 26 28  2  0  0  0  0
 24 25  1  0  0  0  0
 24 26  1  0  0  0  0
 22 23  1  0  0  0  0
 22 24  2  0  0  0  0
 20 21  1  0  0  0  0
 20 22  1  0  0  0  0
 19 20  2  0  0  0  0
 19 28  1  0  0  0  0
 17 18  1  0  0  0  0
 17 19  1  0  0  0  0
 15 16  1  0  0  0  0
 15 17  1  0  0  0  0
 14 15  2  0  0  0  0
 14 28  1  0  0  0  0
 11 12  1  0  0  0  0
 11 13  1  0  0  0  0
 11 14  1  0  0  0  0
  9 10  1  0  0  0  0
  9 11  1  0  0  0  0
  9 29  1  0  0  0  0
  7  8  1  0  0  0  0
  7  9  1  0  0  0  0
 33 34  1  0  0  0  0
 33 35  1  0  0  0  0
 33 36  1  0  0  0  0
 31 32  1  0  0  0  0
 31 33  1  0  0  0  0
M  END
$$$$
default_name
  -OEChem-02102213163D

 36 37  0     1  0  0  0  0  0999 V2000
   -4.0843   -4.0736    1.2944 H   0  0  0  0  0  0  0  0  0  0  0  0
   -4.0342   -3.2816    0.5484 C   0  0  0  0  0  0  0  0  0  0  0  0
   -4.8842   -2.6126    0.6694 H   0  0  0  0  0  0  0  0  0  0  0  0
   -4.0433   -3.7186   -0.4486 H   0  0  0  0  0  0  0  0  0  0  0  0
   -2.7532   -2.5046    0.7444 C   0  0  0  0  0  0  0  0  0  0  0  0
   -1.9803   -2.8096    1.6434 O   0  0  0  0  0  0  0  0  0  0  0  0
   -2.5332   -1.4966   -0.0966 N   0  0  0  0  0  0  0  0  0  0  0  0
   -3.2312   -1.2816   -0.7936 H   0  0  0  0  0  0  0  0  0  0  0  0
   -1.3593   -0.6196   -0.0536 C   0  0  1  0  0  0  0  0  0  0  0  0
   -0.4622   -1.2317   -0.1545 H   0  0  0  0  0  0  0  0  0  0  0  0
   -1.4074    0.3593   -1.2373 C   0  0  0  0  0  0  0  0  0  0  0  0
   -1.1648   -0.1835   -2.1526 H   0  0  0  0  0  0  0  0  0  0  0  0
   -2.4274    0.7346   -1.3363 H   0  0  0  0  0  0  0  0  0  0  0  0
   -0.4783    1.5307   -1.1332 C   0  0  0  0  0  0  0  0  0  0  0  0
   -0.6932    2.7548   -1.6651 C   0  0  0  0  0  0  0  0  0  0  0  0
   -1.5636    3.0289   -2.2512 H   0  0  0  0  0  0  0  0  0  0  0  0
    0.3495    3.5962   -1.3300 N   0  0  0  0  0  0  0  0  0  0  0  0
    0.4031    4.5608   -1.6230 H   0  0  0  0  0  0  0  0  0  0  0  0
    1.2861    2.9564   -0.5463 C   0  0  0  0  0  0  0  0  0  0  0  0
    2.4793    3.3783    0.0576 C   0  0  0  0  0  0  0  0  0  0  0  0
    2.8232    4.3953   -0.0613 H   0  0  0  0  0  0  0  0  0  0  0  0
    3.2219    2.4589    0.8181 C   0  0  0  0  0  0  0  0  0  0  0  0
    4.1452    2.7661    1.2904 H   0  0  0  0  0  0  0  0  0  0  0  0
    2.7658    1.1355    0.9588 C   0  0  0  0  0  0  0  0  0  0  0  0
    3.3446    0.4292    1.5378 H   0  0  0  0  0  0  0  0  0  0  0  0
    1.5661    0.7219    0.3457 C   0  0  0  0  0  0  0  0  0  0  0  0
    1.2340   -0.3011    0.4507 H   0  0  0  0  0  0  0  0  0  0  0  0
    0.7941    1.6229   -0.4194 C   0  0  0  0  0  0  0  0  0  0  0  0
   -1.2663    0.1182    1.2910 C   0  0  0  0  0  0  0  0  0  0  0  0
   -0.1906    0.1931    1.8833 O   0  0  0  0  0  0  0  0  0  0  0  0
   -2.3930    0.6605    1.7722 N   0  0  0  0  0  0  0  0  0  0  0  0
   -3.2451    0.5077    1.2518 H   0  0  0  0  0  0  0  0  0  0  0  0
   -2.4787    1.3954    3.0311 C   0  0  0  0  0  0  0  0  0  0  0  0
   -1.7166    2.1767    3.0539 H   0  0  0  0  0  0  0  0  0  0  0  0
   -3.4649    1.8498    3.1344 H   0  0  0  0  0  0  0  0  0  0  0  0
   -2.3058    0.7133    3.8652 H   0  0  0  0  0  0  0  0  0  0  0  0
  5  6  2  0  0  0  0
  5  7  1  0  0  0  0
  2  3  1  0  0  0  0
  2  4  1  0  0  0  0
  2  5  1  0  0  0  0
  1  2  1  0  0  0  0
 29 30  2  0  0  0  0
 29 31  1  0  0  0  0
 26 27  1  0  0  0  0
 26 28  2  0  0  0  0
 24 25  1  0  0  0  0
 24 26  1  0  0  0  0
 22 23  1  0  0  0  0
 22 24  2  0  0  0  0
 20 21  1  0  0  0  0
 20 22  1  0  0  0  0
 19 20  2  0  0  0  0
 19 28  1  0  0  0  0
 17 18  1  0  0  0  0
 17 19  1  0  0  0  0
 15 16  1  0  0  0  0
 15 17  1  0  0  0  0
 14 15  2  0  0  0  0
 14 28  1  0  0  0  0
 11 12  1  0  0  0  0
 11 13  1  0  0  0  0
 11 14  1  0  0  0  0
  9 10  1  0  0  0  0
  9 11  1  0  0  0  0
  9 29  1  0  0  0  0
  7  8  1  0  0  0  0
  7  9  1  0  0  0  0
 33 34  1  0  0  0  0
 33 35  1  0  0  0  0
 33 36  1  0  0  0  0
 31 32  1  0  0  0  0
 31 33  1  0  0  0  0
M  END
$$$$
default_name
  -OEChem-02102213163D

 36 37  0     1  0  0  0  0  0999 V2000
   -4.0843   -4.0736    1.2944 H   0  0  0  0  0  0  0  0  0  0  0  0
   -4.0342   -3.2816    0.5484 C   0  0  0  0  0  0  0  0  0  0  0  0
   -4.8842   -2.6126    0.6694 H   0  0  0  0  0  0  0  0  0  0  0  0
   -4.0433   -3.7186   -0.4486 H   0  0  0  0  0  0  0  0  0  0  0  0
   -2.7532   -2.5046    0.7444 C   0  0  0  0  0  0  0  0  0  0  0  0
   -1.9803   -2.8096    1.6434 O   0  0  0  0  0  0  0  0  0  0  0  0
   -2.5332   -1.4966   -0.0966 N   0  0  0  0  0  0  0  0  0  0  0  0
   -3.2312   -1.2816   -0.7936 H   0  0  0  0  0  0  0  0  0  0  0  0
   -1.3593   -0.6196   -0.0536 C   0  0  1  0  0  0  0  0  0  0  0  0
   -0.4622   -1.2317   -0.1545 H   0  0  0  0  0  0  0  0  0  0  0  0
   -1.4074    0.3593   -1.2373 C   0  0  0  0  0  0  0  0  0  0  0  0
   -1.1648   -0.1835   -2.1526 H   0  0  0  0  0  0  0  0  0  0  0  0
   -2.4274    0.7346   -1.3363 H   0  0  0  0  0  0  0  0  0  0  0  0
   -0.4783    1.5307   -1.1332 C   0  0  0  0  0  0  0  0  0  0  0  0
   -0.7989    2.8155   -1.4052 C   0  0  0  0  0  0  0  0  0  0  0  0
   -1.7708    3.1489   -1.7522 H   0  0  0  0  0  0  0  0  0  0  0  0
    0.2890    3.6286   -1.1543 N   0  0  0  0  0  0  0  0  0  0  0  0
    0.2803    4.6287   -1.2916 H   0  0  0  0  0  0  0  0  0  0  0  0
    1.3666    2.9053   -0.6891 C   0  0  0  0  0  0  0  0  0  0  0  0
    2.6571    3.2670   -0.2768 C   0  0  0  0  0  0  0  0  0  0  0  0
    2.9682    4.3011   -0.2957 H   0  0  0  0  0  0  0  0  0  0  0  0
    3.5405    2.2648    0.1595 C   0  0  0  0  0  0  0  0  0  0  0  0
    4.5402    2.5248    0.4802 H   0  0  0  0  0  0  0  0  0  0  0  0
    3.1246    0.9208    0.1722 C   0  0  0  0  0  0  0  0  0  0  0  0
    3.8103    0.1521    0.5007 H   0  0  0  0  0  0  0  0  0  0  0  0
    1.8257    0.5686   -0.2463 C   0  0  0  0  0  0  0  0  0  0  0  0
    1.5235   -0.4690   -0.2441 H   0  0  0  0  0  0  0  0  0  0  0  0
    0.9128    1.5523   -0.6842 C   0  0  0  0  0  0  0  0  0  0  0  0
   -1.2663    0.1182    1.2910 C   0  0  0  0  0  0  0  0  0  0  0  0
   -0.1906    0.1931    1.8833 O   0  0  0  0  0  0  0  0  0  0  0  0
   -2.3930    0.6605    1.7722 N   0  0  0  0  0  0  0  0  0  0  0  0
   -3.2451    0.5077    1.2518 H   0  0  0  0  0  0  0  0  0  0  0  0
   -2.4787    1.3954    3.0311 C   0  0  0  0  0  0  0  0  0  0  0  0
   -1.7166    2.1767    3.0539 H   0  0  0  0  0  0  0  0  0  0  0  0
   -3.4649    1.8498    3.1344 H   0  0  0  0  0  0  0  0  0  0  0  0
   -2.3058    0.7133    3.8652 H   0  0  0  0  0  0  0  0  0  0  0  0
  5  6  2  0  0  0  0
  5  7  1  0  0  0  0
  2  3  1  0  0  0  0
  2  4  1  0  0  0  0
  2  5  1  0  0  0  0
  1  2  1  0  0  0  0
 29 30  2  0  0  0  0
 29 31  1  0  0  0  0
 26 27  1  0  0  0  0
 26 28  2  0  0  0  0
 24 25  1  0  0  0  0
 24 26  1  0  0  0  0
 22 23  1  0  0  0  0
 22 24  2  0  0  0  0
 20 21  1  0  0  0  0
 20 22  1  0  0  0  0
 19 20  2  0  0  0  0
 19 28  1  0  0  0  0
 17 18  1  0  0  0  0
 17 19  1  0  0  0  0
 15 16  1  0  0  0  0
 15 17  1  0  0  0  0
 14 15  2  0  0  0  0
 14 28  1  0  0  0  0
 11 12  1  0  0  0  0
 11 13  1  0  0  0  0
 11 14  1  0  0  0  0
  9 10  1  0  0  0  0
  9 11  1  0  0  0  0
  9 29  1  0  0  0  0
  7  8  1  0  0  0  0
  7  9  1  0  0  0  0
 33 34  1  0  0  0  0
 33 35  1  0  0  0  0
 33 36  1  0  0  0  0
 31 32  1  0  0  0  0
 31 33  1  0  0  0  0
M  END
$$$$
default_name
  -OEChem-02102213163D

 36 37  0     1  0  0  0  0  0999 V2000
   -4.0843   -4.0736    1.2944 H   0  0  0  0  0  0  0  0  0  0  0  0
   -4.0342   -3.2816    0.5484 C   0  0  0  0  0  0  0  0  0  0  0  0
   -4.8842   -2.6126    0.6694 H   0  0  0  0  0  0  0  0  0  0  0  0
   -4.0433   -3.7186   -0.4486 H   0  0  0  0  0  0  0  0  0  0  0  0
   -2.7532   -2.5046    0.7444 C   0  0  0  0  0  0  0  0  0  0  0  0
   -1.9803   -2.8096    1.6434 O   0  0  0  0  0  0  0  0  0  0  0  0
   -2.5332   -1.4966   -0.0966 N   0  0  0  0  0  0  0  0  0  0  0  0
   -3.2312   -1.2816   -0.7936 H   0  0  0  0  0  0  0  0  0  0  0  0
   -1.3593   -0.6196   -0.0536 C   0  0  1  0  0  0  0  0  0  0  0  0
   -0.4622   -1.2317   -0.1545 H   0  0  0  0  0  0  0  0  0  0  0  0
   -1.4074    0.3593   -1.2373 C   0  0  0  0  0  0  0  0  0  0  0  0
   -1.1648   -0.1835   -2.1526 H   0  0  0  0  0  0  0  0  0  0  0  0
   -2.4274    0.7346   -1.3363 H   0  0  0  0  0  0  0  0  0  0  0  0
   -0.4783    1.5307   -1.1332 C   0  0  0  0  0  0  0  0  0  0  0  0
   -0.8495    2.8306   -1.1231 C   0  0  0  0  0  0  0  0  0  0  0  0
   -1.8722    3.1811   -1.2090 H   0  0  0  0  0  0  0  0  0  0  0  0
    0.2655    3.6306   -0.9672 N   0  0  0  0  0  0  0  0  0  0  0  0
    0.2276    4.6389   -0.9358 H   0  0  0  0  0  0  0  0  0  0  0  0
    1.4163    2.8803   -0.8516 C   0  0  0  0  0  0  0  0  0  0  0  0
    2.7633    3.2163   -0.6537 C   0  0  0  0  0  0  0  0  0  0  0  0
    3.0624    4.2505   -0.5666 H   0  0  0  0  0  0  0  0  0  0  0  0
    3.7185    2.1886   -0.5723 C   0  0  0  0  0  0  0  0  0  0  0  0
    4.7622    2.4288   -0.4210 H   0  0  0  0  0  0  0  0  0  0  0  0
    3.3159    0.8461   -0.6946 C   0  0  0  0  0  0  0  0  0  0  0  0
    4.0552    0.0591   -0.6396 H   0  0  0  0  0  0  0  0  0  0  0  0
    1.9595    0.5202   -0.8952 C   0  0  0  0  0  0  0  0  0  0  0  0
    1.6656   -0.5145   -1.0008 H   0  0  0  0  0  0  0  0  0  0  0  0
    0.9750    1.5288   -0.9752 C   0  0  0  0  0  0  0  0  0  0  0  0
   -1.2663    0.1182    1.2910 C   0  0  0  0  0  0  0  0  0  0  0  0
   -0.1906    0.1931    1.8833 O   0  0  0  0  0  0  0  0  0  0  0  0
   -2.3930    0.6605    1.7722 N   0  0  0  0  0  0  0  0  0  0  0  0
   -3.2451    0.5077    1.2518 H   0  0  0  0  0  0  0  0  0  0  0  0
   -2.4787    1.3954    3.0311 C   0  0  0  0  0  0  0  0  0  0  0  0
   -1.7166    2.1767    3.0539 H   0  0  0  0  0  0  0  0  0  0  0  0
   -3.4649    1.8498    3.1344 H   0  0  0  0  0  0  0  0  0  0  0  0
   -2.3058    0.7133    3.8652 H   0  0  0  0  0  0  0  0  0  0  0  0
  5  6  2  0  0  0  0
  5  7  1  0  0  0  0
  2  3  1  0  0  0  0
  2  4  1  0  0  0  0
  2  5  1  0  0  0  0
  1  2  1  0  0  0  0
 29 30  2  0  0  0  0
 29 31  1  0  0  0  0
 26 27  1  0  0  0  0
 26 28  2  0  0  0  0
 24 25  1  0  0  0  0
 24 26  1  0  0  0  0
 22 23  1  0  0  0  0
 22 24  2  0  0  0  0
 20 21  1  0  0  0  0
 20 22  1  0  0  0  0
 19 20  2  0  0  0  0
 19 28  1  0  0  0  0
 17 18  1  0  0  0  0
 17 19  1  0  0  0  0
 15 16  1  0  0  0  0
 15 17  1  0  0  0  0
 14 15  2  0  0  0  0
 14 28  1  0  0  0  0
 11 12  1  0  0  0  0
 11 13  1  0  0  0  0
 11 14  1  0  0  0  0
  9 10  1  0  0  0  0
  9 11  1  0  0  0  0
  9 29  1  0  0  0  0
  7  8  1  0  0  0  0
  7  9  1  0  0  0  0
 33 34  1  0  0  0  0
 33 35  1  0  0  0  0
 33 36  1  0  0  0  0
 31 32  1  0  0  0  0
 31 33  1  0  0  0  0
M  END
$$$$
default_name
  -OEChem-02102213163D

 36 37  0     1  0  0  0  0  0999 V2000
   -4.0843   -4.0736    1.2944 H   0  0  0  0  0  0  0  0  0  0  0  0
   -4.0342   -3.2816    0.5484 C   0  0  0  0  0  0  0  0  0  0  0  0
   -4.8842   -2.6126    0.6694 H   0  0  0  0  0  0  0  0  0  0  0  0
   -4.0433   -3.7186   -0.4486 H   0  0  0  0  0  0  0  0  0  0  0  0
   -2.7532   -2.5046    0.7444 C   0  0  0  0  0  0  0  0  0  0  0  0
   -1.9803   -2.8096    1.6434 O   0  0  0  0  0  0  0  0  0  0  0  0
   -2.5332   -1.4966   -0.0966 N   0  0  0  0  0  0  0  0  0  0  0  0
   -3.2312   -1.2816   -0.7936 H   0  0  0  0  0  0  0  0  0  0  0  0
   -1.3593   -0.6196   -0.0536 C   0  0  1  0  0  0  0  0  0  0  0  0
   -0.4622   -1.2317   -0.1545 H   0  0  0  0  0  0  0  0  0  0  0  0
   -1.4074    0.3593   -1.2373 C   0  0  0  0  0  0  0  0  0  0  0  0
   -1.1648   -0.1835   -2.1526 H   0  0  0  0  0  0  0  0  0  0  0  0
   -2.4274    0.7346   -1.3363 H   0  0  0  0  0  0  0  0  0  0  0  0
   -0.4783    1.5307   -1.1332 C   0  0  0  0  0  0  0  0  0  0  0  0
   -0.8416    2.7989   -0.8379 C   0  0  0  0  0  0  0  0  0  0  0  0
   -1.8609    3.1231   -0.6587 H   0  0  0  0  0  0  0  0  0  0  0  0
    0.2806    3.6020   -0.7814 N   0  0  0  0  0  0  0  0  0  0  0  0
    0.2484    4.5907   -0.5798 H   0  0  0  0  0  0  0  0  0  0  0  0
    1.4320    2.8831   -1.0225 C   0  0  0  0  0  0  0  0  0  0  0  0
    2.7905    3.2297   -1.0474 C   0  0  0  0  0  0  0  0  0  0  0  0
    3.0996    4.2466   -0.8554 H   0  0  0  0  0  0  0  0  0  0  0  0
    3.7438    2.2357   -1.3273 C   0  0  0  0  0  0  0  0  0  0  0  0
    4.7961    2.4847   -1.3518 H   0  0  0  0  0  0  0  0  0  0  0  0
    3.3267    0.9165   -1.5825 C   0  0  0  0  0  0  0  0  0  0  0  0
    4.0629    0.1567   -1.8056 H   0  0  0  0  0  0  0  0  0  0  0  0
    1.9584    0.5799   -1.5568 C   0  0  0  0  0  0  0  0  0  0  0  0
    1.6506   -0.4344   -1.7678 H   0  0  0  0  0  0  0  0  0  0  0  0
    0.9767    1.5539   -1.2728 C   0  0  0  0  0  0  0  0  0  0  0  0
   -1.2663    0.1182    1.2910 C   0  0  0  0  0  0  0  0  0  0  0  0
   -0.1906    0.1931    1.8833 O   0  0  0  0  0  0  0  0  0  0  0  0
   -2.3930    0.6605    1.7722 N   0  0  0  0  0  0  0  0  0  0  0  0
   -3.2451    0.5077    1.2518 H   0  0  0  0  0  0  0  0  0  0  0  0
   -2.4787    1.3954    3.0311 C   0  0  0  0  0  0  0  0  0  0  0  0
   -1.7166    2.1767    3.0539 H   0  0  0  0  0  0  0  0  0  0  0  0
   -3.4649    1.8498    3.1344 H   0  0  0  0  0  0  0  0  0  0  0  0
   -2.3058    0.7133    3.8652 H   0  0  0  0  0  0  0  0  0  0  0  0
  5  6  2  0  0  0  0
  5  7  1  0  0  0  0
  2  3  1  0  0  0  0
  2  4  1  0  0  0  0
  2  5  1  0  0  0  0
  1  2  1  0  0  0  0
 29 30  2  0  0  0  0
 29 31  1  0  0  0  0
 26 27  1  0  0  0  0
 26 28  2  0  0  0  0
 24 25  1  0  0  0  0
 24 26  1  0  0  0  0
 22 23  1  0  0  0  0
 22 24  2  0  0  0  0
 20 21  1  0  0  0  0
 20 22  1  0  0  0  0
 19 20  2  0  0  0  0
 19 28  1  0  0  0  0
 17 18  1  0  0  0  0
 17 19  1  0  0  0  0
 15 16  1  0  0  0  0
 15 17  1  0  0  0  0
 14 15  2  0  0  0  0
 14 28  1  0  0  0  0
 11 12  1  0  0  0  0
 11 13  1  0  0  0  0
 11 14  1  0  0  0  0
  9 10  1  0  0  0  0
  9 11  1  0  0  0  0
  9 29  1  0  0  0  0
  7  8  1  0  0  0  0
  7  9  1  0  0  0  0
 33 34  1  0  0  0  0
 33 35  1  0  0  0  0
 33 36  1  0  0  0  0
 31 32  1  0  0  0  0
 31 33  1  0  0  0  0
M  END
$$$$
default_name
  -OEChem-02102213163D

 36 37  0     1  0  0  0  0  0999 V2000
   -4.0843   -4.0736    1.2944 H   0  0  0  0  0  0  0  0  0  0  0  0
   -4.0342   -3.2816    0.5484 C   0  0  0  0  0  0  0  0  0  0  0  0
   -4.8842   -2.6126    0.6694 H   0  0  0  0  0  0  0  0  0  0  0  0
   -4.0433   -3.7186   -0.4486 H   0  0  0  0  0  0  0  0  0  0  0  0
   -2.7532   -2.5046    0.7444 C   0  0  0  0  0  0  0  0  0  0  0  0
   -1.9803   -2.8096    1.6434 O   0  0  0  0  0  0  0  0  0  0  0  0
   -2.5332   -1.4966   -0.0966 N   0  0  0  0  0  0  0  0  0  0  0  0
   -3.2312   -1.2816   -0.7936 H   0  0  0  0  0  0  0  0  0  0  0  0
   -1.3593   -0.6196   -0.0536 C   0  0  1  0  0  0  0  0  0  0  0  0
   -0.4622   -1.2317   -0.1545 H   0  0  0  0  0  0  0  0  0  0  0  0
   -1.4074    0.3593   -1.2373 C   0  0  0  0  0  0  0  0  0  0  0  0
   -1.1648   -0.1835   -2.1526 H   0  0  0  0  0  0  0  0  0  0  0  0
   -2.4274    0.7346   -1.3363 H   0  0  0  0  0  0  0  0  0  0  0  0
   -0.4783    1.5307   -1.1332 C   0  0  0  0  0  0  0  0  0  0  0  0
   -0.7757    2.7228   -0.5691 C   0  0  0  0  0  0  0  0  0  0  0  0
   -1.7375    2.9791   -0.1387 H   0  0  0  0  0  0  0  0  0  0  0  0
    0.3333    3.5450   -0.6095 N   0  0  0  0  0  0  0  0  0  0  0  0
    0.3414    4.4875   -0.2479 H   0  0  0  0  0  0  0  0  0  0  0  0
    1.4125    2.9135   -1.1904 C   0  0  0  0  0  0  0  0  0  0  0  0
    2.7369    3.3063   -1.4310 C   0  0  0  0  0  0  0  0  0  0  0  0
    3.0771    4.2900   -1.1426 H   0  0  0  0  0  0  0  0  0  0  0  0
    3.6146    2.4028   -2.0542 C   0  0  0  0  0  0  0  0  0  0  0  0
    4.6395    2.6887   -2.2487 H   0  0  0  0  0  0  0  0  0  0  0  0
    3.1562    1.1272   -2.4311 C   0  0  0  0  0  0  0  0  0  0  0  0
    3.8326    0.4382   -2.9178 H   0  0  0  0  0  0  0  0  0  0  0  0
    1.8223    0.7438   -2.1861 C   0  0  0  0  0  0  0  0  0  0  0  0
    1.4795   -0.2342   -2.4927 H   0  0  0  0  0  0  0  0  0  0  0  0
    0.9177    1.6259   -1.5565 C   0  0  0  0  0  0  0  0  0  0  0  0
   -1.2663    0.1182    1.2910 C   0  0  0  0  0  0  0  0  0  0  0  0
   -0.1906    0.1931    1.8833 O   0  0  0  0  0  0  0  0  0  0  0  0
   -2.3930    0.6605    1.7722 N   0  0  0  0  0  0  0  0  0  0  0  0
   -3.2451    0.5077    1.2518 H   0  0  0  0  0  0  0  0  0  0  0  0
   -2.4787    1.3954    3.0311 C   0  0  0  0  0  0  0  0  0  0  0  0
   -1.7166    2.1767    3.0539 H   0  0  0  0  0  0  0  0  0  0  0  0
   -3.4649    1.8498    3.1344 H   0  0  0  0  0  0  0  0  0  0  0  0
   -2.3058    0.7133    3.8652 H   0  0  0  0  0  0  0  0  0  0  0  0
  5  6  2  0  0  0  0
  5  7  1  0  0  0  0
  2  3  1  0  0  0  0
  2  4  1  0  0  0  0
  2  5  1  0  0  0  0
  1  2  1  0  0  0  0
 29 30  2  0  0  0  0
 29 31  1  0  0  0  0
 26 27  1  0  0  0  0
 26 28  2  0  0  0  0
 24 25  1  0  0  0  0
 24 26  1  0  0  0  0
 22 23  1  0  0  0  0
 22 24  2  0  0  0  0
 20 21  1  0  0  0  0
 20 22  1  0  0  0  0
 19 20  2  0  0  0  0
 19 28  1  0  0  0  0
 17 18  1  0  0  0  0
 17 19  1  0  0  0  0
 15 16  1  0  0  0  0
 15 17  1  0  0  0  0
 14 15  2  0  0  0  0
 14 28  1  0  0  0  0
 11 12  1  0  0  0  0
 11 13  1  0  0  0  0
 11 14  1  0  0  0  0
  9 10  1  0  0  0  0
  9 11  1  0  0  0  0
  9 29  1  0  0  0  0
  7  8  1  0  0  0  0
  7  9  1  0  0  0  0
 33 34  1  0  0  0  0
 33 35  1  0  0  0  0
 33 36  1  0  0  0  0
 31 32  1  0  0  0  0
 31 33  1  0  0  0  0
M  END
$$$$
default_name
  -OEChem-02102213163D

 36 37  0     1  0  0  0  0  0999 V2000
   -4.0843   -4.0736    1.2944 H   0  0  0  0  0  0  0  0  0  0  0  0
   -4.0342   -3.2816    0.5484 C   0  0  0  0  0  0  0  0  0  0  0  0
   -4.8842   -2.6126    0.6694 H   0  0  0  0  0  0  0  0  0  0  0  0
   -4.0433   -3.7186   -0.4486 H   0  0  0  0  0  0  0  0  0  0  0  0
   -2.7532   -2.5046    0.7444 C   0  0  0  0  0  0  0  0  0  0  0  0
   -1.9803   -2.8096    1.6434 O   0  0  0  0  0  0  0  0  0  0  0  0
   -2.5332   -1.4966   -0.0966 N   0  0  0  0  0  0  0  0  0  0  0  0
   -3.2312   -1.2816   -0.7936 H   0  0  0  0  0  0  0  0  0  0  0  0
   -1.3593   -0.6196   -0.0536 C   0  0  1  0  0  0  0  0  0  0  0  0
   -0.4622   -1.2317   -0.1545 H   0  0  0  0  0  0  0  0  0  0  0  0
   -1.4074    0.3593   -1.2373 C   0  0  0  0  0  0  0  0  0  0  0  0
   -1.1648   -0.1835   -2.1526 H   0  0  0  0  0  0  0  0  0  0  0  0
   -2.4274    0.7346   -1.3363 H   0  0  0  0  0  0  0  0  0  0  0  0
   -0.4783    1.5307   -1.1332 C   0  0  0  0  0  0  0  0  0  0  0  0
   -0.6563    2.6073   -0.3351 C   0  0  0  0  0  0  0  0  0  0  0  0
   -1.5106    2.7587    0.3156 H   0  0  0  0  0  0  0  0  0  0  0  0
    0.4200    3.4632   -0.4634 N   0  0  0  0  0  0  0  0  0  0  0  0
    0.5003    4.3361    0.0374 H   0  0  0  0  0  0  0  0  0  0  0  0
    1.3591    2.9694   -1.3438 C   0  0  0  0  0  0  0  0  0  0  0  0
    2.6062    3.4409   -1.7784 C   0  0  0  0  0  0  0  0  0  0  0  0
    2.9966    4.3775   -1.4084 H   0  0  0  0  0  0  0  0  0  0  0  0
    3.3398    2.6784   -2.7034 C   0  0  0  0  0  0  0  0  0  0  0  0
    4.3031    3.0267   -3.0507 H   0  0  0  0  0  0  0  0  0  0  0  0
    2.8161    1.4637   -3.1824 C   0  0  0  0  0  0  0  0  0  0  0  0
    3.3801    0.8844   -3.9003 H   0  0  0  0  0  0  0  0  0  0  0  0
    1.5607    1.0005   -2.7401 C   0  0  0  0  0  0  0  0  0  0  0  0
    1.1640    0.0723   -3.1262 H   0  0  0  0  0  0  0  0  0  0  0  0
    0.8021    1.7399   -1.8070 C   0  0  0  0  0  0  0  0  0  0  0  0
   -1.2663    0.1182    1.2910 C   0  0  0  0  0  0  0  0  0  0  0  0
   -0.1906    0.1931    1.8833 O   0  0  0  0  0  0  0  0  0  0  0  0
   -2.3930    0.6605    1.7722 N   0  0  0  0  0  0  0  0  0  0  0  0
   -3.2451    0.5077    1.2518 H   0  0  0  0  0  0  0  0  0  0  0  0
   -2.4787    1.3954    3.0311 C   0  0  0  0  0  0  0  0  0  0  0  0
   -1.7166    2.1767    3.0539 H   0  0  0  0  0  0  0  0  0  0  0  0
   -3.4649    1.8498    3.1344 H   0  0  0  0  0  0  0  0  0  0  0  0
   -2.3058    0.7133    3.8652 H   0  0  0  0  0  0  0  0  0  0  0  0
  5  6  2  0  0  0  0
  5  7  1  0  0  0  0
  2  3  1  0  0  0  0
  2  4  1  0  0  0  0
  2  5  1  0  0  0  0
  1  2  1  0  0  0  0
 29 30  2  0  0  0  0
 29 31  1  0  0  0  0
 26 27  1  0  0  0  0
 26 28  2  0  0  0  0
 24 25  1  0  0  0  0
 24 26  1  0  0  0  0
 22 23  1  0  0  0  0
 22 24  2  0  0  0  0
 20 21  1  0  0  0  0
 20 22  1  0  0  0  0
 19 20  2  0  0  0  0
 19 28  1  0  0  0  0
 17 18  1  0  0  0  0
 17 19  1  0  0  0  0
 15 16  1  0  0  0  0
 15 17  1  0  0  0  0
 14 15  2  0  0  0  0
 14 28  1  0  0  0  0
 11 12  1  0  0  0  0
 11 13  1  0  0  0  0
 11 14  1  0  0  0  0
  9 10  1  0  0  0  0
  9 11  1  0  0  0  0
  9 29  1  0  0  0  0
  7  8  1  0  0  0  0
  7  9  1  0  0  0  0
 33 34  1  0  0  0  0
 33 35  1  0  0  0  0
 33 36  1  0  0  0  0
 31 32  1  0  0  0  0
 31 33  1  0  0  0  0
M  END
$$$$
default_name
  -OEChem-02102213163D

 36 37  0     1  0  0  0  0  0999 V2000
   -4.0843   -4.0736    1.2944 H   0  0  0  0  0  0  0  0  0  0  0  0
   -4.0342   -3.2816    0.5484 C   0  0  0  0  0  0  0  0  0  0  0  0
   -4.8842   -2.6126    0.6694 H   0  0  0  0  0  0  0  0  0  0  0  0
   -4.0433   -3.7186   -0.4486 H   0  0  0  0  0  0  0  0  0  0  0  0
   -2.7532   -2.5046    0.7444 C   0  0  0  0  0  0  0  0  0  0  0  0
   -1.9803   -2.8096    1.6434 O   0  0  0  0  0  0  0  0  0  0  0  0
   -2.5332   -1.4966   -0.0966 N   0  0  0  0  0  0  0  0  0  0  0  0
   -3.2312   -1.2816   -0.7936 H   0  0  0  0  0  0  0  0  0  0  0  0
   -1.3593   -0.6196   -0.0536 C   0  0  1  0  0  0  0  0  0  0  0  0
   -0.4622   -1.2317   -0.1545 H   0  0  0  0  0  0  0  0  0  0  0  0
   -1.4074    0.3593   -1.2373 C   0  0  0  0  0  0  0  0  0  0  0  0
   -1.1648   -0.1835   -2.1526 H   0  0  0  0  0  0  0  0  0  0  0  0
   -2.4274    0.7346   -1.3363 H   0  0  0  0  0  0  0  0  0  0  0  0
   -0.4783    1.5307   -1.1332 C   0  0  0  0  0  0  0  0  0  0  0  0
   -0.4915    2.4603   -0.1517 C   0  0  0  0  0  0  0  0  0  0  0  0
   -1.1955    2.4771    0.6731 H   0  0  0  0  0  0  0  0  0  0  0  0
    0.5348    3.3623   -0.3528 N   0  0  0  0  0  0  0  0  0  0  0  0
    0.7141    4.1470    0.2565 H   0  0  0  0  0  0  0  0  0  0  0  0
    1.2755    3.0471   -1.4721 C   0  0  0  0  0  0  0  0  0  0  0  0
    2.4072    3.6243   -2.0659 C   0  0  0  0  0  0  0  0  0  0  0  0
    2.8634    4.5033   -1.6349 H   0  0  0  0  0  0  0  0  0  0  0  0
    2.9381    3.0439   -3.2306 C   0  0  0  0  0  0  0  0  0  0  0  0
    3.8099    3.4759   -3.7031 H   0  0  0  0  0  0  0  0  0  0  0  0
    2.3295    1.9032   -3.7854 C   0  0  0  0  0  0  0  0  0  0  0  0
    2.7363    1.4649   -4.6862 H   0  0  0  0  0  0  0  0  0  0  0  0
    1.1912    1.3328   -3.1811 C   0  0  0  0  0  0  0  0  0  0  0  0
    0.7256    0.4644   -3.6252 H   0  0  0  0  0  0  0  0  0  0  0  0
    0.6376    1.8882   -2.0073 C   0  0  0  0  0  0  0  0  0  0  0  0
   -1.2663    0.1182    1.2910 C   0  0  0  0  0  0  0  0  0  0  0  0
   -0.1906    0.1931    1.8833 O   0  0  0  0  0  0  0  0  0  0  0  0
   -2.3930    0.6605    1.7722 N   0  0  0  0  0  0  0  0  0  0  0  0
   -3.2451    0.5077    1.2518 H   0  0  0  0  0  0  0  0  0  0  0  0
   -2.4787    1.3954    3.0311 C   0  0  0  0  0  0  0  0  0  0  0  0
   -1.7166    2.1767    3.0539 H   0  0  0  0  0  0  0  0  0  0  0  0
   -3.4649    1.8498    3.1344 H   0  0  0  0  0  0  0  0  0  0  0  0
   -2.3058    0.7133    3.8652 H   0  0  0  0  0  0  0  0  0  0  0  0
  5  6  2  0  0  0  0
  5  7  1  0  0  0  0
  2  3  1  0  0  0  0
  2  4  1  0  0  0  0
  2  5  1  0  0  0  0
  1  2  1  0  0  0  0
 29 30  2  0  0  0  0
 29 31  1  0  0  0  0
 26 27  1  0  0  0  0
 26 28  2  0  0  0  0
 24 25  1  0  0  0  0
 24 26  1  0  0  0  0
 22 23  1  0  0  0  0
 22 24  2  0  0  0  0
 20 21  1  0  0  0  0
 20 22  1  0  0  0  0
 19 20  2  0  0  0  0
 19 28  1  0  0  0  0
 17 18  1  0  0  0  0
 17 19  1  0  0  0  0
 15 16  1  0  0  0  0
 15 17  1  0  0  0  0
 14 15  2  0  0  0  0
 14 28  1  0  0  0  0
 11 12  1  0  0  0  0
 11 13  1  0  0  0  0
 11 14  1  0  0  0  0
  9 10  1  0  0  0  0
  9 11  1  0  0  0  0
  9 29  1  0  0  0  0
  7  8  1  0  0  0  0
  7  9  1  0  0  0  0
 33 34  1  0  0  0  0
 33 35  1  0  0  0  0
 33 36  1  0  0  0  0
 31 32  1  0  0  0  0
 31 33  1  0  0  0  0
M  END
$$$$
default_name
  -OEChem-02102213163D

 36 37  0     1  0  0  0  0  0999 V2000
   -4.0843   -4.0736    1.2944 H   0  0  0  0  0  0  0  0  0  0  0  0
   -4.0342   -3.2816    0.5484 C   0  0  0  0  0  0  0  0  0  0  0  0
   -4.8842   -2.6126    0.6694 H   0  0  0  0  0  0  0  0  0  0  0  0
   -4.0433   -3.7186   -0.4486 H   0  0  0  0  0  0  0  0  0  0  0  0
   -2.7532   -2.5046    0.7444 C   0  0  0  0  0  0  0  0  0  0  0  0
   -1.9803   -2.8096    1.6434 O   0  0  0  0  0  0  0  0  0  0  0  0
   -2.5332   -1.4966   -0.0966 N   0  0  0  0  0  0  0  0  0  0  0  0
   -3.2312   -1.2816   -0.7936 H   0  0  0  0  0  0  0  0  0  0  0  0
   -1.3593   -0.6196   -0.0536 C   0  0  1  0  0  0  0  0  0  0  0  0
   -0.4622   -1.2317   -0.1545 H   0  0  0  0  0  0  0  0  0  0  0  0
   -1.4074    0.3593   -1.2373 C   0  0  0  0  0  0  0  0  0  0  0  0
   -1.1648   -0.1835   -2.1526 H   0  0  0  0  0  0  0  0  0  0  0  0
   -2.4274    0.7346   -1.3363 H   0  0  0  0  0  0  0  0  0  0  0  0
   -0.4783    1.5307   -1.1332 C   0  0  0  0  0  0  0  0  0  0  0  0
   -0.2926    2.2918   -0.0314 C   0  0  0  0  0  0  0  0  0  0  0  0
   -0.8138    2.1533    0.9094 H   0  0  0  0  0  0  0  0  0  0  0  0
    0.6699    3.2492   -0.2855 N   0  0  0  0  0  0  0  0  0  0  0  0
    0.9684    3.9331    0.3945 H   0  0  0  0  0  0  0  0  0  0  0  0
    1.1674    3.1413   -1.5667 C   0  0  0  0  0  0  0  0  0  0  0  0
    2.1535    3.8439   -2.2740 C   0  0  0  0  0  0  0  0  0  0  0  0
    2.6867    4.6587   -1.8065 H   0  0  0  0  0  0  0  0  0  0  0  0
    2.4368    3.4744   -3.6000 C   0  0  0  0  0  0  0  0  0  0  0  0
    3.1934    4.0056   -4.1614 H   0  0  0  0  0  0  0  0  0  0  0  0
    1.7297    2.4158   -4.1989 C   0  0  0  0  0  0  0  0  0  0  0  0
    1.9450    2.1402   -5.2220 H   0  0  0  0  0  0  0  0  0  0  0  0
    0.7392    1.7178   -3.4791 C   0  0  0  0  0  0  0  0  0  0  0  0
    0.1942    0.9153   -3.9555 H   0  0  0  0  0  0  0  0  0  0  0  0
    0.4355    2.0606   -2.1437 C   0  0  0  0  0  0  0  0  0  0  0  0
   -1.2663    0.1182    1.2910 C   0  0  0  0  0  0  0  0  0  0  0  0
   -0.1906    0.1931    1.8833 O   0  0  0  0  0  0  0  0  0  0  0  0
   -2.3930    0.6605    1.7722 N   0  0  0  0  0  0  0  0  0  0  0  0
   -3.2451    0.5077    1.2518 H   0  0  0  0  0  0  0  0  0  0  0  0
   -2.4787    1.3954    3.0311 C   0  0  0  0  0  0  0  0  0  0  0  0
   -1.7166    2.1767    3.0539 H   0  0  0  0  0  0  0  0  0  0  0  0
   -3.4649    1.8498    3.1344 H   0  0  0  0  0  0  0  0  0  0  0  0
   -2.3058    0.7133    3.8652 H   0  0  0  0  0  0  0  0  0  0  0  0
  5  6  2  0  0  0  0
  5  7  1  0  0  0  0
  2  3  1  0  0  0  0
  2  4  1  0  0  0  0
  2  5  1  0  0  0  0
  1  2  1  0  0  0  0
 29 30  2  0  0  0  0
 29 31  1  0  0  0  0
 26 27  1  0  0  0  0
 26 28  2  0  0  0  0
 24 25  1  0  0  0  0
 24 26  1  0  0  0  0
 22 23  1  0  0  0  0
 22 24  2  0  0  0  0
 20 21  1  0  0  0  0
 20 22  1  0  0  0  0
 19 20  2  0  0  0  0
 19 28  1  0  0  0  0
 17 18  1  0  0  0  0
 17 19  1  0  0  0  0
 15 16  1  0  0  0  0
 15 17  1  0  0  0  0
 14 15  2  0  0  0  0
 14 28  1  0  0  0  0
 11 12  1  0  0  0  0
 11 13  1  0  0  0  0
 11 14  1  0  0  0  0
  9 10  1  0  0  0  0
  9 11  1  0  0  0  0
  9 29  1  0  0  0  0
  7  8  1  0  0  0  0
  7  9  1  0  0  0  0
 33 34  1  0  0  0  0
 33 35  1  0  0  0  0
 33 36  1  0  0  0  0
 31 32  1  0  0  0  0
 31 33  1  0  0  0  0
M  END
$$$$
default_name
  -OEChem-02102213163D

 36 37  0     1  0  0  0  0  0999 V2000
   -4.0843   -4.0736    1.2944 H   0  0  0  0  0  0  0  0  0  0  0  0
   -4.0342   -3.2816    0.5484 C   0  0  0  0  0  0  0  0  0  0  0  0
   -4.8842   -2.6126    0.6694 H   0  0  0  0  0  0  0  0  0  0  0  0
   -4.0433   -3.7186   -0.4486 H   0  0  0  0  0  0  0  0  0  0  0  0
   -2.7532   -2.5046    0.7444 C   0  0  0  0  0  0  0  0  0  0  0  0
   -1.9803   -2.8096    1.6434 O   0  0  0  0  0  0  0  0  0  0  0  0
   -2.5332   -1.4966   -0.0966 N   0  0  0  0  0  0  0  0  0  0  0  0
   -3.2312   -1.2816   -0.7936 H   0  0  0  0  0  0  0  0  0  0  0  0
   -1.3593   -0.6196   -0.0536 C   0  0  1  0  0  0  0  0  0  0  0  0
   -0.4622   -1.2317   -0.1545 H   0  0  0  0  0  0  0  0  0  0  0  0
   -1.4074    0.3593   -1.2373 C   0  0  0  0  0  0  0  0  0  0  0  0
   -1.1648   -0.1835   -2.1526 H   0  0  0  0  0  0  0  0  0  0  0  0
   -2.4274    0.7346   -1.3363 H   0  0  0  0  0  0  0  0  0  0  0  0
   -0.4783    1.5307   -1.1332 C   0  0  0  0  0  0  0  0  0  0  0  0
   -0.0731    2.1134    0.0174 C   0  0  0  0  0  0  0  0  0  0  0  0
   -0.3915    1.8095    1.0086 H   0  0  0  0  0  0  0  0  0  0  0  0
    0.8160    3.1316   -0.2659 N   0  0  0  0  0  0  0  0  0  0  0  0
    1.2458    3.7088    0.4421 H   0  0  0  0  0  0  0  0  0  0  0  0
    1.0422    3.2454   -1.6211 C   0  0  0  0  0  0  0  0  0  0  0  0
    1.8624    4.0850   -2.3884 C   0  0  0  0  0  0  0  0  0  0  0  0
    2.4785    4.8332   -1.9116 H   0  0  0  0  0  0  0  0  0  0  0  0
    1.8702    3.9403   -3.7863 C   0  0  0  0  0  0  0  0  0  0  0  0
    2.4957    4.5797   -4.3944 H   0  0  0  0  0  0  0  0  0  0  0  0
    1.0574    2.9664   -4.3947 C   0  0  0  0  0  0  0  0  0  0  0  0
    1.0602    2.8641   -5.4711 H   0  0  0  0  0  0  0  0  0  0  0  0
    0.2354    2.1293   -3.6137 C   0  0  0  0  0  0  0  0  0  0  0  0
   -0.3941    1.3942   -4.0947 H   0  0  0  0  0  0  0  0  0  0  0  0
    0.2097    2.2453   -2.2070 C   0  0  0  0  0  0  0  0  0  0  0  0
   -1.2663    0.1182    1.2910 C   0  0  0  0  0  0  0  0  0  0  0  0
   -0.1906    0.1931    1.8833 O   0  0  0  0  0  0  0  0  0  0  0  0
   -2.3930    0.6605    1.7722 N   0  0  0  0  0  0  0  0  0  0  0  0
   -3.2451    0.5077    1.2518 H   0  0  0  0  0  0  0  0  0  0  0  0
   -2.4787    1.3954    3.0311 C   0  0  0  0  0  0  0  0  0  0  0  0
   -1.7166    2.1767    3.0539 H   0  0  0  0  0  0  0  0  0  0  0  0
   -3.4649    1.8498    3.1344 H   0  0  0  0  0  0  0  0  0  0  0  0
   -2.3058    0.7133    3.8652 H   0  0  0  0  0  0  0  0  0  0  0  0
  5  6  2  0  0  0  0
  5  7  1  0  0  0  0
  2  3  1  0  0  0  0
  2  4  1  0  0  0  0
  2  5  1  0  0  0  0
  1  2  1  0  0  0  0
 29 30  2  0  0  0  0
 29 31  1  0  0  0  0
 26 27  1  0  0  0  0
 26 28  2  0  0  0  0
 24 25  1  0  0  0  0
 24 26  1  0  0  0  0
 22 23  1  0  0  0  0
 22 24  2  0  0  0  0
 20 21  1  0  0  0  0
 20 22  1  0  0  0  0
 19 20  2  0  0  0  0
 19 28  1  0  0  0  0
 17 18  1  0  0  0  0
 17 19  1  0  0  0  0
 15 16  1  0  0  0  0
 15 17  1  0  0  0  0
 14 15  2  0  0  0  0
 14 28  1  0  0  0  0
 11 12  1  0  0  0  0
 11 13  1  0  0  0  0
 11 14  1  0  0  0  0
  9 10  1  0  0  0  0
  9 11  1  0  0  0  0
  9 29  1  0  0  0  0
  7  8  1  0  0  0  0
  7  9  1  0  0  0  0
 33 34  1  0  0  0  0
 33 35  1  0  0  0  0
 33 36  1  0  0  0  0
 31 32  1  0  0  0  0
 31 33  1  0  0  0  0
M  END
$$$$
default_name
  -OEChem-02102213163D

 36 37  0     1  0  0  0  0  0999 V2000
   -4.0843   -4.0736    1.2944 H   0  0  0  0  0  0  0  0  0  0  0  0
   -4.0342   -3.2816    0.5484 C   0  0  0  0  0  0  0  0  0  0  0  0
   -4.8842   -2.6126    0.6694 H   0  0  0  0  0  0  0  0  0  0  0  0
   -4.0433   -3.7186   -0.4486 H   0  0  0  0  0  0  0  0  0  0  0  0
   -2.7532   -2.5046    0.7444 C   0  0  0  0  0  0  0  0  0  0  0  0
   -1.9803   -2.8096    1.6434 O   0  0  0  0  0  0  0  0  0  0  0  0
   -2.5332   -1.4966   -0.0966 N   0  0  0  0  0  0  0  0  0  0  0  0
   -3.2312   -1.2816   -0.7936 H   0  0  0  0  0  0  0  0  0  0  0  0
   -1.3593   -0.6196   -0.0536 C   0  0  1  0  0  0  0  0  0  0  0  0
   -0.4622   -1.2317   -0.1545 H   0  0  0  0  0  0  0  0  0  0  0  0
   -1.4074    0.3593   -1.2373 C   0  0  0  0  0  0  0  0  0  0  0  0
   -1.1648   -0.1835   -2.1526 H   0  0  0  0  0  0  0  0  0  0  0  0
   -2.4274    0.7346   -1.3363 H   0  0  0  0  0  0  0  0  0  0  0  0
   -0.4783    1.5307   -1.1332 C   0  0  0  0  0  0  0  0  0  0  0  0
    0.1520    1.9372   -0.0084 C   0  0  0  0  0  0  0  0  0  0  0  0
    0.0426    1.4692    0.9638 H   0  0  0  0  0  0  0  0  0  0  0  0
    0.9632    3.0174   -0.2954 N   0  0  0  0  0  0  0  0  0  0  0  0
    1.5274    3.4896    0.3959 H   0  0  0  0  0  0  0  0  0  0  0  0
    0.9084    3.3525   -1.6316 C   0  0  0  0  0  0  0  0  0  0  0  0
    1.5538    4.3309   -2.4013 C   0  0  0  0  0  0  0  0  0  0  0  0
    2.2530    5.0148   -1.9430 H   0  0  0  0  0  0  0  0  0  0  0  0
    1.2768    4.4102   -3.7768 C   0  0  0  0  0  0  0  0  0  0  0  0
    1.7644    5.1591   -4.3862 H   0  0  0  0  0  0  0  0  0  0  0  0
    0.3585    3.5176   -4.3595 C   0  0  0  0  0  0  0  0  0  0  0  0
    0.1421    3.5875   -5.4165 H   0  0  0  0  0  0  0  0  0  0  0  0
   -0.2859    2.5394   -3.5757 C   0  0  0  0  0  0  0  0  0  0  0  0
   -0.9991    1.8686   -4.0334 H   0  0  0  0  0  0  0  0  0  0  0  0
   -0.0246    2.4299   -2.1927 C   0  0  0  0  0  0  0  0  0  0  0  0
   -1.2663    0.1182    1.2910 C   0  0  0  0  0  0  0  0  0  0  0  0
   -0.1906    0.1931    1.8833 O   0  0  0  0  0  0  0  0  0  0  0  0
   -2.3930    0.6605    1.7722 N   0  0  0  0  0  0  0  0  0  0  0  0
   -3.2451    0.5077    1.2518 H   0  0  0  0  0  0  0  0  0  0  0  0
   -2.4787    1.3954    3.0311 C   0  0  0  0  0  0  0  0  0  0  0  0
   -1.7166    2.1767    3.0539 H   0  0  0  0  0  0  0  0  0  0  0  0
   -3.4649    1.8498    3.1344 H   0  0  0  0  0  0  0  0  0  0  0  0
   -2.3058    0.7133    3.8652 H   0  0  0  0  0  0  0  0  0  0  0  0
  5  6  2  0  0  0  0
  5  7  1  0  0  0  0
  2  3  1  0  0  0  0
  2  4  1  0  0  0  0
  2  5  1  0  0  0  0
  1  2  1  0  0  0  0
 29 30  2  0  0  0  0
 29 31  1  0  0  0  0
 26 27  1  0  0  0  0
 26 28  2  0  0  0  0
 24 25  1  0  0  0  0
 24 26  1  0  0  0  0
 22 23  1  0  0  0  0
 22 24  2  0  0  0  0
 20 21  1  0  0  0  0
 20 22  1  0  0  0  0
 19 20  2  0  0  0  0
 19 28  1  0  0  0  0
 17 18  1  0  0  0  0
 17 19  1  0  0  0  0
 15 16  1  0  0  0  0
 15 17  1  0  0  0  0
 14 15  2  0  0  0  0
 14 28  1  0  0  0  0
 11 12  1  0  0  0  0
 11 13  1  0  0  0  0
 11 14  1  0  0  0  0
  9 10  1  0  0  0  0
  9 11  1  0  0  0  0
  9 29  1  0  0  0  0
  7  8  1  0  0  0  0
  7  9  1  0  0  0  0
 33 34  1  0  0  0  0
 33 35  1  0  0  0  0
 33 36  1  0  0  0  0
 31 32  1  0  0  0  0
 31 33  1  0  0  0  0
M  END
$$$$
default_name
  -OEChem-02102213163D

 36 37  0     1  0  0  0  0  0999 V2000
   -4.0843   -4.0736    1.2944 H   0  0  0  0  0  0  0  0  0  0  0  0
   -4.0342   -3.2816    0.5484 C   0  0  0  0  0  0  0  0  0  0  0  0
   -4.8842   -2.6126    0.6694 H   0  0  0  0  0  0  0  0  0  0  0  0
   -4.0433   -3.7186   -0.4486 H   0  0  0  0  0  0  0  0  0  0  0  0
   -2.7532   -2.5046    0.7444 C   0  0  0  0  0  0  0  0  0  0  0  0
   -1.9803   -2.8096    1.6434 O   0  0  0  0  0  0  0  0  0  0  0  0
   -2.5332   -1.4966   -0.0966 N   0  0  0  0  0  0  0  0  0  0  0  0
   -3.2312   -1.2816   -0.7936 H   0  0  0  0  0  0  0  0  0  0  0  0
   -1.3593   -0.6196   -0.0536 C   0  0  1  0  0  0  0  0  0  0  0  0
   -0.4622   -1.2317   -0.1545 H   0  0  0  0  0  0  0  0  0  0  0  0
   -1.4074    0.3593   -1.2373 C   0  0  0  0  0  0  0  0  0  0  0  0
   -1.1648   -0.1835   -2.1526 H   0  0  0  0  0  0  0  0  0  0  0  0
   -2.4274    0.7346   -1.3363 H   0  0  0  0  0  0  0  0  0  0  0  0
   -0.4783    1.5307   -1.1332 C   0  0  0  0  0  0  0  0  0  0  0  0
    0.3673    1.7751   -0.1071 C   0  0  0  0  0  0  0  0  0  0  0  0
    0.4591    1.1554    0.7781 H   0  0  0  0  0  0  0  0  0  0  0  0
    1.1015    2.9146   -0.3720 N   0  0  0  0  0  0  0  0  0  0  0  0
    1.7940    3.2903    0.2592 H   0  0  0  0  0  0  0  0  0  0  0  0
    0.7750    3.4552   -1.5975 C   0  0  0  0  0  0  0  0  0  0  0  0
    1.2487    4.5650   -2.3120 C   0  0  0  0  0  0  0  0  0  0  0  0
    2.0256    5.1912   -1.8986 H   0  0  0  0  0  0  0  0  0  0  0  0
    0.6971    4.8518   -3.5723 C   0  0  0  0  0  0  0  0  0  0  0  0
    1.0492    5.7042   -4.1374 H   0  0  0  0  0  0  0  0  0  0  0  0
   -0.3193    4.0318   -4.0956 C   0  0  0  0  0  0  0  0  0  0  0  0
   -0.7467    4.2609   -5.0620 H   0  0  0  0  0  0  0  0  0  0  0  0
   -0.7891    2.9201   -3.3679 C   0  0  0  0  0  0  0  0  0  0  0  0
   -1.5796    2.3062   -3.7756 H   0  0  0  0  0  0  0  0  0  0  0  0
   -0.2513    2.6017   -2.1020 C   0  0  0  0  0  0  0  0  0  0  0  0
   -1.2663    0.1182    1.2910 C   0  0  0  0  0  0  0  0  0  0  0  0
   -0.1906    0.1931    1.8833 O   0  0  0  0  0  0  0  0  0  0  0  0
   -2.3930    0.6605    1.7722 N   0  0  0  0  0  0  0  0  0  0  0  0
   -3.2451    0.5077    1.2518 H   0  0  0  0  0  0  0  0  0  0  0  0
   -2.4787    1.3954    3.0311 C   0  0  0  0  0  0  0  0  0  0  0  0
   -1.7166    2.1767    3.0539 H   0  0  0  0  0  0  0  0  0  0  0  0
   -3.4649    1.8498    3.1344 H   0  0  0  0  0  0  0  0  0  0  0  0
   -2.3058    0.7133    3.8652 H   0  0  0  0  0  0  0  0  0  0  0  0
  5  6  2  0  0  0  0
  5  7  1  0  0  0  0
  2  3  1  0  0  0  0
  2  4  1  0  0  0  0
  2  5  1  0  0  0  0
  1  2  1  0  0  0  0
 29 30  2  0  0  0  0
 29 31  1  0  0  0  0
 26 27  1  0  0  0  0
 26 28  2  0  0  0  0
 24 25  1  0  0  0  0
 24 26  1  0  0  0  0
 22 23  1  0  0  0  0
 22 24  2  0  0  0  0
 20 21  1  0  0  0  0
 20 22  1  0  0  0  0
 19 20  2  0  0  0  0
 19 28  1  0  0  0  0
 17 18  1  0  0  0  0
 17 19  1  0  0  0  0
 15 16  1  0  0  0  0
 15 17  1  0  0  0  0
 14 15  2  0  0  0  0
 14 28  1  0  0  0  0
 11 12  1  0  0  0  0
 11 13  1  0  0  0  0
 11 14  1  0  0  0  0
  9 10  1  0  0  0  0
  9 11  1  0  0  0  0
  9 29  1  0  0  0  0
  7  8  1  0  0  0  0
  7  9  1  0  0  0  0
 33 34  1  0  0  0  0
 33 35  1  0  0  0  0
 33 36  1  0  0  0  0
 31 32  1  0  0  0  0
 31 33  1  0  0  0  0
M  END
$$$$
default_name
  -OEChem-02102213163D

 36 37  0     1  0  0  0  0  0999 V2000
   -4.0843   -4.0736    1.2944 H   0  0  0  0  0  0  0  0  0  0  0  0
   -4.0342   -3.2816    0.5484 C   0  0  0  0  0  0  0  0  0  0  0  0
   -4.8842   -2.6126    0.6694 H   0  0  0  0  0  0  0  0  0  0  0  0
   -4.0433   -3.7186   -0.4486 H   0  0  0  0  0  0  0  0  0  0  0  0
   -2.7532   -2.5046    0.7444 C   0  0  0  0  0  0  0  0  0  0  0  0
   -1.9803   -2.8096    1.6434 O   0  0  0  0  0  0  0  0  0  0  0  0
   -2.5332   -1.4966   -0.0966 N   0  0  0  0  0  0  0  0  0  0  0  0
   -3.2312   -1.2816   -0.7936 H   0  0  0  0  0  0  0  0  0  0  0  0
   -1.3593   -0.6196   -0.0536 C   0  0  1  0  0  0  0  0  0  0  0  0
   -0.4622   -1.2317   -0.1545 H   0  0  0  0  0  0  0  0  0  0  0  0
   -1.4074    0.3593   -1.2373 C   0  0  0  0  0  0  0  0  0  0  0  0
   -1.1648   -0.1835   -2.1526 H   0  0  0  0  0  0  0  0  0  0  0  0
   -2.4274    0.7346   -1.3363 H   0  0  0  0  0  0  0  0  0  0  0  0
   -0.4783    1.5307   -1.1332 C   0  0  0  0  0  0  0  0  0  0  0  0
    0.5583    1.6383   -0.2721 C   0  0  0  0  0  0  0  0  0  0  0  0
    0.8294    0.8895    0.4641 H   0  0  0  0  0  0  0  0  0  0  0  0
    1.2214    2.8300   -0.4905 N   0  0  0  0  0  0  0  0  0  0  0  0
    2.0275    3.1245    0.0413 H   0  0  0  0  0  0  0  0  0  0  0  0
    0.6513    3.5466   -1.5211 C   0  0  0  0  0  0  0  0  0  0  0  0
    0.9678    4.7713   -2.1263 C   0  0  0  0  0  0  0  0  0  0  0  0
    1.8117    5.3505   -1.7814 H   0  0  0  0  0  0  0  0  0  0  0  0
    0.1705    5.2351   -3.1866 C   0  0  0  0  0  0  0  0  0  0  0  0
    0.3988    6.1780   -3.6649 H   0  0  0  0  0  0  0  0  0  0  0  0
   -0.9300    4.4739   -3.6212 C   0  0  0  0  0  0  0  0  0  0  0  0
   -1.5456    4.8386   -4.4318 H   0  0  0  0  0  0  0  0  0  0  0  0
   -1.2399    3.2453   -3.0042 C   0  0  0  0  0  0  0  0  0  0  0  0
   -2.0960    2.6770   -3.3390 H   0  0  0  0  0  0  0  0  0  0  0  0
   -0.4551    2.7489   -1.9409 C   0  0  0  0  0  0  0  0  0  0  0  0
   -1.2663    0.1182    1.2910 C   0  0  0  0  0  0  0  0  0  0  0  0
   -0.1906    0.1931    1.8833 O   0  0  0  0  0  0  0  0  0  0  0  0
   -2.3930    0.6605    1.7722 N   0  0  0  0  0  0  0  0  0  0  0  0
   -3.2451    0.5077    1.2518 H   0  0  0  0  0  0  0  0  0  0  0  0
   -2.4787    1.3954    3.0311 C   0  0  0  0  0  0  0  0  0  0  0  0
   -1.7166    2.1767    3.0539 H   0  0  0  0  0  0  0  0  0  0  0  0
   -3.4649    1.8498    3.1344 H   0  0  0  0  0  0  0  0  0  0  0  0
   -2.3058    0.7133    3.8652 H   0  0  0  0  0  0  0  0  0  0  0  0
  5  6  2  0  0  0  0
  5  7  1  0  0  0  0
  2  3  1  0  0  0  0
  2  4  1  0  0  0  0
  2  5  1  0  0  0  0
  1  2  1  0  0  0  0
 29 30  2  0  0  0  0
 29 31  1  0  0  0  0
 26 27  1  0  0  0  0
 26 28  2  0  0  0  0
 24 25  1  0  0  0  0
 24 26  1  0  0  0  0
 22 23  1  0  0  0  0
 22 24  2  0  0  0  0
 20 21  1  0  0  0  0
 20 22  1  0  0  0  0
 19 20  2  0  0  0  0
 19 28  1  0  0  0  0
 17 18  1  0  0  0  0
 17 19  1  0  0  0  0
 15 16  1  0  0  0  0
 15 17  1  0  0  0  0
 14 15  2  0  0  0  0
 14 28  1  0  0  0  0
 11 12  1  0  0  0  0
 11 13  1  0  0  0  0
 11 14  1  0  0  0  0
  9 10  1  0  0  0  0
  9 11  1  0  0  0  0
  9 29  1  0  0  0  0
  7  8  1  0  0  0  0
  7  9  1  0  0  0  0
 33 34  1  0  0  0  0
 33 35  1  0  0  0  0
 33 36  1  0  0  0  0
 31 32  1  0  0  0  0
 31 33  1  0  0  0  0
M  END
$$$$
default_name
  -OEChem-02102213163D

 36 37  0     1  0  0  0  0  0999 V2000
   -4.0843   -4.0736    1.2944 H   0  0  0  0  0  0  0  0  0  0  0  0
   -4.0342   -3.2816    0.5484 C   0  0  0  0  0  0  0  0  0  0  0  0
   -4.8842   -2.6126    0.6694 H   0  0  0  0  0  0  0  0  0  0  0  0
   -4.0433   -3.7186   -0.4486 H   0  0  0  0  0  0  0  0  0  0  0  0
   -2.7532   -2.5046    0.7444 C   0  0  0  0  0  0  0  0  0  0  0  0
   -1.9803   -2.8096    1.6434 O   0  0  0  0  0  0  0  0  0  0  0  0
   -2.5332   -1.4966   -0.0966 N   0  0  0  0  0  0  0  0  0  0  0  0
   -3.2312   -1.2816   -0.7936 H   0  0  0  0  0  0  0  0  0  0  0  0
   -1.3593   -0.6196   -0.0536 C   0  0  1  0  0  0  0  0  0  0  0  0
   -0.4622   -1.2317   -0.1545 H   0  0  0  0  0  0  0  0  0  0  0  0
   -1.4074    0.3593   -1.2373 C   0  0  0  0  0  0  0  0  0  0  0  0
   -1.1648   -0.1835   -2.1526 H   0  0  0  0  0  0  0  0  0  0  0  0
   -2.4274    0.7346   -1.3363 H   0  0  0  0  0  0  0  0  0  0  0  0
   -0.4783    1.5307   -1.1332 C   0  0  0  0  0  0  0  0  0  0  0  0
    0.7119    1.5361   -0.4920 C   0  0  0  0  0  0  0  0  0  0  0  0
    1.1284    0.6898    0.0433 H   0  0  0  0  0  0  0  0  0  0  0  0
    1.3148    2.7695   -0.6427 N   0  0  0  0  0  0  0  0  0  0  0  0
    2.2118    3.0035   -0.2431 H   0  0  0  0  0  0  0  0  0  0  0  0
    0.5456    3.6203   -1.4076 C   0  0  0  0  0  0  0  0  0  0  0  0
    0.7303    4.9357   -1.8571 C   0  0  0  0  0  0  0  0  0  0  0  0
    1.6260    5.4816   -1.5993 H   0  0  0  0  0  0  0  0  0  0  0  0
   -0.2669    5.5341   -2.6461 C   0  0  0  0  0  0  0  0  0  0  0  0
   -0.1422    6.5482   -3.0009 H   0  0  0  0  0  0  0  0  0  0  0  0
   -1.4318    4.8139   -2.9684 C   0  0  0  0  0  0  0  0  0  0  0  0
   -2.2002    5.2811   -3.5687 H   0  0  0  0  0  0  0  0  0  0  0  0
   -1.6077    3.4931   -2.5095 C   0  0  0  0  0  0  0  0  0  0  0  0
   -2.5132    2.9558   -2.7533 H   0  0  0  0  0  0  0  0  0  0  0  0
   -0.6219    2.8617   -1.7205 C   0  0  0  0  0  0  0  0  0  0  0  0
   -1.2663    0.1182    1.2910 C   0  0  0  0  0  0  0  0  0  0  0  0
   -0.1906    0.1931    1.8833 O   0  0  0  0  0  0  0  0  0  0  0  0
   -2.3930    0.6605    1.7722 N   0  0  0  0  0  0  0  0  0  0  0  0
   -3.2451    0.5077    1.2518 H   0  0  0  0  0  0  0  0  0  0  0  0
   -2.4787    1.3954    3.0311 C   0  0  0  0  0  0  0  0  0  0  0  0
   -1.7166    2.1767    3.0539 H   0  0  0  0  0  0  0  0  0  0  0  0
   -3.4649    1.8498    3.1344 H   0  0  0  0  0  0  0  0  0  0  0  0
   -2.3058    0.7133    3.8652 H   0  0  0  0  0  0  0  0  0  0  0  0
  5  6  2  0  0  0  0
  5  7  1  0  0  0  0
  2  3  1  0  0  0  0
  2  4  1  0  0  0  0
  2  5  1  0  0  0  0
  1  2  1  0  0  0  0
 29 30  2  0  0  0  0
 29 31  1  0  0  0  0
 26 27  1  0  0  0  0
 26 28  2  0  0  0  0
 24 25  1  0  0  0  0
 24 26  1  0  0  0  0
 22 23  1  0  0  0  0
 22 24  2  0  0  0  0
 20 21  1  0  0  0  0
 20 22  1  0  0  0  0
 19 20  2  0  0  0  0
 19 28  1  0  0  0  0
 17 18  1  0  0  0  0
 17 19  1  0  0  0  0
 15 16  1  0  0  0  0
 15 17  1  0  0  0  0
 14 15  2  0  0  0  0
 14 28  1  0  0  0  0
 11 12  1  0  0  0  0
 11 13  1  0  0  0  0
 11 14  1  0  0  0  0
  9 10  1  0  0  0  0
  9 11  1  0  0  0  0
  9 29  1  0  0  0  0
  7  8  1  0  0  0  0
  7  9  1  0  0  0  0
 33 34  1  0  0  0  0
 33 35  1  0  0  0  0
 33 36  1  0  0  0  0
 31 32  1  0  0  0  0
 31 33  1  0  0  0  0
M  END
$$$$
default_name
  -OEChem-02102213163D

 36 37  0     1  0  0  0  0  0999 V2000
   -4.0843   -4.0736    1.2944 H   0  0  0  0  0  0  0  0  0  0  0  0
   -4.0342   -3.2816    0.5484 C   0  0  0  0  0  0  0  0  0  0  0  0
   -4.8842   -2.6126    0.6694 H   0  0  0  0  0  0  0  0  0  0  0  0
   -4.0433   -3.7186   -0.4486 H   0  0  0  0  0  0  0  0  0  0  0  0
   -2.7532   -2.5046    0.7444 C   0  0  0  0  0  0  0  0  0  0  0  0
   -1.9803   -2.8096    1.6434 O   0  0  0  0  0  0  0  0  0  0  0  0
   -2.5332   -1.4966   -0.0966 N   0  0  0  0  0  0  0  0  0  0  0  0
   -3.2312   -1.2816   -0.7936 H   0  0  0  0  0  0  0  0  0  0  0  0
   -1.3593   -0.6196   -0.0536 C   0  0  1  0  0  0  0  0  0  0  0  0
   -0.4622   -1.2317   -0.1545 H   0  0  0  0  0  0  0  0  0  0  0  0
   -1.4074    0.3593   -1.2373 C   0  0  0  0  0  0  0  0  0  0  0  0
   -1.1648   -0.1835   -2.1526 H   0  0  0  0  0  0  0  0  0  0  0  0
   -2.4274    0.7346   -1.3363 H   0  0  0  0  0  0  0  0  0  0  0  0
   -0.4783    1.5307   -1.1332 C   0  0  0  0  0  0  0  0  0  0  0  0
    0.8175    1.4753   -0.7518 C   0  0  0  0  0  0  0  0  0  0  0  0
    1.3356    0.5698   -0.4557 H   0  0  0  0  0  0  0  0  0  0  0  0
    1.3753    2.7371   -0.8184 N   0  0  0  0  0  0  0  0  0  0  0  0
    2.3346    2.9356   -0.5745 H   0  0  0  0  0  0  0  0  0  0  0  0
    0.4651    3.6715   -1.2648 C   0  0  0  0  0  0  0  0  0  0  0  0
    0.5525    5.0471   -1.5227 C   0  0  0  0  0  0  0  0  0  0  0  0
    1.4810    5.5757   -1.3649 H   0  0  0  0  0  0  0  0  0  0  0  0
   -0.5855    5.7282   -1.9875 C   0  0  0  0  0  0  0  0  0  0  0  0
   -0.5372    6.7895   -2.1908 H   0  0  0  0  0  0  0  0  0  0  0  0
   -1.7905    5.0286   -2.1819 C   0  0  0  0  0  0  0  0  0  0  0  0
   -2.6659    5.5582   -2.5317 H   0  0  0  0  0  0  0  0  0  0  0  0
   -1.8673    3.6464   -1.9175 C   0  0  0  0  0  0  0  0  0  0  0  0
   -2.8027    3.1237   -2.0584 H   0  0  0  0  0  0  0  0  0  0  0  0
   -0.7405    2.9322   -1.4557 C   0  0  0  0  0  0  0  0  0  0  0  0
   -1.2663    0.1182    1.2910 C   0  0  0  0  0  0  0  0  0  0  0  0
   -0.1906    0.1931    1.8833 O   0  0  0  0  0  0  0  0  0  0  0  0
   -2.3930    0.6605    1.7722 N   0  0  0  0  0  0  0  0  0  0  0  0
   -3.2451    0.5077    1.2518 H   0  0  0  0  0  0  0  0  0  0  0  0
   -2.4787    1.3954    3.0311 C   0  0  0  0  0  0  0  0  0  0  0  0
   -1.7166    2.1767    3.0539 H   0  0  0  0  0  0  0  0  0  0  0  0
   -3.4649    1.8498    3.1344 H   0  0  0  0  0  0  0  0  0  0  0  0
   -2.3058    0.7133    3.8652 H   0  0  0  0  0  0  0  0  0  0  0  0
  5  6  2  0  0  0  0
  5  7  1  0  0  0  0
  2  3  1  0  0  0  0
  2  4  1  0  0  0  0
  2  5  1  0  0  0  0
  1  2  1  0  0  0  0
 29 30  2  0  0  0  0
 29 31  1  0  0  0  0
 26 27  1  0  0  0  0
 26 28  2  0  0  0  0
 24 25  1  0  0  0  0
 24 26  1  0  0  0  0
 22 23  1  0  0  0  0
 22 24  2  0  0  0  0
 20 21  1  0  0  0  0
 20 22  1  0  0  0  0
 19 20  2  0  0  0  0
 19 28  1  0  0  0  0
 17 18  1  0  0  0  0
 17 19  1  0  0  0  0
 15 16  1  0  0  0  0
 15 17  1  0  0  0  0
 14 15  2  0  0  0  0
 14 28  1  0  0  0  0
 11 12  1  0  0  0  0
 11 13  1  0  0  0  0
 11 14  1  0  0  0  0
  9 10  1  0  0  0  0
  9 11  1  0  0  0  0
  9 29  1  0  0  0  0
  7  8  1  0  0  0  0
  7  9  1  0  0  0  0
 33 34  1  0  0  0  0
 33 35  1  0  0  0  0
 33 36  1  0  0  0  0
 31 32  1  0  0  0  0
 31 33  1  0  0  0  0
M  END
$$$$
default_name
  -OEChem-02102213163D

 36 37  0     1  0  0  0  0  0999 V2000
   -4.0843   -4.0736    1.2944 H   0  0  0  0  0  0  0  0  0  0  0  0
   -4.0342   -3.2816    0.5484 C   0  0  0  0  0  0  0  0  0  0  0  0
   -4.8842   -2.6126    0.6694 H   0  0  0  0  0  0  0  0  0  0  0  0
   -4.0433   -3.7186   -0.4486 H   0  0  0  0  0  0  0  0  0  0  0  0
   -2.7532   -2.5046    0.7444 C   0  0  0  0  0  0  0  0  0  0  0  0
   -1.9803   -2.8096    1.6434 O   0  0  0  0  0  0  0  0  0  0  0  0
   -2.5332   -1.4966   -0.0966 N   0  0  0  0  0  0  0  0  0  0  0  0
   -3.2312   -1.2816   -0.7936 H   0  0  0  0  0  0  0  0  0  0  0  0
   -1.3593   -0.6196   -0.0536 C   0  0  1  0  0  0  0  0  0  0  0  0
   -0.4622   -1.2317   -0.1545 H   0  0  0  0  0  0  0  0  0  0  0  0
   -1.4074    0.3593   -1.2373 C   0  0  0  0  0  0  0  0  0  0  0  0
   -1.1648   -0.1835   -2.1526 H   0  0  0  0  0  0  0  0  0  0  0  0
   -2.4274    0.7346   -1.3363 H   0  0  0  0  0  0  0  0  0  0  0  0
   -0.4783    1.5307   -1.1332 C   0  0  0  0  0  0  0  0  0  0  0  0
    0.8681    1.4603   -1.0340 C   0  0  0  0  0  0  0  0  0  0  0  0
    1.4370    0.5376   -0.9989 H   0  0  0  0  0  0  0  0  0  0  0  0
    1.3988    2.7351   -1.0055 N   0  0  0  0  0  0  0  0  0  0  0  0
    2.3874    2.9254   -0.9303 H   0  0  0  0  0  0  0  0  0  0  0  0
    0.4154    3.6965   -1.1023 C   0  0  0  0  0  0  0  0  0  0  0  0
    0.4463    5.0978   -1.1458 C   0  0  0  0  0  0  0  0  0  0  0  0
    1.3868    5.6264   -1.0940 H   0  0  0  0  0  0  0  0  0  0  0  0
   -0.7635    5.8044   -1.2557 C   0  0  0  0  0  0  0  0  0  0  0  0
   -0.7592    6.8854   -1.2896 H   0  0  0  0  0  0  0  0  0  0  0  0
   -1.9818    5.1033   -1.3151 C   0  0  0  0  0  0  0  0  0  0  0  0
   -2.9108    5.6512   -1.3913 H   0  0  0  0  0  0  0  0  0  0  0  0
   -2.0011    3.6948   -1.2686 C   0  0  0  0  0  0  0  0  0  0  0  0
   -2.9448    3.1691   -1.3017 H   0  0  0  0  0  0  0  0  0  0  0  0
   -0.8028    2.9557   -1.1646 C   0  0  0  0  0  0  0  0  0  0  0  0
   -1.2663    0.1182    1.2910 C   0  0  0  0  0  0  0  0  0  0  0  0
   -0.1906    0.1931    1.8833 O   0  0  0  0  0  0  0  0  0  0  0  0
   -2.3930    0.6605    1.7722 N   0  0  0  0  0  0  0  0  0  0  0  0
   -3.2451    0.5077    1.2518 H   0  0  0  0  0  0  0  0  0  0  0  0
   -2.4787    1.3954    3.0311 C   0  0  0  0  0  0  0  0  0  0  0  0
   -1.7166    2.1767    3.0539 H   0  0  0  0  0  0  0  0  0  0  0  0
   -3.4649    1.8498    3.1344 H   0  0  0  0  0  0  0  0  0  0  0  0
   -2.3058    0.7133    3.8652 H   0  0  0  0  0  0  0  0  0  0  0  0
  5  6  2  0  0  0  0
  5  7  1  0  0  0  0
  2  3  1  0  0  0  0
  2  4  1  0  0  0  0
  2  5  1  0  0  0  0
  1  2  1  0  0  0  0
 29 30  2  0  0  0  0
 29 31  1  0  0  0  0
 26 27  1  0  0  0  0
 26 28  2  0  0  0  0
 24 25  1  0  0  0  0
 24 26  1  0  0  0  0
 22 23  1  0  0  0  0
 22 24  2  0  0  0  0
 20 21  1  0  0  0  0
 20 22  1  0  0  0  0
 19 20  2  0  0  0  0
 19 28  1  0  0  0  0
 17 18  1  0  0  0  0
 17 19  1  0  0  0  0
 15 16  1  0  0  0  0
 15 17  1  0  0  0  0
 14 15  2  0  0  0  0
 14 28  1  0  0  0  0
 11 12  1  0  0  0  0
 11 13  1  0  0  0  0
 11 14  1  0  0  0  0
  9 10  1  0  0  0  0
  9 11  1  0  0  0  0
  9 29  1  0  0  0  0
  7  8  1  0  0  0  0
  7  9  1  0  0  0  0
 33 34  1  0  0  0  0
 33 35  1  0  0  0  0
 33 36  1  0  0  0  0
 31 32  1  0  0  0  0
 31 33  1  0  0  0  0
M  END
$$$$
default_name
  -OEChem-02102213163D

 36 37  0     1  0  0  0  0  0999 V2000
   -4.0843   -4.0736    1.2944 H   0  0  0  0  0  0  0  0  0  0  0  0
   -4.0342   -3.2816    0.5484 C   0  0  0  0  0  0  0  0  0  0  0  0
   -4.8842   -2.6126    0.6694 H   0  0  0  0  0  0  0  0  0  0  0  0
   -4.0433   -3.7186   -0.4486 H   0  0  0  0  0  0  0  0  0  0  0  0
   -2.7532   -2.5046    0.7444 C   0  0  0  0  0  0  0  0  0  0  0  0
   -1.9803   -2.8096    1.6434 O   0  0  0  0  0  0  0  0  0  0  0  0
   -2.5332   -1.4966   -0.0966 N   0  0  0  0  0  0  0  0  0  0  0  0
   -3.2312   -1.2816   -0.7936 H   0  0  0  0  0  0  0  0  0  0  0  0
   -1.3593   -0.6196   -0.0536 C   0  0  1  0  0  0  0  0  0  0  0  0
   -0.4622   -1.2317   -0.1545 H   0  0  0  0  0  0  0  0  0  0  0  0
   -1.4074    0.3593   -1.2373 C   0  0  0  0  0  0  0  0  0  0  0  0
   -1.1648   -0.1835   -2.1526 H   0  0  0  0  0  0  0  0  0  0  0  0
   -2.4274    0.7346   -1.3363 H   0  0  0  0  0  0  0  0  0  0  0  0
   -0.4783    1.5307   -1.1332 C   0  0  0  0  0  0  0  0  0  0  0  0
    0.8602    1.4919   -1.3192 C   0  0  0  0  0  0  0  0  0  0  0  0
    1.4257    0.5956   -1.5493 H   0  0  0  0  0  0  0  0  0  0  0  0
    1.3836    2.7636   -1.1913 N   0  0  0  0  0  0  0  0  0  0  0  0
    2.3665    2.9735   -1.2863 H   0  0  0  0  0  0  0  0  0  0  0  0
    0.3997    3.6937   -0.9314 C   0  0  0  0  0  0  0  0  0  0  0  0
    0.4191    5.0843   -0.7521 C   0  0  0  0  0  0  0  0  0  0  0  0
    1.3496    5.6302   -0.8051 H   0  0  0  0  0  0  0  0  0  0  0  0
   -0.7888    5.7573   -0.5007 C   0  0  0  0  0  0  0  0  0  0  0  0
   -0.7931    6.8296   -0.3588 H   0  0  0  0  0  0  0  0  0  0  0  0
   -1.9926    5.0329   -0.4272 C   0  0  0  0  0  0  0  0  0  0  0  0
   -2.9185    5.5535   -0.2253 H   0  0  0  0  0  0  0  0  0  0  0  0
   -1.9999    3.6351   -0.6070 C   0  0  0  0  0  0  0  0  0  0  0  0
   -2.9298    3.0890   -0.5347 H   0  0  0  0  0  0  0  0  0  0  0  0
   -0.8045    2.9306   -0.8671 C   0  0  0  0  0  0  0  0  0  0  0  0
   -1.2663    0.1182    1.2910 C   0  0  0  0  0  0  0  0  0  0  0  0
   -0.1906    0.1931    1.8833 O   0  0  0  0  0  0  0  0  0  0  0  0
   -2.3930    0.6605    1.7722 N   0  0  0  0  0  0  0  0  0  0  0  0
   -3.2451    0.5077    1.2518 H   0  0  0  0  0  0  0  0  0  0  0  0
   -2.4787    1.3954    3.0311 C   0  0  0  0  0  0  0  0  0  0  0  0
   -1.7166    2.1767    3.0539 H   0  0  0  0  0  0  0  0  0  0  0  0
   -3.4649    1.8498    3.1344 H   0  0  0  0  0  0  0  0  0  0  0  0
   -2.3058    0.7133    3.8652 H   0  0  0  0  0  0  0  0  0  0  0  0
  5  6  2  0  0  0  0
  5  7  1  0  0  0  0
  2  3  1  0  0  0  0
  2  4  1  0  0  0  0
  2  5  1  0  0  0  0
  1  2  1  0  0  0  0
 29 30  2  0  0  0  0
 29 31  1  0  0  0  0
 26 27  1  0  0  0  0
 26 28  2  0  0  0  0
 24 25  1  0  0  0  0
 24 26  1  0  0  0  0
 22 23  1  0  0  0  0
 22 24  2  0  0  0  0
 20 21  1  0  0  0  0
 20 22  1  0  0  0  0
 19 20  2  0  0  0  0
 19 28  1  0  0  0  0
 17 18  1  0  0  0  0
 17 19  1  0  0  0  0
 15 16  1  0  0  0  0
 15 17  1  0  0  0  0
 14 15  2  0  0  0  0
 14 28  1  0  0  0  0
 11 12  1  0  0  0  0
 11 13  1  0  0  0  0
 11 14  1  0  0  0  0
  9 10  1  0  0  0  0
  9 11  1  0  0  0  0
  9 29  1  0  0  0  0
  7  8  1  0  0  0  0
  7  9  1  0  0  0  0
 33 34  1  0  0  0  0
 33 35  1  0  0  0  0
 33 36  1  0  0  0  0
 31 32  1  0  0  0  0
 31 33  1  0  0  0  0
M  END
$$$$
default_name
  -OEChem-02102213163D

 36 37  0     1  0  0  0  0  0999 V2000
   -4.0843   -4.0736    1.2944 H   0  0  0  0  0  0  0  0  0  0  0  0
   -4.0342   -3.2816    0.5484 C   0  0  0  0  0  0  0  0  0  0  0  0
   -4.8842   -2.6126    0.6694 H   0  0  0  0  0  0  0  0  0  0  0  0
   -4.0433   -3.7186   -0.4486 H   0  0  0  0  0  0  0  0  0  0  0  0
   -2.7532   -2.5046    0.7444 C   0  0  0  0  0  0  0  0  0  0  0  0
   -1.9803   -2.8096    1.6434 O   0  0  0  0  0  0  0  0  0  0  0  0
   -2.5332   -1.4966   -0.0966 N   0  0  0  0  0  0  0  0  0  0  0  0
   -3.2312   -1.2816   -0.7936 H   0  0  0  0  0  0  0  0  0  0  0  0
   -1.3593   -0.6196   -0.0536 C   0  0  1  0  0  0  0  0  0  0  0  0
   -0.4622   -1.2317   -0.1545 H   0  0  0  0  0  0  0  0  0  0  0  0
   -1.4074    0.3593   -1.2373 C   0  0  0  0  0  0  0  0  0  0  0  0
   -1.1648   -0.1835   -2.1526 H   0  0  0  0  0  0  0  0  0  0  0  0
   -2.4274    0.7346   -1.3363 H   0  0  0  0  0  0  0  0  0  0  0  0
   -0.4783    1.5307   -1.1332 C   0  0  0  0  0  0  0  0  0  0  0  0
    0.7943    1.5681   -1.5879 C   0  0  0  0  0  0  0  0  0  0  0  0
    1.3023    0.7396   -2.0693 H   0  0  0  0  0  0  0  0  0  0  0  0
    1.3309    2.8207   -1.3631 N   0  0  0  0  0  0  0  0  0  0  0  0
    2.2735    3.0768   -1.6183 H   0  0  0  0  0  0  0  0  0  0  0  0
    0.4192    3.6633   -0.7635 C   0  0  0  0  0  0  0  0  0  0  0  0
    0.4727    5.0077   -0.3685 C   0  0  0  0  0  0  0  0  0  0  0  0
    1.3721    5.5869   -0.5180 H   0  0  0  0  0  0  0  0  0  0  0  0
   -0.6596    5.5902    0.2262 C   0  0  0  0  0  0  0  0  0  0  0  0
   -0.6365    6.6256    0.5382 H   0  0  0  0  0  0  0  0  0  0  0  0
   -1.8221    4.8222    0.4214 C   0  0  0  0  0  0  0  0  0  0  0  0
   -2.6882    5.2721    0.8869 H   0  0  0  0  0  0  0  0  0  0  0  0
   -1.8639    3.4712    0.0223 C   0  0  0  0  0  0  0  0  0  0  0  0
   -2.7587    2.8889    0.1902 H   0  0  0  0  0  0  0  0  0  0  0  0
   -0.7455    2.8586   -0.5834 C   0  0  0  0  0  0  0  0  0  0  0  0
   -1.2663    0.1182    1.2910 C   0  0  0  0  0  0  0  0  0  0  0  0
   -0.1906    0.1931    1.8833 O   0  0  0  0  0  0  0  0  0  0  0  0
   -2.3930    0.6605    1.7722 N   0  0  0  0  0  0  0  0  0  0  0  0
   -3.2451    0.5077    1.2518 H   0  0  0  0  0  0  0  0  0  0  0  0
   -2.4787    1.3954    3.0311 C   0  0  0  0  0  0  0  0  0  0  0  0
   -1.7166    2.1767    3.0539 H   0  0  0  0  0  0  0  0  0  0  0  0
   -3.4649    1.8498    3.1344 H   0  0  0  0  0  0  0  0  0  0  0  0
   -2.3058    0.7133    3.8652 H   0  0  0  0  0  0  0  0  0  0  0  0
  5  6  2  0  0  0  0
  5  7  1  0  0  0  0
  2  3  1  0  0  0  0
  2  4  1  0  0  0  0
  2  5  1  0  0  0  0
  1  2  1  0  0  0  0
 29 30  2  0  0  0  0
 29 31  1  0  0  0  0
 26 27  1  0  0  0  0
 26 28  2  0  0  0  0
 24 25  1  0  0  0  0
 24 26  1  0  0  0  0
 22 23  1  0  0  0  0
 22 24  2  0  0  0  0
 20 21  1  0  0  0  0
 20 22  1  0  0  0  0
 19 20  2  0  0  0  0
 19 28  1  0  0  0  0
 17 18  1  0  0  0  0
 17 19  1  0  0  0  0
 15 16  1  0  0  0  0
 15 17  1  0  0  0  0
 14 15  2  0  0  0  0
 14 28  1  0  0  0  0
 11 12  1  0  0  0  0
 11 13  1  0  0  0  0
 11 14  1  0  0  0  0
  9 10  1  0  0  0  0
  9 11  1  0  0  0  0
  9 29  1  0  0  0  0
  7  8  1  0  0  0  0
  7  9  1  0  0  0  0
 33 34  1  0  0  0  0
 33 35  1  0  0  0  0
 33 36  1  0  0  0  0
 31 32  1  0  0  0  0
 31 33  1  0  0  0  0
M  END
$$$$
default_name
  -OEChem-02102213163D

 36 37  0     1  0  0  0  0  0999 V2000
   -4.0843   -4.0736    1.2944 H   0  0  0  0  0  0  0  0  0  0  0  0
   -4.0342   -3.2816    0.5484 C   0  0  0  0  0  0  0  0  0  0  0  0
   -4.8842   -2.6126    0.6694 H   0  0  0  0  0  0  0  0  0  0  0  0
   -4.0433   -3.7186   -0.4486 H   0  0  0  0  0  0  0  0  0  0  0  0
   -2.7532   -2.5046    0.7444 C   0  0  0  0  0  0  0  0  0  0  0  0
   -1.9803   -2.8096    1.6434 O   0  0  0  0  0  0  0  0  0  0  0  0
   -2.5332   -1.4966   -0.0966 N   0  0  0  0  0  0  0  0  0  0  0  0
   -3.2312   -1.2816   -0.7936 H   0  0  0  0  0  0  0  0  0  0  0  0
   -1.3593   -0.6196   -0.0536 C   0  0  1  0  0  0  0  0  0  0  0  0
   -0.4622   -1.2317   -0.1545 H   0  0  0  0  0  0  0  0  0  0  0  0
   -1.4074    0.3593   -1.2373 C   0  0  0  0  0  0  0  0  0  0  0  0
   -1.1648   -0.1835   -2.1526 H   0  0  0  0  0  0  0  0  0  0  0  0
   -2.4274    0.7346   -1.3363 H   0  0  0  0  0  0  0  0  0  0  0  0
   -0.4783    1.5307   -1.1332 C   0  0  0  0  0  0  0  0  0  0  0  0
    0.6749    1.6836   -1.8220 C   0  0  0  0  0  0  0  0  0  0  0  0
    1.0754    0.9600   -2.5235 H   0  0  0  0  0  0  0  0  0  0  0  0
    1.2442    2.9025   -1.5093 N   0  0  0  0  0  0  0  0  0  0  0  0
    2.1147    3.2282   -1.9035 H   0  0  0  0  0  0  0  0  0  0  0  0
    0.4726    3.6073   -0.6101 C   0  0  0  0  0  0  0  0  0  0  0  0
    0.6034    4.8731   -0.0211 C   0  0  0  0  0  0  0  0  0  0  0  0
    1.4526    5.4993   -0.2521 H   0  0  0  0  0  0  0  0  0  0  0  0
   -0.3848    5.3146    0.8754 C   0  0  0  0  0  0  0  0  0  0  0  0
   -0.3001    6.2875    1.3402 H   0  0  0  0  0  0  0  0  0  0  0  0
   -1.4820    4.4857    1.1728 C   0  0  0  0  0  0  0  0  0  0  0  0
   -2.2357    4.8259    1.8694 H   0  0  0  0  0  0  0  0  0  0  0  0
   -1.6022    3.2145    0.5763 C   0  0  0  0  0  0  0  0  0  0  0  0
   -2.4432    2.5824    0.8237 H   0  0  0  0  0  0  0  0  0  0  0  0
   -0.6298    2.7446   -0.3329 C   0  0  0  0  0  0  0  0  0  0  0  0
   -1.2663    0.1182    1.2910 C   0  0  0  0  0  0  0  0  0  0  0  0
   -0.1906    0.1931    1.8833 O   0  0  0  0  0  0  0  0  0  0  0  0
   -2.3930    0.6605    1.7722 N   0  0  0  0  0  0  0  0  0  0  0  0
   -3.2451    0.5077    1.2518 H   0  0  0  0  0  0  0  0  0  0  0  0
   -2.4787    1.3954    3.0311 C   0  0  0  0  0  0  0  0  0  0  0  0
   -1.7166    2.1767    3.0539 H   0  0  0  0  0  0  0  0  0  0  0  0
   -3.4649    1.8498    3.1344 H   0  0  0  0  0  0  0  0  0  0  0  0
   -2.3058    0.7133    3.8652 H   0  0  0  0  0  0  0  0  0  0  0  0
  5  6  2  0  0  0  0
  5  7  1  0  0  0  0
  2  3  1  0  0  0  0
  2  4  1  0  0  0  0
  2  5  1  0  0  0  0
  1  2  1  0  0  0  0
 29 30  2  0  0  0  0
 29 31  1  0  0  0  0
 26 27  1  0  0  0  0
 26 28  2  0  0  0  0
 24 25  1  0  0  0  0
 24 26  1  0  0  0  0
 22 23  1  0  0  0  0
 22 24  2  0  0  0  0
 20 21  1  0  0  0  0
 20 22  1  0  0  0  0
 19 20  2  0  0  0  0
 19 28  1  0  0  0  0
 17 18  1  0  0  0  0
 17 19  1  0  0  0  0
 15 16  1  0  0  0  0
 15 17  1  0  0  0  0
 14 15  2  0  0  0  0
 14 28  1  0  0  0  0
 11 12  1  0  0  0  0
 11 13  1  0  0  0  0
 11 14  1  0  0  0  0
  9 10  1  0  0  0  0
  9 11  1  0  0  0  0
  9 29  1  0  0  0  0
  7  8  1  0  0  0  0
  7  9  1  0  0  0  0
 33 34  1  0  0  0  0
 33 35  1  0  0  0  0
 33 36  1  0  0  0  0
 31 32  1  0  0  0  0
 31 33  1  0  0  0  0
M  END
$$$$
default_name
  -OEChem-02102213163D

 36 37  0     1  0  0  0  0  0999 V2000
   -4.0843   -4.0736    1.2944 H   0  0  0  0  0  0  0  0  0  0  0  0
   -4.0342   -3.2816    0.5484 C   0  0  0  0  0  0  0  0  0  0  0  0
   -4.8842   -2.6126    0.6694 H   0  0  0  0  0  0  0  0  0  0  0  0
   -4.0433   -3.7186   -0.4486 H   0  0  0  0  0  0  0  0  0  0  0  0
   -2.7532   -2.5046    0.7444 C   0  0  0  0  0  0  0  0  0  0  0  0
   -1.9803   -2.8096    1.6434 O   0  0  0  0  0  0  0  0  0  0  0  0
   -2.5332   -1.4966   -0.0966 N   0  0  0  0  0  0  0  0  0  0  0  0
   -3.2312   -1.2816   -0.7936 H   0  0  0  0  0  0  0  0  0  0  0  0
   -1.3593   -0.6196   -0.0536 C   0  0  1  0  0  0  0  0  0  0  0  0
   -0.4622   -1.2317   -0.1545 H   0  0  0  0  0  0  0  0  0  0  0  0
   -1.4074    0.3593   -1.2373 C   0  0  0  0  0  0  0  0  0  0  0  0
   -1.1648   -0.1835   -2.1526 H   0  0  0  0  0  0  0  0  0  0  0  0
   -2.4274    0.7346   -1.3363 H   0  0  0  0  0  0  0  0  0  0  0  0
   -0.4783    1.5307   -1.1332 C   0  0  0  0  0  0  0  0  0  0  0  0
    0.5101    1.8306   -2.0054 C   0  0  0  0  0  0  0  0  0  0  0  0
    0.7603    1.2417   -2.8810 H   0  0  0  0  0  0  0  0  0  0  0  0
    1.1294    3.0033   -1.6198 N   0  0  0  0  0  0  0  0  0  0  0  0
    1.9008    3.4172   -2.1226 H   0  0  0  0  0  0  0  0  0  0  0  0
    0.5562    3.5296   -0.4818 C   0  0  0  0  0  0  0  0  0  0  0  0
    0.8024    4.6898    0.2665 C   0  0  0  0  0  0  0  0  0  0  0  0
    1.5858    5.3736   -0.0257 H   0  0  0  0  0  0  0  0  0  0  0  0
    0.0169    4.9491    1.4026 C   0  0  0  0  0  0  0  0  0  0  0  0
    0.1931    5.8384    1.9925 H   0  0  0  0  0  0  0  0  0  0  0  0
   -0.9955    4.0462    1.7757 C   0  0  0  0  0  0  0  0  0  0  0  0
   -1.5919    4.2453    2.6553 H   0  0  0  0  0  0  0  0  0  0  0  0
   -1.2328    2.8822    1.0173 C   0  0  0  0  0  0  0  0  0  0  0  0
   -2.0048    2.1903    1.3227 H   0  0  0  0  0  0  0  0  0  0  0  0
   -0.4654    2.5964   -0.1326 C   0  0  0  0  0  0  0  0  0  0  0  0
   -1.2663    0.1182    1.2910 C   0  0  0  0  0  0  0  0  0  0  0  0
   -0.1906    0.1931    1.8833 O   0  0  0  0  0  0  0  0  0  0  0  0
   -2.3930    0.6605    1.7722 N   0  0  0  0  0  0  0  0  0  0  0  0
   -3.2451    0.5077    1.2518 H   0  0  0  0  0  0  0  0  0  0  0  0
   -2.4787    1.3954    3.0311 C   0  0  0  0  0  0  0  0  0  0  0  0
   -1.7166    2.1767    3.0539 H   0  0  0  0  0  0  0  0  0  0  0  0
   -3.4649    1.8498    3.1344 H   0  0  0  0  0  0  0  0  0  0  0  0
   -2.3058    0.7133    3.8652 H   0  0  0  0  0  0  0  0  0  0  0  0
  5  6  2  0  0  0  0
  5  7  1  0  0  0  0
  2  3  1  0  0  0  0
  2  4  1  0  0  0  0
  2  5  1  0  0  0  0
  1  2  1  0  0  0  0
 29 30  2  0  0  0  0
 29 31  1  0  0  0  0
 26 27  1  0  0  0  0
 26 28  2  0  0  0  0
 24 25  1  0  0  0  0
 24 26  1  0  0  0  0
 22 23  1  0  0  0  0
 22 24  2  0  0  0  0
 20 21  1  0  0  0  0
 20 22  1  0  0  0  0
 19 20  2  0  0  0  0
 19 28  1  0  0  0  0
 17 18  1  0  0  0  0
 17 19  1  0  0  0  0
 15 16  1  0  0  0  0
 15 17  1  0  0  0  0
 14 15  2  0  0  0  0
 14 28  1  0  0  0  0
 11 12  1  0  0  0  0
 11 13  1  0  0  0  0
 11 14  1  0  0  0  0
  9 10  1  0  0  0  0
  9 11  1  0  0  0  0
  9 29  1  0  0  0  0
  7  8  1  0  0  0  0
  7  9  1  0  0  0  0
 33 34  1  0  0  0  0
 33 35  1  0  0  0  0
 33 36  1  0  0  0  0
 31 32  1  0  0  0  0
 31 33  1  0  0  0  0
M  END
$$$$
default_name
  -OEChem-02102213163D

 36 37  0     1  0  0  0  0  0999 V2000
   -4.0843   -4.0736    1.2944 H   0  0  0  0  0  0  0  0  0  0  0  0
   -4.0342   -3.2816    0.5484 C   0  0  0  0  0  0  0  0  0  0  0  0
   -4.8842   -2.6126    0.6694 H   0  0  0  0  0  0  0  0  0  0  0  0
   -4.0433   -3.7186   -0.4486 H   0  0  0  0  0  0  0  0  0  0  0  0
   -2.7532   -2.5046    0.7444 C   0  0  0  0  0  0  0  0  0  0  0  0
   -1.9803   -2.8096    1.6434 O   0  0  0  0  0  0  0  0  0  0  0  0
   -2.5332   -1.4966   -0.0966 N   0  0  0  0  0  0  0  0  0  0  0  0
   -3.2312   -1.2816   -0.7936 H   0  0  0  0  0  0  0  0  0  0  0  0
   -1.3593   -0.6196   -0.0536 C   0  0  1  0  0  0  0  0  0  0  0  0
   -0.4622   -1.2317   -0.1545 H   0  0  0  0  0  0  0  0  0  0  0  0
   -1.4074    0.3593   -1.2373 C   0  0  0  0  0  0  0  0  0  0  0  0
   -1.1648   -0.1835   -2.1526 H   0  0  0  0  0  0  0  0  0  0  0  0
   -2.4274    0.7346   -1.3363 H   0  0  0  0  0  0  0  0  0  0  0  0
   -0.4783    1.5307   -1.1332 C   0  0  0  0  0  0  0  0  0  0  0  0
    0.3112    1.9991   -2.1256 C   0  0  0  0  0  0  0  0  0  0  0  0
    0.3787    1.5654   -3.1174 H   0  0  0  0  0  0  0  0  0  0  0  0
    0.9944    3.1164   -1.6872 N   0  0  0  0  0  0  0  0  0  0  0  0
    1.6465    3.6312   -2.2606 H   0  0  0  0  0  0  0  0  0  0  0  0
    0.6643    3.4355   -0.3872 C   0  0  0  0  0  0  0  0  0  0  0  0
    1.0561    4.4701    0.4745 C   0  0  0  0  0  0  0  0  0  0  0  0
    1.7625    5.2182    0.1459 H   0  0  0  0  0  0  0  0  0  0  0  0
    0.5182    4.5187    1.7719 C   0  0  0  0  0  0  0  0  0  0  0  0
    0.8096    5.3087    2.4508 H   0  0  0  0  0  0  0  0  0  0  0  0
   -0.3956    3.5336    2.1892 C   0  0  0  0  0  0  0  0  0  0  0  0
   -0.8006    3.5701    3.1910 H   0  0  0  0  0  0  0  0  0  0  0  0
   -0.7808    2.4972    1.3153 C   0  0  0  0  0  0  0  0  0  0  0  0
   -1.4734    1.7394    1.6530 H   0  0  0  0  0  0  0  0  0  0  0  0
   -0.2633    2.4240    0.0039 C   0  0  0  0  0  0  0  0  0  0  0  0
   -1.2663    0.1182    1.2910 C   0  0  0  0  0  0  0  0  0  0  0  0
   -0.1906    0.1931    1.8833 O   0  0  0  0  0  0  0  0  0  0  0  0
   -2.3930    0.6605    1.7722 N   0  0  0  0  0  0  0  0  0  0  0  0
   -3.2451    0.5077    1.2518 H   0  0  0  0  0  0  0  0  0  0  0  0
   -2.4787    1.3954    3.0311 C   0  0  0  0  0  0  0  0  0  0  0  0
   -1.7166    2.1767    3.0539 H   0  0  0  0  0  0  0  0  0  0  0  0
   -3.4649    1.8498    3.1344 H   0  0  0  0  0  0  0  0  0  0  0  0
   -2.3058    0.7133    3.8652 H   0  0  0  0  0  0  0  0  0  0  0  0
  5  6  2  0  0  0  0
  5  7  1  0  0  0  0
  2  3  1  0  0  0  0
  2  4  1  0  0  0  0
  2  5  1  0  0  0  0
  1  2  1  0  0  0  0
 29 30  2  0  0  0  0
 29 31  1  0  0  0  0
 26 27  1  0  0  0  0
 26 28  2  0  0  0  0
 24 25  1  0  0  0  0
 24 26  1  0  0  0  0
 22 23  1  0  0  0  0
 22 24  2  0  0  0  0
 20 21  1  0  0  0  0
 20 22  1  0  0  0  0
 19 20  2  0  0  0  0
 19 28  1  0  0  0  0
 17 18  1  0  0  0  0
 17 19  1  0  0  0  0
 15 16  1  0  0  0  0
 15 17  1  0  0  0  0
 14 15  2  0  0  0  0
 14 28  1  0  0  0  0
 11 12  1  0  0  0  0
 11 13  1  0  0  0  0
 11 14  1  0  0  0  0
  9 10  1  0  0  0  0
  9 11  1  0  0  0  0
  9 29  1  0  0  0  0
  7  8  1  0  0  0  0
  7  9  1  0  0  0  0
 33 34  1  0  0  0  0
 33 35  1  0  0  0  0
 33 36  1  0  0  0  0
 31 32  1  0  0  0  0
 31 33  1  0  0  0  0
M  END
$$$$
default_name
  -OEChem-02102213163D

 36 37  0     1  0  0  0  0  0999 V2000
   -4.0843   -4.0736    1.2944 H   0  0  0  0  0  0  0  0  0  0  0  0
   -4.0342   -3.2816    0.5484 C   0  0  0  0  0  0  0  0  0  0  0  0
   -4.8842   -2.6126    0.6694 H   0  0  0  0  0  0  0  0  0  0  0  0
   -4.0433   -3.7186   -0.4486 H   0  0  0  0  0  0  0  0  0  0  0  0
   -2.7532   -2.5046    0.7444 C   0  0  0  0  0  0  0  0  0  0  0  0
   -1.9803   -2.8096    1.6434 O   0  0  0  0  0  0  0  0  0  0  0  0
   -2.5332   -1.4966   -0.0966 N   0  0  0  0  0  0  0  0  0  0  0  0
   -3.2312   -1.2816   -0.7936 H   0  0  0  0  0  0  0  0  0  0  0  0
   -1.3593   -0.6196   -0.0536 C   0  0  1  0  0  0  0  0  0  0  0  0
   -0.4622   -1.2317   -0.1545 H   0  0  0  0  0  0  0  0  0  0  0  0
   -1.4074    0.3593   -1.2373 C   0  0  0  0  0  0  0  0  0  0  0  0
   -1.1648   -0.1835   -2.1526 H   0  0  0  0  0  0  0  0  0  0  0  0
   -2.4274    0.7346   -1.3363 H   0  0  0  0  0  0  0  0  0  0  0  0
   -0.4783    1.5307   -1.1332 C   0  0  0  0  0  0  0  0  0  0  0  0
    0.0917    2.1775   -2.1745 C   0  0  0  0  0  0  0  0  0  0  0  0
   -0.0437    1.9092   -3.2165 H   0  0  0  0  0  0  0  0  0  0  0  0
    0.8482    3.2341   -1.7068 N   0  0  0  0  0  0  0  0  0  0  0  0
    1.3691    3.8555   -2.3082 H   0  0  0  0  0  0  0  0  0  0  0  0
    0.7895    3.3313   -0.3328 C   0  0  0  0  0  0  0  0  0  0  0  0
    1.3472    4.2290    0.5889 C   0  0  0  0  0  0  0  0  0  0  0  0
    1.9707    5.0437    0.2510 H   0  0  0  0  0  0  0  0  0  0  0  0
    1.0848    4.0527    1.9583 C   0  0  0  0  0  0  0  0  0  0  0  0
    1.5073    4.7346    2.6838 H   0  0  0  0  0  0  0  0  0  0  0  0
    0.2767    2.9830    2.3850 C   0  0  0  0  0  0  0  0  0  0  0  0
    0.0842    2.8461    3.4401 H   0  0  0  0  0  0  0  0  0  0  0  0
   -0.2770    2.0857    1.4499 C   0  0  0  0  0  0  0  0  0  0  0  0
   -0.8851    1.2604    1.7922 H   0  0  0  0  0  0  0  0  0  0  0  0
   -0.0375    2.2392    0.0671 C   0  0  0  0  0  0  0  0  0  0  0  0
   -1.2663    0.1182    1.2910 C   0  0  0  0  0  0  0  0  0  0  0  0
   -0.1906    0.1931    1.8833 O   0  0  0  0  0  0  0  0  0  0  0  0
   -2.3930    0.6605    1.7722 N   0  0  0  0  0  0  0  0  0  0  0  0
   -3.2451    0.5077    1.2518 H   0  0  0  0  0  0  0  0  0  0  0  0
   -2.4787    1.3954    3.0311 C   0  0  0  0  0  0  0  0  0  0  0  0
   -1.7166    2.1767    3.0539 H   0  0  0  0  0  0  0  0  0  0  0  0
   -3.4649    1.8498    3.1344 H   0  0  0  0  0  0  0  0  0  0  0  0
   -2.3058    0.7133    3.8652 H   0  0  0  0  0  0  0  0  0  0  0  0
  5  6  2  0  0  0  0
  5  7  1  0  0  0  0
  2  3  1  0  0  0  0
  2  4  1  0  0  0  0
  2  5  1  0  0  0  0
  1  2  1  0  0  0  0
 29 30  2  0  0  0  0
 29 31  1  0  0  0  0
 26 27  1  0  0  0  0
 26 28  2  0  0  0  0
 24 25  1  0  0  0  0
 24 26  1  0  0  0  0
 22 23  1  0  0  0  0
 22 24  2  0  0  0  0
 20 21  1  0  0  0  0
 20 22  1  0  0  0  0
 19 20  2  0  0  0  0
 19 28  1  0  0  0  0
 17 18  1  0  0  0  0
 17 19  1  0  0  0  0
 15 16  1  0  0  0  0
 15 17  1  0  0  0  0
 14 15  2  0  0  0  0
 14 28  1  0  0  0  0
 11 12  1  0  0  0  0
 11 13  1  0  0  0  0
 11 14  1  0  0  0  0
  9 10  1  0  0  0  0
  9 11  1  0  0  0  0
  9 29  1  0  0  0  0
  7  8  1  0  0  0  0
  7  9  1  0  0  0  0
 33 34  1  0  0  0  0
 33 35  1  0  0  0  0
 33 36  1  0  0  0  0
 31 32  1  0  0  0  0
 31 33  1  0  0  0  0
M  END
$$$$
default_name
  -OEChem-02102213163D

 36 37  0     1  0  0  0  0  0999 V2000
   -4.0843   -4.0736    1.2944 H   0  0  0  0  0  0  0  0  0  0  0  0
   -4.0342   -3.2816    0.5484 C   0  0  0  0  0  0  0  0  0  0  0  0
   -4.8842   -2.6126    0.6694 H   0  0  0  0  0  0  0  0  0  0  0  0
   -4.0433   -3.7186   -0.4486 H   0  0  0  0  0  0  0  0  0  0  0  0
   -2.7532   -2.5046    0.7444 C   0  0  0  0  0  0  0  0  0  0  0  0
   -1.9803   -2.8096    1.6434 O   0  0  0  0  0  0  0  0  0  0  0  0
   -2.5332   -1.4966   -0.0966 N   0  0  0  0  0  0  0  0  0  0  0  0
   -3.2312   -1.2816   -0.7936 H   0  0  0  0  0  0  0  0  0  0  0  0
   -1.3593   -0.6196   -0.0536 C   0  0  1  0  0  0  0  0  0  0  0  0
   -0.4622   -1.2317   -0.1545 H   0  0  0  0  0  0  0  0  0  0  0  0
   -1.4074    0.3593   -1.2373 C   0  0  0  0  0  0  0  0  0  0  0  0
   -1.1648   -0.1835   -2.1526 H   0  0  0  0  0  0  0  0  0  0  0  0
   -2.4274    0.7346   -1.3363 H   0  0  0  0  0  0  0  0  0  0  0  0
   -0.4783    1.5307   -1.1332 C   0  0  0  0  0  0  0  0  0  0  0  0
   -0.1334    2.3537   -2.1487 C   0  0  0  0  0  0  0  0  0  0  0  0
   -0.4778    2.2496   -3.1718 H   0  0  0  0  0  0  0  0  0  0  0  0
    0.7010    3.3482   -1.6773 N   0  0  0  0  0  0  0  0  0  0  0  0
    1.0875    4.0747   -2.2621 H   0  0  0  0  0  0  0  0  0  0  0  0
    0.9233    3.2243   -0.3223 C   0  0  0  0  0  0  0  0  0  0  0  0
    1.6558    3.9831    0.6019 C   0  0  0  0  0  0  0  0  0  0  0  0
    2.1962    4.8620    0.2824 H   0  0  0  0  0  0  0  0  0  0  0  0
    1.6782    3.5828    1.9488 C   0  0  0  0  0  0  0  0  0  0  0  0
    2.2386    4.1552    2.6756 H   0  0  0  0  0  0  0  0  0  0  0  0
    0.9756    2.4318    2.3498 C   0  0  0  0  0  0  0  0  0  0  0  0
    1.0023    2.1228    3.3856 H   0  0  0  0  0  0  0  0  0  0  0  0
    0.2443    1.6756    1.4119 C   0  0  0  0  0  0  0  0  0  0  0  0
   -0.2801    0.7860    1.7308 H   0  0  0  0  0  0  0  0  0  0  0  0
    0.1968    2.0547    0.0529 C   0  0  0  0  0  0  0  0  0  0  0  0
   -1.2663    0.1182    1.2910 C   0  0  0  0  0  0  0  0  0  0  0  0
   -0.1906    0.1931    1.8833 O   0  0  0  0  0  0  0  0  0  0  0  0
   -2.3930    0.6605    1.7722 N   0  0  0  0  0  0  0  0  0  0  0  0
   -3.2451    0.5077    1.2518 H   0  0  0  0  0  0  0  0  0  0  0  0
   -2.4787    1.3954    3.0311 C   0  0  0  0  0  0  0  0  0  0  0  0
   -1.7166    2.1767    3.0539 H   0  0  0  0  0  0  0  0  0  0  0  0
   -3.4649    1.8498    3.1344 H   0  0  0  0  0  0  0  0  0  0  0  0
   -2.3058    0.7133    3.8652 H   0  0  0  0  0  0  0  0  0  0  0  0
  5  6  2  0  0  0  0
  5  7  1  0  0  0  0
  2  3  1  0  0  0  0
  2  4  1  0  0  0  0
  2  5  1  0  0  0  0
  1  2  1  0  0  0  0
 29 30  2  0  0  0  0
 29 31  1  0  0  0  0
 26 27  1  0  0  0  0
 26 28  2  0  0  0  0
 24 25  1  0  0  0  0
 24 26  1  0  0  0  0
 22 23  1  0  0  0  0
 22 24  2  0  0  0  0
 20 21  1  0  0  0  0
 20 22  1  0  0  0  0
 19 20  2  0  0  0  0
 19 28  1  0  0  0  0
 17 18  1  0  0  0  0
 17 19  1  0  0  0  0
 15 16  1  0  0  0  0
 15 17  1  0  0  0  0
 14 15  2  0  0  0  0
 14 28  1  0  0  0  0
 11 12  1  0  0  0  0
 11 13  1  0  0  0  0
 11 14  1  0  0  0  0
  9 10  1  0  0  0  0
  9 11  1  0  0  0  0
  9 29  1  0  0  0  0
  7  8  1  0  0  0  0
  7  9  1  0  0  0  0
 33 34  1  0  0  0  0
 33 35  1  0  0  0  0
 33 36  1  0  0  0  0
 31 32  1  0  0  0  0
 31 33  1  0  0  0  0
M  END
$$$$
