default_name
  -OEChem-02102213163D

 36 37  0     1  0  0  0  0  0999 V2000
   -4.0843   -4.0736    1.2944 H   0  0  0  0  0  0  0  0  0  0  0  0
   -4.0342   -3.2816    0.5484 C   0  0  0  0  0  0  0  0  0  0  0  0
   -4.8842   -2.6126    0.6694 H   0  0  0  0  0  0  0  0  0  0  0  0
   -4.0433   -3.7186   -0.4486 H   0  0  0  0  0  0  0  0  0  0  0  0
   -2.7532   -2.5046    0.7444 C   0  0  0  0  0  0  0  0  0  0  0  0
   -1.9803   -2.8096    1.6434 O   0  0  0  0  0  0  0  0  0  0  0  0
   -2.5332   -1.4966   -0.0966 N   0  0  0  0  0  0  0  0  0  0  0  0
   -3.2312   -1.2816   -0.7936 H   0  0  0  0  0  0  0  0  0  0  0  0
   -1.3593   -0.6196   -0.0536 C   0  0  1  0  0  0  0  0  0  0  0  0
   -0.8788   -0.7266    0.9196 H   0  0  0  0  0  0  0  0  0  0  0  0
   -0.3559   -1.0533   -1.1339 C   0  0  0  0  0  0  0  0  0  0  0  0
   -0.0733   -2.0922   -0.9546 H   0  0  0  0  0  0  0  0  0  0  0  0
   -0.8508   -1.0087   -2.1055 H   0  0  0  0  0  0  0  0  0  0  0  0
    0.8990   -0.2369   -1.2021 C   0  0  0  0  0  0  0  0  0  0  0  0
    1.9185   -0.4323   -2.0683 C   0  0  0  0  0  0  0  0  0  0  0  0
    1.9553   -1.2228   -2.8098 H   0  0  0  0  0  0  0  0  0  0  0  0
    2.8843    0.5357   -1.8744 N   0  0  0  0  0  0  0  0  0  0  0  0
    3.7398    0.5837   -2.4083 H   0  0  0  0  0  0  0  0  0  0  0  0
    2.5253    1.4187   -0.8784 C   0  0  0  0  0  0  0  0  0  0  0  0
    3.1389    2.5603   -0.3431 C   0  0  0  0  0  0  0  0  0  0  0  0
    4.0947    2.8951   -0.7186 H   0  0  0  0  0  0  0  0  0  0  0  0
    2.4936    3.2615    0.6899 C   0  0  0  0  0  0  0  0  0  0  0  0
    2.9523    4.1436    1.1157 H   0  0  0  0  0  0  0  0  0  0  0  0
    1.2522    2.8103    1.1743 C   0  0  0  0  0  0  0  0  0  0  0  0
    0.7632    3.3479    1.9748 H   0  0  0  0  0  0  0  0  0  0  0  0
    0.6457    1.6604    0.6301 C   0  0  0  0  0  0  0  0  0  0  0  0
   -0.3018    1.3170    1.0205 H   0  0  0  0  0  0  0  0  0  0  0  0
    1.2652    0.9376   -0.4124 C   0  0  0  0  0  0  0  0  0  0  0  0
   -1.7617    0.8549   -0.2106 C   0  0  0  0  0  0  0  0  0  0  0  0
   -2.5726    1.1871   -1.0741 O   0  0  0  0  0  0  0  0  0  0  0  0
   -1.1941    1.7377    0.6223 N   0  0  0  0  0  0  0  0  0  0  0  0
   -0.4976    1.3916    1.2669 H   0  0  0  0  0  0  0  0  0  0  0  0
   -1.4666    3.1722    0.6095 C   0  0  0  0  0  0  0  0  0  0  0  0
   -2.5439    3.3427    0.6539 H   0  0  0  0  0  0  0  0  0  0  0  0
   -0.9893    3.6529    1.4644 H   0  0  0  0  0  0  0  0  0  0  0  0
   -1.0808    3.6095   -0.3129 H   0  0  0  0  0  0  0  0  0  0  0  0
  5  6  2  0  0  0  0
  5  7  1  0  0  0  0
  2  3  1  0  0  0  0
  2  4  1  0  0  0  0
  2  5  1  0  0  0  0
  1  2  1  0  0  0  0
 29 30  2  0  0  0  0
 29 31  1  0  0  0  0
 26 27  1  0  0  0  0
 26 28  2  0  0  0  0
 24 25  1  0  0  0  0
 24 26  1  0  0  0  0
 22 23  1  0  0  0  0
 22 24  2  0  0  0  0
 20 21  1  0  0  0  0
 20 22  1  0  0  0  0
 19 20  2  0  0  0  0
 19 28  1  0  0  0  0
 17 18  1  0  0  0  0
 17 19  1  0  0  0  0
 15 16  1  0  0  0  0
 15 17  1  0  0  0  0
 14 15  2  0  0  0  0
 14 28  1  0  0  0  0
 11 12  1  0  0  0  0
 11 13  1  0  0  0  0
 11 14  1  0  0  0  0
  9 10  1  0  0  0  0
  9 11  1  0  0  0  0
  9 29  1  0  0  0  0
  7  8  1  0  0  0  0
  7  9  1  0  0  0  0
 33 34  1  0  0  0  0
 33 35  1  0  0  0  0
 33 36  1  0  0  0  0
 31 32  1  0  0  0  0
 31 33  1  0  0  0  0
M  END
$$$$
default_name
  -OEChem-02102213163D

 36 37  0     1  0  0  0  0  0999 V2000
   -4.0843   -4.0736    1.2944 H   0  0  0  0  0  0  0  0  0  0  0  0
   -4.0342   -3.2816    0.5484 C   0  0  0  0  0  0  0  0  0  0  0  0
   -4.8842   -2.6126    0.6694 H   0  0  0  0  0  0  0  0  0  0  0  0
   -4.0433   -3.7186   -0.4486 H   0  0  0  0  0  0  0  0  0  0  0  0
   -2.7532   -2.5046    0.7444 C   0  0  0  0  0  0  0  0  0  0  0  0
   -1.9803   -2.8096    1.6434 O   0  0  0  0  0  0  0  0  0  0  0  0
   -2.5332   -1.4966   -0.0966 N   0  0  0  0  0  0  0  0  0  0  0  0
   -3.2312   -1.2816   -0.7936 H   0  0  0  0  0  0  0  0  0  0  0  0
   -1.3593   -0.6196   -0.0536 C   0  0  1  0  0  0  0  0  0  0  0  0
   -0.8788   -0.7266    0.9196 H   0  0  0  0  0  0  0  0  0  0  0  0
   -0.3559   -1.0533   -1.1339 C   0  0  0  0  0  0  0  0  0  0  0  0
   -0.0733   -2.0922   -0.9546 H   0  0  0  0  0  0  0  0  0  0  0  0
   -0.8508   -1.0087   -2.1055 H   0  0  0  0  0  0  0  0  0  0  0  0
    0.8990   -0.2369   -1.2021 C   0  0  0  0  0  0  0  0  0  0  0  0
    1.7817   -0.2354   -2.2261 C   0  0  0  0  0  0  0  0  0  0  0  0
    1.6930   -0.8454   -3.1183 H   0  0  0  0  0  0  0  0  0  0  0  0
    2.7913    0.6709   -1.9673 N   0  0  0  0  0  0  0  0  0  0  0  0
    3.5648    0.8371   -2.5944 H   0  0  0  0  0  0  0  0  0  0  0  0
    2.5992    1.3147   -0.7635 C   0  0  0  0  0  0  0  0  0  0  0  0
    3.3125    2.3148   -0.0872 C   0  0  0  0  0  0  0  0  0  0  0  0
    4.2153    2.7268   -0.5137 H   0  0  0  0  0  0  0  0  0  0  0  0
    2.8373    2.7720    1.1538 C   0  0  0  0  0  0  0  0  0  0  0  0
    3.3749    3.5421    1.6904 H   0  0  0  0  0  0  0  0  0  0  0  0
    1.6639    2.2216    1.7010 C   0  0  0  0  0  0  0  0  0  0  0  0
    1.3064    2.5703    2.6600 H   0  0  0  0  0  0  0  0  0  0  0  0
    0.9561    1.2154    1.0134 C   0  0  0  0  0  0  0  0  0  0  0  0
    0.0634    0.7916    1.4513 H   0  0  0  0  0  0  0  0  0  0  0  0
    1.4039    0.7390   -0.2378 C   0  0  0  0  0  0  0  0  0  0  0  0
   -1.7617    0.8549   -0.2106 C   0  0  0  0  0  0  0  0  0  0  0  0
   -2.5726    1.1871   -1.0741 O   0  0  0  0  0  0  0  0  0  0  0  0
   -1.1941    1.7377    0.6223 N   0  0  0  0  0  0  0  0  0  0  0  0
   -0.4976    1.3916    1.2669 H   0  0  0  0  0  0  0  0  0  0  0  0
   -1.4666    3.1722    0.6095 C   0  0  0  0  0  0  0  0  0  0  0  0
   -2.5439    3.3427    0.6539 H   0  0  0  0  0  0  0  0  0  0  0  0
   -0.9893    3.6529    1.4644 H   0  0  0  0  0  0  0  0  0  0  0  0
   -1.0808    3.6095   -0.3129 H   0  0  0  0  0  0  0  0  0  0  0  0
  5  6  2  0  0  0  0
  5  7  1  0  0  0  0
  2  3  1  0  0  0  0
  2  4  1  0  0  0  0
  2  5  1  0  0  0  0
  1  2  1  0  0  0  0
 29 30  2  0  0  0  0
 29 31  1  0  0  0  0
 26 27  1  0  0  0  0
 26 28  2  0  0  0  0
 24 25  1  0  0  0  0
 24 26  1  0  0  0  0
 22 23  1  0  0  0  0
 22 24  2  0  0  0  0
 20 21  1  0  0  0  0
 20 22  1  0  0  0  0
 19 20  2  0  0  0  0
 19 28  1  0  0  0  0
 17 18  1  0  0  0  0
 17 19  1  0  0  0  0
 15 16  1  0  0  0  0
 15 17  1  0  0  0  0
 14 15  2  0  0  0  0
 14 28  1  0  0  0  0
 11 12  1  0  0  0  0
 11 13  1  0  0  0  0
 11 14  1  0  0  0  0
  9 10  1  0  0  0  0
  9 11  1  0  0  0  0
  9 29  1  0  0  0  0
  7  8  1  0  0  0  0
  7  9  1  0  0  0  0
 33 34  1  0  0  0  0
 33 35  1  0  0  0  0
 33 36  1  0  0  0  0
 31 32  1  0  0  0  0
 31 33  1  0  0  0  0
M  END
$$$$
default_name
  -OEChem-02102213163D

 36 37  0     1  0  0  0  0  0999 V2000
   -4.0843   -4.0736    1.2944 H   0  0  0  0  0  0  0  0  0  0  0  0
   -4.0342   -3.2816    0.5484 C   0  0  0  0  0  0  0  0  0  0  0  0
   -4.8842   -2.6126    0.6694 H   0  0  0  0  0  0  0  0  0  0  0  0
   -4.0433   -3.7186   -0.4486 H   0  0  0  0  0  0  0  0  0  0  0  0
   -2.7532   -2.5046    0.7444 C   0  0  0  0  0  0  0  0  0  0  0  0
   -1.9803   -2.8096    1.6434 O   0  0  0  0  0  0  0  0  0  0  0  0
   -2.5332   -1.4966   -0.0966 N   0  0  0  0  0  0  0  0  0  0  0  0
   -3.2312   -1.2816   -0.7936 H   0  0  0  0  0  0  0  0  0  0  0  0
   -1.3593   -0.6196   -0.0536 C   0  0  1  0  0  0  0  0  0  0  0  0
   -0.8788   -0.7266    0.9196 H   0  0  0  0  0  0  0  0  0  0  0  0
   -0.3559   -1.0533   -1.1339 C   0  0  0  0  0  0  0  0  0  0  0  0
   -0.0733   -2.0922   -0.9546 H   0  0  0  0  0  0  0  0  0  0  0  0
   -0.8508   -1.0087   -2.1055 H   0  0  0  0  0  0  0  0  0  0  0  0
    0.8990   -0.2369   -1.2021 C   0  0  0  0  0  0  0  0  0  0  0  0
    1.6297   -0.0093   -2.3166 C   0  0  0  0  0  0  0  0  0  0  0  0
    1.4006   -0.4110   -3.2975 H   0  0  0  0  0  0  0  0  0  0  0  0
    2.6899    0.8227   -2.0146 N   0  0  0  0  0  0  0  0  0  0  0  0
    3.3725    1.1243   -2.6946 H   0  0  0  0  0  0  0  0  0  0  0  0
    2.6855    1.1885   -0.6854 C   0  0  0  0  0  0  0  0  0  0  0  0
    3.5134    2.0202    0.0823 C   0  0  0  0  0  0  0  0  0  0  0  0
    4.3587    2.5185   -0.3692 H   0  0  0  0  0  0  0  0  0  0  0  0
    3.2289    2.1947    1.4474 C   0  0  0  0  0  0  0  0  0  0  0  0
    3.8571    2.8316    2.0555 H   0  0  0  0  0  0  0  0  0  0  0  0
    2.1289    1.5339    2.0242 C   0  0  0  0  0  0  0  0  0  0  0  0
    1.9185    1.6644    3.0767 H   0  0  0  0  0  0  0  0  0  0  0  0
    1.3047    0.6988    1.2434 C   0  0  0  0  0  0  0  0  0  0  0  0
    0.4707    0.1866    1.7020 H   0  0  0  0  0  0  0  0  0  0  0  0
    1.5601    0.5077   -0.1318 C   0  0  0  0  0  0  0  0  0  0  0  0
   -1.7617    0.8549   -0.2106 C   0  0  0  0  0  0  0  0  0  0  0  0
   -2.5726    1.1871   -1.0741 O   0  0  0  0  0  0  0  0  0  0  0  0
   -1.1941    1.7377    0.6223 N   0  0  0  0  0  0  0  0  0  0  0  0
   -0.4976    1.3916    1.2669 H   0  0  0  0  0  0  0  0  0  0  0  0
   -1.4666    3.1722    0.6095 C   0  0  0  0  0  0  0  0  0  0  0  0
   -2.5439    3.3427    0.6539 H   0  0  0  0  0  0  0  0  0  0  0  0
   -0.9893    3.6529    1.4644 H   0  0  0  0  0  0  0  0  0  0  0  0
   -1.0808    3.6095   -0.3129 H   0  0  0  0  0  0  0  0  0  0  0  0
  5  6  2  0  0  0  0
  5  7  1  0  0  0  0
  2  3  1  0  0  0  0
  2  4  1  0  0  0  0
  2  5  1  0  0  0  0
  1  2  1  0  0  0  0
 29 30  2  0  0  0  0
 29 31  1  0  0  0  0
 26 27  1  0  0  0  0
 26 28  2  0  0  0  0
 24 25  1  0  0  0  0
 24 26  1  0  0  0  0
 22 23  1  0  0  0  0
 22 24  2  0  0  0  0
 20 21  1  0  0  0  0
 20 22  1  0  0  0  0
 19 20  2  0  0  0  0
 19 28  1  0  0  0  0
 17 18  1  0  0  0  0
 17 19  1  0  0  0  0
 15 16  1  0  0  0  0
 15 17  1  0  0  0  0
 14 15  2  0  0  0  0
 14 28  1  0  0  0  0
 11 12  1  0  0  0  0
 11 13  1  0  0  0  0
 11 14  1  0  0  0  0
  9 10  1  0  0  0  0
  9 11  1  0  0  0  0
  9 29  1  0  0  0  0
  7  8  1  0  0  0  0
  7  9  1  0  0  0  0
 33 34  1  0  0  0  0
 33 35  1  0  0  0  0
 33 36  1  0  0  0  0
 31 32  1  0  0  0  0
 31 33  1  0  0  0  0
M  END
$$$$
default_name
  -OEChem-02102213163D

 36 37  0     1  0  0  0  0  0999 V2000
   -4.0843   -4.0736    1.2944 H   0  0  0  0  0  0  0  0  0  0  0  0
   -4.0342   -3.2816    0.5484 C   0  0  0  0  0  0  0  0  0  0  0  0
   -4.8842   -2.6126    0.6694 H   0  0  0  0  0  0  0  0  0  0  0  0
   -4.0433   -3.7186   -0.4486 H   0  0  0  0  0  0  0  0  0  0  0  0
   -2.7532   -2.5046    0.7444 C   0  0  0  0  0  0  0  0  0  0  0  0
   -1.9803   -2.8096    1.6434 O   0  0  0  0  0  0  0  0  0  0  0  0
   -2.5332   -1.4966   -0.0966 N   0  0  0  0  0  0  0  0  0  0  0  0
   -3.2312   -1.2816   -0.7936 H   0  0  0  0  0  0  0  0  0  0  0  0
   -1.3593   -0.6196   -0.0536 C   0  0  1  0  0  0  0  0  0  0  0  0
   -0.8788   -0.7266    0.9196 H   0  0  0  0  0  0  0  0  0  0  0  0
   -0.3559   -1.0533   -1.1339 C   0  0  0  0  0  0  0  0  0  0  0  0
   -0.0733   -2.0922   -0.9546 H   0  0  0  0  0  0  0  0  0  0  0  0
   -0.8508   -1.0087   -2.1055 H   0  0  0  0  0  0  0  0  0  0  0  0
    0.8990   -0.2369   -1.2021 C   0  0  0  0  0  0  0  0  0  0  0  0
    1.4728    0.2304   -2.3335 C   0  0  0  0  0  0  0  0  0  0  0  0
    1.0980    0.0510   -3.3352 H   0  0  0  0  0  0  0  0  0  0  0  0
    2.5872    0.9808   -2.0131 N   0  0  0  0  0  0  0  0  0  0  0  0
    3.1760    1.4257   -2.7020 H   0  0  0  0  0  0  0  0  0  0  0  0
    2.7785    1.0486   -0.6495 C   0  0  0  0  0  0  0  0  0  0  0  0
    3.7279    1.6965    0.1538 C   0  0  0  0  0  0  0  0  0  0  0  0
    4.5151    2.2843   -0.2951 H   0  0  0  0  0  0  0  0  0  0  0  0
    3.6418    1.5687    1.5507 C   0  0  0  0  0  0  0  0  0  0  0  0
    4.3659    2.0604    2.1861 H   0  0  0  0  0  0  0  0  0  0  0  0
    2.6154    0.7942    2.1217 C   0  0  0  0  0  0  0  0  0  0  0  0
    2.5578    0.6917    3.1965 H   0  0  0  0  0  0  0  0  0  0  0  0
    1.6678    0.1458    1.3045 C   0  0  0  0  0  0  0  0  0  0  0  0
    0.8924   -0.4570    1.7556 H   0  0  0  0  0  0  0  0  0  0  0  0
    1.7233    0.2595   -0.1015 C   0  0  0  0  0  0  0  0  0  0  0  0
   -1.7617    0.8549   -0.2106 C   0  0  0  0  0  0  0  0  0  0  0  0
   -2.5726    1.1871   -1.0741 O   0  0  0  0  0  0  0  0  0  0  0  0
   -1.1941    1.7377    0.6223 N   0  0  0  0  0  0  0  0  0  0  0  0
   -0.4976    1.3916    1.2669 H   0  0  0  0  0  0  0  0  0  0  0  0
   -1.4666    3.1722    0.6095 C   0  0  0  0  0  0  0  0  0  0  0  0
   -2.5439    3.3427    0.6539 H   0  0  0  0  0  0  0  0  0  0  0  0
   -0.9893    3.6529    1.4644 H   0  0  0  0  0  0  0  0  0  0  0  0
   -1.0808    3.6095   -0.3129 H   0  0  0  0  0  0  0  0  0  0  0  0
  5  6  2  0  0  0  0
  5  7  1  0  0  0  0
  2  3  1  0  0  0  0
  2  4  1  0  0  0  0
  2  5  1  0  0  0  0
  1  2  1  0  0  0  0
 29 30  2  0  0  0  0
 29 31  1  0  0  0  0
 26 27  1  0  0  0  0
 26 28  2  0  0  0  0
 24 25  1  0  0  0  0
 24 26  1  0  0  0  0
 22 23  1  0  0  0  0
 22 24  2  0  0  0  0
 20 21  1  0  0  0  0
 20 22  1  0  0  0  0
 19 20  2  0  0  0  0
 19 28  1  0  0  0  0
 17 18  1  0  0  0  0
 17 19  1  0  0  0  0
 15 16  1  0  0  0  0
 15 17  1  0  0  0  0
 14 15  2  0  0  0  0
 14 28  1  0  0  0  0
 11 12  1  0  0  0  0
 11 13  1  0  0  0  0
 11 14  1  0  0  0  0
  9 10  1  0  0  0  0
  9 11  1  0  0  0  0
  9 29  1  0  0  0  0
  7  8  1  0  0  0  0
  7  9  1  0  0  0  0
 33 34  1  0  0  0  0
 33 35  1  0  0  0  0
 33 36  1  0  0  0  0
 31 32  1  0  0  0  0
 31 33  1  0  0  0  0
M  END
$$$$
default_name
  -OEChem-02102213163D

 36 37  0     1  0  0  0  0  0999 V2000
   -4.0843   -4.0736    1.2944 H   0  0  0  0  0  0  0  0  0  0  0  0
   -4.0342   -3.2816    0.5484 C   0  0  0  0  0  0  0  0  0  0  0  0
   -4.8842   -2.6126    0.6694 H   0  0  0  0  0  0  0  0  0  0  0  0
   -4.0433   -3.7186   -0.4486 H   0  0  0  0  0  0  0  0  0  0  0  0
   -2.7532   -2.5046    0.7444 C   0  0  0  0  0  0  0  0  0  0  0  0
   -1.9803   -2.8096    1.6434 O   0  0  0  0  0  0  0  0  0  0  0  0
   -2.5332   -1.4966   -0.0966 N   0  0  0  0  0  0  0  0  0  0  0  0
   -3.2312   -1.2816   -0.7936 H   0  0  0  0  0  0  0  0  0  0  0  0
   -1.3593   -0.6196   -0.0536 C   0  0  1  0  0  0  0  0  0  0  0  0
   -0.8788   -0.7266    0.9196 H   0  0  0  0  0  0  0  0  0  0  0  0
   -0.3559   -1.0533   -1.1339 C   0  0  0  0  0  0  0  0  0  0  0  0
   -0.0733   -2.0922   -0.9546 H   0  0  0  0  0  0  0  0  0  0  0  0
   -0.8508   -1.0087   -2.1055 H   0  0  0  0  0  0  0  0  0  0  0  0
    0.8990   -0.2369   -1.2021 C   0  0  0  0  0  0  0  0  0  0  0  0
    1.3217    0.4676   -2.2758 C   0  0  0  0  0  0  0  0  0  0  0  0
    0.8058    0.5089   -3.2289 H   0  0  0  0  0  0  0  0  0  0  0  0
    2.4899    1.1344   -1.9629 N   0  0  0  0  0  0  0  0  0  0  0  0
    2.9887    1.7207   -2.6161 H   0  0  0  0  0  0  0  0  0  0  0  0
    2.8717    0.9047   -0.6582 C   0  0  0  0  0  0  0  0  0  0  0  0
    3.9414    1.3658    0.1225 C   0  0  0  0  0  0  0  0  0  0  0  0
    4.6739    2.0401   -0.2962 H   0  0  0  0  0  0  0  0  0  0  0  0
    4.0478    0.9368    1.4565 C   0  0  0  0  0  0  0  0  0  0  0  0
    4.8667    1.2812    2.0735 H   0  0  0  0  0  0  0  0  0  0  0  0
    3.0905    0.0528    1.9870 C   0  0  0  0  0  0  0  0  0  0  0  0
    3.1808   -0.2813    3.0114 H   0  0  0  0  0  0  0  0  0  0  0  0
    2.0206   -0.4058    1.1925 C   0  0  0  0  0  0  0  0  0  0  0  0
    1.2996   -1.0952    1.6084 H   0  0  0  0  0  0  0  0  0  0  0  0
    1.8822    0.0113   -0.1491 C   0  0  0  0  0  0  0  0  0  0  0  0
   -1.7617    0.8549   -0.2106 C   0  0  0  0  0  0  0  0  0  0  0  0
   -2.5726    1.1871   -1.0741 O   0  0  0  0  0  0  0  0  0  0  0  0
   -1.1941    1.7377    0.6223 N   0  0  0  0  0  0  0  0  0  0  0  0
   -0.4976    1.3916    1.2669 H   0  0  0  0  0  0  0  0  0  0  0  0
   -1.4666    3.1722    0.6095 C   0  0  0  0  0  0  0  0  0  0  0  0
   -2.5439    3.3427    0.6539 H   0  0  0  0  0  0  0  0  0  0  0  0
   -0.9893    3.6529    1.4644 H   0  0  0  0  0  0  0  0  0  0  0  0
   -1.0808    3.6095   -0.3129 H   0  0  0  0  0  0  0  0  0  0  0  0
  5  6  2  0  0  0  0
  5  7  1  0  0  0  0
  2  3  1  0  0  0  0
  2  4  1  0  0  0  0
  2  5  1  0  0  0  0
  1  2  1  0  0  0  0
 29 30  2  0  0  0  0
 29 31  1  0  0  0  0
 26 27  1  0  0  0  0
 26 28  2  0  0  0  0
 24 25  1  0  0  0  0
 24 26  1  0  0  0  0
 22 23  1  0  0  0  0
 22 24  2  0  0  0  0
 20 21  1  0  0  0  0
 20 22  1  0  0  0  0
 19 20  2  0  0  0  0
 19 28  1  0  0  0  0
 17 18  1  0  0  0  0
 17 19  1  0  0  0  0
 15 16  1  0  0  0  0
 15 17  1  0  0  0  0
 14 15  2  0  0  0  0
 14 28  1  0  0  0  0
 11 12  1  0  0  0  0
 11 13  1  0  0  0  0
 11 14  1  0  0  0  0
  9 10  1  0  0  0  0
  9 11  1  0  0  0  0
  9 29  1  0  0  0  0
  7  8  1  0  0  0  0
  7  9  1  0  0  0  0
 33 34  1  0  0  0  0
 33 35  1  0  0  0  0
 33 36  1  0  0  0  0
 31 32  1  0  0  0  0
 31 33  1  0  0  0  0
M  END
$$$$
default_name
  -OEChem-02102213163D

 36 37  0     1  0  0  0  0  0999 V2000
   -4.0843   -4.0736    1.2944 H   0  0  0  0  0  0  0  0  0  0  0  0
   -4.0342   -3.2816    0.5484 C   0  0  0  0  0  0  0  0  0  0  0  0
   -4.8842   -2.6126    0.6694 H   0  0  0  0  0  0  0  0  0  0  0  0
   -4.0433   -3.7186   -0.4486 H   0  0  0  0  0  0  0  0  0  0  0  0
   -2.7532   -2.5046    0.7444 C   0  0  0  0  0  0  0  0  0  0  0  0
   -1.9803   -2.8096    1.6434 O   0  0  0  0  0  0  0  0  0  0  0  0
   -2.5332   -1.4966   -0.0966 N   0  0  0  0  0  0  0  0  0  0  0  0
   -3.2312   -1.2816   -0.7936 H   0  0  0  0  0  0  0  0  0  0  0  0
   -1.3593   -0.6196   -0.0536 C   0  0  1  0  0  0  0  0  0  0  0  0
   -0.8788   -0.7266    0.9196 H   0  0  0  0  0  0  0  0  0  0  0  0
   -0.3559   -1.0533   -1.1339 C   0  0  0  0  0  0  0  0  0  0  0  0
   -0.0733   -2.0922   -0.9546 H   0  0  0  0  0  0  0  0  0  0  0  0
   -0.8508   -1.0087   -2.1055 H   0  0  0  0  0  0  0  0  0  0  0  0
    0.8990   -0.2369   -1.2021 C   0  0  0  0  0  0  0  0  0  0  0  0
    1.1866    0.6859   -2.1474 C   0  0  0  0  0  0  0  0  0  0  0  0
    0.5440    0.9316   -2.9857 H   0  0  0  0  0  0  0  0  0  0  0  0
    2.4049    1.2731   -1.8674 N   0  0  0  0  0  0  0  0  0  0  0  0
    2.8234    1.9893   -2.4428 H   0  0  0  0  0  0  0  0  0  0  0  0
    2.9588    0.7664   -0.7110 C   0  0  0  0  0  0  0  0  0  0  0  0
    4.1392    1.0506   -0.0095 C   0  0  0  0  0  0  0  0  0  0  0  0
    4.8242    1.8027   -0.3727 H   0  0  0  0  0  0  0  0  0  0  0  0
    4.4192    0.3421    1.1714 C   0  0  0  0  0  0  0  0  0  0  0  0
    5.3254    0.5471    1.7252 H   0  0  0  0  0  0  0  0  0  0  0  0
    3.5216   -0.6398    1.6292 C   0  0  0  0  0  0  0  0  0  0  0  0
    3.7450   -1.1883    2.5338 H   0  0  0  0  0  0  0  0  0  0  0  0
    2.3391   -0.9186    0.9150 C   0  0  0  0  0  0  0  0  0  0  0  0
    1.6647   -1.6846    1.2705 H   0  0  0  0  0  0  0  0  0  0  0  0
    2.0261   -0.2201   -0.2712 C   0  0  0  0  0  0  0  0  0  0  0  0
   -1.7617    0.8549   -0.2106 C   0  0  0  0  0  0  0  0  0  0  0  0
   -2.5726    1.1871   -1.0741 O   0  0  0  0  0  0  0  0  0  0  0  0
   -1.1941    1.7377    0.6223 N   0  0  0  0  0  0  0  0  0  0  0  0
   -0.4976    1.3916    1.2669 H   0  0  0  0  0  0  0  0  0  0  0  0
   -1.4666    3.1722    0.6095 C   0  0  0  0  0  0  0  0  0  0  0  0
   -2.5439    3.3427    0.6539 H   0  0  0  0  0  0  0  0  0  0  0  0
   -0.9893    3.6529    1.4644 H   0  0  0  0  0  0  0  0  0  0  0  0
   -1.0808    3.6095   -0.3129 H   0  0  0  0  0  0  0  0  0  0  0  0
  5  6  2  0  0  0  0
  5  7  1  0  0  0  0
  2  3  1  0  0  0  0
  2  4  1  0  0  0  0
  2  5  1  0  0  0  0
  1  2  1  0  0  0  0
 29 30  2  0  0  0  0
 29 31  1  0  0  0  0
 26 27  1  0  0  0  0
 26 28  2  0  0  0  0
 24 25  1  0  0  0  0
 24 26  1  0  0  0  0
 22 23  1  0  0  0  0
 22 24  2  0  0  0  0
 20 21  1  0  0  0  0
 20 22  1  0  0  0  0
 19 20  2  0  0  0  0
 19 28  1  0  0  0  0
 17 18  1  0  0  0  0
 17 19  1  0  0  0  0
 15 16  1  0  0  0  0
 15 17  1  0  0  0  0
 14 15  2  0  0  0  0
 14 28  1  0  0  0  0
 11 12  1  0  0  0  0
 11 13  1  0  0  0  0
 11 14  1  0  0  0  0
  9 10  1  0  0  0  0
  9 11  1  0  0  0  0
  9 29  1  0  0  0  0
  7  8  1  0  0  0  0
  7  9  1  0  0  0  0
 33 34  1  0  0  0  0
 33 35  1  0  0  0  0
 33 36  1  0  0  0  0
 31 32  1  0  0  0  0
 31 33  1  0  0  0  0
M  END
$$$$
default_name
  -OEChem-02102213163D

 36 37  0     1  0  0  0  0  0999 V2000
   -4.0843   -4.0736    1.2944 H   0  0  0  0  0  0  0  0  0  0  0  0
   -4.0342   -3.2816    0.5484 C   0  0  0  0  0  0  0  0  0  0  0  0
   -4.8842   -2.6126    0.6694 H   0  0  0  0  0  0  0  0  0  0  0  0
   -4.0433   -3.7186   -0.4486 H   0  0  0  0  0  0  0  0  0  0  0  0
   -2.7532   -2.5046    0.7444 C   0  0  0  0  0  0  0  0  0  0  0  0
   -1.9803   -2.8096    1.6434 O   0  0  0  0  0  0  0  0  0  0  0  0
   -2.5332   -1.4966   -0.0966 N   0  0  0  0  0  0  0  0  0  0  0  0
   -3.2312   -1.2816   -0.7936 H   0  0  0  0  0  0  0  0  0  0  0  0
   -1.3593   -0.6196   -0.0536 C   0  0  1  0  0  0  0  0  0  0  0  0
   -0.8788   -0.7266    0.9196 H   0  0  0  0  0  0  0  0  0  0  0  0
   -0.3559   -1.0533   -1.1339 C   0  0  0  0  0  0  0  0  0  0  0  0
   -0.0733   -2.0922   -0.9546 H   0  0  0  0  0  0  0  0  0  0  0  0
   -0.8508   -1.0087   -2.1055 H   0  0  0  0  0  0  0  0  0  0  0  0
    0.8990   -0.2369   -1.2021 C   0  0  0  0  0  0  0  0  0  0  0  0
    1.0769    0.8705   -1.9570 C   0  0  0  0  0  0  0  0  0  0  0  0
    0.3304    1.2904   -2.6223 H   0  0  0  0  0  0  0  0  0  0  0  0
    2.3379    1.3873   -1.7331 N   0  0  0  0  0  0  0  0  0  0  0  0
    2.6913    2.2131   -2.1939 H   0  0  0  0  0  0  0  0  0  0  0  0
    3.0338    0.6432   -0.8042 C   0  0  0  0  0  0  0  0  0  0  0  0
    4.3081    0.7725   -0.2332 C   0  0  0  0  0  0  0  0  0  0  0  0
    4.9559    1.5881   -0.5192 H   0  0  0  0  0  0  0  0  0  0  0  0
    4.7308   -0.1749    0.7148 C   0  0  0  0  0  0  0  0  0  0  0  0
    5.7107   -0.0919    1.1651 H   0  0  0  0  0  0  0  0  0  0  0  0
    3.8794   -1.2363    1.0728 C   0  0  0  0  0  0  0  0  0  0  0  0
    4.2119   -1.9676    1.7964 H   0  0  0  0  0  0  0  0  0  0  0  0
    2.6015   -1.3574    0.4909 C   0  0  0  0  0  0  0  0  0  0  0  0
    1.9628   -2.1850    0.7650 H   0  0  0  0  0  0  0  0  0  0  0  0
    2.1451   -0.4188   -0.4596 C   0  0  0  0  0  0  0  0  0  0  0  0
   -1.7617    0.8549   -0.2106 C   0  0  0  0  0  0  0  0  0  0  0  0
   -2.5726    1.1871   -1.0741 O   0  0  0  0  0  0  0  0  0  0  0  0
   -1.1941    1.7377    0.6223 N   0  0  0  0  0  0  0  0  0  0  0  0
   -0.4976    1.3916    1.2669 H   0  0  0  0  0  0  0  0  0  0  0  0
   -1.4666    3.1722    0.6095 C   0  0  0  0  0  0  0  0  0  0  0  0
   -2.5439    3.3427    0.6539 H   0  0  0  0  0  0  0  0  0  0  0  0
   -0.9893    3.6529    1.4644 H   0  0  0  0  0  0  0  0  0  0  0  0
   -1.0808    3.6095   -0.3129 H   0  0  0  0  0  0  0  0  0  0  0  0
  5  6  2  0  0  0  0
  5  7  1  0  0  0  0
  2  3  1  0  0  0  0
  2  4  1  0  0  0  0
  2  5  1  0  0  0  0
  1  2  1  0  0  0  0
 29 30  2  0  0  0  0
 29 31  1  0  0  0  0
 26 27  1  0  0  0  0
 26 28  2  0  0  0  0
 24 25  1  0  0  0  0
 24 26  1  0  0  0  0
 22 23  1  0  0  0  0
 22 24  2  0  0  0  0
 20 21  1  0  0  0  0
 20 22  1  0  0  0  0
 19 20  2  0  0  0  0
 19 28  1  0  0  0  0
 17 18  1  0  0  0  0
 17 19  1  0  0  0  0
 15 16  1  0  0  0  0
 15 17  1  0  0  0  0
 14 15  2  0  0  0  0
 14 28  1  0  0  0  0
 11 12  1  0  0  0  0
 11 13  1  0  0  0  0
 11 14  1  0  0  0  0
  9 10  1  0  0  0  0
  9 11  1  0  0  0  0
  9 29  1  0  0  0  0
  7  8  1  0  0  0  0
  7  9  1  0  0  0  0
 33 34  1  0  0  0  0
 33 35  1  0  0  0  0
 33 36  1  0  0  0  0
 31 32  1  0  0  0  0
 31 33  1  0  0  0  0
M  END
$$$$
default_name
  -OEChem-02102213163D

 36 37  0     1  0  0  0  0  0999 V2000
   -4.0843   -4.0736    1.2944 H   0  0  0  0  0  0  0  0  0  0  0  0
   -4.0342   -3.2816    0.5484 C   0  0  0  0  0  0  0  0  0  0  0  0
   -4.8842   -2.6126    0.6694 H   0  0  0  0  0  0  0  0  0  0  0  0
   -4.0433   -3.7186   -0.4486 H   0  0  0  0  0  0  0  0  0  0  0  0
   -2.7532   -2.5046    0.7444 C   0  0  0  0  0  0  0  0  0  0  0  0
   -1.9803   -2.8096    1.6434 O   0  0  0  0  0  0  0  0  0  0  0  0
   -2.5332   -1.4966   -0.0966 N   0  0  0  0  0  0  0  0  0  0  0  0
   -3.2312   -1.2816   -0.7936 H   0  0  0  0  0  0  0  0  0  0  0  0
   -1.3593   -0.6196   -0.0536 C   0  0  1  0  0  0  0  0  0  0  0  0
   -0.8788   -0.7266    0.9196 H   0  0  0  0  0  0  0  0  0  0  0  0
   -0.3559   -1.0533   -1.1339 C   0  0  0  0  0  0  0  0  0  0  0  0
   -0.0733   -2.0922   -0.9546 H   0  0  0  0  0  0  0  0  0  0  0  0
   -0.8508   -1.0087   -2.1055 H   0  0  0  0  0  0  0  0  0  0  0  0
    0.8990   -0.2369   -1.2021 C   0  0  0  0  0  0  0  0  0  0  0  0
    0.9999    1.0089   -1.7176 C   0  0  0  0  0  0  0  0  0  0  0  0
    0.1795    1.5606   -2.1634 H   0  0  0  0  0  0  0  0  0  0  0  0
    2.2935    1.4693   -1.5692 N   0  0  0  0  0  0  0  0  0  0  0  0
    2.6015    2.3769   -1.8863 H   0  0  0  0  0  0  0  0  0  0  0  0
    3.0917    0.5436   -0.9316 C   0  0  0  0  0  0  0  0  0  0  0  0
    4.4363    0.5503   -0.5334 C   0  0  0  0  0  0  0  0  0  0  0  0
    5.0599    1.4110   -0.7257 H   0  0  0  0  0  0  0  0  0  0  0  0
    4.9612   -0.5791    0.1177 C   0  0  0  0  0  0  0  0  0  0  0  0
    5.9964   -0.5923    0.4311 H   0  0  0  0  0  0  0  0  0  0  0  0
    4.1396   -1.6960    0.3556 C   0  0  0  0  0  0  0  0  0  0  0  0
    4.5498   -2.5661    0.8493 H   0  0  0  0  0  0  0  0  0  0  0  0
    2.7901   -1.6925   -0.0508 C   0  0  0  0  0  0  0  0  0  0  0  0
    2.1735   -2.5623    0.1261 H   0  0  0  0  0  0  0  0  0  0  0  0
    2.2312   -0.5713   -0.7015 C   0  0  0  0  0  0  0  0  0  0  0  0
   -1.7617    0.8549   -0.2106 C   0  0  0  0  0  0  0  0  0  0  0  0
   -2.5726    1.1871   -1.0741 O   0  0  0  0  0  0  0  0  0  0  0  0
   -1.1941    1.7377    0.6223 N   0  0  0  0  0  0  0  0  0  0  0  0
   -0.4976    1.3916    1.2669 H   0  0  0  0  0  0  0  0  0  0  0  0
   -1.4666    3.1722    0.6095 C   0  0  0  0  0  0  0  0  0  0  0  0
   -2.5439    3.3427    0.6539 H   0  0  0  0  0  0  0  0  0  0  0  0
   -0.9893    3.6529    1.4644 H   0  0  0  0  0  0  0  0  0  0  0  0
   -1.0808    3.6095   -0.3129 H   0  0  0  0  0  0  0  0  0  0  0  0
  5  6  2  0  0  0  0
  5  7  1  0  0  0  0
  2  3  1  0  0  0  0
  2  4  1  0  0  0  0
  2  5  1  0  0  0  0
  1  2  1  0  0  0  0
 29 30  2  0  0  0  0
 29 31  1  0  0  0  0
 26 27  1  0  0  0  0
 26 28  2  0  0  0  0
 24 25  1  0  0  0  0
 24 26  1  0  0  0  0
 22 23  1  0  0  0  0
 22 24  2  0  0  0  0
 20 21  1  0  0  0  0
 20 22  1  0  0  0  0
 19 20  2  0  0  0  0
 19 28  1  0  0  0  0
 17 18  1  0  0  0  0
 17 19  1  0  0  0  0
 15 16  1  0  0  0  0
 15 17  1  0  0  0  0
 14 15  2  0  0  0  0
 14 28  1  0  0  0  0
 11 12  1  0  0  0  0
 11 13  1  0  0  0  0
 11 14  1  0  0  0  0
  9 10  1  0  0  0  0
  9 11  1  0  0  0  0
  9 29  1  0  0  0  0
  7  8  1  0  0  0  0
  7  9  1  0  0  0  0
 33 34  1  0  0  0  0
 33 35  1  0  0  0  0
 33 36  1  0  0  0  0
 31 32  1  0  0  0  0
 31 33  1  0  0  0  0
M  END
$$$$
default_name
  -OEChem-02102213163D

 36 37  0     1  0  0  0  0  0999 V2000
   -4.0843   -4.0736    1.2944 H   0  0  0  0  0  0  0  0  0  0  0  0
   -4.0342   -3.2816    0.5484 C   0  0  0  0  0  0  0  0  0  0  0  0
   -4.8842   -2.6126    0.6694 H   0  0  0  0  0  0  0  0  0  0  0  0
   -4.0433   -3.7186   -0.4486 H   0  0  0  0  0  0  0  0  0  0  0  0
   -2.7532   -2.5046    0.7444 C   0  0  0  0  0  0  0  0  0  0  0  0
   -1.9803   -2.8096    1.6434 O   0  0  0  0  0  0  0  0  0  0  0  0
   -2.5332   -1.4966   -0.0966 N   0  0  0  0  0  0  0  0  0  0  0  0
   -3.2312   -1.2816   -0.7936 H   0  0  0  0  0  0  0  0  0  0  0  0
   -1.3593   -0.6196   -0.0536 C   0  0  1  0  0  0  0  0  0  0  0  0
   -0.8788   -0.7266    0.9196 H   0  0  0  0  0  0  0  0  0  0  0  0
   -0.3559   -1.0533   -1.1339 C   0  0  0  0  0  0  0  0  0  0  0  0
   -0.0733   -2.0922   -0.9546 H   0  0  0  0  0  0  0  0  0  0  0  0
   -0.8508   -1.0087   -2.1055 H   0  0  0  0  0  0  0  0  0  0  0  0
    0.8990   -0.2369   -1.2021 C   0  0  0  0  0  0  0  0  0  0  0  0
    0.9609    1.0915   -1.4455 C   0  0  0  0  0  0  0  0  0  0  0  0
    0.1017    1.7240   -1.6403 H   0  0  0  0  0  0  0  0  0  0  0  0
    2.2746    1.5135   -1.3868 N   0  0  0  0  0  0  0  0  0  0  0  0
    2.5600    2.4695   -1.5411 H   0  0  0  0  0  0  0  0  0  0  0  0
    3.1285    0.4743   -1.0843 C   0  0  0  0  0  0  0  0  0  0  0  0
    4.5152    0.3993   -0.8895 C   0  0  0  0  0  0  0  0  0  0  0  0
    5.1291    1.2835   -0.9783 H   0  0  0  0  0  0  0  0  0  0  0  0
    5.0949   -0.8427   -0.5791 C   0  0  0  0  0  0  0  0  0  0  0  0
    6.1629   -0.9200   -0.4265 H   0  0  0  0  0  0  0  0  0  0  0  0
    4.2843   -1.9878   -0.4735 C   0  0  0  0  0  0  0  0  0  0  0  0
    4.7356   -2.9429   -0.2427 H   0  0  0  0  0  0  0  0  0  0  0  0
    2.8919   -1.9010   -0.6733 C   0  0  0  0  0  0  0  0  0  0  0  0
    2.2826   -2.7908   -0.6024 H   0  0  0  0  0  0  0  0  0  0  0  0
    2.2784   -0.6672   -0.9803 C   0  0  0  0  0  0  0  0  0  0  0  0
   -1.7617    0.8549   -0.2106 C   0  0  0  0  0  0  0  0  0  0  0  0
   -2.5726    1.1871   -1.0741 O   0  0  0  0  0  0  0  0  0  0  0  0
   -1.1941    1.7377    0.6223 N   0  0  0  0  0  0  0  0  0  0  0  0
   -0.4976    1.3916    1.2669 H   0  0  0  0  0  0  0  0  0  0  0  0
   -1.4666    3.1722    0.6095 C   0  0  0  0  0  0  0  0  0  0  0  0
   -2.5439    3.3427    0.6539 H   0  0  0  0  0  0  0  0  0  0  0  0
   -0.9893    3.6529    1.4644 H   0  0  0  0  0  0  0  0  0  0  0  0
   -1.0808    3.6095   -0.3129 H   0  0  0  0  0  0  0  0  0  0  0  0
  5  6  2  0  0  0  0
  5  7  1  0  0  0  0
  2  3  1  0  0  0  0
  2  4  1  0  0  0  0
  2  5  1  0  0  0  0
  1  2  1  0  0  0  0
 29 30  2  0  0  0  0
 29 31  1  0  0  0  0
 26 27  1  0  0  0  0
 26 28  2  0  0  0  0
 24 25  1  0  0  0  0
 24 26  1  0  0  0  0
 22 23  1  0  0  0  0
 22 24  2  0  0  0  0
 20 21  1  0  0  0  0
 20 22  1  0  0  0  0
 19 20  2  0  0  0  0
 19 28  1  0  0  0  0
 17 18  1  0  0  0  0
 17 19  1  0  0  0  0
 15 16  1  0  0  0  0
 15 17  1  0  0  0  0
 14 15  2  0  0  0  0
 14 28  1  0  0  0  0
 11 12  1  0  0  0  0
 11 13  1  0  0  0  0
 11 14  1  0  0  0  0
  9 10  1  0  0  0  0
  9 11  1  0  0  0  0
  9 29  1  0  0  0  0
  7  8  1  0  0  0  0
  7  9  1  0  0  0  0
 33 34  1  0  0  0  0
 33 35  1  0  0  0  0
 33 36  1  0  0  0  0
 31 32  1  0  0  0  0
 31 33  1  0  0  0  0
M  END
$$$$
default_name
  -OEChem-02102213163D

 36 37  0     1  0  0  0  0  0999 V2000
   -4.0843   -4.0736    1.2944 H   0  0  0  0  0  0  0  0  0  0  0  0
   -4.0342   -3.2816    0.5484 C   0  0  0  0  0  0  0  0  0  0  0  0
   -4.8842   -2.6126    0.6694 H   0  0  0  0  0  0  0  0  0  0  0  0
   -4.0433   -3.7186   -0.4486 H   0  0  0  0  0  0  0  0  0  0  0  0
   -2.7532   -2.5046    0.7444 C   0  0  0  0  0  0  0  0  0  0  0  0
   -1.9803   -2.8096    1.6434 O   0  0  0  0  0  0  0  0  0  0  0  0
   -2.5332   -1.4966   -0.0966 N   0  0  0  0  0  0  0  0  0  0  0  0
   -3.2312   -1.2816   -0.7936 H   0  0  0  0  0  0  0  0  0  0  0  0
   -1.3593   -0.6196   -0.0536 C   0  0  1  0  0  0  0  0  0  0  0  0
   -0.8788   -0.7266    0.9196 H   0  0  0  0  0  0  0  0  0  0  0  0
   -0.3559   -1.0533   -1.1339 C   0  0  0  0  0  0  0  0  0  0  0  0
   -0.0733   -2.0922   -0.9546 H   0  0  0  0  0  0  0  0  0  0  0  0
   -0.8508   -1.0087   -2.1055 H   0  0  0  0  0  0  0  0  0  0  0  0
    0.8990   -0.2369   -1.2021 C   0  0  0  0  0  0  0  0  0  0  0  0
    0.9625    1.1129   -1.1593 C   0  0  0  0  0  0  0  0  0  0  0  0
    0.1022    1.7693   -1.0887 H   0  0  0  0  0  0  0  0  0  0  0  0
    2.2827    1.5170   -1.1984 N   0  0  0  0  0  0  0  0  0  0  0  0
    2.5697    2.4847   -1.1817 H   0  0  0  0  0  0  0  0  0  0  0  0
    3.1417    0.4400   -1.2521 C   0  0  0  0  0  0  0  0  0  0  0  0
    4.5394    0.3296   -1.2774 C   0  0  0  0  0  0  0  0  0  0  0  0
    5.1588    1.2143   -1.2596 H   0  0  0  0  0  0  0  0  0  0  0  0
    5.1227   -0.9480   -1.3282 C   0  0  0  0  0  0  0  0  0  0  0  0
    6.1990   -1.0526   -1.3494 H   0  0  0  0  0  0  0  0  0  0  0  0
    4.3038   -2.0916   -1.3580 C   0  0  0  0  0  0  0  0  0  0  0  0
    4.7566   -3.0723   -1.4055 H   0  0  0  0  0  0  0  0  0  0  0  0
    2.9000   -1.9687   -1.3341 C   0  0  0  0  0  0  0  0  0  0  0  0
    2.2825   -2.8549   -1.3710 H   0  0  0  0  0  0  0  0  0  0  0  0
    2.2836   -0.7000   -1.2770 C   0  0  0  0  0  0  0  0  0  0  0  0
   -1.7617    0.8549   -0.2106 C   0  0  0  0  0  0  0  0  0  0  0  0
   -2.5726    1.1871   -1.0741 O   0  0  0  0  0  0  0  0  0  0  0  0
   -1.1941    1.7377    0.6223 N   0  0  0  0  0  0  0  0  0  0  0  0
   -0.4976    1.3916    1.2669 H   0  0  0  0  0  0  0  0  0  0  0  0
   -1.4666    3.1722    0.6095 C   0  0  0  0  0  0  0  0  0  0  0  0
   -2.5439    3.3427    0.6539 H   0  0  0  0  0  0  0  0  0  0  0  0
   -0.9893    3.6529    1.4644 H   0  0  0  0  0  0  0  0  0  0  0  0
   -1.0808    3.6095   -0.3129 H   0  0  0  0  0  0  0  0  0  0  0  0
  5  6  2  0  0  0  0
  5  7  1  0  0  0  0
  2  3  1  0  0  0  0
  2  4  1  0  0  0  0
  2  5  1  0  0  0  0
  1  2  1  0  0  0  0
 29 30  2  0  0  0  0
 29 31  1  0  0  0  0
 26 27  1  0  0  0  0
 26 28  2  0  0  0  0
 24 25  1  0  0  0  0
 24 26  1  0  0  0  0
 22 23  1  0  0  0  0
 22 24  2  0  0  0  0
 20 21  1  0  0  0  0
 20 22  1  0  0  0  0
 19 20  2  0  0  0  0
 19 28  1  0  0  0  0
 17 18  1  0  0  0  0
 17 19  1  0  0  0  0
 15 16  1  0  0  0  0
 15 17  1  0  0  0  0
 14 15  2  0  0  0  0
 14 28  1  0  0  0  0
 11 12  1  0  0  0  0
 11 13  1  0  0  0  0
 11 14  1  0  0  0  0
  9 10  1  0  0  0  0
  9 11  1  0  0  0  0
  9 29  1  0  0  0  0
  7  8  1  0  0  0  0
  7  9  1  0  0  0  0
 33 34  1  0  0  0  0
 33 35  1  0  0  0  0
 33 36  1  0  0  0  0
 31 32  1  0  0  0  0
 31 33  1  0  0  0  0
M  END
$$$$
default_name
  -OEChem-02102213163D

 36 37  0     1  0  0  0  0  0999 V2000
   -4.0843   -4.0736    1.2944 H   0  0  0  0  0  0  0  0  0  0  0  0
   -4.0342   -3.2816    0.5484 C   0  0  0  0  0  0  0  0  0  0  0  0
   -4.8842   -2.6126    0.6694 H   0  0  0  0  0  0  0  0  0  0  0  0
   -4.0433   -3.7186   -0.4486 H   0  0  0  0  0  0  0  0  0  0  0  0
   -2.7532   -2.5046    0.7444 C   0  0  0  0  0  0  0  0  0  0  0  0
   -1.9803   -2.8096    1.6434 O   0  0  0  0  0  0  0  0  0  0  0  0
   -2.5332   -1.4966   -0.0966 N   0  0  0  0  0  0  0  0  0  0  0  0
   -3.2312   -1.2816   -0.7936 H   0  0  0  0  0  0  0  0  0  0  0  0
   -1.3593   -0.6196   -0.0536 C   0  0  1  0  0  0  0  0  0  0  0  0
   -0.8788   -0.7266    0.9196 H   0  0  0  0  0  0  0  0  0  0  0  0
   -0.3559   -1.0533   -1.1339 C   0  0  0  0  0  0  0  0  0  0  0  0
   -0.0733   -2.0922   -0.9546 H   0  0  0  0  0  0  0  0  0  0  0  0
   -0.8508   -1.0087   -2.1055 H   0  0  0  0  0  0  0  0  0  0  0  0
    0.8990   -0.2369   -1.2021 C   0  0  0  0  0  0  0  0  0  0  0  0
    1.0048    1.0715   -0.8784 C   0  0  0  0  0  0  0  0  0  0  0  0
    0.1810    1.6936   -0.5461 H   0  0  0  0  0  0  0  0  0  0  0  0
    2.3170    1.4793   -1.0169 N   0  0  0  0  0  0  0  0  0  0  0  0
    2.6299    2.4213   -0.8326 H   0  0  0  0  0  0  0  0  0  0  0  0
    3.1304    0.4431   -1.4234 C   0  0  0  0  0  0  0  0  0  0  0  0
    4.5073    0.3461   -1.6706 C   0  0  0  0  0  0  0  0  0  0  0  0
    5.1471    1.2080   -1.5506 H   0  0  0  0  0  0  0  0  0  0  0  0
    5.0426   -0.8877   -2.0784 C   0  0  0  0  0  0  0  0  0  0  0  0
    6.1022   -0.9811   -2.2747 H   0  0  0  0  0  0  0  0  0  0  0  0
    4.1966   -2.0005   -2.2376 C   0  0  0  0  0  0  0  0  0  0  0  0
    4.6114   -2.9457   -2.5596 H   0  0  0  0  0  0  0  0  0  0  0  0
    2.8139   -1.8910   -1.9882 C   0  0  0  0  0  0  0  0  0  0  0  0
    2.1732   -2.7502   -2.1273 H   0  0  0  0  0  0  0  0  0  0  0  0
    2.2464   -0.6674   -1.5714 C   0  0  0  0  0  0  0  0  0  0  0  0
   -1.7617    0.8549   -0.2106 C   0  0  0  0  0  0  0  0  0  0  0  0
   -2.5726    1.1871   -1.0741 O   0  0  0  0  0  0  0  0  0  0  0  0
   -1.1941    1.7377    0.6223 N   0  0  0  0  0  0  0  0  0  0  0  0
   -0.4976    1.3916    1.2669 H   0  0  0  0  0  0  0  0  0  0  0  0
   -1.4666    3.1722    0.6095 C   0  0  0  0  0  0  0  0  0  0  0  0
   -2.5439    3.3427    0.6539 H   0  0  0  0  0  0  0  0  0  0  0  0
   -0.9893    3.6529    1.4644 H   0  0  0  0  0  0  0  0  0  0  0  0
   -1.0808    3.6095   -0.3129 H   0  0  0  0  0  0  0  0  0  0  0  0
  5  6  2  0  0  0  0
  5  7  1  0  0  0  0
  2  3  1  0  0  0  0
  2  4  1  0  0  0  0
  2  5  1  0  0  0  0
  1  2  1  0  0  0  0
 29 30  2  0  0  0  0
 29 31  1  0  0  0  0
 26 27  1  0  0  0  0
 26 28  2  0  0  0  0
 24 25  1  0  0  0  0
 24 26  1  0  0  0  0
 22 23  1  0  0  0  0
 22 24  2  0  0  0  0
 20 21  1  0  0  0  0
 20 22  1  0  0  0  0
 19 20  2  0  0  0  0
 19 28  1  0  0  0  0
 17 18  1  0  0  0  0
 17 19  1  0  0  0  0
 15 16  1  0  0  0  0
 15 17  1  0  0  0  0
 14 15  2  0  0  0  0
 14 28  1  0  0  0  0
 11 12  1  0  0  0  0
 11 13  1  0  0  0  0
 11 14  1  0  0  0  0
  9 10  1  0  0  0  0
  9 11  1  0  0  0  0
  9 29  1  0  0  0  0
  7  8  1  0  0  0  0
  7  9  1  0  0  0  0
 33 34  1  0  0  0  0
 33 35  1  0  0  0  0
 33 36  1  0  0  0  0
 31 32  1  0  0  0  0
 31 33  1  0  0  0  0
M  END
$$$$
default_name
  -OEChem-02102213163D

 36 37  0     1  0  0  0  0  0999 V2000
   -4.0843   -4.0736    1.2944 H   0  0  0  0  0  0  0  0  0  0  0  0
   -4.0342   -3.2816    0.5484 C   0  0  0  0  0  0  0  0  0  0  0  0
   -4.8842   -2.6126    0.6694 H   0  0  0  0  0  0  0  0  0  0  0  0
   -4.0433   -3.7186   -0.4486 H   0  0  0  0  0  0  0  0  0  0  0  0
   -2.7532   -2.5046    0.7444 C   0  0  0  0  0  0  0  0  0  0  0  0
   -1.9803   -2.8096    1.6434 O   0  0  0  0  0  0  0  0  0  0  0  0
   -2.5332   -1.4966   -0.0966 N   0  0  0  0  0  0  0  0  0  0  0  0
   -3.2312   -1.2816   -0.7936 H   0  0  0  0  0  0  0  0  0  0  0  0
   -1.3593   -0.6196   -0.0536 C   0  0  1  0  0  0  0  0  0  0  0  0
   -0.8788   -0.7266    0.9196 H   0  0  0  0  0  0  0  0  0  0  0  0
   -0.3559   -1.0533   -1.1339 C   0  0  0  0  0  0  0  0  0  0  0  0
   -0.0733   -2.0922   -0.9546 H   0  0  0  0  0  0  0  0  0  0  0  0
   -0.8508   -1.0087   -2.1055 H   0  0  0  0  0  0  0  0  0  0  0  0
    0.8990   -0.2369   -1.2021 C   0  0  0  0  0  0  0  0  0  0  0  0
    1.0847    0.9701   -0.6220 C   0  0  0  0  0  0  0  0  0  0  0  0
    0.3327    1.5019   -0.0495 H   0  0  0  0  0  0  0  0  0  0  0  0
    2.3753    1.4032   -0.8545 N   0  0  0  0  0  0  0  0  0  0  0  0
    2.7366    2.2837   -0.5176 H   0  0  0  0  0  0  0  0  0  0  0  0
    3.0954    0.4833   -1.5866 C   0  0  0  0  0  0  0  0  0  0  0  0
    4.4210    0.4476   -2.0423 C   0  0  0  0  0  0  0  0  0  0  0  0
    5.0946    1.2652   -1.8313 H   0  0  0  0  0  0  0  0  0  0  0  0
    4.8602   -0.6658   -2.7788 C   0  0  0  0  0  0  0  0  0  0  0  0
    5.8790   -0.7103   -3.1393 H   0  0  0  0  0  0  0  0  0  0  0  0
    3.9702   -1.7205   -3.0524 C   0  0  0  0  0  0  0  0  0  0  0  0
    4.3099   -2.5715   -3.6265 H   0  0  0  0  0  0  0  0  0  0  0  0
    2.6393   -1.6731   -2.5911 C   0  0  0  0  0  0  0  0  0  0  0  0
    1.9623   -2.4839   -2.8197 H   0  0  0  0  0  0  0  0  0  0  0  0
    2.1693   -0.5716   -1.8436 C   0  0  0  0  0  0  0  0  0  0  0  0
   -1.7617    0.8549   -0.2106 C   0  0  0  0  0  0  0  0  0  0  0  0
   -2.5726    1.1871   -1.0741 O   0  0  0  0  0  0  0  0  0  0  0  0
   -1.1941    1.7377    0.6223 N   0  0  0  0  0  0  0  0  0  0  0  0
   -0.4976    1.3916    1.2669 H   0  0  0  0  0  0  0  0  0  0  0  0
   -1.4666    3.1722    0.6095 C   0  0  0  0  0  0  0  0  0  0  0  0
   -2.5439    3.3427    0.6539 H   0  0  0  0  0  0  0  0  0  0  0  0
   -0.9893    3.6529    1.4644 H   0  0  0  0  0  0  0  0  0  0  0  0
   -1.0808    3.6095   -0.3129 H   0  0  0  0  0  0  0  0  0  0  0  0
  5  6  2  0  0  0  0
  5  7  1  0  0  0  0
  2  3  1  0  0  0  0
  2  4  1  0  0  0  0
  2  5  1  0  0  0  0
  1  2  1  0  0  0  0
 29 30  2  0  0  0  0
 29 31  1  0  0  0  0
 26 27  1  0  0  0  0
 26 28  2  0  0  0  0
 24 25  1  0  0  0  0
 24 26  1  0  0  0  0
 22 23  1  0  0  0  0
 22 24  2  0  0  0  0
 20 21  1  0  0  0  0
 20 22  1  0  0  0  0
 19 20  2  0  0  0  0
 19 28  1  0  0  0  0
 17 18  1  0  0  0  0
 17 19  1  0  0  0  0
 15 16  1  0  0  0  0
 15 17  1  0  0  0  0
 14 15  2  0  0  0  0
 14 28  1  0  0  0  0
 11 12  1  0  0  0  0
 11 13  1  0  0  0  0
 11 14  1  0  0  0  0
  9 10  1  0  0  0  0
  9 11  1  0  0  0  0
  9 29  1  0  0  0  0
  7  8  1  0  0  0  0
  7  9  1  0  0  0  0
 33 34  1  0  0  0  0
 33 35  1  0  0  0  0
 33 36  1  0  0  0  0
 31 32  1  0  0  0  0
 31 33  1  0  0  0  0
M  END
$$$$
default_name
  -OEChem-02102213163D

 36 37  0     1  0  0  0  0  0999 V2000
   -4.0843   -4.0736    1.2944 H   0  0  0  0  0  0  0  0  0  0  0  0
   -4.0342   -3.2816    0.5484 C   0  0  0  0  0  0  0  0  0  0  0  0
   -4.8842   -2.6126    0.6694 H   0  0  0  0  0  0  0  0  0  0  0  0
   -4.0433   -3.7186   -0.4486 H   0  0  0  0  0  0  0  0  0  0  0  0
   -2.7532   -2.5046    0.7444 C   0  0  0  0  0  0  0  0  0  0  0  0
   -1.9803   -2.8096    1.6434 O   0  0  0  0  0  0  0  0  0  0  0  0
   -2.5332   -1.4966   -0.0966 N   0  0  0  0  0  0  0  0  0  0  0  0
   -3.2312   -1.2816   -0.7936 H   0  0  0  0  0  0  0  0  0  0  0  0
   -1.3593   -0.6196   -0.0536 C   0  0  1  0  0  0  0  0  0  0  0  0
   -0.8788   -0.7266    0.9196 H   0  0  0  0  0  0  0  0  0  0  0  0
   -0.3559   -1.0533   -1.1339 C   0  0  0  0  0  0  0  0  0  0  0  0
   -0.0733   -2.0922   -0.9546 H   0  0  0  0  0  0  0  0  0  0  0  0
   -0.8508   -1.0087   -2.1055 H   0  0  0  0  0  0  0  0  0  0  0  0
    0.8990   -0.2369   -1.2021 C   0  0  0  0  0  0  0  0  0  0  0  0
    1.1968    0.8156   -0.4076 C   0  0  0  0  0  0  0  0  0  0  0  0
    0.5470    1.2073    0.3673 H   0  0  0  0  0  0  0  0  0  0  0  0
    2.4537    1.2938   -0.7223 N   0  0  0  0  0  0  0  0  0  0  0  0
    2.8823    2.0813   -0.2583 H   0  0  0  0  0  0  0  0  0  0  0  0
    3.0390    0.5579   -1.7306 C   0  0  0  0  0  0  0  0  0  0  0  0
    4.2865    0.6273   -2.3672 C   0  0  0  0  0  0  0  0  0  0  0  0
    5.0050    1.3819   -2.0827 H   0  0  0  0  0  0  0  0  0  0  0  0
    4.5879   -0.2977   -3.3814 C   0  0  0  0  0  0  0  0  0  0  0  0
    5.5447   -0.2588   -3.8843 H   0  0  0  0  0  0  0  0  0  0  0  0
    3.6399   -1.2709   -3.7468 C   0  0  0  0  0  0  0  0  0  0  0  0
    3.8727   -1.9753   -4.5334 H   0  0  0  0  0  0  0  0  0  0  0  0
    2.3883   -1.3300   -3.1015 C   0  0  0  0  0  0  0  0  0  0  0  0
    1.6641   -2.0741   -3.4011 H   0  0  0  0  0  0  0  0  0  0  0  0
    2.0576   -0.4193   -2.0748 C   0  0  0  0  0  0  0  0  0  0  0  0
   -1.7617    0.8549   -0.2106 C   0  0  0  0  0  0  0  0  0  0  0  0
   -2.5726    1.1871   -1.0741 O   0  0  0  0  0  0  0  0  0  0  0  0
   -1.1941    1.7377    0.6223 N   0  0  0  0  0  0  0  0  0  0  0  0
   -0.4976    1.3916    1.2669 H   0  0  0  0  0  0  0  0  0  0  0  0
   -1.4666    3.1722    0.6095 C   0  0  0  0  0  0  0  0  0  0  0  0
   -2.5439    3.3427    0.6539 H   0  0  0  0  0  0  0  0  0  0  0  0
   -0.9893    3.6529    1.4644 H   0  0  0  0  0  0  0  0  0  0  0  0
   -1.0808    3.6095   -0.3129 H   0  0  0  0  0  0  0  0  0  0  0  0
  5  6  2  0  0  0  0
  5  7  1  0  0  0  0
  2  3  1  0  0  0  0
  2  4  1  0  0  0  0
  2  5  1  0  0  0  0
  1  2  1  0  0  0  0
 29 30  2  0  0  0  0
 29 31  1  0  0  0  0
 26 27  1  0  0  0  0
 26 28  2  0  0  0  0
 24 25  1  0  0  0  0
 24 26  1  0  0  0  0
 22 23  1  0  0  0  0
 22 24  2  0  0  0  0
 20 21  1  0  0  0  0
 20 22  1  0  0  0  0
 19 20  2  0  0  0  0
 19 28  1  0  0  0  0
 17 18  1  0  0  0  0
 17 19  1  0  0  0  0
 15 16  1  0  0  0  0
 15 17  1  0  0  0  0
 14 15  2  0  0  0  0
 14 28  1  0  0  0  0
 11 12  1  0  0  0  0
 11 13  1  0  0  0  0
 11 14  1  0  0  0  0
  9 10  1  0  0  0  0
  9 11  1  0  0  0  0
  9 29  1  0  0  0  0
  7  8  1  0  0  0  0
  7  9  1  0  0  0  0
 33 34  1  0  0  0  0
 33 35  1  0  0  0  0
 33 36  1  0  0  0  0
 31 32  1  0  0  0  0
 31 33  1  0  0  0  0
M  END
$$$$
default_name
  -OEChem-02102213163D

 36 37  0     1  0  0  0  0  0999 V2000
   -4.0843   -4.0736    1.2944 H   0  0  0  0  0  0  0  0  0  0  0  0
   -4.0342   -3.2816    0.5484 C   0  0  0  0  0  0  0  0  0  0  0  0
   -4.8842   -2.6126    0.6694 H   0  0  0  0  0  0  0  0  0  0  0  0
   -4.0433   -3.7186   -0.4486 H   0  0  0  0  0  0  0  0  0  0  0  0
   -2.7532   -2.5046    0.7444 C   0  0  0  0  0  0  0  0  0  0  0  0
   -1.9803   -2.8096    1.6434 O   0  0  0  0  0  0  0  0  0  0  0  0
   -2.5332   -1.4966   -0.0966 N   0  0  0  0  0  0  0  0  0  0  0  0
   -3.2312   -1.2816   -0.7936 H   0  0  0  0  0  0  0  0  0  0  0  0
   -1.3593   -0.6196   -0.0536 C   0  0  1  0  0  0  0  0  0  0  0  0
   -0.8788   -0.7266    0.9196 H   0  0  0  0  0  0  0  0  0  0  0  0
   -0.3559   -1.0533   -1.1339 C   0  0  0  0  0  0  0  0  0  0  0  0
   -0.0733   -2.0922   -0.9546 H   0  0  0  0  0  0  0  0  0  0  0  0
   -0.8508   -1.0087   -2.1055 H   0  0  0  0  0  0  0  0  0  0  0  0
    0.8990   -0.2369   -1.2021 C   0  0  0  0  0  0  0  0  0  0  0  0
    1.3335    0.6187   -0.2498 C   0  0  0  0  0  0  0  0  0  0  0  0
    0.8093    0.8299    0.6758 H   0  0  0  0  0  0  0  0  0  0  0  0
    2.5467    1.1586   -0.6294 N   0  0  0  0  0  0  0  0  0  0  0  0
    3.0574    1.8279   -0.0722 H   0  0  0  0  0  0  0  0  0  0  0  0
    2.9651    0.6619   -1.8456 C   0  0  0  0  0  0  0  0  0  0  0  0
    4.1129    0.8727   -2.6231 C   0  0  0  0  0  0  0  0  0  0  0  0
    4.8844    1.5501   -2.2876 H   0  0  0  0  0  0  0  0  0  0  0  0
    4.2442    0.1918   -3.8454 C   0  0  0  0  0  0  0  0  0  0  0  0
    5.1221    0.3427   -4.4589 H   0  0  0  0  0  0  0  0  0  0  0  0
    3.2282   -0.6822   -4.2735 C   0  0  0  0  0  0  0  0  0  0  0  0
    3.3295   -1.1977   -5.2186 H   0  0  0  0  0  0  0  0  0  0  0  0
    2.0779   -0.8849   -3.4849 C   0  0  0  0  0  0  0  0  0  0  0  0
    1.2989   -1.5488   -3.8318 H   0  0  0  0  0  0  0  0  0  0  0  0
    1.9189   -0.2207   -2.2494 C   0  0  0  0  0  0  0  0  0  0  0  0
   -1.7617    0.8549   -0.2106 C   0  0  0  0  0  0  0  0  0  0  0  0
   -2.5726    1.1871   -1.0741 O   0  0  0  0  0  0  0  0  0  0  0  0
   -1.1941    1.7377    0.6223 N   0  0  0  0  0  0  0  0  0  0  0  0
   -0.4976    1.3916    1.2669 H   0  0  0  0  0  0  0  0  0  0  0  0
   -1.4666    3.1722    0.6095 C   0  0  0  0  0  0  0  0  0  0  0  0
   -2.5439    3.3427    0.6539 H   0  0  0  0  0  0  0  0  0  0  0  0
   -0.9893    3.6529    1.4644 H   0  0  0  0  0  0  0  0  0  0  0  0
   -1.0808    3.6095   -0.3129 H   0  0  0  0  0  0  0  0  0  0  0  0
  5  6  2  0  0  0  0
  5  7  1  0  0  0  0
  2  3  1  0  0  0  0
  2  4  1  0  0  0  0
  2  5  1  0  0  0  0
  1  2  1  0  0  0  0
 29 30  2  0  0  0  0
 29 31  1  0  0  0  0
 26 27  1  0  0  0  0
 26 28  2  0  0  0  0
 24 25  1  0  0  0  0
 24 26  1  0  0  0  0
 22 23  1  0  0  0  0
 22 24  2  0  0  0  0
 20 21  1  0  0  0  0
 20 22  1  0  0  0  0
 19 20  2  0  0  0  0
 19 28  1  0  0  0  0
 17 18  1  0  0  0  0
 17 19  1  0  0  0  0
 15 16  1  0  0  0  0
 15 17  1  0  0  0  0
 14 15  2  0  0  0  0
 14 28  1  0  0  0  0
 11 12  1  0  0  0  0
 11 13  1  0  0  0  0
 11 14  1  0  0  0  0
  9 10  1  0  0  0  0
  9 11  1  0  0  0  0
  9 29  1  0  0  0  0
  7  8  1  0  0  0  0
  7  9  1  0  0  0  0
 33 34  1  0  0  0  0
 33 35  1  0  0  0  0
 33 36  1  0  0  0  0
 31 32  1  0  0  0  0
 31 33  1  0  0  0  0
M  END
$$$$
default_name
  -OEChem-02102213163D

 36 37  0     1  0  0  0  0  0999 V2000
   -4.0843   -4.0736    1.2944 H   0  0  0  0  0  0  0  0  0  0  0  0
   -4.0342   -3.2816    0.5484 C   0  0  0  0  0  0  0  0  0  0  0  0
   -4.8842   -2.6126    0.6694 H   0  0  0  0  0  0  0  0  0  0  0  0
   -4.0433   -3.7186   -0.4486 H   0  0  0  0  0  0  0  0  0  0  0  0
   -2.7532   -2.5046    0.7444 C   0  0  0  0  0  0  0  0  0  0  0  0
   -1.9803   -2.8096    1.6434 O   0  0  0  0  0  0  0  0  0  0  0  0
   -2.5332   -1.4966   -0.0966 N   0  0  0  0  0  0  0  0  0  0  0  0
   -3.2312   -1.2816   -0.7936 H   0  0  0  0  0  0  0  0  0  0  0  0
   -1.3593   -0.6196   -0.0536 C   0  0  1  0  0  0  0  0  0  0  0  0
   -0.8788   -0.7266    0.9196 H   0  0  0  0  0  0  0  0  0  0  0  0
   -0.3559   -1.0533   -1.1339 C   0  0  0  0  0  0  0  0  0  0  0  0
   -0.0733   -2.0922   -0.9546 H   0  0  0  0  0  0  0  0  0  0  0  0
   -0.8508   -1.0087   -2.1055 H   0  0  0  0  0  0  0  0  0  0  0  0
    0.8990   -0.2369   -1.2021 C   0  0  0  0  0  0  0  0  0  0  0  0
    1.4855    0.3926   -0.1593 C   0  0  0  0  0  0  0  0  0  0  0  0
    1.1017    0.3955    0.8550 H   0  0  0  0  0  0  0  0  0  0  0  0
    2.6481    1.0068   -0.5821 N   0  0  0  0  0  0  0  0  0  0  0  0
    3.2497    1.5407    0.0280 H   0  0  0  0  0  0  0  0  0  0  0  0
    2.8787    0.7882   -1.9237 C   0  0  0  0  0  0  0  0  0  0  0  0
    3.9120    1.1674   -2.7925 C   0  0  0  0  0  0  0  0  0  0  0  0
    4.7410    1.7584   -2.4321 H   0  0  0  0  0  0  0  0  0  0  0  0
    3.8526    0.7692   -4.1390 C   0  0  0  0  0  0  0  0  0  0  0  0
    4.6400    1.0532   -4.8240 H   0  0  0  0  0  0  0  0  0  0  0  0
    2.7633    0.0055   -4.5967 C   0  0  0  0  0  0  0  0  0  0  0  0
    2.7174   -0.2917   -5.6353 H   0  0  0  0  0  0  0  0  0  0  0  0
    1.7293   -0.3683   -3.7149 C   0  0  0  0  0  0  0  0  0  0  0  0
    0.8916   -0.9438   -4.0825 H   0  0  0  0  0  0  0  0  0  0  0  0
    1.7627    0.0106   -2.3554 C   0  0  0  0  0  0  0  0  0  0  0  0
   -1.7617    0.8549   -0.2106 C   0  0  0  0  0  0  0  0  0  0  0  0
   -2.5726    1.1871   -1.0741 O   0  0  0  0  0  0  0  0  0  0  0  0
   -1.1941    1.7377    0.6223 N   0  0  0  0  0  0  0  0  0  0  0  0
   -0.4976    1.3916    1.2669 H   0  0  0  0  0  0  0  0  0  0  0  0
   -1.4666    3.1722    0.6095 C   0  0  0  0  0  0  0  0  0  0  0  0
   -2.5439    3.3427    0.6539 H   0  0  0  0  0  0  0  0  0  0  0  0
   -0.9893    3.6529    1.4644 H   0  0  0  0  0  0  0  0  0  0  0  0
   -1.0808    3.6095   -0.3129 H   0  0  0  0  0  0  0  0  0  0  0  0
  5  6  2  0  0  0  0
  5  7  1  0  0  0  0
  2  3  1  0  0  0  0
  2  4  1  0  0  0  0
  2  5  1  0  0  0  0
  1  2  1  0  0  0  0
 29 30  2  0  0  0  0
 29 31  1  0  0  0  0
 26 27  1  0  0  0  0
 26 28  2  0  0  0  0
 24 25  1  0  0  0  0
 24 26  1  0  0  0  0
 22 23  1  0  0  0  0
 22 24  2  0  0  0  0
 20 21  1  0  0  0  0
 20 22  1  0  0  0  0
 19 20  2  0  0  0  0
 19 28  1  0  0  0  0
 17 18  1  0  0  0  0
 17 19  1  0  0  0  0
 15 16  1  0  0  0  0
 15 17  1  0  0  0  0
 14 15  2  0  0  0  0
 14 28  1  0  0  0  0
 11 12  1  0  0  0  0
 11 13  1  0  0  0  0
 11 14  1  0  0  0  0
  9 10  1  0  0  0  0
  9 11  1  0  0  0  0
  9 29  1  0  0  0  0
  7  8  1  0  0  0  0
  7  9  1  0  0  0  0
 33 34  1  0  0  0  0
 33 35  1  0  0  0  0
 33 36  1  0  0  0  0
 31 32  1  0  0  0  0
 31 33  1  0  0  0  0
M  END
$$$$
default_name
  -OEChem-02102213163D

 36 37  0     1  0  0  0  0  0999 V2000
   -4.0843   -4.0736    1.2944 H   0  0  0  0  0  0  0  0  0  0  0  0
   -4.0342   -3.2816    0.5484 C   0  0  0  0  0  0  0  0  0  0  0  0
   -4.8842   -2.6126    0.6694 H   0  0  0  0  0  0  0  0  0  0  0  0
   -4.0433   -3.7186   -0.4486 H   0  0  0  0  0  0  0  0  0  0  0  0
   -2.7532   -2.5046    0.7444 C   0  0  0  0  0  0  0  0  0  0  0  0
   -1.9803   -2.8096    1.6434 O   0  0  0  0  0  0  0  0  0  0  0  0
   -2.5332   -1.4966   -0.0966 N   0  0  0  0  0  0  0  0  0  0  0  0
   -3.2312   -1.2816   -0.7936 H   0  0  0  0  0  0  0  0  0  0  0  0
   -1.3593   -0.6196   -0.0536 C   0  0  1  0  0  0  0  0  0  0  0  0
   -0.8788   -0.7266    0.9196 H   0  0  0  0  0  0  0  0  0  0  0  0
   -0.3559   -1.0533   -1.1339 C   0  0  0  0  0  0  0  0  0  0  0  0
   -0.0733   -2.0922   -0.9546 H   0  0  0  0  0  0  0  0  0  0  0  0
   -0.8508   -1.0087   -2.1055 H   0  0  0  0  0  0  0  0  0  0  0  0
    0.8990   -0.2369   -1.2021 C   0  0  0  0  0  0  0  0  0  0  0  0
    1.6424    0.1529   -0.1424 C   0  0  0  0  0  0  0  0  0  0  0  0
    1.4043   -0.0665    0.8927 H   0  0  0  0  0  0  0  0  0  0  0  0
    2.7509    0.8487   -0.5836 N   0  0  0  0  0  0  0  0  0  0  0  0
    3.4462    1.2393    0.0354 H   0  0  0  0  0  0  0  0  0  0  0  0
    2.7857    0.9280   -1.9596 C   0  0  0  0  0  0  0  0  0  0  0  0
    3.6975    1.4911   -2.8641 C   0  0  0  0  0  0  0  0  0  0  0  0
    4.5846    1.9927   -2.5062 H   0  0  0  0  0  0  0  0  0  0  0  0
    3.4397    1.3951   -4.2422 C   0  0  0  0  0  0  0  0  0  0  0  0
    4.1311    1.8244   -4.9547 H   0  0  0  0  0  0  0  0  0  0  0  0
    2.2767    0.7452   -4.6942 C   0  0  0  0  0  0  0  0  0  0  0  0
    2.0781    0.6810   -5.7551 H   0  0  0  0  0  0  0  0  0  0  0  0
    1.3662    0.1846   -3.7760 C   0  0  0  0  0  0  0  0  0  0  0  0
    0.4699   -0.3002   -4.1361 H   0  0  0  0  0  0  0  0  0  0  0  0
    1.5995    0.2588   -2.3857 C   0  0  0  0  0  0  0  0  0  0  0  0
   -1.7617    0.8549   -0.2106 C   0  0  0  0  0  0  0  0  0  0  0  0
   -2.5726    1.1871   -1.0741 O   0  0  0  0  0  0  0  0  0  0  0  0
   -1.1941    1.7377    0.6223 N   0  0  0  0  0  0  0  0  0  0  0  0
   -0.4976    1.3916    1.2669 H   0  0  0  0  0  0  0  0  0  0  0  0
   -1.4666    3.1722    0.6095 C   0  0  0  0  0  0  0  0  0  0  0  0
   -2.5439    3.3427    0.6539 H   0  0  0  0  0  0  0  0  0  0  0  0
   -0.9893    3.6529    1.4644 H   0  0  0  0  0  0  0  0  0  0  0  0
   -1.0808    3.6095   -0.3129 H   0  0  0  0  0  0  0  0  0  0  0  0
  5  6  2  0  0  0  0
  5  7  1  0  0  0  0
  2  3  1  0  0  0  0
  2  4  1  0  0  0  0
  2  5  1  0  0  0  0
  1  2  1  0  0  0  0
 29 30  2  0  0  0  0
 29 31  1  0  0  0  0
 26 27  1  0  0  0  0
 26 28  2  0  0  0  0
 24 25  1  0  0  0  0
 24 26  1  0  0  0  0
 22 23  1  0  0  0  0
 22 24  2  0  0  0  0
 20 21  1  0  0  0  0
 20 22  1  0  0  0  0
 19 20  2  0  0  0  0
 19 28  1  0  0  0  0
 17 18  1  0  0  0  0
 17 19  1  0  0  0  0
 15 16  1  0  0  0  0
 15 17  1  0  0  0  0
 14 15  2  0  0  0  0
 14 28  1  0  0  0  0
 11 12  1  0  0  0  0
 11 13  1  0  0  0  0
 11 14  1  0  0  0  0
  9 10  1  0  0  0  0
  9 11  1  0  0  0  0
  9 29  1  0  0  0  0
  7  8  1  0  0  0  0
  7  9  1  0  0  0  0
 33 34  1  0  0  0  0
 33 35  1  0  0  0  0
 33 36  1  0  0  0  0
 31 32  1  0  0  0  0
 31 33  1  0  0  0  0
M  END
$$$$
default_name
  -OEChem-02102213163D

 36 37  0     1  0  0  0  0  0999 V2000
   -4.0843   -4.0736    1.2944 H   0  0  0  0  0  0  0  0  0  0  0  0
   -4.0342   -3.2816    0.5484 C   0  0  0  0  0  0  0  0  0  0  0  0
   -4.8842   -2.6126    0.6694 H   0  0  0  0  0  0  0  0  0  0  0  0
   -4.0433   -3.7186   -0.4486 H   0  0  0  0  0  0  0  0  0  0  0  0
   -2.7532   -2.5046    0.7444 C   0  0  0  0  0  0  0  0  0  0  0  0
   -1.9803   -2.8096    1.6434 O   0  0  0  0  0  0  0  0  0  0  0  0
   -2.5332   -1.4966   -0.0966 N   0  0  0  0  0  0  0  0  0  0  0  0
   -3.2312   -1.2816   -0.7936 H   0  0  0  0  0  0  0  0  0  0  0  0
   -1.3593   -0.6196   -0.0536 C   0  0  1  0  0  0  0  0  0  0  0  0
   -0.8788   -0.7266    0.9196 H   0  0  0  0  0  0  0  0  0  0  0  0
   -0.3559   -1.0533   -1.1339 C   0  0  0  0  0  0  0  0  0  0  0  0
   -0.0733   -2.0922   -0.9546 H   0  0  0  0  0  0  0  0  0  0  0  0
   -0.8508   -1.0087   -2.1055 H   0  0  0  0  0  0  0  0  0  0  0  0
    0.8990   -0.2369   -1.2021 C   0  0  0  0  0  0  0  0  0  0  0  0
    1.7936   -0.0842   -0.2001 C   0  0  0  0  0  0  0  0  0  0  0  0
    1.6965   -0.5244    0.7863 H   0  0  0  0  0  0  0  0  0  0  0  0
    2.8481    0.6951   -0.6339 N   0  0  0  0  0  0  0  0  0  0  0  0
    3.6334    0.9443   -0.0505 H   0  0  0  0  0  0  0  0  0  0  0  0
    2.6925    1.0720   -1.9509 C   0  0  0  0  0  0  0  0  0  0  0  0
    3.4840    1.8218   -2.8328 C   0  0  0  0  0  0  0  0  0  0  0  0
    4.4258    2.2368   -2.5051 H   0  0  0  0  0  0  0  0  0  0  0  0
    3.0337    2.0270   -4.1481 C   0  0  0  0  0  0  0  0  0  0  0  0
    3.6303    2.6036   -4.8420 H   0  0  0  0  0  0  0  0  0  0  0  0
    1.8016    1.4866   -4.5595 C   0  0  0  0  0  0  0  0  0  0  0  0
    1.4551    1.6540   -5.5699 H   0  0  0  0  0  0  0  0  0  0  0  0
    1.0134    0.7363   -3.6640 C   0  0  0  0  0  0  0  0  0  0  0  0
    0.0627    0.3381   -3.9890 H   0  0  0  0  0  0  0  0  0  0  0  0
    1.4406    0.5071   -2.3381 C   0  0  0  0  0  0  0  0  0  0  0  0
   -1.7617    0.8549   -0.2106 C   0  0  0  0  0  0  0  0  0  0  0  0
   -2.5726    1.1871   -1.0741 O   0  0  0  0  0  0  0  0  0  0  0  0
   -1.1941    1.7377    0.6223 N   0  0  0  0  0  0  0  0  0  0  0  0
   -0.4976    1.3916    1.2669 H   0  0  0  0  0  0  0  0  0  0  0  0
   -1.4666    3.1722    0.6095 C   0  0  0  0  0  0  0  0  0  0  0  0
   -2.5439    3.3427    0.6539 H   0  0  0  0  0  0  0  0  0  0  0  0
   -0.9893    3.6529    1.4644 H   0  0  0  0  0  0  0  0  0  0  0  0
   -1.0808    3.6095   -0.3129 H   0  0  0  0  0  0  0  0  0  0  0  0
  5  6  2  0  0  0  0
  5  7  1  0  0  0  0
  2  3  1  0  0  0  0
  2  4  1  0  0  0  0
  2  5  1  0  0  0  0
  1  2  1  0  0  0  0
 29 30  2  0  0  0  0
 29 31  1  0  0  0  0
 26 27  1  0  0  0  0
 26 28  2  0  0  0  0
 24 25  1  0  0  0  0
 24 26  1  0  0  0  0
 22 23  1  0  0  0  0
 22 24  2  0  0  0  0
 20 21  1  0  0  0  0
 20 22  1  0  0  0  0
 19 20  2  0  0  0  0
 19 28  1  0  0  0  0
 17 18  1  0  0  0  0
 17 19  1  0  0  0  0
 15 16  1  0  0  0  0
 15 17  1  0  0  0  0
 14 15  2  0  0  0  0
 14 28  1  0  0  0  0
 11 12  1  0  0  0  0
 11 13  1  0  0  0  0
 11 14  1  0  0  0  0
  9 10  1  0  0  0  0
  9 11  1  0  0  0  0
  9 29  1  0  0  0  0
  7  8  1  0  0  0  0
  7  9  1  0  0  0  0
 33 34  1  0  0  0  0
 33 35  1  0  0  0  0
 33 36  1  0  0  0  0
 31 32  1  0  0  0  0
 31 33  1  0  0  0  0
M  END
$$$$
default_name
  -OEChem-02102213163D

 36 37  0     1  0  0  0  0  0999 V2000
   -4.0843   -4.0736    1.2944 H   0  0  0  0  0  0  0  0  0  0  0  0
   -4.0342   -3.2816    0.5484 C   0  0  0  0  0  0  0  0  0  0  0  0
   -4.8842   -2.6126    0.6694 H   0  0  0  0  0  0  0  0  0  0  0  0
   -4.0433   -3.7186   -0.4486 H   0  0  0  0  0  0  0  0  0  0  0  0
   -2.7532   -2.5046    0.7444 C   0  0  0  0  0  0  0  0  0  0  0  0
   -1.9803   -2.8096    1.6434 O   0  0  0  0  0  0  0  0  0  0  0  0
   -2.5332   -1.4966   -0.0966 N   0  0  0  0  0  0  0  0  0  0  0  0
   -3.2312   -1.2816   -0.7936 H   0  0  0  0  0  0  0  0  0  0  0  0
   -1.3593   -0.6196   -0.0536 C   0  0  1  0  0  0  0  0  0  0  0  0
   -0.8788   -0.7266    0.9196 H   0  0  0  0  0  0  0  0  0  0  0  0
   -0.3559   -1.0533   -1.1339 C   0  0  0  0  0  0  0  0  0  0  0  0
   -0.0733   -2.0922   -0.9546 H   0  0  0  0  0  0  0  0  0  0  0  0
   -0.8508   -1.0087   -2.1055 H   0  0  0  0  0  0  0  0  0  0  0  0
    0.8990   -0.2369   -1.2021 C   0  0  0  0  0  0  0  0  0  0  0  0
    1.9286   -0.3025   -0.3285 C   0  0  0  0  0  0  0  0  0  0  0  0
    1.9583   -0.9471    0.5432 H   0  0  0  0  0  0  0  0  0  0  0  0
    2.9331    0.5564   -0.7294 N   0  0  0  0  0  0  0  0  0  0  0  0
    3.7988    0.6757   -0.2238 H   0  0  0  0  0  0  0  0  0  0  0  0
    2.6054    1.2103   -1.8981 C   0  0  0  0  0  0  0  0  0  0  0  0
    3.2861    2.1369   -2.7008 C   0  0  0  0  0  0  0  0  0  0  0  0
    4.2755    2.4743   -2.4286 H   0  0  0  0  0  0  0  0  0  0  0  0
    2.6623    2.6217   -3.8630 C   0  0  0  0  0  0  0  0  0  0  0  0
    3.1716    3.3377   -4.4938 H   0  0  0  0  0  0  0  0  0  0  0  0
    1.3705    2.1791   -4.2017 C   0  0  0  0  0  0  0  0  0  0  0  0
    0.8909    2.5610   -5.0924 H   0  0  0  0  0  0  0  0  0  0  0  0
    0.6949    1.2490   -3.3865 C   0  0  0  0  0  0  0  0  0  0  0  0
   -0.3024    0.9275   -3.6511 H   0  0  0  0  0  0  0  0  0  0  0  0
    1.2967    0.7384   -2.2159 C   0  0  0  0  0  0  0  0  0  0  0  0
   -1.7617    0.8549   -0.2106 C   0  0  0  0  0  0  0  0  0  0  0  0
   -2.5726    1.1871   -1.0741 O   0  0  0  0  0  0  0  0  0  0  0  0
   -1.1941    1.7377    0.6223 N   0  0  0  0  0  0  0  0  0  0  0  0
   -0.4976    1.3916    1.2669 H   0  0  0  0  0  0  0  0  0  0  0  0
   -1.4666    3.1722    0.6095 C   0  0  0  0  0  0  0  0  0  0  0  0
   -2.5439    3.3427    0.6539 H   0  0  0  0  0  0  0  0  0  0  0  0
   -0.9893    3.6529    1.4644 H   0  0  0  0  0  0  0  0  0  0  0  0
   -1.0808    3.6095   -0.3129 H   0  0  0  0  0  0  0  0  0  0  0  0
  5  6  2  0  0  0  0
  5  7  1  0  0  0  0
  2  3  1  0  0  0  0
  2  4  1  0  0  0  0
  2  5  1  0  0  0  0
  1  2  1  0  0  0  0
 29 30  2  0  0  0  0
 29 31  1  0  0  0  0
 26 27  1  0  0  0  0
 26 28  2  0  0  0  0
 24 25  1  0  0  0  0
 24 26  1  0  0  0  0
 22 23  1  0  0  0  0
 22 24  2  0  0  0  0
 20 21  1  0  0  0  0
 20 22  1  0  0  0  0
 19 20  2  0  0  0  0
 19 28  1  0  0  0  0
 17 18  1  0  0  0  0
 17 19  1  0  0  0  0
 15 16  1  0  0  0  0
 15 17  1  0  0  0  0
 14 15  2  0  0  0  0
 14 28  1  0  0  0  0
 11 12  1  0  0  0  0
 11 13  1  0  0  0  0
 11 14  1  0  0  0  0
  9 10  1  0  0  0  0
  9 11  1  0  0  0  0
  9 29  1  0  0  0  0
  7  8  1  0  0  0  0
  7  9  1  0  0  0  0
 33 34  1  0  0  0  0
 33 35  1  0  0  0  0
 33 36  1  0  0  0  0
 31 32  1  0  0  0  0
 31 33  1  0  0  0  0
M  END
$$$$
default_name
  -OEChem-02102213163D

 36 37  0     1  0  0  0  0  0999 V2000
   -4.0843   -4.0736    1.2944 H   0  0  0  0  0  0  0  0  0  0  0  0
   -4.0342   -3.2816    0.5484 C   0  0  0  0  0  0  0  0  0  0  0  0
   -4.8842   -2.6126    0.6694 H   0  0  0  0  0  0  0  0  0  0  0  0
   -4.0433   -3.7186   -0.4486 H   0  0  0  0  0  0  0  0  0  0  0  0
   -2.7532   -2.5046    0.7444 C   0  0  0  0  0  0  0  0  0  0  0  0
   -1.9803   -2.8096    1.6434 O   0  0  0  0  0  0  0  0  0  0  0  0
   -2.5332   -1.4966   -0.0966 N   0  0  0  0  0  0  0  0  0  0  0  0
   -3.2312   -1.2816   -0.7936 H   0  0  0  0  0  0  0  0  0  0  0  0
   -1.3593   -0.6196   -0.0536 C   0  0  1  0  0  0  0  0  0  0  0  0
   -0.8788   -0.7266    0.9196 H   0  0  0  0  0  0  0  0  0  0  0  0
   -0.3559   -1.0533   -1.1339 C   0  0  0  0  0  0  0  0  0  0  0  0
   -0.0733   -2.0922   -0.9546 H   0  0  0  0  0  0  0  0  0  0  0  0
   -0.8508   -1.0087   -2.1055 H   0  0  0  0  0  0  0  0  0  0  0  0
    0.8990   -0.2369   -1.2021 C   0  0  0  0  0  0  0  0  0  0  0  0
    2.0384   -0.4872   -0.5189 C   0  0  0  0  0  0  0  0  0  0  0  0
    2.1719   -1.3058    0.1798 H   0  0  0  0  0  0  0  0  0  0  0  0
    3.0001    0.4422   -0.8637 N   0  0  0  0  0  0  0  0  0  0  0  0
    3.9308    0.4519   -0.4727 H   0  0  0  0  0  0  0  0  0  0  0  0
    2.5304    1.3334   -1.8048 C   0  0  0  0  0  0  0  0  0  0  0  0
    3.1173    2.4151   -2.4771 C   0  0  0  0  0  0  0  0  0  0  0  0
    4.1438    2.6888   -2.2821 H   0  0  0  0  0  0  0  0  0  0  0  0
    2.3507    3.1388   -3.4064 C   0  0  0  0  0  0  0  0  0  0  0  0
    2.7863    3.9767   -3.9336 H   0  0  0  0  0  0  0  0  0  0  0  0
    1.0127    2.7756   -3.6453 C   0  0  0  0  0  0  0  0  0  0  0  0
    0.4240    3.3403   -4.3549 H   0  0  0  0  0  0  0  0  0  0  0  0
    0.4324    1.6879   -2.9624 C   0  0  0  0  0  0  0  0  0  0  0  0
   -0.6005    1.4279   -3.1455 H   0  0  0  0  0  0  0  0  0  0  0  0
    1.1777    0.9371   -2.0275 C   0  0  0  0  0  0  0  0  0  0  0  0
   -1.7617    0.8549   -0.2106 C   0  0  0  0  0  0  0  0  0  0  0  0
   -2.5726    1.1871   -1.0741 O   0  0  0  0  0  0  0  0  0  0  0  0
   -1.1941    1.7377    0.6223 N   0  0  0  0  0  0  0  0  0  0  0  0
   -0.4976    1.3916    1.2669 H   0  0  0  0  0  0  0  0  0  0  0  0
   -1.4666    3.1722    0.6095 C   0  0  0  0  0  0  0  0  0  0  0  0
   -2.5439    3.3427    0.6539 H   0  0  0  0  0  0  0  0  0  0  0  0
   -0.9893    3.6529    1.4644 H   0  0  0  0  0  0  0  0  0  0  0  0
   -1.0808    3.6095   -0.3129 H   0  0  0  0  0  0  0  0  0  0  0  0
  5  6  2  0  0  0  0
  5  7  1  0  0  0  0
  2  3  1  0  0  0  0
  2  4  1  0  0  0  0
  2  5  1  0  0  0  0
  1  2  1  0  0  0  0
 29 30  2  0  0  0  0
 29 31  1  0  0  0  0
 26 27  1  0  0  0  0
 26 28  2  0  0  0  0
 24 25  1  0  0  0  0
 24 26  1  0  0  0  0
 22 23  1  0  0  0  0
 22 24  2  0  0  0  0
 20 21  1  0  0  0  0
 20 22  1  0  0  0  0
 19 20  2  0  0  0  0
 19 28  1  0  0  0  0
 17 18  1  0  0  0  0
 17 19  1  0  0  0  0
 15 16  1  0  0  0  0
 15 17  1  0  0  0  0
 14 15  2  0  0  0  0
 14 28  1  0  0  0  0
 11 12  1  0  0  0  0
 11 13  1  0  0  0  0
 11 14  1  0  0  0  0
  9 10  1  0  0  0  0
  9 11  1  0  0  0  0
  9 29  1  0  0  0  0
  7  8  1  0  0  0  0
  7  9  1  0  0  0  0
 33 34  1  0  0  0  0
 33 35  1  0  0  0  0
 33 36  1  0  0  0  0
 31 32  1  0  0  0  0
 31 33  1  0  0  0  0
M  END
$$$$
default_name
  -OEChem-02102213163D

 36 37  0     1  0  0  0  0  0999 V2000
   -4.0843   -4.0736    1.2944 H   0  0  0  0  0  0  0  0  0  0  0  0
   -4.0342   -3.2816    0.5484 C   0  0  0  0  0  0  0  0  0  0  0  0
   -4.8842   -2.6126    0.6694 H   0  0  0  0  0  0  0  0  0  0  0  0
   -4.0433   -3.7186   -0.4486 H   0  0  0  0  0  0  0  0  0  0  0  0
   -2.7532   -2.5046    0.7444 C   0  0  0  0  0  0  0  0  0  0  0  0
   -1.9803   -2.8096    1.6434 O   0  0  0  0  0  0  0  0  0  0  0  0
   -2.5332   -1.4966   -0.0966 N   0  0  0  0  0  0  0  0  0  0  0  0
   -3.2312   -1.2816   -0.7936 H   0  0  0  0  0  0  0  0  0  0  0  0
   -1.3593   -0.6196   -0.0536 C   0  0  1  0  0  0  0  0  0  0  0  0
   -0.8788   -0.7266    0.9196 H   0  0  0  0  0  0  0  0  0  0  0  0
   -0.3559   -1.0533   -1.1339 C   0  0  0  0  0  0  0  0  0  0  0  0
   -0.0733   -2.0922   -0.9546 H   0  0  0  0  0  0  0  0  0  0  0  0
   -0.8508   -1.0087   -2.1055 H   0  0  0  0  0  0  0  0  0  0  0  0
    0.8990   -0.2369   -1.2021 C   0  0  0  0  0  0  0  0  0  0  0  0
    2.1154   -0.6255   -0.7583 C   0  0  0  0  0  0  0  0  0  0  0  0
    2.3228   -1.5761   -0.2791 H   0  0  0  0  0  0  0  0  0  0  0  0
    3.0446    0.3602   -1.0276 N   0  0  0  0  0  0  0  0  0  0  0  0
    4.0207    0.2881   -0.7803 H   0  0  0  0  0  0  0  0  0  0  0  0
    2.4725    1.4331   -1.6775 C   0  0  0  0  0  0  0  0  0  0  0  0
    2.9891    2.6372   -2.1769 C   0  0  0  0  0  0  0  0  0  0  0  0
    4.0399    2.8659   -2.0756 H   0  0  0  0  0  0  0  0  0  0  0  0
    2.1202    3.5429   -2.8093 C   0  0  0  0  0  0  0  0  0  0  0  0
    2.5007    4.4771   -3.1997 H   0  0  0  0  0  0  0  0  0  0  0  0
    0.7525    3.2354   -2.9281 C   0  0  0  0  0  0  0  0  0  0  0  0
    0.0861    3.9388   -3.4079 H   0  0  0  0  0  0  0  0  0  0  0  0
    0.2439    2.0229   -2.4206 C   0  0  0  0  0  0  0  0  0  0  0  0
   -0.8112    1.8051   -2.5067 H   0  0  0  0  0  0  0  0  0  0  0  0
    1.0916    1.0896   -1.7857 C   0  0  0  0  0  0  0  0  0  0  0  0
   -1.7617    0.8549   -0.2106 C   0  0  0  0  0  0  0  0  0  0  0  0
   -2.5726    1.1871   -1.0741 O   0  0  0  0  0  0  0  0  0  0  0  0
   -1.1941    1.7377    0.6223 N   0  0  0  0  0  0  0  0  0  0  0  0
   -0.4976    1.3916    1.2669 H   0  0  0  0  0  0  0  0  0  0  0  0
   -1.4666    3.1722    0.6095 C   0  0  0  0  0  0  0  0  0  0  0  0
   -2.5439    3.3427    0.6539 H   0  0  0  0  0  0  0  0  0  0  0  0
   -0.9893    3.6529    1.4644 H   0  0  0  0  0  0  0  0  0  0  0  0
   -1.0808    3.6095   -0.3129 H   0  0  0  0  0  0  0  0  0  0  0  0
  5  6  2  0  0  0  0
  5  7  1  0  0  0  0
  2  3  1  0  0  0  0
  2  4  1  0  0  0  0
  2  5  1  0  0  0  0
  1  2  1  0  0  0  0
 29 30  2  0  0  0  0
 29 31  1  0  0  0  0
 26 27  1  0  0  0  0
 26 28  2  0  0  0  0
 24 25  1  0  0  0  0
 24 26  1  0  0  0  0
 22 23  1  0  0  0  0
 22 24  2  0  0  0  0
 20 21  1  0  0  0  0
 20 22  1  0  0  0  0
 19 20  2  0  0  0  0
 19 28  1  0  0  0  0
 17 18  1  0  0  0  0
 17 19  1  0  0  0  0
 15 16  1  0  0  0  0
 15 17  1  0  0  0  0
 14 15  2  0  0  0  0
 14 28  1  0  0  0  0
 11 12  1  0  0  0  0
 11 13  1  0  0  0  0
 11 14  1  0  0  0  0
  9 10  1  0  0  0  0
  9 11  1  0  0  0  0
  9 29  1  0  0  0  0
  7  8  1  0  0  0  0
  7  9  1  0  0  0  0
 33 34  1  0  0  0  0
 33 35  1  0  0  0  0
 33 36  1  0  0  0  0
 31 32  1  0  0  0  0
 31 33  1  0  0  0  0
M  END
$$$$
default_name
  -OEChem-02102213163D

 36 37  0     1  0  0  0  0  0999 V2000
   -4.0843   -4.0736    1.2944 H   0  0  0  0  0  0  0  0  0  0  0  0
   -4.0342   -3.2816    0.5484 C   0  0  0  0  0  0  0  0  0  0  0  0
   -4.8842   -2.6126    0.6694 H   0  0  0  0  0  0  0  0  0  0  0  0
   -4.0433   -3.7186   -0.4486 H   0  0  0  0  0  0  0  0  0  0  0  0
   -2.7532   -2.5046    0.7444 C   0  0  0  0  0  0  0  0  0  0  0  0
   -1.9803   -2.8096    1.6434 O   0  0  0  0  0  0  0  0  0  0  0  0
   -2.5332   -1.4966   -0.0966 N   0  0  0  0  0  0  0  0  0  0  0  0
   -3.2312   -1.2816   -0.7936 H   0  0  0  0  0  0  0  0  0  0  0  0
   -1.3593   -0.6196   -0.0536 C   0  0  1  0  0  0  0  0  0  0  0  0
   -0.8788   -0.7266    0.9196 H   0  0  0  0  0  0  0  0  0  0  0  0
   -0.3559   -1.0533   -1.1339 C   0  0  0  0  0  0  0  0  0  0  0  0
   -0.0733   -2.0922   -0.9546 H   0  0  0  0  0  0  0  0  0  0  0  0
   -0.8508   -1.0087   -2.1055 H   0  0  0  0  0  0  0  0  0  0  0  0
    0.8990   -0.2369   -1.2021 C   0  0  0  0  0  0  0  0  0  0  0  0
    2.1544   -0.7082   -1.0304 C   0  0  0  0  0  0  0  0  0  0  0  0
    2.4006   -1.7395   -0.8022 H   0  0  0  0  0  0  0  0  0  0  0  0
    3.0634    0.3160   -1.2099 N   0  0  0  0  0  0  0  0  0  0  0  0
    4.0622    0.1954   -1.1255 H   0  0  0  0  0  0  0  0  0  0  0  0
    2.4357    1.5024   -1.5248 C   0  0  0  0  0  0  0  0  0  0  0  0
    2.9102    2.7883   -1.8207 C   0  0  0  0  0  0  0  0  0  0  0  0
    3.9706    2.9934   -1.8230 H   0  0  0  0  0  0  0  0  0  0  0  0
    1.9866    3.8066   -2.1125 C   0  0  0  0  0  0  0  0  0  0  0  0
    2.3341    4.8048   -2.3421 H   0  0  0  0  0  0  0  0  0  0  0  0
    0.6078    3.5272   -2.0990 C   0  0  0  0  0  0  0  0  0  0  0  0
   -0.0997    4.3156   -2.3158 H   0  0  0  0  0  0  0  0  0  0  0  0
    0.1421    2.2314   -1.7982 C   0  0  0  0  0  0  0  0  0  0  0  0
   -0.9202    2.0336   -1.7781 H   0  0  0  0  0  0  0  0  0  0  0  0
    1.0444    1.1855   -1.5069 C   0  0  0  0  0  0  0  0  0  0  0  0
   -1.7617    0.8549   -0.2106 C   0  0  0  0  0  0  0  0  0  0  0  0
   -2.5726    1.1871   -1.0741 O   0  0  0  0  0  0  0  0  0  0  0  0
   -1.1941    1.7377    0.6223 N   0  0  0  0  0  0  0  0  0  0  0  0
   -0.4976    1.3916    1.2669 H   0  0  0  0  0  0  0  0  0  0  0  0
   -1.4666    3.1722    0.6095 C   0  0  0  0  0  0  0  0  0  0  0  0
   -2.5439    3.3427    0.6539 H   0  0  0  0  0  0  0  0  0  0  0  0
   -0.9893    3.6529    1.4644 H   0  0  0  0  0  0  0  0  0  0  0  0
   -1.0808    3.6095   -0.3129 H   0  0  0  0  0  0  0  0  0  0  0  0
  5  6  2  0  0  0  0
  5  7  1  0  0  0  0
  2  3  1  0  0  0  0
  2  4  1  0  0  0  0
  2  5  1  0  0  0  0
  1  2  1  0  0  0  0
 29 30  2  0  0  0  0
 29 31  1  0  0  0  0
 26 27  1  0  0  0  0
 26 28  2  0  0  0  0
 24 25  1  0  0  0  0
 24 26  1  0  0  0  0
 22 23  1  0  0  0  0
 22 24  2  0  0  0  0
 20 21  1  0  0  0  0
 20 22  1  0  0  0  0
 19 20  2  0  0  0  0
 19 28  1  0  0  0  0
 17 18  1  0  0  0  0
 17 19  1  0  0  0  0
 15 16  1  0  0  0  0
 15 17  1  0  0  0  0
 14 15  2  0  0  0  0
 14 28  1  0  0  0  0
 11 12  1  0  0  0  0
 11 13  1  0  0  0  0
 11 14  1  0  0  0  0
  9 10  1  0  0  0  0
  9 11  1  0  0  0  0
  9 29  1  0  0  0  0
  7  8  1  0  0  0  0
  7  9  1  0  0  0  0
 33 34  1  0  0  0  0
 33 35  1  0  0  0  0
 33 36  1  0  0  0  0
 31 32  1  0  0  0  0
 31 33  1  0  0  0  0
M  END
$$$$
default_name
  -OEChem-02102213163D

 36 37  0     1  0  0  0  0  0999 V2000
   -4.0843   -4.0736    1.2944 H   0  0  0  0  0  0  0  0  0  0  0  0
   -4.0342   -3.2816    0.5484 C   0  0  0  0  0  0  0  0  0  0  0  0
   -4.8842   -2.6126    0.6694 H   0  0  0  0  0  0  0  0  0  0  0  0
   -4.0433   -3.7186   -0.4486 H   0  0  0  0  0  0  0  0  0  0  0  0
   -2.7532   -2.5046    0.7444 C   0  0  0  0  0  0  0  0  0  0  0  0
   -1.9803   -2.8096    1.6434 O   0  0  0  0  0  0  0  0  0  0  0  0
   -2.5332   -1.4966   -0.0966 N   0  0  0  0  0  0  0  0  0  0  0  0
   -3.2312   -1.2816   -0.7936 H   0  0  0  0  0  0  0  0  0  0  0  0
   -1.3593   -0.6196   -0.0536 C   0  0  1  0  0  0  0  0  0  0  0  0
   -0.8788   -0.7266    0.9196 H   0  0  0  0  0  0  0  0  0  0  0  0
   -0.3559   -1.0533   -1.1339 C   0  0  0  0  0  0  0  0  0  0  0  0
   -0.0733   -2.0922   -0.9546 H   0  0  0  0  0  0  0  0  0  0  0  0
   -0.8508   -1.0087   -2.1055 H   0  0  0  0  0  0  0  0  0  0  0  0
    0.8990   -0.2369   -1.2021 C   0  0  0  0  0  0  0  0  0  0  0  0
    2.1527   -0.7296   -1.3166 C   0  0  0  0  0  0  0  0  0  0  0  0
    2.4001   -1.7848   -1.3539 H   0  0  0  0  0  0  0  0  0  0  0  0
    3.0554    0.3126   -1.3983 N   0  0  0  0  0  0  0  0  0  0  0  0
    4.0525    0.1803   -1.4849 H   0  0  0  0  0  0  0  0  0  0  0  0
    2.4225    1.5367   -1.3570 C   0  0  0  0  0  0  0  0  0  0  0  0
    2.8860    2.8580   -1.4328 C   0  0  0  0  0  0  0  0  0  0  0  0
    3.9409    3.0626   -1.5417 H   0  0  0  0  0  0  0  0  0  0  0  0
    1.9588    3.9118   -1.3634 C   0  0  0  0  0  0  0  0  0  0  0  0
    2.2980    4.9374   -1.4192 H   0  0  0  0  0  0  0  0  0  0  0  0
    0.5883    3.6310   -1.2145 C   0  0  0  0  0  0  0  0  0  0  0  0
   -0.1207    4.4450   -1.1531 H   0  0  0  0  0  0  0  0  0  0  0  0
    0.1340    2.2991   -1.1373 C   0  0  0  0  0  0  0  0  0  0  0  0
   -0.9201    2.0977   -1.0095 H   0  0  0  0  0  0  0  0  0  0  0  0
    1.0392    1.2183   -1.2102 C   0  0  0  0  0  0  0  0  0  0  0  0
   -1.7617    0.8549   -0.2106 C   0  0  0  0  0  0  0  0  0  0  0  0
   -2.5726    1.1871   -1.0741 O   0  0  0  0  0  0  0  0  0  0  0  0
   -1.1941    1.7377    0.6223 N   0  0  0  0  0  0  0  0  0  0  0  0
   -0.4976    1.3916    1.2669 H   0  0  0  0  0  0  0  0  0  0  0  0
   -1.4666    3.1722    0.6095 C   0  0  0  0  0  0  0  0  0  0  0  0
   -2.5439    3.3427    0.6539 H   0  0  0  0  0  0  0  0  0  0  0  0
   -0.9893    3.6529    1.4644 H   0  0  0  0  0  0  0  0  0  0  0  0
   -1.0808    3.6095   -0.3129 H   0  0  0  0  0  0  0  0  0  0  0  0
  5  6  2  0  0  0  0
  5  7  1  0  0  0  0
  2  3  1  0  0  0  0
  2  4  1  0  0  0  0
  2  5  1  0  0  0  0
  1  2  1  0  0  0  0
 29 30  2  0  0  0  0
 29 31  1  0  0  0  0
 26 27  1  0  0  0  0
 26 28  2  0  0  0  0
 24 25  1  0  0  0  0
 24 26  1  0  0  0  0
 22 23  1  0  0  0  0
 22 24  2  0  0  0  0
 20 21  1  0  0  0  0
 20 22  1  0  0  0  0
 19 20  2  0  0  0  0
 19 28  1  0  0  0  0
 17 18  1  0  0  0  0
 17 19  1  0  0  0  0
 15 16  1  0  0  0  0
 15 17  1  0  0  0  0
 14 15  2  0  0  0  0
 14 28  1  0  0  0  0
 11 12  1  0  0  0  0
 11 13  1  0  0  0  0
 11 14  1  0  0  0  0
  9 10  1  0  0  0  0
  9 11  1  0  0  0  0
  9 29  1  0  0  0  0
  7  8  1  0  0  0  0
  7  9  1  0  0  0  0
 33 34  1  0  0  0  0
 33 35  1  0  0  0  0
 33 36  1  0  0  0  0
 31 32  1  0  0  0  0
 31 33  1  0  0  0  0
M  END
$$$$
default_name
  -OEChem-02102213163D

 36 37  0     1  0  0  0  0  0999 V2000
   -4.0843   -4.0736    1.2944 H   0  0  0  0  0  0  0  0  0  0  0  0
   -4.0342   -3.2816    0.5484 C   0  0  0  0  0  0  0  0  0  0  0  0
   -4.8842   -2.6126    0.6694 H   0  0  0  0  0  0  0  0  0  0  0  0
   -4.0433   -3.7186   -0.4486 H   0  0  0  0  0  0  0  0  0  0  0  0
   -2.7532   -2.5046    0.7444 C   0  0  0  0  0  0  0  0  0  0  0  0
   -1.9803   -2.8096    1.6434 O   0  0  0  0  0  0  0  0  0  0  0  0
   -2.5332   -1.4966   -0.0966 N   0  0  0  0  0  0  0  0  0  0  0  0
   -3.2312   -1.2816   -0.7936 H   0  0  0  0  0  0  0  0  0  0  0  0
   -1.3593   -0.6196   -0.0536 C   0  0  1  0  0  0  0  0  0  0  0  0
   -0.8788   -0.7266    0.9196 H   0  0  0  0  0  0  0  0  0  0  0  0
   -0.3559   -1.0533   -1.1339 C   0  0  0  0  0  0  0  0  0  0  0  0
   -0.0733   -2.0922   -0.9546 H   0  0  0  0  0  0  0  0  0  0  0  0
   -0.8508   -1.0087   -2.1055 H   0  0  0  0  0  0  0  0  0  0  0  0
    0.8990   -0.2369   -1.2021 C   0  0  0  0  0  0  0  0  0  0  0  0
    2.1105   -0.6881   -1.5975 C   0  0  0  0  0  0  0  0  0  0  0  0
    2.3214   -1.7091   -1.8965 H   0  0  0  0  0  0  0  0  0  0  0  0
    3.0210    0.3502   -1.5799 N   0  0  0  0  0  0  0  0  0  0  0  0
    3.9923    0.2437   -1.8340 H   0  0  0  0  0  0  0  0  0  0  0  0
    2.4338    1.5336   -1.1857 C   0  0  0  0  0  0  0  0  0  0  0  0
    2.9181    2.8415   -1.0397 C   0  0  0  0  0  0  0  0  0  0  0  0
    3.9527    3.0689   -1.2507 H   0  0  0  0  0  0  0  0  0  0  0  0
    2.0389    3.8515   -0.6131 C   0  0  0  0  0  0  0  0  0  0  0  0
    2.3949    4.8659   -0.4939 H   0  0  0  0  0  0  0  0  0  0  0  0
    0.6955    3.5398   -0.3349 C   0  0  0  0  0  0  0  0  0  0  0  0
    0.0245    4.3183    0.0010 H   0  0  0  0  0  0  0  0  0  0  0  0
    0.2201    2.2214   -0.4832 C   0  0  0  0  0  0  0  0  0  0  0  0
   -0.8109    1.9930   -0.2533 H   0  0  0  0  0  0  0  0  0  0  0  0
    1.0764    1.1857   -0.9157 C   0  0  0  0  0  0  0  0  0  0  0  0
   -1.7617    0.8549   -0.2106 C   0  0  0  0  0  0  0  0  0  0  0  0
   -2.5726    1.1871   -1.0741 O   0  0  0  0  0  0  0  0  0  0  0  0
   -1.1941    1.7377    0.6223 N   0  0  0  0  0  0  0  0  0  0  0  0
   -0.4976    1.3916    1.2669 H   0  0  0  0  0  0  0  0  0  0  0  0
   -1.4666    3.1722    0.6095 C   0  0  0  0  0  0  0  0  0  0  0  0
   -2.5439    3.3427    0.6539 H   0  0  0  0  0  0  0  0  0  0  0  0
   -0.9893    3.6529    1.4644 H   0  0  0  0  0  0  0  0  0  0  0  0
   -1.0808    3.6095   -0.3129 H   0  0  0  0  0  0  0  0  0  0  0  0
  5  6  2  0  0  0  0
  5  7  1  0  0  0  0
  2  3  1  0  0  0  0
  2  4  1  0  0  0  0
  2  5  1  0  0  0  0
  1  2  1  0  0  0  0
 29 30  2  0  0  0  0
 29 31  1  0  0  0  0
 26 27  1  0  0  0  0
 26 28  2  0  0  0  0
 24 25  1  0  0  0  0
 24 26  1  0  0  0  0
 22 23  1  0  0  0  0
 22 24  2  0  0  0  0
 20 21  1  0  0  0  0
 20 22  1  0  0  0  0
 19 20  2  0  0  0  0
 19 28  1  0  0  0  0
 17 18  1  0  0  0  0
 17 19  1  0  0  0  0
 15 16  1  0  0  0  0
 15 17  1  0  0  0  0
 14 15  2  0  0  0  0
 14 28  1  0  0  0  0
 11 12  1  0  0  0  0
 11 13  1  0  0  0  0
 11 14  1  0  0  0  0
  9 10  1  0  0  0  0
  9 11  1  0  0  0  0
  9 29  1  0  0  0  0
  7  8  1  0  0  0  0
  7  9  1  0  0  0  0
 33 34  1  0  0  0  0
 33 35  1  0  0  0  0
 33 36  1  0  0  0  0
 31 32  1  0  0  0  0
 31 33  1  0  0  0  0
M  END
$$$$
default_name
  -OEChem-02102213163D

 36 37  0     1  0  0  0  0  0999 V2000
   -4.0843   -4.0736    1.2944 H   0  0  0  0  0  0  0  0  0  0  0  0
   -4.0342   -3.2816    0.5484 C   0  0  0  0  0  0  0  0  0  0  0  0
   -4.8842   -2.6126    0.6694 H   0  0  0  0  0  0  0  0  0  0  0  0
   -4.0433   -3.7186   -0.4486 H   0  0  0  0  0  0  0  0  0  0  0  0
   -2.7532   -2.5046    0.7444 C   0  0  0  0  0  0  0  0  0  0  0  0
   -1.9803   -2.8096    1.6434 O   0  0  0  0  0  0  0  0  0  0  0  0
   -2.5332   -1.4966   -0.0966 N   0  0  0  0  0  0  0  0  0  0  0  0
   -3.2312   -1.2816   -0.7936 H   0  0  0  0  0  0  0  0  0  0  0  0
   -1.3593   -0.6196   -0.0536 C   0  0  1  0  0  0  0  0  0  0  0  0
   -0.8788   -0.7266    0.9196 H   0  0  0  0  0  0  0  0  0  0  0  0
   -0.3559   -1.0533   -1.1339 C   0  0  0  0  0  0  0  0  0  0  0  0
   -0.0733   -2.0922   -0.9546 H   0  0  0  0  0  0  0  0  0  0  0  0
   -0.8508   -1.0087   -2.1055 H   0  0  0  0  0  0  0  0  0  0  0  0
    0.8990   -0.2369   -1.2021 C   0  0  0  0  0  0  0  0  0  0  0  0
    2.0306   -0.5868   -1.8539 C   0  0  0  0  0  0  0  0  0  0  0  0
    2.1696   -1.5174   -2.3931 H   0  0  0  0  0  0  0  0  0  0  0  0
    2.9627    0.4263   -1.7423 N   0  0  0  0  0  0  0  0  0  0  0  0
    3.8856    0.3813   -2.1489 H   0  0  0  0  0  0  0  0  0  0  0  0
    2.4689    1.4934   -1.0224 C   0  0  0  0  0  0  0  0  0  0  0  0
    3.0043    2.7400   -0.6680 C   0  0  0  0  0  0  0  0  0  0  0  0
    4.0051    3.0117   -0.9700 H   0  0  0  0  0  0  0  0  0  0  0  0
    2.2213    3.6297    0.0872 C   0  0  0  0  0  0  0  0  0  0  0  0
    2.6180    4.5951    0.3707 H   0  0  0  0  0  0  0  0  0  0  0  0
    0.9219    3.2599    0.4799 C   0  0  0  0  0  0  0  0  0  0  0  0
    0.3260    3.9442    1.0679 H   0  0  0  0  0  0  0  0  0  0  0  0
    0.3947    2.0035    0.1196 C   0  0  0  0  0  0  0  0  0  0  0  0
   -0.6000    1.7267    0.4392 H   0  0  0  0  0  0  0  0  0  0  0  0
    1.1535    1.0900   -0.6436 C   0  0  0  0  0  0  0  0  0  0  0  0
   -1.7617    0.8549   -0.2106 C   0  0  0  0  0  0  0  0  0  0  0  0
   -2.5726    1.1871   -1.0741 O   0  0  0  0  0  0  0  0  0  0  0  0
   -1.1941    1.7377    0.6223 N   0  0  0  0  0  0  0  0  0  0  0  0
   -0.4976    1.3916    1.2669 H   0  0  0  0  0  0  0  0  0  0  0  0
   -1.4666    3.1722    0.6095 C   0  0  0  0  0  0  0  0  0  0  0  0
   -2.5439    3.3427    0.6539 H   0  0  0  0  0  0  0  0  0  0  0  0
   -0.9893    3.6529    1.4644 H   0  0  0  0  0  0  0  0  0  0  0  0
   -1.0808    3.6095   -0.3129 H   0  0  0  0  0  0  0  0  0  0  0  0
  5  6  2  0  0  0  0
  5  7  1  0  0  0  0
  2  3  1  0  0  0  0
  2  4  1  0  0  0  0
  2  5  1  0  0  0  0
  1  2  1  0  0  0  0
 29 30  2  0  0  0  0
 29 31  1  0  0  0  0
 26 27  1  0  0  0  0
 26 28  2  0  0  0  0
 24 25  1  0  0  0  0
 24 26  1  0  0  0  0
 22 23  1  0  0  0  0
 22 24  2  0  0  0  0
 20 21  1  0  0  0  0
 20 22  1  0  0  0  0
 19 20  2  0  0  0  0
 19 28  1  0  0  0  0
 17 18  1  0  0  0  0
 17 19  1  0  0  0  0
 15 16  1  0  0  0  0
 15 17  1  0  0  0  0
 14 15  2  0  0  0  0
 14 28  1  0  0  0  0
 11 12  1  0  0  0  0
 11 13  1  0  0  0  0
 11 14  1  0  0  0  0
  9 10  1  0  0  0  0
  9 11  1  0  0  0  0
  9 29  1  0  0  0  0
  7  8  1  0  0  0  0
  7  9  1  0  0  0  0
 33 34  1  0  0  0  0
 33 35  1  0  0  0  0
 33 36  1  0  0  0  0
 31 32  1  0  0  0  0
 31 33  1  0  0  0  0
M  END
$$$$
default_name
  -OEChem-02102213163D

 36 37  0     1  0  0  0  0  0999 V2000
   -4.0843   -4.0736    1.2944 H   0  0  0  0  0  0  0  0  0  0  0  0
   -4.0342   -3.2816    0.5484 C   0  0  0  0  0  0  0  0  0  0  0  0
   -4.8842   -2.6126    0.6694 H   0  0  0  0  0  0  0  0  0  0  0  0
   -4.0433   -3.7186   -0.4486 H   0  0  0  0  0  0  0  0  0  0  0  0
   -2.7532   -2.5046    0.7444 C   0  0  0  0  0  0  0  0  0  0  0  0
   -1.9803   -2.8096    1.6434 O   0  0  0  0  0  0  0  0  0  0  0  0
   -2.5332   -1.4966   -0.0966 N   0  0  0  0  0  0  0  0  0  0  0  0
   -3.2312   -1.2816   -0.7936 H   0  0  0  0  0  0  0  0  0  0  0  0
   -1.3593   -0.6196   -0.0536 C   0  0  1  0  0  0  0  0  0  0  0  0
   -0.8788   -0.7266    0.9196 H   0  0  0  0  0  0  0  0  0  0  0  0
   -0.3559   -1.0533   -1.1339 C   0  0  0  0  0  0  0  0  0  0  0  0
   -0.2772   -2.1419   -1.1240 H   0  0  0  0  0  0  0  0  0  0  0  0
   -0.7472   -0.7594   -2.1093 H   0  0  0  0  0  0  0  0  0  0  0  0
    1.0239   -0.4876   -0.9854 C   0  0  0  0  0  0  0  0  0  0  0  0
    2.0659   -0.7283   -1.8125 C   0  0  0  0  0  0  0  0  0  0  0  0
    2.0290   -1.3806   -2.6781 H   0  0  0  0  0  0  0  0  0  0  0  0
    3.1658   -0.0039   -1.3964 N   0  0  0  0  0  0  0  0  0  0  0  0
    4.0603   -0.0318   -1.8636 H   0  0  0  0  0  0  0  0  0  0  0  0
    2.8805    0.7575   -0.2830 C   0  0  0  0  0  0  0  0  0  0  0  0
    3.6352    1.6610    0.4789 C   0  0  0  0  0  0  0  0  0  0  0  0
    4.6644    1.8662    0.2236 H   0  0  0  0  0  0  0  0  0  0  0  0
    3.0341    2.2940    1.5803 C   0  0  0  0  0  0  0  0  0  0  0  0
    3.6010    2.9931    2.1801 H   0  0  0  0  0  0  0  0  0  0  0  0
    1.6948    2.0120    1.9058 C   0  0  0  0  0  0  0  0  0  0  0  0
    1.2388    2.4950    2.7589 H   0  0  0  0  0  0  0  0  0  0  0  0
    0.9463    1.1006    1.1341 C   0  0  0  0  0  0  0  0  0  0  0  0
   -0.0775    0.8829    1.4031 H   0  0  0  0  0  0  0  0  0  0  0  0
    1.5192    0.4530    0.0181 C   0  0  0  0  0  0  0  0  0  0  0  0
   -1.7617    0.8549   -0.2106 C   0  0  0  0  0  0  0  0  0  0  0  0
   -2.5726    1.1871   -1.0741 O   0  0  0  0  0  0  0  0  0  0  0  0
   -1.1941    1.7377    0.6223 N   0  0  0  0  0  0  0  0  0  0  0  0
   -0.4976    1.3916    1.2669 H   0  0  0  0  0  0  0  0  0  0  0  0
   -1.4666    3.1722    0.6095 C   0  0  0  0  0  0  0  0  0  0  0  0
   -2.5439    3.3427    0.6539 H   0  0  0  0  0  0  0  0  0  0  0  0
   -0.9893    3.6529    1.4644 H   0  0  0  0  0  0  0  0  0  0  0  0
   -1.0808    3.6095   -0.3129 H   0  0  0  0  0  0  0  0  0  0  0  0
  5  6  2  0  0  0  0
  5  7  1  0  0  0  0
  2  3  1  0  0  0  0
  2  4  1  0  0  0  0
  2  5  1  0  0  0  0
  1  2  1  0  0  0  0
 29 30  2  0  0  0  0
 29 31  1  0  0  0  0
 26 27  1  0  0  0  0
 26 28  2  0  0  0  0
 24 25  1  0  0  0  0
 24 26  1  0  0  0  0
 22 23  1  0  0  0  0
 22 24  2  0  0  0  0
 20 21  1  0  0  0  0
 20 22  1  0  0  0  0
 19 20  2  0  0  0  0
 19 28  1  0  0  0  0
 17 18  1  0  0  0  0
 17 19  1  0  0  0  0
 15 16  1  0  0  0  0
 15 17  1  0  0  0  0
 14 15  2  0  0  0  0
 14 28  1  0  0  0  0
 11 12  1  0  0  0  0
 11 13  1  0  0  0  0
 11 14  1  0  0  0  0
  9 10  1  0  0  0  0
  9 11  1  0  0  0  0
  9 29  1  0  0  0  0
  7  8  1  0  0  0  0
  7  9  1  0  0  0  0
 33 34  1  0  0  0  0
 33 35  1  0  0  0  0
 33 36  1  0  0  0  0
 31 32  1  0  0  0  0
 31 33  1  0  0  0  0
M  END
$$$$
default_name
  -OEChem-02102213163D

 36 37  0     1  0  0  0  0  0999 V2000
   -4.0843   -4.0736    1.2944 H   0  0  0  0  0  0  0  0  0  0  0  0
   -4.0342   -3.2816    0.5484 C   0  0  0  0  0  0  0  0  0  0  0  0
   -4.8842   -2.6126    0.6694 H   0  0  0  0  0  0  0  0  0  0  0  0
   -4.0433   -3.7186   -0.4486 H   0  0  0  0  0  0  0  0  0  0  0  0
   -2.7532   -2.5046    0.7444 C   0  0  0  0  0  0  0  0  0  0  0  0
   -1.9803   -2.8096    1.6434 O   0  0  0  0  0  0  0  0  0  0  0  0
   -2.5332   -1.4966   -0.0966 N   0  0  0  0  0  0  0  0  0  0  0  0
   -3.2312   -1.2816   -0.7936 H   0  0  0  0  0  0  0  0  0  0  0  0
   -1.3593   -0.6196   -0.0536 C   0  0  1  0  0  0  0  0  0  0  0  0
   -0.8788   -0.7266    0.9196 H   0  0  0  0  0  0  0  0  0  0  0  0
   -0.3559   -1.0533   -1.1339 C   0  0  0  0  0  0  0  0  0  0  0  0
   -0.2772   -2.1419   -1.1240 H   0  0  0  0  0  0  0  0  0  0  0  0
   -0.7472   -0.7594   -2.1093 H   0  0  0  0  0  0  0  0  0  0  0  0
    1.0239   -0.4876   -0.9854 C   0  0  0  0  0  0  0  0  0  0  0  0
    1.9805   -0.4862   -1.9408 C   0  0  0  0  0  0  0  0  0  0  0  0
    1.8654   -0.9156   -2.9300 H   0  0  0  0  0  0  0  0  0  0  0  0
    3.1065    0.1597   -1.4693 N   0  0  0  0  0  0  0  0  0  0  0  0
    3.9497    0.2768   -2.0120 H   0  0  0  0  0  0  0  0  0  0  0  0
    2.9245    0.6242   -0.1841 C   0  0  0  0  0  0  0  0  0  0  0  0
    3.7396    1.3490    0.6972 C   0  0  0  0  0  0  0  0  0  0  0  0
    4.7349    1.6473    0.4023 H   0  0  0  0  0  0  0  0  0  0  0  0
    3.2439    1.6800    1.9699 C   0  0  0  0  0  0  0  0  0  0  0  0
    3.8587    2.2377    2.6634 H   0  0  0  0  0  0  0  0  0  0  0  0
    1.9483    1.2788    2.3436 C   0  0  0  0  0  0  0  0  0  0  0  0
    1.5740    1.5284    3.3268 H   0  0  0  0  0  0  0  0  0  0  0  0
    1.1385    0.5490    1.4504 C   0  0  0  0  0  0  0  0  0  0  0  0
    0.1501    0.2355    1.7550 H   0  0  0  0  0  0  0  0  0  0  0  0
    1.6048    0.2063    0.1627 C   0  0  0  0  0  0  0  0  0  0  0  0
   -1.7617    0.8549   -0.2106 C   0  0  0  0  0  0  0  0  0  0  0  0
   -2.5726    1.1871   -1.0741 O   0  0  0  0  0  0  0  0  0  0  0  0
   -1.1941    1.7377    0.6223 N   0  0  0  0  0  0  0  0  0  0  0  0
   -0.4976    1.3916    1.2669 H   0  0  0  0  0  0  0  0  0  0  0  0
   -1.4666    3.1722    0.6095 C   0  0  0  0  0  0  0  0  0  0  0  0
   -2.5439    3.3427    0.6539 H   0  0  0  0  0  0  0  0  0  0  0  0
   -0.9893    3.6529    1.4644 H   0  0  0  0  0  0  0  0  0  0  0  0
   -1.0808    3.6095   -0.3129 H   0  0  0  0  0  0  0  0  0  0  0  0
  5  6  2  0  0  0  0
  5  7  1  0  0  0  0
  2  3  1  0  0  0  0
  2  4  1  0  0  0  0
  2  5  1  0  0  0  0
  1  2  1  0  0  0  0
 29 30  2  0  0  0  0
 29 31  1  0  0  0  0
 26 27  1  0  0  0  0
 26 28  2  0  0  0  0
 24 25  1  0  0  0  0
 24 26  1  0  0  0  0
 22 23  1  0  0  0  0
 22 24  2  0  0  0  0
 20 21  1  0  0  0  0
 20 22  1  0  0  0  0
 19 20  2  0  0  0  0
 19 28  1  0  0  0  0
 17 18  1  0  0  0  0
 17 19  1  0  0  0  0
 15 16  1  0  0  0  0
 15 17  1  0  0  0  0
 14 15  2  0  0  0  0
 14 28  1  0  0  0  0
 11 12  1  0  0  0  0
 11 13  1  0  0  0  0
 11 14  1  0  0  0  0
  9 10  1  0  0  0  0
  9 11  1  0  0  0  0
  9 29  1  0  0  0  0
  7  8  1  0  0  0  0
  7  9  1  0  0  0  0
 33 34  1  0  0  0  0
 33 35  1  0  0  0  0
 33 36  1  0  0  0  0
 31 32  1  0  0  0  0
 31 33  1  0  0  0  0
M  END
$$$$
default_name
  -OEChem-02102213163D

 36 37  0     1  0  0  0  0  0999 V2000
   -4.0843   -4.0736    1.2944 H   0  0  0  0  0  0  0  0  0  0  0  0
   -4.0342   -3.2816    0.5484 C   0  0  0  0  0  0  0  0  0  0  0  0
   -4.8842   -2.6126    0.6694 H   0  0  0  0  0  0  0  0  0  0  0  0
   -4.0433   -3.7186   -0.4486 H   0  0  0  0  0  0  0  0  0  0  0  0
   -2.7532   -2.5046    0.7444 C   0  0  0  0  0  0  0  0  0  0  0  0
   -1.9803   -2.8096    1.6434 O   0  0  0  0  0  0  0  0  0  0  0  0
   -2.5332   -1.4966   -0.0966 N   0  0  0  0  0  0  0  0  0  0  0  0
   -3.2312   -1.2816   -0.7936 H   0  0  0  0  0  0  0  0  0  0  0  0
   -1.3593   -0.6196   -0.0536 C   0  0  1  0  0  0  0  0  0  0  0  0
   -0.8788   -0.7266    0.9196 H   0  0  0  0  0  0  0  0  0  0  0  0
   -0.3559   -1.0533   -1.1339 C   0  0  0  0  0  0  0  0  0  0  0  0
   -0.2772   -2.1419   -1.1240 H   0  0  0  0  0  0  0  0  0  0  0  0
   -0.7472   -0.7594   -2.1093 H   0  0  0  0  0  0  0  0  0  0  0  0
    1.0239   -0.4876   -0.9854 C   0  0  0  0  0  0  0  0  0  0  0  0
    1.8792   -0.2239   -1.9987 C   0  0  0  0  0  0  0  0  0  0  0  0
    1.6709   -0.4107   -3.0465 H   0  0  0  0  0  0  0  0  0  0  0  0
    3.0380    0.3335   -1.4949 N   0  0  0  0  0  0  0  0  0  0  0  0
    3.8205    0.6075   -2.0710 H   0  0  0  0  0  0  0  0  0  0  0  0
    2.9801    0.4730   -0.1245 C   0  0  0  0  0  0  0  0  0  0  0  0
    3.8698    0.9983    0.8235 C   0  0  0  0  0  0  0  0  0  0  0  0
    4.8261    1.3951    0.5159 H   0  0  0  0  0  0  0  0  0  0  0  0
    3.5005    0.9994    2.1795 C   0  0  0  0  0  0  0  0  0  0  0  0
    4.1743    1.3994    2.9250 H   0  0  0  0  0  0  0  0  0  0  0  0
    2.2547    0.4728    2.5670 C   0  0  0  0  0  0  0  0  0  0  0  0
    1.9780    0.4680    3.6122 H   0  0  0  0  0  0  0  0  0  0  0  0
    1.3692   -0.0544    1.6057 C   0  0  0  0  0  0  0  0  0  0  0  0
    0.4209   -0.4679    1.9184 H   0  0  0  0  0  0  0  0  0  0  0  0
    1.7080   -0.0644    0.2353 C   0  0  0  0  0  0  0  0  0  0  0  0
   -1.7617    0.8549   -0.2106 C   0  0  0  0  0  0  0  0  0  0  0  0
   -2.5726    1.1871   -1.0741 O   0  0  0  0  0  0  0  0  0  0  0  0
   -1.1941    1.7377    0.6223 N   0  0  0  0  0  0  0  0  0  0  0  0
   -0.4976    1.3916    1.2669 H   0  0  0  0  0  0  0  0  0  0  0  0
   -1.4666    3.1722    0.6095 C   0  0  0  0  0  0  0  0  0  0  0  0
   -2.5439    3.3427    0.6539 H   0  0  0  0  0  0  0  0  0  0  0  0
   -0.9893    3.6529    1.4644 H   0  0  0  0  0  0  0  0  0  0  0  0
   -1.0808    3.6095   -0.3129 H   0  0  0  0  0  0  0  0  0  0  0  0
  5  6  2  0  0  0  0
  5  7  1  0  0  0  0
  2  3  1  0  0  0  0
  2  4  1  0  0  0  0
  2  5  1  0  0  0  0
  1  2  1  0  0  0  0
 29 30  2  0  0  0  0
 29 31  1  0  0  0  0
 26 27  1  0  0  0  0
 26 28  2  0  0  0  0
 24 25  1  0  0  0  0
 24 26  1  0  0  0  0
 22 23  1  0  0  0  0
 22 24  2  0  0  0  0
 20 21  1  0  0  0  0
 20 22  1  0  0  0  0
 19 20  2  0  0  0  0
 19 28  1  0  0  0  0
 17 18  1  0  0  0  0
 17 19  1  0  0  0  0
 15 16  1  0  0  0  0
 15 17  1  0  0  0  0
 14 15  2  0  0  0  0
 14 28  1  0  0  0  0
 11 12  1  0  0  0  0
 11 13  1  0  0  0  0
 11 14  1  0  0  0  0
  9 10  1  0  0  0  0
  9 11  1  0  0  0  0
  9 29  1  0  0  0  0
  7  8  1  0  0  0  0
  7  9  1  0  0  0  0
 33 34  1  0  0  0  0
 33 35  1  0  0  0  0
 33 36  1  0  0  0  0
 31 32  1  0  0  0  0
 31 33  1  0  0  0  0
M  END
$$$$
default_name
  -OEChem-02102213163D

 36 37  0     1  0  0  0  0  0999 V2000
   -4.0843   -4.0736    1.2944 H   0  0  0  0  0  0  0  0  0  0  0  0
   -4.0342   -3.2816    0.5484 C   0  0  0  0  0  0  0  0  0  0  0  0
   -4.8842   -2.6126    0.6694 H   0  0  0  0  0  0  0  0  0  0  0  0
   -4.0433   -3.7186   -0.4486 H   0  0  0  0  0  0  0  0  0  0  0  0
   -2.7532   -2.5046    0.7444 C   0  0  0  0  0  0  0  0  0  0  0  0
   -1.9803   -2.8096    1.6434 O   0  0  0  0  0  0  0  0  0  0  0  0
   -2.5332   -1.4966   -0.0966 N   0  0  0  0  0  0  0  0  0  0  0  0
   -3.2312   -1.2816   -0.7936 H   0  0  0  0  0  0  0  0  0  0  0  0
   -1.3593   -0.6196   -0.0536 C   0  0  1  0  0  0  0  0  0  0  0  0
   -0.8788   -0.7266    0.9196 H   0  0  0  0  0  0  0  0  0  0  0  0
   -0.3559   -1.0533   -1.1339 C   0  0  0  0  0  0  0  0  0  0  0  0
   -0.2772   -2.1419   -1.1240 H   0  0  0  0  0  0  0  0  0  0  0  0
   -0.7472   -0.7594   -2.1093 H   0  0  0  0  0  0  0  0  0  0  0  0
    1.0239   -0.4876   -0.9854 C   0  0  0  0  0  0  0  0  0  0  0  0
    1.7689    0.0406   -1.9823 C   0  0  0  0  0  0  0  0  0  0  0  0
    1.4587    0.0998   -3.0198 H   0  0  0  0  0  0  0  0  0  0  0  0
    2.9649    0.5058   -1.4716 N   0  0  0  0  0  0  0  0  0  0  0  0
    3.6815    0.9376   -2.0366 H   0  0  0  0  0  0  0  0  0  0  0  0
    3.0435    0.3142   -0.1085 C   0  0  0  0  0  0  0  0  0  0  0  0
    4.0169    0.6328    0.8493 C   0  0  0  0  0  0  0  0  0  0  0  0
    4.9318    1.1268    0.5566 H   0  0  0  0  0  0  0  0  0  0  0  0
    3.7861    0.2986    2.1947 C   0  0  0  0  0  0  0  0  0  0  0  0
    4.5261    0.5355    2.9471 H   0  0  0  0  0  0  0  0  0  0  0  0
    2.5932   -0.3511    2.5608 C   0  0  0  0  0  0  0  0  0  0  0  0
    2.4234   -0.6139    3.5958 H   0  0  0  0  0  0  0  0  0  0  0  0
    1.6226   -0.6682    1.5894 C   0  0  0  0  0  0  0  0  0  0  0  0
    0.7165   -1.1794    1.8822 H   0  0  0  0  0  0  0  0  0  0  0  0
    1.8217   -0.3404    0.2307 C   0  0  0  0  0  0  0  0  0  0  0  0
   -1.7617    0.8549   -0.2106 C   0  0  0  0  0  0  0  0  0  0  0  0
   -2.5726    1.1871   -1.0741 O   0  0  0  0  0  0  0  0  0  0  0  0
   -1.1941    1.7377    0.6223 N   0  0  0  0  0  0  0  0  0  0  0  0
   -0.4976    1.3916    1.2669 H   0  0  0  0  0  0  0  0  0  0  0  0
   -1.4666    3.1722    0.6095 C   0  0  0  0  0  0  0  0  0  0  0  0
   -2.5439    3.3427    0.6539 H   0  0  0  0  0  0  0  0  0  0  0  0
   -0.9893    3.6529    1.4644 H   0  0  0  0  0  0  0  0  0  0  0  0
   -1.0808    3.6095   -0.3129 H   0  0  0  0  0  0  0  0  0  0  0  0
  5  6  2  0  0  0  0
  5  7  1  0  0  0  0
  2  3  1  0  0  0  0
  2  4  1  0  0  0  0
  2  5  1  0  0  0  0
  1  2  1  0  0  0  0
 29 30  2  0  0  0  0
 29 31  1  0  0  0  0
 26 27  1  0  0  0  0
 26 28  2  0  0  0  0
 24 25  1  0  0  0  0
 24 26  1  0  0  0  0
 22 23  1  0  0  0  0
 22 24  2  0  0  0  0
 20 21  1  0  0  0  0
 20 22  1  0  0  0  0
 19 20  2  0  0  0  0
 19 28  1  0  0  0  0
 17 18  1  0  0  0  0
 17 19  1  0  0  0  0
 15 16  1  0  0  0  0
 15 17  1  0  0  0  0
 14 15  2  0  0  0  0
 14 28  1  0  0  0  0
 11 12  1  0  0  0  0
 11 13  1  0  0  0  0
 11 14  1  0  0  0  0
  9 10  1  0  0  0  0
  9 11  1  0  0  0  0
  9 29  1  0  0  0  0
  7  8  1  0  0  0  0
  7  9  1  0  0  0  0
 33 34  1  0  0  0  0
 33 35  1  0  0  0  0
 33 36  1  0  0  0  0
 31 32  1  0  0  0  0
 31 33  1  0  0  0  0
M  END
$$$$
default_name
  -OEChem-02102213163D

 36 37  0     1  0  0  0  0  0999 V2000
   -4.0843   -4.0736    1.2944 H   0  0  0  0  0  0  0  0  0  0  0  0
   -4.0342   -3.2816    0.5484 C   0  0  0  0  0  0  0  0  0  0  0  0
   -4.8842   -2.6126    0.6694 H   0  0  0  0  0  0  0  0  0  0  0  0
   -4.0433   -3.7186   -0.4486 H   0  0  0  0  0  0  0  0  0  0  0  0
   -2.7532   -2.5046    0.7444 C   0  0  0  0  0  0  0  0  0  0  0  0
   -1.9803   -2.8096    1.6434 O   0  0  0  0  0  0  0  0  0  0  0  0
   -2.5332   -1.4966   -0.0966 N   0  0  0  0  0  0  0  0  0  0  0  0
   -3.2312   -1.2816   -0.7936 H   0  0  0  0  0  0  0  0  0  0  0  0
   -1.3593   -0.6196   -0.0536 C   0  0  1  0  0  0  0  0  0  0  0  0
   -0.8788   -0.7266    0.9196 H   0  0  0  0  0  0  0  0  0  0  0  0
   -0.3559   -1.0533   -1.1339 C   0  0  0  0  0  0  0  0  0  0  0  0
   -0.2772   -2.1419   -1.1240 H   0  0  0  0  0  0  0  0  0  0  0  0
   -0.7472   -0.7594   -2.1093 H   0  0  0  0  0  0  0  0  0  0  0  0
    1.0239   -0.4876   -0.9854 C   0  0  0  0  0  0  0  0  0  0  0  0
    1.6573    0.2894   -1.8926 C   0  0  0  0  0  0  0  0  0  0  0  0
    1.2433    0.5811   -2.8515 H   0  0  0  0  0  0  0  0  0  0  0  0
    2.8921    0.6647   -1.4008 N   0  0  0  0  0  0  0  0  0  0  0  0
    3.5421    1.2447   -1.9111 H   0  0  0  0  0  0  0  0  0  0  0  0
    3.1103    0.1586   -0.1371 C   0  0  0  0  0  0  0  0  0  0  0  0
    4.1709    0.2773    0.7726 C   0  0  0  0  0  0  0  0  0  0  0  0
    5.0447    0.8606    0.5217 H   0  0  0  0  0  0  0  0  0  0  0  0
    4.0816   -0.3746    2.0144 C   0  0  0  0  0  0  0  0  0  0  0  0
    4.8903   -0.2952    2.7283 H   0  0  0  0  0  0  0  0  0  0  0  0
    2.9407   -1.1368    2.3254 C   0  0  0  0  0  0  0  0  0  0  0  0
    2.8797   -1.6436    3.2786 H   0  0  0  0  0  0  0  0  0  0  0  0
    1.8816   -1.2508    1.4026 C   0  0  0  0  0  0  0  0  0  0  0  0
    1.0167   -1.8504    1.6488 H   0  0  0  0  0  0  0  0  0  0  0  0
    1.9381   -0.6031    0.1495 C   0  0  0  0  0  0  0  0  0  0  0  0
   -1.7617    0.8549   -0.2106 C   0  0  0  0  0  0  0  0  0  0  0  0
   -2.5726    1.1871   -1.0741 O   0  0  0  0  0  0  0  0  0  0  0  0
   -1.1941    1.7377    0.6223 N   0  0  0  0  0  0  0  0  0  0  0  0
   -0.4976    1.3916    1.2669 H   0  0  0  0  0  0  0  0  0  0  0  0
   -1.4666    3.1722    0.6095 C   0  0  0  0  0  0  0  0  0  0  0  0
   -2.5439    3.3427    0.6539 H   0  0  0  0  0  0  0  0  0  0  0  0
   -0.9893    3.6529    1.4644 H   0  0  0  0  0  0  0  0  0  0  0  0
   -1.0808    3.6095   -0.3129 H   0  0  0  0  0  0  0  0  0  0  0  0
  5  6  2  0  0  0  0
  5  7  1  0  0  0  0
  2  3  1  0  0  0  0
  2  4  1  0  0  0  0
  2  5  1  0  0  0  0
  1  2  1  0  0  0  0
 29 30  2  0  0  0  0
 29 31  1  0  0  0  0
 26 27  1  0  0  0  0
 26 28  2  0  0  0  0
 24 25  1  0  0  0  0
 24 26  1  0  0  0  0
 22 23  1  0  0  0  0
 22 24  2  0  0  0  0
 20 21  1  0  0  0  0
 20 22  1  0  0  0  0
 19 20  2  0  0  0  0
 19 28  1  0  0  0  0
 17 18  1  0  0  0  0
 17 19  1  0  0  0  0
 15 16  1  0  0  0  0
 15 17  1  0  0  0  0
 14 15  2  0  0  0  0
 14 28  1  0  0  0  0
 11 12  1  0  0  0  0
 11 13  1  0  0  0  0
 11 14  1  0  0  0  0
  9 10  1  0  0  0  0
  9 11  1  0  0  0  0
  9 29  1  0  0  0  0
  7  8  1  0  0  0  0
  7  9  1  0  0  0  0
 33 34  1  0  0  0  0
 33 35  1  0  0  0  0
 33 36  1  0  0  0  0
 31 32  1  0  0  0  0
 31 33  1  0  0  0  0
M  END
$$$$
default_name
  -OEChem-02102213163D

 36 37  0     1  0  0  0  0  0999 V2000
   -4.0843   -4.0736    1.2944 H   0  0  0  0  0  0  0  0  0  0  0  0
   -4.0342   -3.2816    0.5484 C   0  0  0  0  0  0  0  0  0  0  0  0
   -4.8842   -2.6126    0.6694 H   0  0  0  0  0  0  0  0  0  0  0  0
   -4.0433   -3.7186   -0.4486 H   0  0  0  0  0  0  0  0  0  0  0  0
   -2.7532   -2.5046    0.7444 C   0  0  0  0  0  0  0  0  0  0  0  0
   -1.9803   -2.8096    1.6434 O   0  0  0  0  0  0  0  0  0  0  0  0
   -2.5332   -1.4966   -0.0966 N   0  0  0  0  0  0  0  0  0  0  0  0
   -3.2312   -1.2816   -0.7936 H   0  0  0  0  0  0  0  0  0  0  0  0
   -1.3593   -0.6196   -0.0536 C   0  0  1  0  0  0  0  0  0  0  0  0
   -0.8788   -0.7266    0.9196 H   0  0  0  0  0  0  0  0  0  0  0  0
   -0.3559   -1.0533   -1.1339 C   0  0  0  0  0  0  0  0  0  0  0  0
   -0.2772   -2.1419   -1.1240 H   0  0  0  0  0  0  0  0  0  0  0  0
   -0.7472   -0.7594   -2.1093 H   0  0  0  0  0  0  0  0  0  0  0  0
    1.0239   -0.4876   -0.9854 C   0  0  0  0  0  0  0  0  0  0  0  0
    1.5518    0.5054   -1.7358 C   0  0  0  0  0  0  0  0  0  0  0  0
    1.0393    1.0004   -2.5533 H   0  0  0  0  0  0  0  0  0  0  0  0
    2.8246    0.7995   -1.2874 N   0  0  0  0  0  0  0  0  0  0  0  0
    3.4118    1.5078   -1.7030 H   0  0  0  0  0  0  0  0  0  0  0  0
    3.1761    0.0169   -0.2082 C   0  0  0  0  0  0  0  0  0  0  0  0
    4.3212   -0.0438    0.5989 C   0  0  0  0  0  0  0  0  0  0  0  0
    5.1571    0.6147    0.4134 H   0  0  0  0  0  0  0  0  0  0  0  0
    4.3665   -0.9743    1.6510 C   0  0  0  0  0  0  0  0  0  0  0  0
    5.2419   -1.0361    2.2833 H   0  0  0  0  0  0  0  0  0  0  0  0
    3.2734   -1.8308    1.8768 C   0  0  0  0  0  0  0  0  0  0  0  0
    3.3159   -2.5509    2.6822 H   0  0  0  0  0  0  0  0  0  0  0  0
    2.1284   -1.7624    1.0580 C   0  0  0  0  0  0  0  0  0  0  0  0
    1.3011   -2.4352    1.2341 H   0  0  0  0  0  0  0  0  0  0  0  0
    2.0494   -0.8345   -0.0029 C   0  0  0  0  0  0  0  0  0  0  0  0
   -1.7617    0.8549   -0.2106 C   0  0  0  0  0  0  0  0  0  0  0  0
   -2.5726    1.1871   -1.0741 O   0  0  0  0  0  0  0  0  0  0  0  0
   -1.1941    1.7377    0.6223 N   0  0  0  0  0  0  0  0  0  0  0  0
   -0.4976    1.3916    1.2669 H   0  0  0  0  0  0  0  0  0  0  0  0
   -1.4666    3.1722    0.6095 C   0  0  0  0  0  0  0  0  0  0  0  0
   -2.5439    3.3427    0.6539 H   0  0  0  0  0  0  0  0  0  0  0  0
   -0.9893    3.6529    1.4644 H   0  0  0  0  0  0  0  0  0  0  0  0
   -1.0808    3.6095   -0.3129 H   0  0  0  0  0  0  0  0  0  0  0  0
  5  6  2  0  0  0  0
  5  7  1  0  0  0  0
  2  3  1  0  0  0  0
  2  4  1  0  0  0  0
  2  5  1  0  0  0  0
  1  2  1  0  0  0  0
 29 30  2  0  0  0  0
 29 31  1  0  0  0  0
 26 27  1  0  0  0  0
 26 28  2  0  0  0  0
 24 25  1  0  0  0  0
 24 26  1  0  0  0  0
 22 23  1  0  0  0  0
 22 24  2  0  0  0  0
 20 21  1  0  0  0  0
 20 22  1  0  0  0  0
 19 20  2  0  0  0  0
 19 28  1  0  0  0  0
 17 18  1  0  0  0  0
 17 19  1  0  0  0  0
 15 16  1  0  0  0  0
 15 17  1  0  0  0  0
 14 15  2  0  0  0  0
 14 28  1  0  0  0  0
 11 12  1  0  0  0  0
 11 13  1  0  0  0  0
 11 14  1  0  0  0  0
  9 10  1  0  0  0  0
  9 11  1  0  0  0  0
  9 29  1  0  0  0  0
  7  8  1  0  0  0  0
  7  9  1  0  0  0  0
 33 34  1  0  0  0  0
 33 35  1  0  0  0  0
 33 36  1  0  0  0  0
 31 32  1  0  0  0  0
 31 33  1  0  0  0  0
M  END
$$$$
default_name
  -OEChem-02102213163D

 36 37  0     1  0  0  0  0  0999 V2000
   -4.0843   -4.0736    1.2944 H   0  0  0  0  0  0  0  0  0  0  0  0
   -4.0342   -3.2816    0.5484 C   0  0  0  0  0  0  0  0  0  0  0  0
   -4.8842   -2.6126    0.6694 H   0  0  0  0  0  0  0  0  0  0  0  0
   -4.0433   -3.7186   -0.4486 H   0  0  0  0  0  0  0  0  0  0  0  0
   -2.7532   -2.5046    0.7444 C   0  0  0  0  0  0  0  0  0  0  0  0
   -1.9803   -2.8096    1.6434 O   0  0  0  0  0  0  0  0  0  0  0  0
   -2.5332   -1.4966   -0.0966 N   0  0  0  0  0  0  0  0  0  0  0  0
   -3.2312   -1.2816   -0.7936 H   0  0  0  0  0  0  0  0  0  0  0  0
   -1.3593   -0.6196   -0.0536 C   0  0  1  0  0  0  0  0  0  0  0  0
   -0.8788   -0.7266    0.9196 H   0  0  0  0  0  0  0  0  0  0  0  0
   -0.3559   -1.0533   -1.1339 C   0  0  0  0  0  0  0  0  0  0  0  0
   -0.2772   -2.1419   -1.1240 H   0  0  0  0  0  0  0  0  0  0  0  0
   -0.7472   -0.7594   -2.1093 H   0  0  0  0  0  0  0  0  0  0  0  0
    1.0239   -0.4876   -0.9854 C   0  0  0  0  0  0  0  0  0  0  0  0
    1.4598    0.6740   -1.5225 C   0  0  0  0  0  0  0  0  0  0  0  0
    0.8606    1.3291   -2.1454 H   0  0  0  0  0  0  0  0  0  0  0  0
    2.7671    0.9010   -1.1392 N   0  0  0  0  0  0  0  0  0  0  0  0
    3.2995    1.7091   -1.4267 H   0  0  0  0  0  0  0  0  0  0  0  0
    3.2363   -0.1014   -0.3172 C   0  0  0  0  0  0  0  0  0  0  0  0
    4.4577   -0.3087    0.3398 C   0  0  0  0  0  0  0  0  0  0  0  0
    5.2615    0.4058    0.2393 H   0  0  0  0  0  0  0  0  0  0  0  0
    4.6217   -1.4597    1.1293 C   0  0  0  0  0  0  0  0  0  0  0  0
    5.5571   -1.6368    1.6426 H   0  0  0  0  0  0  0  0  0  0  0  0
    3.5688   -2.3856    1.2457 C   0  0  0  0  0  0  0  0  0  0  0  0
    3.7022   -3.2740    1.8474 H   0  0  0  0  0  0  0  0  0  0  0  0
    2.3462   -2.1681    0.5792 C   0  0  0  0  0  0  0  0  0  0  0  0
    1.5503   -2.8940    0.6664 H   0  0  0  0  0  0  0  0  0  0  0  0
    2.1479   -1.0188   -0.2162 C   0  0  0  0  0  0  0  0  0  0  0  0
   -1.7617    0.8549   -0.2106 C   0  0  0  0  0  0  0  0  0  0  0  0
   -2.5726    1.1871   -1.0741 O   0  0  0  0  0  0  0  0  0  0  0  0
   -1.1941    1.7377    0.6223 N   0  0  0  0  0  0  0  0  0  0  0  0
   -0.4976    1.3916    1.2669 H   0  0  0  0  0  0  0  0  0  0  0  0
   -1.4666    3.1722    0.6095 C   0  0  0  0  0  0  0  0  0  0  0  0
   -2.5439    3.3427    0.6539 H   0  0  0  0  0  0  0  0  0  0  0  0
   -0.9893    3.6529    1.4644 H   0  0  0  0  0  0  0  0  0  0  0  0
   -1.0808    3.6095   -0.3129 H   0  0  0  0  0  0  0  0  0  0  0  0
  5  6  2  0  0  0  0
  5  7  1  0  0  0  0
  2  3  1  0  0  0  0
  2  4  1  0  0  0  0
  2  5  1  0  0  0  0
  1  2  1  0  0  0  0
 29 30  2  0  0  0  0
 29 31  1  0  0  0  0
 26 27  1  0  0  0  0
 26 28  2  0  0  0  0
 24 25  1  0  0  0  0
 24 26  1  0  0  0  0
 22 23  1  0  0  0  0
 22 24  2  0  0  0  0
 20 21  1  0  0  0  0
 20 22  1  0  0  0  0
 19 20  2  0  0  0  0
 19 28  1  0  0  0  0
 17 18  1  0  0  0  0
 17 19  1  0  0  0  0
 15 16  1  0  0  0  0
 15 17  1  0  0  0  0
 14 15  2  0  0  0  0
 14 28  1  0  0  0  0
 11 12  1  0  0  0  0
 11 13  1  0  0  0  0
 11 14  1  0  0  0  0
  9 10  1  0  0  0  0
  9 11  1  0  0  0  0
  9 29  1  0  0  0  0
  7  8  1  0  0  0  0
  7  9  1  0  0  0  0
 33 34  1  0  0  0  0
 33 35  1  0  0  0  0
 33 36  1  0  0  0  0
 31 32  1  0  0  0  0
 31 33  1  0  0  0  0
M  END
$$$$
default_name
  -OEChem-02102213163D

 36 37  0     1  0  0  0  0  0999 V2000
   -4.0843   -4.0736    1.2944 H   0  0  0  0  0  0  0  0  0  0  0  0
   -4.0342   -3.2816    0.5484 C   0  0  0  0  0  0  0  0  0  0  0  0
   -4.8842   -2.6126    0.6694 H   0  0  0  0  0  0  0  0  0  0  0  0
   -4.0433   -3.7186   -0.4486 H   0  0  0  0  0  0  0  0  0  0  0  0
   -2.7532   -2.5046    0.7444 C   0  0  0  0  0  0  0  0  0  0  0  0
   -1.9803   -2.8096    1.6434 O   0  0  0  0  0  0  0  0  0  0  0  0
   -2.5332   -1.4966   -0.0966 N   0  0  0  0  0  0  0  0  0  0  0  0
   -3.2312   -1.2816   -0.7936 H   0  0  0  0  0  0  0  0  0  0  0  0
   -1.3593   -0.6196   -0.0536 C   0  0  1  0  0  0  0  0  0  0  0  0
   -0.8788   -0.7266    0.9196 H   0  0  0  0  0  0  0  0  0  0  0  0
   -0.3559   -1.0533   -1.1339 C   0  0  0  0  0  0  0  0  0  0  0  0
   -0.2772   -2.1419   -1.1240 H   0  0  0  0  0  0  0  0  0  0  0  0
   -0.7472   -0.7594   -2.1093 H   0  0  0  0  0  0  0  0  0  0  0  0
    1.0239   -0.4876   -0.9854 C   0  0  0  0  0  0  0  0  0  0  0  0
    1.3873    0.7837   -1.2673 C   0  0  0  0  0  0  0  0  0  0  0  0
    0.7195    1.5449   -1.6556 H   0  0  0  0  0  0  0  0  0  0  0  0
    2.7234    0.9622   -0.9663 N   0  0  0  0  0  0  0  0  0  0  0  0
    3.2129    1.8348   -1.1008 H   0  0  0  0  0  0  0  0  0  0  0  0
    3.2869   -0.1882   -0.4565 C   0  0  0  0  0  0  0  0  0  0  0  0
    4.5710   -0.4993    0.0132 C   0  0  0  0  0  0  0  0  0  0  0  0
    5.3507    0.2482    0.0112 H   0  0  0  0  0  0  0  0  0  0  0  0
    4.8296   -1.7977    0.4847 C   0  0  0  0  0  0  0  0  0  0  0  0
    5.8144   -2.0562    0.8498 H   0  0  0  0  0  0  0  0  0  0  0  0
    3.8067   -2.7636    0.4750 C   0  0  0  0  0  0  0  0  0  0  0  0
    4.0123   -3.7637    0.8309 H   0  0  0  0  0  0  0  0  0  0  0  0
    2.5203   -2.4403   -0.0013 C   0  0  0  0  0  0  0  0  0  0  0  0
    1.7473   -3.1955   -0.0156 H   0  0  0  0  0  0  0  0  0  0  0  0
    2.2269   -1.1434   -0.4757 C   0  0  0  0  0  0  0  0  0  0  0  0
   -1.7617    0.8549   -0.2106 C   0  0  0  0  0  0  0  0  0  0  0  0
   -2.5726    1.1871   -1.0741 O   0  0  0  0  0  0  0  0  0  0  0  0
   -1.1941    1.7377    0.6223 N   0  0  0  0  0  0  0  0  0  0  0  0
   -0.4976    1.3916    1.2669 H   0  0  0  0  0  0  0  0  0  0  0  0
   -1.4666    3.1722    0.6095 C   0  0  0  0  0  0  0  0  0  0  0  0
   -2.5439    3.3427    0.6539 H   0  0  0  0  0  0  0  0  0  0  0  0
   -0.9893    3.6529    1.4644 H   0  0  0  0  0  0  0  0  0  0  0  0
   -1.0808    3.6095   -0.3129 H   0  0  0  0  0  0  0  0  0  0  0  0
  5  6  2  0  0  0  0
  5  7  1  0  0  0  0
  2  3  1  0  0  0  0
  2  4  1  0  0  0  0
  2  5  1  0  0  0  0
  1  2  1  0  0  0  0
 29 30  2  0  0  0  0
 29 31  1  0  0  0  0
 26 27  1  0  0  0  0
 26 28  2  0  0  0  0
 24 25  1  0  0  0  0
 24 26  1  0  0  0  0
 22 23  1  0  0  0  0
 22 24  2  0  0  0  0
 20 21  1  0  0  0  0
 20 22  1  0  0  0  0
 19 20  2  0  0  0  0
 19 28  1  0  0  0  0
 17 18  1  0  0  0  0
 17 19  1  0  0  0  0
 15 16  1  0  0  0  0
 15 17  1  0  0  0  0
 14 15  2  0  0  0  0
 14 28  1  0  0  0  0
 11 12  1  0  0  0  0
 11 13  1  0  0  0  0
 11 14  1  0  0  0  0
  9 10  1  0  0  0  0
  9 11  1  0  0  0  0
  9 29  1  0  0  0  0
  7  8  1  0  0  0  0
  7  9  1  0  0  0  0
 33 34  1  0  0  0  0
 33 35  1  0  0  0  0
 33 36  1  0  0  0  0
 31 32  1  0  0  0  0
 31 33  1  0  0  0  0
M  END
$$$$
default_name
  -OEChem-02102213163D

 36 37  0     1  0  0  0  0  0999 V2000
   -4.0843   -4.0736    1.2944 H   0  0  0  0  0  0  0  0  0  0  0  0
   -4.0342   -3.2816    0.5484 C   0  0  0  0  0  0  0  0  0  0  0  0
   -4.8842   -2.6126    0.6694 H   0  0  0  0  0  0  0  0  0  0  0  0
   -4.0433   -3.7186   -0.4486 H   0  0  0  0  0  0  0  0  0  0  0  0
   -2.7532   -2.5046    0.7444 C   0  0  0  0  0  0  0  0  0  0  0  0
   -1.9803   -2.8096    1.6434 O   0  0  0  0  0  0  0  0  0  0  0  0
   -2.5332   -1.4966   -0.0966 N   0  0  0  0  0  0  0  0  0  0  0  0
   -3.2312   -1.2816   -0.7936 H   0  0  0  0  0  0  0  0  0  0  0  0
   -1.3593   -0.6196   -0.0536 C   0  0  1  0  0  0  0  0  0  0  0  0
   -0.8788   -0.7266    0.9196 H   0  0  0  0  0  0  0  0  0  0  0  0
   -0.3559   -1.0533   -1.1339 C   0  0  0  0  0  0  0  0  0  0  0  0
   -0.2772   -2.1419   -1.1240 H   0  0  0  0  0  0  0  0  0  0  0  0
   -0.7472   -0.7594   -2.1093 H   0  0  0  0  0  0  0  0  0  0  0  0
    1.0239   -0.4876   -0.9854 C   0  0  0  0  0  0  0  0  0  0  0  0
    1.3395    0.8270   -0.9876 C   0  0  0  0  0  0  0  0  0  0  0  0
    0.6255    1.6329   -1.1173 H   0  0  0  0  0  0  0  0  0  0  0  0
    2.6965    0.9790   -0.7804 N   0  0  0  0  0  0  0  0  0  0  0  0
    3.1579    1.8763   -0.7476 H   0  0  0  0  0  0  0  0  0  0  0  0
    3.3244   -0.2375   -0.6167 C   0  0  0  0  0  0  0  0  0  0  0  0
    4.6535   -0.6027   -0.3589 C   0  0  0  0  0  0  0  0  0  0  0  0
    5.4185    0.1527   -0.2555 H   0  0  0  0  0  0  0  0  0  0  0  0
    4.9761   -1.9652   -0.2388 C   0  0  0  0  0  0  0  0  0  0  0  0
    5.9962   -2.2658   -0.0411 H   0  0  0  0  0  0  0  0  0  0  0  0
    3.9709   -2.9389   -0.3828 C   0  0  0  0  0  0  0  0  0  0  0  0
    4.2251   -3.9864   -0.2979 H   0  0  0  0  0  0  0  0  0  0  0  0
    2.6387   -2.5604   -0.6438 C   0  0  0  0  0  0  0  0  0  0  0  0
    1.8787   -3.3191   -0.7655 H   0  0  0  0  0  0  0  0  0  0  0  0
    2.2811   -1.2000   -0.7639 C   0  0  0  0  0  0  0  0  0  0  0  0
   -1.7617    0.8549   -0.2106 C   0  0  0  0  0  0  0  0  0  0  0  0
   -2.5726    1.1871   -1.0741 O   0  0  0  0  0  0  0  0  0  0  0  0
   -1.1941    1.7377    0.6223 N   0  0  0  0  0  0  0  0  0  0  0  0
   -0.4976    1.3916    1.2669 H   0  0  0  0  0  0  0  0  0  0  0  0
   -1.4666    3.1722    0.6095 C   0  0  0  0  0  0  0  0  0  0  0  0
   -2.5439    3.3427    0.6539 H   0  0  0  0  0  0  0  0  0  0  0  0
   -0.9893    3.6529    1.4644 H   0  0  0  0  0  0  0  0  0  0  0  0
   -1.0808    3.6095   -0.3129 H   0  0  0  0  0  0  0  0  0  0  0  0
  5  6  2  0  0  0  0
  5  7  1  0  0  0  0
  2  3  1  0  0  0  0
  2  4  1  0  0  0  0
  2  5  1  0  0  0  0
  1  2  1  0  0  0  0
 29 30  2  0  0  0  0
 29 31  1  0  0  0  0
 26 27  1  0  0  0  0
 26 28  2  0  0  0  0
 24 25  1  0  0  0  0
 24 26  1  0  0  0  0
 22 23  1  0  0  0  0
 22 24  2  0  0  0  0
 20 21  1  0  0  0  0
 20 22  1  0  0  0  0
 19 20  2  0  0  0  0
 19 28  1  0  0  0  0
 17 18  1  0  0  0  0
 17 19  1  0  0  0  0
 15 16  1  0  0  0  0
 15 17  1  0  0  0  0
 14 15  2  0  0  0  0
 14 28  1  0  0  0  0
 11 12  1  0  0  0  0
 11 13  1  0  0  0  0
 11 14  1  0  0  0  0
  9 10  1  0  0  0  0
  9 11  1  0  0  0  0
  9 29  1  0  0  0  0
  7  8  1  0  0  0  0
  7  9  1  0  0  0  0
 33 34  1  0  0  0  0
 33 35  1  0  0  0  0
 33 36  1  0  0  0  0
 31 32  1  0  0  0  0
 31 33  1  0  0  0  0
M  END
$$$$
default_name
  -OEChem-02102213163D

 36 37  0     1  0  0  0  0  0999 V2000
   -4.0843   -4.0736    1.2944 H   0  0  0  0  0  0  0  0  0  0  0  0
   -4.0342   -3.2816    0.5484 C   0  0  0  0  0  0  0  0  0  0  0  0
   -4.8842   -2.6126    0.6694 H   0  0  0  0  0  0  0  0  0  0  0  0
   -4.0433   -3.7186   -0.4486 H   0  0  0  0  0  0  0  0  0  0  0  0
   -2.7532   -2.5046    0.7444 C   0  0  0  0  0  0  0  0  0  0  0  0
   -1.9803   -2.8096    1.6434 O   0  0  0  0  0  0  0  0  0  0  0  0
   -2.5332   -1.4966   -0.0966 N   0  0  0  0  0  0  0  0  0  0  0  0
   -3.2312   -1.2816   -0.7936 H   0  0  0  0  0  0  0  0  0  0  0  0
   -1.3593   -0.6196   -0.0536 C   0  0  1  0  0  0  0  0  0  0  0  0
   -0.8788   -0.7266    0.9196 H   0  0  0  0  0  0  0  0  0  0  0  0
   -0.3559   -1.0533   -1.1339 C   0  0  0  0  0  0  0  0  0  0  0  0
   -0.2772   -2.1419   -1.1240 H   0  0  0  0  0  0  0  0  0  0  0  0
   -0.7472   -0.7594   -2.1093 H   0  0  0  0  0  0  0  0  0  0  0  0
    1.0239   -0.4876   -0.9854 C   0  0  0  0  0  0  0  0  0  0  0  0
    1.3195    0.8009   -0.7025 C   0  0  0  0  0  0  0  0  0  0  0  0
    0.5850    1.5873   -0.5671 H   0  0  0  0  0  0  0  0  0  0  0  0
    2.6883    0.9502   -0.5942 N   0  0  0  0  0  0  0  0  0  0  0  0
    3.1382    1.8309   -0.3912 H   0  0  0  0  0  0  0  0  0  0  0  0
    3.3461   -0.2460   -0.7868 C   0  0  0  0  0  0  0  0  0  0  0  0
    4.6994   -0.6118   -0.7509 C   0  0  0  0  0  0  0  0  0  0  0  0
    5.4605    0.1257   -0.5424 H   0  0  0  0  0  0  0  0  0  0  0  0
    5.0513   -1.9509   -0.9918 C   0  0  0  0  0  0  0  0  0  0  0  0
    6.0901   -2.2513   -0.9693 H   0  0  0  0  0  0  0  0  0  0  0  0
    4.0502   -2.8997   -1.2692 C   0  0  0  0  0  0  0  0  0  0  0  0
    4.3261   -3.9272   -1.4622 H   0  0  0  0  0  0  0  0  0  0  0  0
    2.6933   -2.5203   -1.3047 C   0  0  0  0  0  0  0  0  0  0  0  0
    1.9355   -3.2565   -1.5321 H   0  0  0  0  0  0  0  0  0  0  0  0
    2.3068   -1.1846   -1.0609 C   0  0  0  0  0  0  0  0  0  0  0  0
   -1.7617    0.8549   -0.2106 C   0  0  0  0  0  0  0  0  0  0  0  0
   -2.5726    1.1871   -1.0741 O   0  0  0  0  0  0  0  0  0  0  0  0
   -1.1941    1.7377    0.6223 N   0  0  0  0  0  0  0  0  0  0  0  0
   -0.4976    1.3916    1.2669 H   0  0  0  0  0  0  0  0  0  0  0  0
   -1.4666    3.1722    0.6095 C   0  0  0  0  0  0  0  0  0  0  0  0
   -2.5439    3.3427    0.6539 H   0  0  0  0  0  0  0  0  0  0  0  0
   -0.9893    3.6529    1.4644 H   0  0  0  0  0  0  0  0  0  0  0  0
   -1.0808    3.6095   -0.3129 H   0  0  0  0  0  0  0  0  0  0  0  0
  5  6  2  0  0  0  0
  5  7  1  0  0  0  0
  2  3  1  0  0  0  0
  2  4  1  0  0  0  0
  2  5  1  0  0  0  0
  1  2  1  0  0  0  0
 29 30  2  0  0  0  0
 29 31  1  0  0  0  0
 26 27  1  0  0  0  0
 26 28  2  0  0  0  0
 24 25  1  0  0  0  0
 24 26  1  0  0  0  0
 22 23  1  0  0  0  0
 22 24  2  0  0  0  0
 20 21  1  0  0  0  0
 20 22  1  0  0  0  0
 19 20  2  0  0  0  0
 19 28  1  0  0  0  0
 17 18  1  0  0  0  0
 17 19  1  0  0  0  0
 15 16  1  0  0  0  0
 15 17  1  0  0  0  0
 14 15  2  0  0  0  0
 14 28  1  0  0  0  0
 11 12  1  0  0  0  0
 11 13  1  0  0  0  0
 11 14  1  0  0  0  0
  9 10  1  0  0  0  0
  9 11  1  0  0  0  0
  9 29  1  0  0  0  0
  7  8  1  0  0  0  0
  7  9  1  0  0  0  0
 33 34  1  0  0  0  0
 33 35  1  0  0  0  0
 33 36  1  0  0  0  0
 31 32  1  0  0  0  0
 31 33  1  0  0  0  0
M  END
$$$$
default_name
  -OEChem-02102213163D

 36 37  0     1  0  0  0  0  0999 V2000
   -4.0843   -4.0736    1.2944 H   0  0  0  0  0  0  0  0  0  0  0  0
   -4.0342   -3.2816    0.5484 C   0  0  0  0  0  0  0  0  0  0  0  0
   -4.8842   -2.6126    0.6694 H   0  0  0  0  0  0  0  0  0  0  0  0
   -4.0433   -3.7186   -0.4486 H   0  0  0  0  0  0  0  0  0  0  0  0
   -2.7532   -2.5046    0.7444 C   0  0  0  0  0  0  0  0  0  0  0  0
   -1.9803   -2.8096    1.6434 O   0  0  0  0  0  0  0  0  0  0  0  0
   -2.5332   -1.4966   -0.0966 N   0  0  0  0  0  0  0  0  0  0  0  0
   -3.2312   -1.2816   -0.7936 H   0  0  0  0  0  0  0  0  0  0  0  0
   -1.3593   -0.6196   -0.0536 C   0  0  1  0  0  0  0  0  0  0  0  0
   -0.8788   -0.7266    0.9196 H   0  0  0  0  0  0  0  0  0  0  0  0
   -0.3559   -1.0533   -1.1339 C   0  0  0  0  0  0  0  0  0  0  0  0
   -0.2772   -2.1419   -1.1240 H   0  0  0  0  0  0  0  0  0  0  0  0
   -0.7472   -0.7594   -2.1093 H   0  0  0  0  0  0  0  0  0  0  0  0
    1.0239   -0.4876   -0.9854 C   0  0  0  0  0  0  0  0  0  0  0  0
    1.3287    0.7073   -0.4313 C   0  0  0  0  0  0  0  0  0  0  0  0
    0.6008    1.4110   -0.0426 H   0  0  0  0  0  0  0  0  0  0  0  0
    2.6992    0.8779   -0.4204 N   0  0  0  0  0  0  0  0  0  0  0  0
    3.1552    1.7015   -0.0558 H   0  0  0  0  0  0  0  0  0  0  0  0
    3.3508   -0.2131   -0.9553 C   0  0  0  0  0  0  0  0  0  0  0  0
    4.7056   -0.5260   -1.1363 C   0  0  0  0  0  0  0  0  0  0  0  0
    5.4736    0.1690   -0.8301 H   0  0  0  0  0  0  0  0  0  0  0  0
    5.0499   -1.7557   -1.7232 C   0  0  0  0  0  0  0  0  0  0  0  0
    6.0898   -2.0137   -1.8716 H   0  0  0  0  0  0  0  0  0  0  0  0
    4.0391   -2.6485   -2.1238 C   0  0  0  0  0  0  0  0  0  0  0  0
    4.3083   -3.5899   -2.5825 H   0  0  0  0  0  0  0  0  0  0  0  0
    2.6805   -2.3227   -1.9388 C   0  0  0  0  0  0  0  0  0  0  0  0
    1.9138   -3.0118   -2.2632 H   0  0  0  0  0  0  0  0  0  0  0  0
    2.3021   -1.0983   -1.3467 C   0  0  0  0  0  0  0  0  0  0  0  0
   -1.7617    0.8549   -0.2106 C   0  0  0  0  0  0  0  0  0  0  0  0
   -2.5726    1.1871   -1.0741 O   0  0  0  0  0  0  0  0  0  0  0  0
   -1.1941    1.7377    0.6223 N   0  0  0  0  0  0  0  0  0  0  0  0
   -0.4976    1.3916    1.2669 H   0  0  0  0  0  0  0  0  0  0  0  0
   -1.4666    3.1722    0.6095 C   0  0  0  0  0  0  0  0  0  0  0  0
   -2.5439    3.3427    0.6539 H   0  0  0  0  0  0  0  0  0  0  0  0
   -0.9893    3.6529    1.4644 H   0  0  0  0  0  0  0  0  0  0  0  0
   -1.0808    3.6095   -0.3129 H   0  0  0  0  0  0  0  0  0  0  0  0
  5  6  2  0  0  0  0
  5  7  1  0  0  0  0
  2  3  1  0  0  0  0
  2  4  1  0  0  0  0
  2  5  1  0  0  0  0
  1  2  1  0  0  0  0
 29 30  2  0  0  0  0
 29 31  1  0  0  0  0
 26 27  1  0  0  0  0
 26 28  2  0  0  0  0
 24 25  1  0  0  0  0
 24 26  1  0  0  0  0
 22 23  1  0  0  0  0
 22 24  2  0  0  0  0
 20 21  1  0  0  0  0
 20 22  1  0  0  0  0
 19 20  2  0  0  0  0
 19 28  1  0  0  0  0
 17 18  1  0  0  0  0
 17 19  1  0  0  0  0
 15 16  1  0  0  0  0
 15 17  1  0  0  0  0
 14 15  2  0  0  0  0
 14 28  1  0  0  0  0
 11 12  1  0  0  0  0
 11 13  1  0  0  0  0
 11 14  1  0  0  0  0
  9 10  1  0  0  0  0
  9 11  1  0  0  0  0
  9 29  1  0  0  0  0
  7  8  1  0  0  0  0
  7  9  1  0  0  0  0
 33 34  1  0  0  0  0
 33 35  1  0  0  0  0
 33 36  1  0  0  0  0
 31 32  1  0  0  0  0
 31 33  1  0  0  0  0
M  END
$$$$
default_name
  -OEChem-02102213163D

 36 37  0     1  0  0  0  0  0999 V2000
   -4.0843   -4.0736    1.2944 H   0  0  0  0  0  0  0  0  0  0  0  0
   -4.0342   -3.2816    0.5484 C   0  0  0  0  0  0  0  0  0  0  0  0
   -4.8842   -2.6126    0.6694 H   0  0  0  0  0  0  0  0  0  0  0  0
   -4.0433   -3.7186   -0.4486 H   0  0  0  0  0  0  0  0  0  0  0  0
   -2.7532   -2.5046    0.7444 C   0  0  0  0  0  0  0  0  0  0  0  0
   -1.9803   -2.8096    1.6434 O   0  0  0  0  0  0  0  0  0  0  0  0
   -2.5332   -1.4966   -0.0966 N   0  0  0  0  0  0  0  0  0  0  0  0
   -3.2312   -1.2816   -0.7936 H   0  0  0  0  0  0  0  0  0  0  0  0
   -1.3593   -0.6196   -0.0536 C   0  0  1  0  0  0  0  0  0  0  0  0
   -0.8788   -0.7266    0.9196 H   0  0  0  0  0  0  0  0  0  0  0  0
   -0.3559   -1.0533   -1.1339 C   0  0  0  0  0  0  0  0  0  0  0  0
   -0.2772   -2.1419   -1.1240 H   0  0  0  0  0  0  0  0  0  0  0  0
   -0.7472   -0.7594   -2.1093 H   0  0  0  0  0  0  0  0  0  0  0  0
    1.0239   -0.4876   -0.9854 C   0  0  0  0  0  0  0  0  0  0  0  0
    1.3665    0.5525   -0.1926 C   0  0  0  0  0  0  0  0  0  0  0  0
    0.6719    1.1162    0.4204 H   0  0  0  0  0  0  0  0  0  0  0  0
    2.7287    0.7668   -0.2708 N   0  0  0  0  0  0  0  0  0  0  0  0
    3.2076    1.4971    0.2357 H   0  0  0  0  0  0  0  0  0  0  0  0
    3.3379   -0.1410   -1.1107 C   0  0  0  0  0  0  0  0  0  0  0  0
    4.6719   -0.3511   -1.4887 C   0  0  0  0  0  0  0  0  0  0  0  0
    5.4571    0.2798   -1.0990 H   0  0  0  0  0  0  0  0  0  0  0  0
    4.9721   -1.3929   -2.3829 C   0  0  0  0  0  0  0  0  0  0  0  0
    5.9952   -1.5692   -2.6866 H   0  0  0  0  0  0  0  0  0  0  0  0
    3.9385   -2.2026   -2.8883 C   0  0  0  0  0  0  0  0  0  0  0  0
    4.1731   -2.9977   -3.5825 H   0  0  0  0  0  0  0  0  0  0  0  0
    2.6011   -1.9810   -2.5030 C   0  0  0  0  0  0  0  0  0  0  0  0
    1.8152   -2.6019   -2.9090 H   0  0  0  0  0  0  0  0  0  0  0  0
    2.2675   -0.9469   -1.6017 C   0  0  0  0  0  0  0  0  0  0  0  0
   -1.7617    0.8549   -0.2106 C   0  0  0  0  0  0  0  0  0  0  0  0
   -2.5726    1.1871   -1.0741 O   0  0  0  0  0  0  0  0  0  0  0  0
   -1.1941    1.7377    0.6223 N   0  0  0  0  0  0  0  0  0  0  0  0
   -0.4976    1.3916    1.2669 H   0  0  0  0  0  0  0  0  0  0  0  0
   -1.4666    3.1722    0.6095 C   0  0  0  0  0  0  0  0  0  0  0  0
   -2.5439    3.3427    0.6539 H   0  0  0  0  0  0  0  0  0  0  0  0
   -0.9893    3.6529    1.4644 H   0  0  0  0  0  0  0  0  0  0  0  0
   -1.0808    3.6095   -0.3129 H   0  0  0  0  0  0  0  0  0  0  0  0
  5  6  2  0  0  0  0
  5  7  1  0  0  0  0
  2  3  1  0  0  0  0
  2  4  1  0  0  0  0
  2  5  1  0  0  0  0
  1  2  1  0  0  0  0
 29 30  2  0  0  0  0
 29 31  1  0  0  0  0
 26 27  1  0  0  0  0
 26 28  2  0  0  0  0
 24 25  1  0  0  0  0
 24 26  1  0  0  0  0
 22 23  1  0  0  0  0
 22 24  2  0  0  0  0
 20 21  1  0  0  0  0
 20 22  1  0  0  0  0
 19 20  2  0  0  0  0
 19 28  1  0  0  0  0
 17 18  1  0  0  0  0
 17 19  1  0  0  0  0
 15 16  1  0  0  0  0
 15 17  1  0  0  0  0
 14 15  2  0  0  0  0
 14 28  1  0  0  0  0
 11 12  1  0  0  0  0
 11 13  1  0  0  0  0
 11 14  1  0  0  0  0
  9 10  1  0  0  0  0
  9 11  1  0  0  0  0
  9 29  1  0  0  0  0
  7  8  1  0  0  0  0
  7  9  1  0  0  0  0
 33 34  1  0  0  0  0
 33 35  1  0  0  0  0
 33 36  1  0  0  0  0
 31 32  1  0  0  0  0
 31 33  1  0  0  0  0
M  END
$$$$
default_name
  -OEChem-02102213163D

 36 37  0     1  0  0  0  0  0999 V2000
   -4.0843   -4.0736    1.2944 H   0  0  0  0  0  0  0  0  0  0  0  0
   -4.0342   -3.2816    0.5484 C   0  0  0  0  0  0  0  0  0  0  0  0
   -4.8842   -2.6126    0.6694 H   0  0  0  0  0  0  0  0  0  0  0  0
   -4.0433   -3.7186   -0.4486 H   0  0  0  0  0  0  0  0  0  0  0  0
   -2.7532   -2.5046    0.7444 C   0  0  0  0  0  0  0  0  0  0  0  0
   -1.9803   -2.8096    1.6434 O   0  0  0  0  0  0  0  0  0  0  0  0
   -2.5332   -1.4966   -0.0966 N   0  0  0  0  0  0  0  0  0  0  0  0
   -3.2312   -1.2816   -0.7936 H   0  0  0  0  0  0  0  0  0  0  0  0
   -1.3593   -0.6196   -0.0536 C   0  0  1  0  0  0  0  0  0  0  0  0
   -0.8788   -0.7266    0.9196 H   0  0  0  0  0  0  0  0  0  0  0  0
   -0.3559   -1.0533   -1.1339 C   0  0  0  0  0  0  0  0  0  0  0  0
   -0.2772   -2.1419   -1.1240 H   0  0  0  0  0  0  0  0  0  0  0  0
   -0.7472   -0.7594   -2.1093 H   0  0  0  0  0  0  0  0  0  0  0  0
    1.0239   -0.4876   -0.9854 C   0  0  0  0  0  0  0  0  0  0  0  0
    1.4303    0.3470   -0.0026 C   0  0  0  0  0  0  0  0  0  0  0  0
    0.7933    0.7230    0.7905 H   0  0  0  0  0  0  0  0  0  0  0  0
    2.7746    0.6247   -0.1557 N   0  0  0  0  0  0  0  0  0  0  0  0
    3.2920    1.2315    0.4634 H   0  0  0  0  0  0  0  0  0  0  0  0
    3.3085   -0.0347   -1.2423 C   0  0  0  0  0  0  0  0  0  0  0  0
    4.6003   -0.0991   -1.7841 C   0  0  0  0  0  0  0  0  0  0  0  0
    5.4121    0.4505   -1.3307 H   0  0  0  0  0  0  0  0  0  0  0  0
    4.8233   -0.8872   -2.9261 C   0  0  0  0  0  0  0  0  0  0  0  0
    5.8128   -0.9481   -3.3585 H   0  0  0  0  0  0  0  0  0  0  0  0
    3.7553   -1.5922   -3.5106 C   0  0  0  0  0  0  0  0  0  0  0  0
    3.9295   -2.1907   -4.3941 H   0  0  0  0  0  0  0  0  0  0  0  0
    2.4606   -1.5186   -2.9587 C   0  0  0  0  0  0  0  0  0  0  0  0
    1.6463   -2.0545   -3.4255 H   0  0  0  0  0  0  0  0  0  0  0  0
    2.2052   -0.7408   -1.8086 C   0  0  0  0  0  0  0  0  0  0  0  0
   -1.7617    0.8549   -0.2106 C   0  0  0  0  0  0  0  0  0  0  0  0
   -2.5726    1.1871   -1.0741 O   0  0  0  0  0  0  0  0  0  0  0  0
   -1.1941    1.7377    0.6223 N   0  0  0  0  0  0  0  0  0  0  0  0
   -0.4976    1.3916    1.2669 H   0  0  0  0  0  0  0  0  0  0  0  0
   -1.4666    3.1722    0.6095 C   0  0  0  0  0  0  0  0  0  0  0  0
   -2.5439    3.3427    0.6539 H   0  0  0  0  0  0  0  0  0  0  0  0
   -0.9893    3.6529    1.4644 H   0  0  0  0  0  0  0  0  0  0  0  0
   -1.0808    3.6095   -0.3129 H   0  0  0  0  0  0  0  0  0  0  0  0
  5  6  2  0  0  0  0
  5  7  1  0  0  0  0
  2  3  1  0  0  0  0
  2  4  1  0  0  0  0
  2  5  1  0  0  0  0
  1  2  1  0  0  0  0
 29 30  2  0  0  0  0
 29 31  1  0  0  0  0
 26 27  1  0  0  0  0
 26 28  2  0  0  0  0
 24 25  1  0  0  0  0
 24 26  1  0  0  0  0
 22 23  1  0  0  0  0
 22 24  2  0  0  0  0
 20 21  1  0  0  0  0
 20 22  1  0  0  0  0
 19 20  2  0  0  0  0
 19 28  1  0  0  0  0
 17 18  1  0  0  0  0
 17 19  1  0  0  0  0
 15 16  1  0  0  0  0
 15 17  1  0  0  0  0
 14 15  2  0  0  0  0
 14 28  1  0  0  0  0
 11 12  1  0  0  0  0
 11 13  1  0  0  0  0
 11 14  1  0  0  0  0
  9 10  1  0  0  0  0
  9 11  1  0  0  0  0
  9 29  1  0  0  0  0
  7  8  1  0  0  0  0
  7  9  1  0  0  0  0
 33 34  1  0  0  0  0
 33 35  1  0  0  0  0
 33 36  1  0  0  0  0
 31 32  1  0  0  0  0
 31 33  1  0  0  0  0
M  END
$$$$
default_name
  -OEChem-02102213163D

 36 37  0     1  0  0  0  0  0999 V2000
   -4.0843   -4.0736    1.2944 H   0  0  0  0  0  0  0  0  0  0  0  0
   -4.0342   -3.2816    0.5484 C   0  0  0  0  0  0  0  0  0  0  0  0
   -4.8842   -2.6126    0.6694 H   0  0  0  0  0  0  0  0  0  0  0  0
   -4.0433   -3.7186   -0.4486 H   0  0  0  0  0  0  0  0  0  0  0  0
   -2.7532   -2.5046    0.7444 C   0  0  0  0  0  0  0  0  0  0  0  0
   -1.9803   -2.8096    1.6434 O   0  0  0  0  0  0  0  0  0  0  0  0
   -2.5332   -1.4966   -0.0966 N   0  0  0  0  0  0  0  0  0  0  0  0
   -3.2312   -1.2816   -0.7936 H   0  0  0  0  0  0  0  0  0  0  0  0
   -1.3593   -0.6196   -0.0536 C   0  0  1  0  0  0  0  0  0  0  0  0
   -0.8788   -0.7266    0.9196 H   0  0  0  0  0  0  0  0  0  0  0  0
   -0.3559   -1.0533   -1.1339 C   0  0  0  0  0  0  0  0  0  0  0  0
   -0.2772   -2.1419   -1.1240 H   0  0  0  0  0  0  0  0  0  0  0  0
   -0.7472   -0.7594   -2.1093 H   0  0  0  0  0  0  0  0  0  0  0  0
    1.0239   -0.4876   -0.9854 C   0  0  0  0  0  0  0  0  0  0  0  0
    1.5158    0.1049    0.1258 C   0  0  0  0  0  0  0  0  0  0  0  0
    0.9569    0.2580    1.0424 H   0  0  0  0  0  0  0  0  0  0  0  0
    2.8338    0.4611   -0.0828 N   0  0  0  0  0  0  0  0  0  0  0  0
    3.4026    0.9229    0.6118 H   0  0  0  0  0  0  0  0  0  0  0  0
    3.2645    0.0986   -1.3413 C   0  0  0  0  0  0  0  0  0  0  0  0
    4.4959    0.2129   -2.0024 C   0  0  0  0  0  0  0  0  0  0  0  0
    5.3416    0.6693   -1.5094 H   0  0  0  0  0  0  0  0  0  0  0  0
    4.6134   -0.2732   -3.3158 C   0  0  0  0  0  0  0  0  0  0  0  0
    5.5551   -0.1927   -3.8418 H   0  0  0  0  0  0  0  0  0  0  0  0
    3.5017   -0.8591   -3.9485 C   0  0  0  0  0  0  0  0  0  0  0  0
    3.5943   -1.2241   -4.9620 H   0  0  0  0  0  0  0  0  0  0  0  0
    2.2684   -0.9669   -3.2750 C   0  0  0  0  0  0  0  0  0  0  0  0
    1.4187   -1.4071   -3.7774 H   0  0  0  0  0  0  0  0  0  0  0  0
    2.1196   -0.4940   -1.9532 C   0  0  0  0  0  0  0  0  0  0  0  0
   -1.7617    0.8549   -0.2106 C   0  0  0  0  0  0  0  0  0  0  0  0
   -2.5726    1.1871   -1.0741 O   0  0  0  0  0  0  0  0  0  0  0  0
   -1.1941    1.7377    0.6223 N   0  0  0  0  0  0  0  0  0  0  0  0
   -0.4976    1.3916    1.2669 H   0  0  0  0  0  0  0  0  0  0  0  0
   -1.4666    3.1722    0.6095 C   0  0  0  0  0  0  0  0  0  0  0  0
   -2.5439    3.3427    0.6539 H   0  0  0  0  0  0  0  0  0  0  0  0
   -0.9893    3.6529    1.4644 H   0  0  0  0  0  0  0  0  0  0  0  0
   -1.0808    3.6095   -0.3129 H   0  0  0  0  0  0  0  0  0  0  0  0
  5  6  2  0  0  0  0
  5  7  1  0  0  0  0
  2  3  1  0  0  0  0
  2  4  1  0  0  0  0
  2  5  1  0  0  0  0
  1  2  1  0  0  0  0
 29 30  2  0  0  0  0
 29 31  1  0  0  0  0
 26 27  1  0  0  0  0
 26 28  2  0  0  0  0
 24 25  1  0  0  0  0
 24 26  1  0  0  0  0
 22 23  1  0  0  0  0
 22 24  2  0  0  0  0
 20 21  1  0  0  0  0
 20 22  1  0  0  0  0
 19 20  2  0  0  0  0
 19 28  1  0  0  0  0
 17 18  1  0  0  0  0
 17 19  1  0  0  0  0
 15 16  1  0  0  0  0
 15 17  1  0  0  0  0
 14 15  2  0  0  0  0
 14 28  1  0  0  0  0
 11 12  1  0  0  0  0
 11 13  1  0  0  0  0
 11 14  1  0  0  0  0
  9 10  1  0  0  0  0
  9 11  1  0  0  0  0
  9 29  1  0  0  0  0
  7  8  1  0  0  0  0
  7  9  1  0  0  0  0
 33 34  1  0  0  0  0
 33 35  1  0  0  0  0
 33 36  1  0  0  0  0
 31 32  1  0  0  0  0
 31 33  1  0  0  0  0
M  END
$$$$
default_name
  -OEChem-02102213163D

 36 37  0     1  0  0  0  0  0999 V2000
   -4.0843   -4.0736    1.2944 H   0  0  0  0  0  0  0  0  0  0  0  0
   -4.0342   -3.2816    0.5484 C   0  0  0  0  0  0  0  0  0  0  0  0
   -4.8842   -2.6126    0.6694 H   0  0  0  0  0  0  0  0  0  0  0  0
   -4.0433   -3.7186   -0.4486 H   0  0  0  0  0  0  0  0  0  0  0  0
   -2.7532   -2.5046    0.7444 C   0  0  0  0  0  0  0  0  0  0  0  0
   -1.9803   -2.8096    1.6434 O   0  0  0  0  0  0  0  0  0  0  0  0
   -2.5332   -1.4966   -0.0966 N   0  0  0  0  0  0  0  0  0  0  0  0
   -3.2312   -1.2816   -0.7936 H   0  0  0  0  0  0  0  0  0  0  0  0
   -1.3593   -0.6196   -0.0536 C   0  0  1  0  0  0  0  0  0  0  0  0
   -0.8788   -0.7266    0.9196 H   0  0  0  0  0  0  0  0  0  0  0  0
   -0.3559   -1.0533   -1.1339 C   0  0  0  0  0  0  0  0  0  0  0  0
   -0.2772   -2.1419   -1.1240 H   0  0  0  0  0  0  0  0  0  0  0  0
   -0.7472   -0.7594   -2.1093 H   0  0  0  0  0  0  0  0  0  0  0  0
    1.0239   -0.4876   -0.9854 C   0  0  0  0  0  0  0  0  0  0  0  0
    1.6171   -0.1574    0.1837 C   0  0  0  0  0  0  0  0  0  0  0  0
    1.1513   -0.2469    1.1590 H   0  0  0  0  0  0  0  0  0  0  0  0
    2.9023    0.2873   -0.0572 N   0  0  0  0  0  0  0  0  0  0  0  0
    3.5318    0.5923    0.6708 H   0  0  0  0  0  0  0  0  0  0  0  0
    3.2089    0.2498   -1.4008 C   0  0  0  0  0  0  0  0  0  0  0  0
    4.3657    0.5636   -2.1287 C   0  0  0  0  0  0  0  0  0  0  0  0
    5.2504    0.9216   -1.6230 H   0  0  0  0  0  0  0  0  0  0  0  0
    4.3569    0.4074   -3.5254 C   0  0  0  0  0  0  0  0  0  0  0  0
    5.2395    0.6455   -4.1034 H   0  0  0  0  0  0  0  0  0  0  0  0
    3.1953   -0.0530   -4.1719 C   0  0  0  0  0  0  0  0  0  0  0  0
    3.1903   -0.1638   -5.2474 H   0  0  0  0  0  0  0  0  0  0  0  0
    2.0377   -0.3636   -3.4303 C   0  0  0  0  0  0  0  0  0  0  0  0
    1.1479   -0.7036   -3.9408 H   0  0  0  0  0  0  0  0  0  0  0  0
    2.0164   -0.2234   -2.0258 C   0  0  0  0  0  0  0  0  0  0  0  0
   -1.7617    0.8549   -0.2106 C   0  0  0  0  0  0  0  0  0  0  0  0
   -2.5726    1.1871   -1.0741 O   0  0  0  0  0  0  0  0  0  0  0  0
   -1.1941    1.7377    0.6223 N   0  0  0  0  0  0  0  0  0  0  0  0
   -0.4976    1.3916    1.2669 H   0  0  0  0  0  0  0  0  0  0  0  0
   -1.4666    3.1722    0.6095 C   0  0  0  0  0  0  0  0  0  0  0  0
   -2.5439    3.3427    0.6539 H   0  0  0  0  0  0  0  0  0  0  0  0
   -0.9893    3.6529    1.4644 H   0  0  0  0  0  0  0  0  0  0  0  0
   -1.0808    3.6095   -0.3129 H   0  0  0  0  0  0  0  0  0  0  0  0
  5  6  2  0  0  0  0
  5  7  1  0  0  0  0
  2  3  1  0  0  0  0
  2  4  1  0  0  0  0
  2  5  1  0  0  0  0
  1  2  1  0  0  0  0
 29 30  2  0  0  0  0
 29 31  1  0  0  0  0
 26 27  1  0  0  0  0
 26 28  2  0  0  0  0
 24 25  1  0  0  0  0
 24 26  1  0  0  0  0
 22 23  1  0  0  0  0
 22 24  2  0  0  0  0
 20 21  1  0  0  0  0
 20 22  1  0  0  0  0
 19 20  2  0  0  0  0
 19 28  1  0  0  0  0
 17 18  1  0  0  0  0
 17 19  1  0  0  0  0
 15 16  1  0  0  0  0
 15 17  1  0  0  0  0
 14 15  2  0  0  0  0
 14 28  1  0  0  0  0
 11 12  1  0  0  0  0
 11 13  1  0  0  0  0
 11 14  1  0  0  0  0
  9 10  1  0  0  0  0
  9 11  1  0  0  0  0
  9 29  1  0  0  0  0
  7  8  1  0  0  0  0
  7  9  1  0  0  0  0
 33 34  1  0  0  0  0
 33 35  1  0  0  0  0
 33 36  1  0  0  0  0
 31 32  1  0  0  0  0
 31 33  1  0  0  0  0
M  END
$$$$
default_name
  -OEChem-02102213163D

 36 37  0     1  0  0  0  0  0999 V2000
   -4.0843   -4.0736    1.2944 H   0  0  0  0  0  0  0  0  0  0  0  0
   -4.0342   -3.2816    0.5484 C   0  0  0  0  0  0  0  0  0  0  0  0
   -4.8842   -2.6126    0.6694 H   0  0  0  0  0  0  0  0  0  0  0  0
   -4.0433   -3.7186   -0.4486 H   0  0  0  0  0  0  0  0  0  0  0  0
   -2.7532   -2.5046    0.7444 C   0  0  0  0  0  0  0  0  0  0  0  0
   -1.9803   -2.8096    1.6434 O   0  0  0  0  0  0  0  0  0  0  0  0
   -2.5332   -1.4966   -0.0966 N   0  0  0  0  0  0  0  0  0  0  0  0
   -3.2312   -1.2816   -0.7936 H   0  0  0  0  0  0  0  0  0  0  0  0
   -1.3593   -0.6196   -0.0536 C   0  0  1  0  0  0  0  0  0  0  0  0
   -0.8788   -0.7266    0.9196 H   0  0  0  0  0  0  0  0  0  0  0  0
   -0.3559   -1.0533   -1.1339 C   0  0  0  0  0  0  0  0  0  0  0  0
   -0.2772   -2.1419   -1.1240 H   0  0  0  0  0  0  0  0  0  0  0  0
   -0.7472   -0.7594   -2.1093 H   0  0  0  0  0  0  0  0  0  0  0  0
    1.0239   -0.4876   -0.9854 C   0  0  0  0  0  0  0  0  0  0  0  0
    1.7273   -0.4219    0.1672 C   0  0  0  0  0  0  0  0  0  0  0  0
    1.3635   -0.7574    1.1322 H   0  0  0  0  0  0  0  0  0  0  0  0
    2.9754    0.1150   -0.0806 N   0  0  0  0  0  0  0  0  0  0  0  0
    3.6708    0.2621    0.6364 H   0  0  0  0  0  0  0  0  0  0  0  0
    3.1456    0.4086   -1.4168 C   0  0  0  0  0  0  0  0  0  0  0  0
    4.2186    0.9291   -2.1544 C   0  0  0  0  0  0  0  0  0  0  0  0
    5.1447    1.1899   -1.6637 H   0  0  0  0  0  0  0  0  0  0  0  0
    4.0712    1.1082   -3.5405 C   0  0  0  0  0  0  0  0  0  0  0  0
    4.8877    1.5095   -4.1255 H   0  0  0  0  0  0  0  0  0  0  0  0
    2.8568    0.7709   -4.1657 C   0  0  0  0  0  0  0  0  0  0  0  0
    2.7449    0.9181   -5.2310 H   0  0  0  0  0  0  0  0  0  0  0  0
    1.7843    0.2503   -3.4140 C   0  0  0  0  0  0  0  0  0  0  0  0
    0.8523    0.0078   -3.9046 H   0  0  0  0  0  0  0  0  0  0  0  0
    1.9028    0.0527   -2.0213 C   0  0  0  0  0  0  0  0  0  0  0  0
   -1.7617    0.8549   -0.2106 C   0  0  0  0  0  0  0  0  0  0  0  0
   -2.5726    1.1871   -1.0741 O   0  0  0  0  0  0  0  0  0  0  0  0
   -1.1941    1.7377    0.6223 N   0  0  0  0  0  0  0  0  0  0  0  0
   -0.4976    1.3916    1.2669 H   0  0  0  0  0  0  0  0  0  0  0  0
   -1.4666    3.1722    0.6095 C   0  0  0  0  0  0  0  0  0  0  0  0
   -2.5439    3.3427    0.6539 H   0  0  0  0  0  0  0  0  0  0  0  0
   -0.9893    3.6529    1.4644 H   0  0  0  0  0  0  0  0  0  0  0  0
   -1.0808    3.6095   -0.3129 H   0  0  0  0  0  0  0  0  0  0  0  0
  5  6  2  0  0  0  0
  5  7  1  0  0  0  0
  2  3  1  0  0  0  0
  2  4  1  0  0  0  0
  2  5  1  0  0  0  0
  1  2  1  0  0  0  0
 29 30  2  0  0  0  0
 29 31  1  0  0  0  0
 26 27  1  0  0  0  0
 26 28  2  0  0  0  0
 24 25  1  0  0  0  0
 24 26  1  0  0  0  0
 22 23  1  0  0  0  0
 22 24  2  0  0  0  0
 20 21  1  0  0  0  0
 20 22  1  0  0  0  0
 19 20  2  0  0  0  0
 19 28  1  0  0  0  0
 17 18  1  0  0  0  0
 17 19  1  0  0  0  0
 15 16  1  0  0  0  0
 15 17  1  0  0  0  0
 14 15  2  0  0  0  0
 14 28  1  0  0  0  0
 11 12  1  0  0  0  0
 11 13  1  0  0  0  0
 11 14  1  0  0  0  0
  9 10  1  0  0  0  0
  9 11  1  0  0  0  0
  9 29  1  0  0  0  0
  7  8  1  0  0  0  0
  7  9  1  0  0  0  0
 33 34  1  0  0  0  0
 33 35  1  0  0  0  0
 33 36  1  0  0  0  0
 31 32  1  0  0  0  0
 31 33  1  0  0  0  0
M  END
$$$$
default_name
  -OEChem-02102213163D

 36 37  0     1  0  0  0  0  0999 V2000
   -4.0843   -4.0736    1.2944 H   0  0  0  0  0  0  0  0  0  0  0  0
   -4.0342   -3.2816    0.5484 C   0  0  0  0  0  0  0  0  0  0  0  0
   -4.8842   -2.6126    0.6694 H   0  0  0  0  0  0  0  0  0  0  0  0
   -4.0433   -3.7186   -0.4486 H   0  0  0  0  0  0  0  0  0  0  0  0
   -2.7532   -2.5046    0.7444 C   0  0  0  0  0  0  0  0  0  0  0  0
   -1.9803   -2.8096    1.6434 O   0  0  0  0  0  0  0  0  0  0  0  0
   -2.5332   -1.4966   -0.0966 N   0  0  0  0  0  0  0  0  0  0  0  0
   -3.2312   -1.2816   -0.7936 H   0  0  0  0  0  0  0  0  0  0  0  0
   -1.3593   -0.6196   -0.0536 C   0  0  1  0  0  0  0  0  0  0  0  0
   -0.8788   -0.7266    0.9196 H   0  0  0  0  0  0  0  0  0  0  0  0
   -0.3559   -1.0533   -1.1339 C   0  0  0  0  0  0  0  0  0  0  0  0
   -0.2772   -2.1419   -1.1240 H   0  0  0  0  0  0  0  0  0  0  0  0
   -0.7472   -0.7594   -2.1093 H   0  0  0  0  0  0  0  0  0  0  0  0
    1.0239   -0.4876   -0.9854 C   0  0  0  0  0  0  0  0  0  0  0  0
    1.8390   -0.6707    0.0775 C   0  0  0  0  0  0  0  0  0  0  0  0
    1.5790   -1.2388    0.9640 H   0  0  0  0  0  0  0  0  0  0  0  0
    3.0482   -0.0439   -0.1513 N   0  0  0  0  0  0  0  0  0  0  0  0
    3.8103   -0.0450    0.5109 H   0  0  0  0  0  0  0  0  0  0  0  0
    3.0787    0.5641   -1.3883 C   0  0  0  0  0  0  0  0  0  0  0  0
    4.0646    1.2845   -2.0778 C   0  0  0  0  0  0  0  0  0  0  0  0
    5.0318    1.4561   -1.6288 H   0  0  0  0  0  0  0  0  0  0  0  0
    3.7758    1.7814   -3.3603 C   0  0  0  0  0  0  0  0  0  0  0  0
    4.5235    2.3402   -3.9067 H   0  0  0  0  0  0  0  0  0  0  0  0
    2.5093    1.5566   -3.9303 C   0  0  0  0  0  0  0  0  0  0  0  0
    2.2886    1.9478   -4.9138 H   0  0  0  0  0  0  0  0  0  0  0  0
    1.5253    0.8329   -3.2273 C   0  0  0  0  0  0  0  0  0  0  0  0
    0.5521    0.6788   -3.6712 H   0  0  0  0  0  0  0  0  0  0  0  0
    1.7863    0.3154   -1.9400 C   0  0  0  0  0  0  0  0  0  0  0  0
   -1.7617    0.8549   -0.2106 C   0  0  0  0  0  0  0  0  0  0  0  0
   -2.5726    1.1871   -1.0741 O   0  0  0  0  0  0  0  0  0  0  0  0
   -1.1941    1.7377    0.6223 N   0  0  0  0  0  0  0  0  0  0  0  0
   -0.4976    1.3916    1.2669 H   0  0  0  0  0  0  0  0  0  0  0  0
   -1.4666    3.1722    0.6095 C   0  0  0  0  0  0  0  0  0  0  0  0
   -2.5439    3.3427    0.6539 H   0  0  0  0  0  0  0  0  0  0  0  0
   -0.9893    3.6529    1.4644 H   0  0  0  0  0  0  0  0  0  0  0  0
   -1.0808    3.6095   -0.3129 H   0  0  0  0  0  0  0  0  0  0  0  0
  5  6  2  0  0  0  0
  5  7  1  0  0  0  0
  2  3  1  0  0  0  0
  2  4  1  0  0  0  0
  2  5  1  0  0  0  0
  1  2  1  0  0  0  0
 29 30  2  0  0  0  0
 29 31  1  0  0  0  0
 26 27  1  0  0  0  0
 26 28  2  0  0  0  0
 24 25  1  0  0  0  0
 24 26  1  0  0  0  0
 22 23  1  0  0  0  0
 22 24  2  0  0  0  0
 20 21  1  0  0  0  0
 20 22  1  0  0  0  0
 19 20  2  0  0  0  0
 19 28  1  0  0  0  0
 17 18  1  0  0  0  0
 17 19  1  0  0  0  0
 15 16  1  0  0  0  0
 15 17  1  0  0  0  0
 14 15  2  0  0  0  0
 14 28  1  0  0  0  0
 11 12  1  0  0  0  0
 11 13  1  0  0  0  0
 11 14  1  0  0  0  0
  9 10  1  0  0  0  0
  9 11  1  0  0  0  0
  9 29  1  0  0  0  0
  7  8  1  0  0  0  0
  7  9  1  0  0  0  0
 33 34  1  0  0  0  0
 33 35  1  0  0  0  0
 33 36  1  0  0  0  0
 31 32  1  0  0  0  0
 31 33  1  0  0  0  0
M  END
$$$$
default_name
  -OEChem-02102213163D

 36 37  0     1  0  0  0  0  0999 V2000
   -4.0843   -4.0736    1.2944 H   0  0  0  0  0  0  0  0  0  0  0  0
   -4.0342   -3.2816    0.5484 C   0  0  0  0  0  0  0  0  0  0  0  0
   -4.8842   -2.6126    0.6694 H   0  0  0  0  0  0  0  0  0  0  0  0
   -4.0433   -3.7186   -0.4486 H   0  0  0  0  0  0  0  0  0  0  0  0
   -2.7532   -2.5046    0.7444 C   0  0  0  0  0  0  0  0  0  0  0  0
   -1.9803   -2.8096    1.6434 O   0  0  0  0  0  0  0  0  0  0  0  0
   -2.5332   -1.4966   -0.0966 N   0  0  0  0  0  0  0  0  0  0  0  0
   -3.2312   -1.2816   -0.7936 H   0  0  0  0  0  0  0  0  0  0  0  0
   -1.3593   -0.6196   -0.0536 C   0  0  1  0  0  0  0  0  0  0  0  0
   -0.8788   -0.7266    0.9196 H   0  0  0  0  0  0  0  0  0  0  0  0
   -0.3559   -1.0533   -1.1339 C   0  0  0  0  0  0  0  0  0  0  0  0
   -0.2772   -2.1419   -1.1240 H   0  0  0  0  0  0  0  0  0  0  0  0
   -0.7472   -0.7594   -2.1093 H   0  0  0  0  0  0  0  0  0  0  0  0
    1.0239   -0.4876   -0.9854 C   0  0  0  0  0  0  0  0  0  0  0  0
    1.9444   -0.8867   -0.0793 C   0  0  0  0  0  0  0  0  0  0  0  0
    1.7830   -1.6581    0.6657 H   0  0  0  0  0  0  0  0  0  0  0  0
    3.1157   -0.1787   -0.2647 N   0  0  0  0  0  0  0  0  0  0  0  0
    3.9405   -0.3081    0.3028 H   0  0  0  0  0  0  0  0  0  0  0  0
    3.0129    0.7059   -1.3171 C   0  0  0  0  0  0  0  0  0  0  0  0
    3.9143    1.6056   -1.9041 C   0  0  0  0  0  0  0  0  0  0  0  0
    4.9194    1.7020   -1.5206 H   0  0  0  0  0  0  0  0  0  0  0  0
    3.4908    2.3811   -2.9969 C   0  0  0  0  0  0  0  0  0  0  0  0
    4.1719    3.0811   -3.4617 H   0  0  0  0  0  0  0  0  0  0  0  0
    2.1766    2.2505   -3.4817 C   0  0  0  0  0  0  0  0  0  0  0  0
    1.8524    2.8552   -4.3174 H   0  0  0  0  0  0  0  0  0  0  0  0
    1.2785    1.3444   -2.8827 C   0  0  0  0  0  0  0  0  0  0  0  0
    0.2677    1.2636   -3.2565 H   0  0  0  0  0  0  0  0  0  0  0  0
    1.6751    0.5467   -1.7876 C   0  0  0  0  0  0  0  0  0  0  0  0
   -1.7617    0.8549   -0.2106 C   0  0  0  0  0  0  0  0  0  0  0  0
   -2.5726    1.1871   -1.0741 O   0  0  0  0  0  0  0  0  0  0  0  0
   -1.1941    1.7377    0.6223 N   0  0  0  0  0  0  0  0  0  0  0  0
   -0.4976    1.3916    1.2669 H   0  0  0  0  0  0  0  0  0  0  0  0
   -1.4666    3.1722    0.6095 C   0  0  0  0  0  0  0  0  0  0  0  0
   -2.5439    3.3427    0.6539 H   0  0  0  0  0  0  0  0  0  0  0  0
   -0.9893    3.6529    1.4644 H   0  0  0  0  0  0  0  0  0  0  0  0
   -1.0808    3.6095   -0.3129 H   0  0  0  0  0  0  0  0  0  0  0  0
  5  6  2  0  0  0  0
  5  7  1  0  0  0  0
  2  3  1  0  0  0  0
  2  4  1  0  0  0  0
  2  5  1  0  0  0  0
  1  2  1  0  0  0  0
 29 30  2  0  0  0  0
 29 31  1  0  0  0  0
 26 27  1  0  0  0  0
 26 28  2  0  0  0  0
 24 25  1  0  0  0  0
 24 26  1  0  0  0  0
 22 23  1  0  0  0  0
 22 24  2  0  0  0  0
 20 21  1  0  0  0  0
 20 22  1  0  0  0  0
 19 20  2  0  0  0  0
 19 28  1  0  0  0  0
 17 18  1  0  0  0  0
 17 19  1  0  0  0  0
 15 16  1  0  0  0  0
 15 17  1  0  0  0  0
 14 15  2  0  0  0  0
 14 28  1  0  0  0  0
 11 12  1  0  0  0  0
 11 13  1  0  0  0  0
 11 14  1  0  0  0  0
  9 10  1  0  0  0  0
  9 11  1  0  0  0  0
  9 29  1  0  0  0  0
  7  8  1  0  0  0  0
  7  9  1  0  0  0  0
 33 34  1  0  0  0  0
 33 35  1  0  0  0  0
 33 36  1  0  0  0  0
 31 32  1  0  0  0  0
 31 33  1  0  0  0  0
M  END
$$$$
default_name
  -OEChem-02102213163D

 36 37  0     1  0  0  0  0  0999 V2000
   -4.0843   -4.0736    1.2944 H   0  0  0  0  0  0  0  0  0  0  0  0
   -4.0342   -3.2816    0.5484 C   0  0  0  0  0  0  0  0  0  0  0  0
   -4.8842   -2.6126    0.6694 H   0  0  0  0  0  0  0  0  0  0  0  0
   -4.0433   -3.7186   -0.4486 H   0  0  0  0  0  0  0  0  0  0  0  0
   -2.7532   -2.5046    0.7444 C   0  0  0  0  0  0  0  0  0  0  0  0
   -1.9803   -2.8096    1.6434 O   0  0  0  0  0  0  0  0  0  0  0  0
   -2.5332   -1.4966   -0.0966 N   0  0  0  0  0  0  0  0  0  0  0  0
   -3.2312   -1.2816   -0.7936 H   0  0  0  0  0  0  0  0  0  0  0  0
   -1.3593   -0.6196   -0.0536 C   0  0  1  0  0  0  0  0  0  0  0  0
   -0.8788   -0.7266    0.9196 H   0  0  0  0  0  0  0  0  0  0  0  0
   -0.3559   -1.0533   -1.1339 C   0  0  0  0  0  0  0  0  0  0  0  0
   -0.2772   -2.1419   -1.1240 H   0  0  0  0  0  0  0  0  0  0  0  0
   -0.7472   -0.7594   -2.1093 H   0  0  0  0  0  0  0  0  0  0  0  0
    1.0239   -0.4876   -0.9854 C   0  0  0  0  0  0  0  0  0  0  0  0
    2.0365   -1.0553   -0.2926 C   0  0  0  0  0  0  0  0  0  0  0  0
    1.9617   -1.9868    0.2578 H   0  0  0  0  0  0  0  0  0  0  0  0
    3.1732   -0.2802   -0.4129 N   0  0  0  0  0  0  0  0  0  0  0  0
    4.0528   -0.5094    0.0265 H   0  0  0  0  0  0  0  0  0  0  0  0
    2.9527    0.8242   -1.2082 C   0  0  0  0  0  0  0  0  0  0  0  0
    3.7778    1.8705   -1.6450 C   0  0  0  0  0  0  0  0  0  0  0  0
    4.8150    1.9109   -1.3464 H   0  0  0  0  0  0  0  0  0  0  0  0
    3.2357    2.8665   -2.4751 C   0  0  0  0  0  0  0  0  0  0  0  0
    3.8567    3.6818   -2.8210 H   0  0  0  0  0  0  0  0  0  0  0  0
    1.8812    2.8054   -2.8506 C   0  0  0  0  0  0  0  0  0  0  0  0
    1.4661    3.5783   -3.4825 H   0  0  0  0  0  0  0  0  0  0  0  0
    1.0607    1.7501   -2.4039 C   0  0  0  0  0  0  0  0  0  0  0  0
    0.0185    1.7224   -2.6888 H   0  0  0  0  0  0  0  0  0  0  0  0
    1.5766    0.7310   -1.5743 C   0  0  0  0  0  0  0  0  0  0  0  0
   -1.7617    0.8549   -0.2106 C   0  0  0  0  0  0  0  0  0  0  0  0
   -2.5726    1.1871   -1.0741 O   0  0  0  0  0  0  0  0  0  0  0  0
   -1.1941    1.7377    0.6223 N   0  0  0  0  0  0  0  0  0  0  0  0
   -0.4976    1.3916    1.2669 H   0  0  0  0  0  0  0  0  0  0  0  0
   -1.4666    3.1722    0.6095 C   0  0  0  0  0  0  0  0  0  0  0  0
   -2.5439    3.3427    0.6539 H   0  0  0  0  0  0  0  0  0  0  0  0
   -0.9893    3.6529    1.4644 H   0  0  0  0  0  0  0  0  0  0  0  0
   -1.0808    3.6095   -0.3129 H   0  0  0  0  0  0  0  0  0  0  0  0
  5  6  2  0  0  0  0
  5  7  1  0  0  0  0
  2  3  1  0  0  0  0
  2  4  1  0  0  0  0
  2  5  1  0  0  0  0
  1  2  1  0  0  0  0
 29 30  2  0  0  0  0
 29 31  1  0  0  0  0
 26 27  1  0  0  0  0
 26 28  2  0  0  0  0
 24 25  1  0  0  0  0
 24 26  1  0  0  0  0
 22 23  1  0  0  0  0
 22 24  2  0  0  0  0
 20 21  1  0  0  0  0
 20 22  1  0  0  0  0
 19 20  2  0  0  0  0
 19 28  1  0  0  0  0
 17 18  1  0  0  0  0
 17 19  1  0  0  0  0
 15 16  1  0  0  0  0
 15 17  1  0  0  0  0
 14 15  2  0  0  0  0
 14 28  1  0  0  0  0
 11 12  1  0  0  0  0
 11 13  1  0  0  0  0
 11 14  1  0  0  0  0
  9 10  1  0  0  0  0
  9 11  1  0  0  0  0
  9 29  1  0  0  0  0
  7  8  1  0  0  0  0
  7  9  1  0  0  0  0
 33 34  1  0  0  0  0
 33 35  1  0  0  0  0
 33 36  1  0  0  0  0
 31 32  1  0  0  0  0
 31 33  1  0  0  0  0
M  END
$$$$
default_name
  -OEChem-02102213163D

 36 37  0     1  0  0  0  0  0999 V2000
   -4.0843   -4.0736    1.2944 H   0  0  0  0  0  0  0  0  0  0  0  0
   -4.0342   -3.2816    0.5484 C   0  0  0  0  0  0  0  0  0  0  0  0
   -4.8842   -2.6126    0.6694 H   0  0  0  0  0  0  0  0  0  0  0  0
   -4.0433   -3.7186   -0.4486 H   0  0  0  0  0  0  0  0  0  0  0  0
   -2.7532   -2.5046    0.7444 C   0  0  0  0  0  0  0  0  0  0  0  0
   -1.9803   -2.8096    1.6434 O   0  0  0  0  0  0  0  0  0  0  0  0
   -2.5332   -1.4966   -0.0966 N   0  0  0  0  0  0  0  0  0  0  0  0
   -3.2312   -1.2816   -0.7936 H   0  0  0  0  0  0  0  0  0  0  0  0
   -1.3593   -0.6196   -0.0536 C   0  0  1  0  0  0  0  0  0  0  0  0
   -0.8788   -0.7266    0.9196 H   0  0  0  0  0  0  0  0  0  0  0  0
   -0.3559   -1.0533   -1.1339 C   0  0  0  0  0  0  0  0  0  0  0  0
   -0.2772   -2.1419   -1.1240 H   0  0  0  0  0  0  0  0  0  0  0  0
   -0.7472   -0.7594   -2.1093 H   0  0  0  0  0  0  0  0  0  0  0  0
    1.0239   -0.4876   -0.9854 C   0  0  0  0  0  0  0  0  0  0  0  0
    2.1089   -1.1650   -0.5477 C   0  0  0  0  0  0  0  0  0  0  0  0
    2.1028   -2.2025   -0.2320 H   0  0  0  0  0  0  0  0  0  0  0  0
    3.2169   -0.3414   -0.5858 N   0  0  0  0  0  0  0  0  0  0  0  0
    4.1394   -0.6351   -0.2994 H   0  0  0  0  0  0  0  0  0  0  0  0
    2.9021    0.9109   -1.0688 C   0  0  0  0  0  0  0  0  0  0  0  0
    3.6645    2.0611   -1.3183 C   0  0  0  0  0  0  0  0  0  0  0  0
    4.7259    2.0684   -1.1183 H   0  0  0  0  0  0  0  0  0  0  0  0
    3.0277    3.2045   -1.8305 C   0  0  0  0  0  0  0  0  0  0  0  0
    3.5994    4.1012   -2.0282 H   0  0  0  0  0  0  0  0  0  0  0  0
    1.6433    3.1834   -2.0798 C   0  0  0  0  0  0  0  0  0  0  0  0
    1.1560    4.0679   -2.4660 H   0  0  0  0  0  0  0  0  0  0  0  0
    0.8866    2.0223   -1.8234 C   0  0  0  0  0  0  0  0  0  0  0  0
   -0.1785    2.0239   -2.0068 H   0  0  0  0  0  0  0  0  0  0  0  0
    1.4975    0.8557   -1.3148 C   0  0  0  0  0  0  0  0  0  0  0  0
   -1.7617    0.8549   -0.2106 C   0  0  0  0  0  0  0  0  0  0  0  0
   -2.5726    1.1871   -1.0741 O   0  0  0  0  0  0  0  0  0  0  0  0
   -1.1941    1.7377    0.6223 N   0  0  0  0  0  0  0  0  0  0  0  0
   -0.4976    1.3916    1.2669 H   0  0  0  0  0  0  0  0  0  0  0  0
   -1.4666    3.1722    0.6095 C   0  0  0  0  0  0  0  0  0  0  0  0
   -2.5439    3.3427    0.6539 H   0  0  0  0  0  0  0  0  0  0  0  0
   -0.9893    3.6529    1.4644 H   0  0  0  0  0  0  0  0  0  0  0  0
   -1.0808    3.6095   -0.3129 H   0  0  0  0  0  0  0  0  0  0  0  0
  5  6  2  0  0  0  0
  5  7  1  0  0  0  0
  2  3  1  0  0  0  0
  2  4  1  0  0  0  0
  2  5  1  0  0  0  0
  1  2  1  0  0  0  0
 29 30  2  0  0  0  0
 29 31  1  0  0  0  0
 26 27  1  0  0  0  0
 26 28  2  0  0  0  0
 24 25  1  0  0  0  0
 24 26  1  0  0  0  0
 22 23  1  0  0  0  0
 22 24  2  0  0  0  0
 20 21  1  0  0  0  0
 20 22  1  0  0  0  0
 19 20  2  0  0  0  0
 19 28  1  0  0  0  0
 17 18  1  0  0  0  0
 17 19  1  0  0  0  0
 15 16  1  0  0  0  0
 15 17  1  0  0  0  0
 14 15  2  0  0  0  0
 14 28  1  0  0  0  0
 11 12  1  0  0  0  0
 11 13  1  0  0  0  0
 11 14  1  0  0  0  0
  9 10  1  0  0  0  0
  9 11  1  0  0  0  0
  9 29  1  0  0  0  0
  7  8  1  0  0  0  0
  7  9  1  0  0  0  0
 33 34  1  0  0  0  0
 33 35  1  0  0  0  0
 33 36  1  0  0  0  0
 31 32  1  0  0  0  0
 31 33  1  0  0  0  0
M  END
$$$$
default_name
  -OEChem-02102213163D

 36 37  0     1  0  0  0  0  0999 V2000
   -4.0843   -4.0736    1.2944 H   0  0  0  0  0  0  0  0  0  0  0  0
   -4.0342   -3.2816    0.5484 C   0  0  0  0  0  0  0  0  0  0  0  0
   -4.8842   -2.6126    0.6694 H   0  0  0  0  0  0  0  0  0  0  0  0
   -4.0433   -3.7186   -0.4486 H   0  0  0  0  0  0  0  0  0  0  0  0
   -2.7532   -2.5046    0.7444 C   0  0  0  0  0  0  0  0  0  0  0  0
   -1.9803   -2.8096    1.6434 O   0  0  0  0  0  0  0  0  0  0  0  0
   -2.5332   -1.4966   -0.0966 N   0  0  0  0  0  0  0  0  0  0  0  0
   -3.2312   -1.2816   -0.7936 H   0  0  0  0  0  0  0  0  0  0  0  0
   -1.3593   -0.6196   -0.0536 C   0  0  1  0  0  0  0  0  0  0  0  0
   -0.8788   -0.7266    0.9196 H   0  0  0  0  0  0  0  0  0  0  0  0
   -0.3559   -1.0533   -1.1339 C   0  0  0  0  0  0  0  0  0  0  0  0
   -0.2772   -2.1419   -1.1240 H   0  0  0  0  0  0  0  0  0  0  0  0
   -0.7472   -0.7594   -2.1093 H   0  0  0  0  0  0  0  0  0  0  0  0
    1.0239   -0.4876   -0.9854 C   0  0  0  0  0  0  0  0  0  0  0  0
    2.1568   -1.2083   -0.8274 C   0  0  0  0  0  0  0  0  0  0  0  0
    2.1968   -2.2905   -0.7703 H   0  0  0  0  0  0  0  0  0  0  0  0
    3.2438   -0.3582   -0.7717 N   0  0  0  0  0  0  0  0  0  0  0  0
    4.1944   -0.6766   -0.6526 H   0  0  0  0  0  0  0  0  0  0  0  0
    2.8647    0.9602   -0.9087 C   0  0  0  0  0  0  0  0  0  0  0  0
    3.5820    2.1646   -0.9463 C   0  0  0  0  0  0  0  0  0  0  0  0
    4.6580    2.1640   -0.8516 H   0  0  0  0  0  0  0  0  0  0  0  0
    2.8812    3.3720   -1.1071 C   0  0  0  0  0  0  0  0  0  0  0  0
    3.4176    4.3108   -1.1373 H   0  0  0  0  0  0  0  0  0  0  0  0
    1.4791    3.3587   -1.2220 C   0  0  0  0  0  0  0  0  0  0  0  0
    0.9432    4.2907   -1.3372 H   0  0  0  0  0  0  0  0  0  0  0  0
    0.7682    2.1425   -1.1809 C   0  0  0  0  0  0  0  0  0  0  0  0
   -0.3098    2.1475   -1.2569 H   0  0  0  0  0  0  0  0  0  0  0  0
    1.4433    0.9123   -1.0267 C   0  0  0  0  0  0  0  0  0  0  0  0
   -1.7617    0.8549   -0.2106 C   0  0  0  0  0  0  0  0  0  0  0  0
   -2.5726    1.1871   -1.0741 O   0  0  0  0  0  0  0  0  0  0  0  0
   -1.1941    1.7377    0.6223 N   0  0  0  0  0  0  0  0  0  0  0  0
   -0.4976    1.3916    1.2669 H   0  0  0  0  0  0  0  0  0  0  0  0
   -1.4666    3.1722    0.6095 C   0  0  0  0  0  0  0  0  0  0  0  0
   -2.5439    3.3427    0.6539 H   0  0  0  0  0  0  0  0  0  0  0  0
   -0.9893    3.6529    1.4644 H   0  0  0  0  0  0  0  0  0  0  0  0
   -1.0808    3.6095   -0.3129 H   0  0  0  0  0  0  0  0  0  0  0  0
  5  6  2  0  0  0  0
  5  7  1  0  0  0  0
  2  3  1  0  0  0  0
  2  4  1  0  0  0  0
  2  5  1  0  0  0  0
  1  2  1  0  0  0  0
 29 30  2  0  0  0  0
 29 31  1  0  0  0  0
 26 27  1  0  0  0  0
 26 28  2  0  0  0  0
 24 25  1  0  0  0  0
 24 26  1  0  0  0  0
 22 23  1  0  0  0  0
 22 24  2  0  0  0  0
 20 21  1  0  0  0  0
 20 22  1  0  0  0  0
 19 20  2  0  0  0  0
 19 28  1  0  0  0  0
 17 18  1  0  0  0  0
 17 19  1  0  0  0  0
 15 16  1  0  0  0  0
 15 17  1  0  0  0  0
 14 15  2  0  0  0  0
 14 28  1  0  0  0  0
 11 12  1  0  0  0  0
 11 13  1  0  0  0  0
 11 14  1  0  0  0  0
  9 10  1  0  0  0  0
  9 11  1  0  0  0  0
  9 29  1  0  0  0  0
  7  8  1  0  0  0  0
  7  9  1  0  0  0  0
 33 34  1  0  0  0  0
 33 35  1  0  0  0  0
 33 36  1  0  0  0  0
 31 32  1  0  0  0  0
 31 33  1  0  0  0  0
M  END
$$$$
default_name
  -OEChem-02102213163D

 36 37  0     1  0  0  0  0  0999 V2000
   -4.0843   -4.0736    1.2944 H   0  0  0  0  0  0  0  0  0  0  0  0
   -4.0342   -3.2816    0.5484 C   0  0  0  0  0  0  0  0  0  0  0  0
   -4.8842   -2.6126    0.6694 H   0  0  0  0  0  0  0  0  0  0  0  0
   -4.0433   -3.7186   -0.4486 H   0  0  0  0  0  0  0  0  0  0  0  0
   -2.7532   -2.5046    0.7444 C   0  0  0  0  0  0  0  0  0  0  0  0
   -1.9803   -2.8096    1.6434 O   0  0  0  0  0  0  0  0  0  0  0  0
   -2.5332   -1.4966   -0.0966 N   0  0  0  0  0  0  0  0  0  0  0  0
   -3.2312   -1.2816   -0.7936 H   0  0  0  0  0  0  0  0  0  0  0  0
   -1.3593   -0.6196   -0.0536 C   0  0  1  0  0  0  0  0  0  0  0  0
   -0.8788   -0.7266    0.9196 H   0  0  0  0  0  0  0  0  0  0  0  0
   -0.3559   -1.0533   -1.1339 C   0  0  0  0  0  0  0  0  0  0  0  0
   -0.2772   -2.1419   -1.1240 H   0  0  0  0  0  0  0  0  0  0  0  0
   -0.7472   -0.7594   -2.1093 H   0  0  0  0  0  0  0  0  0  0  0  0
    1.0239   -0.4876   -0.9854 C   0  0  0  0  0  0  0  0  0  0  0  0
    2.1768   -1.1822   -1.1126 C   0  0  0  0  0  0  0  0  0  0  0  0
    2.2373   -2.2449   -1.3204 H   0  0  0  0  0  0  0  0  0  0  0  0
    3.2521   -0.3294   -0.9579 N   0  0  0  0  0  0  0  0  0  0  0  0
    4.2141   -0.6311   -1.0090 H   0  0  0  0  0  0  0  0  0  0  0  0
    2.8429    0.9687   -0.7385 C   0  0  0  0  0  0  0  0  0  0  0  0
    3.5361    2.1737   -0.5542 C   0  0  0  0  0  0  0  0  0  0  0  0
    4.6160    2.1910   -0.5647 H   0  0  0  0  0  0  0  0  0  0  0  0
    2.8061    3.3577   -0.3540 C   0  0  0  0  0  0  0  0  0  0  0  0
    3.3237    4.2963   -0.2091 H   0  0  0  0  0  0  0  0  0  0  0  0
    1.3998    3.3195   -0.3357 C   0  0  0  0  0  0  0  0  0  0  0  0
    0.8422    4.2314   -0.1730 H   0  0  0  0  0  0  0  0  0  0  0  0
    0.7136    2.1024   -0.5200 C   0  0  0  0  0  0  0  0  0  0  0  0
   -0.3666    2.0849   -0.4903 H   0  0  0  0  0  0  0  0  0  0  0  0
    1.4177    0.8969   -0.7296 C   0  0  0  0  0  0  0  0  0  0  0  0
   -1.7617    0.8549   -0.2106 C   0  0  0  0  0  0  0  0  0  0  0  0
   -2.5726    1.1871   -1.0741 O   0  0  0  0  0  0  0  0  0  0  0  0
   -1.1941    1.7377    0.6223 N   0  0  0  0  0  0  0  0  0  0  0  0
   -0.4976    1.3916    1.2669 H   0  0  0  0  0  0  0  0  0  0  0  0
   -1.4666    3.1722    0.6095 C   0  0  0  0  0  0  0  0  0  0  0  0
   -2.5439    3.3427    0.6539 H   0  0  0  0  0  0  0  0  0  0  0  0
   -0.9893    3.6529    1.4644 H   0  0  0  0  0  0  0  0  0  0  0  0
   -1.0808    3.6095   -0.3129 H   0  0  0  0  0  0  0  0  0  0  0  0
  5  6  2  0  0  0  0
  5  7  1  0  0  0  0
  2  3  1  0  0  0  0
  2  4  1  0  0  0  0
  2  5  1  0  0  0  0
  1  2  1  0  0  0  0
 29 30  2  0  0  0  0
 29 31  1  0  0  0  0
 26 27  1  0  0  0  0
 26 28  2  0  0  0  0
 24 25  1  0  0  0  0
 24 26  1  0  0  0  0
 22 23  1  0  0  0  0
 22 24  2  0  0  0  0
 20 21  1  0  0  0  0
 20 22  1  0  0  0  0
 19 20  2  0  0  0  0
 19 28  1  0  0  0  0
 17 18  1  0  0  0  0
 17 19  1  0  0  0  0
 15 16  1  0  0  0  0
 15 17  1  0  0  0  0
 14 15  2  0  0  0  0
 14 28  1  0  0  0  0
 11 12  1  0  0  0  0
 11 13  1  0  0  0  0
 11 14  1  0  0  0  0
  9 10  1  0  0  0  0
  9 11  1  0  0  0  0
  9 29  1  0  0  0  0
  7  8  1  0  0  0  0
  7  9  1  0  0  0  0
 33 34  1  0  0  0  0
 33 35  1  0  0  0  0
 33 36  1  0  0  0  0
 31 32  1  0  0  0  0
 31 33  1  0  0  0  0
M  END
$$$$
default_name
  -OEChem-02102213163D

 36 37  0     1  0  0  0  0  0999 V2000
   -4.0843   -4.0736    1.2944 H   0  0  0  0  0  0  0  0  0  0  0  0
   -4.0342   -3.2816    0.5484 C   0  0  0  0  0  0  0  0  0  0  0  0
   -4.8842   -2.6126    0.6694 H   0  0  0  0  0  0  0  0  0  0  0  0
   -4.0433   -3.7186   -0.4486 H   0  0  0  0  0  0  0  0  0  0  0  0
   -2.7532   -2.5046    0.7444 C   0  0  0  0  0  0  0  0  0  0  0  0
   -1.9803   -2.8096    1.6434 O   0  0  0  0  0  0  0  0  0  0  0  0
   -2.5332   -1.4966   -0.0966 N   0  0  0  0  0  0  0  0  0  0  0  0
   -3.2312   -1.2816   -0.7936 H   0  0  0  0  0  0  0  0  0  0  0  0
   -1.3593   -0.6196   -0.0536 C   0  0  1  0  0  0  0  0  0  0  0  0
   -0.8788   -0.7266    0.9196 H   0  0  0  0  0  0  0  0  0  0  0  0
   -0.3559   -1.0533   -1.1339 C   0  0  0  0  0  0  0  0  0  0  0  0
   -0.2772   -2.1419   -1.1240 H   0  0  0  0  0  0  0  0  0  0  0  0
   -0.7472   -0.7594   -2.1093 H   0  0  0  0  0  0  0  0  0  0  0  0
    1.0239   -0.4876   -0.9854 C   0  0  0  0  0  0  0  0  0  0  0  0
    2.1675   -1.0886   -1.3838 C   0  0  0  0  0  0  0  0  0  0  0  0
    2.2215   -2.0687   -1.8449 H   0  0  0  0  0  0  0  0  0  0  0  0
    3.2411   -0.2571   -1.1317 N   0  0  0  0  0  0  0  0  0  0  0  0
    4.1972   -0.5018   -1.3444 H   0  0  0  0  0  0  0  0  0  0  0  0
    2.8383    0.9358   -0.5700 C   0  0  0  0  0  0  0  0  0  0  0  0
    3.5299    2.0879   -0.1689 C   0  0  0  0  0  0  0  0  0  0  0  0
    4.6029    2.1477   -0.2770 H   0  0  0  0  0  0  0  0  0  0  0  0
    2.8074    3.1625    0.3773 C   0  0  0  0  0  0  0  0  0  0  0  0
    3.3241    4.0587    0.6932 H   0  0  0  0  0  0  0  0  0  0  0  0
    1.4109    3.0683    0.5189 C   0  0  0  0  0  0  0  0  0  0  0  0
    0.8600    3.8942    0.9473 H   0  0  0  0  0  0  0  0  0  0  0  0
    0.7264    1.9047    0.1141 C   0  0  0  0  0  0  0  0  0  0  0  0
   -0.3450    1.8403    0.2408 H   0  0  0  0  0  0  0  0  0  0  0  0
    1.4223    0.8105   -0.4438 C   0  0  0  0  0  0  0  0  0  0  0  0
   -1.7617    0.8549   -0.2106 C   0  0  0  0  0  0  0  0  0  0  0  0
   -2.5726    1.1871   -1.0741 O   0  0  0  0  0  0  0  0  0  0  0  0
   -1.1941    1.7377    0.6223 N   0  0  0  0  0  0  0  0  0  0  0  0
   -0.4976    1.3916    1.2669 H   0  0  0  0  0  0  0  0  0  0  0  0
   -1.4666    3.1722    0.6095 C   0  0  0  0  0  0  0  0  0  0  0  0
   -2.5439    3.3427    0.6539 H   0  0  0  0  0  0  0  0  0  0  0  0
   -0.9893    3.6529    1.4644 H   0  0  0  0  0  0  0  0  0  0  0  0
   -1.0808    3.6095   -0.3129 H   0  0  0  0  0  0  0  0  0  0  0  0
  5  6  2  0  0  0  0
  5  7  1  0  0  0  0
  2  3  1  0  0  0  0
  2  4  1  0  0  0  0
  2  5  1  0  0  0  0
  1  2  1  0  0  0  0
 29 30  2  0  0  0  0
 29 31  1  0  0  0  0
 26 27  1  0  0  0  0
 26 28  2  0  0  0  0
 24 25  1  0  0  0  0
 24 26  1  0  0  0  0
 22 23  1  0  0  0  0
 22 24  2  0  0  0  0
 20 21  1  0  0  0  0
 20 22  1  0  0  0  0
 19 20  2  0  0  0  0
 19 28  1  0  0  0  0
 17 18  1  0  0  0  0
 17 19  1  0  0  0  0
 15 16  1  0  0  0  0
 15 17  1  0  0  0  0
 14 15  2  0  0  0  0
 14 28  1  0  0  0  0
 11 12  1  0  0  0  0
 11 13  1  0  0  0  0
 11 14  1  0  0  0  0
  9 10  1  0  0  0  0
  9 11  1  0  0  0  0
  9 29  1  0  0  0  0
  7  8  1  0  0  0  0
  7  9  1  0  0  0  0
 33 34  1  0  0  0  0
 33 35  1  0  0  0  0
 33 36  1  0  0  0  0
 31 32  1  0  0  0  0
 31 33  1  0  0  0  0
M  END
$$$$
default_name
  -OEChem-02102213163D

 36 37  0     1  0  0  0  0  0999 V2000
   -4.0843   -4.0736    1.2944 H   0  0  0  0  0  0  0  0  0  0  0  0
   -4.0342   -3.2816    0.5484 C   0  0  0  0  0  0  0  0  0  0  0  0
   -4.8842   -2.6126    0.6694 H   0  0  0  0  0  0  0  0  0  0  0  0
   -4.0433   -3.7186   -0.4486 H   0  0  0  0  0  0  0  0  0  0  0  0
   -2.7532   -2.5046    0.7444 C   0  0  0  0  0  0  0  0  0  0  0  0
   -1.9803   -2.8096    1.6434 O   0  0  0  0  0  0  0  0  0  0  0  0
   -2.5332   -1.4966   -0.0966 N   0  0  0  0  0  0  0  0  0  0  0  0
   -3.2312   -1.2816   -0.7936 H   0  0  0  0  0  0  0  0  0  0  0  0
   -1.3593   -0.6196   -0.0536 C   0  0  1  0  0  0  0  0  0  0  0  0
   -0.8788   -0.7266    0.9196 H   0  0  0  0  0  0  0  0  0  0  0  0
   -0.3559   -1.0533   -1.1339 C   0  0  0  0  0  0  0  0  0  0  0  0
   -0.2772   -2.1419   -1.1240 H   0  0  0  0  0  0  0  0  0  0  0  0
   -0.7472   -0.7594   -2.1093 H   0  0  0  0  0  0  0  0  0  0  0  0
    1.0239   -0.4876   -0.9854 C   0  0  0  0  0  0  0  0  0  0  0  0
    2.1297   -0.9337   -1.6225 C   0  0  0  0  0  0  0  0  0  0  0  0
    2.1504   -1.7739   -2.3080 H   0  0  0  0  0  0  0  0  0  0  0  0
    3.2117   -0.1460   -1.2813 N   0  0  0  0  0  0  0  0  0  0  0  0
    4.1447   -0.2973   -1.6359 H   0  0  0  0  0  0  0  0  0  0  0  0
    2.8511    0.8638   -0.4147 C   0  0  0  0  0  0  0  0  0  0  0  0
    3.5636    1.9130    0.1835 C   0  0  0  0  0  0  0  0  0  0  0  0
    4.6194    2.0369   -0.0081 H   0  0  0  0  0  0  0  0  0  0  0  0
    2.8852    2.7997    1.0370 C   0  0  0  0  0  0  0  0  0  0  0  0
    3.4186    3.6142    1.5081 H   0  0  0  0  0  0  0  0  0  0  0  0
    1.5115    2.6224    1.2834 C   0  0  0  0  0  0  0  0  0  0  0  0
    0.9952    3.3019    1.9473 H   0  0  0  0  0  0  0  0  0  0  0  0
    0.8058    1.5631    0.6783 C   0  0  0  0  0  0  0  0  0  0  0  0
   -0.2464    1.4303    0.8866 H   0  0  0  0  0  0  0  0  0  0  0  0
    1.4570    0.6591   -0.1888 C   0  0  0  0  0  0  0  0  0  0  0  0
   -1.7617    0.8549   -0.2106 C   0  0  0  0  0  0  0  0  0  0  0  0
   -2.5726    1.1871   -1.0741 O   0  0  0  0  0  0  0  0  0  0  0  0
   -1.1941    1.7377    0.6223 N   0  0  0  0  0  0  0  0  0  0  0  0
   -0.4976    1.3916    1.2669 H   0  0  0  0  0  0  0  0  0  0  0  0
   -1.4666    3.1722    0.6095 C   0  0  0  0  0  0  0  0  0  0  0  0
   -2.5439    3.3427    0.6539 H   0  0  0  0  0  0  0  0  0  0  0  0
   -0.9893    3.6529    1.4644 H   0  0  0  0  0  0  0  0  0  0  0  0
   -1.0808    3.6095   -0.3129 H   0  0  0  0  0  0  0  0  0  0  0  0
  5  6  2  0  0  0  0
  5  7  1  0  0  0  0
  2  3  1  0  0  0  0
  2  4  1  0  0  0  0
  2  5  1  0  0  0  0
  1  2  1  0  0  0  0
 29 30  2  0  0  0  0
 29 31  1  0  0  0  0
 26 27  1  0  0  0  0
 26 28  2  0  0  0  0
 24 25  1  0  0  0  0
 24 26  1  0  0  0  0
 22 23  1  0  0  0  0
 22 24  2  0  0  0  0
 20 21  1  0  0  0  0
 20 22  1  0  0  0  0
 19 20  2  0  0  0  0
 19 28  1  0  0  0  0
 17 18  1  0  0  0  0
 17 19  1  0  0  0  0
 15 16  1  0  0  0  0
 15 17  1  0  0  0  0
 14 15  2  0  0  0  0
 14 28  1  0  0  0  0
 11 12  1  0  0  0  0
 11 13  1  0  0  0  0
 11 14  1  0  0  0  0
  9 10  1  0  0  0  0
  9 11  1  0  0  0  0
  9 29  1  0  0  0  0
  7  8  1  0  0  0  0
  7  9  1  0  0  0  0
 33 34  1  0  0  0  0
 33 35  1  0  0  0  0
 33 36  1  0  0  0  0
 31 32  1  0  0  0  0
 31 33  1  0  0  0  0
M  END
$$$$
default_name
  -OEChem-02102213163D

 36 37  0     1  0  0  0  0  0999 V2000
   -4.0843   -4.0736    1.2944 H   0  0  0  0  0  0  0  0  0  0  0  0
   -4.0342   -3.2816    0.5484 C   0  0  0  0  0  0  0  0  0  0  0  0
   -4.8842   -2.6126    0.6694 H   0  0  0  0  0  0  0  0  0  0  0  0
   -4.0433   -3.7186   -0.4486 H   0  0  0  0  0  0  0  0  0  0  0  0
   -2.7532   -2.5046    0.7444 C   0  0  0  0  0  0  0  0  0  0  0  0
   -1.9803   -2.8096    1.6434 O   0  0  0  0  0  0  0  0  0  0  0  0
   -2.5332   -1.4966   -0.0966 N   0  0  0  0  0  0  0  0  0  0  0  0
   -3.2312   -1.2816   -0.7936 H   0  0  0  0  0  0  0  0  0  0  0  0
   -1.3593   -0.6196   -0.0536 C   0  0  1  0  0  0  0  0  0  0  0  0
   -0.8788   -0.7266    0.9196 H   0  0  0  0  0  0  0  0  0  0  0  0
   -0.3559   -1.0533   -1.1339 C   0  0  0  0  0  0  0  0  0  0  0  0
   -0.4708   -2.1242   -1.3110 H   0  0  0  0  0  0  0  0  0  0  0  0
   -0.6014   -0.5367   -2.0633 H   0  0  0  0  0  0  0  0  0  0  0  0
    1.0832   -0.7891   -0.8094 C   0  0  0  0  0  0  0  0  0  0  0  0
    2.1359   -1.0842   -1.6047 C   0  0  0  0  0  0  0  0  0  0  0  0
    2.0618   -1.5687   -2.5721 H   0  0  0  0  0  0  0  0  0  0  0  0
    3.3045   -0.6570   -1.0054 N   0  0  0  0  0  0  0  0  0  0  0  0
    4.2181   -0.7766   -1.4180 H   0  0  0  0  0  0  0  0  0  0  0  0
    3.0599   -0.0464    0.2063 C   0  0  0  0  0  0  0  0  0  0  0  0
    3.8909    0.5631    1.1572 C   0  0  0  0  0  0  0  0  0  0  0  0
    4.9587    0.6096    1.0014 H   0  0  0  0  0  0  0  0  0  0  0  0
    3.3151    1.1107    2.3163 C   0  0  0  0  0  0  0  0  0  0  0  0
    3.9405    1.5839    3.0612 H   0  0  0  0  0  0  0  0  0  0  0  0
    1.9236    1.0368    2.5098 C   0  0  0  0  0  0  0  0  0  0  0  0
    1.4857    1.4521    3.4069 H   0  0  0  0  0  0  0  0  0  0  0  0
    1.0981    0.4201    1.5482 C   0  0  0  0  0  0  0  0  0  0  0  0
    0.0322    0.3583    1.7156 H   0  0  0  0  0  0  0  0  0  0  0  0
    1.6450   -0.1340    0.3706 C   0  0  0  0  0  0  0  0  0  0  0  0
   -1.7617    0.8549   -0.2106 C   0  0  0  0  0  0  0  0  0  0  0  0
   -2.5726    1.1871   -1.0741 O   0  0  0  0  0  0  0  0  0  0  0  0
   -1.1941    1.7377    0.6223 N   0  0  0  0  0  0  0  0  0  0  0  0
   -0.4976    1.3916    1.2669 H   0  0  0  0  0  0  0  0  0  0  0  0
   -1.4666    3.1722    0.6095 C   0  0  0  0  0  0  0  0  0  0  0  0
   -2.5439    3.3427    0.6539 H   0  0  0  0  0  0  0  0  0  0  0  0
   -0.9893    3.6529    1.4644 H   0  0  0  0  0  0  0  0  0  0  0  0
   -1.0808    3.6095   -0.3129 H   0  0  0  0  0  0  0  0  0  0  0  0
  5  6  2  0  0  0  0
  5  7  1  0  0  0  0
  2  3  1  0  0  0  0
  2  4  1  0  0  0  0
  2  5  1  0  0  0  0
  1  2  1  0  0  0  0
 29 30  2  0  0  0  0
 29 31  1  0  0  0  0
 26 27  1  0  0  0  0
 26 28  2  0  0  0  0
 24 25  1  0  0  0  0
 24 26  1  0  0  0  0
 22 23  1  0  0  0  0
 22 24  2  0  0  0  0
 20 21  1  0  0  0  0
 20 22  1  0  0  0  0
 19 20  2  0  0  0  0
 19 28  1  0  0  0  0
 17 18  1  0  0  0  0
 17 19  1  0  0  0  0
 15 16  1  0  0  0  0
 15 17  1  0  0  0  0
 14 15  2  0  0  0  0
 14 28  1  0  0  0  0
 11 12  1  0  0  0  0
 11 13  1  0  0  0  0
 11 14  1  0  0  0  0
  9 10  1  0  0  0  0
  9 11  1  0  0  0  0
  9 29  1  0  0  0  0
  7  8  1  0  0  0  0
  7  9  1  0  0  0  0
 33 34  1  0  0  0  0
 33 35  1  0  0  0  0
 33 36  1  0  0  0  0
 31 32  1  0  0  0  0
 31 33  1  0  0  0  0
M  END
$$$$
default_name
  -OEChem-02102213163D

 36 37  0     1  0  0  0  0  0999 V2000
   -4.0843   -4.0736    1.2944 H   0  0  0  0  0  0  0  0  0  0  0  0
   -4.0342   -3.2816    0.5484 C   0  0  0  0  0  0  0  0  0  0  0  0
   -4.8842   -2.6126    0.6694 H   0  0  0  0  0  0  0  0  0  0  0  0
   -4.0433   -3.7186   -0.4486 H   0  0  0  0  0  0  0  0  0  0  0  0
   -2.7532   -2.5046    0.7444 C   0  0  0  0  0  0  0  0  0  0  0  0
   -1.9803   -2.8096    1.6434 O   0  0  0  0  0  0  0  0  0  0  0  0
   -2.5332   -1.4966   -0.0966 N   0  0  0  0  0  0  0  0  0  0  0  0
   -3.2312   -1.2816   -0.7936 H   0  0  0  0  0  0  0  0  0  0  0  0
   -1.3593   -0.6196   -0.0536 C   0  0  1  0  0  0  0  0  0  0  0  0
   -0.8788   -0.7266    0.9196 H   0  0  0  0  0  0  0  0  0  0  0  0
   -0.3559   -1.0533   -1.1339 C   0  0  0  0  0  0  0  0  0  0  0  0
   -0.4708   -2.1242   -1.3110 H   0  0  0  0  0  0  0  0  0  0  0  0
   -0.6014   -0.5367   -2.0633 H   0  0  0  0  0  0  0  0  0  0  0  0
    1.0832   -0.7891   -0.8094 C   0  0  0  0  0  0  0  0  0  0  0  0
    2.1060   -0.8128   -1.6931 C   0  0  0  0  0  0  0  0  0  0  0  0
    2.0055   -1.0467   -2.7473 H   0  0  0  0  0  0  0  0  0  0  0  0
    3.2817   -0.4756   -1.0516 N   0  0  0  0  0  0  0  0  0  0  0  0
    4.1771   -0.4328   -1.5159 H   0  0  0  0  0  0  0  0  0  0  0  0
    3.0708   -0.1999    0.2826 C   0  0  0  0  0  0  0  0  0  0  0  0
    3.9192    0.2058    1.3229 C   0  0  0  0  0  0  0  0  0  0  0  0
    4.9736    0.3553    1.1426 H   0  0  0  0  0  0  0  0  0  0  0  0
    3.3785    0.4132    2.6034 C   0  0  0  0  0  0  0  0  0  0  0  0
    4.0177    0.7252    3.4182 H   0  0  0  0  0  0  0  0  0  0  0  0
    2.0045    0.2079    2.8258 C   0  0  0  0  0  0  0  0  0  0  0  0
    1.5942    0.3606    3.8144 H   0  0  0  0  0  0  0  0  0  0  0  0
    1.1616   -0.2018    1.7732 C   0  0  0  0  0  0  0  0  0  0  0  0
    0.1104   -0.3688    1.9607 H   0  0  0  0  0  0  0  0  0  0  0  0
    1.6728   -0.4126    0.4743 C   0  0  0  0  0  0  0  0  0  0  0  0
   -1.7617    0.8549   -0.2106 C   0  0  0  0  0  0  0  0  0  0  0  0
   -2.5726    1.1871   -1.0741 O   0  0  0  0  0  0  0  0  0  0  0  0
   -1.1941    1.7377    0.6223 N   0  0  0  0  0  0  0  0  0  0  0  0
   -0.4976    1.3916    1.2669 H   0  0  0  0  0  0  0  0  0  0  0  0
   -1.4666    3.1722    0.6095 C   0  0  0  0  0  0  0  0  0  0  0  0
   -2.5439    3.3427    0.6539 H   0  0  0  0  0  0  0  0  0  0  0  0
   -0.9893    3.6529    1.4644 H   0  0  0  0  0  0  0  0  0  0  0  0
   -1.0808    3.6095   -0.3129 H   0  0  0  0  0  0  0  0  0  0  0  0
  5  6  2  0  0  0  0
  5  7  1  0  0  0  0
  2  3  1  0  0  0  0
  2  4  1  0  0  0  0
  2  5  1  0  0  0  0
  1  2  1  0  0  0  0
 29 30  2  0  0  0  0
 29 31  1  0  0  0  0
 26 27  1  0  0  0  0
 26 28  2  0  0  0  0
 24 25  1  0  0  0  0
 24 26  1  0  0  0  0
 22 23  1  0  0  0  0
 22 24  2  0  0  0  0
 20 21  1  0  0  0  0
 20 22  1  0  0  0  0
 19 20  2  0  0  0  0
 19 28  1  0  0  0  0
 17 18  1  0  0  0  0
 17 19  1  0  0  0  0
 15 16  1  0  0  0  0
 15 17  1  0  0  0  0
 14 15  2  0  0  0  0
 14 28  1  0  0  0  0
 11 12  1  0  0  0  0
 11 13  1  0  0  0  0
 11 14  1  0  0  0  0
  9 10  1  0  0  0  0
  9 11  1  0  0  0  0
  9 29  1  0  0  0  0
  7  8  1  0  0  0  0
  7  9  1  0  0  0  0
 33 34  1  0  0  0  0
 33 35  1  0  0  0  0
 33 36  1  0  0  0  0
 31 32  1  0  0  0  0
 31 33  1  0  0  0  0
M  END
$$$$
default_name
  -OEChem-02102213163D

 36 37  0     1  0  0  0  0  0999 V2000
   -4.0843   -4.0736    1.2944 H   0  0  0  0  0  0  0  0  0  0  0  0
   -4.0342   -3.2816    0.5484 C   0  0  0  0  0  0  0  0  0  0  0  0
   -4.8842   -2.6126    0.6694 H   0  0  0  0  0  0  0  0  0  0  0  0
   -4.0433   -3.7186   -0.4486 H   0  0  0  0  0  0  0  0  0  0  0  0
   -2.7532   -2.5046    0.7444 C   0  0  0  0  0  0  0  0  0  0  0  0
   -1.9803   -2.8096    1.6434 O   0  0  0  0  0  0  0  0  0  0  0  0
   -2.5332   -1.4966   -0.0966 N   0  0  0  0  0  0  0  0  0  0  0  0
   -3.2312   -1.2816   -0.7936 H   0  0  0  0  0  0  0  0  0  0  0  0
   -1.3593   -0.6196   -0.0536 C   0  0  1  0  0  0  0  0  0  0  0  0
   -0.8788   -0.7266    0.9196 H   0  0  0  0  0  0  0  0  0  0  0  0
   -0.3559   -1.0533   -1.1339 C   0  0  0  0  0  0  0  0  0  0  0  0
   -0.4708   -2.1242   -1.3110 H   0  0  0  0  0  0  0  0  0  0  0  0
   -0.6014   -0.5367   -2.0633 H   0  0  0  0  0  0  0  0  0  0  0  0
    1.0832   -0.7891   -0.8094 C   0  0  0  0  0  0  0  0  0  0  0  0
    2.0579   -0.5303   -1.7098 C   0  0  0  0  0  0  0  0  0  0  0  0
    1.9138   -0.5021   -2.7843 H   0  0  0  0  0  0  0  0  0  0  0  0
    3.2473   -0.2902   -1.0502 N   0  0  0  0  0  0  0  0  0  0  0  0
    4.1137   -0.0786   -1.5232 H   0  0  0  0  0  0  0  0  0  0  0  0
    3.0935   -0.3664    0.3178 C   0  0  0  0  0  0  0  0  0  0  0  0
    3.9740   -0.1789    1.3929 C   0  0  0  0  0  0  0  0  0  0  0  0
    5.0086    0.0754    1.2152 H   0  0  0  0  0  0  0  0  0  0  0  0
    3.4918   -0.3283    2.7044 C   0  0  0  0  0  0  0  0  0  0  0  0
    4.1566   -0.1885    3.5461 H   0  0  0  0  0  0  0  0  0  0  0  0
    2.1436   -0.6667    2.9213 C   0  0  0  0  0  0  0  0  0  0  0  0
    1.7788   -0.7889    3.9318 H   0  0  0  0  0  0  0  0  0  0  0  0
    1.2680   -0.8548    1.8330 C   0  0  0  0  0  0  0  0  0  0  0  0
    0.2379   -1.1276    2.0133 H   0  0  0  0  0  0  0  0  0  0  0  0
    1.7200   -0.7059    0.5039 C   0  0  0  0  0  0  0  0  0  0  0  0
   -1.7617    0.8549   -0.2106 C   0  0  0  0  0  0  0  0  0  0  0  0
   -2.5726    1.1871   -1.0741 O   0  0  0  0  0  0  0  0  0  0  0  0
   -1.1941    1.7377    0.6223 N   0  0  0  0  0  0  0  0  0  0  0  0
   -0.4976    1.3916    1.2669 H   0  0  0  0  0  0  0  0  0  0  0  0
   -1.4666    3.1722    0.6095 C   0  0  0  0  0  0  0  0  0  0  0  0
   -2.5439    3.3427    0.6539 H   0  0  0  0  0  0  0  0  0  0  0  0
   -0.9893    3.6529    1.4644 H   0  0  0  0  0  0  0  0  0  0  0  0
   -1.0808    3.6095   -0.3129 H   0  0  0  0  0  0  0  0  0  0  0  0
  5  6  2  0  0  0  0
  5  7  1  0  0  0  0
  2  3  1  0  0  0  0
  2  4  1  0  0  0  0
  2  5  1  0  0  0  0
  1  2  1  0  0  0  0
 29 30  2  0  0  0  0
 29 31  1  0  0  0  0
 26 27  1  0  0  0  0
 26 28  2  0  0  0  0
 24 25  1  0  0  0  0
 24 26  1  0  0  0  0
 22 23  1  0  0  0  0
 22 24  2  0  0  0  0
 20 21  1  0  0  0  0
 20 22  1  0  0  0  0
 19 20  2  0  0  0  0
 19 28  1  0  0  0  0
 17 18  1  0  0  0  0
 17 19  1  0  0  0  0
 15 16  1  0  0  0  0
 15 17  1  0  0  0  0
 14 15  2  0  0  0  0
 14 28  1  0  0  0  0
 11 12  1  0  0  0  0
 11 13  1  0  0  0  0
 11 14  1  0  0  0  0
  9 10  1  0  0  0  0
  9 11  1  0  0  0  0
  9 29  1  0  0  0  0
  7  8  1  0  0  0  0
  7  9  1  0  0  0  0
 33 34  1  0  0  0  0
 33 35  1  0  0  0  0
 33 36  1  0  0  0  0
 31 32  1  0  0  0  0
 31 33  1  0  0  0  0
M  END
$$$$
default_name
  -OEChem-02102213163D

 36 37  0     1  0  0  0  0  0999 V2000
   -4.0843   -4.0736    1.2944 H   0  0  0  0  0  0  0  0  0  0  0  0
   -4.0342   -3.2816    0.5484 C   0  0  0  0  0  0  0  0  0  0  0  0
   -4.8842   -2.6126    0.6694 H   0  0  0  0  0  0  0  0  0  0  0  0
   -4.0433   -3.7186   -0.4486 H   0  0  0  0  0  0  0  0  0  0  0  0
   -2.7532   -2.5046    0.7444 C   0  0  0  0  0  0  0  0  0  0  0  0
   -1.9803   -2.8096    1.6434 O   0  0  0  0  0  0  0  0  0  0  0  0
   -2.5332   -1.4966   -0.0966 N   0  0  0  0  0  0  0  0  0  0  0  0
   -3.2312   -1.2816   -0.7936 H   0  0  0  0  0  0  0  0  0  0  0  0
   -1.3593   -0.6196   -0.0536 C   0  0  1  0  0  0  0  0  0  0  0  0
   -0.8788   -0.7266    0.9196 H   0  0  0  0  0  0  0  0  0  0  0  0
   -0.3559   -1.0533   -1.1339 C   0  0  0  0  0  0  0  0  0  0  0  0
   -0.4708   -2.1242   -1.3110 H   0  0  0  0  0  0  0  0  0  0  0  0
   -0.6014   -0.5367   -2.0633 H   0  0  0  0  0  0  0  0  0  0  0  0
    1.0832   -0.7891   -0.8094 C   0  0  0  0  0  0  0  0  0  0  0  0
    1.9948   -0.2560   -1.6534 C   0  0  0  0  0  0  0  0  0  0  0  0
    1.7930    0.0281   -2.6805 H   0  0  0  0  0  0  0  0  0  0  0  0
    3.2038   -0.1133   -1.0011 N   0  0  0  0  0  0  0  0  0  0  0  0
    4.0323    0.2617   -1.4394 H   0  0  0  0  0  0  0  0  0  0  0  0
    3.1263   -0.5348    0.3093 C   0  0  0  0  0  0  0  0  0  0  0  0
    4.0517   -0.5648    1.3624 C   0  0  0  0  0  0  0  0  0  0  0  0
    5.0614   -0.2110    1.2141 H   0  0  0  0  0  0  0  0  0  0  0  0
    3.6475   -1.0633    2.6126 C   0  0  0  0  0  0  0  0  0  0  0  0
    4.3479   -1.0952    3.4362 H   0  0  0  0  0  0  0  0  0  0  0  0
    2.3313   -1.5275    2.7898 C   0  0  0  0  0  0  0  0  0  0  0  0
    2.0269   -1.9180    3.7510 H   0  0  0  0  0  0  0  0  0  0  0  0
    1.4101   -1.4944    1.7237 C   0  0  0  0  0  0  0  0  0  0  0  0
    0.4059   -1.8665    1.8696 H   0  0  0  0  0  0  0  0  0  0  0  0
    1.7833   -0.9940    0.4575 C   0  0  0  0  0  0  0  0  0  0  0  0
   -1.7617    0.8549   -0.2106 C   0  0  0  0  0  0  0  0  0  0  0  0
   -2.5726    1.1871   -1.0741 O   0  0  0  0  0  0  0  0  0  0  0  0
   -1.1941    1.7377    0.6223 N   0  0  0  0  0  0  0  0  0  0  0  0
   -0.4976    1.3916    1.2669 H   0  0  0  0  0  0  0  0  0  0  0  0
   -1.4666    3.1722    0.6095 C   0  0  0  0  0  0  0  0  0  0  0  0
   -2.5439    3.3427    0.6539 H   0  0  0  0  0  0  0  0  0  0  0  0
   -0.9893    3.6529    1.4644 H   0  0  0  0  0  0  0  0  0  0  0  0
   -1.0808    3.6095   -0.3129 H   0  0  0  0  0  0  0  0  0  0  0  0
  5  6  2  0  0  0  0
  5  7  1  0  0  0  0
  2  3  1  0  0  0  0
  2  4  1  0  0  0  0
  2  5  1  0  0  0  0
  1  2  1  0  0  0  0
 29 30  2  0  0  0  0
 29 31  1  0  0  0  0
 26 27  1  0  0  0  0
 26 28  2  0  0  0  0
 24 25  1  0  0  0  0
 24 26  1  0  0  0  0
 22 23  1  0  0  0  0
 22 24  2  0  0  0  0
 20 21  1  0  0  0  0
 20 22  1  0  0  0  0
 19 20  2  0  0  0  0
 19 28  1  0  0  0  0
 17 18  1  0  0  0  0
 17 19  1  0  0  0  0
 15 16  1  0  0  0  0
 15 17  1  0  0  0  0
 14 15  2  0  0  0  0
 14 28  1  0  0  0  0
 11 12  1  0  0  0  0
 11 13  1  0  0  0  0
 11 14  1  0  0  0  0
  9 10  1  0  0  0  0
  9 11  1  0  0  0  0
  9 29  1  0  0  0  0
  7  8  1  0  0  0  0
  7  9  1  0  0  0  0
 33 34  1  0  0  0  0
 33 35  1  0  0  0  0
 33 36  1  0  0  0  0
 31 32  1  0  0  0  0
 31 33  1  0  0  0  0
M  END
$$$$
default_name
  -OEChem-02102213163D

 36 37  0     1  0  0  0  0  0999 V2000
   -4.0843   -4.0736    1.2944 H   0  0  0  0  0  0  0  0  0  0  0  0
   -4.0342   -3.2816    0.5484 C   0  0  0  0  0  0  0  0  0  0  0  0
   -4.8842   -2.6126    0.6694 H   0  0  0  0  0  0  0  0  0  0  0  0
   -4.0433   -3.7186   -0.4486 H   0  0  0  0  0  0  0  0  0  0  0  0
   -2.7532   -2.5046    0.7444 C   0  0  0  0  0  0  0  0  0  0  0  0
   -1.9803   -2.8096    1.6434 O   0  0  0  0  0  0  0  0  0  0  0  0
   -2.5332   -1.4966   -0.0966 N   0  0  0  0  0  0  0  0  0  0  0  0
   -3.2312   -1.2816   -0.7936 H   0  0  0  0  0  0  0  0  0  0  0  0
   -1.3593   -0.6196   -0.0536 C   0  0  1  0  0  0  0  0  0  0  0  0
   -0.8788   -0.7266    0.9196 H   0  0  0  0  0  0  0  0  0  0  0  0
   -0.3559   -1.0533   -1.1339 C   0  0  0  0  0  0  0  0  0  0  0  0
   -0.4708   -2.1242   -1.3110 H   0  0  0  0  0  0  0  0  0  0  0  0
   -0.6014   -0.5367   -2.0633 H   0  0  0  0  0  0  0  0  0  0  0  0
    1.0832   -0.7891   -0.8094 C   0  0  0  0  0  0  0  0  0  0  0  0
    1.9211   -0.0086   -1.5280 C   0  0  0  0  0  0  0  0  0  0  0  0
    1.6514    0.5075   -2.4429 H   0  0  0  0  0  0  0  0  0  0  0  0
    3.1541    0.0428   -0.9078 N   0  0  0  0  0  0  0  0  0  0  0  0
    3.9384    0.5651   -1.2701 H   0  0  0  0  0  0  0  0  0  0  0  0
    3.1671   -0.6935    0.2577 C   0  0  0  0  0  0  0  0  0  0  0  0
    4.1471   -0.9256    1.2334 C   0  0  0  0  0  0  0  0  0  0  0  0
    5.1285   -0.4844    1.1394 H   0  0  0  0  0  0  0  0  0  0  0  0
    3.8349   -1.7418    2.3341 C   0  0  0  0  0  0  0  0  0  0  0  0
    4.5784   -1.9329    3.0960 H   0  0  0  0  0  0  0  0  0  0  0  0
    2.5548   -2.3158    2.4403 C   0  0  0  0  0  0  0  0  0  0  0  0
    2.3215   -2.9498    3.2845 H   0  0  0  0  0  0  0  0  0  0  0  0
    1.5782   -2.0772    1.4526 C   0  0  0  0  0  0  0  0  0  0  0  0
    0.6031   -2.5351    1.5395 H   0  0  0  0  0  0  0  0  0  0  0  0
    1.8585   -1.2572    0.3382 C   0  0  0  0  0  0  0  0  0  0  0  0
   -1.7617    0.8549   -0.2106 C   0  0  0  0  0  0  0  0  0  0  0  0
   -2.5726    1.1871   -1.0741 O   0  0  0  0  0  0  0  0  0  0  0  0
   -1.1941    1.7377    0.6223 N   0  0  0  0  0  0  0  0  0  0  0  0
   -0.4976    1.3916    1.2669 H   0  0  0  0  0  0  0  0  0  0  0  0
   -1.4666    3.1722    0.6095 C   0  0  0  0  0  0  0  0  0  0  0  0
   -2.5439    3.3427    0.6539 H   0  0  0  0  0  0  0  0  0  0  0  0
   -0.9893    3.6529    1.4644 H   0  0  0  0  0  0  0  0  0  0  0  0
   -1.0808    3.6095   -0.3129 H   0  0  0  0  0  0  0  0  0  0  0  0
  5  6  2  0  0  0  0
  5  7  1  0  0  0  0
  2  3  1  0  0  0  0
  2  4  1  0  0  0  0
  2  5  1  0  0  0  0
  1  2  1  0  0  0  0
 29 30  2  0  0  0  0
 29 31  1  0  0  0  0
 26 27  1  0  0  0  0
 26 28  2  0  0  0  0
 24 25  1  0  0  0  0
 24 26  1  0  0  0  0
 22 23  1  0  0  0  0
 22 24  2  0  0  0  0
 20 21  1  0  0  0  0
 20 22  1  0  0  0  0
 19 20  2  0  0  0  0
 19 28  1  0  0  0  0
 17 18  1  0  0  0  0
 17 19  1  0  0  0  0
 15 16  1  0  0  0  0
 15 17  1  0  0  0  0
 14 15  2  0  0  0  0
 14 28  1  0  0  0  0
 11 12  1  0  0  0  0
 11 13  1  0  0  0  0
 11 14  1  0  0  0  0
  9 10  1  0  0  0  0
  9 11  1  0  0  0  0
  9 29  1  0  0  0  0
  7  8  1  0  0  0  0
  7  9  1  0  0  0  0
 33 34  1  0  0  0  0
 33 35  1  0  0  0  0
 33 36  1  0  0  0  0
 31 32  1  0  0  0  0
 31 33  1  0  0  0  0
M  END
$$$$
default_name
  -OEChem-02102213163D

 36 37  0     1  0  0  0  0  0999 V2000
   -4.0843   -4.0736    1.2944 H   0  0  0  0  0  0  0  0  0  0  0  0
   -4.0342   -3.2816    0.5484 C   0  0  0  0  0  0  0  0  0  0  0  0
   -4.8842   -2.6126    0.6694 H   0  0  0  0  0  0  0  0  0  0  0  0
   -4.0433   -3.7186   -0.4486 H   0  0  0  0  0  0  0  0  0  0  0  0
   -2.7532   -2.5046    0.7444 C   0  0  0  0  0  0  0  0  0  0  0  0
   -1.9803   -2.8096    1.6434 O   0  0  0  0  0  0  0  0  0  0  0  0
   -2.5332   -1.4966   -0.0966 N   0  0  0  0  0  0  0  0  0  0  0  0
   -3.2312   -1.2816   -0.7936 H   0  0  0  0  0  0  0  0  0  0  0  0
   -1.3593   -0.6196   -0.0536 C   0  0  1  0  0  0  0  0  0  0  0  0
   -0.8788   -0.7266    0.9196 H   0  0  0  0  0  0  0  0  0  0  0  0
   -0.3559   -1.0533   -1.1339 C   0  0  0  0  0  0  0  0  0  0  0  0
   -0.4708   -2.1242   -1.3110 H   0  0  0  0  0  0  0  0  0  0  0  0
   -0.6014   -0.5367   -2.0633 H   0  0  0  0  0  0  0  0  0  0  0  0
    1.0832   -0.7891   -0.8094 C   0  0  0  0  0  0  0  0  0  0  0  0
    1.8417    0.1951   -1.3419 C   0  0  0  0  0  0  0  0  0  0  0  0
    1.4986    0.9037   -2.0878 H   0  0  0  0  0  0  0  0  0  0  0  0
    3.1015    0.1677   -0.7766 N   0  0  0  0  0  0  0  0  0  0  0  0
    3.8385    0.8107   -1.0269 H   0  0  0  0  0  0  0  0  0  0  0  0
    3.2130   -0.8316    0.1666 C   0  0  0  0  0  0  0  0  0  0  0  0
    4.2535   -1.2368    1.0149 C   0  0  0  0  0  0  0  0  0  0  0  0
    5.2051   -0.7263    0.9963 H   0  0  0  0  0  0  0  0  0  0  0  0
    4.0412   -2.3174    1.8879 C   0  0  0  0  0  0  0  0  0  0  0  0
    4.8325   -2.6446    2.5487 H   0  0  0  0  0  0  0  0  0  0  0  0
    2.7990   -2.9778    1.8966 C   0  0  0  0  0  0  0  0  0  0  0  0
    2.6427   -3.8141    2.5640 H   0  0  0  0  0  0  0  0  0  0  0  0
    1.7609   -2.5633    1.0382 C   0  0  0  0  0  0  0  0  0  0  0  0
    0.8160   -3.0879    1.0456 H   0  0  0  0  0  0  0  0  0  0  0  0
    1.9405   -1.4775    0.1541 C   0  0  0  0  0  0  0  0  0  0  0  0
   -1.7617    0.8549   -0.2106 C   0  0  0  0  0  0  0  0  0  0  0  0
   -2.5726    1.1871   -1.0741 O   0  0  0  0  0  0  0  0  0  0  0  0
   -1.1941    1.7377    0.6223 N   0  0  0  0  0  0  0  0  0  0  0  0
   -0.4976    1.3916    1.2669 H   0  0  0  0  0  0  0  0  0  0  0  0
   -1.4666    3.1722    0.6095 C   0  0  0  0  0  0  0  0  0  0  0  0
   -2.5439    3.3427    0.6539 H   0  0  0  0  0  0  0  0  0  0  0  0
   -0.9893    3.6529    1.4644 H   0  0  0  0  0  0  0  0  0  0  0  0
   -1.0808    3.6095   -0.3129 H   0  0  0  0  0  0  0  0  0  0  0  0
  5  6  2  0  0  0  0
  5  7  1  0  0  0  0
  2  3  1  0  0  0  0
  2  4  1  0  0  0  0
  2  5  1  0  0  0  0
  1  2  1  0  0  0  0
 29 30  2  0  0  0  0
 29 31  1  0  0  0  0
 26 27  1  0  0  0  0
 26 28  2  0  0  0  0
 24 25  1  0  0  0  0
 24 26  1  0  0  0  0
 22 23  1  0  0  0  0
 22 24  2  0  0  0  0
 20 21  1  0  0  0  0
 20 22  1  0  0  0  0
 19 20  2  0  0  0  0
 19 28  1  0  0  0  0
 17 18  1  0  0  0  0
 17 19  1  0  0  0  0
 15 16  1  0  0  0  0
 15 17  1  0  0  0  0
 14 15  2  0  0  0  0
 14 28  1  0  0  0  0
 11 12  1  0  0  0  0
 11 13  1  0  0  0  0
 11 14  1  0  0  0  0
  9 10  1  0  0  0  0
  9 11  1  0  0  0  0
  9 29  1  0  0  0  0
  7  8  1  0  0  0  0
  7  9  1  0  0  0  0
 33 34  1  0  0  0  0
 33 35  1  0  0  0  0
 33 36  1  0  0  0  0
 31 32  1  0  0  0  0
 31 33  1  0  0  0  0
M  END
$$$$
default_name
  -OEChem-02102213163D

 36 37  0     1  0  0  0  0  0999 V2000
   -4.0843   -4.0736    1.2944 H   0  0  0  0  0  0  0  0  0  0  0  0
   -4.0342   -3.2816    0.5484 C   0  0  0  0  0  0  0  0  0  0  0  0
   -4.8842   -2.6126    0.6694 H   0  0  0  0  0  0  0  0  0  0  0  0
   -4.0433   -3.7186   -0.4486 H   0  0  0  0  0  0  0  0  0  0  0  0
   -2.7532   -2.5046    0.7444 C   0  0  0  0  0  0  0  0  0  0  0  0
   -1.9803   -2.8096    1.6434 O   0  0  0  0  0  0  0  0  0  0  0  0
   -2.5332   -1.4966   -0.0966 N   0  0  0  0  0  0  0  0  0  0  0  0
   -3.2312   -1.2816   -0.7936 H   0  0  0  0  0  0  0  0  0  0  0  0
   -1.3593   -0.6196   -0.0536 C   0  0  1  0  0  0  0  0  0  0  0  0
   -0.8788   -0.7266    0.9196 H   0  0  0  0  0  0  0  0  0  0  0  0
   -0.3559   -1.0533   -1.1339 C   0  0  0  0  0  0  0  0  0  0  0  0
   -0.4708   -2.1242   -1.3110 H   0  0  0  0  0  0  0  0  0  0  0  0
   -0.6014   -0.5367   -2.0633 H   0  0  0  0  0  0  0  0  0  0  0  0
    1.0832   -0.7891   -0.8094 C   0  0  0  0  0  0  0  0  0  0  0  0
    1.7621    0.3412   -1.1080 C   0  0  0  0  0  0  0  0  0  0  0  0
    1.3450    1.1896   -1.6394 H   0  0  0  0  0  0  0  0  0  0  0  0
    3.0498    0.2528   -0.6165 N   0  0  0  0  0  0  0  0  0  0  0  0
    3.7392    0.9820   -0.7263 H   0  0  0  0  0  0  0  0  0  0  0  0
    3.2609   -0.9398    0.0422 C   0  0  0  0  0  0  0  0  0  0  0  0
    4.3637   -1.4770    0.7216 C   0  0  0  0  0  0  0  0  0  0  0  0
    5.2862   -0.9200    0.7945 H   0  0  0  0  0  0  0  0  0  0  0  0
    4.2523   -2.7509    1.3045 C   0  0  0  0  0  0  0  0  0  0  0  0
    5.0928   -3.1818    1.8316 H   0  0  0  0  0  0  0  0  0  0  0  0
    3.0471   -3.4685    1.1958 C   0  0  0  0  0  0  0  0  0  0  0  0
    2.9684   -4.4518    1.6386 H   0  0  0  0  0  0  0  0  0  0  0  0
    1.9457   -2.9196    0.5089 C   0  0  0  0  0  0  0  0  0  0  0  0
    1.0301   -3.4871    0.4213 H   0  0  0  0  0  0  0  0  0  0  0  0
    2.0236   -1.6399   -0.0822 C   0  0  0  0  0  0  0  0  0  0  0  0
   -1.7617    0.8549   -0.2106 C   0  0  0  0  0  0  0  0  0  0  0  0
   -2.5726    1.1871   -1.0741 O   0  0  0  0  0  0  0  0  0  0  0  0
   -1.1941    1.7377    0.6223 N   0  0  0  0  0  0  0  0  0  0  0  0
   -0.4976    1.3916    1.2669 H   0  0  0  0  0  0  0  0  0  0  0  0
   -1.4666    3.1722    0.6095 C   0  0  0  0  0  0  0  0  0  0  0  0
   -2.5439    3.3427    0.6539 H   0  0  0  0  0  0  0  0  0  0  0  0
   -0.9893    3.6529    1.4644 H   0  0  0  0  0  0  0  0  0  0  0  0
   -1.0808    3.6095   -0.3129 H   0  0  0  0  0  0  0  0  0  0  0  0
  5  6  2  0  0  0  0
  5  7  1  0  0  0  0
  2  3  1  0  0  0  0
  2  4  1  0  0  0  0
  2  5  1  0  0  0  0
  1  2  1  0  0  0  0
 29 30  2  0  0  0  0
 29 31  1  0  0  0  0
 26 27  1  0  0  0  0
 26 28  2  0  0  0  0
 24 25  1  0  0  0  0
 24 26  1  0  0  0  0
 22 23  1  0  0  0  0
 22 24  2  0  0  0  0
 20 21  1  0  0  0  0
 20 22  1  0  0  0  0
 19 20  2  0  0  0  0
 19 28  1  0  0  0  0
 17 18  1  0  0  0  0
 17 19  1  0  0  0  0
 15 16  1  0  0  0  0
 15 17  1  0  0  0  0
 14 15  2  0  0  0  0
 14 28  1  0  0  0  0
 11 12  1  0  0  0  0
 11 13  1  0  0  0  0
 11 14  1  0  0  0  0
  9 10  1  0  0  0  0
  9 11  1  0  0  0  0
  9 29  1  0  0  0  0
  7  8  1  0  0  0  0
  7  9  1  0  0  0  0
 33 34  1  0  0  0  0
 33 35  1  0  0  0  0
 33 36  1  0  0  0  0
 31 32  1  0  0  0  0
 31 33  1  0  0  0  0
M  END
$$$$
default_name
  -OEChem-02102213163D

 36 37  0     1  0  0  0  0  0999 V2000
   -4.0843   -4.0736    1.2944 H   0  0  0  0  0  0  0  0  0  0  0  0
   -4.0342   -3.2816    0.5484 C   0  0  0  0  0  0  0  0  0  0  0  0
   -4.8842   -2.6126    0.6694 H   0  0  0  0  0  0  0  0  0  0  0  0
   -4.0433   -3.7186   -0.4486 H   0  0  0  0  0  0  0  0  0  0  0  0
   -2.7532   -2.5046    0.7444 C   0  0  0  0  0  0  0  0  0  0  0  0
   -1.9803   -2.8096    1.6434 O   0  0  0  0  0  0  0  0  0  0  0  0
   -2.5332   -1.4966   -0.0966 N   0  0  0  0  0  0  0  0  0  0  0  0
   -3.2312   -1.2816   -0.7936 H   0  0  0  0  0  0  0  0  0  0  0  0
   -1.3593   -0.6196   -0.0536 C   0  0  1  0  0  0  0  0  0  0  0  0
   -0.8788   -0.7266    0.9196 H   0  0  0  0  0  0  0  0  0  0  0  0
   -0.3559   -1.0533   -1.1339 C   0  0  0  0  0  0  0  0  0  0  0  0
   -0.4708   -2.1242   -1.3110 H   0  0  0  0  0  0  0  0  0  0  0  0
   -0.6014   -0.5367   -2.0633 H   0  0  0  0  0  0  0  0  0  0  0  0
    1.0832   -0.7891   -0.8094 C   0  0  0  0  0  0  0  0  0  0  0  0
    1.6878    0.4197   -0.8421 C   0  0  0  0  0  0  0  0  0  0  0  0
    1.2011    1.3456   -1.1283 H   0  0  0  0  0  0  0  0  0  0  0  0
    3.0024    0.2923   -0.4382 N   0  0  0  0  0  0  0  0  0  0  0  0
    3.6475    1.0672   -0.3890 H   0  0  0  0  0  0  0  0  0  0  0  0
    3.3076   -1.0108   -0.1071 C   0  0  0  0  0  0  0  0  0  0  0  0
    4.4703   -1.6300    0.3735 C   0  0  0  0  0  0  0  0  0  0  0  0
    5.3662   -1.0524    0.5477 H   0  0  0  0  0  0  0  0  0  0  0  0
    4.4540   -3.0129    0.6236 C   0  0  0  0  0  0  0  0  0  0  0  0
    5.3417   -3.5078    0.9935 H   0  0  0  0  0  0  0  0  0  0  0  0
    3.2823   -3.7544    0.3856 C   0  0  0  0  0  0  0  0  0  0  0  0
    3.2766   -4.8195    0.5714 H   0  0  0  0  0  0  0  0  0  0  0  0
    2.1200   -3.1218   -0.0994 C   0  0  0  0  0  0  0  0  0  0  0  0
    1.2307   -3.7055   -0.2906 H   0  0  0  0  0  0  0  0  0  0  0  0
    2.1022   -1.7335   -0.3547 C   0  0  0  0  0  0  0  0  0  0  0  0
   -1.7617    0.8549   -0.2106 C   0  0  0  0  0  0  0  0  0  0  0  0
   -2.5726    1.1871   -1.0741 O   0  0  0  0  0  0  0  0  0  0  0  0
   -1.1941    1.7377    0.6223 N   0  0  0  0  0  0  0  0  0  0  0  0
   -0.4976    1.3916    1.2669 H   0  0  0  0  0  0  0  0  0  0  0  0
   -1.4666    3.1722    0.6095 C   0  0  0  0  0  0  0  0  0  0  0  0
   -2.5439    3.3427    0.6539 H   0  0  0  0  0  0  0  0  0  0  0  0
   -0.9893    3.6529    1.4644 H   0  0  0  0  0  0  0  0  0  0  0  0
   -1.0808    3.6095   -0.3129 H   0  0  0  0  0  0  0  0  0  0  0  0
  5  6  2  0  0  0  0
  5  7  1  0  0  0  0
  2  3  1  0  0  0  0
  2  4  1  0  0  0  0
  2  5  1  0  0  0  0
  1  2  1  0  0  0  0
 29 30  2  0  0  0  0
 29 31  1  0  0  0  0
 26 27  1  0  0  0  0
 26 28  2  0  0  0  0
 24 25  1  0  0  0  0
 24 26  1  0  0  0  0
 22 23  1  0  0  0  0
 22 24  2  0  0  0  0
 20 21  1  0  0  0  0
 20 22  1  0  0  0  0
 19 20  2  0  0  0  0
 19 28  1  0  0  0  0
 17 18  1  0  0  0  0
 17 19  1  0  0  0  0
 15 16  1  0  0  0  0
 15 17  1  0  0  0  0
 14 15  2  0  0  0  0
 14 28  1  0  0  0  0
 11 12  1  0  0  0  0
 11 13  1  0  0  0  0
 11 14  1  0  0  0  0
  9 10  1  0  0  0  0
  9 11  1  0  0  0  0
  9 29  1  0  0  0  0
  7  8  1  0  0  0  0
  7  9  1  0  0  0  0
 33 34  1  0  0  0  0
 33 35  1  0  0  0  0
 33 36  1  0  0  0  0
 31 32  1  0  0  0  0
 31 33  1  0  0  0  0
M  END
$$$$
default_name
  -OEChem-02102213163D

 36 37  0     1  0  0  0  0  0999 V2000
   -4.0843   -4.0736    1.2944 H   0  0  0  0  0  0  0  0  0  0  0  0
   -4.0342   -3.2816    0.5484 C   0  0  0  0  0  0  0  0  0  0  0  0
   -4.8842   -2.6126    0.6694 H   0  0  0  0  0  0  0  0  0  0  0  0
   -4.0433   -3.7186   -0.4486 H   0  0  0  0  0  0  0  0  0  0  0  0
   -2.7532   -2.5046    0.7444 C   0  0  0  0  0  0  0  0  0  0  0  0
   -1.9803   -2.8096    1.6434 O   0  0  0  0  0  0  0  0  0  0  0  0
   -2.5332   -1.4966   -0.0966 N   0  0  0  0  0  0  0  0  0  0  0  0
   -3.2312   -1.2816   -0.7936 H   0  0  0  0  0  0  0  0  0  0  0  0
   -1.3593   -0.6196   -0.0536 C   0  0  1  0  0  0  0  0  0  0  0  0
   -0.8788   -0.7266    0.9196 H   0  0  0  0  0  0  0  0  0  0  0  0
   -0.3559   -1.0533   -1.1339 C   0  0  0  0  0  0  0  0  0  0  0  0
   -0.4708   -2.1242   -1.3110 H   0  0  0  0  0  0  0  0  0  0  0  0
   -0.6014   -0.5367   -2.0633 H   0  0  0  0  0  0  0  0  0  0  0  0
    1.0832   -0.7891   -0.8094 C   0  0  0  0  0  0  0  0  0  0  0  0
    1.6237    0.4252   -0.5624 C   0  0  0  0  0  0  0  0  0  0  0  0
    1.0767    1.3613   -0.5891 H   0  0  0  0  0  0  0  0  0  0  0  0
    2.9625    0.2834   -0.2541 N   0  0  0  0  0  0  0  0  0  0  0  0
    3.5696    1.0605   -0.0377 H   0  0  0  0  0  0  0  0  0  0  0  0
    3.3498   -1.0396   -0.2710 C   0  0  0  0  0  0  0  0  0  0  0  0
    4.5659   -1.6854   -0.0055 C   0  0  0  0  0  0  0  0  0  0  0  0
    5.4396   -1.1144    0.2728 H   0  0  0  0  0  0  0  0  0  0  0  0
    4.6323   -3.0854   -0.1084 C   0  0  0  0  0  0  0  0  0  0  0  0
    5.5621   -3.6006    0.0916 H   0  0  0  0  0  0  0  0  0  0  0  0
    3.4885   -3.8160   -0.4788 C   0  0  0  0  0  0  0  0  0  0  0  0
    3.5462   -4.8922   -0.5649 H   0  0  0  0  0  0  0  0  0  0  0  0
    2.2719   -3.1562   -0.7452 C   0  0  0  0  0  0  0  0  0  0  0  0
    1.4043   -3.7284   -1.0418 H   0  0  0  0  0  0  0  0  0  0  0  0
    2.1710   -1.7517   -0.6447 C   0  0  0  0  0  0  0  0  0  0  0  0
   -1.7617    0.8549   -0.2106 C   0  0  0  0  0  0  0  0  0  0  0  0
   -2.5726    1.1871   -1.0741 O   0  0  0  0  0  0  0  0  0  0  0  0
   -1.1941    1.7377    0.6223 N   0  0  0  0  0  0  0  0  0  0  0  0
   -0.4976    1.3916    1.2669 H   0  0  0  0  0  0  0  0  0  0  0  0
   -1.4666    3.1722    0.6095 C   0  0  0  0  0  0  0  0  0  0  0  0
   -2.5439    3.3427    0.6539 H   0  0  0  0  0  0  0  0  0  0  0  0
   -0.9893    3.6529    1.4644 H   0  0  0  0  0  0  0  0  0  0  0  0
   -1.0808    3.6095   -0.3129 H   0  0  0  0  0  0  0  0  0  0  0  0
  5  6  2  0  0  0  0
  5  7  1  0  0  0  0
  2  3  1  0  0  0  0
  2  4  1  0  0  0  0
  2  5  1  0  0  0  0
  1  2  1  0  0  0  0
 29 30  2  0  0  0  0
 29 31  1  0  0  0  0
 26 27  1  0  0  0  0
 26 28  2  0  0  0  0
 24 25  1  0  0  0  0
 24 26  1  0  0  0  0
 22 23  1  0  0  0  0
 22 24  2  0  0  0  0
 20 21  1  0  0  0  0
 20 22  1  0  0  0  0
 19 20  2  0  0  0  0
 19 28  1  0  0  0  0
 17 18  1  0  0  0  0
 17 19  1  0  0  0  0
 15 16  1  0  0  0  0
 15 17  1  0  0  0  0
 14 15  2  0  0  0  0
 14 28  1  0  0  0  0
 11 12  1  0  0  0  0
 11 13  1  0  0  0  0
 11 14  1  0  0  0  0
  9 10  1  0  0  0  0
  9 11  1  0  0  0  0
  9 29  1  0  0  0  0
  7  8  1  0  0  0  0
  7  9  1  0  0  0  0
 33 34  1  0  0  0  0
 33 35  1  0  0  0  0
 33 36  1  0  0  0  0
 31 32  1  0  0  0  0
 31 33  1  0  0  0  0
M  END
$$$$
default_name
  -OEChem-02102213163D

 36 37  0     1  0  0  0  0  0999 V2000
   -4.0843   -4.0736    1.2944 H   0  0  0  0  0  0  0  0  0  0  0  0
   -4.0342   -3.2816    0.5484 C   0  0  0  0  0  0  0  0  0  0  0  0
   -4.8842   -2.6126    0.6694 H   0  0  0  0  0  0  0  0  0  0  0  0
   -4.0433   -3.7186   -0.4486 H   0  0  0  0  0  0  0  0  0  0  0  0
   -2.7532   -2.5046    0.7444 C   0  0  0  0  0  0  0  0  0  0  0  0
   -1.9803   -2.8096    1.6434 O   0  0  0  0  0  0  0  0  0  0  0  0
   -2.5332   -1.4966   -0.0966 N   0  0  0  0  0  0  0  0  0  0  0  0
   -3.2312   -1.2816   -0.7936 H   0  0  0  0  0  0  0  0  0  0  0  0
   -1.3593   -0.6196   -0.0536 C   0  0  1  0  0  0  0  0  0  0  0  0
   -0.8788   -0.7266    0.9196 H   0  0  0  0  0  0  0  0  0  0  0  0
   -0.3559   -1.0533   -1.1339 C   0  0  0  0  0  0  0  0  0  0  0  0
   -0.4708   -2.1242   -1.3110 H   0  0  0  0  0  0  0  0  0  0  0  0
   -0.6014   -0.5367   -2.0633 H   0  0  0  0  0  0  0  0  0  0  0  0
    1.0832   -0.7891   -0.8094 C   0  0  0  0  0  0  0  0  0  0  0  0
    1.5742    0.3575   -0.2879 C   0  0  0  0  0  0  0  0  0  0  0  0
    0.9802    1.2354   -0.0588 H   0  0  0  0  0  0  0  0  0  0  0  0
    2.9328    0.2269   -0.0767 N   0  0  0  0  0  0  0  0  0  0  0  0
    3.5106    0.9623    0.3034 H   0  0  0  0  0  0  0  0  0  0  0  0
    3.3848   -1.0243   -0.4384 C   0  0  0  0  0  0  0  0  0  0  0  0
    4.6441   -1.6392   -0.3898 C   0  0  0  0  0  0  0  0  0  0  0  0
    5.5014   -1.1019   -0.0116 H   0  0  0  0  0  0  0  0  0  0  0  0
    4.7753   -2.9635   -0.8417 C   0  0  0  0  0  0  0  0  0  0  0  0
    5.7391   -3.4536   -0.8127 H   0  0  0  0  0  0  0  0  0  0  0  0
    3.6517   -3.6491   -1.3384 C   0  0  0  0  0  0  0  0  0  0  0  0
    3.7588   -4.6650   -1.6928 H   0  0  0  0  0  0  0  0  0  0  0  0
    2.3912   -3.0205   -1.3845 C   0  0  0  0  0  0  0  0  0  0  0  0
    1.5390   -3.5540   -1.7809 H   0  0  0  0  0  0  0  0  0  0  0  0
    2.2252   -1.6934   -0.9324 C   0  0  0  0  0  0  0  0  0  0  0  0
   -1.7617    0.8549   -0.2106 C   0  0  0  0  0  0  0  0  0  0  0  0
   -2.5726    1.1871   -1.0741 O   0  0  0  0  0  0  0  0  0  0  0  0
   -1.1941    1.7377    0.6223 N   0  0  0  0  0  0  0  0  0  0  0  0
   -0.4976    1.3916    1.2669 H   0  0  0  0  0  0  0  0  0  0  0  0
   -1.4666    3.1722    0.6095 C   0  0  0  0  0  0  0  0  0  0  0  0
   -2.5439    3.3427    0.6539 H   0  0  0  0  0  0  0  0  0  0  0  0
   -0.9893    3.6529    1.4644 H   0  0  0  0  0  0  0  0  0  0  0  0
   -1.0808    3.6095   -0.3129 H   0  0  0  0  0  0  0  0  0  0  0  0
  5  6  2  0  0  0  0
  5  7  1  0  0  0  0
  2  3  1  0  0  0  0
  2  4  1  0  0  0  0
  2  5  1  0  0  0  0
  1  2  1  0  0  0  0
 29 30  2  0  0  0  0
 29 31  1  0  0  0  0
 26 27  1  0  0  0  0
 26 28  2  0  0  0  0
 24 25  1  0  0  0  0
 24 26  1  0  0  0  0
 22 23  1  0  0  0  0
 22 24  2  0  0  0  0
 20 21  1  0  0  0  0
 20 22  1  0  0  0  0
 19 20  2  0  0  0  0
 19 28  1  0  0  0  0
 17 18  1  0  0  0  0
 17 19  1  0  0  0  0
 15 16  1  0  0  0  0
 15 17  1  0  0  0  0
 14 15  2  0  0  0  0
 14 28  1  0  0  0  0
 11 12  1  0  0  0  0
 11 13  1  0  0  0  0
 11 14  1  0  0  0  0
  9 10  1  0  0  0  0
  9 11  1  0  0  0  0
  9 29  1  0  0  0  0
  7  8  1  0  0  0  0
  7  9  1  0  0  0  0
 33 34  1  0  0  0  0
 33 35  1  0  0  0  0
 33 36  1  0  0  0  0
 31 32  1  0  0  0  0
 31 33  1  0  0  0  0
M  END
$$$$
default_name
  -OEChem-02102213163D

 36 37  0     1  0  0  0  0  0999 V2000
   -4.0843   -4.0736    1.2944 H   0  0  0  0  0  0  0  0  0  0  0  0
   -4.0342   -3.2816    0.5484 C   0  0  0  0  0  0  0  0  0  0  0  0
   -4.8842   -2.6126    0.6694 H   0  0  0  0  0  0  0  0  0  0  0  0
   -4.0433   -3.7186   -0.4486 H   0  0  0  0  0  0  0  0  0  0  0  0
   -2.7532   -2.5046    0.7444 C   0  0  0  0  0  0  0  0  0  0  0  0
   -1.9803   -2.8096    1.6434 O   0  0  0  0  0  0  0  0  0  0  0  0
   -2.5332   -1.4966   -0.0966 N   0  0  0  0  0  0  0  0  0  0  0  0
   -3.2312   -1.2816   -0.7936 H   0  0  0  0  0  0  0  0  0  0  0  0
   -1.3593   -0.6196   -0.0536 C   0  0  1  0  0  0  0  0  0  0  0  0
   -0.8788   -0.7266    0.9196 H   0  0  0  0  0  0  0  0  0  0  0  0
   -0.3559   -1.0533   -1.1339 C   0  0  0  0  0  0  0  0  0  0  0  0
   -0.4708   -2.1242   -1.3110 H   0  0  0  0  0  0  0  0  0  0  0  0
   -0.6014   -0.5367   -2.0633 H   0  0  0  0  0  0  0  0  0  0  0  0
    1.0832   -0.7891   -0.8094 C   0  0  0  0  0  0  0  0  0  0  0  0
    1.5428    0.2210   -0.0373 C   0  0  0  0  0  0  0  0  0  0  0  0
    0.9182    0.9767    0.4265 H   0  0  0  0  0  0  0  0  0  0  0  0
    2.9155    0.1266    0.0821 N   0  0  0  0  0  0  0  0  0  0  0  0
    3.4748    0.7794    0.6113 H   0  0  0  0  0  0  0  0  0  0  0  0
    3.4101   -0.9660   -0.5980 C   0  0  0  0  0  0  0  0  0  0  0  0
    4.6995   -1.4948   -0.7531 C   0  0  0  0  0  0  0  0  0  0  0  0
    5.5474   -1.0157   -0.2860 H   0  0  0  0  0  0  0  0  0  0  0  0
    4.8731   -2.6555   -1.5262 C   0  0  0  0  0  0  0  0  0  0  0  0
    5.8605   -3.0771   -1.6577 H   0  0  0  0  0  0  0  0  0  0  0  0
    3.7608   -3.2651   -2.1348 C   0  0  0  0  0  0  0  0  0  0  0  0
    3.9000   -4.1532   -2.7356 H   0  0  0  0  0  0  0  0  0  0  0  0
    2.4696   -2.7238   -1.9737 C   0  0  0  0  0  0  0  0  0  0  0  0
    1.6256   -3.1944   -2.4577 H   0  0  0  0  0  0  0  0  0  0  0  0
    2.2611   -1.5626   -1.1984 C   0  0  0  0  0  0  0  0  0  0  0  0
   -1.7617    0.8549   -0.2106 C   0  0  0  0  0  0  0  0  0  0  0  0
   -2.5726    1.1871   -1.0741 O   0  0  0  0  0  0  0  0  0  0  0  0
   -1.1941    1.7377    0.6223 N   0  0  0  0  0  0  0  0  0  0  0  0
   -0.4976    1.3916    1.2669 H   0  0  0  0  0  0  0  0  0  0  0  0
   -1.4666    3.1722    0.6095 C   0  0  0  0  0  0  0  0  0  0  0  0
   -2.5439    3.3427    0.6539 H   0  0  0  0  0  0  0  0  0  0  0  0
   -0.9893    3.6529    1.4644 H   0  0  0  0  0  0  0  0  0  0  0  0
   -1.0808    3.6095   -0.3129 H   0  0  0  0  0  0  0  0  0  0  0  0
  5  6  2  0  0  0  0
  5  7  1  0  0  0  0
  2  3  1  0  0  0  0
  2  4  1  0  0  0  0
  2  5  1  0  0  0  0
  1  2  1  0  0  0  0
 29 30  2  0  0  0  0
 29 31  1  0  0  0  0
 26 27  1  0  0  0  0
 26 28  2  0  0  0  0
 24 25  1  0  0  0  0
 24 26  1  0  0  0  0
 22 23  1  0  0  0  0
 22 24  2  0  0  0  0
 20 21  1  0  0  0  0
 20 22  1  0  0  0  0
 19 20  2  0  0  0  0
 19 28  1  0  0  0  0
 17 18  1  0  0  0  0
 17 19  1  0  0  0  0
 15 16  1  0  0  0  0
 15 17  1  0  0  0  0
 14 15  2  0  0  0  0
 14 28  1  0  0  0  0
 11 12  1  0  0  0  0
 11 13  1  0  0  0  0
 11 14  1  0  0  0  0
  9 10  1  0  0  0  0
  9 11  1  0  0  0  0
  9 29  1  0  0  0  0
  7  8  1  0  0  0  0
  7  9  1  0  0  0  0
 33 34  1  0  0  0  0
 33 35  1  0  0  0  0
 33 36  1  0  0  0  0
 31 32  1  0  0  0  0
 31 33  1  0  0  0  0
M  END
$$$$
default_name
  -OEChem-02102213163D

 36 37  0     1  0  0  0  0  0999 V2000
   -4.0843   -4.0736    1.2944 H   0  0  0  0  0  0  0  0  0  0  0  0
   -4.0342   -3.2816    0.5484 C   0  0  0  0  0  0  0  0  0  0  0  0
   -4.8842   -2.6126    0.6694 H   0  0  0  0  0  0  0  0  0  0  0  0
   -4.0433   -3.7186   -0.4486 H   0  0  0  0  0  0  0  0  0  0  0  0
   -2.7532   -2.5046    0.7444 C   0  0  0  0  0  0  0  0  0  0  0  0
   -1.9803   -2.8096    1.6434 O   0  0  0  0  0  0  0  0  0  0  0  0
   -2.5332   -1.4966   -0.0966 N   0  0  0  0  0  0  0  0  0  0  0  0
   -3.2312   -1.2816   -0.7936 H   0  0  0  0  0  0  0  0  0  0  0  0
   -1.3593   -0.6196   -0.0536 C   0  0  1  0  0  0  0  0  0  0  0  0
   -0.8788   -0.7266    0.9196 H   0  0  0  0  0  0  0  0  0  0  0  0
   -0.3559   -1.0533   -1.1339 C   0  0  0  0  0  0  0  0  0  0  0  0
   -0.4708   -2.1242   -1.3110 H   0  0  0  0  0  0  0  0  0  0  0  0
   -0.6014   -0.5367   -2.0633 H   0  0  0  0  0  0  0  0  0  0  0  0
    1.0832   -0.7891   -0.8094 C   0  0  0  0  0  0  0  0  0  0  0  0
    1.5315    0.0252    0.1723 C   0  0  0  0  0  0  0  0  0  0  0  0
    0.8951    0.6026    0.8339 H   0  0  0  0  0  0  0  0  0  0  0  0
    2.9116   -0.0108    0.2112 N   0  0  0  0  0  0  0  0  0  0  0  0
    3.4645    0.5242    0.8648 H   0  0  0  0  0  0  0  0  0  0  0  0
    3.4239   -0.8686   -0.7387 C   0  0  0  0  0  0  0  0  0  0  0  0
    4.7284   -1.2619   -1.0706 C   0  0  0  0  0  0  0  0  0  0  0  0
    5.5746   -0.8617   -0.5317 H   0  0  0  0  0  0  0  0  0  0  0  0
    4.9191   -2.1824   -2.1152 C   0  0  0  0  0  0  0  0  0  0  0  0
    5.9181   -2.4965   -2.3859 H   0  0  0  0  0  0  0  0  0  0  0  0
    3.8083   -2.6902   -2.8135 C   0  0  0  0  0  0  0  0  0  0  0  0
    3.9601   -3.3918   -3.6220 H   0  0  0  0  0  0  0  0  0  0  0  0
    2.5018   -2.2863   -2.4727 C   0  0  0  0  0  0  0  0  0  0  0  0
    1.6582   -2.6740   -3.0259 H   0  0  0  0  0  0  0  0  0  0  0  0
    2.2764   -1.3681   -1.4244 C   0  0  0  0  0  0  0  0  0  0  0  0
   -1.7617    0.8549   -0.2106 C   0  0  0  0  0  0  0  0  0  0  0  0
   -2.5726    1.1871   -1.0741 O   0  0  0  0  0  0  0  0  0  0  0  0
   -1.1941    1.7377    0.6223 N   0  0  0  0  0  0  0  0  0  0  0  0
   -0.4976    1.3916    1.2669 H   0  0  0  0  0  0  0  0  0  0  0  0
   -1.4666    3.1722    0.6095 C   0  0  0  0  0  0  0  0  0  0  0  0
   -2.5439    3.3427    0.6539 H   0  0  0  0  0  0  0  0  0  0  0  0
   -0.9893    3.6529    1.4644 H   0  0  0  0  0  0  0  0  0  0  0  0
   -1.0808    3.6095   -0.3129 H   0  0  0  0  0  0  0  0  0  0  0  0
  5  6  2  0  0  0  0
  5  7  1  0  0  0  0
  2  3  1  0  0  0  0
  2  4  1  0  0  0  0
  2  5  1  0  0  0  0
  1  2  1  0  0  0  0
 29 30  2  0  0  0  0
 29 31  1  0  0  0  0
 26 27  1  0  0  0  0
 26 28  2  0  0  0  0
 24 25  1  0  0  0  0
 24 26  1  0  0  0  0
 22 23  1  0  0  0  0
 22 24  2  0  0  0  0
 20 21  1  0  0  0  0
 20 22  1  0  0  0  0
 19 20  2  0  0  0  0
 19 28  1  0  0  0  0
 17 18  1  0  0  0  0
 17 19  1  0  0  0  0
 15 16  1  0  0  0  0
 15 17  1  0  0  0  0
 14 15  2  0  0  0  0
 14 28  1  0  0  0  0
 11 12  1  0  0  0  0
 11 13  1  0  0  0  0
 11 14  1  0  0  0  0
  9 10  1  0  0  0  0
  9 11  1  0  0  0  0
  9 29  1  0  0  0  0
  7  8  1  0  0  0  0
  7  9  1  0  0  0  0
 33 34  1  0  0  0  0
 33 35  1  0  0  0  0
 33 36  1  0  0  0  0
 31 32  1  0  0  0  0
 31 33  1  0  0  0  0
M  END
$$$$
default_name
  -OEChem-02102213163D

 36 37  0     1  0  0  0  0  0999 V2000
   -4.0843   -4.0736    1.2944 H   0  0  0  0  0  0  0  0  0  0  0  0
   -4.0342   -3.2816    0.5484 C   0  0  0  0  0  0  0  0  0  0  0  0
   -4.8842   -2.6126    0.6694 H   0  0  0  0  0  0  0  0  0  0  0  0
   -4.0433   -3.7186   -0.4486 H   0  0  0  0  0  0  0  0  0  0  0  0
   -2.7532   -2.5046    0.7444 C   0  0  0  0  0  0  0  0  0  0  0  0
   -1.9803   -2.8096    1.6434 O   0  0  0  0  0  0  0  0  0  0  0  0
   -2.5332   -1.4966   -0.0966 N   0  0  0  0  0  0  0  0  0  0  0  0
   -3.2312   -1.2816   -0.7936 H   0  0  0  0  0  0  0  0  0  0  0  0
   -1.3593   -0.6196   -0.0536 C   0  0  1  0  0  0  0  0  0  0  0  0
   -0.8788   -0.7266    0.9196 H   0  0  0  0  0  0  0  0  0  0  0  0
   -0.3559   -1.0533   -1.1339 C   0  0  0  0  0  0  0  0  0  0  0  0
   -0.4708   -2.1242   -1.3110 H   0  0  0  0  0  0  0  0  0  0  0  0
   -0.6014   -0.5367   -2.0633 H   0  0  0  0  0  0  0  0  0  0  0  0
    1.0832   -0.7891   -0.8094 C   0  0  0  0  0  0  0  0  0  0  0  0
    1.5411   -0.2166    0.3265 C   0  0  0  0  0  0  0  0  0  0  0  0
    0.9122    0.1388    1.1355 H   0  0  0  0  0  0  0  0  0  0  0  0
    2.9214   -0.1758    0.3020 N   0  0  0  0  0  0  0  0  0  0  0  0
    3.4804    0.2142    1.0467 H   0  0  0  0  0  0  0  0  0  0  0  0
    3.4254   -0.7387   -0.8511 C   0  0  0  0  0  0  0  0  0  0  0  0
    4.7287   -0.9564   -1.3207 C   0  0  0  0  0  0  0  0  0  0  0  0
    5.5809   -0.6504   -0.7320 H   0  0  0  0  0  0  0  0  0  0  0  0
    4.9101   -1.5764   -2.5688 C   0  0  0  0  0  0  0  0  0  0  0  0
    5.9080   -1.7515   -2.9476 H   0  0  0  0  0  0  0  0  0  0  0  0
    3.7910   -1.9635   -3.3284 C   0  0  0  0  0  0  0  0  0  0  0  0
    3.9351   -2.4327   -4.2918 H   0  0  0  0  0  0  0  0  0  0  0  0
    2.4856   -1.7380   -2.8474 C   0  0  0  0  0  0  0  0  0  0  0  0
    1.6345   -2.0282   -3.4470 H   0  0  0  0  0  0  0  0  0  0  0  0
    2.2699   -1.1231   -1.5950 C   0  0  0  0  0  0  0  0  0  0  0  0
   -1.7617    0.8549   -0.2106 C   0  0  0  0  0  0  0  0  0  0  0  0
   -2.5726    1.1871   -1.0741 O   0  0  0  0  0  0  0  0  0  0  0  0
   -1.1941    1.7377    0.6223 N   0  0  0  0  0  0  0  0  0  0  0  0
   -0.4976    1.3916    1.2669 H   0  0  0  0  0  0  0  0  0  0  0  0
   -1.4666    3.1722    0.6095 C   0  0  0  0  0  0  0  0  0  0  0  0
   -2.5439    3.3427    0.6539 H   0  0  0  0  0  0  0  0  0  0  0  0
   -0.9893    3.6529    1.4644 H   0  0  0  0  0  0  0  0  0  0  0  0
   -1.0808    3.6095   -0.3129 H   0  0  0  0  0  0  0  0  0  0  0  0
  5  6  2  0  0  0  0
  5  7  1  0  0  0  0
  2  3  1  0  0  0  0
  2  4  1  0  0  0  0
  2  5  1  0  0  0  0
  1  2  1  0  0  0  0
 29 30  2  0  0  0  0
 29 31  1  0  0  0  0
 26 27  1  0  0  0  0
 26 28  2  0  0  0  0
 24 25  1  0  0  0  0
 24 26  1  0  0  0  0
 22 23  1  0  0  0  0
 22 24  2  0  0  0  0
 20 21  1  0  0  0  0
 20 22  1  0  0  0  0
 19 20  2  0  0  0  0
 19 28  1  0  0  0  0
 17 18  1  0  0  0  0
 17 19  1  0  0  0  0
 15 16  1  0  0  0  0
 15 17  1  0  0  0  0
 14 15  2  0  0  0  0
 14 28  1  0  0  0  0
 11 12  1  0  0  0  0
 11 13  1  0  0  0  0
 11 14  1  0  0  0  0
  9 10  1  0  0  0  0
  9 11  1  0  0  0  0
  9 29  1  0  0  0  0
  7  8  1  0  0  0  0
  7  9  1  0  0  0  0
 33 34  1  0  0  0  0
 33 35  1  0  0  0  0
 33 36  1  0  0  0  0
 31 32  1  0  0  0  0
 31 33  1  0  0  0  0
M  END
$$$$
default_name
  -OEChem-02102213163D

 36 37  0     1  0  0  0  0  0999 V2000
   -4.0843   -4.0736    1.2944 H   0  0  0  0  0  0  0  0  0  0  0  0
   -4.0342   -3.2816    0.5484 C   0  0  0  0  0  0  0  0  0  0  0  0
   -4.8842   -2.6126    0.6694 H   0  0  0  0  0  0  0  0  0  0  0  0
   -4.0433   -3.7186   -0.4486 H   0  0  0  0  0  0  0  0  0  0  0  0
   -2.7532   -2.5046    0.7444 C   0  0  0  0  0  0  0  0  0  0  0  0
   -1.9803   -2.8096    1.6434 O   0  0  0  0  0  0  0  0  0  0  0  0
   -2.5332   -1.4966   -0.0966 N   0  0  0  0  0  0  0  0  0  0  0  0
   -3.2312   -1.2816   -0.7936 H   0  0  0  0  0  0  0  0  0  0  0  0
   -1.3593   -0.6196   -0.0536 C   0  0  1  0  0  0  0  0  0  0  0  0
   -0.8788   -0.7266    0.9196 H   0  0  0  0  0  0  0  0  0  0  0  0
   -0.3559   -1.0533   -1.1339 C   0  0  0  0  0  0  0  0  0  0  0  0
   -0.4708   -2.1242   -1.3110 H   0  0  0  0  0  0  0  0  0  0  0  0
   -0.6014   -0.5367   -2.0633 H   0  0  0  0  0  0  0  0  0  0  0  0
    1.0832   -0.7891   -0.8094 C   0  0  0  0  0  0  0  0  0  0  0  0
    1.5710   -0.4881    0.4150 C   0  0  0  0  0  0  0  0  0  0  0  0
    0.9685   -0.3832    1.3107 H   0  0  0  0  0  0  0  0  0  0  0  0
    2.9442   -0.3572    0.3483 N   0  0  0  0  0  0  0  0  0  0  0  0
    3.5214   -0.1296    1.1447 H   0  0  0  0  0  0  0  0  0  0  0  0
    3.4145   -0.5853   -0.9275 C   0  0  0  0  0  0  0  0  0  0  0  0
    4.7004   -0.5991   -1.4864 C   0  0  0  0  0  0  0  0  0  0  0  0
    5.5661   -0.3961   -0.8732 H   0  0  0  0  0  0  0  0  0  0  0  0
    4.8468   -0.8789   -2.8559 C   0  0  0  0  0  0  0  0  0  0  0  0
    5.8308   -0.8929   -3.3046 H   0  0  0  0  0  0  0  0  0  0  0  0
    3.7100   -1.1346   -3.6444 C   0  0  0  0  0  0  0  0  0  0  0  0
    3.8265   -1.3412   -4.6993 H   0  0  0  0  0  0  0  0  0  0  0  0
    2.4221   -1.1162   -3.0723 C   0  0  0  0  0  0  0  0  0  0  0  0
    1.5563   -1.3011   -3.6922 H   0  0  0  0  0  0  0  0  0  0  0  0
    2.2421   -0.8445   -1.6987 C   0  0  0  0  0  0  0  0  0  0  0  0
   -1.7617    0.8549   -0.2106 C   0  0  0  0  0  0  0  0  0  0  0  0
   -2.5726    1.1871   -1.0741 O   0  0  0  0  0  0  0  0  0  0  0  0
   -1.1941    1.7377    0.6223 N   0  0  0  0  0  0  0  0  0  0  0  0
   -0.4976    1.3916    1.2669 H   0  0  0  0  0  0  0  0  0  0  0  0
   -1.4666    3.1722    0.6095 C   0  0  0  0  0  0  0  0  0  0  0  0
   -2.5439    3.3427    0.6539 H   0  0  0  0  0  0  0  0  0  0  0  0
   -0.9893    3.6529    1.4644 H   0  0  0  0  0  0  0  0  0  0  0  0
   -1.0808    3.6095   -0.3129 H   0  0  0  0  0  0  0  0  0  0  0  0
  5  6  2  0  0  0  0
  5  7  1  0  0  0  0
  2  3  1  0  0  0  0
  2  4  1  0  0  0  0
  2  5  1  0  0  0  0
  1  2  1  0  0  0  0
 29 30  2  0  0  0  0
 29 31  1  0  0  0  0
 26 27  1  0  0  0  0
 26 28  2  0  0  0  0
 24 25  1  0  0  0  0
 24 26  1  0  0  0  0
 22 23  1  0  0  0  0
 22 24  2  0  0  0  0
 20 21  1  0  0  0  0
 20 22  1  0  0  0  0
 19 20  2  0  0  0  0
 19 28  1  0  0  0  0
 17 18  1  0  0  0  0
 17 19  1  0  0  0  0
 15 16  1  0  0  0  0
 15 17  1  0  0  0  0
 14 15  2  0  0  0  0
 14 28  1  0  0  0  0
 11 12  1  0  0  0  0
 11 13  1  0  0  0  0
 11 14  1  0  0  0  0
  9 10  1  0  0  0  0
  9 11  1  0  0  0  0
  9 29  1  0  0  0  0
  7  8  1  0  0  0  0
  7  9  1  0  0  0  0
 33 34  1  0  0  0  0
 33 35  1  0  0  0  0
 33 36  1  0  0  0  0
 31 32  1  0  0  0  0
 31 33  1  0  0  0  0
M  END
$$$$
default_name
  -OEChem-02102213163D

 36 37  0     1  0  0  0  0  0999 V2000
   -4.0843   -4.0736    1.2944 H   0  0  0  0  0  0  0  0  0  0  0  0
   -4.0342   -3.2816    0.5484 C   0  0  0  0  0  0  0  0  0  0  0  0
   -4.8842   -2.6126    0.6694 H   0  0  0  0  0  0  0  0  0  0  0  0
   -4.0433   -3.7186   -0.4486 H   0  0  0  0  0  0  0  0  0  0  0  0
   -2.7532   -2.5046    0.7444 C   0  0  0  0  0  0  0  0  0  0  0  0
   -1.9803   -2.8096    1.6434 O   0  0  0  0  0  0  0  0  0  0  0  0
   -2.5332   -1.4966   -0.0966 N   0  0  0  0  0  0  0  0  0  0  0  0
   -3.2312   -1.2816   -0.7936 H   0  0  0  0  0  0  0  0  0  0  0  0
   -1.3593   -0.6196   -0.0536 C   0  0  1  0  0  0  0  0  0  0  0  0
   -0.8788   -0.7266    0.9196 H   0  0  0  0  0  0  0  0  0  0  0  0
   -0.3559   -1.0533   -1.1339 C   0  0  0  0  0  0  0  0  0  0  0  0
   -0.4708   -2.1242   -1.3110 H   0  0  0  0  0  0  0  0  0  0  0  0
   -0.6014   -0.5367   -2.0633 H   0  0  0  0  0  0  0  0  0  0  0  0
    1.0832   -0.7891   -0.8094 C   0  0  0  0  0  0  0  0  0  0  0  0
    1.6191   -0.7705    0.4317 C   0  0  0  0  0  0  0  0  0  0  0  0
    1.0602   -0.9278    1.3477 H   0  0  0  0  0  0  0  0  0  0  0  0
    2.9786   -0.5426    0.3469 N   0  0  0  0  0  0  0  0  0  0  0  0
    3.5848   -0.4838    1.1520 H   0  0  0  0  0  0  0  0  0  0  0  0
    3.3918   -0.4187   -0.9626 C   0  0  0  0  0  0  0  0  0  0  0  0
    4.6456   -0.2144   -1.5564 C   0  0  0  0  0  0  0  0  0  0  0  0
    5.5311   -0.1162   -0.9457 H   0  0  0  0  0  0  0  0  0  0  0  0
    4.7334   -0.1374   -2.9569 C   0  0  0  0  0  0  0  0  0  0  0  0
    5.6919    0.0209   -3.4325 H   0  0  0  0  0  0  0  0  0  0  0  0
    3.5710   -0.2600   -3.7399 C   0  0  0  0  0  0  0  0  0  0  0  0
    3.6419   -0.1918   -4.8166 H   0  0  0  0  0  0  0  0  0  0  0  0
    2.3157   -0.4632   -3.1322 C   0  0  0  0  0  0  0  0  0  0  0  0
    1.4288   -0.5423   -3.7447 H   0  0  0  0  0  0  0  0  0  0  0  0
    2.1949   -0.5512   -1.7284 C   0  0  0  0  0  0  0  0  0  0  0  0
   -1.7617    0.8549   -0.2106 C   0  0  0  0  0  0  0  0  0  0  0  0
   -2.5726    1.1871   -1.0741 O   0  0  0  0  0  0  0  0  0  0  0  0
   -1.1941    1.7377    0.6223 N   0  0  0  0  0  0  0  0  0  0  0  0
   -0.4976    1.3916    1.2669 H   0  0  0  0  0  0  0  0  0  0  0  0
   -1.4666    3.1722    0.6095 C   0  0  0  0  0  0  0  0  0  0  0  0
   -2.5439    3.3427    0.6539 H   0  0  0  0  0  0  0  0  0  0  0  0
   -0.9893    3.6529    1.4644 H   0  0  0  0  0  0  0  0  0  0  0  0
   -1.0808    3.6095   -0.3129 H   0  0  0  0  0  0  0  0  0  0  0  0
  5  6  2  0  0  0  0
  5  7  1  0  0  0  0
  2  3  1  0  0  0  0
  2  4  1  0  0  0  0
  2  5  1  0  0  0  0
  1  2  1  0  0  0  0
 29 30  2  0  0  0  0
 29 31  1  0  0  0  0
 26 27  1  0  0  0  0
 26 28  2  0  0  0  0
 24 25  1  0  0  0  0
 24 26  1  0  0  0  0
 22 23  1  0  0  0  0
 22 24  2  0  0  0  0
 20 21  1  0  0  0  0
 20 22  1  0  0  0  0
 19 20  2  0  0  0  0
 19 28  1  0  0  0  0
 17 18  1  0  0  0  0
 17 19  1  0  0  0  0
 15 16  1  0  0  0  0
 15 17  1  0  0  0  0
 14 15  2  0  0  0  0
 14 28  1  0  0  0  0
 11 12  1  0  0  0  0
 11 13  1  0  0  0  0
 11 14  1  0  0  0  0
  9 10  1  0  0  0  0
  9 11  1  0  0  0  0
  9 29  1  0  0  0  0
  7  8  1  0  0  0  0
  7  9  1  0  0  0  0
 33 34  1  0  0  0  0
 33 35  1  0  0  0  0
 33 36  1  0  0  0  0
 31 32  1  0  0  0  0
 31 33  1  0  0  0  0
M  END
$$$$
default_name
  -OEChem-02102213163D

 36 37  0     1  0  0  0  0  0999 V2000
   -4.0843   -4.0736    1.2944 H   0  0  0  0  0  0  0  0  0  0  0  0
   -4.0342   -3.2816    0.5484 C   0  0  0  0  0  0  0  0  0  0  0  0
   -4.8842   -2.6126    0.6694 H   0  0  0  0  0  0  0  0  0  0  0  0
   -4.0433   -3.7186   -0.4486 H   0  0  0  0  0  0  0  0  0  0  0  0
   -2.7532   -2.5046    0.7444 C   0  0  0  0  0  0  0  0  0  0  0  0
   -1.9803   -2.8096    1.6434 O   0  0  0  0  0  0  0  0  0  0  0  0
   -2.5332   -1.4966   -0.0966 N   0  0  0  0  0  0  0  0  0  0  0  0
   -3.2312   -1.2816   -0.7936 H   0  0  0  0  0  0  0  0  0  0  0  0
   -1.3593   -0.6196   -0.0536 C   0  0  1  0  0  0  0  0  0  0  0  0
   -0.8788   -0.7266    0.9196 H   0  0  0  0  0  0  0  0  0  0  0  0
   -0.3559   -1.0533   -1.1339 C   0  0  0  0  0  0  0  0  0  0  0  0
   -0.4708   -2.1242   -1.3110 H   0  0  0  0  0  0  0  0  0  0  0  0
   -0.6014   -0.5367   -2.0633 H   0  0  0  0  0  0  0  0  0  0  0  0
    1.0832   -0.7891   -0.8094 C   0  0  0  0  0  0  0  0  0  0  0  0
    1.6821   -1.0448    0.3753 C   0  0  0  0  0  0  0  0  0  0  0  0
    1.1810   -1.4579    1.2438 H   0  0  0  0  0  0  0  0  0  0  0  0
    3.0221   -0.7195    0.2978 N   0  0  0  0  0  0  0  0  0  0  0  0
    3.6662   -0.8241    1.0681 H   0  0  0  0  0  0  0  0  0  0  0  0
    3.3590   -0.2504   -0.9541 C   0  0  0  0  0  0  0  0  0  0  0  0
    4.5679    0.1715   -1.5259 C   0  0  0  0  0  0  0  0  0  0  0  0
    5.4782    0.1703   -0.9446 H   0  0  0  0  0  0  0  0  0  0  0  0
    4.5777    0.5976   -2.8651 C   0  0  0  0  0  0  0  0  0  0  0  0
    5.5006    0.9275   -3.3226 H   0  0  0  0  0  0  0  0  0  0  0  0
    3.3833    0.6008   -3.6084 C   0  0  0  0  0  0  0  0  0  0  0  0
    3.3939    0.9374   -4.6359 H   0  0  0  0  0  0  0  0  0  0  0  0
    2.1736    0.1765   -3.0228 C   0  0  0  0  0  0  0  0  0  0  0  0
    1.2608    0.1966   -3.6010 H   0  0  0  0  0  0  0  0  0  0  0  0
    2.1316   -0.2631   -1.6819 C   0  0  0  0  0  0  0  0  0  0  0  0
   -1.7617    0.8549   -0.2106 C   0  0  0  0  0  0  0  0  0  0  0  0
   -2.5726    1.1871   -1.0741 O   0  0  0  0  0  0  0  0  0  0  0  0
   -1.1941    1.7377    0.6223 N   0  0  0  0  0  0  0  0  0  0  0  0
   -0.4976    1.3916    1.2669 H   0  0  0  0  0  0  0  0  0  0  0  0
   -1.4666    3.1722    0.6095 C   0  0  0  0  0  0  0  0  0  0  0  0
   -2.5439    3.3427    0.6539 H   0  0  0  0  0  0  0  0  0  0  0  0
   -0.9893    3.6529    1.4644 H   0  0  0  0  0  0  0  0  0  0  0  0
   -1.0808    3.6095   -0.3129 H   0  0  0  0  0  0  0  0  0  0  0  0
  5  6  2  0  0  0  0
  5  7  1  0  0  0  0
  2  3  1  0  0  0  0
  2  4  1  0  0  0  0
  2  5  1  0  0  0  0
  1  2  1  0  0  0  0
 29 30  2  0  0  0  0
 29 31  1  0  0  0  0
 26 27  1  0  0  0  0
 26 28  2  0  0  0  0
 24 25  1  0  0  0  0
 24 26  1  0  0  0  0
 22 23  1  0  0  0  0
 22 24  2  0  0  0  0
 20 21  1  0  0  0  0
 20 22  1  0  0  0  0
 19 20  2  0  0  0  0
 19 28  1  0  0  0  0
 17 18  1  0  0  0  0
 17 19  1  0  0  0  0
 15 16  1  0  0  0  0
 15 17  1  0  0  0  0
 14 15  2  0  0  0  0
 14 28  1  0  0  0  0
 11 12  1  0  0  0  0
 11 13  1  0  0  0  0
 11 14  1  0  0  0  0
  9 10  1  0  0  0  0
  9 11  1  0  0  0  0
  9 29  1  0  0  0  0
  7  8  1  0  0  0  0
  7  9  1  0  0  0  0
 33 34  1  0  0  0  0
 33 35  1  0  0  0  0
 33 36  1  0  0  0  0
 31 32  1  0  0  0  0
 31 33  1  0  0  0  0
M  END
$$$$
default_name
  -OEChem-02102213163D

 36 37  0     1  0  0  0  0  0999 V2000
   -4.0843   -4.0736    1.2944 H   0  0  0  0  0  0  0  0  0  0  0  0
   -4.0342   -3.2816    0.5484 C   0  0  0  0  0  0  0  0  0  0  0  0
   -4.8842   -2.6126    0.6694 H   0  0  0  0  0  0  0  0  0  0  0  0
   -4.0433   -3.7186   -0.4486 H   0  0  0  0  0  0  0  0  0  0  0  0
   -2.7532   -2.5046    0.7444 C   0  0  0  0  0  0  0  0  0  0  0  0
   -1.9803   -2.8096    1.6434 O   0  0  0  0  0  0  0  0  0  0  0  0
   -2.5332   -1.4966   -0.0966 N   0  0  0  0  0  0  0  0  0  0  0  0
   -3.2312   -1.2816   -0.7936 H   0  0  0  0  0  0  0  0  0  0  0  0
   -1.3593   -0.6196   -0.0536 C   0  0  1  0  0  0  0  0  0  0  0  0
   -0.8788   -0.7266    0.9196 H   0  0  0  0  0  0  0  0  0  0  0  0
   -0.3559   -1.0533   -1.1339 C   0  0  0  0  0  0  0  0  0  0  0  0
   -0.4708   -2.1242   -1.3110 H   0  0  0  0  0  0  0  0  0  0  0  0
   -0.6014   -0.5367   -2.0633 H   0  0  0  0  0  0  0  0  0  0  0  0
    1.0832   -0.7891   -0.8094 C   0  0  0  0  0  0  0  0  0  0  0  0
    1.7559   -1.2923    0.2499 C   0  0  0  0  0  0  0  0  0  0  0  0
    1.3226   -1.9374    1.0063 H   0  0  0  0  0  0  0  0  0  0  0  0
    3.0719   -0.8756    0.2045 N   0  0  0  0  0  0  0  0  0  0  0  0
    3.7601   -1.1275    0.8988 H   0  0  0  0  0  0  0  0  0  0  0  0
    3.3182   -0.0917   -0.9025 C   0  0  0  0  0  0  0  0  0  0  0  0
    4.4725    0.5323   -1.3970 C   0  0  0  0  0  0  0  0  0  0  0  0
    5.4112    0.4437   -0.8700 H   0  0  0  0  0  0  0  0  0  0  0  0
    4.3904    1.2761   -2.5866 C   0  0  0  0  0  0  0  0  0  0  0  0
    5.2701    1.7652   -2.9824 H   0  0  0  0  0  0  0  0  0  0  0  0
    3.1597    1.3891   -3.2589 C   0  0  0  0  0  0  0  0  0  0  0  0
    3.0992    1.9692   -4.1694 H   0  0  0  0  0  0  0  0  0  0  0  0
    2.0055    0.7592   -2.7517 C   0  0  0  0  0  0  0  0  0  0  0  0
    1.0636    0.8652   -3.2710 H   0  0  0  0  0  0  0  0  0  0  0  0
    2.0563    0.0000   -1.5626 C   0  0  0  0  0  0  0  0  0  0  0  0
   -1.7617    0.8549   -0.2106 C   0  0  0  0  0  0  0  0  0  0  0  0
   -2.5726    1.1871   -1.0741 O   0  0  0  0  0  0  0  0  0  0  0  0
   -1.1941    1.7377    0.6223 N   0  0  0  0  0  0  0  0  0  0  0  0
   -0.4976    1.3916    1.2669 H   0  0  0  0  0  0  0  0  0  0  0  0
   -1.4666    3.1722    0.6095 C   0  0  0  0  0  0  0  0  0  0  0  0
   -2.5439    3.3427    0.6539 H   0  0  0  0  0  0  0  0  0  0  0  0
   -0.9893    3.6529    1.4644 H   0  0  0  0  0  0  0  0  0  0  0  0
   -1.0808    3.6095   -0.3129 H   0  0  0  0  0  0  0  0  0  0  0  0
  5  6  2  0  0  0  0
  5  7  1  0  0  0  0
  2  3  1  0  0  0  0
  2  4  1  0  0  0  0
  2  5  1  0  0  0  0
  1  2  1  0  0  0  0
 29 30  2  0  0  0  0
 29 31  1  0  0  0  0
 26 27  1  0  0  0  0
 26 28  2  0  0  0  0
 24 25  1  0  0  0  0
 24 26  1  0  0  0  0
 22 23  1  0  0  0  0
 22 24  2  0  0  0  0
 20 21  1  0  0  0  0
 20 22  1  0  0  0  0
 19 20  2  0  0  0  0
 19 28  1  0  0  0  0
 17 18  1  0  0  0  0
 17 19  1  0  0  0  0
 15 16  1  0  0  0  0
 15 17  1  0  0  0  0
 14 15  2  0  0  0  0
 14 28  1  0  0  0  0
 11 12  1  0  0  0  0
 11 13  1  0  0  0  0
 11 14  1  0  0  0  0
  9 10  1  0  0  0  0
  9 11  1  0  0  0  0
  9 29  1  0  0  0  0
  7  8  1  0  0  0  0
  7  9  1  0  0  0  0
 33 34  1  0  0  0  0
 33 35  1  0  0  0  0
 33 36  1  0  0  0  0
 31 32  1  0  0  0  0
 31 33  1  0  0  0  0
M  END
$$$$
default_name
  -OEChem-02102213163D

 36 37  0     1  0  0  0  0  0999 V2000
   -4.0843   -4.0736    1.2944 H   0  0  0  0  0  0  0  0  0  0  0  0
   -4.0342   -3.2816    0.5484 C   0  0  0  0  0  0  0  0  0  0  0  0
   -4.8842   -2.6126    0.6694 H   0  0  0  0  0  0  0  0  0  0  0  0
   -4.0433   -3.7186   -0.4486 H   0  0  0  0  0  0  0  0  0  0  0  0
   -2.7532   -2.5046    0.7444 C   0  0  0  0  0  0  0  0  0  0  0  0
   -1.9803   -2.8096    1.6434 O   0  0  0  0  0  0  0  0  0  0  0  0
   -2.5332   -1.4966   -0.0966 N   0  0  0  0  0  0  0  0  0  0  0  0
   -3.2312   -1.2816   -0.7936 H   0  0  0  0  0  0  0  0  0  0  0  0
   -1.3593   -0.6196   -0.0536 C   0  0  1  0  0  0  0  0  0  0  0  0
   -0.8788   -0.7266    0.9196 H   0  0  0  0  0  0  0  0  0  0  0  0
   -0.3559   -1.0533   -1.1339 C   0  0  0  0  0  0  0  0  0  0  0  0
   -0.4708   -2.1242   -1.3110 H   0  0  0  0  0  0  0  0  0  0  0  0
   -0.6014   -0.5367   -2.0633 H   0  0  0  0  0  0  0  0  0  0  0  0
    1.0832   -0.7891   -0.8094 C   0  0  0  0  0  0  0  0  0  0  0  0
    1.8352   -1.4959    0.0638 C   0  0  0  0  0  0  0  0  0  0  0  0
    1.4754   -2.3336    0.6512 H   0  0  0  0  0  0  0  0  0  0  0  0
    3.1244   -1.0005    0.0733 N   0  0  0  0  0  0  0  0  0  0  0  0
    3.8600   -1.3732    0.6556 H   0  0  0  0  0  0  0  0  0  0  0  0
    3.2723    0.0464   -0.8114 C   0  0  0  0  0  0  0  0  0  0  0  0
    4.3661    0.8435   -1.1784 C   0  0  0  0  0  0  0  0  0  0  0  0
    5.3345    0.6855   -0.7269 H   0  0  0  0  0  0  0  0  0  0  0  0
    4.1841    1.8517   -2.1404 C   0  0  0  0  0  0  0  0  0  0  0  0
    5.0160    2.4769   -2.4351 H   0  0  0  0  0  0  0  0  0  0  0  0
    2.9156    2.0511   -2.7153 C   0  0  0  0  0  0  0  0  0  0  0  0
    2.7781    2.8334   -3.4489 H   0  0  0  0  0  0  0  0  0  0  0  0
    1.8228    1.2453   -2.3374 C   0  0  0  0  0  0  0  0  0  0  0  0
    0.8507    1.4179   -2.7770 H   0  0  0  0  0  0  0  0  0  0  0  0
    1.9744    0.2203   -1.3785 C   0  0  0  0  0  0  0  0  0  0  0  0
   -1.7617    0.8549   -0.2106 C   0  0  0  0  0  0  0  0  0  0  0  0
   -2.5726    1.1871   -1.0741 O   0  0  0  0  0  0  0  0  0  0  0  0
   -1.1941    1.7377    0.6223 N   0  0  0  0  0  0  0  0  0  0  0  0
   -0.4976    1.3916    1.2669 H   0  0  0  0  0  0  0  0  0  0  0  0
   -1.4666    3.1722    0.6095 C   0  0  0  0  0  0  0  0  0  0  0  0
   -2.5439    3.3427    0.6539 H   0  0  0  0  0  0  0  0  0  0  0  0
   -0.9893    3.6529    1.4644 H   0  0  0  0  0  0  0  0  0  0  0  0
   -1.0808    3.6095   -0.3129 H   0  0  0  0  0  0  0  0  0  0  0  0
  5  6  2  0  0  0  0
  5  7  1  0  0  0  0
  2  3  1  0  0  0  0
  2  4  1  0  0  0  0
  2  5  1  0  0  0  0
  1  2  1  0  0  0  0
 29 30  2  0  0  0  0
 29 31  1  0  0  0  0
 26 27  1  0  0  0  0
 26 28  2  0  0  0  0
 24 25  1  0  0  0  0
 24 26  1  0  0  0  0
 22 23  1  0  0  0  0
 22 24  2  0  0  0  0
 20 21  1  0  0  0  0
 20 22  1  0  0  0  0
 19 20  2  0  0  0  0
 19 28  1  0  0  0  0
 17 18  1  0  0  0  0
 17 19  1  0  0  0  0
 15 16  1  0  0  0  0
 15 17  1  0  0  0  0
 14 15  2  0  0  0  0
 14 28  1  0  0  0  0
 11 12  1  0  0  0  0
 11 13  1  0  0  0  0
 11 14  1  0  0  0  0
  9 10  1  0  0  0  0
  9 11  1  0  0  0  0
  9 29  1  0  0  0  0
  7  8  1  0  0  0  0
  7  9  1  0  0  0  0
 33 34  1  0  0  0  0
 33 35  1  0  0  0  0
 33 36  1  0  0  0  0
 31 32  1  0  0  0  0
 31 33  1  0  0  0  0
M  END
$$$$
default_name
  -OEChem-02102213163D

 36 37  0     1  0  0  0  0  0999 V2000
   -4.0843   -4.0736    1.2944 H   0  0  0  0  0  0  0  0  0  0  0  0
   -4.0342   -3.2816    0.5484 C   0  0  0  0  0  0  0  0  0  0  0  0
   -4.8842   -2.6126    0.6694 H   0  0  0  0  0  0  0  0  0  0  0  0
   -4.0433   -3.7186   -0.4486 H   0  0  0  0  0  0  0  0  0  0  0  0
   -2.7532   -2.5046    0.7444 C   0  0  0  0  0  0  0  0  0  0  0  0
   -1.9803   -2.8096    1.6434 O   0  0  0  0  0  0  0  0  0  0  0  0
   -2.5332   -1.4966   -0.0966 N   0  0  0  0  0  0  0  0  0  0  0  0
   -3.2312   -1.2816   -0.7936 H   0  0  0  0  0  0  0  0  0  0  0  0
   -1.3593   -0.6196   -0.0536 C   0  0  1  0  0  0  0  0  0  0  0  0
   -0.8788   -0.7266    0.9196 H   0  0  0  0  0  0  0  0  0  0  0  0
   -0.3559   -1.0533   -1.1339 C   0  0  0  0  0  0  0  0  0  0  0  0
   -0.4708   -2.1242   -1.3110 H   0  0  0  0  0  0  0  0  0  0  0  0
   -0.6014   -0.5367   -2.0633 H   0  0  0  0  0  0  0  0  0  0  0  0
    1.0832   -0.7891   -0.8094 C   0  0  0  0  0  0  0  0  0  0  0  0
    1.9148   -1.6420   -0.1701 C   0  0  0  0  0  0  0  0  0  0  0  0
    1.6290   -2.6194    0.2028 H   0  0  0  0  0  0  0  0  0  0  0  0
    3.1761   -1.0856   -0.0869 N   0  0  0  0  0  0  0  0  0  0  0  0
    3.9593   -1.5444    0.3551 H   0  0  0  0  0  0  0  0  0  0  0  0
    3.2244    0.1547   -0.6870 C   0  0  0  0  0  0  0  0  0  0  0  0
    4.2559    1.0837   -0.8851 C   0  0  0  0  0  0  0  0  0  0  0  0
    5.2534    0.8792   -0.5251 H   0  0  0  0  0  0  0  0  0  0  0  0
    3.9729    2.2852   -1.5570 C   0  0  0  0  0  0  0  0  0  0  0  0
    4.7557    3.0141   -1.7180 H   0  0  0  0  0  0  0  0  0  0  0  0
    2.6674    2.5418   -2.0144 C   0  0  0  0  0  0  0  0  0  0  0  0
    2.4523    3.4711   -2.5235 H   0  0  0  0  0  0  0  0  0  0  0  0
    1.6380    1.6016   -1.8080 C   0  0  0  0  0  0  0  0  0  0  0  0
    0.6366    1.8171   -2.1527 H   0  0  0  0  0  0  0  0  0  0  0  0
    1.8913    0.3828   -1.1422 C   0  0  0  0  0  0  0  0  0  0  0  0
   -1.7617    0.8549   -0.2106 C   0  0  0  0  0  0  0  0  0  0  0  0
   -2.5726    1.1871   -1.0741 O   0  0  0  0  0  0  0  0  0  0  0  0
   -1.1941    1.7377    0.6223 N   0  0  0  0  0  0  0  0  0  0  0  0
   -0.4976    1.3916    1.2669 H   0  0  0  0  0  0  0  0  0  0  0  0
   -1.4666    3.1722    0.6095 C   0  0  0  0  0  0  0  0  0  0  0  0
   -2.5439    3.3427    0.6539 H   0  0  0  0  0  0  0  0  0  0  0  0
   -0.9893    3.6529    1.4644 H   0  0  0  0  0  0  0  0  0  0  0  0
   -1.0808    3.6095   -0.3129 H   0  0  0  0  0  0  0  0  0  0  0  0
  5  6  2  0  0  0  0
  5  7  1  0  0  0  0
  2  3  1  0  0  0  0
  2  4  1  0  0  0  0
  2  5  1  0  0  0  0
  1  2  1  0  0  0  0
 29 30  2  0  0  0  0
 29 31  1  0  0  0  0
 26 27  1  0  0  0  0
 26 28  2  0  0  0  0
 24 25  1  0  0  0  0
 24 26  1  0  0  0  0
 22 23  1  0  0  0  0
 22 24  2  0  0  0  0
 20 21  1  0  0  0  0
 20 22  1  0  0  0  0
 19 20  2  0  0  0  0
 19 28  1  0  0  0  0
 17 18  1  0  0  0  0
 17 19  1  0  0  0  0
 15 16  1  0  0  0  0
 15 17  1  0  0  0  0
 14 15  2  0  0  0  0
 14 28  1  0  0  0  0
 11 12  1  0  0  0  0
 11 13  1  0  0  0  0
 11 14  1  0  0  0  0
  9 10  1  0  0  0  0
  9 11  1  0  0  0  0
  9 29  1  0  0  0  0
  7  8  1  0  0  0  0
  7  9  1  0  0  0  0
 33 34  1  0  0  0  0
 33 35  1  0  0  0  0
 33 36  1  0  0  0  0
 31 32  1  0  0  0  0
 31 33  1  0  0  0  0
M  END
$$$$
default_name
  -OEChem-02102213163D

 36 37  0     1  0  0  0  0  0999 V2000
   -4.0843   -4.0736    1.2944 H   0  0  0  0  0  0  0  0  0  0  0  0
   -4.0342   -3.2816    0.5484 C   0  0  0  0  0  0  0  0  0  0  0  0
   -4.8842   -2.6126    0.6694 H   0  0  0  0  0  0  0  0  0  0  0  0
   -4.0433   -3.7186   -0.4486 H   0  0  0  0  0  0  0  0  0  0  0  0
   -2.7532   -2.5046    0.7444 C   0  0  0  0  0  0  0  0  0  0  0  0
   -1.9803   -2.8096    1.6434 O   0  0  0  0  0  0  0  0  0  0  0  0
   -2.5332   -1.4966   -0.0966 N   0  0  0  0  0  0  0  0  0  0  0  0
   -3.2312   -1.2816   -0.7936 H   0  0  0  0  0  0  0  0  0  0  0  0
   -1.3593   -0.6196   -0.0536 C   0  0  1  0  0  0  0  0  0  0  0  0
   -0.8788   -0.7266    0.9196 H   0  0  0  0  0  0  0  0  0  0  0  0
   -0.3559   -1.0533   -1.1339 C   0  0  0  0  0  0  0  0  0  0  0  0
   -0.4708   -2.1242   -1.3110 H   0  0  0  0  0  0  0  0  0  0  0  0
   -0.6014   -0.5367   -2.0633 H   0  0  0  0  0  0  0  0  0  0  0  0
    1.0832   -0.7891   -0.8094 C   0  0  0  0  0  0  0  0  0  0  0  0
    1.9891   -1.7205   -0.4360 C   0  0  0  0  0  0  0  0  0  0  0  0
    1.7729   -2.7755   -0.3084 H   0  0  0  0  0  0  0  0  0  0  0  0
    3.2235   -1.1251   -0.2651 N   0  0  0  0  0  0  0  0  0  0  0  0
    4.0510   -1.6296    0.0177 H   0  0  0  0  0  0  0  0  0  0  0  0
    3.1777    0.2256   -0.5378 C   0  0  0  0  0  0  0  0  0  0  0  0
    4.1493    1.2367   -0.5371 C   0  0  0  0  0  0  0  0  0  0  0  0
    5.1735    1.0116   -0.2783 H   0  0  0  0  0  0  0  0  0  0  0  0
    3.7713    2.5472   -0.8761 C   0  0  0  0  0  0  0  0  0  0  0  0
    4.5068    3.3402   -0.8799 H   0  0  0  0  0  0  0  0  0  0  0  0
    2.4323    2.8277   -1.2042 C   0  0  0  0  0  0  0  0  0  0  0  0
    2.1441    3.8389   -1.4563 H   0  0  0  0  0  0  0  0  0  0  0  0
    1.4637    1.8039   -1.1997 C   0  0  0  0  0  0  0  0  0  0  0  0
    0.4360    2.0356   -1.4408 H   0  0  0  0  0  0  0  0  0  0  0  0
    1.8126    0.4764   -0.8698 C   0  0  0  0  0  0  0  0  0  0  0  0
   -1.7617    0.8549   -0.2106 C   0  0  0  0  0  0  0  0  0  0  0  0
   -2.5726    1.1871   -1.0741 O   0  0  0  0  0  0  0  0  0  0  0  0
   -1.1941    1.7377    0.6223 N   0  0  0  0  0  0  0  0  0  0  0  0
   -0.4976    1.3916    1.2669 H   0  0  0  0  0  0  0  0  0  0  0  0
   -1.4666    3.1722    0.6095 C   0  0  0  0  0  0  0  0  0  0  0  0
   -2.5439    3.3427    0.6539 H   0  0  0  0  0  0  0  0  0  0  0  0
   -0.9893    3.6529    1.4644 H   0  0  0  0  0  0  0  0  0  0  0  0
   -1.0808    3.6095   -0.3129 H   0  0  0  0  0  0  0  0  0  0  0  0
  5  6  2  0  0  0  0
  5  7  1  0  0  0  0
  2  3  1  0  0  0  0
  2  4  1  0  0  0  0
  2  5  1  0  0  0  0
  1  2  1  0  0  0  0
 29 30  2  0  0  0  0
 29 31  1  0  0  0  0
 26 27  1  0  0  0  0
 26 28  2  0  0  0  0
 24 25  1  0  0  0  0
 24 26  1  0  0  0  0
 22 23  1  0  0  0  0
 22 24  2  0  0  0  0
 20 21  1  0  0  0  0
 20 22  1  0  0  0  0
 19 20  2  0  0  0  0
 19 28  1  0  0  0  0
 17 18  1  0  0  0  0
 17 19  1  0  0  0  0
 15 16  1  0  0  0  0
 15 17  1  0  0  0  0
 14 15  2  0  0  0  0
 14 28  1  0  0  0  0
 11 12  1  0  0  0  0
 11 13  1  0  0  0  0
 11 14  1  0  0  0  0
  9 10  1  0  0  0  0
  9 11  1  0  0  0  0
  9 29  1  0  0  0  0
  7  8  1  0  0  0  0
  7  9  1  0  0  0  0
 33 34  1  0  0  0  0
 33 35  1  0  0  0  0
 33 36  1  0  0  0  0
 31 32  1  0  0  0  0
 31 33  1  0  0  0  0
M  END
$$$$
default_name
  -OEChem-02102213163D

 36 37  0     1  0  0  0  0  0999 V2000
   -4.0843   -4.0736    1.2944 H   0  0  0  0  0  0  0  0  0  0  0  0
   -4.0342   -3.2816    0.5484 C   0  0  0  0  0  0  0  0  0  0  0  0
   -4.8842   -2.6126    0.6694 H   0  0  0  0  0  0  0  0  0  0  0  0
   -4.0433   -3.7186   -0.4486 H   0  0  0  0  0  0  0  0  0  0  0  0
   -2.7532   -2.5046    0.7444 C   0  0  0  0  0  0  0  0  0  0  0  0
   -1.9803   -2.8096    1.6434 O   0  0  0  0  0  0  0  0  0  0  0  0
   -2.5332   -1.4966   -0.0966 N   0  0  0  0  0  0  0  0  0  0  0  0
   -3.2312   -1.2816   -0.7936 H   0  0  0  0  0  0  0  0  0  0  0  0
   -1.3593   -0.6196   -0.0536 C   0  0  1  0  0  0  0  0  0  0  0  0
   -0.8788   -0.7266    0.9196 H   0  0  0  0  0  0  0  0  0  0  0  0
   -0.3559   -1.0533   -1.1339 C   0  0  0  0  0  0  0  0  0  0  0  0
   -0.4708   -2.1242   -1.3110 H   0  0  0  0  0  0  0  0  0  0  0  0
   -0.6014   -0.5367   -2.0633 H   0  0  0  0  0  0  0  0  0  0  0  0
    1.0832   -0.7891   -0.8094 C   0  0  0  0  0  0  0  0  0  0  0  0
    2.0532   -1.7260   -0.7157 C   0  0  0  0  0  0  0  0  0  0  0  0
    1.8973   -2.7912   -0.8475 H   0  0  0  0  0  0  0  0  0  0  0  0
    3.2634   -1.1162   -0.4492 N   0  0  0  0  0  0  0  0  0  0  0  0
    4.1289   -1.6229   -0.3335 H   0  0  0  0  0  0  0  0  0  0  0  0
    3.1354    0.2544   -0.3738 C   0  0  0  0  0  0  0  0  0  0  0  0
    4.0537    1.2921   -0.1580 C   0  0  0  0  0  0  0  0  0  0  0  0
    5.1001    1.0737   -0.0033 H   0  0  0  0  0  0  0  0  0  0  0  0
    3.5929    2.6197   -0.1440 C   0  0  0  0  0  0  0  0  0  0  0  0
    4.2864    3.4329    0.0220 H   0  0  0  0  0  0  0  0  0  0  0  0
    2.2260    2.8893   -0.3398 C   0  0  0  0  0  0  0  0  0  0  0  0
    1.8745    3.9116   -0.3200 H   0  0  0  0  0  0  0  0  0  0  0  0
    1.3118    1.8383   -0.5539 C   0  0  0  0  0  0  0  0  0  0  0  0
    0.2624    2.0585   -0.6897 H   0  0  0  0  0  0  0  0  0  0  0  0
    1.7439    0.4946   -0.5798 C   0  0  0  0  0  0  0  0  0  0  0  0
   -1.7617    0.8549   -0.2106 C   0  0  0  0  0  0  0  0  0  0  0  0
   -2.5726    1.1871   -1.0741 O   0  0  0  0  0  0  0  0  0  0  0  0
   -1.1941    1.7377    0.6223 N   0  0  0  0  0  0  0  0  0  0  0  0
   -0.4976    1.3916    1.2669 H   0  0  0  0  0  0  0  0  0  0  0  0
   -1.4666    3.1722    0.6095 C   0  0  0  0  0  0  0  0  0  0  0  0
   -2.5439    3.3427    0.6539 H   0  0  0  0  0  0  0  0  0  0  0  0
   -0.9893    3.6529    1.4644 H   0  0  0  0  0  0  0  0  0  0  0  0
   -1.0808    3.6095   -0.3129 H   0  0  0  0  0  0  0  0  0  0  0  0
  5  6  2  0  0  0  0
  5  7  1  0  0  0  0
  2  3  1  0  0  0  0
  2  4  1  0  0  0  0
  2  5  1  0  0  0  0
  1  2  1  0  0  0  0
 29 30  2  0  0  0  0
 29 31  1  0  0  0  0
 26 27  1  0  0  0  0
 26 28  2  0  0  0  0
 24 25  1  0  0  0  0
 24 26  1  0  0  0  0
 22 23  1  0  0  0  0
 22 24  2  0  0  0  0
 20 21  1  0  0  0  0
 20 22  1  0  0  0  0
 19 20  2  0  0  0  0
 19 28  1  0  0  0  0
 17 18  1  0  0  0  0
 17 19  1  0  0  0  0
 15 16  1  0  0  0  0
 15 17  1  0  0  0  0
 14 15  2  0  0  0  0
 14 28  1  0  0  0  0
 11 12  1  0  0  0  0
 11 13  1  0  0  0  0
 11 14  1  0  0  0  0
  9 10  1  0  0  0  0
  9 11  1  0  0  0  0
  9 29  1  0  0  0  0
  7  8  1  0  0  0  0
  7  9  1  0  0  0  0
 33 34  1  0  0  0  0
 33 35  1  0  0  0  0
 33 36  1  0  0  0  0
 31 32  1  0  0  0  0
 31 33  1  0  0  0  0
M  END
$$$$
default_name
  -OEChem-02102213163D

 36 37  0     1  0  0  0  0  0999 V2000
   -4.0843   -4.0736    1.2944 H   0  0  0  0  0  0  0  0  0  0  0  0
   -4.0342   -3.2816    0.5484 C   0  0  0  0  0  0  0  0  0  0  0  0
   -4.8842   -2.6126    0.6694 H   0  0  0  0  0  0  0  0  0  0  0  0
   -4.0433   -3.7186   -0.4486 H   0  0  0  0  0  0  0  0  0  0  0  0
   -2.7532   -2.5046    0.7444 C   0  0  0  0  0  0  0  0  0  0  0  0
   -1.9803   -2.8096    1.6434 O   0  0  0  0  0  0  0  0  0  0  0  0
   -2.5332   -1.4966   -0.0966 N   0  0  0  0  0  0  0  0  0  0  0  0
   -3.2312   -1.2816   -0.7936 H   0  0  0  0  0  0  0  0  0  0  0  0
   -1.3593   -0.6196   -0.0536 C   0  0  1  0  0  0  0  0  0  0  0  0
   -0.8788   -0.7266    0.9196 H   0  0  0  0  0  0  0  0  0  0  0  0
   -0.3559   -1.0533   -1.1339 C   0  0  0  0  0  0  0  0  0  0  0  0
   -0.4708   -2.1242   -1.3110 H   0  0  0  0  0  0  0  0  0  0  0  0
   -0.6014   -0.5367   -2.0633 H   0  0  0  0  0  0  0  0  0  0  0  0
    1.0832   -0.7891   -0.8094 C   0  0  0  0  0  0  0  0  0  0  0  0
    2.1027   -1.6583   -0.9902 C   0  0  0  0  0  0  0  0  0  0  0  0
    1.9938   -2.6653   -1.3778 H   0  0  0  0  0  0  0  0  0  0  0  0
    3.2931   -1.0597   -0.6267 N   0  0  0  0  0  0  0  0  0  0  0  0
    4.1879   -1.5247   -0.6747 H   0  0  0  0  0  0  0  0  0  0  0  0
    3.1005    0.2391   -0.2064 C   0  0  0  0  0  0  0  0  0  0  0  0
    3.9755    1.2459    0.2263 C   0  0  0  0  0  0  0  0  0  0  0  0
    5.0382    1.0612    0.2810 H   0  0  0  0  0  0  0  0  0  0  0  0
    3.4499    2.4978    0.5892 C   0  0  0  0  0  0  0  0  0  0  0  0
    4.1095    3.2860    0.9263 H   0  0  0  0  0  0  0  0  0  0  0  0
    2.0628    2.7224    0.5198 C   0  0  0  0  0  0  0  0  0  0  0  0
    1.6619    3.6843    0.8079 H   0  0  0  0  0  0  0  0  0  0  0  0
    1.1925    1.7025    0.0854 C   0  0  0  0  0  0  0  0  0  0  0  0
    0.1277    1.8841    0.0495 H   0  0  0  0  0  0  0  0  0  0  0  0
    1.6897    0.4363   -0.2920 C   0  0  0  0  0  0  0  0  0  0  0  0
   -1.7617    0.8549   -0.2106 C   0  0  0  0  0  0  0  0  0  0  0  0
   -2.5726    1.1871   -1.0741 O   0  0  0  0  0  0  0  0  0  0  0  0
   -1.1941    1.7377    0.6223 N   0  0  0  0  0  0  0  0  0  0  0  0
   -0.4976    1.3916    1.2669 H   0  0  0  0  0  0  0  0  0  0  0  0
   -1.4666    3.1722    0.6095 C   0  0  0  0  0  0  0  0  0  0  0  0
   -2.5439    3.3427    0.6539 H   0  0  0  0  0  0  0  0  0  0  0  0
   -0.9893    3.6529    1.4644 H   0  0  0  0  0  0  0  0  0  0  0  0
   -1.0808    3.6095   -0.3129 H   0  0  0  0  0  0  0  0  0  0  0  0
  5  6  2  0  0  0  0
  5  7  1  0  0  0  0
  2  3  1  0  0  0  0
  2  4  1  0  0  0  0
  2  5  1  0  0  0  0
  1  2  1  0  0  0  0
 29 30  2  0  0  0  0
 29 31  1  0  0  0  0
 26 27  1  0  0  0  0
 26 28  2  0  0  0  0
 24 25  1  0  0  0  0
 24 26  1  0  0  0  0
 22 23  1  0  0  0  0
 22 24  2  0  0  0  0
 20 21  1  0  0  0  0
 20 22  1  0  0  0  0
 19 20  2  0  0  0  0
 19 28  1  0  0  0  0
 17 18  1  0  0  0  0
 17 19  1  0  0  0  0
 15 16  1  0  0  0  0
 15 17  1  0  0  0  0
 14 15  2  0  0  0  0
 14 28  1  0  0  0  0
 11 12  1  0  0  0  0
 11 13  1  0  0  0  0
 11 14  1  0  0  0  0
  9 10  1  0  0  0  0
  9 11  1  0  0  0  0
  9 29  1  0  0  0  0
  7  8  1  0  0  0  0
  7  9  1  0  0  0  0
 33 34  1  0  0  0  0
 33 35  1  0  0  0  0
 33 36  1  0  0  0  0
 31 32  1  0  0  0  0
 31 33  1  0  0  0  0
M  END
$$$$
default_name
  -OEChem-02102213163D

 36 37  0     1  0  0  0  0  0999 V2000
   -4.0843   -4.0736    1.2944 H   0  0  0  0  0  0  0  0  0  0  0  0
   -4.0342   -3.2816    0.5484 C   0  0  0  0  0  0  0  0  0  0  0  0
   -4.8842   -2.6126    0.6694 H   0  0  0  0  0  0  0  0  0  0  0  0
   -4.0433   -3.7186   -0.4486 H   0  0  0  0  0  0  0  0  0  0  0  0
   -2.7532   -2.5046    0.7444 C   0  0  0  0  0  0  0  0  0  0  0  0
   -1.9803   -2.8096    1.6434 O   0  0  0  0  0  0  0  0  0  0  0  0
   -2.5332   -1.4966   -0.0966 N   0  0  0  0  0  0  0  0  0  0  0  0
   -3.2312   -1.2816   -0.7936 H   0  0  0  0  0  0  0  0  0  0  0  0
   -1.3593   -0.6196   -0.0536 C   0  0  1  0  0  0  0  0  0  0  0  0
   -0.8788   -0.7266    0.9196 H   0  0  0  0  0  0  0  0  0  0  0  0
   -0.3559   -1.0533   -1.1339 C   0  0  0  0  0  0  0  0  0  0  0  0
   -0.4708   -2.1242   -1.3110 H   0  0  0  0  0  0  0  0  0  0  0  0
   -0.6014   -0.5367   -2.0633 H   0  0  0  0  0  0  0  0  0  0  0  0
    1.0832   -0.7891   -0.8094 C   0  0  0  0  0  0  0  0  0  0  0  0
    2.1342   -1.5219   -1.2408 C   0  0  0  0  0  0  0  0  0  0  0  0
    2.0558   -2.4066   -1.8632 H   0  0  0  0  0  0  0  0  0  0  0  0
    3.3105   -0.9594   -0.7854 N   0  0  0  0  0  0  0  0  0  0  0  0
    4.2237   -1.3418   -0.9825 H   0  0  0  0  0  0  0  0  0  0  0  0
    3.0752    0.1808   -0.0468 C   0  0  0  0  0  0  0  0  0  0  0  0
    3.9201    1.1015    0.5895 C   0  0  0  0  0  0  0  0  0  0  0  0
    4.9922    0.9750    0.5554 H   0  0  0  0  0  0  0  0  0  0  0  0
    3.3521    2.1898    1.2737 C   0  0  0  0  0  0  0  0  0  0  0  0
    3.9880    2.9094    1.7713 H   0  0  0  0  0  0  0  0  0  0  0  0
    1.9537    2.3384    1.3161 C   0  0  0  0  0  0  0  0  0  0  0  0
    1.5207    3.1726    1.8507 H   0  0  0  0  0  0  0  0  0  0  0  0
    1.1141    1.4058    0.6746 C   0  0  0  0  0  0  0  0  0  0  0  0
    0.0412    1.5245    0.7262 H   0  0  0  0  0  0  0  0  0  0  0  0
    1.6538    0.3054   -0.0261 C   0  0  0  0  0  0  0  0  0  0  0  0
   -1.7617    0.8549   -0.2106 C   0  0  0  0  0  0  0  0  0  0  0  0
   -2.5726    1.1871   -1.0741 O   0  0  0  0  0  0  0  0  0  0  0  0
   -1.1941    1.7377    0.6223 N   0  0  0  0  0  0  0  0  0  0  0  0
   -0.4976    1.3916    1.2669 H   0  0  0  0  0  0  0  0  0  0  0  0
   -1.4666    3.1722    0.6095 C   0  0  0  0  0  0  0  0  0  0  0  0
   -2.5439    3.3427    0.6539 H   0  0  0  0  0  0  0  0  0  0  0  0
   -0.9893    3.6529    1.4644 H   0  0  0  0  0  0  0  0  0  0  0  0
   -1.0808    3.6095   -0.3129 H   0  0  0  0  0  0  0  0  0  0  0  0
  5  6  2  0  0  0  0
  5  7  1  0  0  0  0
  2  3  1  0  0  0  0
  2  4  1  0  0  0  0
  2  5  1  0  0  0  0
  1  2  1  0  0  0  0
 29 30  2  0  0  0  0
 29 31  1  0  0  0  0
 26 27  1  0  0  0  0
 26 28  2  0  0  0  0
 24 25  1  0  0  0  0
 24 26  1  0  0  0  0
 22 23  1  0  0  0  0
 22 24  2  0  0  0  0
 20 21  1  0  0  0  0
 20 22  1  0  0  0  0
 19 20  2  0  0  0  0
 19 28  1  0  0  0  0
 17 18  1  0  0  0  0
 17 19  1  0  0  0  0
 15 16  1  0  0  0  0
 15 17  1  0  0  0  0
 14 15  2  0  0  0  0
 14 28  1  0  0  0  0
 11 12  1  0  0  0  0
 11 13  1  0  0  0  0
 11 14  1  0  0  0  0
  9 10  1  0  0  0  0
  9 11  1  0  0  0  0
  9 29  1  0  0  0  0
  7  8  1  0  0  0  0
  7  9  1  0  0  0  0
 33 34  1  0  0  0  0
 33 35  1  0  0  0  0
 33 36  1  0  0  0  0
 31 32  1  0  0  0  0
 31 33  1  0  0  0  0
M  END
$$$$
default_name
  -OEChem-02102213163D

 36 37  0     1  0  0  0  0  0999 V2000
   -4.0843   -4.0736    1.2944 H   0  0  0  0  0  0  0  0  0  0  0  0
   -4.0342   -3.2816    0.5484 C   0  0  0  0  0  0  0  0  0  0  0  0
   -4.8842   -2.6126    0.6694 H   0  0  0  0  0  0  0  0  0  0  0  0
   -4.0433   -3.7186   -0.4486 H   0  0  0  0  0  0  0  0  0  0  0  0
   -2.7532   -2.5046    0.7444 C   0  0  0  0  0  0  0  0  0  0  0  0
   -1.9803   -2.8096    1.6434 O   0  0  0  0  0  0  0  0  0  0  0  0
   -2.5332   -1.4966   -0.0966 N   0  0  0  0  0  0  0  0  0  0  0  0
   -3.2312   -1.2816   -0.7936 H   0  0  0  0  0  0  0  0  0  0  0  0
   -1.3593   -0.6196   -0.0536 C   0  0  1  0  0  0  0  0  0  0  0  0
   -0.8788   -0.7266    0.9196 H   0  0  0  0  0  0  0  0  0  0  0  0
   -0.3559   -1.0533   -1.1339 C   0  0  0  0  0  0  0  0  0  0  0  0
   -0.4708   -2.1242   -1.3110 H   0  0  0  0  0  0  0  0  0  0  0  0
   -0.6014   -0.5367   -2.0633 H   0  0  0  0  0  0  0  0  0  0  0  0
    1.0832   -0.7891   -0.8094 C   0  0  0  0  0  0  0  0  0  0  0  0
    2.1455   -1.3260   -1.4504 C   0  0  0  0  0  0  0  0  0  0  0  0
    2.0789   -2.0325   -2.2705 H   0  0  0  0  0  0  0  0  0  0  0  0
    3.3144   -0.8220   -0.9145 N   0  0  0  0  0  0  0  0  0  0  0  0
    4.2340   -1.0867   -1.2360 H   0  0  0  0  0  0  0  0  0  0  0  0
    3.0614    0.0834    0.0939 C   0  0  0  0  0  0  0  0  0  0  0  0
    3.8912    0.8686    0.9071 C   0  0  0  0  0  0  0  0  0  0  0  0
    4.9651    0.8210    0.8011 H   0  0  0  0  0  0  0  0  0  0  0  0
    3.3061    1.7167    1.8628 C   0  0  0  0  0  0  0  0  0  0  0  0
    3.9304    2.3288    2.4995 H   0  0  0  0  0  0  0  0  0  0  0  0
    1.9062    1.7635    1.9949 C   0  0  0  0  0  0  0  0  0  0  0  0
    1.4606    2.4112    2.7372 H   0  0  0  0  0  0  0  0  0  0  0  0
    1.0819    0.9684    1.1735 C   0  0  0  0  0  0  0  0  0  0  0  0
    0.0086    1.0040    1.2945 H   0  0  0  0  0  0  0  0  0  0  0  0
    1.6385    0.1109    0.1999 C   0  0  0  0  0  0  0  0  0  0  0  0
   -1.7617    0.8549   -0.2106 C   0  0  0  0  0  0  0  0  0  0  0  0
   -2.5726    1.1871   -1.0741 O   0  0  0  0  0  0  0  0  0  0  0  0
   -1.1941    1.7377    0.6223 N   0  0  0  0  0  0  0  0  0  0  0  0
   -0.4976    1.3916    1.2669 H   0  0  0  0  0  0  0  0  0  0  0  0
   -1.4666    3.1722    0.6095 C   0  0  0  0  0  0  0  0  0  0  0  0
   -2.5439    3.3427    0.6539 H   0  0  0  0  0  0  0  0  0  0  0  0
   -0.9893    3.6529    1.4644 H   0  0  0  0  0  0  0  0  0  0  0  0
   -1.0808    3.6095   -0.3129 H   0  0  0  0  0  0  0  0  0  0  0  0
  5  6  2  0  0  0  0
  5  7  1  0  0  0  0
  2  3  1  0  0  0  0
  2  4  1  0  0  0  0
  2  5  1  0  0  0  0
  1  2  1  0  0  0  0
 29 30  2  0  0  0  0
 29 31  1  0  0  0  0
 26 27  1  0  0  0  0
 26 28  2  0  0  0  0
 24 25  1  0  0  0  0
 24 26  1  0  0  0  0
 22 23  1  0  0  0  0
 22 24  2  0  0  0  0
 20 21  1  0  0  0  0
 20 22  1  0  0  0  0
 19 20  2  0  0  0  0
 19 28  1  0  0  0  0
 17 18  1  0  0  0  0
 17 19  1  0  0  0  0
 15 16  1  0  0  0  0
 15 17  1  0  0  0  0
 14 15  2  0  0  0  0
 14 28  1  0  0  0  0
 11 12  1  0  0  0  0
 11 13  1  0  0  0  0
 11 14  1  0  0  0  0
  9 10  1  0  0  0  0
  9 11  1  0  0  0  0
  9 29  1  0  0  0  0
  7  8  1  0  0  0  0
  7  9  1  0  0  0  0
 33 34  1  0  0  0  0
 33 35  1  0  0  0  0
 33 36  1  0  0  0  0
 31 32  1  0  0  0  0
 31 33  1  0  0  0  0
M  END
$$$$
default_name
  -OEChem-02102213163D

 36 37  0     1  0  0  0  0  0999 V2000
   -4.0843   -4.0736    1.2944 H   0  0  0  0  0  0  0  0  0  0  0  0
   -4.0342   -3.2816    0.5484 C   0  0  0  0  0  0  0  0  0  0  0  0
   -4.8842   -2.6126    0.6694 H   0  0  0  0  0  0  0  0  0  0  0  0
   -4.0433   -3.7186   -0.4486 H   0  0  0  0  0  0  0  0  0  0  0  0
   -2.7532   -2.5046    0.7444 C   0  0  0  0  0  0  0  0  0  0  0  0
   -1.9803   -2.8096    1.6434 O   0  0  0  0  0  0  0  0  0  0  0  0
   -2.5332   -1.4966   -0.0966 N   0  0  0  0  0  0  0  0  0  0  0  0
   -3.2312   -1.2816   -0.7936 H   0  0  0  0  0  0  0  0  0  0  0  0
   -1.3593   -0.6196   -0.0536 C   0  0  1  0  0  0  0  0  0  0  0  0
   -0.8788   -0.7266    0.9196 H   0  0  0  0  0  0  0  0  0  0  0  0
   -0.3559   -1.0533   -1.1339 C   0  0  0  0  0  0  0  0  0  0  0  0
   -0.6409   -2.0402   -1.5027 H   0  0  0  0  0  0  0  0  0  0  0  0
   -0.4234   -0.3559   -1.9706 H   0  0  0  0  0  0  0  0  0  0  0  0
    1.0727   -1.1209   -0.6859 C   0  0  0  0  0  0  0  0  0  0  0  0
    2.1235   -1.4758   -1.4590 C   0  0  0  0  0  0  0  0  0  0  0  0
    2.0515   -1.7742   -2.4991 H   0  0  0  0  0  0  0  0  0  0  0  0
    3.2912   -1.3792   -0.7278 N   0  0  0  0  0  0  0  0  0  0  0  0
    4.2025   -1.6001   -1.1019 H   0  0  0  0  0  0  0  0  0  0  0  0
    3.0511   -0.9383    0.5562 C   0  0  0  0  0  0  0  0  0  0  0  0
    3.8887   -0.6586    1.6455 C   0  0  0  0  0  0  0  0  0  0  0  0
    4.9576   -0.7892    1.5619 H   0  0  0  0  0  0  0  0  0  0  0  0
    3.3175   -0.2077    2.8478 C   0  0  0  0  0  0  0  0  0  0  0  0
    3.9478    0.0120    3.6990 H   0  0  0  0  0  0  0  0  0  0  0  0
    1.9230   -0.0488    2.9451 C   0  0  0  0  0  0  0  0  0  0  0  0
    1.4871    0.2903    3.8747 H   0  0  0  0  0  0  0  0  0  0  0  0
    1.0907   -0.3349    1.8444 C   0  0  0  0  0  0  0  0  0  0  0  0
    0.0199   -0.2213    1.9368 H   0  0  0  0  0  0  0  0  0  0  0  0
    1.6340   -0.7835    0.6211 C   0  0  0  0  0  0  0  0  0  0  0  0
   -1.7617    0.8549   -0.2106 C   0  0  0  0  0  0  0  0  0  0  0  0
   -2.5726    1.1871   -1.0741 O   0  0  0  0  0  0  0  0  0  0  0  0
   -1.1941    1.7377    0.6223 N   0  0  0  0  0  0  0  0  0  0  0  0
   -0.4976    1.3916    1.2669 H   0  0  0  0  0  0  0  0  0  0  0  0
   -1.4666    3.1722    0.6095 C   0  0  0  0  0  0  0  0  0  0  0  0
   -2.5439    3.3427    0.6539 H   0  0  0  0  0  0  0  0  0  0  0  0
   -0.9893    3.6529    1.4644 H   0  0  0  0  0  0  0  0  0  0  0  0
   -1.0808    3.6095   -0.3129 H   0  0  0  0  0  0  0  0  0  0  0  0
  5  6  2  0  0  0  0
  5  7  1  0  0  0  0
  2  3  1  0  0  0  0
  2  4  1  0  0  0  0
  2  5  1  0  0  0  0
  1  2  1  0  0  0  0
 29 30  2  0  0  0  0
 29 31  1  0  0  0  0
 26 27  1  0  0  0  0
 26 28  2  0  0  0  0
 24 25  1  0  0  0  0
 24 26  1  0  0  0  0
 22 23  1  0  0  0  0
 22 24  2  0  0  0  0
 20 21  1  0  0  0  0
 20 22  1  0  0  0  0
 19 20  2  0  0  0  0
 19 28  1  0  0  0  0
 17 18  1  0  0  0  0
 17 19  1  0  0  0  0
 15 16  1  0  0  0  0
 15 17  1  0  0  0  0
 14 15  2  0  0  0  0
 14 28  1  0  0  0  0
 11 12  1  0  0  0  0
 11 13  1  0  0  0  0
 11 14  1  0  0  0  0
  9 10  1  0  0  0  0
  9 11  1  0  0  0  0
  9 29  1  0  0  0  0
  7  8  1  0  0  0  0
  7  9  1  0  0  0  0
 33 34  1  0  0  0  0
 33 35  1  0  0  0  0
 33 36  1  0  0  0  0
 31 32  1  0  0  0  0
 31 33  1  0  0  0  0
M  END
$$$$
default_name
  -OEChem-02102213163D

 36 37  0     1  0  0  0  0  0999 V2000
   -4.0843   -4.0736    1.2944 H   0  0  0  0  0  0  0  0  0  0  0  0
   -4.0342   -3.2816    0.5484 C   0  0  0  0  0  0  0  0  0  0  0  0
   -4.8842   -2.6126    0.6694 H   0  0  0  0  0  0  0  0  0  0  0  0
   -4.0433   -3.7186   -0.4486 H   0  0  0  0  0  0  0  0  0  0  0  0
   -2.7532   -2.5046    0.7444 C   0  0  0  0  0  0  0  0  0  0  0  0
   -1.9803   -2.8096    1.6434 O   0  0  0  0  0  0  0  0  0  0  0  0
   -2.5332   -1.4966   -0.0966 N   0  0  0  0  0  0  0  0  0  0  0  0
   -3.2312   -1.2816   -0.7936 H   0  0  0  0  0  0  0  0  0  0  0  0
   -1.3593   -0.6196   -0.0536 C   0  0  1  0  0  0  0  0  0  0  0  0
   -0.8788   -0.7266    0.9196 H   0  0  0  0  0  0  0  0  0  0  0  0
   -0.3559   -1.0533   -1.1339 C   0  0  0  0  0  0  0  0  0  0  0  0
   -0.6409   -2.0402   -1.5027 H   0  0  0  0  0  0  0  0  0  0  0  0
   -0.4234   -0.3559   -1.9706 H   0  0  0  0  0  0  0  0  0  0  0  0
    1.0727   -1.1209   -0.6859 C   0  0  0  0  0  0  0  0  0  0  0  0
    2.1497   -1.1929   -1.4999 C   0  0  0  0  0  0  0  0  0  0  0  0
    2.1035   -1.2296   -2.5828 H   0  0  0  0  0  0  0  0  0  0  0  0
    3.3047   -1.1917   -0.7427 N   0  0  0  0  0  0  0  0  0  0  0  0
    4.2313   -1.2434   -1.1401 H   0  0  0  0  0  0  0  0  0  0  0  0
    3.0281   -1.1014    0.6049 C   0  0  0  0  0  0  0  0  0  0  0  0
    3.8389   -1.0368    1.7472 C   0  0  0  0  0  0  0  0  0  0  0  0
    4.9149   -1.0612    1.6568 H   0  0  0  0  0  0  0  0  0  0  0  0
    3.2317   -0.9419    3.0110 C   0  0  0  0  0  0  0  0  0  0  0  0
    3.8410   -0.8921    3.9033 H   0  0  0  0  0  0  0  0  0  0  0  0
    1.8288   -0.9182    3.1146 C   0  0  0  0  0  0  0  0  0  0  0  0
    1.3657   -0.8535    4.0895 H   0  0  0  0  0  0  0  0  0  0  0  0
    1.0237   -0.9857    1.9598 C   0  0  0  0  0  0  0  0  0  0  0  0
   -0.0529   -0.9800    2.0545 H   0  0  0  0  0  0  0  0  0  0  0  0
    1.6031   -1.0754    0.6756 C   0  0  0  0  0  0  0  0  0  0  0  0
   -1.7617    0.8549   -0.2106 C   0  0  0  0  0  0  0  0  0  0  0  0
   -2.5726    1.1871   -1.0741 O   0  0  0  0  0  0  0  0  0  0  0  0
   -1.1941    1.7377    0.6223 N   0  0  0  0  0  0  0  0  0  0  0  0
   -0.4976    1.3916    1.2669 H   0  0  0  0  0  0  0  0  0  0  0  0
   -1.4666    3.1722    0.6095 C   0  0  0  0  0  0  0  0  0  0  0  0
   -2.5439    3.3427    0.6539 H   0  0  0  0  0  0  0  0  0  0  0  0
   -0.9893    3.6529    1.4644 H   0  0  0  0  0  0  0  0  0  0  0  0
   -1.0808    3.6095   -0.3129 H   0  0  0  0  0  0  0  0  0  0  0  0
  5  6  2  0  0  0  0
  5  7  1  0  0  0  0
  2  3  1  0  0  0  0
  2  4  1  0  0  0  0
  2  5  1  0  0  0  0
  1  2  1  0  0  0  0
 29 30  2  0  0  0  0
 29 31  1  0  0  0  0
 26 27  1  0  0  0  0
 26 28  2  0  0  0  0
 24 25  1  0  0  0  0
 24 26  1  0  0  0  0
 22 23  1  0  0  0  0
 22 24  2  0  0  0  0
 20 21  1  0  0  0  0
 20 22  1  0  0  0  0
 19 20  2  0  0  0  0
 19 28  1  0  0  0  0
 17 18  1  0  0  0  0
 17 19  1  0  0  0  0
 15 16  1  0  0  0  0
 15 17  1  0  0  0  0
 14 15  2  0  0  0  0
 14 28  1  0  0  0  0
 11 12  1  0  0  0  0
 11 13  1  0  0  0  0
 11 14  1  0  0  0  0
  9 10  1  0  0  0  0
  9 11  1  0  0  0  0
  9 29  1  0  0  0  0
  7  8  1  0  0  0  0
  7  9  1  0  0  0  0
 33 34  1  0  0  0  0
 33 35  1  0  0  0  0
 33 36  1  0  0  0  0
 31 32  1  0  0  0  0
 31 33  1  0  0  0  0
M  END
$$$$
default_name
  -OEChem-02102213163D

 36 37  0     1  0  0  0  0  0999 V2000
   -4.0843   -4.0736    1.2944 H   0  0  0  0  0  0  0  0  0  0  0  0
   -4.0342   -3.2816    0.5484 C   0  0  0  0  0  0  0  0  0  0  0  0
   -4.8842   -2.6126    0.6694 H   0  0  0  0  0  0  0  0  0  0  0  0
   -4.0433   -3.7186   -0.4486 H   0  0  0  0  0  0  0  0  0  0  0  0
   -2.7532   -2.5046    0.7444 C   0  0  0  0  0  0  0  0  0  0  0  0
   -1.9803   -2.8096    1.6434 O   0  0  0  0  0  0  0  0  0  0  0  0
   -2.5332   -1.4966   -0.0966 N   0  0  0  0  0  0  0  0  0  0  0  0
   -3.2312   -1.2816   -0.7936 H   0  0  0  0  0  0  0  0  0  0  0  0
   -1.3593   -0.6196   -0.0536 C   0  0  1  0  0  0  0  0  0  0  0  0
   -0.8788   -0.7266    0.9196 H   0  0  0  0  0  0  0  0  0  0  0  0
   -0.3559   -1.0533   -1.1339 C   0  0  0  0  0  0  0  0  0  0  0  0
   -0.6409   -2.0402   -1.5027 H   0  0  0  0  0  0  0  0  0  0  0  0
   -0.4234   -0.3559   -1.9706 H   0  0  0  0  0  0  0  0  0  0  0  0
    1.0727   -1.1209   -0.6859 C   0  0  0  0  0  0  0  0  0  0  0  0
    2.1536   -0.9075   -1.4694 C   0  0  0  0  0  0  0  0  0  0  0  0
    2.1126   -0.6788   -2.5287 H   0  0  0  0  0  0  0  0  0  0  0  0
    3.3035   -1.0058   -0.7107 N   0  0  0  0  0  0  0  0  0  0  0  0
    4.2320   -0.8872   -1.0887 H   0  0  0  0  0  0  0  0  0  0  0  0
    3.0180   -1.2727    0.6114 C   0  0  0  0  0  0  0  0  0  0  0  0
    3.8189   -1.4311    1.7515 C   0  0  0  0  0  0  0  0  0  0  0  0
    4.8937   -1.3507    1.6810 H   0  0  0  0  0  0  0  0  0  0  0  0
    3.2036   -1.6979    2.9865 C   0  0  0  0  0  0  0  0  0  0  0  0
    3.8053   -1.8241    3.8764 H   0  0  0  0  0  0  0  0  0  0  0  0
    1.8030   -1.8071    3.0628 C   0  0  0  0  0  0  0  0  0  0  0  0
    1.3343   -2.0207    4.0134 H   0  0  0  0  0  0  0  0  0  0  0  0
    1.0080   -1.6479    1.9100 C   0  0  0  0  0  0  0  0  0  0  0  0
   -0.0658   -1.7476    1.9800 H   0  0  0  0  0  0  0  0  0  0  0  0
    1.5952   -1.3732    0.6559 C   0  0  0  0  0  0  0  0  0  0  0  0
   -1.7617    0.8549   -0.2106 C   0  0  0  0  0  0  0  0  0  0  0  0
   -2.5726    1.1871   -1.0741 O   0  0  0  0  0  0  0  0  0  0  0  0
   -1.1941    1.7377    0.6223 N   0  0  0  0  0  0  0  0  0  0  0  0
   -0.4976    1.3916    1.2669 H   0  0  0  0  0  0  0  0  0  0  0  0
   -1.4666    3.1722    0.6095 C   0  0  0  0  0  0  0  0  0  0  0  0
   -2.5439    3.3427    0.6539 H   0  0  0  0  0  0  0  0  0  0  0  0
   -0.9893    3.6529    1.4644 H   0  0  0  0  0  0  0  0  0  0  0  0
   -1.0808    3.6095   -0.3129 H   0  0  0  0  0  0  0  0  0  0  0  0
  5  6  2  0  0  0  0
  5  7  1  0  0  0  0
  2  3  1  0  0  0  0
  2  4  1  0  0  0  0
  2  5  1  0  0  0  0
  1  2  1  0  0  0  0
 29 30  2  0  0  0  0
 29 31  1  0  0  0  0
 26 27  1  0  0  0  0
 26 28  2  0  0  0  0
 24 25  1  0  0  0  0
 24 26  1  0  0  0  0
 22 23  1  0  0  0  0
 22 24  2  0  0  0  0
 20 21  1  0  0  0  0
 20 22  1  0  0  0  0
 19 20  2  0  0  0  0
 19 28  1  0  0  0  0
 17 18  1  0  0  0  0
 17 19  1  0  0  0  0
 15 16  1  0  0  0  0
 15 17  1  0  0  0  0
 14 15  2  0  0  0  0
 14 28  1  0  0  0  0
 11 12  1  0  0  0  0
 11 13  1  0  0  0  0
 11 14  1  0  0  0  0
  9 10  1  0  0  0  0
  9 11  1  0  0  0  0
  9 29  1  0  0  0  0
  7  8  1  0  0  0  0
  7  9  1  0  0  0  0
 33 34  1  0  0  0  0
 33 35  1  0  0  0  0
 33 36  1  0  0  0  0
 31 32  1  0  0  0  0
 31 33  1  0  0  0  0
M  END
$$$$
default_name
  -OEChem-02102213163D

 36 37  0     1  0  0  0  0  0999 V2000
   -4.0843   -4.0736    1.2944 H   0  0  0  0  0  0  0  0  0  0  0  0
   -4.0342   -3.2816    0.5484 C   0  0  0  0  0  0  0  0  0  0  0  0
   -4.8842   -2.6126    0.6694 H   0  0  0  0  0  0  0  0  0  0  0  0
   -4.0433   -3.7186   -0.4486 H   0  0  0  0  0  0  0  0  0  0  0  0
   -2.7532   -2.5046    0.7444 C   0  0  0  0  0  0  0  0  0  0  0  0
   -1.9803   -2.8096    1.6434 O   0  0  0  0  0  0  0  0  0  0  0  0
   -2.5332   -1.4966   -0.0966 N   0  0  0  0  0  0  0  0  0  0  0  0
   -3.2312   -1.2816   -0.7936 H   0  0  0  0  0  0  0  0  0  0  0  0
   -1.3593   -0.6196   -0.0536 C   0  0  1  0  0  0  0  0  0  0  0  0
   -0.8788   -0.7266    0.9196 H   0  0  0  0  0  0  0  0  0  0  0  0
   -0.3559   -1.0533   -1.1339 C   0  0  0  0  0  0  0  0  0  0  0  0
   -0.6409   -2.0402   -1.5027 H   0  0  0  0  0  0  0  0  0  0  0  0
   -0.4234   -0.3559   -1.9706 H   0  0  0  0  0  0  0  0  0  0  0  0
    1.0727   -1.1209   -0.6859 C   0  0  0  0  0  0  0  0  0  0  0  0
    2.1350   -0.6391   -1.3694 C   0  0  0  0  0  0  0  0  0  0  0  0
    2.0781   -0.1594   -2.3404 H   0  0  0  0  0  0  0  0  0  0  0  0
    3.2875   -0.8343   -0.6339 N   0  0  0  0  0  0  0  0  0  0  0  0
    4.2046   -0.5558   -0.9511 H   0  0  0  0  0  0  0  0  0  0  0  0
    3.0213   -1.4405    0.5754 C   0  0  0  0  0  0  0  0  0  0  0  0
    3.8300   -1.8146    1.6582 C   0  0  0  0  0  0  0  0  0  0  0  0
    4.8953   -1.6379    1.6326 H   0  0  0  0  0  0  0  0  0  0  0  0
    3.2352   -2.4242    2.7760 C   0  0  0  0  0  0  0  0  0  0  0  0
    3.8433   -2.7205    3.6201 H   0  0  0  0  0  0  0  0  0  0  0  0
    1.8475   -2.6549    2.7930 C   0  0  0  0  0  0  0  0  0  0  0  0
    1.3952   -3.1318    3.6516 H   0  0  0  0  0  0  0  0  0  0  0  0
    1.0447   -2.2765    1.6982 C   0  0  0  0  0  0  0  0  0  0  0  0
   -0.0181   -2.4716    1.7186 H   0  0  0  0  0  0  0  0  0  0  0  0
    1.6108   -1.6566    0.5633 C   0  0  0  0  0  0  0  0  0  0  0  0
   -1.7617    0.8549   -0.2106 C   0  0  0  0  0  0  0  0  0  0  0  0
   -2.5726    1.1871   -1.0741 O   0  0  0  0  0  0  0  0  0  0  0  0
   -1.1941    1.7377    0.6223 N   0  0  0  0  0  0  0  0  0  0  0  0
   -0.4976    1.3916    1.2669 H   0  0  0  0  0  0  0  0  0  0  0  0
   -1.4666    3.1722    0.6095 C   0  0  0  0  0  0  0  0  0  0  0  0
   -2.5439    3.3427    0.6539 H   0  0  0  0  0  0  0  0  0  0  0  0
   -0.9893    3.6529    1.4644 H   0  0  0  0  0  0  0  0  0  0  0  0
   -1.0808    3.6095   -0.3129 H   0  0  0  0  0  0  0  0  0  0  0  0
  5  6  2  0  0  0  0
  5  7  1  0  0  0  0
  2  3  1  0  0  0  0
  2  4  1  0  0  0  0
  2  5  1  0  0  0  0
  1  2  1  0  0  0  0
 29 30  2  0  0  0  0
 29 31  1  0  0  0  0
 26 27  1  0  0  0  0
 26 28  2  0  0  0  0
 24 25  1  0  0  0  0
 24 26  1  0  0  0  0
 22 23  1  0  0  0  0
 22 24  2  0  0  0  0
 20 21  1  0  0  0  0
 20 22  1  0  0  0  0
 19 20  2  0  0  0  0
 19 28  1  0  0  0  0
 17 18  1  0  0  0  0
 17 19  1  0  0  0  0
 15 16  1  0  0  0  0
 15 17  1  0  0  0  0
 14 15  2  0  0  0  0
 14 28  1  0  0  0  0
 11 12  1  0  0  0  0
 11 13  1  0  0  0  0
 11 14  1  0  0  0  0
  9 10  1  0  0  0  0
  9 11  1  0  0  0  0
  9 29  1  0  0  0  0
  7  8  1  0  0  0  0
  7  9  1  0  0  0  0
 33 34  1  0  0  0  0
 33 35  1  0  0  0  0
 33 36  1  0  0  0  0
 31 32  1  0  0  0  0
 31 33  1  0  0  0  0
M  END
$$$$
default_name
  -OEChem-02102213163D

 36 37  0     1  0  0  0  0  0999 V2000
   -4.0843   -4.0736    1.2944 H   0  0  0  0  0  0  0  0  0  0  0  0
   -4.0342   -3.2816    0.5484 C   0  0  0  0  0  0  0  0  0  0  0  0
   -4.8842   -2.6126    0.6694 H   0  0  0  0  0  0  0  0  0  0  0  0
   -4.0433   -3.7186   -0.4486 H   0  0  0  0  0  0  0  0  0  0  0  0
   -2.7532   -2.5046    0.7444 C   0  0  0  0  0  0  0  0  0  0  0  0
   -1.9803   -2.8096    1.6434 O   0  0  0  0  0  0  0  0  0  0  0  0
   -2.5332   -1.4966   -0.0966 N   0  0  0  0  0  0  0  0  0  0  0  0
   -3.2312   -1.2816   -0.7936 H   0  0  0  0  0  0  0  0  0  0  0  0
   -1.3593   -0.6196   -0.0536 C   0  0  1  0  0  0  0  0  0  0  0  0
   -0.8788   -0.7266    0.9196 H   0  0  0  0  0  0  0  0  0  0  0  0
   -0.3559   -1.0533   -1.1339 C   0  0  0  0  0  0  0  0  0  0  0  0
   -0.6409   -2.0402   -1.5027 H   0  0  0  0  0  0  0  0  0  0  0  0
   -0.4234   -0.3559   -1.9706 H   0  0  0  0  0  0  0  0  0  0  0  0
    1.0727   -1.1209   -0.6859 C   0  0  0  0  0  0  0  0  0  0  0  0
    2.0950   -0.4059   -1.2069 C   0  0  0  0  0  0  0  0  0  0  0  0
    2.0024    0.2931   -2.0308 H   0  0  0  0  0  0  0  0  0  0  0  0
    3.2579   -0.6888   -0.5176 N   0  0  0  0  0  0  0  0  0  0  0  0
    4.1508   -0.2718   -0.7368 H   0  0  0  0  0  0  0  0  0  0  0  0
    3.0380   -1.5935    0.4992 C   0  0  0  0  0  0  0  0  0  0  0  0
    3.8715   -2.1612    1.4735 C   0  0  0  0  0  0  0  0  0  0  0  0
    4.9196   -1.9033    1.5150 H   0  0  0  0  0  0  0  0  0  0  0  0
    3.3245   -3.0715    2.3939 C   0  0  0  0  0  0  0  0  0  0  0  0
    3.9524   -3.5201    3.1518 H   0  0  0  0  0  0  0  0  0  0  0  0
    1.9592   -3.4038    2.3239 C   0  0  0  0  0  0  0  0  0  0  0  0
    1.5443   -4.1110    3.0287 H   0  0  0  0  0  0  0  0  0  0  0  0
    1.1312   -2.8287    1.3391 C   0  0  0  0  0  0  0  0  0  0  0  0
    0.0870   -3.1028    1.2881 H   0  0  0  0  0  0  0  0  0  0  0  0
    1.6489   -1.9063    0.4041 C   0  0  0  0  0  0  0  0  0  0  0  0
   -1.7617    0.8549   -0.2106 C   0  0  0  0  0  0  0  0  0  0  0  0
   -2.5726    1.1871   -1.0741 O   0  0  0  0  0  0  0  0  0  0  0  0
   -1.1941    1.7377    0.6223 N   0  0  0  0  0  0  0  0  0  0  0  0
   -0.4976    1.3916    1.2669 H   0  0  0  0  0  0  0  0  0  0  0  0
   -1.4666    3.1722    0.6095 C   0  0  0  0  0  0  0  0  0  0  0  0
   -2.5439    3.3427    0.6539 H   0  0  0  0  0  0  0  0  0  0  0  0
   -0.9893    3.6529    1.4644 H   0  0  0  0  0  0  0  0  0  0  0  0
   -1.0808    3.6095   -0.3129 H   0  0  0  0  0  0  0  0  0  0  0  0
  5  6  2  0  0  0  0
  5  7  1  0  0  0  0
  2  3  1  0  0  0  0
  2  4  1  0  0  0  0
  2  5  1  0  0  0  0
  1  2  1  0  0  0  0
 29 30  2  0  0  0  0
 29 31  1  0  0  0  0
 26 27  1  0  0  0  0
 26 28  2  0  0  0  0
 24 25  1  0  0  0  0
 24 26  1  0  0  0  0
 22 23  1  0  0  0  0
 22 24  2  0  0  0  0
 20 21  1  0  0  0  0
 20 22  1  0  0  0  0
 19 20  2  0  0  0  0
 19 28  1  0  0  0  0
 17 18  1  0  0  0  0
 17 19  1  0  0  0  0
 15 16  1  0  0  0  0
 15 17  1  0  0  0  0
 14 15  2  0  0  0  0
 14 28  1  0  0  0  0
 11 12  1  0  0  0  0
 11 13  1  0  0  0  0
 11 14  1  0  0  0  0
  9 10  1  0  0  0  0
  9 11  1  0  0  0  0
  9 29  1  0  0  0  0
  7  8  1  0  0  0  0
  7  9  1  0  0  0  0
 33 34  1  0  0  0  0
 33 35  1  0  0  0  0
 33 36  1  0  0  0  0
 31 32  1  0  0  0  0
 31 33  1  0  0  0  0
M  END
$$$$
default_name
  -OEChem-02102213163D

 36 37  0     1  0  0  0  0  0999 V2000
   -4.0843   -4.0736    1.2944 H   0  0  0  0  0  0  0  0  0  0  0  0
   -4.0342   -3.2816    0.5484 C   0  0  0  0  0  0  0  0  0  0  0  0
   -4.8842   -2.6126    0.6694 H   0  0  0  0  0  0  0  0  0  0  0  0
   -4.0433   -3.7186   -0.4486 H   0  0  0  0  0  0  0  0  0  0  0  0
   -2.7532   -2.5046    0.7444 C   0  0  0  0  0  0  0  0  0  0  0  0
   -1.9803   -2.8096    1.6434 O   0  0  0  0  0  0  0  0  0  0  0  0
   -2.5332   -1.4966   -0.0966 N   0  0  0  0  0  0  0  0  0  0  0  0
   -3.2312   -1.2816   -0.7936 H   0  0  0  0  0  0  0  0  0  0  0  0
   -1.3593   -0.6196   -0.0536 C   0  0  1  0  0  0  0  0  0  0  0  0
   -0.8788   -0.7266    0.9196 H   0  0  0  0  0  0  0  0  0  0  0  0
   -0.3559   -1.0533   -1.1339 C   0  0  0  0  0  0  0  0  0  0  0  0
   -0.6409   -2.0402   -1.5027 H   0  0  0  0  0  0  0  0  0  0  0  0
   -0.4234   -0.3559   -1.9706 H   0  0  0  0  0  0  0  0  0  0  0  0
    1.0727   -1.1209   -0.6859 C   0  0  0  0  0  0  0  0  0  0  0  0
    2.0365   -0.2239   -0.9928 C   0  0  0  0  0  0  0  0  0  0  0  0
    1.8907    0.6480   -1.6210 H   0  0  0  0  0  0  0  0  0  0  0  0
    3.2167   -0.5793   -0.3698 N   0  0  0  0  0  0  0  0  0  0  0  0
    4.0744   -0.0545   -0.4604 H   0  0  0  0  0  0  0  0  0  0  0  0
    3.0668   -1.7212    0.3880 C   0  0  0  0  0  0  0  0  0  0  0  0
    3.9406   -2.4471    1.2102 C   0  0  0  0  0  0  0  0  0  0  0  0
    4.9650   -2.1287    1.3363 H   0  0  0  0  0  0  0  0  0  0  0  0
    3.4652   -3.5955    1.8661 C   0  0  0  0  0  0  0  0  0  0  0  0
    4.1250   -4.1686    2.5034 H   0  0  0  0  0  0  0  0  0  0  0  0
    2.1305   -4.0029    1.6873 C   0  0  0  0  0  0  0  0  0  0  0  0
    1.7712   -4.8917    2.1872 H   0  0  0  0  0  0  0  0  0  0  0  0
    1.2617   -3.2667    0.8569 C   0  0  0  0  0  0  0  0  0  0  0  0
    0.2425   -3.5982    0.7177 H   0  0  0  0  0  0  0  0  0  0  0  0
    1.7069   -2.1053    0.1891 C   0  0  0  0  0  0  0  0  0  0  0  0
   -1.7617    0.8549   -0.2106 C   0  0  0  0  0  0  0  0  0  0  0  0
   -2.5726    1.1871   -1.0741 O   0  0  0  0  0  0  0  0  0  0  0  0
   -1.1941    1.7377    0.6223 N   0  0  0  0  0  0  0  0  0  0  0  0
   -0.4976    1.3916    1.2669 H   0  0  0  0  0  0  0  0  0  0  0  0
   -1.4666    3.1722    0.6095 C   0  0  0  0  0  0  0  0  0  0  0  0
   -2.5439    3.3427    0.6539 H   0  0  0  0  0  0  0  0  0  0  0  0
   -0.9893    3.6529    1.4644 H   0  0  0  0  0  0  0  0  0  0  0  0
   -1.0808    3.6095   -0.3129 H   0  0  0  0  0  0  0  0  0  0  0  0
  5  6  2  0  0  0  0
  5  7  1  0  0  0  0
  2  3  1  0  0  0  0
  2  4  1  0  0  0  0
  2  5  1  0  0  0  0
  1  2  1  0  0  0  0
 29 30  2  0  0  0  0
 29 31  1  0  0  0  0
 26 27  1  0  0  0  0
 26 28  2  0  0  0  0
 24 25  1  0  0  0  0
 24 26  1  0  0  0  0
 22 23  1  0  0  0  0
 22 24  2  0  0  0  0
 20 21  1  0  0  0  0
 20 22  1  0  0  0  0
 19 20  2  0  0  0  0
 19 28  1  0  0  0  0
 17 18  1  0  0  0  0
 17 19  1  0  0  0  0
 15 16  1  0  0  0  0
 15 17  1  0  0  0  0
 14 15  2  0  0  0  0
 14 28  1  0  0  0  0
 11 12  1  0  0  0  0
 11 13  1  0  0  0  0
 11 14  1  0  0  0  0
  9 10  1  0  0  0  0
  9 11  1  0  0  0  0
  9 29  1  0  0  0  0
  7  8  1  0  0  0  0
  7  9  1  0  0  0  0
 33 34  1  0  0  0  0
 33 35  1  0  0  0  0
 33 36  1  0  0  0  0
 31 32  1  0  0  0  0
 31 33  1  0  0  0  0
M  END
$$$$
default_name
  -OEChem-02102213163D

 36 37  0     1  0  0  0  0  0999 V2000
   -4.0843   -4.0736    1.2944 H   0  0  0  0  0  0  0  0  0  0  0  0
   -4.0342   -3.2816    0.5484 C   0  0  0  0  0  0  0  0  0  0  0  0
   -4.8842   -2.6126    0.6694 H   0  0  0  0  0  0  0  0  0  0  0  0
   -4.0433   -3.7186   -0.4486 H   0  0  0  0  0  0  0  0  0  0  0  0
   -2.7532   -2.5046    0.7444 C   0  0  0  0  0  0  0  0  0  0  0  0
   -1.9803   -2.8096    1.6434 O   0  0  0  0  0  0  0  0  0  0  0  0
   -2.5332   -1.4966   -0.0966 N   0  0  0  0  0  0  0  0  0  0  0  0
   -3.2312   -1.2816   -0.7936 H   0  0  0  0  0  0  0  0  0  0  0  0
   -1.3593   -0.6196   -0.0536 C   0  0  1  0  0  0  0  0  0  0  0  0
   -0.8788   -0.7266    0.9196 H   0  0  0  0  0  0  0  0  0  0  0  0
   -0.3559   -1.0533   -1.1339 C   0  0  0  0  0  0  0  0  0  0  0  0
   -0.6409   -2.0402   -1.5027 H   0  0  0  0  0  0  0  0  0  0  0  0
   -0.4234   -0.3559   -1.9706 H   0  0  0  0  0  0  0  0  0  0  0  0
    1.0727   -1.1209   -0.6859 C   0  0  0  0  0  0  0  0  0  0  0  0
    1.9634   -0.1054   -0.7418 C   0  0  0  0  0  0  0  0  0  0  0  0
    1.7506    0.8811   -1.1389 H   0  0  0  0  0  0  0  0  0  0  0  0
    3.1668   -0.5131   -0.2004 N   0  0  0  0  0  0  0  0  0  0  0  0
    3.9806    0.0813   -0.1406 H   0  0  0  0  0  0  0  0  0  0  0  0
    3.1058   -1.8149    0.2495 C   0  0  0  0  0  0  0  0  0  0  0  0
    4.0325   -2.6530    0.8860 C   0  0  0  0  0  0  0  0  0  0  0  0
    5.0283   -2.2989    1.1085 H   0  0  0  0  0  0  0  0  0  0  0  0
    3.6478   -3.9605    1.2287 C   0  0  0  0  0  0  0  0  0  0  0  0
    4.3495   -4.6216    1.7192 H   0  0  0  0  0  0  0  0  0  0  0  0
    2.3497   -4.4112    0.9265 C   0  0  0  0  0  0  0  0  0  0  0  0
    2.0607   -5.4206    1.1844 H   0  0  0  0  0  0  0  0  0  0  0  0
    1.4272   -3.5607    0.2847 C   0  0  0  0  0  0  0  0  0  0  0  0
    0.4376   -3.9239    0.0464 H   0  0  0  0  0  0  0  0  0  0  0  0
    1.7808   -2.2400   -0.0669 C   0  0  0  0  0  0  0  0  0  0  0  0
   -1.7617    0.8549   -0.2106 C   0  0  0  0  0  0  0  0  0  0  0  0
   -2.5726    1.1871   -1.0741 O   0  0  0  0  0  0  0  0  0  0  0  0
   -1.1941    1.7377    0.6223 N   0  0  0  0  0  0  0  0  0  0  0  0
   -0.4976    1.3916    1.2669 H   0  0  0  0  0  0  0  0  0  0  0  0
   -1.4666    3.1722    0.6095 C   0  0  0  0  0  0  0  0  0  0  0  0
   -2.5439    3.3427    0.6539 H   0  0  0  0  0  0  0  0  0  0  0  0
   -0.9893    3.6529    1.4644 H   0  0  0  0  0  0  0  0  0  0  0  0
   -1.0808    3.6095   -0.3129 H   0  0  0  0  0  0  0  0  0  0  0  0
  5  6  2  0  0  0  0
  5  7  1  0  0  0  0
  2  3  1  0  0  0  0
  2  4  1  0  0  0  0
  2  5  1  0  0  0  0
  1  2  1  0  0  0  0
 29 30  2  0  0  0  0
 29 31  1  0  0  0  0
 26 27  1  0  0  0  0
 26 28  2  0  0  0  0
 24 25  1  0  0  0  0
 24 26  1  0  0  0  0
 22 23  1  0  0  0  0
 22 24  2  0  0  0  0
 20 21  1  0  0  0  0
 20 22  1  0  0  0  0
 19 20  2  0  0  0  0
 19 28  1  0  0  0  0
 17 18  1  0  0  0  0
 17 19  1  0  0  0  0
 15 16  1  0  0  0  0
 15 17  1  0  0  0  0
 14 15  2  0  0  0  0
 14 28  1  0  0  0  0
 11 12  1  0  0  0  0
 11 13  1  0  0  0  0
 11 14  1  0  0  0  0
  9 10  1  0  0  0  0
  9 11  1  0  0  0  0
  9 29  1  0  0  0  0
  7  8  1  0  0  0  0
  7  9  1  0  0  0  0
 33 34  1  0  0  0  0
 33 35  1  0  0  0  0
 33 36  1  0  0  0  0
 31 32  1  0  0  0  0
 31 33  1  0  0  0  0
M  END
$$$$
default_name
  -OEChem-02102213163D

 36 37  0     1  0  0  0  0  0999 V2000
   -4.0843   -4.0736    1.2944 H   0  0  0  0  0  0  0  0  0  0  0  0
   -4.0342   -3.2816    0.5484 C   0  0  0  0  0  0  0  0  0  0  0  0
   -4.8842   -2.6126    0.6694 H   0  0  0  0  0  0  0  0  0  0  0  0
   -4.0433   -3.7186   -0.4486 H   0  0  0  0  0  0  0  0  0  0  0  0
   -2.7532   -2.5046    0.7444 C   0  0  0  0  0  0  0  0  0  0  0  0
   -1.9803   -2.8096    1.6434 O   0  0  0  0  0  0  0  0  0  0  0  0
   -2.5332   -1.4966   -0.0966 N   0  0  0  0  0  0  0  0  0  0  0  0
   -3.2312   -1.2816   -0.7936 H   0  0  0  0  0  0  0  0  0  0  0  0
   -1.3593   -0.6196   -0.0536 C   0  0  1  0  0  0  0  0  0  0  0  0
   -0.8788   -0.7266    0.9196 H   0  0  0  0  0  0  0  0  0  0  0  0
   -0.3559   -1.0533   -1.1339 C   0  0  0  0  0  0  0  0  0  0  0  0
   -0.6409   -2.0402   -1.5027 H   0  0  0  0  0  0  0  0  0  0  0  0
   -0.4234   -0.3559   -1.9706 H   0  0  0  0  0  0  0  0  0  0  0  0
    1.0727   -1.1209   -0.6859 C   0  0  0  0  0  0  0  0  0  0  0  0
    1.8807   -0.0585   -0.4710 C   0  0  0  0  0  0  0  0  0  0  0  0
    1.5916    0.9764   -0.6174 H   0  0  0  0  0  0  0  0  0  0  0  0
    3.1114   -0.4948   -0.0210 N   0  0  0  0  0  0  0  0  0  0  0  0
    3.8757    0.1264    0.2006 H   0  0  0  0  0  0  0  0  0  0  0  0
    3.1524   -1.8682    0.0930 C   0  0  0  0  0  0  0  0  0  0  0  0
    4.1410   -2.7648    0.5232 C   0  0  0  0  0  0  0  0  0  0  0  0
    5.1054   -2.4021    0.8473 H   0  0  0  0  0  0  0  0  0  0  0  0
    3.8599   -4.1418    0.5250 C   0  0  0  0  0  0  0  0  0  0  0  0
    4.6105   -4.8483    0.8525 H   0  0  0  0  0  0  0  0  0  0  0  0
    2.6020   -4.6009    0.0935 C   0  0  0  0  0  0  0  0  0  0  0  0
    2.3928   -5.6617    0.0887 H   0  0  0  0  0  0  0  0  0  0  0  0
    1.6165   -3.6907   -0.3387 C   0  0  0  0  0  0  0  0  0  0  0  0
    0.6591   -4.0578   -0.6802 H   0  0  0  0  0  0  0  0  0  0  0  0
    1.8656   -2.3012   -0.3465 C   0  0  0  0  0  0  0  0  0  0  0  0
   -1.7617    0.8549   -0.2106 C   0  0  0  0  0  0  0  0  0  0  0  0
   -2.5726    1.1871   -1.0741 O   0  0  0  0  0  0  0  0  0  0  0  0
   -1.1941    1.7377    0.6223 N   0  0  0  0  0  0  0  0  0  0  0  0
   -0.4976    1.3916    1.2669 H   0  0  0  0  0  0  0  0  0  0  0  0
   -1.4666    3.1722    0.6095 C   0  0  0  0  0  0  0  0  0  0  0  0
   -2.5439    3.3427    0.6539 H   0  0  0  0  0  0  0  0  0  0  0  0
   -0.9893    3.6529    1.4644 H   0  0  0  0  0  0  0  0  0  0  0  0
   -1.0808    3.6095   -0.3129 H   0  0  0  0  0  0  0  0  0  0  0  0
  5  6  2  0  0  0  0
  5  7  1  0  0  0  0
  2  3  1  0  0  0  0
  2  4  1  0  0  0  0
  2  5  1  0  0  0  0
  1  2  1  0  0  0  0
 29 30  2  0  0  0  0
 29 31  1  0  0  0  0
 26 27  1  0  0  0  0
 26 28  2  0  0  0  0
 24 25  1  0  0  0  0
 24 26  1  0  0  0  0
 22 23  1  0  0  0  0
 22 24  2  0  0  0  0
 20 21  1  0  0  0  0
 20 22  1  0  0  0  0
 19 20  2  0  0  0  0
 19 28  1  0  0  0  0
 17 18  1  0  0  0  0
 17 19  1  0  0  0  0
 15 16  1  0  0  0  0
 15 17  1  0  0  0  0
 14 15  2  0  0  0  0
 14 28  1  0  0  0  0
 11 12  1  0  0  0  0
 11 13  1  0  0  0  0
 11 14  1  0  0  0  0
  9 10  1  0  0  0  0
  9 11  1  0  0  0  0
  9 29  1  0  0  0  0
  7  8  1  0  0  0  0
  7  9  1  0  0  0  0
 33 34  1  0  0  0  0
 33 35  1  0  0  0  0
 33 36  1  0  0  0  0
 31 32  1  0  0  0  0
 31 33  1  0  0  0  0
M  END
$$$$
default_name
  -OEChem-02102213163D

 36 37  0     1  0  0  0  0  0999 V2000
   -4.0843   -4.0736    1.2944 H   0  0  0  0  0  0  0  0  0  0  0  0
   -4.0342   -3.2816    0.5484 C   0  0  0  0  0  0  0  0  0  0  0  0
   -4.8842   -2.6126    0.6694 H   0  0  0  0  0  0  0  0  0  0  0  0
   -4.0433   -3.7186   -0.4486 H   0  0  0  0  0  0  0  0  0  0  0  0
   -2.7532   -2.5046    0.7444 C   0  0  0  0  0  0  0  0  0  0  0  0
   -1.9803   -2.8096    1.6434 O   0  0  0  0  0  0  0  0  0  0  0  0
   -2.5332   -1.4966   -0.0966 N   0  0  0  0  0  0  0  0  0  0  0  0
   -3.2312   -1.2816   -0.7936 H   0  0  0  0  0  0  0  0  0  0  0  0
   -1.3593   -0.6196   -0.0536 C   0  0  1  0  0  0  0  0  0  0  0  0
   -0.8788   -0.7266    0.9196 H   0  0  0  0  0  0  0  0  0  0  0  0
   -0.3559   -1.0533   -1.1339 C   0  0  0  0  0  0  0  0  0  0  0  0
   -0.6409   -2.0402   -1.5027 H   0  0  0  0  0  0  0  0  0  0  0  0
   -0.4234   -0.3559   -1.9706 H   0  0  0  0  0  0  0  0  0  0  0  0
    1.0727   -1.1209   -0.6859 C   0  0  0  0  0  0  0  0  0  0  0  0
    1.7940   -0.0864   -0.1988 C   0  0  0  0  0  0  0  0  0  0  0  0
    1.4245    0.9276   -0.0920 H   0  0  0  0  0  0  0  0  0  0  0  0
    3.0544   -0.5258    0.1561 N   0  0  0  0  0  0  0  0  0  0  0  0
    3.7669    0.0775    0.5402 H   0  0  0  0  0  0  0  0  0  0  0  0
    3.2033   -1.8775   -0.0708 C   0  0  0  0  0  0  0  0  0  0  0  0
    4.2587   -2.7749    0.1464 C   0  0  0  0  0  0  0  0  0  0  0  0
    5.1908   -2.4314    0.5704 H   0  0  0  0  0  0  0  0  0  0  0  0
    4.0870   -4.1268   -0.1969 C   0  0  0  0  0  0  0  0  0  0  0  0
    4.8903   -4.8333   -0.0375 H   0  0  0  0  0  0  0  0  0  0  0  0
    2.8700   -4.5592   -0.7549 C   0  0  0  0  0  0  0  0  0  0  0  0
    2.7451   -5.5986   -1.0254 H   0  0  0  0  0  0  0  0  0  0  0  0
    1.8167   -3.6479   -0.9707 C   0  0  0  0  0  0  0  0  0  0  0  0
    0.8919   -3.9907   -1.4124 H   0  0  0  0  0  0  0  0  0  0  0  0
    1.9555   -2.2848   -0.6308 C   0  0  0  0  0  0  0  0  0  0  0  0
   -1.7617    0.8549   -0.2106 C   0  0  0  0  0  0  0  0  0  0  0  0
   -2.5726    1.1871   -1.0741 O   0  0  0  0  0  0  0  0  0  0  0  0
   -1.1941    1.7377    0.6223 N   0  0  0  0  0  0  0  0  0  0  0  0
   -0.4976    1.3916    1.2669 H   0  0  0  0  0  0  0  0  0  0  0  0
   -1.4666    3.1722    0.6095 C   0  0  0  0  0  0  0  0  0  0  0  0
   -2.5439    3.3427    0.6539 H   0  0  0  0  0  0  0  0  0  0  0  0
   -0.9893    3.6529    1.4644 H   0  0  0  0  0  0  0  0  0  0  0  0
   -1.0808    3.6095   -0.3129 H   0  0  0  0  0  0  0  0  0  0  0  0
  5  6  2  0  0  0  0
  5  7  1  0  0  0  0
  2  3  1  0  0  0  0
  2  4  1  0  0  0  0
  2  5  1  0  0  0  0
  1  2  1  0  0  0  0
 29 30  2  0  0  0  0
 29 31  1  0  0  0  0
 26 27  1  0  0  0  0
 26 28  2  0  0  0  0
 24 25  1  0  0  0  0
 24 26  1  0  0  0  0
 22 23  1  0  0  0  0
 22 24  2  0  0  0  0
 20 21  1  0  0  0  0
 20 22  1  0  0  0  0
 19 20  2  0  0  0  0
 19 28  1  0  0  0  0
 17 18  1  0  0  0  0
 17 19  1  0  0  0  0
 15 16  1  0  0  0  0
 15 17  1  0  0  0  0
 14 15  2  0  0  0  0
 14 28  1  0  0  0  0
 11 12  1  0  0  0  0
 11 13  1  0  0  0  0
 11 14  1  0  0  0  0
  9 10  1  0  0  0  0
  9 11  1  0  0  0  0
  9 29  1  0  0  0  0
  7  8  1  0  0  0  0
  7  9  1  0  0  0  0
 33 34  1  0  0  0  0
 33 35  1  0  0  0  0
 33 36  1  0  0  0  0
 31 32  1  0  0  0  0
 31 33  1  0  0  0  0
M  END
$$$$
default_name
  -OEChem-02102213163D

 36 37  0     1  0  0  0  0  0999 V2000
   -4.0843   -4.0736    1.2944 H   0  0  0  0  0  0  0  0  0  0  0  0
   -4.0342   -3.2816    0.5484 C   0  0  0  0  0  0  0  0  0  0  0  0
   -4.8842   -2.6126    0.6694 H   0  0  0  0  0  0  0  0  0  0  0  0
   -4.0433   -3.7186   -0.4486 H   0  0  0  0  0  0  0  0  0  0  0  0
   -2.7532   -2.5046    0.7444 C   0  0  0  0  0  0  0  0  0  0  0  0
   -1.9803   -2.8096    1.6434 O   0  0  0  0  0  0  0  0  0  0  0  0
   -2.5332   -1.4966   -0.0966 N   0  0  0  0  0  0  0  0  0  0  0  0
   -3.2312   -1.2816   -0.7936 H   0  0  0  0  0  0  0  0  0  0  0  0
   -1.3593   -0.6196   -0.0536 C   0  0  1  0  0  0  0  0  0  0  0  0
   -0.8788   -0.7266    0.9196 H   0  0  0  0  0  0  0  0  0  0  0  0
   -0.3559   -1.0533   -1.1339 C   0  0  0  0  0  0  0  0  0  0  0  0
   -0.6409   -2.0402   -1.5027 H   0  0  0  0  0  0  0  0  0  0  0  0
   -0.4234   -0.3559   -1.9706 H   0  0  0  0  0  0  0  0  0  0  0  0
    1.0727   -1.1209   -0.6859 C   0  0  0  0  0  0  0  0  0  0  0  0
    1.7093   -0.1873    0.0563 C   0  0  0  0  0  0  0  0  0  0  0  0
    1.2608    0.7378    0.4015 H   0  0  0  0  0  0  0  0  0  0  0  0
    2.9997   -0.6037    0.3189 N   0  0  0  0  0  0  0  0  0  0  0  0
    3.6617   -0.0618    0.8548 H   0  0  0  0  0  0  0  0  0  0  0  0
    3.2551   -1.8421   -0.2306 C   0  0  0  0  0  0  0  0  0  0  0  0
    4.3775   -2.6826   -0.2186 C   0  0  0  0  0  0  0  0  0  0  0  0
    5.2788   -2.3849    0.2967 H   0  0  0  0  0  0  0  0  0  0  0  0
    4.3136   -3.9167   -0.8879 C   0  0  0  0  0  0  0  0  0  0  0  0
    5.1698   -4.5776   -0.8902 H   0  0  0  0  0  0  0  0  0  0  0  0
    3.1356   -4.2888   -1.5611 C   0  0  0  0  0  0  0  0  0  0  0  0
    3.0936   -5.2355   -2.0817 H   0  0  0  0  0  0  0  0  0  0  0  0
    2.0142   -3.4351   -1.5682 C   0  0  0  0  0  0  0  0  0  0  0  0
    1.1201   -3.7273   -2.1005 H   0  0  0  0  0  0  0  0  0  0  0  0
    2.0444   -2.1918   -0.9002 C   0  0  0  0  0  0  0  0  0  0  0  0
   -1.7617    0.8549   -0.2106 C   0  0  0  0  0  0  0  0  0  0  0  0
   -2.5726    1.1871   -1.0741 O   0  0  0  0  0  0  0  0  0  0  0  0
   -1.1941    1.7377    0.6223 N   0  0  0  0  0  0  0  0  0  0  0  0
   -0.4976    1.3916    1.2669 H   0  0  0  0  0  0  0  0  0  0  0  0
   -1.4666    3.1722    0.6095 C   0  0  0  0  0  0  0  0  0  0  0  0
   -2.5439    3.3427    0.6539 H   0  0  0  0  0  0  0  0  0  0  0  0
   -0.9893    3.6529    1.4644 H   0  0  0  0  0  0  0  0  0  0  0  0
   -1.0808    3.6095   -0.3129 H   0  0  0  0  0  0  0  0  0  0  0  0
  5  6  2  0  0  0  0
  5  7  1  0  0  0  0
  2  3  1  0  0  0  0
  2  4  1  0  0  0  0
  2  5  1  0  0  0  0
  1  2  1  0  0  0  0
 29 30  2  0  0  0  0
 29 31  1  0  0  0  0
 26 27  1  0  0  0  0
 26 28  2  0  0  0  0
 24 25  1  0  0  0  0
 24 26  1  0  0  0  0
 22 23  1  0  0  0  0
 22 24  2  0  0  0  0
 20 21  1  0  0  0  0
 20 22  1  0  0  0  0
 19 20  2  0  0  0  0
 19 28  1  0  0  0  0
 17 18  1  0  0  0  0
 17 19  1  0  0  0  0
 15 16  1  0  0  0  0
 15 17  1  0  0  0  0
 14 15  2  0  0  0  0
 14 28  1  0  0  0  0
 11 12  1  0  0  0  0
 11 13  1  0  0  0  0
 11 14  1  0  0  0  0
  9 10  1  0  0  0  0
  9 11  1  0  0  0  0
  9 29  1  0  0  0  0
  7  8  1  0  0  0  0
  7  9  1  0  0  0  0
 33 34  1  0  0  0  0
 33 35  1  0  0  0  0
 33 36  1  0  0  0  0
 31 32  1  0  0  0  0
 31 33  1  0  0  0  0
M  END
$$$$
default_name
  -OEChem-02102213163D

 36 37  0     1  0  0  0  0  0999 V2000
   -4.0843   -4.0736    1.2944 H   0  0  0  0  0  0  0  0  0  0  0  0
   -4.0342   -3.2816    0.5484 C   0  0  0  0  0  0  0  0  0  0  0  0
   -4.8842   -2.6126    0.6694 H   0  0  0  0  0  0  0  0  0  0  0  0
   -4.0433   -3.7186   -0.4486 H   0  0  0  0  0  0  0  0  0  0  0  0
   -2.7532   -2.5046    0.7444 C   0  0  0  0  0  0  0  0  0  0  0  0
   -1.9803   -2.8096    1.6434 O   0  0  0  0  0  0  0  0  0  0  0  0
   -2.5332   -1.4966   -0.0966 N   0  0  0  0  0  0  0  0  0  0  0  0
   -3.2312   -1.2816   -0.7936 H   0  0  0  0  0  0  0  0  0  0  0  0
   -1.3593   -0.6196   -0.0536 C   0  0  1  0  0  0  0  0  0  0  0  0
   -0.8788   -0.7266    0.9196 H   0  0  0  0  0  0  0  0  0  0  0  0
   -0.3559   -1.0533   -1.1339 C   0  0  0  0  0  0  0  0  0  0  0  0
   -0.6409   -2.0402   -1.5027 H   0  0  0  0  0  0  0  0  0  0  0  0
   -0.4234   -0.3559   -1.9706 H   0  0  0  0  0  0  0  0  0  0  0  0
    1.0727   -1.1209   -0.6859 C   0  0  0  0  0  0  0  0  0  0  0  0
    1.6322   -0.3541    0.2767 C   0  0  0  0  0  0  0  0  0  0  0  0
    1.1115    0.4201    0.8295 H   0  0  0  0  0  0  0  0  0  0  0  0
    2.9509   -0.7234    0.4562 N   0  0  0  0  0  0  0  0  0  0  0  0
    3.5671   -0.2821    1.1232 H   0  0  0  0  0  0  0  0  0  0  0  0
    3.3043   -1.7645   -0.3757 C   0  0  0  0  0  0  0  0  0  0  0  0
    4.4894   -2.4942   -0.5470 C   0  0  0  0  0  0  0  0  0  0  0  0
    5.3634   -2.2655    0.0449 H   0  0  0  0  0  0  0  0  0  0  0  0
    4.5243   -3.5257   -1.5008 C   0  0  0  0  0  0  0  0  0  0  0  0
    5.4299   -4.0986   -1.6475 H   0  0  0  0  0  0  0  0  0  0  0  0
    3.3806   -3.8082   -2.2699 C   0  0  0  0  0  0  0  0  0  0  0  0
    3.4143   -4.5972   -3.0085 H   0  0  0  0  0  0  0  0  0  0  0  0
    2.1954   -3.0669   -2.0906 C   0  0  0  0  0  0  0  0  0  0  0  0
    1.3281   -3.2854   -2.6974 H   0  0  0  0  0  0  0  0  0  0  0  0
    2.1262   -2.0287   -1.1366 C   0  0  0  0  0  0  0  0  0  0  0  0
   -1.7617    0.8549   -0.2106 C   0  0  0  0  0  0  0  0  0  0  0  0
   -2.5726    1.1871   -1.0741 O   0  0  0  0  0  0  0  0  0  0  0  0
   -1.1941    1.7377    0.6223 N   0  0  0  0  0  0  0  0  0  0  0  0
   -0.4976    1.3916    1.2669 H   0  0  0  0  0  0  0  0  0  0  0  0
   -1.4666    3.1722    0.6095 C   0  0  0  0  0  0  0  0  0  0  0  0
   -2.5439    3.3427    0.6539 H   0  0  0  0  0  0  0  0  0  0  0  0
   -0.9893    3.6529    1.4644 H   0  0  0  0  0  0  0  0  0  0  0  0
   -1.0808    3.6095   -0.3129 H   0  0  0  0  0  0  0  0  0  0  0  0
  5  6  2  0  0  0  0
  5  7  1  0  0  0  0
  2  3  1  0  0  0  0
  2  4  1  0  0  0  0
  2  5  1  0  0  0  0
  1  2  1  0  0  0  0
 29 30  2  0  0  0  0
 29 31  1  0  0  0  0
 26 27  1  0  0  0  0
 26 28  2  0  0  0  0
 24 25  1  0  0  0  0
 24 26  1  0  0  0  0
 22 23  1  0  0  0  0
 22 24  2  0  0  0  0
 20 21  1  0  0  0  0
 20 22  1  0  0  0  0
 19 20  2  0  0  0  0
 19 28  1  0  0  0  0
 17 18  1  0  0  0  0
 17 19  1  0  0  0  0
 15 16  1  0  0  0  0
 15 17  1  0  0  0  0
 14 15  2  0  0  0  0
 14 28  1  0  0  0  0
 11 12  1  0  0  0  0
 11 13  1  0  0  0  0
 11 14  1  0  0  0  0
  9 10  1  0  0  0  0
  9 11  1  0  0  0  0
  9 29  1  0  0  0  0
  7  8  1  0  0  0  0
  7  9  1  0  0  0  0
 33 34  1  0  0  0  0
 33 35  1  0  0  0  0
 33 36  1  0  0  0  0
 31 32  1  0  0  0  0
 31 33  1  0  0  0  0
M  END
$$$$
default_name
  -OEChem-02102213163D

 36 37  0     1  0  0  0  0  0999 V2000
   -4.0843   -4.0736    1.2944 H   0  0  0  0  0  0  0  0  0  0  0  0
   -4.0342   -3.2816    0.5484 C   0  0  0  0  0  0  0  0  0  0  0  0
   -4.8842   -2.6126    0.6694 H   0  0  0  0  0  0  0  0  0  0  0  0
   -4.0433   -3.7186   -0.4486 H   0  0  0  0  0  0  0  0  0  0  0  0
   -2.7532   -2.5046    0.7444 C   0  0  0  0  0  0  0  0  0  0  0  0
   -1.9803   -2.8096    1.6434 O   0  0  0  0  0  0  0  0  0  0  0  0
   -2.5332   -1.4966   -0.0966 N   0  0  0  0  0  0  0  0  0  0  0  0
   -3.2312   -1.2816   -0.7936 H   0  0  0  0  0  0  0  0  0  0  0  0
   -1.3593   -0.6196   -0.0536 C   0  0  1  0  0  0  0  0  0  0  0  0
   -0.8788   -0.7266    0.9196 H   0  0  0  0  0  0  0  0  0  0  0  0
   -0.3559   -1.0533   -1.1339 C   0  0  0  0  0  0  0  0  0  0  0  0
   -0.6409   -2.0402   -1.5027 H   0  0  0  0  0  0  0  0  0  0  0  0
   -0.4234   -0.3559   -1.9706 H   0  0  0  0  0  0  0  0  0  0  0  0
    1.0727   -1.1209   -0.6859 C   0  0  0  0  0  0  0  0  0  0  0  0
    1.5682   -0.5757    0.4476 C   0  0  0  0  0  0  0  0  0  0  0  0
    0.9870   -0.0040    1.1628 H   0  0  0  0  0  0  0  0  0  0  0  0
    2.9115   -0.8767    0.5588 N   0  0  0  0  0  0  0  0  0  0  0  0
    3.4897   -0.5685    1.3269 H   0  0  0  0  0  0  0  0  0  0  0  0
    3.3474   -1.6499   -0.4961 C   0  0  0  0  0  0  0  0  0  0  0  0
    4.5867   -2.2225   -0.8165 C   0  0  0  0  0  0  0  0  0  0  0  0
    5.4389   -2.0816   -0.1680 H   0  0  0  0  0  0  0  0  0  0  0  0
    4.7047   -2.9806   -1.9940 C   0  0  0  0  0  0  0  0  0  0  0  0
    5.6530   -3.4289   -2.2579 H   0  0  0  0  0  0  0  0  0  0  0  0
    3.5883   -3.1501   -2.8332 C   0  0  0  0  0  0  0  0  0  0  0  0
    3.6856   -3.7272   -3.7424 H   0  0  0  0  0  0  0  0  0  0  0  0
    2.3480   -2.5683   -2.5023 C   0  0  0  0  0  0  0  0  0  0  0  0
    1.5019   -2.6953   -3.1625 H   0  0  0  0  0  0  0  0  0  0  0  0
    2.1954   -1.8065   -1.3236 C   0  0  0  0  0  0  0  0  0  0  0  0
   -1.7617    0.8549   -0.2106 C   0  0  0  0  0  0  0  0  0  0  0  0
   -2.5726    1.1871   -1.0741 O   0  0  0  0  0  0  0  0  0  0  0  0
   -1.1941    1.7377    0.6223 N   0  0  0  0  0  0  0  0  0  0  0  0
   -0.4976    1.3916    1.2669 H   0  0  0  0  0  0  0  0  0  0  0  0
   -1.4666    3.1722    0.6095 C   0  0  0  0  0  0  0  0  0  0  0  0
   -2.5439    3.3427    0.6539 H   0  0  0  0  0  0  0  0  0  0  0  0
   -0.9893    3.6529    1.4644 H   0  0  0  0  0  0  0  0  0  0  0  0
   -1.0808    3.6095   -0.3129 H   0  0  0  0  0  0  0  0  0  0  0  0
  5  6  2  0  0  0  0
  5  7  1  0  0  0  0
  2  3  1  0  0  0  0
  2  4  1  0  0  0  0
  2  5  1  0  0  0  0
  1  2  1  0  0  0  0
 29 30  2  0  0  0  0
 29 31  1  0  0  0  0
 26 27  1  0  0  0  0
 26 28  2  0  0  0  0
 24 25  1  0  0  0  0
 24 26  1  0  0  0  0
 22 23  1  0  0  0  0
 22 24  2  0  0  0  0
 20 21  1  0  0  0  0
 20 22  1  0  0  0  0
 19 20  2  0  0  0  0
 19 28  1  0  0  0  0
 17 18  1  0  0  0  0
 17 19  1  0  0  0  0
 15 16  1  0  0  0  0
 15 17  1  0  0  0  0
 14 15  2  0  0  0  0
 14 28  1  0  0  0  0
 11 12  1  0  0  0  0
 11 13  1  0  0  0  0
 11 14  1  0  0  0  0
  9 10  1  0  0  0  0
  9 11  1  0  0  0  0
  9 29  1  0  0  0  0
  7  8  1  0  0  0  0
  7  9  1  0  0  0  0
 33 34  1  0  0  0  0
 33 35  1  0  0  0  0
 33 36  1  0  0  0  0
 31 32  1  0  0  0  0
 31 33  1  0  0  0  0
M  END
$$$$
default_name
  -OEChem-02102213163D

 36 37  0     1  0  0  0  0  0999 V2000
   -4.0843   -4.0736    1.2944 H   0  0  0  0  0  0  0  0  0  0  0  0
   -4.0342   -3.2816    0.5484 C   0  0  0  0  0  0  0  0  0  0  0  0
   -4.8842   -2.6126    0.6694 H   0  0  0  0  0  0  0  0  0  0  0  0
   -4.0433   -3.7186   -0.4486 H   0  0  0  0  0  0  0  0  0  0  0  0
   -2.7532   -2.5046    0.7444 C   0  0  0  0  0  0  0  0  0  0  0  0
   -1.9803   -2.8096    1.6434 O   0  0  0  0  0  0  0  0  0  0  0  0
   -2.5332   -1.4966   -0.0966 N   0  0  0  0  0  0  0  0  0  0  0  0
   -3.2312   -1.2816   -0.7936 H   0  0  0  0  0  0  0  0  0  0  0  0
   -1.3593   -0.6196   -0.0536 C   0  0  1  0  0  0  0  0  0  0  0  0
   -0.8788   -0.7266    0.9196 H   0  0  0  0  0  0  0  0  0  0  0  0
   -0.3559   -1.0533   -1.1339 C   0  0  0  0  0  0  0  0  0  0  0  0
   -0.6409   -2.0402   -1.5027 H   0  0  0  0  0  0  0  0  0  0  0  0
   -0.4234   -0.3559   -1.9706 H   0  0  0  0  0  0  0  0  0  0  0  0
    1.0727   -1.1209   -0.6859 C   0  0  0  0  0  0  0  0  0  0  0  0
    1.5215   -0.8368    0.5573 C   0  0  0  0  0  0  0  0  0  0  0  0
    0.8956   -0.5054    1.3786 H   0  0  0  0  0  0  0  0  0  0  0  0
    2.8841   -1.0531    0.6196 N   0  0  0  0  0  0  0  0  0  0  0  0
    3.4347   -0.9013    1.4521 H   0  0  0  0  0  0  0  0  0  0  0  0
    3.3817   -1.5062   -0.5837 C   0  0  0  0  0  0  0  0  0  0  0  0
    4.6629   -1.8861   -1.0086 C   0  0  0  0  0  0  0  0  0  0  0  0
    5.5000   -1.8456   -0.3273 H   0  0  0  0  0  0  0  0  0  0  0  0
    4.8425   -2.3184   -2.3337 C   0  0  0  0  0  0  0  0  0  0  0  0
    5.8237   -2.6143   -2.6795 H   0  0  0  0  0  0  0  0  0  0  0  0
    3.7446   -2.3594   -3.2125 C   0  0  0  0  0  0  0  0  0  0  0  0
    3.8889   -2.6848   -4.2335 H   0  0  0  0  0  0  0  0  0  0  0  0
    2.4617   -1.9734   -2.7751 C   0  0  0  0  0  0  0  0  0  0  0  0
    1.6295   -1.9970   -3.4642 H   0  0  0  0  0  0  0  0  0  0  0  0
    2.2472   -1.5403   -1.4487 C   0  0  0  0  0  0  0  0  0  0  0  0
   -1.7617    0.8549   -0.2106 C   0  0  0  0  0  0  0  0  0  0  0  0
   -2.5726    1.1871   -1.0741 O   0  0  0  0  0  0  0  0  0  0  0  0
   -1.1941    1.7377    0.6223 N   0  0  0  0  0  0  0  0  0  0  0  0
   -0.4976    1.3916    1.2669 H   0  0  0  0  0  0  0  0  0  0  0  0
   -1.4666    3.1722    0.6095 C   0  0  0  0  0  0  0  0  0  0  0  0
   -2.5439    3.3427    0.6539 H   0  0  0  0  0  0  0  0  0  0  0  0
   -0.9893    3.6529    1.4644 H   0  0  0  0  0  0  0  0  0  0  0  0
   -1.0808    3.6095   -0.3129 H   0  0  0  0  0  0  0  0  0  0  0  0
  5  6  2  0  0  0  0
  5  7  1  0  0  0  0
  2  3  1  0  0  0  0
  2  4  1  0  0  0  0
  2  5  1  0  0  0  0
  1  2  1  0  0  0  0
 29 30  2  0  0  0  0
 29 31  1  0  0  0  0
 26 27  1  0  0  0  0
 26 28  2  0  0  0  0
 24 25  1  0  0  0  0
 24 26  1  0  0  0  0
 22 23  1  0  0  0  0
 22 24  2  0  0  0  0
 20 21  1  0  0  0  0
 20 22  1  0  0  0  0
 19 20  2  0  0  0  0
 19 28  1  0  0  0  0
 17 18  1  0  0  0  0
 17 19  1  0  0  0  0
 15 16  1  0  0  0  0
 15 17  1  0  0  0  0
 14 15  2  0  0  0  0
 14 28  1  0  0  0  0
 11 12  1  0  0  0  0
 11 13  1  0  0  0  0
 11 14  1  0  0  0  0
  9 10  1  0  0  0  0
  9 11  1  0  0  0  0
  9 29  1  0  0  0  0
  7  8  1  0  0  0  0
  7  9  1  0  0  0  0
 33 34  1  0  0  0  0
 33 35  1  0  0  0  0
 33 36  1  0  0  0  0
 31 32  1  0  0  0  0
 31 33  1  0  0  0  0
M  END
$$$$
default_name
  -OEChem-02102213163D

 36 37  0     1  0  0  0  0  0999 V2000
   -4.0843   -4.0736    1.2944 H   0  0  0  0  0  0  0  0  0  0  0  0
   -4.0342   -3.2816    0.5484 C   0  0  0  0  0  0  0  0  0  0  0  0
   -4.8842   -2.6126    0.6694 H   0  0  0  0  0  0  0  0  0  0  0  0
   -4.0433   -3.7186   -0.4486 H   0  0  0  0  0  0  0  0  0  0  0  0
   -2.7532   -2.5046    0.7444 C   0  0  0  0  0  0  0  0  0  0  0  0
   -1.9803   -2.8096    1.6434 O   0  0  0  0  0  0  0  0  0  0  0  0
   -2.5332   -1.4966   -0.0966 N   0  0  0  0  0  0  0  0  0  0  0  0
   -3.2312   -1.2816   -0.7936 H   0  0  0  0  0  0  0  0  0  0  0  0
   -1.3593   -0.6196   -0.0536 C   0  0  1  0  0  0  0  0  0  0  0  0
   -0.8788   -0.7266    0.9196 H   0  0  0  0  0  0  0  0  0  0  0  0
   -0.3559   -1.0533   -1.1339 C   0  0  0  0  0  0  0  0  0  0  0  0
   -0.6409   -2.0402   -1.5027 H   0  0  0  0  0  0  0  0  0  0  0  0
   -0.4234   -0.3559   -1.9706 H   0  0  0  0  0  0  0  0  0  0  0  0
    1.0727   -1.1209   -0.6859 C   0  0  0  0  0  0  0  0  0  0  0  0
    1.4952   -1.1197    0.5982 C   0  0  0  0  0  0  0  0  0  0  0  0
    0.8436   -1.0501    1.4623 H   0  0  0  0  0  0  0  0  0  0  0  0
    2.8706   -1.2406    0.6345 N   0  0  0  0  0  0  0  0  0  0  0  0
    3.4058   -1.2580    1.4903 H   0  0  0  0  0  0  0  0  0  0  0  0
    3.4047   -1.3431   -0.6324 C   0  0  0  0  0  0  0  0  0  0  0  0
    4.7126   -1.5078   -1.1103 C   0  0  0  0  0  0  0  0  0  0  0  0
    5.5426   -1.5735   -0.4223 H   0  0  0  0  0  0  0  0  0  0  0  0
    4.9284   -1.5843   -2.4969 C   0  0  0  0  0  0  0  0  0  0  0  0
    5.9305   -1.7102   -2.8839 H   0  0  0  0  0  0  0  0  0  0  0  0
    3.8389   -1.4900   -3.3820 C   0  0  0  0  0  0  0  0  0  0  0  0
    4.0103   -1.5410   -4.4484 H   0  0  0  0  0  0  0  0  0  0  0  0
    2.5287   -1.3226   -2.8905 C   0  0  0  0  0  0  0  0  0  0  0  0
    1.7023   -1.2382   -3.5819 H   0  0  0  0  0  0  0  0  0  0  0  0
    2.2781   -1.2484   -1.5032 C   0  0  0  0  0  0  0  0  0  0  0  0
   -1.7617    0.8549   -0.2106 C   0  0  0  0  0  0  0  0  0  0  0  0
   -2.5726    1.1871   -1.0741 O   0  0  0  0  0  0  0  0  0  0  0  0
   -1.1941    1.7377    0.6223 N   0  0  0  0  0  0  0  0  0  0  0  0
   -0.4976    1.3916    1.2669 H   0  0  0  0  0  0  0  0  0  0  0  0
   -1.4666    3.1722    0.6095 C   0  0  0  0  0  0  0  0  0  0  0  0
   -2.5439    3.3427    0.6539 H   0  0  0  0  0  0  0  0  0  0  0  0
   -0.9893    3.6529    1.4644 H   0  0  0  0  0  0  0  0  0  0  0  0
   -1.0808    3.6095   -0.3129 H   0  0  0  0  0  0  0  0  0  0  0  0
  5  6  2  0  0  0  0
  5  7  1  0  0  0  0
  2  3  1  0  0  0  0
  2  4  1  0  0  0  0
  2  5  1  0  0  0  0
  1  2  1  0  0  0  0
 29 30  2  0  0  0  0
 29 31  1  0  0  0  0
 26 27  1  0  0  0  0
 26 28  2  0  0  0  0
 24 25  1  0  0  0  0
 24 26  1  0  0  0  0
 22 23  1  0  0  0  0
 22 24  2  0  0  0  0
 20 21  1  0  0  0  0
 20 22  1  0  0  0  0
 19 20  2  0  0  0  0
 19 28  1  0  0  0  0
 17 18  1  0  0  0  0
 17 19  1  0  0  0  0
 15 16  1  0  0  0  0
 15 17  1  0  0  0  0
 14 15  2  0  0  0  0
 14 28  1  0  0  0  0
 11 12  1  0  0  0  0
 11 13  1  0  0  0  0
 11 14  1  0  0  0  0
  9 10  1  0  0  0  0
  9 11  1  0  0  0  0
  9 29  1  0  0  0  0
  7  8  1  0  0  0  0
  7  9  1  0  0  0  0
 33 34  1  0  0  0  0
 33 35  1  0  0  0  0
 33 36  1  0  0  0  0
 31 32  1  0  0  0  0
 31 33  1  0  0  0  0
M  END
$$$$
default_name
  -OEChem-02102213163D

 36 37  0     1  0  0  0  0  0999 V2000
   -4.0843   -4.0736    1.2944 H   0  0  0  0  0  0  0  0  0  0  0  0
   -4.0342   -3.2816    0.5484 C   0  0  0  0  0  0  0  0  0  0  0  0
   -4.8842   -2.6126    0.6694 H   0  0  0  0  0  0  0  0  0  0  0  0
   -4.0433   -3.7186   -0.4486 H   0  0  0  0  0  0  0  0  0  0  0  0
   -2.7532   -2.5046    0.7444 C   0  0  0  0  0  0  0  0  0  0  0  0
   -1.9803   -2.8096    1.6434 O   0  0  0  0  0  0  0  0  0  0  0  0
   -2.5332   -1.4966   -0.0966 N   0  0  0  0  0  0  0  0  0  0  0  0
   -3.2312   -1.2816   -0.7936 H   0  0  0  0  0  0  0  0  0  0  0  0
   -1.3593   -0.6196   -0.0536 C   0  0  1  0  0  0  0  0  0  0  0  0
   -0.8788   -0.7266    0.9196 H   0  0  0  0  0  0  0  0  0  0  0  0
   -0.3559   -1.0533   -1.1339 C   0  0  0  0  0  0  0  0  0  0  0  0
   -0.6409   -2.0402   -1.5027 H   0  0  0  0  0  0  0  0  0  0  0  0
   -0.4234   -0.3559   -1.9706 H   0  0  0  0  0  0  0  0  0  0  0  0
    1.0727   -1.1209   -0.6859 C   0  0  0  0  0  0  0  0  0  0  0  0
    1.4913   -1.4051    0.5677 C   0  0  0  0  0  0  0  0  0  0  0  0
    0.8345   -1.6008    1.4082 H   0  0  0  0  0  0  0  0  0  0  0  0
    2.8718   -1.4264    0.6025 N   0  0  0  0  0  0  0  0  0  0  0  0
    3.4051   -1.6142    1.4389 H   0  0  0  0  0  0  0  0  0  0  0  0
    3.4148   -1.1718   -0.6389 C   0  0  0  0  0  0  0  0  0  0  0  0
    4.7326   -1.1135   -1.1146 C   0  0  0  0  0  0  0  0  0  0  0  0
    5.5639   -1.2841   -0.4464 H   0  0  0  0  0  0  0  0  0  0  0  0
    4.9565   -0.8282   -2.4724 C   0  0  0  0  0  0  0  0  0  0  0  0
    5.9662   -0.7782   -2.8570 H   0  0  0  0  0  0  0  0  0  0  0  0
    3.8646   -0.6012   -3.3302 C   0  0  0  0  0  0  0  0  0  0  0  0
    4.0417   -0.3738   -4.3723 H   0  0  0  0  0  0  0  0  0  0  0  0
    2.5444   -0.6603   -2.8406 C   0  0  0  0  0  0  0  0  0  0  0  0
    1.7152   -0.4707   -3.5074 H   0  0  0  0  0  0  0  0  0  0  0  0
    2.2860   -0.9506   -1.4835 C   0  0  0  0  0  0  0  0  0  0  0  0
   -1.7617    0.8549   -0.2106 C   0  0  0  0  0  0  0  0  0  0  0  0
   -2.5726    1.1871   -1.0741 O   0  0  0  0  0  0  0  0  0  0  0  0
   -1.1941    1.7377    0.6223 N   0  0  0  0  0  0  0  0  0  0  0  0
   -0.4976    1.3916    1.2669 H   0  0  0  0  0  0  0  0  0  0  0  0
   -1.4666    3.1722    0.6095 C   0  0  0  0  0  0  0  0  0  0  0  0
   -2.5439    3.3427    0.6539 H   0  0  0  0  0  0  0  0  0  0  0  0
   -0.9893    3.6529    1.4644 H   0  0  0  0  0  0  0  0  0  0  0  0
   -1.0808    3.6095   -0.3129 H   0  0  0  0  0  0  0  0  0  0  0  0
  5  6  2  0  0  0  0
  5  7  1  0  0  0  0
  2  3  1  0  0  0  0
  2  4  1  0  0  0  0
  2  5  1  0  0  0  0
  1  2  1  0  0  0  0
 29 30  2  0  0  0  0
 29 31  1  0  0  0  0
 26 27  1  0  0  0  0
 26 28  2  0  0  0  0
 24 25  1  0  0  0  0
 24 26  1  0  0  0  0
 22 23  1  0  0  0  0
 22 24  2  0  0  0  0
 20 21  1  0  0  0  0
 20 22  1  0  0  0  0
 19 20  2  0  0  0  0
 19 28  1  0  0  0  0
 17 18  1  0  0  0  0
 17 19  1  0  0  0  0
 15 16  1  0  0  0  0
 15 17  1  0  0  0  0
 14 15  2  0  0  0  0
 14 28  1  0  0  0  0
 11 12  1  0  0  0  0
 11 13  1  0  0  0  0
 11 14  1  0  0  0  0
  9 10  1  0  0  0  0
  9 11  1  0  0  0  0
  9 29  1  0  0  0  0
  7  8  1  0  0  0  0
  7  9  1  0  0  0  0
 33 34  1  0  0  0  0
 33 35  1  0  0  0  0
 33 36  1  0  0  0  0
 31 32  1  0  0  0  0
 31 33  1  0  0  0  0
M  END
$$$$
default_name
  -OEChem-02102213163D

 36 37  0     1  0  0  0  0  0999 V2000
   -4.0843   -4.0736    1.2944 H   0  0  0  0  0  0  0  0  0  0  0  0
   -4.0342   -3.2816    0.5484 C   0  0  0  0  0  0  0  0  0  0  0  0
   -4.8842   -2.6126    0.6694 H   0  0  0  0  0  0  0  0  0  0  0  0
   -4.0433   -3.7186   -0.4486 H   0  0  0  0  0  0  0  0  0  0  0  0
   -2.7532   -2.5046    0.7444 C   0  0  0  0  0  0  0  0  0  0  0  0
   -1.9803   -2.8096    1.6434 O   0  0  0  0  0  0  0  0  0  0  0  0
   -2.5332   -1.4966   -0.0966 N   0  0  0  0  0  0  0  0  0  0  0  0
   -3.2312   -1.2816   -0.7936 H   0  0  0  0  0  0  0  0  0  0  0  0
   -1.3593   -0.6196   -0.0536 C   0  0  1  0  0  0  0  0  0  0  0  0
   -0.8788   -0.7266    0.9196 H   0  0  0  0  0  0  0  0  0  0  0  0
   -0.3559   -1.0533   -1.1339 C   0  0  0  0  0  0  0  0  0  0  0  0
   -0.6409   -2.0402   -1.5027 H   0  0  0  0  0  0  0  0  0  0  0  0
   -0.4234   -0.3559   -1.9706 H   0  0  0  0  0  0  0  0  0  0  0  0
    1.0727   -1.1209   -0.6859 C   0  0  0  0  0  0  0  0  0  0  0  0
    1.5100   -1.6735    0.4678 C   0  0  0  0  0  0  0  0  0  0  0  0
    0.8690   -2.1202    1.2199 H   0  0  0  0  0  0  0  0  0  0  0  0
    2.8878   -1.5980    0.5257 N   0  0  0  0  0  0  0  0  0  0  0  0
    3.4326   -1.9455    1.3013 H   0  0  0  0  0  0  0  0  0  0  0  0
    3.4114   -1.0039   -0.6029 C   0  0  0  0  0  0  0  0  0  0  0  0
    4.7215   -0.7300   -1.0213 C   0  0  0  0  0  0  0  0  0  0  0  0
    5.5623   -0.9968   -0.3980 H   0  0  0  0  0  0  0  0  0  0  0  0
    4.9248   -0.1019   -2.2619 C   0  0  0  0  0  0  0  0  0  0  0  0
    5.9282    0.1182   -2.6006 H   0  0  0  0  0  0  0  0  0  0  0  0
    3.8202    0.2466   -3.0604 C   0  0  0  0  0  0  0  0  0  0  0  0
    3.9808    0.7373   -4.0105 H   0  0  0  0  0  0  0  0  0  0  0  0
    2.5077   -0.0317   -2.6289 C   0  0  0  0  0  0  0  0  0  0  0  0
    1.6675    0.2534   -3.2461 H   0  0  0  0  0  0  0  0  0  0  0  0
    2.2703   -0.6672   -1.3909 C   0  0  0  0  0  0  0  0  0  0  0  0
   -1.7617    0.8549   -0.2106 C   0  0  0  0  0  0  0  0  0  0  0  0
   -2.5726    1.1871   -1.0741 O   0  0  0  0  0  0  0  0  0  0  0  0
   -1.1941    1.7377    0.6223 N   0  0  0  0  0  0  0  0  0  0  0  0
   -0.4976    1.3916    1.2669 H   0  0  0  0  0  0  0  0  0  0  0  0
   -1.4666    3.1722    0.6095 C   0  0  0  0  0  0  0  0  0  0  0  0
   -2.5439    3.3427    0.6539 H   0  0  0  0  0  0  0  0  0  0  0  0
   -0.9893    3.6529    1.4644 H   0  0  0  0  0  0  0  0  0  0  0  0
   -1.0808    3.6095   -0.3129 H   0  0  0  0  0  0  0  0  0  0  0  0
  5  6  2  0  0  0  0
  5  7  1  0  0  0  0
  2  3  1  0  0  0  0
  2  4  1  0  0  0  0
  2  5  1  0  0  0  0
  1  2  1  0  0  0  0
 29 30  2  0  0  0  0
 29 31  1  0  0  0  0
 26 27  1  0  0  0  0
 26 28  2  0  0  0  0
 24 25  1  0  0  0  0
 24 26  1  0  0  0  0
 22 23  1  0  0  0  0
 22 24  2  0  0  0  0
 20 21  1  0  0  0  0
 20 22  1  0  0  0  0
 19 20  2  0  0  0  0
 19 28  1  0  0  0  0
 17 18  1  0  0  0  0
 17 19  1  0  0  0  0
 15 16  1  0  0  0  0
 15 17  1  0  0  0  0
 14 15  2  0  0  0  0
 14 28  1  0  0  0  0
 11 12  1  0  0  0  0
 11 13  1  0  0  0  0
 11 14  1  0  0  0  0
  9 10  1  0  0  0  0
  9 11  1  0  0  0  0
  9 29  1  0  0  0  0
  7  8  1  0  0  0  0
  7  9  1  0  0  0  0
 33 34  1  0  0  0  0
 33 35  1  0  0  0  0
 33 36  1  0  0  0  0
 31 32  1  0  0  0  0
 31 33  1  0  0  0  0
M  END
$$$$
default_name
  -OEChem-02102213163D

 36 37  0     1  0  0  0  0  0999 V2000
   -4.0843   -4.0736    1.2944 H   0  0  0  0  0  0  0  0  0  0  0  0
   -4.0342   -3.2816    0.5484 C   0  0  0  0  0  0  0  0  0  0  0  0
   -4.8842   -2.6126    0.6694 H   0  0  0  0  0  0  0  0  0  0  0  0
   -4.0433   -3.7186   -0.4486 H   0  0  0  0  0  0  0  0  0  0  0  0
   -2.7532   -2.5046    0.7444 C   0  0  0  0  0  0  0  0  0  0  0  0
   -1.9803   -2.8096    1.6434 O   0  0  0  0  0  0  0  0  0  0  0  0
   -2.5332   -1.4966   -0.0966 N   0  0  0  0  0  0  0  0  0  0  0  0
   -3.2312   -1.2816   -0.7936 H   0  0  0  0  0  0  0  0  0  0  0  0
   -1.3593   -0.6196   -0.0536 C   0  0  1  0  0  0  0  0  0  0  0  0
   -0.8788   -0.7266    0.9196 H   0  0  0  0  0  0  0  0  0  0  0  0
   -0.3559   -1.0533   -1.1339 C   0  0  0  0  0  0  0  0  0  0  0  0
   -0.6409   -2.0402   -1.5027 H   0  0  0  0  0  0  0  0  0  0  0  0
   -0.4234   -0.3559   -1.9706 H   0  0  0  0  0  0  0  0  0  0  0  0
    1.0727   -1.1209   -0.6859 C   0  0  0  0  0  0  0  0  0  0  0  0
    1.5499   -1.9067    0.3052 C   0  0  0  0  0  0  0  0  0  0  0  0
    0.9447   -2.5728    0.9104 H   0  0  0  0  0  0  0  0  0  0  0  0
    2.9174   -1.7435    0.4094 N   0  0  0  0  0  0  0  0  0  0  0  0
    3.4863   -2.2296    1.0870 H   0  0  0  0  0  0  0  0  0  0  0  0
    3.3948   -0.8509   -0.5266 C   0  0  0  0  0  0  0  0  0  0  0  0
    4.6800   -0.3835   -0.8366 C   0  0  0  0  0  0  0  0  0  0  0  0
    5.5380   -0.7315   -0.2805 H   0  0  0  0  0  0  0  0  0  0  0  0
    4.8356    0.5454   -1.8797 C   0  0  0  0  0  0  0  0  0  0  0  0
    5.8191    0.9178   -2.1323 H   0  0  0  0  0  0  0  0  0  0  0  0
    3.7085    0.9956   -2.5913 C   0  0  0  0  0  0  0  0  0  0  0  0
    3.8317    1.7165   -3.3876 H   0  0  0  0  0  0  0  0  0  0  0  0
    2.4212    0.5204   -2.2698 C   0  0  0  0  0  0  0  0  0  0  0  0
    1.5623    0.8846   -2.8155 H   0  0  0  0  0  0  0  0  0  0  0  0
    2.2322   -0.4175   -1.2317 C   0  0  0  0  0  0  0  0  0  0  0  0
   -1.7617    0.8549   -0.2106 C   0  0  0  0  0  0  0  0  0  0  0  0
   -2.5726    1.1871   -1.0741 O   0  0  0  0  0  0  0  0  0  0  0  0
   -1.1941    1.7377    0.6223 N   0  0  0  0  0  0  0  0  0  0  0  0
   -0.4976    1.3916    1.2669 H   0  0  0  0  0  0  0  0  0  0  0  0
   -1.4666    3.1722    0.6095 C   0  0  0  0  0  0  0  0  0  0  0  0
   -2.5439    3.3427    0.6539 H   0  0  0  0  0  0  0  0  0  0  0  0
   -0.9893    3.6529    1.4644 H   0  0  0  0  0  0  0  0  0  0  0  0
   -1.0808    3.6095   -0.3129 H   0  0  0  0  0  0  0  0  0  0  0  0
  5  6  2  0  0  0  0
  5  7  1  0  0  0  0
  2  3  1  0  0  0  0
  2  4  1  0  0  0  0
  2  5  1  0  0  0  0
  1  2  1  0  0  0  0
 29 30  2  0  0  0  0
 29 31  1  0  0  0  0
 26 27  1  0  0  0  0
 26 28  2  0  0  0  0
 24 25  1  0  0  0  0
 24 26  1  0  0  0  0
 22 23  1  0  0  0  0
 22 24  2  0  0  0  0
 20 21  1  0  0  0  0
 20 22  1  0  0  0  0
 19 20  2  0  0  0  0
 19 28  1  0  0  0  0
 17 18  1  0  0  0  0
 17 19  1  0  0  0  0
 15 16  1  0  0  0  0
 15 17  1  0  0  0  0
 14 15  2  0  0  0  0
 14 28  1  0  0  0  0
 11 12  1  0  0  0  0
 11 13  1  0  0  0  0
 11 14  1  0  0  0  0
  9 10  1  0  0  0  0
  9 11  1  0  0  0  0
  9 29  1  0  0  0  0
  7  8  1  0  0  0  0
  7  9  1  0  0  0  0
 33 34  1  0  0  0  0
 33 35  1  0  0  0  0
 33 36  1  0  0  0  0
 31 32  1  0  0  0  0
 31 33  1  0  0  0  0
M  END
$$$$
default_name
  -OEChem-02102213163D

 36 37  0     1  0  0  0  0  0999 V2000
   -4.0843   -4.0736    1.2944 H   0  0  0  0  0  0  0  0  0  0  0  0
   -4.0342   -3.2816    0.5484 C   0  0  0  0  0  0  0  0  0  0  0  0
   -4.8842   -2.6126    0.6694 H   0  0  0  0  0  0  0  0  0  0  0  0
   -4.0433   -3.7186   -0.4486 H   0  0  0  0  0  0  0  0  0  0  0  0
   -2.7532   -2.5046    0.7444 C   0  0  0  0  0  0  0  0  0  0  0  0
   -1.9803   -2.8096    1.6434 O   0  0  0  0  0  0  0  0  0  0  0  0
   -2.5332   -1.4966   -0.0966 N   0  0  0  0  0  0  0  0  0  0  0  0
   -3.2312   -1.2816   -0.7936 H   0  0  0  0  0  0  0  0  0  0  0  0
   -1.3593   -0.6196   -0.0536 C   0  0  1  0  0  0  0  0  0  0  0  0
   -0.8788   -0.7266    0.9196 H   0  0  0  0  0  0  0  0  0  0  0  0
   -0.3559   -1.0533   -1.1339 C   0  0  0  0  0  0  0  0  0  0  0  0
   -0.6409   -2.0402   -1.5027 H   0  0  0  0  0  0  0  0  0  0  0  0
   -0.4234   -0.3559   -1.9706 H   0  0  0  0  0  0  0  0  0  0  0  0
    1.0727   -1.1209   -0.6859 C   0  0  0  0  0  0  0  0  0  0  0  0
    1.6084   -2.0887    0.0912 C   0  0  0  0  0  0  0  0  0  0  0  0
    1.0564   -2.9277    0.5006 H   0  0  0  0  0  0  0  0  0  0  0  0
    2.9586   -1.8530    0.2615 N   0  0  0  0  0  0  0  0  0  0  0  0
    3.5628   -2.4469    0.8106 H   0  0  0  0  0  0  0  0  0  0  0  0
    3.3660   -0.7232   -0.4155 C   0  0  0  0  0  0  0  0  0  0  0  0
    4.6109   -0.0975   -0.5733 C   0  0  0  0  0  0  0  0  0  0  0  0
    5.4926   -0.5060   -0.1017 H   0  0  0  0  0  0  0  0  0  0  0  0
    4.6948    1.0694   -1.3520 C   0  0  0  0  0  0  0  0  0  0  0  0
    5.6465    1.5663   -1.4840 H   0  0  0  0  0  0  0  0  0  0  0  0
    3.5372    1.5946   -1.9547 C   0  0  0  0  0  0  0  0  0  0  0  0
    3.6048    2.4972   -2.5461 H   0  0  0  0  0  0  0  0  0  0  0  0
    2.2907    0.9584   -1.7876 C   0  0  0  0  0  0  0  0  0  0  0  0
    1.4069    1.3799   -2.2451 H   0  0  0  0  0  0  0  0  0  0  0  0
    2.1742   -0.2185   -1.0167 C   0  0  0  0  0  0  0  0  0  0  0  0
   -1.7617    0.8549   -0.2106 C   0  0  0  0  0  0  0  0  0  0  0  0
   -2.5726    1.1871   -1.0741 O   0  0  0  0  0  0  0  0  0  0  0  0
   -1.1941    1.7377    0.6223 N   0  0  0  0  0  0  0  0  0  0  0  0
   -0.4976    1.3916    1.2669 H   0  0  0  0  0  0  0  0  0  0  0  0
   -1.4666    3.1722    0.6095 C   0  0  0  0  0  0  0  0  0  0  0  0
   -2.5439    3.3427    0.6539 H   0  0  0  0  0  0  0  0  0  0  0  0
   -0.9893    3.6529    1.4644 H   0  0  0  0  0  0  0  0  0  0  0  0
   -1.0808    3.6095   -0.3129 H   0  0  0  0  0  0  0  0  0  0  0  0
  5  6  2  0  0  0  0
  5  7  1  0  0  0  0
  2  3  1  0  0  0  0
  2  4  1  0  0  0  0
  2  5  1  0  0  0  0
  1  2  1  0  0  0  0
 29 30  2  0  0  0  0
 29 31  1  0  0  0  0
 26 27  1  0  0  0  0
 26 28  2  0  0  0  0
 24 25  1  0  0  0  0
 24 26  1  0  0  0  0
 22 23  1  0  0  0  0
 22 24  2  0  0  0  0
 20 21  1  0  0  0  0
 20 22  1  0  0  0  0
 19 20  2  0  0  0  0
 19 28  1  0  0  0  0
 17 18  1  0  0  0  0
 17 19  1  0  0  0  0
 15 16  1  0  0  0  0
 15 17  1  0  0  0  0
 14 15  2  0  0  0  0
 14 28  1  0  0  0  0
 11 12  1  0  0  0  0
 11 13  1  0  0  0  0
 11 14  1  0  0  0  0
  9 10  1  0  0  0  0
  9 11  1  0  0  0  0
  9 29  1  0  0  0  0
  7  8  1  0  0  0  0
  7  9  1  0  0  0  0
 33 34  1  0  0  0  0
 33 35  1  0  0  0  0
 33 36  1  0  0  0  0
 31 32  1  0  0  0  0
 31 33  1  0  0  0  0
M  END
$$$$
default_name
  -OEChem-02102213163D

 36 37  0     1  0  0  0  0  0999 V2000
   -4.0843   -4.0736    1.2944 H   0  0  0  0  0  0  0  0  0  0  0  0
   -4.0342   -3.2816    0.5484 C   0  0  0  0  0  0  0  0  0  0  0  0
   -4.8842   -2.6126    0.6694 H   0  0  0  0  0  0  0  0  0  0  0  0
   -4.0433   -3.7186   -0.4486 H   0  0  0  0  0  0  0  0  0  0  0  0
   -2.7532   -2.5046    0.7444 C   0  0  0  0  0  0  0  0  0  0  0  0
   -1.9803   -2.8096    1.6434 O   0  0  0  0  0  0  0  0  0  0  0  0
   -2.5332   -1.4966   -0.0966 N   0  0  0  0  0  0  0  0  0  0  0  0
   -3.2312   -1.2816   -0.7936 H   0  0  0  0  0  0  0  0  0  0  0  0
   -1.3593   -0.6196   -0.0536 C   0  0  1  0  0  0  0  0  0  0  0  0
   -0.8788   -0.7266    0.9196 H   0  0  0  0  0  0  0  0  0  0  0  0
   -0.3559   -1.0533   -1.1339 C   0  0  0  0  0  0  0  0  0  0  0  0
   -0.6409   -2.0402   -1.5027 H   0  0  0  0  0  0  0  0  0  0  0  0
   -0.4234   -0.3559   -1.9706 H   0  0  0  0  0  0  0  0  0  0  0  0
    1.0727   -1.1209   -0.6859 C   0  0  0  0  0  0  0  0  0  0  0  0
    1.6815   -2.2072   -0.1598 C   0  0  0  0  0  0  0  0  0  0  0  0
    1.1965   -3.1607    0.0185 H   0  0  0  0  0  0  0  0  0  0  0  0
    3.0086   -1.9192    0.0922 N   0  0  0  0  0  0  0  0  0  0  0  0
    3.6566   -2.5827    0.4908 H   0  0  0  0  0  0  0  0  0  0  0  0
    3.3270   -0.6295   -0.2769 C   0  0  0  0  0  0  0  0  0  0  0  0
    4.5190    0.1084   -0.2491 C   0  0  0  0  0  0  0  0  0  0  0  0
    5.4292   -0.3359    0.1260 H   0  0  0  0  0  0  0  0  0  0  0  0
    4.5122    1.4344   -0.7145 C   0  0  0  0  0  0  0  0  0  0  0  0
    5.4220    2.0193   -0.6997 H   0  0  0  0  0  0  0  0  0  0  0  0
    3.3179    2.0029   -1.1939 C   0  0  0  0  0  0  0  0  0  0  0  0
    3.3153    3.0261   -1.5433 H   0  0  0  0  0  0  0  0  0  0  0  0
    2.1252    1.2525   -1.2154 C   0  0  0  0  0  0  0  0  0  0  0  0
    1.2118    1.7056   -1.5738 H   0  0  0  0  0  0  0  0  0  0  0  0
    2.1003   -0.0838   -0.7607 C   0  0  0  0  0  0  0  0  0  0  0  0
   -1.7617    0.8549   -0.2106 C   0  0  0  0  0  0  0  0  0  0  0  0
   -2.5726    1.1871   -1.0741 O   0  0  0  0  0  0  0  0  0  0  0  0
   -1.1941    1.7377    0.6223 N   0  0  0  0  0  0  0  0  0  0  0  0
   -0.4976    1.3916    1.2669 H   0  0  0  0  0  0  0  0  0  0  0  0
   -1.4666    3.1722    0.6095 C   0  0  0  0  0  0  0  0  0  0  0  0
   -2.5439    3.3427    0.6539 H   0  0  0  0  0  0  0  0  0  0  0  0
   -0.9893    3.6529    1.4644 H   0  0  0  0  0  0  0  0  0  0  0  0
   -1.0808    3.6095   -0.3129 H   0  0  0  0  0  0  0  0  0  0  0  0
  5  6  2  0  0  0  0
  5  7  1  0  0  0  0
  2  3  1  0  0  0  0
  2  4  1  0  0  0  0
  2  5  1  0  0  0  0
  1  2  1  0  0  0  0
 29 30  2  0  0  0  0
 29 31  1  0  0  0  0
 26 27  1  0  0  0  0
 26 28  2  0  0  0  0
 24 25  1  0  0  0  0
 24 26  1  0  0  0  0
 22 23  1  0  0  0  0
 22 24  2  0  0  0  0
 20 21  1  0  0  0  0
 20 22  1  0  0  0  0
 19 20  2  0  0  0  0
 19 28  1  0  0  0  0
 17 18  1  0  0  0  0
 17 19  1  0  0  0  0
 15 16  1  0  0  0  0
 15 17  1  0  0  0  0
 14 15  2  0  0  0  0
 14 28  1  0  0  0  0
 11 12  1  0  0  0  0
 11 13  1  0  0  0  0
 11 14  1  0  0  0  0
  9 10  1  0  0  0  0
  9 11  1  0  0  0  0
  9 29  1  0  0  0  0
  7  8  1  0  0  0  0
  7  9  1  0  0  0  0
 33 34  1  0  0  0  0
 33 35  1  0  0  0  0
 33 36  1  0  0  0  0
 31 32  1  0  0  0  0
 31 33  1  0  0  0  0
M  END
$$$$
default_name
  -OEChem-02102213163D

 36 37  0     1  0  0  0  0  0999 V2000
   -4.0843   -4.0736    1.2944 H   0  0  0  0  0  0  0  0  0  0  0  0
   -4.0342   -3.2816    0.5484 C   0  0  0  0  0  0  0  0  0  0  0  0
   -4.8842   -2.6126    0.6694 H   0  0  0  0  0  0  0  0  0  0  0  0
   -4.0433   -3.7186   -0.4486 H   0  0  0  0  0  0  0  0  0  0  0  0
   -2.7532   -2.5046    0.7444 C   0  0  0  0  0  0  0  0  0  0  0  0
   -1.9803   -2.8096    1.6434 O   0  0  0  0  0  0  0  0  0  0  0  0
   -2.5332   -1.4966   -0.0966 N   0  0  0  0  0  0  0  0  0  0  0  0
   -3.2312   -1.2816   -0.7936 H   0  0  0  0  0  0  0  0  0  0  0  0
   -1.3593   -0.6196   -0.0536 C   0  0  1  0  0  0  0  0  0  0  0  0
   -0.8788   -0.7266    0.9196 H   0  0  0  0  0  0  0  0  0  0  0  0
   -0.3559   -1.0533   -1.1339 C   0  0  0  0  0  0  0  0  0  0  0  0
   -0.6409   -2.0402   -1.5027 H   0  0  0  0  0  0  0  0  0  0  0  0
   -0.4234   -0.3559   -1.9706 H   0  0  0  0  0  0  0  0  0  0  0  0
    1.0727   -1.1209   -0.6859 C   0  0  0  0  0  0  0  0  0  0  0  0
    1.7642   -2.2541   -0.4307 C   0  0  0  0  0  0  0  0  0  0  0  0
    1.3556   -3.2561   -0.5031 H   0  0  0  0  0  0  0  0  0  0  0  0
    3.0639   -1.9374   -0.0872 N   0  0  0  0  0  0  0  0  0  0  0  0
    3.7615   -2.6277    0.1495 H   0  0  0  0  0  0  0  0  0  0  0  0
    3.2804   -0.5762   -0.1205 C   0  0  0  0  0  0  0  0  0  0  0  0
    4.4106    0.2202    0.1137 C   0  0  0  0  0  0  0  0  0  0  0  0
    5.3522   -0.2326    0.3873 H   0  0  0  0  0  0  0  0  0  0  0  0
    4.3002    1.6157   -0.0109 C   0  0  0  0  0  0  0  0  0  0  0  0
    5.1610    2.2460    0.1669 H   0  0  0  0  0  0  0  0  0  0  0  0
    3.0657    2.1926   -0.3609 C   0  0  0  0  0  0  0  0  0  0  0  0
    2.9832    3.2672   -0.4475 H   0  0  0  0  0  0  0  0  0  0  0  0
    1.9358    1.3825   -0.5920 C   0  0  0  0  0  0  0  0  0  0  0  0
    0.9903    1.8395   -0.8472 H   0  0  0  0  0  0  0  0  0  0  0  0
    2.0155   -0.0226   -0.4810 C   0  0  0  0  0  0  0  0  0  0  0  0
   -1.7617    0.8549   -0.2106 C   0  0  0  0  0  0  0  0  0  0  0  0
   -2.5726    1.1871   -1.0741 O   0  0  0  0  0  0  0  0  0  0  0  0
   -1.1941    1.7377    0.6223 N   0  0  0  0  0  0  0  0  0  0  0  0
   -0.4976    1.3916    1.2669 H   0  0  0  0  0  0  0  0  0  0  0  0
   -1.4666    3.1722    0.6095 C   0  0  0  0  0  0  0  0  0  0  0  0
   -2.5439    3.3427    0.6539 H   0  0  0  0  0  0  0  0  0  0  0  0
   -0.9893    3.6529    1.4644 H   0  0  0  0  0  0  0  0  0  0  0  0
   -1.0808    3.6095   -0.3129 H   0  0  0  0  0  0  0  0  0  0  0  0
  5  6  2  0  0  0  0
  5  7  1  0  0  0  0
  2  3  1  0  0  0  0
  2  4  1  0  0  0  0
  2  5  1  0  0  0  0
  1  2  1  0  0  0  0
 29 30  2  0  0  0  0
 29 31  1  0  0  0  0
 26 27  1  0  0  0  0
 26 28  2  0  0  0  0
 24 25  1  0  0  0  0
 24 26  1  0  0  0  0
 22 23  1  0  0  0  0
 22 24  2  0  0  0  0
 20 21  1  0  0  0  0
 20 22  1  0  0  0  0
 19 20  2  0  0  0  0
 19 28  1  0  0  0  0
 17 18  1  0  0  0  0
 17 19  1  0  0  0  0
 15 16  1  0  0  0  0
 15 17  1  0  0  0  0
 14 15  2  0  0  0  0
 14 28  1  0  0  0  0
 11 12  1  0  0  0  0
 11 13  1  0  0  0  0
 11 14  1  0  0  0  0
  9 10  1  0  0  0  0
  9 11  1  0  0  0  0
  9 29  1  0  0  0  0
  7  8  1  0  0  0  0
  7  9  1  0  0  0  0
 33 34  1  0  0  0  0
 33 35  1  0  0  0  0
 33 36  1  0  0  0  0
 31 32  1  0  0  0  0
 31 33  1  0  0  0  0
M  END
$$$$
default_name
  -OEChem-02102213163D

 36 37  0     1  0  0  0  0  0999 V2000
   -4.0843   -4.0736    1.2944 H   0  0  0  0  0  0  0  0  0  0  0  0
   -4.0342   -3.2816    0.5484 C   0  0  0  0  0  0  0  0  0  0  0  0
   -4.8842   -2.6126    0.6694 H   0  0  0  0  0  0  0  0  0  0  0  0
   -4.0433   -3.7186   -0.4486 H   0  0  0  0  0  0  0  0  0  0  0  0
   -2.7532   -2.5046    0.7444 C   0  0  0  0  0  0  0  0  0  0  0  0
   -1.9803   -2.8096    1.6434 O   0  0  0  0  0  0  0  0  0  0  0  0
   -2.5332   -1.4966   -0.0966 N   0  0  0  0  0  0  0  0  0  0  0  0
   -3.2312   -1.2816   -0.7936 H   0  0  0  0  0  0  0  0  0  0  0  0
   -1.3593   -0.6196   -0.0536 C   0  0  1  0  0  0  0  0  0  0  0  0
   -0.8788   -0.7266    0.9196 H   0  0  0  0  0  0  0  0  0  0  0  0
   -0.3559   -1.0533   -1.1339 C   0  0  0  0  0  0  0  0  0  0  0  0
   -0.6409   -2.0402   -1.5027 H   0  0  0  0  0  0  0  0  0  0  0  0
   -0.4234   -0.3559   -1.9706 H   0  0  0  0  0  0  0  0  0  0  0  0
    1.0727   -1.1209   -0.6859 C   0  0  0  0  0  0  0  0  0  0  0  0
    1.8509   -2.2262   -0.7029 C   0  0  0  0  0  0  0  0  0  0  0  0
    1.5226   -3.2072   -1.0285 H   0  0  0  0  0  0  0  0  0  0  0  0
    3.1209   -1.9065   -0.2643 N   0  0  0  0  0  0  0  0  0  0  0  0
    3.8703   -2.5789   -0.1900 H   0  0  0  0  0  0  0  0  0  0  0  0
    3.2295   -0.5670    0.0433 C   0  0  0  0  0  0  0  0  0  0  0  0
    4.2929    0.2303    0.4904 C   0  0  0  0  0  0  0  0  0  0  0  0
    5.2668   -0.2033    0.6641 H   0  0  0  0  0  0  0  0  0  0  0  0
    4.0731    1.6007    0.7110 C   0  0  0  0  0  0  0  0  0  0  0  0
    4.8812    2.2310    1.0569 H   0  0  0  0  0  0  0  0  0  0  0  0
    2.7977    2.1509    0.4875 C   0  0  0  0  0  0  0  0  0  0  0  0
    2.6309    3.2041    0.6665 H   0  0  0  0  0  0  0  0  0  0  0  0
    1.7357    1.3397    0.0400 C   0  0  0  0  0  0  0  0  0  0  0  0
    0.7575    1.7724   -0.1150 H   0  0  0  0  0  0  0  0  0  0  0  0
    1.9256   -0.0390   -0.1968 C   0  0  0  0  0  0  0  0  0  0  0  0
   -1.7617    0.8549   -0.2106 C   0  0  0  0  0  0  0  0  0  0  0  0
   -2.5726    1.1871   -1.0741 O   0  0  0  0  0  0  0  0  0  0  0  0
   -1.1941    1.7377    0.6223 N   0  0  0  0  0  0  0  0  0  0  0  0
   -0.4976    1.3916    1.2669 H   0  0  0  0  0  0  0  0  0  0  0  0
   -1.4666    3.1722    0.6095 C   0  0  0  0  0  0  0  0  0  0  0  0
   -2.5439    3.3427    0.6539 H   0  0  0  0  0  0  0  0  0  0  0  0
   -0.9893    3.6529    1.4644 H   0  0  0  0  0  0  0  0  0  0  0  0
   -1.0808    3.6095   -0.3129 H   0  0  0  0  0  0  0  0  0  0  0  0
  5  6  2  0  0  0  0
  5  7  1  0  0  0  0
  2  3  1  0  0  0  0
  2  4  1  0  0  0  0
  2  5  1  0  0  0  0
  1  2  1  0  0  0  0
 29 30  2  0  0  0  0
 29 31  1  0  0  0  0
 26 27  1  0  0  0  0
 26 28  2  0  0  0  0
 24 25  1  0  0  0  0
 24 26  1  0  0  0  0
 22 23  1  0  0  0  0
 22 24  2  0  0  0  0
 20 21  1  0  0  0  0
 20 22  1  0  0  0  0
 19 20  2  0  0  0  0
 19 28  1  0  0  0  0
 17 18  1  0  0  0  0
 17 19  1  0  0  0  0
 15 16  1  0  0  0  0
 15 17  1  0  0  0  0
 14 15  2  0  0  0  0
 14 28  1  0  0  0  0
 11 12  1  0  0  0  0
 11 13  1  0  0  0  0
 11 14  1  0  0  0  0
  9 10  1  0  0  0  0
  9 11  1  0  0  0  0
  9 29  1  0  0  0  0
  7  8  1  0  0  0  0
  7  9  1  0  0  0  0
 33 34  1  0  0  0  0
 33 35  1  0  0  0  0
 33 36  1  0  0  0  0
 31 32  1  0  0  0  0
 31 33  1  0  0  0  0
M  END
$$$$
default_name
  -OEChem-02102213163D

 36 37  0     1  0  0  0  0  0999 V2000
   -4.0843   -4.0736    1.2944 H   0  0  0  0  0  0  0  0  0  0  0  0
   -4.0342   -3.2816    0.5484 C   0  0  0  0  0  0  0  0  0  0  0  0
   -4.8842   -2.6126    0.6694 H   0  0  0  0  0  0  0  0  0  0  0  0
   -4.0433   -3.7186   -0.4486 H   0  0  0  0  0  0  0  0  0  0  0  0
   -2.7532   -2.5046    0.7444 C   0  0  0  0  0  0  0  0  0  0  0  0
   -1.9803   -2.8096    1.6434 O   0  0  0  0  0  0  0  0  0  0  0  0
   -2.5332   -1.4966   -0.0966 N   0  0  0  0  0  0  0  0  0  0  0  0
   -3.2312   -1.2816   -0.7936 H   0  0  0  0  0  0  0  0  0  0  0  0
   -1.3593   -0.6196   -0.0536 C   0  0  1  0  0  0  0  0  0  0  0  0
   -0.8788   -0.7266    0.9196 H   0  0  0  0  0  0  0  0  0  0  0  0
   -0.3559   -1.0533   -1.1339 C   0  0  0  0  0  0  0  0  0  0  0  0
   -0.6409   -2.0402   -1.5027 H   0  0  0  0  0  0  0  0  0  0  0  0
   -0.4234   -0.3559   -1.9706 H   0  0  0  0  0  0  0  0  0  0  0  0
    1.0727   -1.1209   -0.6859 C   0  0  0  0  0  0  0  0  0  0  0  0
    1.9356   -2.1254   -0.9579 C   0  0  0  0  0  0  0  0  0  0  0  0
    1.6864   -3.0174   -1.5220 H   0  0  0  0  0  0  0  0  0  0  0  0
    3.1756   -1.8286   -0.4271 N   0  0  0  0  0  0  0  0  0  0  0  0
    3.9755   -2.4396   -0.5047 H   0  0  0  0  0  0  0  0  0  0  0  0
    3.1777   -0.6024    0.2032 C   0  0  0  0  0  0  0  0  0  0  0  0
    4.1741    0.1380    0.8555 C   0  0  0  0  0  0  0  0  0  0  0  0
    5.1787   -0.2499    0.9378 H   0  0  0  0  0  0  0  0  0  0  0  0
    3.8465    1.3906    1.4020 C   0  0  0  0  0  0  0  0  0  0  0  0
    4.6017    1.9753    1.9097 H   0  0  0  0  0  0  0  0  0  0  0  0
    2.5321    1.8805    1.2937 C   0  0  0  0  0  0  0  0  0  0  0  0
    2.2824    2.8410    1.7229 H   0  0  0  0  0  0  0  0  0  0  0  0
    1.5382    1.1269    0.6375 C   0  0  0  0  0  0  0  0  0  0  0  0
    0.5293    1.5090    0.5731 H   0  0  0  0  0  0  0  0  0  0  0  0
    1.8367   -0.1320    0.0727 C   0  0  0  0  0  0  0  0  0  0  0  0
   -1.7617    0.8549   -0.2106 C   0  0  0  0  0  0  0  0  0  0  0  0
   -2.5726    1.1871   -1.0741 O   0  0  0  0  0  0  0  0  0  0  0  0
   -1.1941    1.7377    0.6223 N   0  0  0  0  0  0  0  0  0  0  0  0
   -0.4976    1.3916    1.2669 H   0  0  0  0  0  0  0  0  0  0  0  0
   -1.4666    3.1722    0.6095 C   0  0  0  0  0  0  0  0  0  0  0  0
   -2.5439    3.3427    0.6539 H   0  0  0  0  0  0  0  0  0  0  0  0
   -0.9893    3.6529    1.4644 H   0  0  0  0  0  0  0  0  0  0  0  0
   -1.0808    3.6095   -0.3129 H   0  0  0  0  0  0  0  0  0  0  0  0
  5  6  2  0  0  0  0
  5  7  1  0  0  0  0
  2  3  1  0  0  0  0
  2  4  1  0  0  0  0
  2  5  1  0  0  0  0
  1  2  1  0  0  0  0
 29 30  2  0  0  0  0
 29 31  1  0  0  0  0
 26 27  1  0  0  0  0
 26 28  2  0  0  0  0
 24 25  1  0  0  0  0
 24 26  1  0  0  0  0
 22 23  1  0  0  0  0
 22 24  2  0  0  0  0
 20 21  1  0  0  0  0
 20 22  1  0  0  0  0
 19 20  2  0  0  0  0
 19 28  1  0  0  0  0
 17 18  1  0  0  0  0
 17 19  1  0  0  0  0
 15 16  1  0  0  0  0
 15 17  1  0  0  0  0
 14 15  2  0  0  0  0
 14 28  1  0  0  0  0
 11 12  1  0  0  0  0
 11 13  1  0  0  0  0
 11 14  1  0  0  0  0
  9 10  1  0  0  0  0
  9 11  1  0  0  0  0
  9 29  1  0  0  0  0
  7  8  1  0  0  0  0
  7  9  1  0  0  0  0
 33 34  1  0  0  0  0
 33 35  1  0  0  0  0
 33 36  1  0  0  0  0
 31 32  1  0  0  0  0
 31 33  1  0  0  0  0
M  END
$$$$
default_name
  -OEChem-02102213163D

 36 37  0     1  0  0  0  0  0999 V2000
   -4.0843   -4.0736    1.2944 H   0  0  0  0  0  0  0  0  0  0  0  0
   -4.0342   -3.2816    0.5484 C   0  0  0  0  0  0  0  0  0  0  0  0
   -4.8842   -2.6126    0.6694 H   0  0  0  0  0  0  0  0  0  0  0  0
   -4.0433   -3.7186   -0.4486 H   0  0  0  0  0  0  0  0  0  0  0  0
   -2.7532   -2.5046    0.7444 C   0  0  0  0  0  0  0  0  0  0  0  0
   -1.9803   -2.8096    1.6434 O   0  0  0  0  0  0  0  0  0  0  0  0
   -2.5332   -1.4966   -0.0966 N   0  0  0  0  0  0  0  0  0  0  0  0
   -3.2312   -1.2816   -0.7936 H   0  0  0  0  0  0  0  0  0  0  0  0
   -1.3593   -0.6196   -0.0536 C   0  0  1  0  0  0  0  0  0  0  0  0
   -0.8788   -0.7266    0.9196 H   0  0  0  0  0  0  0  0  0  0  0  0
   -0.3559   -1.0533   -1.1339 C   0  0  0  0  0  0  0  0  0  0  0  0
   -0.6409   -2.0402   -1.5027 H   0  0  0  0  0  0  0  0  0  0  0  0
   -0.4234   -0.3559   -1.9706 H   0  0  0  0  0  0  0  0  0  0  0  0
    1.0727   -1.1209   -0.6859 C   0  0  0  0  0  0  0  0  0  0  0  0
    2.0127   -1.9585   -1.1784 C   0  0  0  0  0  0  0  0  0  0  0  0
    1.8356   -2.6997   -1.9500 H   0  0  0  0  0  0  0  0  0  0  0  0
    3.2244   -1.7089   -0.5644 N   0  0  0  0  0  0  0  0  0  0  0  0
    4.0701   -2.2193   -0.7730 H   0  0  0  0  0  0  0  0  0  0  0  0
    3.1285   -0.6800    0.3482 C   0  0  0  0  0  0  0  0  0  0  0  0
    4.0622   -0.0504    1.1839 C   0  0  0  0  0  0  0  0  0  0  0  0
    5.0941   -0.3692    1.1897 H   0  0  0  0  0  0  0  0  0  0  0  0
    3.6358    0.9996    2.0150 C   0  0  0  0  0  0  0  0  0  0  0  0
    4.3416    1.4963    2.6670 H   0  0  0  0  0  0  0  0  0  0  0  0
    2.2871    1.3999    2.0025 C   0  0  0  0  0  0  0  0  0  0  0  0
    1.9617    2.2027    2.6496 H   0  0  0  0  0  0  0  0  0  0  0  0
    1.3570    0.7587    1.1599 C   0  0  0  0  0  0  0  0  0  0  0  0
    0.3213    1.0672    1.1700 H   0  0  0  0  0  0  0  0  0  0  0  0
    1.7549   -0.2951    0.3090 C   0  0  0  0  0  0  0  0  0  0  0  0
   -1.7617    0.8549   -0.2106 C   0  0  0  0  0  0  0  0  0  0  0  0
   -2.5726    1.1871   -1.0741 O   0  0  0  0  0  0  0  0  0  0  0  0
   -1.1941    1.7377    0.6223 N   0  0  0  0  0  0  0  0  0  0  0  0
   -0.4976    1.3916    1.2669 H   0  0  0  0  0  0  0  0  0  0  0  0
   -1.4666    3.1722    0.6095 C   0  0  0  0  0  0  0  0  0  0  0  0
   -2.5439    3.3427    0.6539 H   0  0  0  0  0  0  0  0  0  0  0  0
   -0.9893    3.6529    1.4644 H   0  0  0  0  0  0  0  0  0  0  0  0
   -1.0808    3.6095   -0.3129 H   0  0  0  0  0  0  0  0  0  0  0  0
  5  6  2  0  0  0  0
  5  7  1  0  0  0  0
  2  3  1  0  0  0  0
  2  4  1  0  0  0  0
  2  5  1  0  0  0  0
  1  2  1  0  0  0  0
 29 30  2  0  0  0  0
 29 31  1  0  0  0  0
 26 27  1  0  0  0  0
 26 28  2  0  0  0  0
 24 25  1  0  0  0  0
 24 26  1  0  0  0  0
 22 23  1  0  0  0  0
 22 24  2  0  0  0  0
 20 21  1  0  0  0  0
 20 22  1  0  0  0  0
 19 20  2  0  0  0  0
 19 28  1  0  0  0  0
 17 18  1  0  0  0  0
 17 19  1  0  0  0  0
 15 16  1  0  0  0  0
 15 17  1  0  0  0  0
 14 15  2  0  0  0  0
 14 28  1  0  0  0  0
 11 12  1  0  0  0  0
 11 13  1  0  0  0  0
 11 14  1  0  0  0  0
  9 10  1  0  0  0  0
  9 11  1  0  0  0  0
  9 29  1  0  0  0  0
  7  8  1  0  0  0  0
  7  9  1  0  0  0  0
 33 34  1  0  0  0  0
 33 35  1  0  0  0  0
 33 36  1  0  0  0  0
 31 32  1  0  0  0  0
 31 33  1  0  0  0  0
M  END
$$$$
default_name
  -OEChem-02102213163D

 36 37  0     1  0  0  0  0  0999 V2000
   -4.0843   -4.0736    1.2944 H   0  0  0  0  0  0  0  0  0  0  0  0
   -4.0342   -3.2816    0.5484 C   0  0  0  0  0  0  0  0  0  0  0  0
   -4.8842   -2.6126    0.6694 H   0  0  0  0  0  0  0  0  0  0  0  0
   -4.0433   -3.7186   -0.4486 H   0  0  0  0  0  0  0  0  0  0  0  0
   -2.7532   -2.5046    0.7444 C   0  0  0  0  0  0  0  0  0  0  0  0
   -1.9803   -2.8096    1.6434 O   0  0  0  0  0  0  0  0  0  0  0  0
   -2.5332   -1.4966   -0.0966 N   0  0  0  0  0  0  0  0  0  0  0  0
   -3.2312   -1.2816   -0.7936 H   0  0  0  0  0  0  0  0  0  0  0  0
   -1.3593   -0.6196   -0.0536 C   0  0  1  0  0  0  0  0  0  0  0  0
   -0.8788   -0.7266    0.9196 H   0  0  0  0  0  0  0  0  0  0  0  0
   -0.3559   -1.0533   -1.1339 C   0  0  0  0  0  0  0  0  0  0  0  0
   -0.6409   -2.0402   -1.5027 H   0  0  0  0  0  0  0  0  0  0  0  0
   -0.4234   -0.3559   -1.9706 H   0  0  0  0  0  0  0  0  0  0  0  0
    1.0727   -1.1209   -0.6859 C   0  0  0  0  0  0  0  0  0  0  0  0
    2.0767   -1.7369   -1.3493 C   0  0  0  0  0  0  0  0  0  0  0  0
    1.9601   -2.2757   -2.2833 H   0  0  0  0  0  0  0  0  0  0  0  0
    3.2638   -1.5556   -0.6670 N   0  0  0  0  0  0  0  0  0  0  0  0
    4.1475   -1.9329   -0.9767 H   0  0  0  0  0  0  0  0  0  0  0  0
    3.0854   -0.7946    0.4687 C   0  0  0  0  0  0  0  0  0  0  0  0
    3.9648   -0.3221    1.4534 C   0  0  0  0  0  0  0  0  0  0  0  0
    5.0187   -0.5532    1.4025 H   0  0  0  0  0  0  0  0  0  0  0  0
    3.4554    0.4545    2.5081 C   0  0  0  0  0  0  0  0  0  0  0  0
    4.1185    0.8266    3.2773 H   0  0  0  0  0  0  0  0  0  0  0  0
    2.0794    0.7419    2.5658 C   0  0  0  0  0  0  0  0  0  0  0  0
    1.6904    1.3327    3.3835 H   0  0  0  0  0  0  0  0  0  0  0  0
    1.2043    0.2601    1.5716 C   0  0  0  0  0  0  0  0  0  0  0  0
    0.1475    0.4770    1.6351 H   0  0  0  0  0  0  0  0  0  0  0  0
    1.6858   -0.5173    0.4960 C   0  0  0  0  0  0  0  0  0  0  0  0
   -1.7617    0.8549   -0.2106 C   0  0  0  0  0  0  0  0  0  0  0  0
   -2.5726    1.1871   -1.0741 O   0  0  0  0  0  0  0  0  0  0  0  0
   -1.1941    1.7377    0.6223 N   0  0  0  0  0  0  0  0  0  0  0  0
   -0.4976    1.3916    1.2669 H   0  0  0  0  0  0  0  0  0  0  0  0
   -1.4666    3.1722    0.6095 C   0  0  0  0  0  0  0  0  0  0  0  0
   -2.5439    3.3427    0.6539 H   0  0  0  0  0  0  0  0  0  0  0  0
   -0.9893    3.6529    1.4644 H   0  0  0  0  0  0  0  0  0  0  0  0
   -1.0808    3.6095   -0.3129 H   0  0  0  0  0  0  0  0  0  0  0  0
  5  6  2  0  0  0  0
  5  7  1  0  0  0  0
  2  3  1  0  0  0  0
  2  4  1  0  0  0  0
  2  5  1  0  0  0  0
  1  2  1  0  0  0  0
 29 30  2  0  0  0  0
 29 31  1  0  0  0  0
 26 27  1  0  0  0  0
 26 28  2  0  0  0  0
 24 25  1  0  0  0  0
 24 26  1  0  0  0  0
 22 23  1  0  0  0  0
 22 24  2  0  0  0  0
 20 21  1  0  0  0  0
 20 22  1  0  0  0  0
 19 20  2  0  0  0  0
 19 28  1  0  0  0  0
 17 18  1  0  0  0  0
 17 19  1  0  0  0  0
 15 16  1  0  0  0  0
 15 17  1  0  0  0  0
 14 15  2  0  0  0  0
 14 28  1  0  0  0  0
 11 12  1  0  0  0  0
 11 13  1  0  0  0  0
 11 14  1  0  0  0  0
  9 10  1  0  0  0  0
  9 11  1  0  0  0  0
  9 29  1  0  0  0  0
  7  8  1  0  0  0  0
  7  9  1  0  0  0  0
 33 34  1  0  0  0  0
 33 35  1  0  0  0  0
 33 36  1  0  0  0  0
 31 32  1  0  0  0  0
 31 33  1  0  0  0  0
M  END
$$$$
default_name
  -OEChem-02102213163D

 36 37  0     1  0  0  0  0  0999 V2000
   -4.0843   -4.0736    1.2944 H   0  0  0  0  0  0  0  0  0  0  0  0
   -4.0342   -3.2816    0.5484 C   0  0  0  0  0  0  0  0  0  0  0  0
   -4.8842   -2.6126    0.6694 H   0  0  0  0  0  0  0  0  0  0  0  0
   -4.0433   -3.7186   -0.4486 H   0  0  0  0  0  0  0  0  0  0  0  0
   -2.7532   -2.5046    0.7444 C   0  0  0  0  0  0  0  0  0  0  0  0
   -1.9803   -2.8096    1.6434 O   0  0  0  0  0  0  0  0  0  0  0  0
   -2.5332   -1.4966   -0.0966 N   0  0  0  0  0  0  0  0  0  0  0  0
   -3.2312   -1.2816   -0.7936 H   0  0  0  0  0  0  0  0  0  0  0  0
   -1.3593   -0.6196   -0.0536 C   0  0  1  0  0  0  0  0  0  0  0  0
   -0.8788   -0.7266    0.9196 H   0  0  0  0  0  0  0  0  0  0  0  0
   -0.3559   -1.0533   -1.1339 C   0  0  0  0  0  0  0  0  0  0  0  0
   -0.7760   -1.8958   -1.6862 H   0  0  0  0  0  0  0  0  0  0  0  0
   -0.2254   -0.2293   -1.8375 H   0  0  0  0  0  0  0  0  0  0  0  0
    0.9932   -1.4603   -0.6235 C   0  0  0  0  0  0  0  0  0  0  0  0
    2.0296   -1.8765   -1.3853 C   0  0  0  0  0  0  0  0  0  0  0  0
    1.9989   -1.9833   -2.4641 H   0  0  0  0  0  0  0  0  0  0  0  0
    3.1267   -2.1213   -0.5828 N   0  0  0  0  0  0  0  0  0  0  0  0
    4.0145   -2.4460   -0.9369 H   0  0  0  0  0  0  0  0  0  0  0  0
    2.8548   -1.8573    0.7428 C   0  0  0  0  0  0  0  0  0  0  0  0
    3.6286   -1.9207    1.9106 C   0  0  0  0  0  0  0  0  0  0  0  0
    4.6610   -2.2348    1.8668 H   0  0  0  0  0  0  0  0  0  0  0  0
    3.0412   -1.5715    3.1387 C   0  0  0  0  0  0  0  0  0  0  0  0
    3.6222   -1.6154    4.0499 H   0  0  0  0  0  0  0  0  0  0  0  0
    1.6932   -1.1709    3.1821 C   0  0  0  0  0  0  0  0  0  0  0  0
    1.2430   -0.9112    4.1302 H   0  0  0  0  0  0  0  0  0  0  0  0
    0.9245   -1.1128    2.0023 C   0  0  0  0  0  0  0  0  0  0  0  0
   -0.1136   -0.8162    2.0517 H   0  0  0  0  0  0  0  0  0  0  0  0
    1.4868   -1.4511    0.7524 C   0  0  0  0  0  0  0  0  0  0  0  0
   -1.7617    0.8549   -0.2106 C   0  0  0  0  0  0  0  0  0  0  0  0
   -2.5726    1.1871   -1.0741 O   0  0  0  0  0  0  0  0  0  0  0  0
   -1.1941    1.7377    0.6223 N   0  0  0  0  0  0  0  0  0  0  0  0
   -0.4976    1.3916    1.2669 H   0  0  0  0  0  0  0  0  0  0  0  0
   -1.4666    3.1722    0.6095 C   0  0  0  0  0  0  0  0  0  0  0  0
   -2.5439    3.3427    0.6539 H   0  0  0  0  0  0  0  0  0  0  0  0
   -0.9893    3.6529    1.4644 H   0  0  0  0  0  0  0  0  0  0  0  0
   -1.0808    3.6095   -0.3129 H   0  0  0  0  0  0  0  0  0  0  0  0
  5  6  2  0  0  0  0
  5  7  1  0  0  0  0
  2  3  1  0  0  0  0
  2  4  1  0  0  0  0
  2  5  1  0  0  0  0
  1  2  1  0  0  0  0
 29 30  2  0  0  0  0
 29 31  1  0  0  0  0
 26 27  1  0  0  0  0
 26 28  2  0  0  0  0
 24 25  1  0  0  0  0
 24 26  1  0  0  0  0
 22 23  1  0  0  0  0
 22 24  2  0  0  0  0
 20 21  1  0  0  0  0
 20 22  1  0  0  0  0
 19 20  2  0  0  0  0
 19 28  1  0  0  0  0
 17 18  1  0  0  0  0
 17 19  1  0  0  0  0
 15 16  1  0  0  0  0
 15 17  1  0  0  0  0
 14 15  2  0  0  0  0
 14 28  1  0  0  0  0
 11 12  1  0  0  0  0
 11 13  1  0  0  0  0
 11 14  1  0  0  0  0
  9 10  1  0  0  0  0
  9 11  1  0  0  0  0
  9 29  1  0  0  0  0
  7  8  1  0  0  0  0
  7  9  1  0  0  0  0
 33 34  1  0  0  0  0
 33 35  1  0  0  0  0
 33 36  1  0  0  0  0
 31 32  1  0  0  0  0
 31 33  1  0  0  0  0
M  END
$$$$
default_name
  -OEChem-02102213163D

 36 37  0     1  0  0  0  0  0999 V2000
   -4.0843   -4.0736    1.2944 H   0  0  0  0  0  0  0  0  0  0  0  0
   -4.0342   -3.2816    0.5484 C   0  0  0  0  0  0  0  0  0  0  0  0
   -4.8842   -2.6126    0.6694 H   0  0  0  0  0  0  0  0  0  0  0  0
   -4.0433   -3.7186   -0.4486 H   0  0  0  0  0  0  0  0  0  0  0  0
   -2.7532   -2.5046    0.7444 C   0  0  0  0  0  0  0  0  0  0  0  0
   -1.9803   -2.8096    1.6434 O   0  0  0  0  0  0  0  0  0  0  0  0
   -2.5332   -1.4966   -0.0966 N   0  0  0  0  0  0  0  0  0  0  0  0
   -3.2312   -1.2816   -0.7936 H   0  0  0  0  0  0  0  0  0  0  0  0
   -1.3593   -0.6196   -0.0536 C   0  0  1  0  0  0  0  0  0  0  0  0
   -0.8788   -0.7266    0.9196 H   0  0  0  0  0  0  0  0  0  0  0  0
   -0.3559   -1.0533   -1.1339 C   0  0  0  0  0  0  0  0  0  0  0  0
   -0.7760   -1.8958   -1.6862 H   0  0  0  0  0  0  0  0  0  0  0  0
   -0.2254   -0.2293   -1.8375 H   0  0  0  0  0  0  0  0  0  0  0  0
    0.9932   -1.4603   -0.6235 C   0  0  0  0  0  0  0  0  0  0  0  0
    2.1086   -1.6007   -1.3743 C   0  0  0  0  0  0  0  0  0  0  0  0
    2.1530   -1.4519   -2.4476 H   0  0  0  0  0  0  0  0  0  0  0  0
    3.1742   -1.9398   -0.5637 N   0  0  0  0  0  0  0  0  0  0  0  0
    4.1088   -2.0998   -0.9101 H   0  0  0  0  0  0  0  0  0  0  0  0
    2.7993   -2.0188    0.7607 C   0  0  0  0  0  0  0  0  0  0  0  0
    3.5043   -2.2942    1.9412 C   0  0  0  0  0  0  0  0  0  0  0  0
    4.5630   -2.5057    1.9099 H   0  0  0  0  0  0  0  0  0  0  0  0
    2.8136   -2.2930    3.1651 C   0  0  0  0  0  0  0  0  0  0  0  0
    3.3406   -2.5042    4.0857 H   0  0  0  0  0  0  0  0  0  0  0  0
    1.4331   -2.0228    3.1905 C   0  0  0  0  0  0  0  0  0  0  0  0
    0.9039   -2.0311    4.1334 H   0  0  0  0  0  0  0  0  0  0  0  0
    0.7343   -1.7493    1.9976 C   0  0  0  0  0  0  0  0  0  0  0  0
   -0.3287   -1.5566    2.0298 H   0  0  0  0  0  0  0  0  0  0  0  0
    1.4004   -1.7369    0.7530 C   0  0  0  0  0  0  0  0  0  0  0  0
   -1.7617    0.8549   -0.2106 C   0  0  0  0  0  0  0  0  0  0  0  0
   -2.5726    1.1871   -1.0741 O   0  0  0  0  0  0  0  0  0  0  0  0
   -1.1941    1.7377    0.6223 N   0  0  0  0  0  0  0  0  0  0  0  0
   -0.4976    1.3916    1.2669 H   0  0  0  0  0  0  0  0  0  0  0  0
   -1.4666    3.1722    0.6095 C   0  0  0  0  0  0  0  0  0  0  0  0
   -2.5439    3.3427    0.6539 H   0  0  0  0  0  0  0  0  0  0  0  0
   -0.9893    3.6529    1.4644 H   0  0  0  0  0  0  0  0  0  0  0  0
   -1.0808    3.6095   -0.3129 H   0  0  0  0  0  0  0  0  0  0  0  0
  5  6  2  0  0  0  0
  5  7  1  0  0  0  0
  2  3  1  0  0  0  0
  2  4  1  0  0  0  0
  2  5  1  0  0  0  0
  1  2  1  0  0  0  0
 29 30  2  0  0  0  0
 29 31  1  0  0  0  0
 26 27  1  0  0  0  0
 26 28  2  0  0  0  0
 24 25  1  0  0  0  0
 24 26  1  0  0  0  0
 22 23  1  0  0  0  0
 22 24  2  0  0  0  0
 20 21  1  0  0  0  0
 20 22  1  0  0  0  0
 19 20  2  0  0  0  0
 19 28  1  0  0  0  0
 17 18  1  0  0  0  0
 17 19  1  0  0  0  0
 15 16  1  0  0  0  0
 15 17  1  0  0  0  0
 14 15  2  0  0  0  0
 14 28  1  0  0  0  0
 11 12  1  0  0  0  0
 11 13  1  0  0  0  0
 11 14  1  0  0  0  0
  9 10  1  0  0  0  0
  9 11  1  0  0  0  0
  9 29  1  0  0  0  0
  7  8  1  0  0  0  0
  7  9  1  0  0  0  0
 33 34  1  0  0  0  0
 33 35  1  0  0  0  0
 33 36  1  0  0  0  0
 31 32  1  0  0  0  0
 31 33  1  0  0  0  0
M  END
$$$$
default_name
  -OEChem-02102213163D

 36 37  0     1  0  0  0  0  0999 V2000
   -4.0843   -4.0736    1.2944 H   0  0  0  0  0  0  0  0  0  0  0  0
   -4.0342   -3.2816    0.5484 C   0  0  0  0  0  0  0  0  0  0  0  0
   -4.8842   -2.6126    0.6694 H   0  0  0  0  0  0  0  0  0  0  0  0
   -4.0433   -3.7186   -0.4486 H   0  0  0  0  0  0  0  0  0  0  0  0
   -2.7532   -2.5046    0.7444 C   0  0  0  0  0  0  0  0  0  0  0  0
   -1.9803   -2.8096    1.6434 O   0  0  0  0  0  0  0  0  0  0  0  0
   -2.5332   -1.4966   -0.0966 N   0  0  0  0  0  0  0  0  0  0  0  0
   -3.2312   -1.2816   -0.7936 H   0  0  0  0  0  0  0  0  0  0  0  0
   -1.3593   -0.6196   -0.0536 C   0  0  1  0  0  0  0  0  0  0  0  0
   -0.8788   -0.7266    0.9196 H   0  0  0  0  0  0  0  0  0  0  0  0
   -0.3559   -1.0533   -1.1339 C   0  0  0  0  0  0  0  0  0  0  0  0
   -0.7760   -1.8958   -1.6862 H   0  0  0  0  0  0  0  0  0  0  0  0
   -0.2254   -0.2293   -1.8375 H   0  0  0  0  0  0  0  0  0  0  0  0
    0.9932   -1.4603   -0.6235 C   0  0  0  0  0  0  0  0  0  0  0  0
    2.1599   -1.3300   -1.2939 C   0  0  0  0  0  0  0  0  0  0  0  0
    2.2538   -0.9289   -2.2971 H   0  0  0  0  0  0  0  0  0  0  0  0
    3.2028   -1.7647   -0.4996 N   0  0  0  0  0  0  0  0  0  0  0  0
    4.1675   -1.7633   -0.7970 H   0  0  0  0  0  0  0  0  0  0  0  0
    2.7587   -2.1839    0.7365 C   0  0  0  0  0  0  0  0  0  0  0  0
    3.4151   -2.6731    1.8750 C   0  0  0  0  0  0  0  0  0  0  0  0
    4.4892   -2.7860    1.8815 H   0  0  0  0  0  0  0  0  0  0  0  0
    2.6554   -3.0160    3.0065 C   0  0  0  0  0  0  0  0  0  0  0  0
    3.1443   -3.3959    3.8934 H   0  0  0  0  0  0  0  0  0  0  0  0
    1.2563   -2.8706    2.9819 C   0  0  0  0  0  0  0  0  0  0  0  0
    0.6749   -3.1435    3.8517 H   0  0  0  0  0  0  0  0  0  0  0  0
    0.6070   -2.3798    1.8313 C   0  0  0  0  0  0  0  0  0  0  0  0
   -0.4696   -2.2855    1.8210 H   0  0  0  0  0  0  0  0  0  0  0  0
    1.3421   -2.0207    0.6808 C   0  0  0  0  0  0  0  0  0  0  0  0
   -1.7617    0.8549   -0.2106 C   0  0  0  0  0  0  0  0  0  0  0  0
   -2.5726    1.1871   -1.0741 O   0  0  0  0  0  0  0  0  0  0  0  0
   -1.1941    1.7377    0.6223 N   0  0  0  0  0  0  0  0  0  0  0  0
   -0.4976    1.3916    1.2669 H   0  0  0  0  0  0  0  0  0  0  0  0
   -1.4666    3.1722    0.6095 C   0  0  0  0  0  0  0  0  0  0  0  0
   -2.5439    3.3427    0.6539 H   0  0  0  0  0  0  0  0  0  0  0  0
   -0.9893    3.6529    1.4644 H   0  0  0  0  0  0  0  0  0  0  0  0
   -1.0808    3.6095   -0.3129 H   0  0  0  0  0  0  0  0  0  0  0  0
  5  6  2  0  0  0  0
  5  7  1  0  0  0  0
  2  3  1  0  0  0  0
  2  4  1  0  0  0  0
  2  5  1  0  0  0  0
  1  2  1  0  0  0  0
 29 30  2  0  0  0  0
 29 31  1  0  0  0  0
 26 27  1  0  0  0  0
 26 28  2  0  0  0  0
 24 25  1  0  0  0  0
 24 26  1  0  0  0  0
 22 23  1  0  0  0  0
 22 24  2  0  0  0  0
 20 21  1  0  0  0  0
 20 22  1  0  0  0  0
 19 20  2  0  0  0  0
 19 28  1  0  0  0  0
 17 18  1  0  0  0  0
 17 19  1  0  0  0  0
 15 16  1  0  0  0  0
 15 17  1  0  0  0  0
 14 15  2  0  0  0  0
 14 28  1  0  0  0  0
 11 12  1  0  0  0  0
 11 13  1  0  0  0  0
 11 14  1  0  0  0  0
  9 10  1  0  0  0  0
  9 11  1  0  0  0  0
  9 29  1  0  0  0  0
  7  8  1  0  0  0  0
  7  9  1  0  0  0  0
 33 34  1  0  0  0  0
 33 35  1  0  0  0  0
 33 36  1  0  0  0  0
 31 32  1  0  0  0  0
 31 33  1  0  0  0  0
M  END
$$$$
default_name
  -OEChem-02102213163D

 36 37  0     1  0  0  0  0  0999 V2000
   -4.0843   -4.0736    1.2944 H   0  0  0  0  0  0  0  0  0  0  0  0
   -4.0342   -3.2816    0.5484 C   0  0  0  0  0  0  0  0  0  0  0  0
   -4.8842   -2.6126    0.6694 H   0  0  0  0  0  0  0  0  0  0  0  0
   -4.0433   -3.7186   -0.4486 H   0  0  0  0  0  0  0  0  0  0  0  0
   -2.7532   -2.5046    0.7444 C   0  0  0  0  0  0  0  0  0  0  0  0
   -1.9803   -2.8096    1.6434 O   0  0  0  0  0  0  0  0  0  0  0  0
   -2.5332   -1.4966   -0.0966 N   0  0  0  0  0  0  0  0  0  0  0  0
   -3.2312   -1.2816   -0.7936 H   0  0  0  0  0  0  0  0  0  0  0  0
   -1.3593   -0.6196   -0.0536 C   0  0  1  0  0  0  0  0  0  0  0  0
   -0.8788   -0.7266    0.9196 H   0  0  0  0  0  0  0  0  0  0  0  0
   -0.3559   -1.0533   -1.1339 C   0  0  0  0  0  0  0  0  0  0  0  0
   -0.7760   -1.8958   -1.6862 H   0  0  0  0  0  0  0  0  0  0  0  0
   -0.2254   -0.2293   -1.8375 H   0  0  0  0  0  0  0  0  0  0  0  0
    0.9932   -1.4603   -0.6235 C   0  0  0  0  0  0  0  0  0  0  0  0
    2.1799   -1.0827   -1.1496 C   0  0  0  0  0  0  0  0  0  0  0  0
    2.2945   -0.4498   -2.0228 H   0  0  0  0  0  0  0  0  0  0  0  0
    3.2104   -1.6080   -0.3949 N   0  0  0  0  0  0  0  0  0  0  0  0
    4.1866   -1.4594   -0.6051 H   0  0  0  0  0  0  0  0  0  0  0  0
    2.7357   -2.3413    0.6717 C   0  0  0  0  0  0  0  0  0  0  0  0
    3.3669   -3.0315    1.7165 C   0  0  0  0  0  0  0  0  0  0  0  0
    4.4446   -3.0567    1.7836 H   0  0  0  0  0  0  0  0  0  0  0  0
    2.5775   -3.6914    2.6738 C   0  0  0  0  0  0  0  0  0  0  0  0
    3.0468   -4.2297    3.4862 H   0  0  0  0  0  0  0  0  0  0  0  0
    1.1749   -3.6564    2.5704 C   0  0  0  0  0  0  0  0  0  0  0  0
    0.5716   -4.1725    3.3044 H   0  0  0  0  0  0  0  0  0  0  0  0
    0.5513   -2.9612    1.5148 C   0  0  0  0  0  0  0  0  0  0  0  0
   -0.5268   -2.9535    1.4396 H   0  0  0  0  0  0  0  0  0  0  0  0
    1.3159   -2.2832    0.5409 C   0  0  0  0  0  0  0  0  0  0  0  0
   -1.7617    0.8549   -0.2106 C   0  0  0  0  0  0  0  0  0  0  0  0
   -2.5726    1.1871   -1.0741 O   0  0  0  0  0  0  0  0  0  0  0  0
   -1.1941    1.7377    0.6223 N   0  0  0  0  0  0  0  0  0  0  0  0
   -0.4976    1.3916    1.2669 H   0  0  0  0  0  0  0  0  0  0  0  0
   -1.4666    3.1722    0.6095 C   0  0  0  0  0  0  0  0  0  0  0  0
   -2.5439    3.3427    0.6539 H   0  0  0  0  0  0  0  0  0  0  0  0
   -0.9893    3.6529    1.4644 H   0  0  0  0  0  0  0  0  0  0  0  0
   -1.0808    3.6095   -0.3129 H   0  0  0  0  0  0  0  0  0  0  0  0
  5  6  2  0  0  0  0
  5  7  1  0  0  0  0
  2  3  1  0  0  0  0
  2  4  1  0  0  0  0
  2  5  1  0  0  0  0
  1  2  1  0  0  0  0
 29 30  2  0  0  0  0
 29 31  1  0  0  0  0
 26 27  1  0  0  0  0
 26 28  2  0  0  0  0
 24 25  1  0  0  0  0
 24 26  1  0  0  0  0
 22 23  1  0  0  0  0
 22 24  2  0  0  0  0
 20 21  1  0  0  0  0
 20 22  1  0  0  0  0
 19 20  2  0  0  0  0
 19 28  1  0  0  0  0
 17 18  1  0  0  0  0
 17 19  1  0  0  0  0
 15 16  1  0  0  0  0
 15 17  1  0  0  0  0
 14 15  2  0  0  0  0
 14 28  1  0  0  0  0
 11 12  1  0  0  0  0
 11 13  1  0  0  0  0
 11 14  1  0  0  0  0
  9 10  1  0  0  0  0
  9 11  1  0  0  0  0
  9 29  1  0  0  0  0
  7  8  1  0  0  0  0
  7  9  1  0  0  0  0
 33 34  1  0  0  0  0
 33 35  1  0  0  0  0
 33 36  1  0  0  0  0
 31 32  1  0  0  0  0
 31 33  1  0  0  0  0
M  END
$$$$
default_name
  -OEChem-02102213163D

 36 37  0     1  0  0  0  0  0999 V2000
   -4.0843   -4.0736    1.2944 H   0  0  0  0  0  0  0  0  0  0  0  0
   -4.0342   -3.2816    0.5484 C   0  0  0  0  0  0  0  0  0  0  0  0
   -4.8842   -2.6126    0.6694 H   0  0  0  0  0  0  0  0  0  0  0  0
   -4.0433   -3.7186   -0.4486 H   0  0  0  0  0  0  0  0  0  0  0  0
   -2.7532   -2.5046    0.7444 C   0  0  0  0  0  0  0  0  0  0  0  0
   -1.9803   -2.8096    1.6434 O   0  0  0  0  0  0  0  0  0  0  0  0
   -2.5332   -1.4966   -0.0966 N   0  0  0  0  0  0  0  0  0  0  0  0
   -3.2312   -1.2816   -0.7936 H   0  0  0  0  0  0  0  0  0  0  0  0
   -1.3593   -0.6196   -0.0536 C   0  0  1  0  0  0  0  0  0  0  0  0
   -0.8788   -0.7266    0.9196 H   0  0  0  0  0  0  0  0  0  0  0  0
   -0.3559   -1.0533   -1.1339 C   0  0  0  0  0  0  0  0  0  0  0  0
   -0.7760   -1.8958   -1.6862 H   0  0  0  0  0  0  0  0  0  0  0  0
   -0.2254   -0.2293   -1.8375 H   0  0  0  0  0  0  0  0  0  0  0  0
    0.9932   -1.4603   -0.6235 C   0  0  0  0  0  0  0  0  0  0  0  0
    2.1673   -0.8757   -0.9512 C   0  0  0  0  0  0  0  0  0  0  0  0
    2.2724   -0.0474   -1.6434 H   0  0  0  0  0  0  0  0  0  0  0  0
    3.1967   -1.4804   -0.2568 N   0  0  0  0  0  0  0  0  0  0  0  0
    4.1648   -1.2089   -0.3477 H   0  0  0  0  0  0  0  0  0  0  0  0
    2.7320   -2.4803    0.5709 C   0  0  0  0  0  0  0  0  0  0  0  0
    3.3631   -3.3450    1.4765 C   0  0  0  0  0  0  0  0  0  0  0  0
    4.4323   -3.2992    1.6228 H   0  0  0  0  0  0  0  0  0  0  0  0
    2.5852   -4.2732    2.1896 C   0  0  0  0  0  0  0  0  0  0  0  0
    3.0548   -4.9489    2.8916 H   0  0  0  0  0  0  0  0  0  0  0  0
    1.1944   -4.3268    1.9841 C   0  0  0  0  0  0  0  0  0  0  0  0
    0.6009   -5.0480    2.5287 H   0  0  0  0  0  0  0  0  0  0  0  0
    0.5710   -3.4540    1.0698 C   0  0  0  0  0  0  0  0  0  0  0  0
   -0.4964   -3.5148    0.9116 H   0  0  0  0  0  0  0  0  0  0  0  0
    1.3235   -2.5064    0.3427 C   0  0  0  0  0  0  0  0  0  0  0  0
   -1.7617    0.8549   -0.2106 C   0  0  0  0  0  0  0  0  0  0  0  0
   -2.5726    1.1871   -1.0741 O   0  0  0  0  0  0  0  0  0  0  0  0
   -1.1941    1.7377    0.6223 N   0  0  0  0  0  0  0  0  0  0  0  0
   -0.4976    1.3916    1.2669 H   0  0  0  0  0  0  0  0  0  0  0  0
   -1.4666    3.1722    0.6095 C   0  0  0  0  0  0  0  0  0  0  0  0
   -2.5439    3.3427    0.6539 H   0  0  0  0  0  0  0  0  0  0  0  0
   -0.9893    3.6529    1.4644 H   0  0  0  0  0  0  0  0  0  0  0  0
   -1.0808    3.6095   -0.3129 H   0  0  0  0  0  0  0  0  0  0  0  0
  5  6  2  0  0  0  0
  5  7  1  0  0  0  0
  2  3  1  0  0  0  0
  2  4  1  0  0  0  0
  2  5  1  0  0  0  0
  1  2  1  0  0  0  0
 29 30  2  0  0  0  0
 29 31  1  0  0  0  0
 26 27  1  0  0  0  0
 26 28  2  0  0  0  0
 24 25  1  0  0  0  0
 24 26  1  0  0  0  0
 22 23  1  0  0  0  0
 22 24  2  0  0  0  0
 20 21  1  0  0  0  0
 20 22  1  0  0  0  0
 19 20  2  0  0  0  0
 19 28  1  0  0  0  0
 17 18  1  0  0  0  0
 17 19  1  0  0  0  0
 15 16  1  0  0  0  0
 15 17  1  0  0  0  0
 14 15  2  0  0  0  0
 14 28  1  0  0  0  0
 11 12  1  0  0  0  0
 11 13  1  0  0  0  0
 11 14  1  0  0  0  0
  9 10  1  0  0  0  0
  9 11  1  0  0  0  0
  9 29  1  0  0  0  0
  7  8  1  0  0  0  0
  7  9  1  0  0  0  0
 33 34  1  0  0  0  0
 33 35  1  0  0  0  0
 33 36  1  0  0  0  0
 31 32  1  0  0  0  0
 31 33  1  0  0  0  0
M  END
$$$$
default_name
  -OEChem-02102213163D

 36 37  0     1  0  0  0  0  0999 V2000
   -4.0843   -4.0736    1.2944 H   0  0  0  0  0  0  0  0  0  0  0  0
   -4.0342   -3.2816    0.5484 C   0  0  0  0  0  0  0  0  0  0  0  0
   -4.8842   -2.6126    0.6694 H   0  0  0  0  0  0  0  0  0  0  0  0
   -4.0433   -3.7186   -0.4486 H   0  0  0  0  0  0  0  0  0  0  0  0
   -2.7532   -2.5046    0.7444 C   0  0  0  0  0  0  0  0  0  0  0  0
   -1.9803   -2.8096    1.6434 O   0  0  0  0  0  0  0  0  0  0  0  0
   -2.5332   -1.4966   -0.0966 N   0  0  0  0  0  0  0  0  0  0  0  0
   -3.2312   -1.2816   -0.7936 H   0  0  0  0  0  0  0  0  0  0  0  0
   -1.3593   -0.6196   -0.0536 C   0  0  1  0  0  0  0  0  0  0  0  0
   -0.8788   -0.7266    0.9196 H   0  0  0  0  0  0  0  0  0  0  0  0
   -0.3559   -1.0533   -1.1339 C   0  0  0  0  0  0  0  0  0  0  0  0
   -0.7760   -1.8958   -1.6862 H   0  0  0  0  0  0  0  0  0  0  0  0
   -0.2254   -0.2293   -1.8375 H   0  0  0  0  0  0  0  0  0  0  0  0
    0.9932   -1.4603   -0.6235 C   0  0  0  0  0  0  0  0  0  0  0  0
    2.1229   -0.7230   -0.7122 C   0  0  0  0  0  0  0  0  0  0  0  0
    2.1889    0.2509   -1.1847 H   0  0  0  0  0  0  0  0  0  0  0  0
    3.1624   -1.3905   -0.0946 N   0  0  0  0  0  0  0  0  0  0  0  0
    4.1035   -1.0289   -0.0422 H   0  0  0  0  0  0  0  0  0  0  0  0
    2.7476   -2.5913    0.4408 C   0  0  0  0  0  0  0  0  0  0  0  0
    3.4039   -3.5923    1.1714 C   0  0  0  0  0  0  0  0  0  0  0  0
    4.4530   -3.4971    1.4101 H   0  0  0  0  0  0  0  0  0  0  0  0
    2.6779   -4.7216    1.5869 C   0  0  0  0  0  0  0  0  0  0  0  0
    3.1677   -5.5043    2.1504 H   0  0  0  0  0  0  0  0  0  0  0  0
    1.3136   -4.8360    1.2630 C   0  0  0  0  0  0  0  0  0  0  0  0
    0.7609   -5.7104    1.5775 H   0  0  0  0  0  0  0  0  0  0  0  0
    0.6647   -3.8246    0.5265 C   0  0  0  0  0  0  0  0  0  0  0  0
   -0.3804   -3.9313    0.2729 H   0  0  0  0  0  0  0  0  0  0  0  0
    1.3645   -2.6752    0.0999 C   0  0  0  0  0  0  0  0  0  0  0  0
   -1.7617    0.8549   -0.2106 C   0  0  0  0  0  0  0  0  0  0  0  0
   -2.5726    1.1871   -1.0741 O   0  0  0  0  0  0  0  0  0  0  0  0
   -1.1941    1.7377    0.6223 N   0  0  0  0  0  0  0  0  0  0  0  0
   -0.4976    1.3916    1.2669 H   0  0  0  0  0  0  0  0  0  0  0  0
   -1.4666    3.1722    0.6095 C   0  0  0  0  0  0  0  0  0  0  0  0
   -2.5439    3.3427    0.6539 H   0  0  0  0  0  0  0  0  0  0  0  0
   -0.9893    3.6529    1.4644 H   0  0  0  0  0  0  0  0  0  0  0  0
   -1.0808    3.6095   -0.3129 H   0  0  0  0  0  0  0  0  0  0  0  0
  5  6  2  0  0  0  0
  5  7  1  0  0  0  0
  2  3  1  0  0  0  0
  2  4  1  0  0  0  0
  2  5  1  0  0  0  0
  1  2  1  0  0  0  0
 29 30  2  0  0  0  0
 29 31  1  0  0  0  0
 26 27  1  0  0  0  0
 26 28  2  0  0  0  0
 24 25  1  0  0  0  0
 24 26  1  0  0  0  0
 22 23  1  0  0  0  0
 22 24  2  0  0  0  0
 20 21  1  0  0  0  0
 20 22  1  0  0  0  0
 19 20  2  0  0  0  0
 19 28  1  0  0  0  0
 17 18  1  0  0  0  0
 17 19  1  0  0  0  0
 15 16  1  0  0  0  0
 15 17  1  0  0  0  0
 14 15  2  0  0  0  0
 14 28  1  0  0  0  0
 11 12  1  0  0  0  0
 11 13  1  0  0  0  0
 11 14  1  0  0  0  0
  9 10  1  0  0  0  0
  9 11  1  0  0  0  0
  9 29  1  0  0  0  0
  7  8  1  0  0  0  0
  7  9  1  0  0  0  0
 33 34  1  0  0  0  0
 33 35  1  0  0  0  0
 33 36  1  0  0  0  0
 31 32  1  0  0  0  0
 31 33  1  0  0  0  0
M  END
$$$$
default_name
  -OEChem-02102213163D

 36 37  0     1  0  0  0  0  0999 V2000
   -4.0843   -4.0736    1.2944 H   0  0  0  0  0  0  0  0  0  0  0  0
   -4.0342   -3.2816    0.5484 C   0  0  0  0  0  0  0  0  0  0  0  0
   -4.8842   -2.6126    0.6694 H   0  0  0  0  0  0  0  0  0  0  0  0
   -4.0433   -3.7186   -0.4486 H   0  0  0  0  0  0  0  0  0  0  0  0
   -2.7532   -2.5046    0.7444 C   0  0  0  0  0  0  0  0  0  0  0  0
   -1.9803   -2.8096    1.6434 O   0  0  0  0  0  0  0  0  0  0  0  0
   -2.5332   -1.4966   -0.0966 N   0  0  0  0  0  0  0  0  0  0  0  0
   -3.2312   -1.2816   -0.7936 H   0  0  0  0  0  0  0  0  0  0  0  0
   -1.3593   -0.6196   -0.0536 C   0  0  1  0  0  0  0  0  0  0  0  0
   -0.8788   -0.7266    0.9196 H   0  0  0  0  0  0  0  0  0  0  0  0
   -0.3559   -1.0533   -1.1339 C   0  0  0  0  0  0  0  0  0  0  0  0
   -0.7760   -1.8958   -1.6862 H   0  0  0  0  0  0  0  0  0  0  0  0
   -0.2254   -0.2293   -1.8375 H   0  0  0  0  0  0  0  0  0  0  0  0
    0.9932   -1.4603   -0.6235 C   0  0  0  0  0  0  0  0  0  0  0  0
    2.0498   -0.6352   -0.4489 C   0  0  0  0  0  0  0  0  0  0  0  0
    2.0496    0.4248   -0.6780 H   0  0  0  0  0  0  0  0  0  0  0  0
    3.1100   -1.3445    0.0807 N   0  0  0  0  0  0  0  0  0  0  0  0
    4.0070   -0.9315    0.2906 H   0  0  0  0  0  0  0  0  0  0  0  0
    2.7817   -2.6669    0.2905 C   0  0  0  0  0  0  0  0  0  0  0  0
    3.4866   -3.7564    0.8220 C   0  0  0  0  0  0  0  0  0  0  0  0
    4.5055   -3.6369    1.1600 H   0  0  0  0  0  0  0  0  0  0  0  0
    2.8494   -5.0062    0.9068 C   0  0  0  0  0  0  0  0  0  0  0  0
    3.3777   -5.8581    1.3130 H   0  0  0  0  0  0  0  0  0  0  0  0
    1.5243   -5.1493    0.4562 C   0  0  0  0  0  0  0  0  0  0  0  0
    1.0407   -6.1145    0.5156 H   0  0  0  0  0  0  0  0  0  0  0  0
    0.8261   -4.0478   -0.0781 C   0  0  0  0  0  0  0  0  0  0  0  0
   -0.1868   -4.1746   -0.4329 H   0  0  0  0  0  0  0  0  0  0  0  0
    1.4360   -2.7780   -0.1712 C   0  0  0  0  0  0  0  0  0  0  0  0
   -1.7617    0.8549   -0.2106 C   0  0  0  0  0  0  0  0  0  0  0  0
   -2.5726    1.1871   -1.0741 O   0  0  0  0  0  0  0  0  0  0  0  0
   -1.1941    1.7377    0.6223 N   0  0  0  0  0  0  0  0  0  0  0  0
   -0.4976    1.3916    1.2669 H   0  0  0  0  0  0  0  0  0  0  0  0
   -1.4666    3.1722    0.6095 C   0  0  0  0  0  0  0  0  0  0  0  0
   -2.5439    3.3427    0.6539 H   0  0  0  0  0  0  0  0  0  0  0  0
   -0.9893    3.6529    1.4644 H   0  0  0  0  0  0  0  0  0  0  0  0
   -1.0808    3.6095   -0.3129 H   0  0  0  0  0  0  0  0  0  0  0  0
  5  6  2  0  0  0  0
  5  7  1  0  0  0  0
  2  3  1  0  0  0  0
  2  4  1  0  0  0  0
  2  5  1  0  0  0  0
  1  2  1  0  0  0  0
 29 30  2  0  0  0  0
 29 31  1  0  0  0  0
 26 27  1  0  0  0  0
 26 28  2  0  0  0  0
 24 25  1  0  0  0  0
 24 26  1  0  0  0  0
 22 23  1  0  0  0  0
 22 24  2  0  0  0  0
 20 21  1  0  0  0  0
 20 22  1  0  0  0  0
 19 20  2  0  0  0  0
 19 28  1  0  0  0  0
 17 18  1  0  0  0  0
 17 19  1  0  0  0  0
 15 16  1  0  0  0  0
 15 17  1  0  0  0  0
 14 15  2  0  0  0  0
 14 28  1  0  0  0  0
 11 12  1  0  0  0  0
 11 13  1  0  0  0  0
 11 14  1  0  0  0  0
  9 10  1  0  0  0  0
  9 11  1  0  0  0  0
  9 29  1  0  0  0  0
  7  8  1  0  0  0  0
  7  9  1  0  0  0  0
 33 34  1  0  0  0  0
 33 35  1  0  0  0  0
 33 36  1  0  0  0  0
 31 32  1  0  0  0  0
 31 33  1  0  0  0  0
M  END
$$$$
default_name
  -OEChem-02102213163D

 36 37  0     1  0  0  0  0  0999 V2000
   -4.0843   -4.0736    1.2944 H   0  0  0  0  0  0  0  0  0  0  0  0
   -4.0342   -3.2816    0.5484 C   0  0  0  0  0  0  0  0  0  0  0  0
   -4.8842   -2.6126    0.6694 H   0  0  0  0  0  0  0  0  0  0  0  0
   -4.0433   -3.7186   -0.4486 H   0  0  0  0  0  0  0  0  0  0  0  0
   -2.7532   -2.5046    0.7444 C   0  0  0  0  0  0  0  0  0  0  0  0
   -1.9803   -2.8096    1.6434 O   0  0  0  0  0  0  0  0  0  0  0  0
   -2.5332   -1.4966   -0.0966 N   0  0  0  0  0  0  0  0  0  0  0  0
   -3.2312   -1.2816   -0.7936 H   0  0  0  0  0  0  0  0  0  0  0  0
   -1.3593   -0.6196   -0.0536 C   0  0  1  0  0  0  0  0  0  0  0  0
   -0.8788   -0.7266    0.9196 H   0  0  0  0  0  0  0  0  0  0  0  0
   -0.3559   -1.0533   -1.1339 C   0  0  0  0  0  0  0  0  0  0  0  0
   -0.7760   -1.8958   -1.6862 H   0  0  0  0  0  0  0  0  0  0  0  0
   -0.2254   -0.2293   -1.8375 H   0  0  0  0  0  0  0  0  0  0  0  0
    0.9932   -1.4603   -0.6235 C   0  0  0  0  0  0  0  0  0  0  0  0
    1.9529   -0.6182   -0.1792 C   0  0  0  0  0  0  0  0  0  0  0  0
    1.8642    0.4625   -0.1578 H   0  0  0  0  0  0  0  0  0  0  0  0
    3.0430   -1.3455    0.2570 N   0  0  0  0  0  0  0  0  0  0  0  0
    3.8818   -0.9235    0.6278 H   0  0  0  0  0  0  0  0  0  0  0  0
    2.8319   -2.7019    0.1300 C   0  0  0  0  0  0  0  0  0  0  0  0
    3.6055   -3.8263    0.4520 C   0  0  0  0  0  0  0  0  0  0  0  0
    4.5860   -3.7091    0.8896 H   0  0  0  0  0  0  0  0  0  0  0  0
    3.0879   -5.1075    0.1956 C   0  0  0  0  0  0  0  0  0  0  0  0
    3.6707   -5.9862    0.4364 H   0  0  0  0  0  0  0  0  0  0  0  0
    1.8122   -5.2455   -0.3813 C   0  0  0  0  0  0  0  0  0  0  0  0
    1.4212   -6.2328   -0.5845 H   0  0  0  0  0  0  0  0  0  0  0  0
    1.0442   -4.1083   -0.7027 C   0  0  0  0  0  0  0  0  0  0  0  0
    0.0713   -4.2282   -1.1577 H   0  0  0  0  0  0  0  0  0  0  0  0
    1.5332   -2.8079   -0.4519 C   0  0  0  0  0  0  0  0  0  0  0  0
   -1.7617    0.8549   -0.2106 C   0  0  0  0  0  0  0  0  0  0  0  0
   -2.5726    1.1871   -1.0741 O   0  0  0  0  0  0  0  0  0  0  0  0
   -1.1941    1.7377    0.6223 N   0  0  0  0  0  0  0  0  0  0  0  0
   -0.4976    1.3916    1.2669 H   0  0  0  0  0  0  0  0  0  0  0  0
   -1.4666    3.1722    0.6095 C   0  0  0  0  0  0  0  0  0  0  0  0
   -2.5439    3.3427    0.6539 H   0  0  0  0  0  0  0  0  0  0  0  0
   -0.9893    3.6529    1.4644 H   0  0  0  0  0  0  0  0  0  0  0  0
   -1.0808    3.6095   -0.3129 H   0  0  0  0  0  0  0  0  0  0  0  0
  5  6  2  0  0  0  0
  5  7  1  0  0  0  0
  2  3  1  0  0  0  0
  2  4  1  0  0  0  0
  2  5  1  0  0  0  0
  1  2  1  0  0  0  0
 29 30  2  0  0  0  0
 29 31  1  0  0  0  0
 26 27  1  0  0  0  0
 26 28  2  0  0  0  0
 24 25  1  0  0  0  0
 24 26  1  0  0  0  0
 22 23  1  0  0  0  0
 22 24  2  0  0  0  0
 20 21  1  0  0  0  0
 20 22  1  0  0  0  0
 19 20  2  0  0  0  0
 19 28  1  0  0  0  0
 17 18  1  0  0  0  0
 17 19  1  0  0  0  0
 15 16  1  0  0  0  0
 15 17  1  0  0  0  0
 14 15  2  0  0  0  0
 14 28  1  0  0  0  0
 11 12  1  0  0  0  0
 11 13  1  0  0  0  0
 11 14  1  0  0  0  0
  9 10  1  0  0  0  0
  9 11  1  0  0  0  0
  9 29  1  0  0  0  0
  7  8  1  0  0  0  0
  7  9  1  0  0  0  0
 33 34  1  0  0  0  0
 33 35  1  0  0  0  0
 33 36  1  0  0  0  0
 31 32  1  0  0  0  0
 31 33  1  0  0  0  0
M  END
$$$$
default_name
  -OEChem-02102213163D

 36 37  0     1  0  0  0  0  0999 V2000
   -4.0843   -4.0736    1.2944 H   0  0  0  0  0  0  0  0  0  0  0  0
   -4.0342   -3.2816    0.5484 C   0  0  0  0  0  0  0  0  0  0  0  0
   -4.8842   -2.6126    0.6694 H   0  0  0  0  0  0  0  0  0  0  0  0
   -4.0433   -3.7186   -0.4486 H   0  0  0  0  0  0  0  0  0  0  0  0
   -2.7532   -2.5046    0.7444 C   0  0  0  0  0  0  0  0  0  0  0  0
   -1.9803   -2.8096    1.6434 O   0  0  0  0  0  0  0  0  0  0  0  0
   -2.5332   -1.4966   -0.0966 N   0  0  0  0  0  0  0  0  0  0  0  0
   -3.2312   -1.2816   -0.7936 H   0  0  0  0  0  0  0  0  0  0  0  0
   -1.3593   -0.6196   -0.0536 C   0  0  1  0  0  0  0  0  0  0  0  0
   -0.8788   -0.7266    0.9196 H   0  0  0  0  0  0  0  0  0  0  0  0
   -0.3559   -1.0533   -1.1339 C   0  0  0  0  0  0  0  0  0  0  0  0
   -0.7760   -1.8958   -1.6862 H   0  0  0  0  0  0  0  0  0  0  0  0
   -0.2254   -0.2293   -1.8375 H   0  0  0  0  0  0  0  0  0  0  0  0
    0.9932   -1.4603   -0.6235 C   0  0  0  0  0  0  0  0  0  0  0  0
    1.8389   -0.6731    0.0784 C   0  0  0  0  0  0  0  0  0  0  0  0
    1.6452    0.3613    0.3404 H   0  0  0  0  0  0  0  0  0  0  0  0
    2.9660   -1.3934    0.4223 N   0  0  0  0  0  0  0  0  0  0  0  0
    3.7365   -1.0054    0.9467 H   0  0  0  0  0  0  0  0  0  0  0  0
    2.8947   -2.6939   -0.0296 C   0  0  0  0  0  0  0  0  0  0  0  0
    3.7525   -3.7971    0.0867 C   0  0  0  0  0  0  0  0  0  0  0  0
    4.6892   -3.7086    0.6172 H   0  0  0  0  0  0  0  0  0  0  0  0
    3.3772   -5.0186   -0.4982 C   0  0  0  0  0  0  0  0  0  0  0  0
    4.0266   -5.8800   -0.4196 H   0  0  0  0  0  0  0  0  0  0  0  0
    2.1575   -5.1178   -1.1924 C   0  0  0  0  0  0  0  0  0  0  0  0
    1.8765   -6.0573   -1.6480 H   0  0  0  0  0  0  0  0  0  0  0  0
    1.3040   -4.0019   -1.3047 C   0  0  0  0  0  0  0  0  0  0  0  0
    0.3762   -4.0882   -1.8522 H   0  0  0  0  0  0  0  0  0  0  0  0
    1.6494   -2.7628   -0.7232 C   0  0  0  0  0  0  0  0  0  0  0  0
   -1.7617    0.8549   -0.2106 C   0  0  0  0  0  0  0  0  0  0  0  0
   -2.5726    1.1871   -1.0741 O   0  0  0  0  0  0  0  0  0  0  0  0
   -1.1941    1.7377    0.6223 N   0  0  0  0  0  0  0  0  0  0  0  0
   -0.4976    1.3916    1.2669 H   0  0  0  0  0  0  0  0  0  0  0  0
   -1.4666    3.1722    0.6095 C   0  0  0  0  0  0  0  0  0  0  0  0
   -2.5439    3.3427    0.6539 H   0  0  0  0  0  0  0  0  0  0  0  0
   -0.9893    3.6529    1.4644 H   0  0  0  0  0  0  0  0  0  0  0  0
   -1.0808    3.6095   -0.3129 H   0  0  0  0  0  0  0  0  0  0  0  0
  5  6  2  0  0  0  0
  5  7  1  0  0  0  0
  2  3  1  0  0  0  0
  2  4  1  0  0  0  0
  2  5  1  0  0  0  0
  1  2  1  0  0  0  0
 29 30  2  0  0  0  0
 29 31  1  0  0  0  0
 26 27  1  0  0  0  0
 26 28  2  0  0  0  0
 24 25  1  0  0  0  0
 24 26  1  0  0  0  0
 22 23  1  0  0  0  0
 22 24  2  0  0  0  0
 20 21  1  0  0  0  0
 20 22  1  0  0  0  0
 19 20  2  0  0  0  0
 19 28  1  0  0  0  0
 17 18  1  0  0  0  0
 17 19  1  0  0  0  0
 15 16  1  0  0  0  0
 15 17  1  0  0  0  0
 14 15  2  0  0  0  0
 14 28  1  0  0  0  0
 11 12  1  0  0  0  0
 11 13  1  0  0  0  0
 11 14  1  0  0  0  0
  9 10  1  0  0  0  0
  9 11  1  0  0  0  0
  9 29  1  0  0  0  0
  7  8  1  0  0  0  0
  7  9  1  0  0  0  0
 33 34  1  0  0  0  0
 33 35  1  0  0  0  0
 33 36  1  0  0  0  0
 31 32  1  0  0  0  0
 31 33  1  0  0  0  0
M  END
$$$$
default_name
  -OEChem-02102213163D

 36 37  0     1  0  0  0  0  0999 V2000
   -4.0843   -4.0736    1.2944 H   0  0  0  0  0  0  0  0  0  0  0  0
   -4.0342   -3.2816    0.5484 C   0  0  0  0  0  0  0  0  0  0  0  0
   -4.8842   -2.6126    0.6694 H   0  0  0  0  0  0  0  0  0  0  0  0
   -4.0433   -3.7186   -0.4486 H   0  0  0  0  0  0  0  0  0  0  0  0
   -2.7532   -2.5046    0.7444 C   0  0  0  0  0  0  0  0  0  0  0  0
   -1.9803   -2.8096    1.6434 O   0  0  0  0  0  0  0  0  0  0  0  0
   -2.5332   -1.4966   -0.0966 N   0  0  0  0  0  0  0  0  0  0  0  0
   -3.2312   -1.2816   -0.7936 H   0  0  0  0  0  0  0  0  0  0  0  0
   -1.3593   -0.6196   -0.0536 C   0  0  1  0  0  0  0  0  0  0  0  0
   -0.8788   -0.7266    0.9196 H   0  0  0  0  0  0  0  0  0  0  0  0
   -0.3559   -1.0533   -1.1339 C   0  0  0  0  0  0  0  0  0  0  0  0
   -0.7760   -1.8958   -1.6862 H   0  0  0  0  0  0  0  0  0  0  0  0
   -0.2254   -0.2293   -1.8375 H   0  0  0  0  0  0  0  0  0  0  0  0
    0.9932   -1.4603   -0.6235 C   0  0  0  0  0  0  0  0  0  0  0  0
    1.7155   -0.7962    0.3065 C   0  0  0  0  0  0  0  0  0  0  0  0
    1.4076    0.1283    0.7826 H   0  0  0  0  0  0  0  0  0  0  0  0
    2.8842   -1.4850    0.5654 N   0  0  0  0  0  0  0  0  0  0  0  0
    3.5809   -1.1716    1.2254 H   0  0  0  0  0  0  0  0  0  0  0  0
    2.9659   -2.6435   -0.1776 C   0  0  0  0  0  0  0  0  0  0  0  0
    3.9176   -3.6708   -0.2490 C   0  0  0  0  0  0  0  0  0  0  0  0
    4.8079   -3.6357    0.3615 H   0  0  0  0  0  0  0  0  0  0  0  0
    3.6975   -4.7456   -1.1273 C   0  0  0  0  0  0  0  0  0  0  0  0
    4.4211   -5.5466   -1.1966 H   0  0  0  0  0  0  0  0  0  0  0  0
    2.5369   -4.7751   -1.9219 C   0  0  0  0  0  0  0  0  0  0  0  0
    2.3756   -5.5998   -2.6024 H   0  0  0  0  0  0  0  0  0  0  0  0
    1.5880   -3.7360   -1.8433 C   0  0  0  0  0  0  0  0  0  0  0  0
    0.7072   -3.7644   -2.4690 H   0  0  0  0  0  0  0  0  0  0  0  0
    1.7768   -2.6458   -0.9666 C   0  0  0  0  0  0  0  0  0  0  0  0
   -1.7617    0.8549   -0.2106 C   0  0  0  0  0  0  0  0  0  0  0  0
   -2.5726    1.1871   -1.0741 O   0  0  0  0  0  0  0  0  0  0  0  0
   -1.1941    1.7377    0.6223 N   0  0  0  0  0  0  0  0  0  0  0  0
   -0.4976    1.3916    1.2669 H   0  0  0  0  0  0  0  0  0  0  0  0
   -1.4666    3.1722    0.6095 C   0  0  0  0  0  0  0  0  0  0  0  0
   -2.5439    3.3427    0.6539 H   0  0  0  0  0  0  0  0  0  0  0  0
   -0.9893    3.6529    1.4644 H   0  0  0  0  0  0  0  0  0  0  0  0
   -1.0808    3.6095   -0.3129 H   0  0  0  0  0  0  0  0  0  0  0  0
  5  6  2  0  0  0  0
  5  7  1  0  0  0  0
  2  3  1  0  0  0  0
  2  4  1  0  0  0  0
  2  5  1  0  0  0  0
  1  2  1  0  0  0  0
 29 30  2  0  0  0  0
 29 31  1  0  0  0  0
 26 27  1  0  0  0  0
 26 28  2  0  0  0  0
 24 25  1  0  0  0  0
 24 26  1  0  0  0  0
 22 23  1  0  0  0  0
 22 24  2  0  0  0  0
 20 21  1  0  0  0  0
 20 22  1  0  0  0  0
 19 20  2  0  0  0  0
 19 28  1  0  0  0  0
 17 18  1  0  0  0  0
 17 19  1  0  0  0  0
 15 16  1  0  0  0  0
 15 17  1  0  0  0  0
 14 15  2  0  0  0  0
 14 28  1  0  0  0  0
 11 12  1  0  0  0  0
 11 13  1  0  0  0  0
 11 14  1  0  0  0  0
  9 10  1  0  0  0  0
  9 11  1  0  0  0  0
  9 29  1  0  0  0  0
  7  8  1  0  0  0  0
  7  9  1  0  0  0  0
 33 34  1  0  0  0  0
 33 35  1  0  0  0  0
 33 36  1  0  0  0  0
 31 32  1  0  0  0  0
 31 33  1  0  0  0  0
M  END
$$$$
default_name
  -OEChem-02102213163D

 36 37  0     1  0  0  0  0  0999 V2000
   -4.0843   -4.0736    1.2944 H   0  0  0  0  0  0  0  0  0  0  0  0
   -4.0342   -3.2816    0.5484 C   0  0  0  0  0  0  0  0  0  0  0  0
   -4.8842   -2.6126    0.6694 H   0  0  0  0  0  0  0  0  0  0  0  0
   -4.0433   -3.7186   -0.4486 H   0  0  0  0  0  0  0  0  0  0  0  0
   -2.7532   -2.5046    0.7444 C   0  0  0  0  0  0  0  0  0  0  0  0
   -1.9803   -2.8096    1.6434 O   0  0  0  0  0  0  0  0  0  0  0  0
   -2.5332   -1.4966   -0.0966 N   0  0  0  0  0  0  0  0  0  0  0  0
   -3.2312   -1.2816   -0.7936 H   0  0  0  0  0  0  0  0  0  0  0  0
   -1.3593   -0.6196   -0.0536 C   0  0  1  0  0  0  0  0  0  0  0  0
   -0.8788   -0.7266    0.9196 H   0  0  0  0  0  0  0  0  0  0  0  0
   -0.3559   -1.0533   -1.1339 C   0  0  0  0  0  0  0  0  0  0  0  0
   -0.7760   -1.8958   -1.6862 H   0  0  0  0  0  0  0  0  0  0  0  0
   -0.2254   -0.2293   -1.8375 H   0  0  0  0  0  0  0  0  0  0  0  0
    0.9932   -1.4603   -0.6235 C   0  0  0  0  0  0  0  0  0  0  0  0
    1.5911   -0.9791    0.4894 C   0  0  0  0  0  0  0  0  0  0  0  0
    1.1676   -0.2208    1.1388 H   0  0  0  0  0  0  0  0  0  0  0  0
    2.8032   -1.6141    0.6766 N   0  0  0  0  0  0  0  0  0  0  0  0
    3.4257   -1.4108    1.4449 H   0  0  0  0  0  0  0  0  0  0  0  0
    3.0406   -2.5540   -0.3037 C   0  0  0  0  0  0  0  0  0  0  0  0
    4.0895   -3.4561   -0.5323 C   0  0  0  0  0  0  0  0  0  0  0  0
    4.9342   -3.4952    0.1398 H   0  0  0  0  0  0  0  0  0  0  0  0
    4.0271   -4.3072   -1.6489 C   0  0  0  0  0  0  0  0  0  0  0  0
    4.8274   -5.0087   -1.8418 H   0  0  0  0  0  0  0  0  0  0  0  0
    2.9243   -4.2407   -2.5200 C   0  0  0  0  0  0  0  0  0  0  0  0
    2.8844   -4.8915   -3.3825 H   0  0  0  0  0  0  0  0  0  0  0  0
    1.8766   -3.3287   -2.2816 C   0  0  0  0  0  0  0  0  0  0  0  0
    1.0418   -3.2787   -2.9660 H   0  0  0  0  0  0  0  0  0  0  0  0
    1.9066   -2.4648   -1.1655 C   0  0  0  0  0  0  0  0  0  0  0  0
   -1.7617    0.8549   -0.2106 C   0  0  0  0  0  0  0  0  0  0  0  0
   -2.5726    1.1871   -1.0741 O   0  0  0  0  0  0  0  0  0  0  0  0
   -1.1941    1.7377    0.6223 N   0  0  0  0  0  0  0  0  0  0  0  0
   -0.4976    1.3916    1.2669 H   0  0  0  0  0  0  0  0  0  0  0  0
   -1.4666    3.1722    0.6095 C   0  0  0  0  0  0  0  0  0  0  0  0
   -2.5439    3.3427    0.6539 H   0  0  0  0  0  0  0  0  0  0  0  0
   -0.9893    3.6529    1.4644 H   0  0  0  0  0  0  0  0  0  0  0  0
   -1.0808    3.6095   -0.3129 H   0  0  0  0  0  0  0  0  0  0  0  0
  5  6  2  0  0  0  0
  5  7  1  0  0  0  0
  2  3  1  0  0  0  0
  2  4  1  0  0  0  0
  2  5  1  0  0  0  0
  1  2  1  0  0  0  0
 29 30  2  0  0  0  0
 29 31  1  0  0  0  0
 26 27  1  0  0  0  0
 26 28  2  0  0  0  0
 24 25  1  0  0  0  0
 24 26  1  0  0  0  0
 22 23  1  0  0  0  0
 22 24  2  0  0  0  0
 20 21  1  0  0  0  0
 20 22  1  0  0  0  0
 19 20  2  0  0  0  0
 19 28  1  0  0  0  0
 17 18  1  0  0  0  0
 17 19  1  0  0  0  0
 15 16  1  0  0  0  0
 15 17  1  0  0  0  0
 14 15  2  0  0  0  0
 14 28  1  0  0  0  0
 11 12  1  0  0  0  0
 11 13  1  0  0  0  0
 11 14  1  0  0  0  0
  9 10  1  0  0  0  0
  9 11  1  0  0  0  0
  9 29  1  0  0  0  0
  7  8  1  0  0  0  0
  7  9  1  0  0  0  0
 33 34  1  0  0  0  0
 33 35  1  0  0  0  0
 33 36  1  0  0  0  0
 31 32  1  0  0  0  0
 31 33  1  0  0  0  0
M  END
$$$$
default_name
  -OEChem-02102213163D

 36 37  0     1  0  0  0  0  0999 V2000
   -4.0843   -4.0736    1.2944 H   0  0  0  0  0  0  0  0  0  0  0  0
   -4.0342   -3.2816    0.5484 C   0  0  0  0  0  0  0  0  0  0  0  0
   -4.8842   -2.6126    0.6694 H   0  0  0  0  0  0  0  0  0  0  0  0
   -4.0433   -3.7186   -0.4486 H   0  0  0  0  0  0  0  0  0  0  0  0
   -2.7532   -2.5046    0.7444 C   0  0  0  0  0  0  0  0  0  0  0  0
   -1.9803   -2.8096    1.6434 O   0  0  0  0  0  0  0  0  0  0  0  0
   -2.5332   -1.4966   -0.0966 N   0  0  0  0  0  0  0  0  0  0  0  0
   -3.2312   -1.2816   -0.7936 H   0  0  0  0  0  0  0  0  0  0  0  0
   -1.3593   -0.6196   -0.0536 C   0  0  1  0  0  0  0  0  0  0  0  0
   -0.8788   -0.7266    0.9196 H   0  0  0  0  0  0  0  0  0  0  0  0
   -0.3559   -1.0533   -1.1339 C   0  0  0  0  0  0  0  0  0  0  0  0
   -0.7760   -1.8958   -1.6862 H   0  0  0  0  0  0  0  0  0  0  0  0
   -0.2254   -0.2293   -1.8375 H   0  0  0  0  0  0  0  0  0  0  0  0
    0.9932   -1.4603   -0.6235 C   0  0  0  0  0  0  0  0  0  0  0  0
    1.4742   -1.2094    0.6147 C   0  0  0  0  0  0  0  0  0  0  0  0
    0.9414   -0.6622    1.3847 H   0  0  0  0  0  0  0  0  0  0  0  0
    2.7286   -1.7717    0.7482 N   0  0  0  0  0  0  0  0  0  0  0  0
    3.2815   -1.7066    1.5904 H   0  0  0  0  0  0  0  0  0  0  0  0
    3.1137   -2.4316   -0.3994 C   0  0  0  0  0  0  0  0  0  0  0  0
    4.2566   -3.1676   -0.7438 C   0  0  0  0  0  0  0  0  0  0  0  0
    5.0593   -3.2966   -0.0327 H   0  0  0  0  0  0  0  0  0  0  0  0
    4.3435   -3.7331   -2.0274 C   0  0  0  0  0  0  0  0  0  0  0  0
    5.2179   -4.3030   -2.3111 H   0  0  0  0  0  0  0  0  0  0  0  0
    3.2936   -3.5510   -2.9460 C   0  0  0  0  0  0  0  0  0  0  0  0
    3.3682   -3.9808   -3.9354 H   0  0  0  0  0  0  0  0  0  0  0  0
    2.1504   -2.8077   -2.5897 C   0  0  0  0  0  0  0  0  0  0  0  0
    1.3570   -2.6643   -3.3095 H   0  0  0  0  0  0  0  0  0  0  0  0
    2.0300   -2.2322   -1.3063 C   0  0  0  0  0  0  0  0  0  0  0  0
   -1.7617    0.8549   -0.2106 C   0  0  0  0  0  0  0  0  0  0  0  0
   -2.5726    1.1871   -1.0741 O   0  0  0  0  0  0  0  0  0  0  0  0
   -1.1941    1.7377    0.6223 N   0  0  0  0  0  0  0  0  0  0  0  0
   -0.4976    1.3916    1.2669 H   0  0  0  0  0  0  0  0  0  0  0  0
   -1.4666    3.1722    0.6095 C   0  0  0  0  0  0  0  0  0  0  0  0
   -2.5439    3.3427    0.6539 H   0  0  0  0  0  0  0  0  0  0  0  0
   -0.9893    3.6529    1.4644 H   0  0  0  0  0  0  0  0  0  0  0  0
   -1.0808    3.6095   -0.3129 H   0  0  0  0  0  0  0  0  0  0  0  0
  5  6  2  0  0  0  0
  5  7  1  0  0  0  0
  2  3  1  0  0  0  0
  2  4  1  0  0  0  0
  2  5  1  0  0  0  0
  1  2  1  0  0  0  0
 29 30  2  0  0  0  0
 29 31  1  0  0  0  0
 26 27  1  0  0  0  0
 26 28  2  0  0  0  0
 24 25  1  0  0  0  0
 24 26  1  0  0  0  0
 22 23  1  0  0  0  0
 22 24  2  0  0  0  0
 20 21  1  0  0  0  0
 20 22  1  0  0  0  0
 19 20  2  0  0  0  0
 19 28  1  0  0  0  0
 17 18  1  0  0  0  0
 17 19  1  0  0  0  0
 15 16  1  0  0  0  0
 15 17  1  0  0  0  0
 14 15  2  0  0  0  0
 14 28  1  0  0  0  0
 11 12  1  0  0  0  0
 11 13  1  0  0  0  0
 11 14  1  0  0  0  0
  9 10  1  0  0  0  0
  9 11  1  0  0  0  0
  9 29  1  0  0  0  0
  7  8  1  0  0  0  0
  7  9  1  0  0  0  0
 33 34  1  0  0  0  0
 33 35  1  0  0  0  0
 33 36  1  0  0  0  0
 31 32  1  0  0  0  0
 31 33  1  0  0  0  0
M  END
$$$$
default_name
  -OEChem-02102213163D

 36 37  0     1  0  0  0  0  0999 V2000
   -4.0843   -4.0736    1.2944 H   0  0  0  0  0  0  0  0  0  0  0  0
   -4.0342   -3.2816    0.5484 C   0  0  0  0  0  0  0  0  0  0  0  0
   -4.8842   -2.6126    0.6694 H   0  0  0  0  0  0  0  0  0  0  0  0
   -4.0433   -3.7186   -0.4486 H   0  0  0  0  0  0  0  0  0  0  0  0
   -2.7532   -2.5046    0.7444 C   0  0  0  0  0  0  0  0  0  0  0  0
   -1.9803   -2.8096    1.6434 O   0  0  0  0  0  0  0  0  0  0  0  0
   -2.5332   -1.4966   -0.0966 N   0  0  0  0  0  0  0  0  0  0  0  0
   -3.2312   -1.2816   -0.7936 H   0  0  0  0  0  0  0  0  0  0  0  0
   -1.3593   -0.6196   -0.0536 C   0  0  1  0  0  0  0  0  0  0  0  0
   -0.8788   -0.7266    0.9196 H   0  0  0  0  0  0  0  0  0  0  0  0
   -0.3559   -1.0533   -1.1339 C   0  0  0  0  0  0  0  0  0  0  0  0
   -0.7760   -1.8958   -1.6862 H   0  0  0  0  0  0  0  0  0  0  0  0
   -0.2254   -0.2293   -1.8375 H   0  0  0  0  0  0  0  0  0  0  0  0
    0.9932   -1.4603   -0.6235 C   0  0  0  0  0  0  0  0  0  0  0  0
    1.3728   -1.4713    0.6739 C   0  0  0  0  0  0  0  0  0  0  0  0
    0.7446   -1.1657    1.5034 H   0  0  0  0  0  0  0  0  0  0  0  0
    2.6653   -1.9473    0.7754 N   0  0  0  0  0  0  0  0  0  0  0  0
    3.1580   -2.0390    1.6518 H   0  0  0  0  0  0  0  0  0  0  0  0
    3.1803   -2.2846   -0.4582 C   0  0  0  0  0  0  0  0  0  0  0  0
    4.4074   -2.8248   -0.8691 C   0  0  0  0  0  0  0  0  0  0  0  0
    5.1748   -3.0537   -0.1443 H   0  0  0  0  0  0  0  0  0  0  0  0
    4.6251   -3.0624   -2.2370 C   0  0  0  0  0  0  0  0  0  0  0  0
    5.5658   -3.4777   -2.5725 H   0  0  0  0  0  0  0  0  0  0  0  0
    3.6193   -2.7530   -3.1709 C   0  0  0  0  0  0  0  0  0  0  0  0
    3.7942   -2.9297   -4.2232 H   0  0  0  0  0  0  0  0  0  0  0  0
    2.3905   -2.2086   -2.7468 C   0  0  0  0  0  0  0  0  0  0  0  0
    1.6316   -1.9630   -3.4759 H   0  0  0  0  0  0  0  0  0  0  0  0
    2.1387   -1.9639   -1.3794 C   0  0  0  0  0  0  0  0  0  0  0  0
   -1.7617    0.8549   -0.2106 C   0  0  0  0  0  0  0  0  0  0  0  0
   -2.5726    1.1871   -1.0741 O   0  0  0  0  0  0  0  0  0  0  0  0
   -1.1941    1.7377    0.6223 N   0  0  0  0  0  0  0  0  0  0  0  0
   -0.4976    1.3916    1.2669 H   0  0  0  0  0  0  0  0  0  0  0  0
   -1.4666    3.1722    0.6095 C   0  0  0  0  0  0  0  0  0  0  0  0
   -2.5439    3.3427    0.6539 H   0  0  0  0  0  0  0  0  0  0  0  0
   -0.9893    3.6529    1.4644 H   0  0  0  0  0  0  0  0  0  0  0  0
   -1.0808    3.6095   -0.3129 H   0  0  0  0  0  0  0  0  0  0  0  0
  5  6  2  0  0  0  0
  5  7  1  0  0  0  0
  2  3  1  0  0  0  0
  2  4  1  0  0  0  0
  2  5  1  0  0  0  0
  1  2  1  0  0  0  0
 29 30  2  0  0  0  0
 29 31  1  0  0  0  0
 26 27  1  0  0  0  0
 26 28  2  0  0  0  0
 24 25  1  0  0  0  0
 24 26  1  0  0  0  0
 22 23  1  0  0  0  0
 22 24  2  0  0  0  0
 20 21  1  0  0  0  0
 20 22  1  0  0  0  0
 19 20  2  0  0  0  0
 19 28  1  0  0  0  0
 17 18  1  0  0  0  0
 17 19  1  0  0  0  0
 15 16  1  0  0  0  0
 15 17  1  0  0  0  0
 14 15  2  0  0  0  0
 14 28  1  0  0  0  0
 11 12  1  0  0  0  0
 11 13  1  0  0  0  0
 11 14  1  0  0  0  0
  9 10  1  0  0  0  0
  9 11  1  0  0  0  0
  9 29  1  0  0  0  0
  7  8  1  0  0  0  0
  7  9  1  0  0  0  0
 33 34  1  0  0  0  0
 33 35  1  0  0  0  0
 33 36  1  0  0  0  0
 31 32  1  0  0  0  0
 31 33  1  0  0  0  0
M  END
$$$$
default_name
  -OEChem-02102213163D

 36 37  0     1  0  0  0  0  0999 V2000
   -4.0843   -4.0736    1.2944 H   0  0  0  0  0  0  0  0  0  0  0  0
   -4.0342   -3.2816    0.5484 C   0  0  0  0  0  0  0  0  0  0  0  0
   -4.8842   -2.6126    0.6694 H   0  0  0  0  0  0  0  0  0  0  0  0
   -4.0433   -3.7186   -0.4486 H   0  0  0  0  0  0  0  0  0  0  0  0
   -2.7532   -2.5046    0.7444 C   0  0  0  0  0  0  0  0  0  0  0  0
   -1.9803   -2.8096    1.6434 O   0  0  0  0  0  0  0  0  0  0  0  0
   -2.5332   -1.4966   -0.0966 N   0  0  0  0  0  0  0  0  0  0  0  0
   -3.2312   -1.2816   -0.7936 H   0  0  0  0  0  0  0  0  0  0  0  0
   -1.3593   -0.6196   -0.0536 C   0  0  1  0  0  0  0  0  0  0  0  0
   -0.8788   -0.7266    0.9196 H   0  0  0  0  0  0  0  0  0  0  0  0
   -0.3559   -1.0533   -1.1339 C   0  0  0  0  0  0  0  0  0  0  0  0
   -0.7760   -1.8958   -1.6862 H   0  0  0  0  0  0  0  0  0  0  0  0
   -0.2254   -0.2293   -1.8375 H   0  0  0  0  0  0  0  0  0  0  0  0
    0.9932   -1.4603   -0.6235 C   0  0  0  0  0  0  0  0  0  0  0  0
    1.2938   -1.7470    0.6630 C   0  0  0  0  0  0  0  0  0  0  0  0
    0.5905   -1.6971    1.4870 H   0  0  0  0  0  0  0  0  0  0  0  0
    2.6178   -2.1288    0.7563 N   0  0  0  0  0  0  0  0  0  0  0  0
    3.0636   -2.3853    1.6250 H   0  0  0  0  0  0  0  0  0  0  0  0
    3.2358   -2.1231   -0.4761 C   0  0  0  0  0  0  0  0  0  0  0  0
    4.5316   -2.4513   -0.8997 C   0  0  0  0  0  0  0  0  0  0  0  0
    5.2729   -2.7828   -0.1874 H   0  0  0  0  0  0  0  0  0  0  0  0
    4.8527   -2.3410   -2.2634 C   0  0  0  0  0  0  0  0  0  0  0  0
    5.8474   -2.5888   -2.6083 H   0  0  0  0  0  0  0  0  0  0  0  0
    3.8795   -1.9011   -3.1793 C   0  0  0  0  0  0  0  0  0  0  0  0
    4.1332   -1.8098   -4.2263 H   0  0  0  0  0  0  0  0  0  0  0  0
    2.5807   -1.5721   -2.7420 C   0  0  0  0  0  0  0  0  0  0  0  0
    1.8466   -1.2227   -3.4540 H   0  0  0  0  0  0  0  0  0  0  0  0
    2.2251   -1.6781   -1.3799 C   0  0  0  0  0  0  0  0  0  0  0  0
   -1.7617    0.8549   -0.2106 C   0  0  0  0  0  0  0  0  0  0  0  0
   -2.5726    1.1871   -1.0741 O   0  0  0  0  0  0  0  0  0  0  0  0
   -1.1941    1.7377    0.6223 N   0  0  0  0  0  0  0  0  0  0  0  0
   -0.4976    1.3916    1.2669 H   0  0  0  0  0  0  0  0  0  0  0  0
   -1.4666    3.1722    0.6095 C   0  0  0  0  0  0  0  0  0  0  0  0
   -2.5439    3.3427    0.6539 H   0  0  0  0  0  0  0  0  0  0  0  0
   -0.9893    3.6529    1.4644 H   0  0  0  0  0  0  0  0  0  0  0  0
   -1.0808    3.6095   -0.3129 H   0  0  0  0  0  0  0  0  0  0  0  0
  5  6  2  0  0  0  0
  5  7  1  0  0  0  0
  2  3  1  0  0  0  0
  2  4  1  0  0  0  0
  2  5  1  0  0  0  0
  1  2  1  0  0  0  0
 29 30  2  0  0  0  0
 29 31  1  0  0  0  0
 26 27  1  0  0  0  0
 26 28  2  0  0  0  0
 24 25  1  0  0  0  0
 24 26  1  0  0  0  0
 22 23  1  0  0  0  0
 22 24  2  0  0  0  0
 20 21  1  0  0  0  0
 20 22  1  0  0  0  0
 19 20  2  0  0  0  0
 19 28  1  0  0  0  0
 17 18  1  0  0  0  0
 17 19  1  0  0  0  0
 15 16  1  0  0  0  0
 15 17  1  0  0  0  0
 14 15  2  0  0  0  0
 14 28  1  0  0  0  0
 11 12  1  0  0  0  0
 11 13  1  0  0  0  0
 11 14  1  0  0  0  0
  9 10  1  0  0  0  0
  9 11  1  0  0  0  0
  9 29  1  0  0  0  0
  7  8  1  0  0  0  0
  7  9  1  0  0  0  0
 33 34  1  0  0  0  0
 33 35  1  0  0  0  0
 33 36  1  0  0  0  0
 31 32  1  0  0  0  0
 31 33  1  0  0  0  0
M  END
$$$$
default_name
  -OEChem-02102213163D

 36 37  0     1  0  0  0  0  0999 V2000
   -4.0843   -4.0736    1.2944 H   0  0  0  0  0  0  0  0  0  0  0  0
   -4.0342   -3.2816    0.5484 C   0  0  0  0  0  0  0  0  0  0  0  0
   -4.8842   -2.6126    0.6694 H   0  0  0  0  0  0  0  0  0  0  0  0
   -4.0433   -3.7186   -0.4486 H   0  0  0  0  0  0  0  0  0  0  0  0
   -2.7532   -2.5046    0.7444 C   0  0  0  0  0  0  0  0  0  0  0  0
   -1.9803   -2.8096    1.6434 O   0  0  0  0  0  0  0  0  0  0  0  0
   -2.5332   -1.4966   -0.0966 N   0  0  0  0  0  0  0  0  0  0  0  0
   -3.2312   -1.2816   -0.7936 H   0  0  0  0  0  0  0  0  0  0  0  0
   -1.3593   -0.6196   -0.0536 C   0  0  1  0  0  0  0  0  0  0  0  0
   -0.8788   -0.7266    0.9196 H   0  0  0  0  0  0  0  0  0  0  0  0
   -0.3559   -1.0533   -1.1339 C   0  0  0  0  0  0  0  0  0  0  0  0
   -0.7760   -1.8958   -1.6862 H   0  0  0  0  0  0  0  0  0  0  0  0
   -0.2254   -0.2293   -1.8375 H   0  0  0  0  0  0  0  0  0  0  0  0
    0.9932   -1.4603   -0.6235 C   0  0  0  0  0  0  0  0  0  0  0  0
    1.2425   -2.0177    0.5826 C   0  0  0  0  0  0  0  0  0  0  0  0
    0.4897   -2.2201    1.3365 H   0  0  0  0  0  0  0  0  0  0  0  0
    2.5892   -2.3039    0.6922 N   0  0  0  0  0  0  0  0  0  0  0  0
    3.0049   -2.7218    1.5118 H   0  0  0  0  0  0  0  0  0  0  0  0
    3.2764   -1.9580   -0.4518 C   0  0  0  0  0  0  0  0  0  0  0  0
    4.6209   -2.0724   -0.8335 C   0  0  0  0  0  0  0  0  0  0  0  0
    5.3467   -2.5025   -0.1590 H   0  0  0  0  0  0  0  0  0  0  0  0
    5.0108   -1.6180   -2.1049 C   0  0  0  0  0  0  0  0  0  0  0  0
    6.0437   -1.6971   -2.4161 H   0  0  0  0  0  0  0  0  0  0  0  0
    4.0563   -1.0534   -2.9706 C   0  0  0  0  0  0  0  0  0  0  0  0
    4.3622   -0.6974   -3.9446 H   0  0  0  0  0  0  0  0  0  0  0  0
    2.7080   -0.9416   -2.5757 C   0  0  0  0  0  0  0  0  0  0  0  0
    1.9875   -0.4937   -3.2453 H   0  0  0  0  0  0  0  0  0  0  0  0
    2.2834   -1.3943   -1.3078 C   0  0  0  0  0  0  0  0  0  0  0  0
   -1.7617    0.8549   -0.2106 C   0  0  0  0  0  0  0  0  0  0  0  0
   -2.5726    1.1871   -1.0741 O   0  0  0  0  0  0  0  0  0  0  0  0
   -1.1941    1.7377    0.6223 N   0  0  0  0  0  0  0  0  0  0  0  0
   -0.4976    1.3916    1.2669 H   0  0  0  0  0  0  0  0  0  0  0  0
   -1.4666    3.1722    0.6095 C   0  0  0  0  0  0  0  0  0  0  0  0
   -2.5439    3.3427    0.6539 H   0  0  0  0  0  0  0  0  0  0  0  0
   -0.9893    3.6529    1.4644 H   0  0  0  0  0  0  0  0  0  0  0  0
   -1.0808    3.6095   -0.3129 H   0  0  0  0  0  0  0  0  0  0  0  0
  5  6  2  0  0  0  0
  5  7  1  0  0  0  0
  2  3  1  0  0  0  0
  2  4  1  0  0  0  0
  2  5  1  0  0  0  0
  1  2  1  0  0  0  0
 29 30  2  0  0  0  0
 29 31  1  0  0  0  0
 26 27  1  0  0  0  0
 26 28  2  0  0  0  0
 24 25  1  0  0  0  0
 24 26  1  0  0  0  0
 22 23  1  0  0  0  0
 22 24  2  0  0  0  0
 20 21  1  0  0  0  0
 20 22  1  0  0  0  0
 19 20  2  0  0  0  0
 19 28  1  0  0  0  0
 17 18  1  0  0  0  0
 17 19  1  0  0  0  0
 15 16  1  0  0  0  0
 15 17  1  0  0  0  0
 14 15  2  0  0  0  0
 14 28  1  0  0  0  0
 11 12  1  0  0  0  0
 11 13  1  0  0  0  0
 11 14  1  0  0  0  0
  9 10  1  0  0  0  0
  9 11  1  0  0  0  0
  9 29  1  0  0  0  0
  7  8  1  0  0  0  0
  7  9  1  0  0  0  0
 33 34  1  0  0  0  0
 33 35  1  0  0  0  0
 33 36  1  0  0  0  0
 31 32  1  0  0  0  0
 31 33  1  0  0  0  0
M  END
$$$$
default_name
  -OEChem-02102213163D

 36 37  0     1  0  0  0  0  0999 V2000
   -4.0843   -4.0736    1.2944 H   0  0  0  0  0  0  0  0  0  0  0  0
   -4.0342   -3.2816    0.5484 C   0  0  0  0  0  0  0  0  0  0  0  0
   -4.8842   -2.6126    0.6694 H   0  0  0  0  0  0  0  0  0  0  0  0
   -4.0433   -3.7186   -0.4486 H   0  0  0  0  0  0  0  0  0  0  0  0
   -2.7532   -2.5046    0.7444 C   0  0  0  0  0  0  0  0  0  0  0  0
   -1.9803   -2.8096    1.6434 O   0  0  0  0  0  0  0  0  0  0  0  0
   -2.5332   -1.4966   -0.0966 N   0  0  0  0  0  0  0  0  0  0  0  0
   -3.2312   -1.2816   -0.7936 H   0  0  0  0  0  0  0  0  0  0  0  0
   -1.3593   -0.6196   -0.0536 C   0  0  1  0  0  0  0  0  0  0  0  0
   -0.8788   -0.7266    0.9196 H   0  0  0  0  0  0  0  0  0  0  0  0
   -0.3559   -1.0533   -1.1339 C   0  0  0  0  0  0  0  0  0  0  0  0
   -0.7760   -1.8958   -1.6862 H   0  0  0  0  0  0  0  0  0  0  0  0
   -0.2254   -0.2293   -1.8375 H   0  0  0  0  0  0  0  0  0  0  0  0
    0.9932   -1.4603   -0.6235 C   0  0  0  0  0  0  0  0  0  0  0  0
    1.2225   -2.2650    0.4383 C   0  0  0  0  0  0  0  0  0  0  0  0
    0.4489   -2.6991    1.0622 H   0  0  0  0  0  0  0  0  0  0  0  0
    2.5816   -2.4606    0.5876 N   0  0  0  0  0  0  0  0  0  0  0  0
    2.9859   -3.0256    1.3200 H   0  0  0  0  0  0  0  0  0  0  0  0
    3.2994   -1.8006   -0.3871 C   0  0  0  0  0  0  0  0  0  0  0  0
    4.6691   -1.7140   -0.6750 C   0  0  0  0  0  0  0  0  0  0  0  0
    5.3913   -2.2318   -0.0611 H   0  0  0  0  0  0  0  0  0  0  0  0
    5.0887   -0.9426   -1.7722 C   0  0  0  0  0  0  0  0  0  0  0  0
    6.1412   -0.8633   -2.0088 H   0  0  0  0  0  0  0  0  0  0  0  0
    4.1377   -0.2676   -2.5591 C   0  0  0  0  0  0  0  0  0  0  0  0
    4.4656    0.3316   -3.3973 H   0  0  0  0  0  0  0  0  0  0  0  0
    2.7637   -0.3602   -2.2593 C   0  0  0  0  0  0  0  0  0  0  0  0
    2.0448    0.1742   -2.8639 H   0  0  0  0  0  0  0  0  0  0  0  0
    2.3096   -1.1319   -1.1678 C   0  0  0  0  0  0  0  0  0  0  0  0
   -1.7617    0.8549   -0.2106 C   0  0  0  0  0  0  0  0  0  0  0  0
   -2.5726    1.1871   -1.0741 O   0  0  0  0  0  0  0  0  0  0  0  0
   -1.1941    1.7377    0.6223 N   0  0  0  0  0  0  0  0  0  0  0  0
   -0.4976    1.3916    1.2669 H   0  0  0  0  0  0  0  0  0  0  0  0
   -1.4666    3.1722    0.6095 C   0  0  0  0  0  0  0  0  0  0  0  0
   -2.5439    3.3427    0.6539 H   0  0  0  0  0  0  0  0  0  0  0  0
   -0.9893    3.6529    1.4644 H   0  0  0  0  0  0  0  0  0  0  0  0
   -1.0808    3.6095   -0.3129 H   0  0  0  0  0  0  0  0  0  0  0  0
  5  6  2  0  0  0  0
  5  7  1  0  0  0  0
  2  3  1  0  0  0  0
  2  4  1  0  0  0  0
  2  5  1  0  0  0  0
  1  2  1  0  0  0  0
 29 30  2  0  0  0  0
 29 31  1  0  0  0  0
 26 27  1  0  0  0  0
 26 28  2  0  0  0  0
 24 25  1  0  0  0  0
 24 26  1  0  0  0  0
 22 23  1  0  0  0  0
 22 24  2  0  0  0  0
 20 21  1  0  0  0  0
 20 22  1  0  0  0  0
 19 20  2  0  0  0  0
 19 28  1  0  0  0  0
 17 18  1  0  0  0  0
 17 19  1  0  0  0  0
 15 16  1  0  0  0  0
 15 17  1  0  0  0  0
 14 15  2  0  0  0  0
 14 28  1  0  0  0  0
 11 12  1  0  0  0  0
 11 13  1  0  0  0  0
 11 14  1  0  0  0  0
  9 10  1  0  0  0  0
  9 11  1  0  0  0  0
  9 29  1  0  0  0  0
  7  8  1  0  0  0  0
  7  9  1  0  0  0  0
 33 34  1  0  0  0  0
 33 35  1  0  0  0  0
 33 36  1  0  0  0  0
 31 32  1  0  0  0  0
 31 33  1  0  0  0  0
M  END
$$$$
default_name
  -OEChem-02102213163D

 36 37  0     1  0  0  0  0  0999 V2000
   -4.0843   -4.0736    1.2944 H   0  0  0  0  0  0  0  0  0  0  0  0
   -4.0342   -3.2816    0.5484 C   0  0  0  0  0  0  0  0  0  0  0  0
   -4.8842   -2.6126    0.6694 H   0  0  0  0  0  0  0  0  0  0  0  0
   -4.0433   -3.7186   -0.4486 H   0  0  0  0  0  0  0  0  0  0  0  0
   -2.7532   -2.5046    0.7444 C   0  0  0  0  0  0  0  0  0  0  0  0
   -1.9803   -2.8096    1.6434 O   0  0  0  0  0  0  0  0  0  0  0  0
   -2.5332   -1.4966   -0.0966 N   0  0  0  0  0  0  0  0  0  0  0  0
   -3.2312   -1.2816   -0.7936 H   0  0  0  0  0  0  0  0  0  0  0  0
   -1.3593   -0.6196   -0.0536 C   0  0  1  0  0  0  0  0  0  0  0  0
   -0.8788   -0.7266    0.9196 H   0  0  0  0  0  0  0  0  0  0  0  0
   -0.3559   -1.0533   -1.1339 C   0  0  0  0  0  0  0  0  0  0  0  0
   -0.7760   -1.8958   -1.6862 H   0  0  0  0  0  0  0  0  0  0  0  0
   -0.2254   -0.2293   -1.8375 H   0  0  0  0  0  0  0  0  0  0  0  0
    0.9932   -1.4603   -0.6235 C   0  0  0  0  0  0  0  0  0  0  0  0
    1.2351   -2.4721    0.2398 C   0  0  0  0  0  0  0  0  0  0  0  0
    0.4711   -3.1015    0.6827 H   0  0  0  0  0  0  0  0  0  0  0  0
    2.5953   -2.5882    0.4494 N   0  0  0  0  0  0  0  0  0  0  0  0
    3.0077   -3.2761    1.0625 H   0  0  0  0  0  0  0  0  0  0  0  0
    3.3032   -1.6617   -0.2863 C   0  0  0  0  0  0  0  0  0  0  0  0
    4.6728   -1.4005   -0.4350 C   0  0  0  0  0  0  0  0  0  0  0  0
    5.4036   -1.9893    0.0997 H   0  0  0  0  0  0  0  0  0  0  0  0
    5.0810   -0.3608   -1.2880 C   0  0  0  0  0  0  0  0  0  0  0  0
    6.1332   -0.1442   -1.4143 H   0  0  0  0  0  0  0  0  0  0  0  0
    4.1181    0.4028   -1.9728 C   0  0  0  0  0  0  0  0  0  0  0  0
    4.4363    1.2071   -2.6216 H   0  0  0  0  0  0  0  0  0  0  0  0
    2.7440    0.1327   -1.8142 C   0  0  0  0  0  0  0  0  0  0  0  0
    2.0143    0.7356   -2.3358 H   0  0  0  0  0  0  0  0  0  0  0  0
    2.3020   -0.9086   -0.9697 C   0  0  0  0  0  0  0  0  0  0  0  0
   -1.7617    0.8549   -0.2106 C   0  0  0  0  0  0  0  0  0  0  0  0
   -2.5726    1.1871   -1.0741 O   0  0  0  0  0  0  0  0  0  0  0  0
   -1.1941    1.7377    0.6223 N   0  0  0  0  0  0  0  0  0  0  0  0
   -0.4976    1.3916    1.2669 H   0  0  0  0  0  0  0  0  0  0  0  0
   -1.4666    3.1722    0.6095 C   0  0  0  0  0  0  0  0  0  0  0  0
   -2.5439    3.3427    0.6539 H   0  0  0  0  0  0  0  0  0  0  0  0
   -0.9893    3.6529    1.4644 H   0  0  0  0  0  0  0  0  0  0  0  0
   -1.0808    3.6095   -0.3129 H   0  0  0  0  0  0  0  0  0  0  0  0
  5  6  2  0  0  0  0
  5  7  1  0  0  0  0
  2  3  1  0  0  0  0
  2  4  1  0  0  0  0
  2  5  1  0  0  0  0
  1  2  1  0  0  0  0
 29 30  2  0  0  0  0
 29 31  1  0  0  0  0
 26 27  1  0  0  0  0
 26 28  2  0  0  0  0
 24 25  1  0  0  0  0
 24 26  1  0  0  0  0
 22 23  1  0  0  0  0
 22 24  2  0  0  0  0
 20 21  1  0  0  0  0
 20 22  1  0  0  0  0
 19 20  2  0  0  0  0
 19 28  1  0  0  0  0
 17 18  1  0  0  0  0
 17 19  1  0  0  0  0
 15 16  1  0  0  0  0
 15 17  1  0  0  0  0
 14 15  2  0  0  0  0
 14 28  1  0  0  0  0
 11 12  1  0  0  0  0
 11 13  1  0  0  0  0
 11 14  1  0  0  0  0
  9 10  1  0  0  0  0
  9 11  1  0  0  0  0
  9 29  1  0  0  0  0
  7  8  1  0  0  0  0
  7  9  1  0  0  0  0
 33 34  1  0  0  0  0
 33 35  1  0  0  0  0
 33 36  1  0  0  0  0
 31 32  1  0  0  0  0
 31 33  1  0  0  0  0
M  END
$$$$
default_name
  -OEChem-02102213163D

 36 37  0     1  0  0  0  0  0999 V2000
   -4.0843   -4.0736    1.2944 H   0  0  0  0  0  0  0  0  0  0  0  0
   -4.0342   -3.2816    0.5484 C   0  0  0  0  0  0  0  0  0  0  0  0
   -4.8842   -2.6126    0.6694 H   0  0  0  0  0  0  0  0  0  0  0  0
   -4.0433   -3.7186   -0.4486 H   0  0  0  0  0  0  0  0  0  0  0  0
   -2.7532   -2.5046    0.7444 C   0  0  0  0  0  0  0  0  0  0  0  0
   -1.9803   -2.8096    1.6434 O   0  0  0  0  0  0  0  0  0  0  0  0
   -2.5332   -1.4966   -0.0966 N   0  0  0  0  0  0  0  0  0  0  0  0
   -3.2312   -1.2816   -0.7936 H   0  0  0  0  0  0  0  0  0  0  0  0
   -1.3593   -0.6196   -0.0536 C   0  0  1  0  0  0  0  0  0  0  0  0
   -0.8788   -0.7266    0.9196 H   0  0  0  0  0  0  0  0  0  0  0  0
   -0.3559   -1.0533   -1.1339 C   0  0  0  0  0  0  0  0  0  0  0  0
   -0.7760   -1.8958   -1.6862 H   0  0  0  0  0  0  0  0  0  0  0  0
   -0.2254   -0.2293   -1.8375 H   0  0  0  0  0  0  0  0  0  0  0  0
    0.9932   -1.4603   -0.6235 C   0  0  0  0  0  0  0  0  0  0  0  0
    1.2795   -2.6247    0.0008 C   0  0  0  0  0  0  0  0  0  0  0  0
    0.5546   -3.3998    0.2240 H   0  0  0  0  0  0  0  0  0  0  0  0
    2.6296   -2.6781    0.2872 N   0  0  0  0  0  0  0  0  0  0  0  0
    3.0689   -3.4562    0.7570 H   0  0  0  0  0  0  0  0  0  0  0  0
    3.2875   -1.5506   -0.1562 C   0  0  0  0  0  0  0  0  0  0  0  0
    4.6320   -1.1532   -0.1299 C   0  0  0  0  0  0  0  0  0  0  0  0
    5.3829   -1.7914    0.3124 H   0  0  0  0  0  0  0  0  0  0  0  0
    4.9883    0.0876   -0.6853 C   0  0  0  0  0  0  0  0  0  0  0  0
    6.0203    0.4112   -0.6730 H   0  0  0  0  0  0  0  0  0  0  0  0
    3.9989    0.9120   -1.2517 C   0  0  0  0  0  0  0  0  0  0  0  0
    4.2762    1.8695   -1.6704 H   0  0  0  0  0  0  0  0  0  0  0  0
    2.6503    0.5033   -1.2709 C   0  0  0  0  0  0  0  0  0  0  0  0
    1.8984    1.1521   -1.6972 H   0  0  0  0  0  0  0  0  0  0  0  0
    2.2610   -0.7399   -0.7268 C   0  0  0  0  0  0  0  0  0  0  0  0
   -1.7617    0.8549   -0.2106 C   0  0  0  0  0  0  0  0  0  0  0  0
   -2.5726    1.1871   -1.0741 O   0  0  0  0  0  0  0  0  0  0  0  0
   -1.1941    1.7377    0.6223 N   0  0  0  0  0  0  0  0  0  0  0  0
   -0.4976    1.3916    1.2669 H   0  0  0  0  0  0  0  0  0  0  0  0
   -1.4666    3.1722    0.6095 C   0  0  0  0  0  0  0  0  0  0  0  0
   -2.5439    3.3427    0.6539 H   0  0  0  0  0  0  0  0  0  0  0  0
   -0.9893    3.6529    1.4644 H   0  0  0  0  0  0  0  0  0  0  0  0
   -1.0808    3.6095   -0.3129 H   0  0  0  0  0  0  0  0  0  0  0  0
  5  6  2  0  0  0  0
  5  7  1  0  0  0  0
  2  3  1  0  0  0  0
  2  4  1  0  0  0  0
  2  5  1  0  0  0  0
  1  2  1  0  0  0  0
 29 30  2  0  0  0  0
 29 31  1  0  0  0  0
 26 27  1  0  0  0  0
 26 28  2  0  0  0  0
 24 25  1  0  0  0  0
 24 26  1  0  0  0  0
 22 23  1  0  0  0  0
 22 24  2  0  0  0  0
 20 21  1  0  0  0  0
 20 22  1  0  0  0  0
 19 20  2  0  0  0  0
 19 28  1  0  0  0  0
 17 18  1  0  0  0  0
 17 19  1  0  0  0  0
 15 16  1  0  0  0  0
 15 17  1  0  0  0  0
 14 15  2  0  0  0  0
 14 28  1  0  0  0  0
 11 12  1  0  0  0  0
 11 13  1  0  0  0  0
 11 14  1  0  0  0  0
  9 10  1  0  0  0  0
  9 11  1  0  0  0  0
  9 29  1  0  0  0  0
  7  8  1  0  0  0  0
  7  9  1  0  0  0  0
 33 34  1  0  0  0  0
 33 35  1  0  0  0  0
 33 36  1  0  0  0  0
 31 32  1  0  0  0  0
 31 33  1  0  0  0  0
M  END
$$$$
default_name
  -OEChem-02102213163D

 36 37  0     1  0  0  0  0  0999 V2000
   -4.0843   -4.0736    1.2944 H   0  0  0  0  0  0  0  0  0  0  0  0
   -4.0342   -3.2816    0.5484 C   0  0  0  0  0  0  0  0  0  0  0  0
   -4.8842   -2.6126    0.6694 H   0  0  0  0  0  0  0  0  0  0  0  0
   -4.0433   -3.7186   -0.4486 H   0  0  0  0  0  0  0  0  0  0  0  0
   -2.7532   -2.5046    0.7444 C   0  0  0  0  0  0  0  0  0  0  0  0
   -1.9803   -2.8096    1.6434 O   0  0  0  0  0  0  0  0  0  0  0  0
   -2.5332   -1.4966   -0.0966 N   0  0  0  0  0  0  0  0  0  0  0  0
   -3.2312   -1.2816   -0.7936 H   0  0  0  0  0  0  0  0  0  0  0  0
   -1.3593   -0.6196   -0.0536 C   0  0  1  0  0  0  0  0  0  0  0  0
   -0.8788   -0.7266    0.9196 H   0  0  0  0  0  0  0  0  0  0  0  0
   -0.3559   -1.0533   -1.1339 C   0  0  0  0  0  0  0  0  0  0  0  0
   -0.7760   -1.8958   -1.6862 H   0  0  0  0  0  0  0  0  0  0  0  0
   -0.2254   -0.2293   -1.8375 H   0  0  0  0  0  0  0  0  0  0  0  0
    0.9932   -1.4603   -0.6235 C   0  0  0  0  0  0  0  0  0  0  0  0
    1.3526   -2.7125   -0.2625 C   0  0  0  0  0  0  0  0  0  0  0  0
    0.6938   -3.5738   -0.2827 H   0  0  0  0  0  0  0  0  0  0  0  0
    2.6820   -2.7241    0.1120 N   0  0  0  0  0  0  0  0  0  0  0  0
    3.1654   -3.5535    0.4243 H   0  0  0  0  0  0  0  0  0  0  0  0
    3.2534   -1.4750   -0.0059 C   0  0  0  0  0  0  0  0  0  0  0  0
    4.5493   -0.9891    0.2196 C   0  0  0  0  0  0  0  0  0  0  0  0
    5.3304   -1.6516    0.5624 H   0  0  0  0  0  0  0  0  0  0  0  0
    4.8169    0.3722   -0.0051 C   0  0  0  0  0  0  0  0  0  0  0  0
    5.8102    0.7650    0.1644 H   0  0  0  0  0  0  0  0  0  0  0  0
    3.7883    1.2254   -0.4449 C   0  0  0  0  0  0  0  0  0  0  0  0
    3.9964    2.2737   -0.6086 H   0  0  0  0  0  0  0  0  0  0  0  0
    2.4889    0.7264   -0.6663 C   0  0  0  0  0  0  0  0  0  0  0  0
    1.7048    1.3954   -0.9913 H   0  0  0  0  0  0  0  0  0  0  0  0
    2.1895   -0.6370   -0.4558 C   0  0  0  0  0  0  0  0  0  0  0  0
   -1.7617    0.8549   -0.2106 C   0  0  0  0  0  0  0  0  0  0  0  0
   -2.5726    1.1871   -1.0741 O   0  0  0  0  0  0  0  0  0  0  0  0
   -1.1941    1.7377    0.6223 N   0  0  0  0  0  0  0  0  0  0  0  0
   -0.4976    1.3916    1.2669 H   0  0  0  0  0  0  0  0  0  0  0  0
   -1.4666    3.1722    0.6095 C   0  0  0  0  0  0  0  0  0  0  0  0
   -2.5439    3.3427    0.6539 H   0  0  0  0  0  0  0  0  0  0  0  0
   -0.9893    3.6529    1.4644 H   0  0  0  0  0  0  0  0  0  0  0  0
   -1.0808    3.6095   -0.3129 H   0  0  0  0  0  0  0  0  0  0  0  0
  5  6  2  0  0  0  0
  5  7  1  0  0  0  0
  2  3  1  0  0  0  0
  2  4  1  0  0  0  0
  2  5  1  0  0  0  0
  1  2  1  0  0  0  0
 29 30  2  0  0  0  0
 29 31  1  0  0  0  0
 26 27  1  0  0  0  0
 26 28  2  0  0  0  0
 24 25  1  0  0  0  0
 24 26  1  0  0  0  0
 22 23  1  0  0  0  0
 22 24  2  0  0  0  0
 20 21  1  0  0  0  0
 20 22  1  0  0  0  0
 19 20  2  0  0  0  0
 19 28  1  0  0  0  0
 17 18  1  0  0  0  0
 17 19  1  0  0  0  0
 15 16  1  0  0  0  0
 15 17  1  0  0  0  0
 14 15  2  0  0  0  0
 14 28  1  0  0  0  0
 11 12  1  0  0  0  0
 11 13  1  0  0  0  0
 11 14  1  0  0  0  0
  9 10  1  0  0  0  0
  9 11  1  0  0  0  0
  9 29  1  0  0  0  0
  7  8  1  0  0  0  0
  7  9  1  0  0  0  0
 33 34  1  0  0  0  0
 33 35  1  0  0  0  0
 33 36  1  0  0  0  0
 31 32  1  0  0  0  0
 31 33  1  0  0  0  0
M  END
$$$$
default_name
  -OEChem-02102213163D

 36 37  0     1  0  0  0  0  0999 V2000
   -4.0843   -4.0736    1.2944 H   0  0  0  0  0  0  0  0  0  0  0  0
   -4.0342   -3.2816    0.5484 C   0  0  0  0  0  0  0  0  0  0  0  0
   -4.8842   -2.6126    0.6694 H   0  0  0  0  0  0  0  0  0  0  0  0
   -4.0433   -3.7186   -0.4486 H   0  0  0  0  0  0  0  0  0  0  0  0
   -2.7532   -2.5046    0.7444 C   0  0  0  0  0  0  0  0  0  0  0  0
   -1.9803   -2.8096    1.6434 O   0  0  0  0  0  0  0  0  0  0  0  0
   -2.5332   -1.4966   -0.0966 N   0  0  0  0  0  0  0  0  0  0  0  0
   -3.2312   -1.2816   -0.7936 H   0  0  0  0  0  0  0  0  0  0  0  0
   -1.3593   -0.6196   -0.0536 C   0  0  1  0  0  0  0  0  0  0  0  0
   -0.8788   -0.7266    0.9196 H   0  0  0  0  0  0  0  0  0  0  0  0
   -0.3559   -1.0533   -1.1339 C   0  0  0  0  0  0  0  0  0  0  0  0
   -0.7760   -1.8958   -1.6862 H   0  0  0  0  0  0  0  0  0  0  0  0
   -0.2254   -0.2293   -1.8375 H   0  0  0  0  0  0  0  0  0  0  0  0
    0.9932   -1.4603   -0.6235 C   0  0  0  0  0  0  0  0  0  0  0  0
    1.4495   -2.7296   -0.5321 C   0  0  0  0  0  0  0  0  0  0  0  0
    0.8793   -3.6114   -0.8028 H   0  0  0  0  0  0  0  0  0  0  0  0
    2.7490   -2.7231   -0.0643 N   0  0  0  0  0  0  0  0  0  0  0  0
    3.2906   -3.5615    0.0870 H   0  0  0  0  0  0  0  0  0  0  0  0
    3.2033   -1.4400    0.1546 C   0  0  0  0  0  0  0  0  0  0  0  0
    4.4304   -0.9192    0.5896 C   0  0  0  0  0  0  0  0  0  0  0  0
    5.2499   -1.5794    0.8329 H   0  0  0  0  0  0  0  0  0  0  0  0
    4.5784    0.4735    0.7061 C   0  0  0  0  0  0  0  0  0  0  0  0
    5.5173    0.8932    1.0410 H   0  0  0  0  0  0  0  0  0  0  0  0
    3.5004    1.3215    0.3926 C   0  0  0  0  0  0  0  0  0  0  0  0
    3.6159    2.3920    0.4916 H   0  0  0  0  0  0  0  0  0  0  0  0
    2.2709    0.7869   -0.0417 C   0  0  0  0  0  0  0  0  0  0  0  0
    1.4467    1.4489   -0.2665 H   0  0  0  0  0  0  0  0  0  0  0  0
    2.0923   -0.6071   -0.1751 C   0  0  0  0  0  0  0  0  0  0  0  0
   -1.7617    0.8549   -0.2106 C   0  0  0  0  0  0  0  0  0  0  0  0
   -2.5726    1.1871   -1.0741 O   0  0  0  0  0  0  0  0  0  0  0  0
   -1.1941    1.7377    0.6223 N   0  0  0  0  0  0  0  0  0  0  0  0
   -0.4976    1.3916    1.2669 H   0  0  0  0  0  0  0  0  0  0  0  0
   -1.4666    3.1722    0.6095 C   0  0  0  0  0  0  0  0  0  0  0  0
   -2.5439    3.3427    0.6539 H   0  0  0  0  0  0  0  0  0  0  0  0
   -0.9893    3.6529    1.4644 H   0  0  0  0  0  0  0  0  0  0  0  0
   -1.0808    3.6095   -0.3129 H   0  0  0  0  0  0  0  0  0  0  0  0
  5  6  2  0  0  0  0
  5  7  1  0  0  0  0
  2  3  1  0  0  0  0
  2  4  1  0  0  0  0
  2  5  1  0  0  0  0
  1  2  1  0  0  0  0
 29 30  2  0  0  0  0
 29 31  1  0  0  0  0
 26 27  1  0  0  0  0
 26 28  2  0  0  0  0
 24 25  1  0  0  0  0
 24 26  1  0  0  0  0
 22 23  1  0  0  0  0
 22 24  2  0  0  0  0
 20 21  1  0  0  0  0
 20 22  1  0  0  0  0
 19 20  2  0  0  0  0
 19 28  1  0  0  0  0
 17 18  1  0  0  0  0
 17 19  1  0  0  0  0
 15 16  1  0  0  0  0
 15 17  1  0  0  0  0
 14 15  2  0  0  0  0
 14 28  1  0  0  0  0
 11 12  1  0  0  0  0
 11 13  1  0  0  0  0
 11 14  1  0  0  0  0
  9 10  1  0  0  0  0
  9 11  1  0  0  0  0
  9 29  1  0  0  0  0
  7  8  1  0  0  0  0
  7  9  1  0  0  0  0
 33 34  1  0  0  0  0
 33 35  1  0  0  0  0
 33 36  1  0  0  0  0
 31 32  1  0  0  0  0
 31 33  1  0  0  0  0
M  END
$$$$
default_name
  -OEChem-02102213163D

 36 37  0     1  0  0  0  0  0999 V2000
   -4.0843   -4.0736    1.2944 H   0  0  0  0  0  0  0  0  0  0  0  0
   -4.0342   -3.2816    0.5484 C   0  0  0  0  0  0  0  0  0  0  0  0
   -4.8842   -2.6126    0.6694 H   0  0  0  0  0  0  0  0  0  0  0  0
   -4.0433   -3.7186   -0.4486 H   0  0  0  0  0  0  0  0  0  0  0  0
   -2.7532   -2.5046    0.7444 C   0  0  0  0  0  0  0  0  0  0  0  0
   -1.9803   -2.8096    1.6434 O   0  0  0  0  0  0  0  0  0  0  0  0
   -2.5332   -1.4966   -0.0966 N   0  0  0  0  0  0  0  0  0  0  0  0
   -3.2312   -1.2816   -0.7936 H   0  0  0  0  0  0  0  0  0  0  0  0
   -1.3593   -0.6196   -0.0536 C   0  0  1  0  0  0  0  0  0  0  0  0
   -0.8788   -0.7266    0.9196 H   0  0  0  0  0  0  0  0  0  0  0  0
   -0.3559   -1.0533   -1.1339 C   0  0  0  0  0  0  0  0  0  0  0  0
   -0.7760   -1.8958   -1.6862 H   0  0  0  0  0  0  0  0  0  0  0  0
   -0.2254   -0.2293   -1.8375 H   0  0  0  0  0  0  0  0  0  0  0  0
    0.9932   -1.4603   -0.6235 C   0  0  0  0  0  0  0  0  0  0  0  0
    1.5635   -2.6747   -0.7898 C   0  0  0  0  0  0  0  0  0  0  0  0
    1.0982   -3.5103   -1.3010 H   0  0  0  0  0  0  0  0  0  0  0  0
    2.8260   -2.6752   -0.2297 N   0  0  0  0  0  0  0  0  0  0  0  0
    3.4360   -3.4796   -0.2318 H   0  0  0  0  0  0  0  0  0  0  0  0
    3.1404   -1.4480    0.3143 C   0  0  0  0  0  0  0  0  0  0  0  0
    4.2834   -0.9484    0.9548 C   0  0  0  0  0  0  0  0  0  0  0  0
    5.1467   -1.5799    1.1053 H   0  0  0  0  0  0  0  0  0  0  0  0
    4.2891    0.3846    1.3999 C   0  0  0  0  0  0  0  0  0  0  0  0
    5.1614    0.7869    1.8969 H   0  0  0  0  0  0  0  0  0  0  0  0
    3.1551    1.1939    1.2037 C   0  0  0  0  0  0  0  0  0  0  0  0
    3.1606    2.2164    1.5551 H   0  0  0  0  0  0  0  0  0  0  0  0
    2.0110    0.6806    0.5603 C   0  0  0  0  0  0  0  0  0  0  0  0
    1.1418    1.3090    0.4280 H   0  0  0  0  0  0  0  0  0  0  0  0
    1.9761   -0.6522    0.0962 C   0  0  0  0  0  0  0  0  0  0  0  0
   -1.7617    0.8549   -0.2106 C   0  0  0  0  0  0  0  0  0  0  0  0
   -2.5726    1.1871   -1.0741 O   0  0  0  0  0  0  0  0  0  0  0  0
   -1.1941    1.7377    0.6223 N   0  0  0  0  0  0  0  0  0  0  0  0
   -0.4976    1.3916    1.2669 H   0  0  0  0  0  0  0  0  0  0  0  0
   -1.4666    3.1722    0.6095 C   0  0  0  0  0  0  0  0  0  0  0  0
   -2.5439    3.3427    0.6539 H   0  0  0  0  0  0  0  0  0  0  0  0
   -0.9893    3.6529    1.4644 H   0  0  0  0  0  0  0  0  0  0  0  0
   -1.0808    3.6095   -0.3129 H   0  0  0  0  0  0  0  0  0  0  0  0
  5  6  2  0  0  0  0
  5  7  1  0  0  0  0
  2  3  1  0  0  0  0
  2  4  1  0  0  0  0
  2  5  1  0  0  0  0
  1  2  1  0  0  0  0
 29 30  2  0  0  0  0
 29 31  1  0  0  0  0
 26 27  1  0  0  0  0
 26 28  2  0  0  0  0
 24 25  1  0  0  0  0
 24 26  1  0  0  0  0
 22 23  1  0  0  0  0
 22 24  2  0  0  0  0
 20 21  1  0  0  0  0
 20 22  1  0  0  0  0
 19 20  2  0  0  0  0
 19 28  1  0  0  0  0
 17 18  1  0  0  0  0
 17 19  1  0  0  0  0
 15 16  1  0  0  0  0
 15 17  1  0  0  0  0
 14 15  2  0  0  0  0
 14 28  1  0  0  0  0
 11 12  1  0  0  0  0
 11 13  1  0  0  0  0
 11 14  1  0  0  0  0
  9 10  1  0  0  0  0
  9 11  1  0  0  0  0
  9 29  1  0  0  0  0
  7  8  1  0  0  0  0
  7  9  1  0  0  0  0
 33 34  1  0  0  0  0
 33 35  1  0  0  0  0
 33 36  1  0  0  0  0
 31 32  1  0  0  0  0
 31 33  1  0  0  0  0
M  END
$$$$
default_name
  -OEChem-02102213163D

 36 37  0     1  0  0  0  0  0999 V2000
   -4.0843   -4.0736    1.2944 H   0  0  0  0  0  0  0  0  0  0  0  0
   -4.0342   -3.2816    0.5484 C   0  0  0  0  0  0  0  0  0  0  0  0
   -4.8842   -2.6126    0.6694 H   0  0  0  0  0  0  0  0  0  0  0  0
   -4.0433   -3.7186   -0.4486 H   0  0  0  0  0  0  0  0  0  0  0  0
   -2.7532   -2.5046    0.7444 C   0  0  0  0  0  0  0  0  0  0  0  0
   -1.9803   -2.8096    1.6434 O   0  0  0  0  0  0  0  0  0  0  0  0
   -2.5332   -1.4966   -0.0966 N   0  0  0  0  0  0  0  0  0  0  0  0
   -3.2312   -1.2816   -0.7936 H   0  0  0  0  0  0  0  0  0  0  0  0
   -1.3593   -0.6196   -0.0536 C   0  0  1  0  0  0  0  0  0  0  0  0
   -0.8788   -0.7266    0.9196 H   0  0  0  0  0  0  0  0  0  0  0  0
   -0.3559   -1.0533   -1.1339 C   0  0  0  0  0  0  0  0  0  0  0  0
   -0.7760   -1.8958   -1.6862 H   0  0  0  0  0  0  0  0  0  0  0  0
   -0.2254   -0.2293   -1.8375 H   0  0  0  0  0  0  0  0  0  0  0  0
    0.9932   -1.4603   -0.6235 C   0  0  0  0  0  0  0  0  0  0  0  0
    1.6869   -2.5516   -1.0178 C   0  0  0  0  0  0  0  0  0  0  0  0
    1.3359   -3.2772   -1.7433 H   0  0  0  0  0  0  0  0  0  0  0  0
    2.9078   -2.5836   -0.3728 N   0  0  0  0  0  0  0  0  0  0  0  0
    3.5915   -3.3134   -0.5105 H   0  0  0  0  0  0  0  0  0  0  0  0
    3.0693   -1.4984    0.4622 C   0  0  0  0  0  0  0  0  0  0  0  0
    4.1183   -1.0747    1.2906 C   0  0  0  0  0  0  0  0  0  0  0  0
    5.0280   -1.6528    1.3610 H   0  0  0  0  0  0  0  0  0  0  0  0
    3.9687    0.1116    2.0290 C   0  0  0  0  0  0  0  0  0  0  0  0
    4.7669    0.4535    2.6740 H   0  0  0  0  0  0  0  0  0  0  0  0
    2.7757    0.8512    1.9332 C   0  0  0  0  0  0  0  0  0  0  0  0
    2.6616    1.7589    2.5094 H   0  0  0  0  0  0  0  0  0  0  0  0
    1.7271    0.4147    1.0989 C   0  0  0  0  0  0  0  0  0  0  0  0
    0.8107    0.9851    1.0447 H   0  0  0  0  0  0  0  0  0  0  0  0
    1.8487   -0.7693    0.3396 C   0  0  0  0  0  0  0  0  0  0  0  0
   -1.7617    0.8549   -0.2106 C   0  0  0  0  0  0  0  0  0  0  0  0
   -2.5726    1.1871   -1.0741 O   0  0  0  0  0  0  0  0  0  0  0  0
   -1.1941    1.7377    0.6223 N   0  0  0  0  0  0  0  0  0  0  0  0
   -0.4976    1.3916    1.2669 H   0  0  0  0  0  0  0  0  0  0  0  0
   -1.4666    3.1722    0.6095 C   0  0  0  0  0  0  0  0  0  0  0  0
   -2.5439    3.3427    0.6539 H   0  0  0  0  0  0  0  0  0  0  0  0
   -0.9893    3.6529    1.4644 H   0  0  0  0  0  0  0  0  0  0  0  0
   -1.0808    3.6095   -0.3129 H   0  0  0  0  0  0  0  0  0  0  0  0
  5  6  2  0  0  0  0
  5  7  1  0  0  0  0
  2  3  1  0  0  0  0
  2  4  1  0  0  0  0
  2  5  1  0  0  0  0
  1  2  1  0  0  0  0
 29 30  2  0  0  0  0
 29 31  1  0  0  0  0
 26 27  1  0  0  0  0
 26 28  2  0  0  0  0
 24 25  1  0  0  0  0
 24 26  1  0  0  0  0
 22 23  1  0  0  0  0
 22 24  2  0  0  0  0
 20 21  1  0  0  0  0
 20 22  1  0  0  0  0
 19 20  2  0  0  0  0
 19 28  1  0  0  0  0
 17 18  1  0  0  0  0
 17 19  1  0  0  0  0
 15 16  1  0  0  0  0
 15 17  1  0  0  0  0
 14 15  2  0  0  0  0
 14 28  1  0  0  0  0
 11 12  1  0  0  0  0
 11 13  1  0  0  0  0
 11 14  1  0  0  0  0
  9 10  1  0  0  0  0
  9 11  1  0  0  0  0
  9 29  1  0  0  0  0
  7  8  1  0  0  0  0
  7  9  1  0  0  0  0
 33 34  1  0  0  0  0
 33 35  1  0  0  0  0
 33 36  1  0  0  0  0
 31 32  1  0  0  0  0
 31 33  1  0  0  0  0
M  END
$$$$
default_name
  -OEChem-02102213163D

 36 37  0     1  0  0  0  0  0999 V2000
   -4.0843   -4.0736    1.2944 H   0  0  0  0  0  0  0  0  0  0  0  0
   -4.0342   -3.2816    0.5484 C   0  0  0  0  0  0  0  0  0  0  0  0
   -4.8842   -2.6126    0.6694 H   0  0  0  0  0  0  0  0  0  0  0  0
   -4.0433   -3.7186   -0.4486 H   0  0  0  0  0  0  0  0  0  0  0  0
   -2.7532   -2.5046    0.7444 C   0  0  0  0  0  0  0  0  0  0  0  0
   -1.9803   -2.8096    1.6434 O   0  0  0  0  0  0  0  0  0  0  0  0
   -2.5332   -1.4966   -0.0966 N   0  0  0  0  0  0  0  0  0  0  0  0
   -3.2312   -1.2816   -0.7936 H   0  0  0  0  0  0  0  0  0  0  0  0
   -1.3593   -0.6196   -0.0536 C   0  0  1  0  0  0  0  0  0  0  0  0
   -0.8788   -0.7266    0.9196 H   0  0  0  0  0  0  0  0  0  0  0  0
   -0.3559   -1.0533   -1.1339 C   0  0  0  0  0  0  0  0  0  0  0  0
   -0.7760   -1.8958   -1.6862 H   0  0  0  0  0  0  0  0  0  0  0  0
   -0.2254   -0.2293   -1.8375 H   0  0  0  0  0  0  0  0  0  0  0  0
    0.9932   -1.4603   -0.6235 C   0  0  0  0  0  0  0  0  0  0  0  0
    1.8113   -2.3686   -1.2008 C   0  0  0  0  0  0  0  0  0  0  0  0
    1.5759   -2.9281   -2.0995 H   0  0  0  0  0  0  0  0  0  0  0  0
    2.9887   -2.4545   -0.4840 N   0  0  0  0  0  0  0  0  0  0  0  0
    3.7467   -3.0742   -0.7301 H   0  0  0  0  0  0  0  0  0  0  0  0
    2.9946   -1.5879    0.5883 C   0  0  0  0  0  0  0  0  0  0  0  0
    3.9464   -1.2894    1.5738 C   0  0  0  0  0  0  0  0  0  0  0  0
    4.9017   -1.7933    1.5827 H   0  0  0  0  0  0  0  0  0  0  0  0
    3.6391   -0.3268    2.5506 C   0  0  0  0  0  0  0  0  0  0  0  0
    4.3605   -0.0844    3.3191 H   0  0  0  0  0  0  0  0  0  0  0  0
    2.3882    0.3168    2.5313 C   0  0  0  0  0  0  0  0  0  0  0  0
    2.1528    1.0506    3.2896 H   0  0  0  0  0  0  0  0  0  0  0  0
    1.4384    0.0074    1.5371 C   0  0  0  0  0  0  0  0  0  0  0  0
    0.4762    0.4995    1.5418 H   0  0  0  0  0  0  0  0  0  0  0  0
    1.7189   -0.9502    0.5385 C   0  0  0  0  0  0  0  0  0  0  0  0
   -1.7617    0.8549   -0.2106 C   0  0  0  0  0  0  0  0  0  0  0  0
   -2.5726    1.1871   -1.0741 O   0  0  0  0  0  0  0  0  0  0  0  0
   -1.1941    1.7377    0.6223 N   0  0  0  0  0  0  0  0  0  0  0  0
   -0.4976    1.3916    1.2669 H   0  0  0  0  0  0  0  0  0  0  0  0
   -1.4666    3.1722    0.6095 C   0  0  0  0  0  0  0  0  0  0  0  0
   -2.5439    3.3427    0.6539 H   0  0  0  0  0  0  0  0  0  0  0  0
   -0.9893    3.6529    1.4644 H   0  0  0  0  0  0  0  0  0  0  0  0
   -1.0808    3.6095   -0.3129 H   0  0  0  0  0  0  0  0  0  0  0  0
  5  6  2  0  0  0  0
  5  7  1  0  0  0  0
  2  3  1  0  0  0  0
  2  4  1  0  0  0  0
  2  5  1  0  0  0  0
  1  2  1  0  0  0  0
 29 30  2  0  0  0  0
 29 31  1  0  0  0  0
 26 27  1  0  0  0  0
 26 28  2  0  0  0  0
 24 25  1  0  0  0  0
 24 26  1  0  0  0  0
 22 23  1  0  0  0  0
 22 24  2  0  0  0  0
 20 21  1  0  0  0  0
 20 22  1  0  0  0  0
 19 20  2  0  0  0  0
 19 28  1  0  0  0  0
 17 18  1  0  0  0  0
 17 19  1  0  0  0  0
 15 16  1  0  0  0  0
 15 17  1  0  0  0  0
 14 15  2  0  0  0  0
 14 28  1  0  0  0  0
 11 12  1  0  0  0  0
 11 13  1  0  0  0  0
 11 14  1  0  0  0  0
  9 10  1  0  0  0  0
  9 11  1  0  0  0  0
  9 29  1  0  0  0  0
  7  8  1  0  0  0  0
  7  9  1  0  0  0  0
 33 34  1  0  0  0  0
 33 35  1  0  0  0  0
 33 36  1  0  0  0  0
 31 32  1  0  0  0  0
 31 33  1  0  0  0  0
M  END
$$$$
default_name
  -OEChem-02102213163D

 36 37  0     1  0  0  0  0  0999 V2000
   -4.0843   -4.0736    1.2944 H   0  0  0  0  0  0  0  0  0  0  0  0
   -4.0342   -3.2816    0.5484 C   0  0  0  0  0  0  0  0  0  0  0  0
   -4.8842   -2.6126    0.6694 H   0  0  0  0  0  0  0  0  0  0  0  0
   -4.0433   -3.7186   -0.4486 H   0  0  0  0  0  0  0  0  0  0  0  0
   -2.7532   -2.5046    0.7444 C   0  0  0  0  0  0  0  0  0  0  0  0
   -1.9803   -2.8096    1.6434 O   0  0  0  0  0  0  0  0  0  0  0  0
   -2.5332   -1.4966   -0.0966 N   0  0  0  0  0  0  0  0  0  0  0  0
   -3.2312   -1.2816   -0.7936 H   0  0  0  0  0  0  0  0  0  0  0  0
   -1.3593   -0.6196   -0.0536 C   0  0  1  0  0  0  0  0  0  0  0  0
   -0.8788   -0.7266    0.9196 H   0  0  0  0  0  0  0  0  0  0  0  0
   -0.3559   -1.0533   -1.1339 C   0  0  0  0  0  0  0  0  0  0  0  0
   -0.7760   -1.8958   -1.6862 H   0  0  0  0  0  0  0  0  0  0  0  0
   -0.2254   -0.2293   -1.8375 H   0  0  0  0  0  0  0  0  0  0  0  0
    0.9932   -1.4603   -0.6235 C   0  0  0  0  0  0  0  0  0  0  0  0
    1.9282   -2.1384   -1.3261 C   0  0  0  0  0  0  0  0  0  0  0  0
    1.8021   -2.4868   -2.3453 H   0  0  0  0  0  0  0  0  0  0  0  0
    3.0634   -2.2968   -0.5556 N   0  0  0  0  0  0  0  0  0  0  0  0
    3.8910   -2.7784   -0.8755 H   0  0  0  0  0  0  0  0  0  0  0  0
    2.9214   -1.7103    0.6840 C   0  0  0  0  0  0  0  0  0  0  0  0
    3.7794   -1.5780    1.7853 C   0  0  0  0  0  0  0  0  0  0  0  0
    4.7766   -1.9919    1.7552 H   0  0  0  0  0  0  0  0  0  0  0  0
    3.3228   -0.9009    2.9291 C   0  0  0  0  0  0  0  0  0  0  0  0
    3.9701   -0.7900    3.7884 H   0  0  0  0  0  0  0  0  0  0  0  0
    2.0190   -0.3729    2.9573 C   0  0  0  0  0  0  0  0  0  0  0  0
    1.6689    0.1399    3.8424 H   0  0  0  0  0  0  0  0  0  0  0  0
    1.1646   -0.5136    1.8453 C   0  0  0  0  0  0  0  0  0  0  0  0
    0.1609   -0.1149    1.8852 H   0  0  0  0  0  0  0  0  0  0  0  0
    1.5955   -1.1828    0.6793 C   0  0  0  0  0  0  0  0  0  0  0  0
   -1.7617    0.8549   -0.2106 C   0  0  0  0  0  0  0  0  0  0  0  0
   -2.5726    1.1871   -1.0741 O   0  0  0  0  0  0  0  0  0  0  0  0
   -1.1941    1.7377    0.6223 N   0  0  0  0  0  0  0  0  0  0  0  0
   -0.4976    1.3916    1.2669 H   0  0  0  0  0  0  0  0  0  0  0  0
   -1.4666    3.1722    0.6095 C   0  0  0  0  0  0  0  0  0  0  0  0
   -2.5439    3.3427    0.6539 H   0  0  0  0  0  0  0  0  0  0  0  0
   -0.9893    3.6529    1.4644 H   0  0  0  0  0  0  0  0  0  0  0  0
   -1.0808    3.6095   -0.3129 H   0  0  0  0  0  0  0  0  0  0  0  0
  5  6  2  0  0  0  0
  5  7  1  0  0  0  0
  2  3  1  0  0  0  0
  2  4  1  0  0  0  0
  2  5  1  0  0  0  0
  1  2  1  0  0  0  0
 29 30  2  0  0  0  0
 29 31  1  0  0  0  0
 26 27  1  0  0  0  0
 26 28  2  0  0  0  0
 24 25  1  0  0  0  0
 24 26  1  0  0  0  0
 22 23  1  0  0  0  0
 22 24  2  0  0  0  0
 20 21  1  0  0  0  0
 20 22  1  0  0  0  0
 19 20  2  0  0  0  0
 19 28  1  0  0  0  0
 17 18  1  0  0  0  0
 17 19  1  0  0  0  0
 15 16  1  0  0  0  0
 15 17  1  0  0  0  0
 14 15  2  0  0  0  0
 14 28  1  0  0  0  0
 11 12  1  0  0  0  0
 11 13  1  0  0  0  0
 11 14  1  0  0  0  0
  9 10  1  0  0  0  0
  9 11  1  0  0  0  0
  9 29  1  0  0  0  0
  7  8  1  0  0  0  0
  7  9  1  0  0  0  0
 33 34  1  0  0  0  0
 33 35  1  0  0  0  0
 33 36  1  0  0  0  0
 31 32  1  0  0  0  0
 31 33  1  0  0  0  0
M  END
$$$$
default_name
  -OEChem-02102213163D

 36 37  0     1  0  0  0  0  0999 V2000
   -4.0843   -4.0736    1.2944 H   0  0  0  0  0  0  0  0  0  0  0  0
   -4.0342   -3.2816    0.5484 C   0  0  0  0  0  0  0  0  0  0  0  0
   -4.8842   -2.6126    0.6694 H   0  0  0  0  0  0  0  0  0  0  0  0
   -4.0433   -3.7186   -0.4486 H   0  0  0  0  0  0  0  0  0  0  0  0
   -2.7532   -2.5046    0.7444 C   0  0  0  0  0  0  0  0  0  0  0  0
   -1.9803   -2.8096    1.6434 O   0  0  0  0  0  0  0  0  0  0  0  0
   -2.5332   -1.4966   -0.0966 N   0  0  0  0  0  0  0  0  0  0  0  0
   -3.2312   -1.2816   -0.7936 H   0  0  0  0  0  0  0  0  0  0  0  0
   -1.3593   -0.6196   -0.0536 C   0  0  1  0  0  0  0  0  0  0  0  0
   -0.8788   -0.7266    0.9196 H   0  0  0  0  0  0  0  0  0  0  0  0
   -0.3559   -1.0533   -1.1339 C   0  0  0  0  0  0  0  0  0  0  0  0
   -0.8668   -1.7007   -1.8488 H   0  0  0  0  0  0  0  0  0  0  0  0
   -0.0208   -0.1656   -1.6731 H   0  0  0  0  0  0  0  0  0  0  0  0
    0.8501   -1.7842   -0.6264 C   0  0  0  0  0  0  0  0  0  0  0  0
    1.8607   -2.2588   -1.3887 C   0  0  0  0  0  0  0  0  0  0  0  0
    1.9075   -2.1815   -2.4694 H   0  0  0  0  0  0  0  0  0  0  0  0
    2.8221   -2.8326   -0.5801 N   0  0  0  0  0  0  0  0  0  0  0  0
    3.6670   -3.2568   -0.9342 H   0  0  0  0  0  0  0  0  0  0  0  0
    2.4844   -2.7408    0.7535 C   0  0  0  0  0  0  0  0  0  0  0  0
    3.1283   -3.1373    1.9344 C   0  0  0  0  0  0  0  0  0  0  0  0
    4.0893   -3.6288    1.8954 H   0  0  0  0  0  0  0  0  0  0  0  0
    2.5049   -2.8877    3.1689 C   0  0  0  0  0  0  0  0  0  0  0  0
    2.9861   -3.1874    4.0901 H   0  0  0  0  0  0  0  0  0  0  0  0
    1.2498   -2.2531    3.2047 C   0  0  0  0  0  0  0  0  0  0  0  0
    0.7699   -2.0705    4.1562 H   0  0  0  0  0  0  0  0  0  0  0  0
    0.6109   -1.8607    2.0113 C   0  0  0  0  0  0  0  0  0  0  0  0
   -0.3592   -1.3860    2.0523 H   0  0  0  0  0  0  0  0  0  0  0  0
    1.2137   -2.0915    0.7558 C   0  0  0  0  0  0  0  0  0  0  0  0
   -1.7617    0.8549   -0.2106 C   0  0  0  0  0  0  0  0  0  0  0  0
   -2.5726    1.1871   -1.0741 O   0  0  0  0  0  0  0  0  0  0  0  0
   -1.1941    1.7377    0.6223 N   0  0  0  0  0  0  0  0  0  0  0  0
   -0.4976    1.3916    1.2669 H   0  0  0  0  0  0  0  0  0  0  0  0
   -1.4666    3.1722    0.6095 C   0  0  0  0  0  0  0  0  0  0  0  0
   -2.5439    3.3427    0.6539 H   0  0  0  0  0  0  0  0  0  0  0  0
   -0.9893    3.6529    1.4644 H   0  0  0  0  0  0  0  0  0  0  0  0
   -1.0808    3.6095   -0.3129 H   0  0  0  0  0  0  0  0  0  0  0  0
  5  6  2  0  0  0  0
  5  7  1  0  0  0  0
  2  3  1  0  0  0  0
  2  4  1  0  0  0  0
  2  5  1  0  0  0  0
  1  2  1  0  0  0  0
 29 30  2  0  0  0  0
 29 31  1  0  0  0  0
 26 27  1  0  0  0  0
 26 28  2  0  0  0  0
 24 25  1  0  0  0  0
 24 26  1  0  0  0  0
 22 23  1  0  0  0  0
 22 24  2  0  0  0  0
 20 21  1  0  0  0  0
 20 22  1  0  0  0  0
 19 20  2  0  0  0  0
 19 28  1  0  0  0  0
 17 18  1  0  0  0  0
 17 19  1  0  0  0  0
 15 16  1  0  0  0  0
 15 17  1  0  0  0  0
 14 15  2  0  0  0  0
 14 28  1  0  0  0  0
 11 12  1  0  0  0  0
 11 13  1  0  0  0  0
 11 14  1  0  0  0  0
  9 10  1  0  0  0  0
  9 11  1  0  0  0  0
  9 29  1  0  0  0  0
  7  8  1  0  0  0  0
  7  9  1  0  0  0  0
 33 34  1  0  0  0  0
 33 35  1  0  0  0  0
 33 36  1  0  0  0  0
 31 32  1  0  0  0  0
 31 33  1  0  0  0  0
M  END
$$$$
default_name
  -OEChem-02102213163D

 36 37  0     1  0  0  0  0  0999 V2000
   -4.0843   -4.0736    1.2944 H   0  0  0  0  0  0  0  0  0  0  0  0
   -4.0342   -3.2816    0.5484 C   0  0  0  0  0  0  0  0  0  0  0  0
   -4.8842   -2.6126    0.6694 H   0  0  0  0  0  0  0  0  0  0  0  0
   -4.0433   -3.7186   -0.4486 H   0  0  0  0  0  0  0  0  0  0  0  0
   -2.7532   -2.5046    0.7444 C   0  0  0  0  0  0  0  0  0  0  0  0
   -1.9803   -2.8096    1.6434 O   0  0  0  0  0  0  0  0  0  0  0  0
   -2.5332   -1.4966   -0.0966 N   0  0  0  0  0  0  0  0  0  0  0  0
   -3.2312   -1.2816   -0.7936 H   0  0  0  0  0  0  0  0  0  0  0  0
   -1.3593   -0.6196   -0.0536 C   0  0  1  0  0  0  0  0  0  0  0  0
   -0.8788   -0.7266    0.9196 H   0  0  0  0  0  0  0  0  0  0  0  0
   -0.3559   -1.0533   -1.1339 C   0  0  0  0  0  0  0  0  0  0  0  0
   -0.8668   -1.7007   -1.8488 H   0  0  0  0  0  0  0  0  0  0  0  0
   -0.0208   -0.1656   -1.6731 H   0  0  0  0  0  0  0  0  0  0  0  0
    0.8501   -1.7842   -0.6264 C   0  0  0  0  0  0  0  0  0  0  0  0
    1.9856   -2.0084   -1.3249 C   0  0  0  0  0  0  0  0  0  0  0  0
    2.1504   -1.6984   -2.3510 H   0  0  0  0  0  0  0  0  0  0  0  0
    2.8989   -2.6688   -0.5267 N   0  0  0  0  0  0  0  0  0  0  0  0
    3.8179   -2.9435   -0.8416 H   0  0  0  0  0  0  0  0  0  0  0  0
    2.4001   -2.8897    0.7395 C   0  0  0  0  0  0  0  0  0  0  0  0
    2.9382   -3.4807    1.8917 C   0  0  0  0  0  0  0  0  0  0  0  0
    3.9419   -3.8797    1.8845 H   0  0  0  0  0  0  0  0  0  0  0  0
    2.1526   -3.5480    3.0550 C   0  0  0  0  0  0  0  0  0  0  0  0
    2.5506   -4.0011    3.9529 H   0  0  0  0  0  0  0  0  0  0  0  0
    0.8443   -3.0306    3.0483 C   0  0  0  0  0  0  0  0  0  0  0  0
    0.2405   -3.0920    3.9431 H   0  0  0  0  0  0  0  0  0  0  0  0
    0.3131   -2.4406    1.8838 C   0  0  0  0  0  0  0  0  0  0  0  0
   -0.6981   -2.0591    1.8883 H   0  0  0  0  0  0  0  0  0  0  0  0
    1.0787   -2.3521    0.7011 C   0  0  0  0  0  0  0  0  0  0  0  0
   -1.7617    0.8549   -0.2106 C   0  0  0  0  0  0  0  0  0  0  0  0
   -2.5726    1.1871   -1.0741 O   0  0  0  0  0  0  0  0  0  0  0  0
   -1.1941    1.7377    0.6223 N   0  0  0  0  0  0  0  0  0  0  0  0
   -0.4976    1.3916    1.2669 H   0  0  0  0  0  0  0  0  0  0  0  0
   -1.4666    3.1722    0.6095 C   0  0  0  0  0  0  0  0  0  0  0  0
   -2.5439    3.3427    0.6539 H   0  0  0  0  0  0  0  0  0  0  0  0
   -0.9893    3.6529    1.4644 H   0  0  0  0  0  0  0  0  0  0  0  0
   -1.0808    3.6095   -0.3129 H   0  0  0  0  0  0  0  0  0  0  0  0
  5  6  2  0  0  0  0
  5  7  1  0  0  0  0
  2  3  1  0  0  0  0
  2  4  1  0  0  0  0
  2  5  1  0  0  0  0
  1  2  1  0  0  0  0
 29 30  2  0  0  0  0
 29 31  1  0  0  0  0
 26 27  1  0  0  0  0
 26 28  2  0  0  0  0
 24 25  1  0  0  0  0
 24 26  1  0  0  0  0
 22 23  1  0  0  0  0
 22 24  2  0  0  0  0
 20 21  1  0  0  0  0
 20 22  1  0  0  0  0
 19 20  2  0  0  0  0
 19 28  1  0  0  0  0
 17 18  1  0  0  0  0
 17 19  1  0  0  0  0
 15 16  1  0  0  0  0
 15 17  1  0  0  0  0
 14 15  2  0  0  0  0
 14 28  1  0  0  0  0
 11 12  1  0  0  0  0
 11 13  1  0  0  0  0
 11 14  1  0  0  0  0
  9 10  1  0  0  0  0
  9 11  1  0  0  0  0
  9 29  1  0  0  0  0
  7  8  1  0  0  0  0
  7  9  1  0  0  0  0
 33 34  1  0  0  0  0
 33 35  1  0  0  0  0
 33 36  1  0  0  0  0
 31 32  1  0  0  0  0
 31 33  1  0  0  0  0
M  END
$$$$
default_name
  -OEChem-02102213163D

 36 37  0     1  0  0  0  0  0999 V2000
   -4.0843   -4.0736    1.2944 H   0  0  0  0  0  0  0  0  0  0  0  0
   -4.0342   -3.2816    0.5484 C   0  0  0  0  0  0  0  0  0  0  0  0
   -4.8842   -2.6126    0.6694 H   0  0  0  0  0  0  0  0  0  0  0  0
   -4.0433   -3.7186   -0.4486 H   0  0  0  0  0  0  0  0  0  0  0  0
   -2.7532   -2.5046    0.7444 C   0  0  0  0  0  0  0  0  0  0  0  0
   -1.9803   -2.8096    1.6434 O   0  0  0  0  0  0  0  0  0  0  0  0
   -2.5332   -1.4966   -0.0966 N   0  0  0  0  0  0  0  0  0  0  0  0
   -3.2312   -1.2816   -0.7936 H   0  0  0  0  0  0  0  0  0  0  0  0
   -1.3593   -0.6196   -0.0536 C   0  0  1  0  0  0  0  0  0  0  0  0
   -0.8788   -0.7266    0.9196 H   0  0  0  0  0  0  0  0  0  0  0  0
   -0.3559   -1.0533   -1.1339 C   0  0  0  0  0  0  0  0  0  0  0  0
   -0.8668   -1.7007   -1.8488 H   0  0  0  0  0  0  0  0  0  0  0  0
   -0.0208   -0.1656   -1.6731 H   0  0  0  0  0  0  0  0  0  0  0  0
    0.8501   -1.7842   -0.6264 C   0  0  0  0  0  0  0  0  0  0  0  0
    2.0763   -1.7688   -1.1954 C   0  0  0  0  0  0  0  0  0  0  0  0
    2.3278   -1.2352   -2.1054 H   0  0  0  0  0  0  0  0  0  0  0  0
    2.9520   -2.5150   -0.4313 N   0  0  0  0  0  0  0  0  0  0  0  0
    3.9245   -2.6470   -0.6679 H   0  0  0  0  0  0  0  0  0  0  0  0
    2.3334   -3.0381    0.6843 C   0  0  0  0  0  0  0  0  0  0  0  0
    2.7900   -3.8201    1.7549 C   0  0  0  0  0  0  0  0  0  0  0  0
    3.8228   -4.1327    1.8031 H   0  0  0  0  0  0  0  0  0  0  0  0
    1.8846   -4.1929    2.7631 C   0  0  0  0  0  0  0  0  0  0  0  0
    2.2186   -4.7968    3.5960 H   0  0  0  0  0  0  0  0  0  0  0  0
    0.5406   -3.7847    2.6841 C   0  0  0  0  0  0  0  0  0  0  0  0
   -0.1544   -4.0807    3.4576 H   0  0  0  0  0  0  0  0  0  0  0  0
    0.0923   -3.0004    1.6023 C   0  0  0  0  0  0  0  0  0  0  0  0
   -0.9458   -2.7048    1.5470 H   0  0  0  0  0  0  0  0  0  0  0  0
    0.9781   -2.6043    0.5770 C   0  0  0  0  0  0  0  0  0  0  0  0
   -1.7617    0.8549   -0.2106 C   0  0  0  0  0  0  0  0  0  0  0  0
   -2.5726    1.1871   -1.0741 O   0  0  0  0  0  0  0  0  0  0  0  0
   -1.1941    1.7377    0.6223 N   0  0  0  0  0  0  0  0  0  0  0  0
   -0.4976    1.3916    1.2669 H   0  0  0  0  0  0  0  0  0  0  0  0
   -1.4666    3.1722    0.6095 C   0  0  0  0  0  0  0  0  0  0  0  0
   -2.5439    3.3427    0.6539 H   0  0  0  0  0  0  0  0  0  0  0  0
   -0.9893    3.6529    1.4644 H   0  0  0  0  0  0  0  0  0  0  0  0
   -1.0808    3.6095   -0.3129 H   0  0  0  0  0  0  0  0  0  0  0  0
  5  6  2  0  0  0  0
  5  7  1  0  0  0  0
  2  3  1  0  0  0  0
  2  4  1  0  0  0  0
  2  5  1  0  0  0  0
  1  2  1  0  0  0  0
 29 30  2  0  0  0  0
 29 31  1  0  0  0  0
 26 27  1  0  0  0  0
 26 28  2  0  0  0  0
 24 25  1  0  0  0  0
 24 26  1  0  0  0  0
 22 23  1  0  0  0  0
 22 24  2  0  0  0  0
 20 21  1  0  0  0  0
 20 22  1  0  0  0  0
 19 20  2  0  0  0  0
 19 28  1  0  0  0  0
 17 18  1  0  0  0  0
 17 19  1  0  0  0  0
 15 16  1  0  0  0  0
 15 17  1  0  0  0  0
 14 15  2  0  0  0  0
 14 28  1  0  0  0  0
 11 12  1  0  0  0  0
 11 13  1  0  0  0  0
 11 14  1  0  0  0  0
  9 10  1  0  0  0  0
  9 11  1  0  0  0  0
  9 29  1  0  0  0  0
  7  8  1  0  0  0  0
  7  9  1  0  0  0  0
 33 34  1  0  0  0  0
 33 35  1  0  0  0  0
 33 36  1  0  0  0  0
 31 32  1  0  0  0  0
 31 33  1  0  0  0  0
M  END
$$$$
default_name
  -OEChem-02102213163D

 36 37  0     1  0  0  0  0  0999 V2000
   -4.0843   -4.0736    1.2944 H   0  0  0  0  0  0  0  0  0  0  0  0
   -4.0342   -3.2816    0.5484 C   0  0  0  0  0  0  0  0  0  0  0  0
   -4.8842   -2.6126    0.6694 H   0  0  0  0  0  0  0  0  0  0  0  0
   -4.0433   -3.7186   -0.4486 H   0  0  0  0  0  0  0  0  0  0  0  0
   -2.7532   -2.5046    0.7444 C   0  0  0  0  0  0  0  0  0  0  0  0
   -1.9803   -2.8096    1.6434 O   0  0  0  0  0  0  0  0  0  0  0  0
   -2.5332   -1.4966   -0.0966 N   0  0  0  0  0  0  0  0  0  0  0  0
   -3.2312   -1.2816   -0.7936 H   0  0  0  0  0  0  0  0  0  0  0  0
   -1.3593   -0.6196   -0.0536 C   0  0  1  0  0  0  0  0  0  0  0  0
   -0.8788   -0.7266    0.9196 H   0  0  0  0  0  0  0  0  0  0  0  0
   -0.3559   -1.0533   -1.1339 C   0  0  0  0  0  0  0  0  0  0  0  0
   -0.8668   -1.7007   -1.8488 H   0  0  0  0  0  0  0  0  0  0  0  0
   -0.0208   -0.1656   -1.6731 H   0  0  0  0  0  0  0  0  0  0  0  0
    0.8501   -1.7842   -0.6264 C   0  0  0  0  0  0  0  0  0  0  0  0
    2.1266   -1.5565   -1.0090 C   0  0  0  0  0  0  0  0  0  0  0  0
    2.4276   -0.8234   -1.7493 H   0  0  0  0  0  0  0  0  0  0  0  0
    2.9777   -2.3817   -0.3004 N   0  0  0  0  0  0  0  0  0  0  0  0
    3.9796   -2.3874   -0.4249 H   0  0  0  0  0  0  0  0  0  0  0  0
    2.2890   -3.1757    0.5917 C   0  0  0  0  0  0  0  0  0  0  0  0
    2.6939   -4.1325    1.5334 C   0  0  0  0  0  0  0  0  0  0  0  0
    3.7402   -4.3706    1.6567 H   0  0  0  0  0  0  0  0  0  0  0  0
    1.7191   -4.7785    2.3130 C   0  0  0  0  0  0  0  0  0  0  0  0
    2.0127   -5.5200    3.0436 H   0  0  0  0  0  0  0  0  0  0  0  0
    0.3592   -4.4638    2.1369 C   0  0  0  0  0  0  0  0  0  0  0  0
   -0.3880   -4.9692    2.7329 H   0  0  0  0  0  0  0  0  0  0  0  0
   -0.0364   -3.5018    1.1860 C   0  0  0  0  0  0  0  0  0  0  0  0
   -1.0854   -3.2792    1.0515 H   0  0  0  0  0  0  0  0  0  0  0  0
    0.9187   -2.8309    0.3918 C   0  0  0  0  0  0  0  0  0  0  0  0
   -1.7617    0.8549   -0.2106 C   0  0  0  0  0  0  0  0  0  0  0  0
   -2.5726    1.1871   -1.0741 O   0  0  0  0  0  0  0  0  0  0  0  0
   -1.1941    1.7377    0.6223 N   0  0  0  0  0  0  0  0  0  0  0  0
   -0.4976    1.3916    1.2669 H   0  0  0  0  0  0  0  0  0  0  0  0
   -1.4666    3.1722    0.6095 C   0  0  0  0  0  0  0  0  0  0  0  0
   -2.5439    3.3427    0.6539 H   0  0  0  0  0  0  0  0  0  0  0  0
   -0.9893    3.6529    1.4644 H   0  0  0  0  0  0  0  0  0  0  0  0
   -1.0808    3.6095   -0.3129 H   0  0  0  0  0  0  0  0  0  0  0  0
  5  6  2  0  0  0  0
  5  7  1  0  0  0  0
  2  3  1  0  0  0  0
  2  4  1  0  0  0  0
  2  5  1  0  0  0  0
  1  2  1  0  0  0  0
 29 30  2  0  0  0  0
 29 31  1  0  0  0  0
 26 27  1  0  0  0  0
 26 28  2  0  0  0  0
 24 25  1  0  0  0  0
 24 26  1  0  0  0  0
 22 23  1  0  0  0  0
 22 24  2  0  0  0  0
 20 21  1  0  0  0  0
 20 22  1  0  0  0  0
 19 20  2  0  0  0  0
 19 28  1  0  0  0  0
 17 18  1  0  0  0  0
 17 19  1  0  0  0  0
 15 16  1  0  0  0  0
 15 17  1  0  0  0  0
 14 15  2  0  0  0  0
 14 28  1  0  0  0  0
 11 12  1  0  0  0  0
 11 13  1  0  0  0  0
 11 14  1  0  0  0  0
  9 10  1  0  0  0  0
  9 11  1  0  0  0  0
  9 29  1  0  0  0  0
  7  8  1  0  0  0  0
  7  9  1  0  0  0  0
 33 34  1  0  0  0  0
 33 35  1  0  0  0  0
 33 36  1  0  0  0  0
 31 32  1  0  0  0  0
 31 33  1  0  0  0  0
M  END
$$$$
default_name
  -OEChem-02102213163D

 36 37  0     1  0  0  0  0  0999 V2000
   -4.0843   -4.0736    1.2944 H   0  0  0  0  0  0  0  0  0  0  0  0
   -4.0342   -3.2816    0.5484 C   0  0  0  0  0  0  0  0  0  0  0  0
   -4.8842   -2.6126    0.6694 H   0  0  0  0  0  0  0  0  0  0  0  0
   -4.0433   -3.7186   -0.4486 H   0  0  0  0  0  0  0  0  0  0  0  0
   -2.7532   -2.5046    0.7444 C   0  0  0  0  0  0  0  0  0  0  0  0
   -1.9803   -2.8096    1.6434 O   0  0  0  0  0  0  0  0  0  0  0  0
   -2.5332   -1.4966   -0.0966 N   0  0  0  0  0  0  0  0  0  0  0  0
   -3.2312   -1.2816   -0.7936 H   0  0  0  0  0  0  0  0  0  0  0  0
   -1.3593   -0.6196   -0.0536 C   0  0  1  0  0  0  0  0  0  0  0  0
   -0.8788   -0.7266    0.9196 H   0  0  0  0  0  0  0  0  0  0  0  0
   -0.3559   -1.0533   -1.1339 C   0  0  0  0  0  0  0  0  0  0  0  0
   -0.8668   -1.7007   -1.8488 H   0  0  0  0  0  0  0  0  0  0  0  0
   -0.0208   -0.1656   -1.6731 H   0  0  0  0  0  0  0  0  0  0  0  0
    0.8501   -1.7842   -0.6264 C   0  0  0  0  0  0  0  0  0  0  0  0
    2.1330   -1.3858   -0.7783 C   0  0  0  0  0  0  0  0  0  0  0  0
    2.4429   -0.4910   -1.3070 H   0  0  0  0  0  0  0  0  0  0  0  0
    2.9744   -2.2779   -0.1430 N   0  0  0  0  0  0  0  0  0  0  0  0
    3.9793   -2.1824   -0.1291 H   0  0  0  0  0  0  0  0  0  0  0  0
    2.2698   -3.2932    0.4680 C   0  0  0  0  0  0  0  0  0  0  0  0
    2.6564   -4.3966    1.2422 C   0  0  0  0  0  0  0  0  0  0  0  0
    3.6997   -4.5771    1.4554 H   0  0  0  0  0  0  0  0  0  0  0  0
    1.6674   -5.2649    1.7353 C   0  0  0  0  0  0  0  0  0  0  0  0
    1.9469   -6.1216    2.3334 H   0  0  0  0  0  0  0  0  0  0  0  0
    0.3127   -5.0217    1.4441 C   0  0  0  0  0  0  0  0  0  0  0  0
   -0.4443   -5.6970    1.8184 H   0  0  0  0  0  0  0  0  0  0  0  0
   -0.0642   -3.9107    0.6631 C   0  0  0  0  0  0  0  0  0  0  0  0
   -1.1074   -3.7430    0.4357 H   0  0  0  0  0  0  0  0  0  0  0  0
    0.9045   -3.0164    0.1583 C   0  0  0  0  0  0  0  0  0  0  0  0
   -1.7617    0.8549   -0.2106 C   0  0  0  0  0  0  0  0  0  0  0  0
   -2.5726    1.1871   -1.0741 O   0  0  0  0  0  0  0  0  0  0  0  0
   -1.1941    1.7377    0.6223 N   0  0  0  0  0  0  0  0  0  0  0  0
   -0.4976    1.3916    1.2669 H   0  0  0  0  0  0  0  0  0  0  0  0
   -1.4666    3.1722    0.6095 C   0  0  0  0  0  0  0  0  0  0  0  0
   -2.5439    3.3427    0.6539 H   0  0  0  0  0  0  0  0  0  0  0  0
   -0.9893    3.6529    1.4644 H   0  0  0  0  0  0  0  0  0  0  0  0
   -1.0808    3.6095   -0.3129 H   0  0  0  0  0  0  0  0  0  0  0  0
  5  6  2  0  0  0  0
  5  7  1  0  0  0  0
  2  3  1  0  0  0  0
  2  4  1  0  0  0  0
  2  5  1  0  0  0  0
  1  2  1  0  0  0  0
 29 30  2  0  0  0  0
 29 31  1  0  0  0  0
 26 27  1  0  0  0  0
 26 28  2  0  0  0  0
 24 25  1  0  0  0  0
 24 26  1  0  0  0  0
 22 23  1  0  0  0  0
 22 24  2  0  0  0  0
 20 21  1  0  0  0  0
 20 22  1  0  0  0  0
 19 20  2  0  0  0  0
 19 28  1  0  0  0  0
 17 18  1  0  0  0  0
 17 19  1  0  0  0  0
 15 16  1  0  0  0  0
 15 17  1  0  0  0  0
 14 15  2  0  0  0  0
 14 28  1  0  0  0  0
 11 12  1  0  0  0  0
 11 13  1  0  0  0  0
 11 14  1  0  0  0  0
  9 10  1  0  0  0  0
  9 11  1  0  0  0  0
  9 29  1  0  0  0  0
  7  8  1  0  0  0  0
  7  9  1  0  0  0  0
 33 34  1  0  0  0  0
 33 35  1  0  0  0  0
 33 36  1  0  0  0  0
 31 32  1  0  0  0  0
 31 33  1  0  0  0  0
M  END
$$$$
default_name
  -OEChem-02102213163D

 36 37  0     1  0  0  0  0  0999 V2000
   -4.0843   -4.0736    1.2944 H   0  0  0  0  0  0  0  0  0  0  0  0
   -4.0342   -3.2816    0.5484 C   0  0  0  0  0  0  0  0  0  0  0  0
   -4.8842   -2.6126    0.6694 H   0  0  0  0  0  0  0  0  0  0  0  0
   -4.0433   -3.7186   -0.4486 H   0  0  0  0  0  0  0  0  0  0  0  0
   -2.7532   -2.5046    0.7444 C   0  0  0  0  0  0  0  0  0  0  0  0
   -1.9803   -2.8096    1.6434 O   0  0  0  0  0  0  0  0  0  0  0  0
   -2.5332   -1.4966   -0.0966 N   0  0  0  0  0  0  0  0  0  0  0  0
   -3.2312   -1.2816   -0.7936 H   0  0  0  0  0  0  0  0  0  0  0  0
   -1.3593   -0.6196   -0.0536 C   0  0  1  0  0  0  0  0  0  0  0  0
   -0.8788   -0.7266    0.9196 H   0  0  0  0  0  0  0  0  0  0  0  0
   -0.3559   -1.0533   -1.1339 C   0  0  0  0  0  0  0  0  0  0  0  0
   -0.8668   -1.7007   -1.8488 H   0  0  0  0  0  0  0  0  0  0  0  0
   -0.0208   -0.1656   -1.6731 H   0  0  0  0  0  0  0  0  0  0  0  0
    0.8501   -1.7842   -0.6264 C   0  0  0  0  0  0  0  0  0  0  0  0
    2.0951   -1.2683   -0.5191 C   0  0  0  0  0  0  0  0  0  0  0  0
    2.3727   -0.2607   -0.8086 H   0  0  0  0  0  0  0  0  0  0  0  0
    2.9422   -2.2107    0.0302 N   0  0  0  0  0  0  0  0  0  0  0  0
    3.9238   -2.0460    0.1993 H   0  0  0  0  0  0  0  0  0  0  0  0
    2.2772   -3.3827    0.3215 C   0  0  0  0  0  0  0  0  0  0  0  0
    2.6800   -4.5943    0.9013 C   0  0  0  0  0  0  0  0  0  0  0  0
    3.7042   -4.7382    1.2128 H   0  0  0  0  0  0  0  0  0  0  0  0
    1.7330   -5.6189    1.0695 C   0  0  0  0  0  0  0  0  0  0  0  0
    2.0257   -6.5606    1.5138 H   0  0  0  0  0  0  0  0  0  0  0  0
    0.4040   -5.4204    0.6527 C   0  0  0  0  0  0  0  0  0  0  0  0
   -0.3194   -6.2144    0.7764 H   0  0  0  0  0  0  0  0  0  0  0  0
    0.0108   -4.1992    0.0694 C   0  0  0  0  0  0  0  0  0  0  0  0
   -1.0102   -4.0647   -0.2585 H   0  0  0  0  0  0  0  0  0  0  0  0
    0.9366   -3.1482   -0.1077 C   0  0  0  0  0  0  0  0  0  0  0  0
   -1.7617    0.8549   -0.2106 C   0  0  0  0  0  0  0  0  0  0  0  0
   -2.5726    1.1871   -1.0741 O   0  0  0  0  0  0  0  0  0  0  0  0
   -1.1941    1.7377    0.6223 N   0  0  0  0  0  0  0  0  0  0  0  0
   -0.4976    1.3916    1.2669 H   0  0  0  0  0  0  0  0  0  0  0  0
   -1.4666    3.1722    0.6095 C   0  0  0  0  0  0  0  0  0  0  0  0
   -2.5439    3.3427    0.6539 H   0  0  0  0  0  0  0  0  0  0  0  0
   -0.9893    3.6529    1.4644 H   0  0  0  0  0  0  0  0  0  0  0  0
   -1.0808    3.6095   -0.3129 H   0  0  0  0  0  0  0  0  0  0  0  0
  5  6  2  0  0  0  0
  5  7  1  0  0  0  0
  2  3  1  0  0  0  0
  2  4  1  0  0  0  0
  2  5  1  0  0  0  0
  1  2  1  0  0  0  0
 29 30  2  0  0  0  0
 29 31  1  0  0  0  0
 26 27  1  0  0  0  0
 26 28  2  0  0  0  0
 24 25  1  0  0  0  0
 24 26  1  0  0  0  0
 22 23  1  0  0  0  0
 22 24  2  0  0  0  0
 20 21  1  0  0  0  0
 20 22  1  0  0  0  0
 19 20  2  0  0  0  0
 19 28  1  0  0  0  0
 17 18  1  0  0  0  0
 17 19  1  0  0  0  0
 15 16  1  0  0  0  0
 15 17  1  0  0  0  0
 14 15  2  0  0  0  0
 14 28  1  0  0  0  0
 11 12  1  0  0  0  0
 11 13  1  0  0  0  0
 11 14  1  0  0  0  0
  9 10  1  0  0  0  0
  9 11  1  0  0  0  0
  9 29  1  0  0  0  0
  7  8  1  0  0  0  0
  7  9  1  0  0  0  0
 33 34  1  0  0  0  0
 33 35  1  0  0  0  0
 33 36  1  0  0  0  0
 31 32  1  0  0  0  0
 31 33  1  0  0  0  0
M  END
$$$$
default_name
  -OEChem-02102213163D

 36 37  0     1  0  0  0  0  0999 V2000
   -4.0843   -4.0736    1.2944 H   0  0  0  0  0  0  0  0  0  0  0  0
   -4.0342   -3.2816    0.5484 C   0  0  0  0  0  0  0  0  0  0  0  0
   -4.8842   -2.6126    0.6694 H   0  0  0  0  0  0  0  0  0  0  0  0
   -4.0433   -3.7186   -0.4486 H   0  0  0  0  0  0  0  0  0  0  0  0
   -2.7532   -2.5046    0.7444 C   0  0  0  0  0  0  0  0  0  0  0  0
   -1.9803   -2.8096    1.6434 O   0  0  0  0  0  0  0  0  0  0  0  0
   -2.5332   -1.4966   -0.0966 N   0  0  0  0  0  0  0  0  0  0  0  0
   -3.2312   -1.2816   -0.7936 H   0  0  0  0  0  0  0  0  0  0  0  0
   -1.3593   -0.6196   -0.0536 C   0  0  1  0  0  0  0  0  0  0  0  0
   -0.8788   -0.7266    0.9196 H   0  0  0  0  0  0  0  0  0  0  0  0
   -0.3559   -1.0533   -1.1339 C   0  0  0  0  0  0  0  0  0  0  0  0
   -0.8668   -1.7007   -1.8488 H   0  0  0  0  0  0  0  0  0  0  0  0
   -0.0208   -0.1656   -1.6731 H   0  0  0  0  0  0  0  0  0  0  0  0
    0.8501   -1.7842   -0.6264 C   0  0  0  0  0  0  0  0  0  0  0  0
    2.0155   -1.2122   -0.2491 C   0  0  0  0  0  0  0  0  0  0  0  0
    2.2218   -0.1482   -0.2880 H   0  0  0  0  0  0  0  0  0  0  0  0
    2.8834   -2.1847    0.2075 N   0  0  0  0  0  0  0  0  0  0  0  0
    3.8168   -1.9876    0.5378 H   0  0  0  0  0  0  0  0  0  0  0  0
    2.3106   -3.4379    0.1624 C   0  0  0  0  0  0  0  0  0  0  0  0
    2.7632   -4.7121    0.5338 C   0  0  0  0  0  0  0  0  0  0  0  0
    3.7532   -4.8430    0.9455 H   0  0  0  0  0  0  0  0  0  0  0  0
    1.9114   -5.8165    0.3609 C   0  0  0  0  0  0  0  0  0  0  0  0
    2.2438   -6.8070    0.6407 H   0  0  0  0  0  0  0  0  0  0  0  0
    0.6271   -5.6327   -0.1831 C   0  0  0  0  0  0  0  0  0  0  0  0
   -0.0219   -6.4863   -0.3221 H   0  0  0  0  0  0  0  0  0  0  0  0
    0.1834   -4.3476   -0.5547 C   0  0  0  0  0  0  0  0  0  0  0  0
   -0.8005   -4.2223   -0.9838 H   0  0  0  0  0  0  0  0  0  0  0  0
    1.0126   -3.2173   -0.3880 C   0  0  0  0  0  0  0  0  0  0  0  0
   -1.7617    0.8549   -0.2106 C   0  0  0  0  0  0  0  0  0  0  0  0
   -2.5726    1.1871   -1.0741 O   0  0  0  0  0  0  0  0  0  0  0  0
   -1.1941    1.7377    0.6223 N   0  0  0  0  0  0  0  0  0  0  0  0
   -0.4976    1.3916    1.2669 H   0  0  0  0  0  0  0  0  0  0  0  0
   -1.4666    3.1722    0.6095 C   0  0  0  0  0  0  0  0  0  0  0  0
   -2.5439    3.3427    0.6539 H   0  0  0  0  0  0  0  0  0  0  0  0
   -0.9893    3.6529    1.4644 H   0  0  0  0  0  0  0  0  0  0  0  0
   -1.0808    3.6095   -0.3129 H   0  0  0  0  0  0  0  0  0  0  0  0
  5  6  2  0  0  0  0
  5  7  1  0  0  0  0
  2  3  1  0  0  0  0
  2  4  1  0  0  0  0
  2  5  1  0  0  0  0
  1  2  1  0  0  0  0
 29 30  2  0  0  0  0
 29 31  1  0  0  0  0
 26 27  1  0  0  0  0
 26 28  2  0  0  0  0
 24 25  1  0  0  0  0
 24 26  1  0  0  0  0
 22 23  1  0  0  0  0
 22 24  2  0  0  0  0
 20 21  1  0  0  0  0
 20 22  1  0  0  0  0
 19 20  2  0  0  0  0
 19 28  1  0  0  0  0
 17 18  1  0  0  0  0
 17 19  1  0  0  0  0
 15 16  1  0  0  0  0
 15 17  1  0  0  0  0
 14 15  2  0  0  0  0
 14 28  1  0  0  0  0
 11 12  1  0  0  0  0
 11 13  1  0  0  0  0
 11 14  1  0  0  0  0
  9 10  1  0  0  0  0
  9 11  1  0  0  0  0
  9 29  1  0  0  0  0
  7  8  1  0  0  0  0
  7  9  1  0  0  0  0
 33 34  1  0  0  0  0
 33 35  1  0  0  0  0
 33 36  1  0  0  0  0
 31 32  1  0  0  0  0
 31 33  1  0  0  0  0
M  END
$$$$
default_name
  -OEChem-02102213163D

 36 37  0     1  0  0  0  0  0999 V2000
   -4.0843   -4.0736    1.2944 H   0  0  0  0  0  0  0  0  0  0  0  0
   -4.0342   -3.2816    0.5484 C   0  0  0  0  0  0  0  0  0  0  0  0
   -4.8842   -2.6126    0.6694 H   0  0  0  0  0  0  0  0  0  0  0  0
   -4.0433   -3.7186   -0.4486 H   0  0  0  0  0  0  0  0  0  0  0  0
   -2.7532   -2.5046    0.7444 C   0  0  0  0  0  0  0  0  0  0  0  0
   -1.9803   -2.8096    1.6434 O   0  0  0  0  0  0  0  0  0  0  0  0
   -2.5332   -1.4966   -0.0966 N   0  0  0  0  0  0  0  0  0  0  0  0
   -3.2312   -1.2816   -0.7936 H   0  0  0  0  0  0  0  0  0  0  0  0
   -1.3593   -0.6196   -0.0536 C   0  0  1  0  0  0  0  0  0  0  0  0
   -0.8788   -0.7266    0.9196 H   0  0  0  0  0  0  0  0  0  0  0  0
   -0.3559   -1.0533   -1.1339 C   0  0  0  0  0  0  0  0  0  0  0  0
   -0.8668   -1.7007   -1.8488 H   0  0  0  0  0  0  0  0  0  0  0  0
   -0.0208   -0.1656   -1.6731 H   0  0  0  0  0  0  0  0  0  0  0  0
    0.8501   -1.7842   -0.6264 C   0  0  0  0  0  0  0  0  0  0  0  0
    1.8996   -1.2212    0.0133 C   0  0  0  0  0  0  0  0  0  0  0  0
    2.0005   -0.1612    0.2192 H   0  0  0  0  0  0  0  0  0  0  0  0
    2.8019   -2.2016    0.3767 N   0  0  0  0  0  0  0  0  0  0  0  0
    3.6656   -2.0110    0.8635 H   0  0  0  0  0  0  0  0  0  0  0  0
    2.3679   -3.4552    0.0014 C   0  0  0  0  0  0  0  0  0  0  0  0
    2.9004   -4.7422    0.1647 C   0  0  0  0  0  0  0  0  0  0  0  0
    3.8435   -4.8841    0.6716 H   0  0  0  0  0  0  0  0  0  0  0  0
    2.1905   -5.8441   -0.3421 C   0  0  0  0  0  0  0  0  0  0  0  0
    2.5863   -6.8441   -0.2265 H   0  0  0  0  0  0  0  0  0  0  0  0
    0.9667   -5.6441   -1.0066 C   0  0  0  0  0  0  0  0  0  0  0  0
    0.4280   -6.4940   -1.4022 H   0  0  0  0  0  0  0  0  0  0  0  0
    0.4420   -4.3459   -1.1666 C   0  0  0  0  0  0  0  0  0  0  0  0
   -0.4926   -4.2051   -1.6908 H   0  0  0  0  0  0  0  0  0  0  0  0
    1.1276   -3.2190   -0.6636 C   0  0  0  0  0  0  0  0  0  0  0  0
   -1.7617    0.8549   -0.2106 C   0  0  0  0  0  0  0  0  0  0  0  0
   -2.5726    1.1871   -1.0741 O   0  0  0  0  0  0  0  0  0  0  0  0
   -1.1941    1.7377    0.6223 N   0  0  0  0  0  0  0  0  0  0  0  0
   -0.4976    1.3916    1.2669 H   0  0  0  0  0  0  0  0  0  0  0  0
   -1.4666    3.1722    0.6095 C   0  0  0  0  0  0  0  0  0  0  0  0
   -2.5439    3.3427    0.6539 H   0  0  0  0  0  0  0  0  0  0  0  0
   -0.9893    3.6529    1.4644 H   0  0  0  0  0  0  0  0  0  0  0  0
   -1.0808    3.6095   -0.3129 H   0  0  0  0  0  0  0  0  0  0  0  0
  5  6  2  0  0  0  0
  5  7  1  0  0  0  0
  2  3  1  0  0  0  0
  2  4  1  0  0  0  0
  2  5  1  0  0  0  0
  1  2  1  0  0  0  0
 29 30  2  0  0  0  0
 29 31  1  0  0  0  0
 26 27  1  0  0  0  0
 26 28  2  0  0  0  0
 24 25  1  0  0  0  0
 24 26  1  0  0  0  0
 22 23  1  0  0  0  0
 22 24  2  0  0  0  0
 20 21  1  0  0  0  0
 20 22  1  0  0  0  0
 19 20  2  0  0  0  0
 19 28  1  0  0  0  0
 17 18  1  0  0  0  0
 17 19  1  0  0  0  0
 15 16  1  0  0  0  0
 15 17  1  0  0  0  0
 14 15  2  0  0  0  0
 14 28  1  0  0  0  0
 11 12  1  0  0  0  0
 11 13  1  0  0  0  0
 11 14  1  0  0  0  0
  9 10  1  0  0  0  0
  9 11  1  0  0  0  0
  9 29  1  0  0  0  0
  7  8  1  0  0  0  0
  7  9  1  0  0  0  0
 33 34  1  0  0  0  0
 33 35  1  0  0  0  0
 33 36  1  0  0  0  0
 31 32  1  0  0  0  0
 31 33  1  0  0  0  0
M  END
$$$$
default_name
  -OEChem-02102213163D

 36 37  0     1  0  0  0  0  0999 V2000
   -4.0843   -4.0736    1.2944 H   0  0  0  0  0  0  0  0  0  0  0  0
   -4.0342   -3.2816    0.5484 C   0  0  0  0  0  0  0  0  0  0  0  0
   -4.8842   -2.6126    0.6694 H   0  0  0  0  0  0  0  0  0  0  0  0
   -4.0433   -3.7186   -0.4486 H   0  0  0  0  0  0  0  0  0  0  0  0
   -2.7532   -2.5046    0.7444 C   0  0  0  0  0  0  0  0  0  0  0  0
   -1.9803   -2.8096    1.6434 O   0  0  0  0  0  0  0  0  0  0  0  0
   -2.5332   -1.4966   -0.0966 N   0  0  0  0  0  0  0  0  0  0  0  0
   -3.2312   -1.2816   -0.7936 H   0  0  0  0  0  0  0  0  0  0  0  0
   -1.3593   -0.6196   -0.0536 C   0  0  1  0  0  0  0  0  0  0  0  0
   -0.8788   -0.7266    0.9196 H   0  0  0  0  0  0  0  0  0  0  0  0
   -0.3559   -1.0533   -1.1339 C   0  0  0  0  0  0  0  0  0  0  0  0
   -0.8668   -1.7007   -1.8488 H   0  0  0  0  0  0  0  0  0  0  0  0
   -0.0208   -0.1656   -1.6731 H   0  0  0  0  0  0  0  0  0  0  0  0
    0.8501   -1.7842   -0.6264 C   0  0  0  0  0  0  0  0  0  0  0  0
    1.7553   -1.2947    0.2503 C   0  0  0  0  0  0  0  0  0  0  0  0
    1.7239   -0.2988    0.6784 H   0  0  0  0  0  0  0  0  0  0  0  0
    2.7033   -2.2604    0.5264 N   0  0  0  0  0  0  0  0  0  0  0  0
    3.4804   -2.1147    1.1541 H   0  0  0  0  0  0  0  0  0  0  0  0
    2.4450   -3.4334   -0.1504 C   0  0  0  0  0  0  0  0  0  0  0  0
    3.0820   -4.6823   -0.1807 C   0  0  0  0  0  0  0  0  0  0  0  0
    3.9689   -4.8589    0.4100 H   0  0  0  0  0  0  0  0  0  0  0  0
    2.5513   -5.7000   -0.9917 C   0  0  0  0  0  0  0  0  0  0  0  0
    3.0297   -6.6693   -1.0286 H   0  0  0  0  0  0  0  0  0  0  0  0
    1.3996   -5.4539   -1.7614 C   0  0  0  0  0  0  0  0  0  0  0  0
    0.9995   -6.2371   -2.3904 H   0  0  0  0  0  0  0  0  0  0  0  0
    0.7688   -4.1941   -1.7247 C   0  0  0  0  0  0  0  0  0  0  0  0
   -0.1075   -4.0143   -2.3312 H   0  0  0  0  0  0  0  0  0  0  0  0
    1.2735   -3.1532   -0.9156 C   0  0  0  0  0  0  0  0  0  0  0  0
   -1.7617    0.8549   -0.2106 C   0  0  0  0  0  0  0  0  0  0  0  0
   -2.5726    1.1871   -1.0741 O   0  0  0  0  0  0  0  0  0  0  0  0
   -1.1941    1.7377    0.6223 N   0  0  0  0  0  0  0  0  0  0  0  0
   -0.4976    1.3916    1.2669 H   0  0  0  0  0  0  0  0  0  0  0  0
   -1.4666    3.1722    0.6095 C   0  0  0  0  0  0  0  0  0  0  0  0
   -2.5439    3.3427    0.6539 H   0  0  0  0  0  0  0  0  0  0  0  0
   -0.9893    3.6529    1.4644 H   0  0  0  0  0  0  0  0  0  0  0  0
   -1.0808    3.6095   -0.3129 H   0  0  0  0  0  0  0  0  0  0  0  0
  5  6  2  0  0  0  0
  5  7  1  0  0  0  0
  2  3  1  0  0  0  0
  2  4  1  0  0  0  0
  2  5  1  0  0  0  0
  1  2  1  0  0  0  0
 29 30  2  0  0  0  0
 29 31  1  0  0  0  0
 26 27  1  0  0  0  0
 26 28  2  0  0  0  0
 24 25  1  0  0  0  0
 24 26  1  0  0  0  0
 22 23  1  0  0  0  0
 22 24  2  0  0  0  0
 20 21  1  0  0  0  0
 20 22  1  0  0  0  0
 19 20  2  0  0  0  0
 19 28  1  0  0  0  0
 17 18  1  0  0  0  0
 17 19  1  0  0  0  0
 15 16  1  0  0  0  0
 15 17  1  0  0  0  0
 14 15  2  0  0  0  0
 14 28  1  0  0  0  0
 11 12  1  0  0  0  0
 11 13  1  0  0  0  0
 11 14  1  0  0  0  0
  9 10  1  0  0  0  0
  9 11  1  0  0  0  0
  9 29  1  0  0  0  0
  7  8  1  0  0  0  0
  7  9  1  0  0  0  0
 33 34  1  0  0  0  0
 33 35  1  0  0  0  0
 33 36  1  0  0  0  0
 31 32  1  0  0  0  0
 31 33  1  0  0  0  0
M  END
$$$$
default_name
  -OEChem-02102213163D

 36 37  0     1  0  0  0  0  0999 V2000
   -4.0843   -4.0736    1.2944 H   0  0  0  0  0  0  0  0  0  0  0  0
   -4.0342   -3.2816    0.5484 C   0  0  0  0  0  0  0  0  0  0  0  0
   -4.8842   -2.6126    0.6694 H   0  0  0  0  0  0  0  0  0  0  0  0
   -4.0433   -3.7186   -0.4486 H   0  0  0  0  0  0  0  0  0  0  0  0
   -2.7532   -2.5046    0.7444 C   0  0  0  0  0  0  0  0  0  0  0  0
   -1.9803   -2.8096    1.6434 O   0  0  0  0  0  0  0  0  0  0  0  0
   -2.5332   -1.4966   -0.0966 N   0  0  0  0  0  0  0  0  0  0  0  0
   -3.2312   -1.2816   -0.7936 H   0  0  0  0  0  0  0  0  0  0  0  0
   -1.3593   -0.6196   -0.0536 C   0  0  1  0  0  0  0  0  0  0  0  0
   -0.8788   -0.7266    0.9196 H   0  0  0  0  0  0  0  0  0  0  0  0
   -0.3559   -1.0533   -1.1339 C   0  0  0  0  0  0  0  0  0  0  0  0
   -0.8668   -1.7007   -1.8488 H   0  0  0  0  0  0  0  0  0  0  0  0
   -0.0208   -0.1656   -1.6731 H   0  0  0  0  0  0  0  0  0  0  0  0
    0.8501   -1.7842   -0.6264 C   0  0  0  0  0  0  0  0  0  0  0  0
    1.5924   -1.4277    0.4457 C   0  0  0  0  0  0  0  0  0  0  0  0
    1.4107   -0.5516    1.0585 H   0  0  0  0  0  0  0  0  0  0  0  0
    2.5944   -2.3570    0.6462 N   0  0  0  0  0  0  0  0  0  0  0  0
    3.2740   -2.2916    1.3899 H   0  0  0  0  0  0  0  0  0  0  0  0
    2.5368   -3.3739   -0.2828 C   0  0  0  0  0  0  0  0  0  0  0  0
    3.2958   -4.5366   -0.4790 C   0  0  0  0  0  0  0  0  0  0  0  0
    4.1208   -4.7691    0.1783 H   0  0  0  0  0  0  0  0  0  0  0  0
    2.9691   -5.3938   -1.5437 C   0  0  0  0  0  0  0  0  0  0  0  0
    3.5440   -6.2945   -1.7110 H   0  0  0  0  0  0  0  0  0  0  0  0
    1.8964   -5.0750   -2.3964 C   0  0  0  0  0  0  0  0  0  0  0  0
    1.6538   -5.7330   -3.2193 H   0  0  0  0  0  0  0  0  0  0  0  0
    1.1416   -3.9027   -2.1909 C   0  0  0  0  0  0  0  0  0  0  0  0
    0.3286   -3.6629   -2.8614 H   0  0  0  0  0  0  0  0  0  0  0  0
    1.4405   -3.0243   -1.1269 C   0  0  0  0  0  0  0  0  0  0  0  0
   -1.7617    0.8549   -0.2106 C   0  0  0  0  0  0  0  0  0  0  0  0
   -2.5726    1.1871   -1.0741 O   0  0  0  0  0  0  0  0  0  0  0  0
   -1.1941    1.7377    0.6223 N   0  0  0  0  0  0  0  0  0  0  0  0
   -0.4976    1.3916    1.2669 H   0  0  0  0  0  0  0  0  0  0  0  0
   -1.4666    3.1722    0.6095 C   0  0  0  0  0  0  0  0  0  0  0  0
   -2.5439    3.3427    0.6539 H   0  0  0  0  0  0  0  0  0  0  0  0
   -0.9893    3.6529    1.4644 H   0  0  0  0  0  0  0  0  0  0  0  0
   -1.0808    3.6095   -0.3129 H   0  0  0  0  0  0  0  0  0  0  0  0
  5  6  2  0  0  0  0
  5  7  1  0  0  0  0
  2  3  1  0  0  0  0
  2  4  1  0  0  0  0
  2  5  1  0  0  0  0
  1  2  1  0  0  0  0
 29 30  2  0  0  0  0
 29 31  1  0  0  0  0
 26 27  1  0  0  0  0
 26 28  2  0  0  0  0
 24 25  1  0  0  0  0
 24 26  1  0  0  0  0
 22 23  1  0  0  0  0
 22 24  2  0  0  0  0
 20 21  1  0  0  0  0
 20 22  1  0  0  0  0
 19 20  2  0  0  0  0
 19 28  1  0  0  0  0
 17 18  1  0  0  0  0
 17 19  1  0  0  0  0
 15 16  1  0  0  0  0
 15 17  1  0  0  0  0
 14 15  2  0  0  0  0
 14 28  1  0  0  0  0
 11 12  1  0  0  0  0
 11 13  1  0  0  0  0
 11 14  1  0  0  0  0
  9 10  1  0  0  0  0
  9 11  1  0  0  0  0
  9 29  1  0  0  0  0
  7  8  1  0  0  0  0
  7  9  1  0  0  0  0
 33 34  1  0  0  0  0
 33 35  1  0  0  0  0
 33 36  1  0  0  0  0
 31 32  1  0  0  0  0
 31 33  1  0  0  0  0
M  END
$$$$
default_name
  -OEChem-02102213163D

 36 37  0     1  0  0  0  0  0999 V2000
   -4.0843   -4.0736    1.2944 H   0  0  0  0  0  0  0  0  0  0  0  0
   -4.0342   -3.2816    0.5484 C   0  0  0  0  0  0  0  0  0  0  0  0
   -4.8842   -2.6126    0.6694 H   0  0  0  0  0  0  0  0  0  0  0  0
   -4.0433   -3.7186   -0.4486 H   0  0  0  0  0  0  0  0  0  0  0  0
   -2.7532   -2.5046    0.7444 C   0  0  0  0  0  0  0  0  0  0  0  0
   -1.9803   -2.8096    1.6434 O   0  0  0  0  0  0  0  0  0  0  0  0
   -2.5332   -1.4966   -0.0966 N   0  0  0  0  0  0  0  0  0  0  0  0
   -3.2312   -1.2816   -0.7936 H   0  0  0  0  0  0  0  0  0  0  0  0
   -1.3593   -0.6196   -0.0536 C   0  0  1  0  0  0  0  0  0  0  0  0
   -0.8788   -0.7266    0.9196 H   0  0  0  0  0  0  0  0  0  0  0  0
   -0.3559   -1.0533   -1.1339 C   0  0  0  0  0  0  0  0  0  0  0  0
   -0.8668   -1.7007   -1.8488 H   0  0  0  0  0  0  0  0  0  0  0  0
   -0.0208   -0.1656   -1.6731 H   0  0  0  0  0  0  0  0  0  0  0  0
    0.8501   -1.7842   -0.6264 C   0  0  0  0  0  0  0  0  0  0  0  0
    1.4221   -1.6112    0.5862 C   0  0  0  0  0  0  0  0  0  0  0  0
    1.0825   -0.9023    1.3334 H   0  0  0  0  0  0  0  0  0  0  0  0
    2.4824   -2.4847    0.7282 N   0  0  0  0  0  0  0  0  0  0  0  0
    3.0603   -2.5297    1.5547 H   0  0  0  0  0  0  0  0  0  0  0  0
    2.6369   -3.2809   -0.3868 C   0  0  0  0  0  0  0  0  0  0  0  0
    3.5272   -4.3150   -0.7098 C   0  0  0  0  0  0  0  0  0  0  0  0
    4.2889   -4.6208   -0.0077 H   0  0  0  0  0  0  0  0  0  0  0  0
    3.4155   -4.9465   -1.9603 C   0  0  0  0  0  0  0  0  0  0  0  0
    4.0941   -5.7454   -2.2272 H   0  0  0  0  0  0  0  0  0  0  0  0
    2.4232   -4.5333   -2.8680 C   0  0  0  0  0  0  0  0  0  0  0  0
    2.3462   -5.0162   -3.8323 H   0  0  0  0  0  0  0  0  0  0  0  0
    1.5351   -3.4914   -2.5335 C   0  0  0  0  0  0  0  0  0  0  0  0
    0.7860   -3.1748   -3.2453 H   0  0  0  0  0  0  0  0  0  0  0  0
    1.6172   -2.8412   -1.2831 C   0  0  0  0  0  0  0  0  0  0  0  0
   -1.7617    0.8549   -0.2106 C   0  0  0  0  0  0  0  0  0  0  0  0
   -2.5726    1.1871   -1.0741 O   0  0  0  0  0  0  0  0  0  0  0  0
   -1.1941    1.7377    0.6223 N   0  0  0  0  0  0  0  0  0  0  0  0
   -0.4976    1.3916    1.2669 H   0  0  0  0  0  0  0  0  0  0  0  0
   -1.4666    3.1722    0.6095 C   0  0  0  0  0  0  0  0  0  0  0  0
   -2.5439    3.3427    0.6539 H   0  0  0  0  0  0  0  0  0  0  0  0
   -0.9893    3.6529    1.4644 H   0  0  0  0  0  0  0  0  0  0  0  0
   -1.0808    3.6095   -0.3129 H   0  0  0  0  0  0  0  0  0  0  0  0
  5  6  2  0  0  0  0
  5  7  1  0  0  0  0
  2  3  1  0  0  0  0
  2  4  1  0  0  0  0
  2  5  1  0  0  0  0
  1  2  1  0  0  0  0
 29 30  2  0  0  0  0
 29 31  1  0  0  0  0
 26 27  1  0  0  0  0
 26 28  2  0  0  0  0
 24 25  1  0  0  0  0
 24 26  1  0  0  0  0
 22 23  1  0  0  0  0
 22 24  2  0  0  0  0
 20 21  1  0  0  0  0
 20 22  1  0  0  0  0
 19 20  2  0  0  0  0
 19 28  1  0  0  0  0
 17 18  1  0  0  0  0
 17 19  1  0  0  0  0
 15 16  1  0  0  0  0
 15 17  1  0  0  0  0
 14 15  2  0  0  0  0
 14 28  1  0  0  0  0
 11 12  1  0  0  0  0
 11 13  1  0  0  0  0
 11 14  1  0  0  0  0
  9 10  1  0  0  0  0
  9 11  1  0  0  0  0
  9 29  1  0  0  0  0
  7  8  1  0  0  0  0
  7  9  1  0  0  0  0
 33 34  1  0  0  0  0
 33 35  1  0  0  0  0
 33 36  1  0  0  0  0
 31 32  1  0  0  0  0
 31 33  1  0  0  0  0
M  END
$$$$
default_name
  -OEChem-02102213163D

 36 37  0     1  0  0  0  0  0999 V2000
   -4.0843   -4.0736    1.2944 H   0  0  0  0  0  0  0  0  0  0  0  0
   -4.0342   -3.2816    0.5484 C   0  0  0  0  0  0  0  0  0  0  0  0
   -4.8842   -2.6126    0.6694 H   0  0  0  0  0  0  0  0  0  0  0  0
   -4.0433   -3.7186   -0.4486 H   0  0  0  0  0  0  0  0  0  0  0  0
   -2.7532   -2.5046    0.7444 C   0  0  0  0  0  0  0  0  0  0  0  0
   -1.9803   -2.8096    1.6434 O   0  0  0  0  0  0  0  0  0  0  0  0
   -2.5332   -1.4966   -0.0966 N   0  0  0  0  0  0  0  0  0  0  0  0
   -3.2312   -1.2816   -0.7936 H   0  0  0  0  0  0  0  0  0  0  0  0
   -1.3593   -0.6196   -0.0536 C   0  0  1  0  0  0  0  0  0  0  0  0
   -0.8788   -0.7266    0.9196 H   0  0  0  0  0  0  0  0  0  0  0  0
   -0.3559   -1.0533   -1.1339 C   0  0  0  0  0  0  0  0  0  0  0  0
   -0.8668   -1.7007   -1.8488 H   0  0  0  0  0  0  0  0  0  0  0  0
   -0.0208   -0.1656   -1.6731 H   0  0  0  0  0  0  0  0  0  0  0  0
    0.8501   -1.7842   -0.6264 C   0  0  0  0  0  0  0  0  0  0  0  0
    1.2560   -1.8326    0.6622 C   0  0  0  0  0  0  0  0  0  0  0  0
    0.7614   -1.3272    1.4845 H   0  0  0  0  0  0  0  0  0  0  0  0
    2.3752   -2.6351    0.7665 N   0  0  0  0  0  0  0  0  0  0  0  0
    2.8540   -2.8127    1.6374 H   0  0  0  0  0  0  0  0  0  0  0  0
    2.7386   -3.1605   -0.4551 C   0  0  0  0  0  0  0  0  0  0  0  0
    3.7605   -4.0326   -0.8573 C   0  0  0  0  0  0  0  0  0  0  0  0
    4.4618   -4.4241   -0.1351 H   0  0  0  0  0  0  0  0  0  0  0  0
    3.8601   -4.3885   -2.2132 C   0  0  0  0  0  0  0  0  0  0  0  0
    4.6425   -5.0592   -2.5420 H   0  0  0  0  0  0  0  0  0  0  0  0
    2.9442   -3.8656   -3.1443 C   0  0  0  0  0  0  0  0  0  0  0  0
    3.0296   -4.1355   -4.1878 H   0  0  0  0  0  0  0  0  0  0  0  0
    1.9223   -2.9883   -2.7291 C   0  0  0  0  0  0  0  0  0  0  0  0
    1.2335   -2.5833   -3.4568 H   0  0  0  0  0  0  0  0  0  0  0  0
    1.7916   -2.6164   -1.3735 C   0  0  0  0  0  0  0  0  0  0  0  0
   -1.7617    0.8549   -0.2106 C   0  0  0  0  0  0  0  0  0  0  0  0
   -2.5726    1.1871   -1.0741 O   0  0  0  0  0  0  0  0  0  0  0  0
   -1.1941    1.7377    0.6223 N   0  0  0  0  0  0  0  0  0  0  0  0
   -0.4976    1.3916    1.2669 H   0  0  0  0  0  0  0  0  0  0  0  0
   -1.4666    3.1722    0.6095 C   0  0  0  0  0  0  0  0  0  0  0  0
   -2.5439    3.3427    0.6539 H   0  0  0  0  0  0  0  0  0  0  0  0
   -0.9893    3.6529    1.4644 H   0  0  0  0  0  0  0  0  0  0  0  0
   -1.0808    3.6095   -0.3129 H   0  0  0  0  0  0  0  0  0  0  0  0
  5  6  2  0  0  0  0
  5  7  1  0  0  0  0
  2  3  1  0  0  0  0
  2  4  1  0  0  0  0
  2  5  1  0  0  0  0
  1  2  1  0  0  0  0
 29 30  2  0  0  0  0
 29 31  1  0  0  0  0
 26 27  1  0  0  0  0
 26 28  2  0  0  0  0
 24 25  1  0  0  0  0
 24 26  1  0  0  0  0
 22 23  1  0  0  0  0
 22 24  2  0  0  0  0
 20 21  1  0  0  0  0
 20 22  1  0  0  0  0
 19 20  2  0  0  0  0
 19 28  1  0  0  0  0
 17 18  1  0  0  0  0
 17 19  1  0  0  0  0
 15 16  1  0  0  0  0
 15 17  1  0  0  0  0
 14 15  2  0  0  0  0
 14 28  1  0  0  0  0
 11 12  1  0  0  0  0
 11 13  1  0  0  0  0
 11 14  1  0  0  0  0
  9 10  1  0  0  0  0
  9 11  1  0  0  0  0
  9 29  1  0  0  0  0
  7  8  1  0  0  0  0
  7  9  1  0  0  0  0
 33 34  1  0  0  0  0
 33 35  1  0  0  0  0
 33 36  1  0  0  0  0
 31 32  1  0  0  0  0
 31 33  1  0  0  0  0
M  END
$$$$
default_name
  -OEChem-02102213163D

 36 37  0     1  0  0  0  0  0999 V2000
   -4.0843   -4.0736    1.2944 H   0  0  0  0  0  0  0  0  0  0  0  0
   -4.0342   -3.2816    0.5484 C   0  0  0  0  0  0  0  0  0  0  0  0
   -4.8842   -2.6126    0.6694 H   0  0  0  0  0  0  0  0  0  0  0  0
   -4.0433   -3.7186   -0.4486 H   0  0  0  0  0  0  0  0  0  0  0  0
   -2.7532   -2.5046    0.7444 C   0  0  0  0  0  0  0  0  0  0  0  0
   -1.9803   -2.8096    1.6434 O   0  0  0  0  0  0  0  0  0  0  0  0
   -2.5332   -1.4966   -0.0966 N   0  0  0  0  0  0  0  0  0  0  0  0
   -3.2312   -1.2816   -0.7936 H   0  0  0  0  0  0  0  0  0  0  0  0
   -1.3593   -0.6196   -0.0536 C   0  0  1  0  0  0  0  0  0  0  0  0
   -0.8788   -0.7266    0.9196 H   0  0  0  0  0  0  0  0  0  0  0  0
   -0.3559   -1.0533   -1.1339 C   0  0  0  0  0  0  0  0  0  0  0  0
   -0.8668   -1.7007   -1.8488 H   0  0  0  0  0  0  0  0  0  0  0  0
   -0.0208   -0.1656   -1.6731 H   0  0  0  0  0  0  0  0  0  0  0  0
    0.8501   -1.7842   -0.6264 C   0  0  0  0  0  0  0  0  0  0  0  0
    1.1053   -2.0768    0.6685 C   0  0  0  0  0  0  0  0  0  0  0  0
    0.4695   -1.7971    1.5014 H   0  0  0  0  0  0  0  0  0  0  0  0
    2.2799   -2.7976    0.7588 N   0  0  0  0  0  0  0  0  0  0  0  0
    2.6691   -3.1213    1.6322 H   0  0  0  0  0  0  0  0  0  0  0  0
    2.8350   -3.0212   -0.4833 C   0  0  0  0  0  0  0  0  0  0  0  0
    3.9796   -3.7087   -0.9116 C   0  0  0  0  0  0  0  0  0  0  0  0
    4.6276   -4.1924   -0.1955 H   0  0  0  0  0  0  0  0  0  0  0  0
    4.2726   -3.7579   -2.2852 C   0  0  0  0  0  0  0  0  0  0  0  0
    5.1517   -4.2827   -2.6339 H   0  0  0  0  0  0  0  0  0  0  0  0
    3.4237   -3.1175   -3.2063 C   0  0  0  0  0  0  0  0  0  0  0  0
    3.6574   -3.1508   -4.2614 H   0  0  0  0  0  0  0  0  0  0  0  0
    2.2769   -2.4276   -2.7643 C   0  0  0  0  0  0  0  0  0  0  0  0
    1.6406   -1.9286   -3.4814 H   0  0  0  0  0  0  0  0  0  0  0  0
    1.9517   -2.3650   -1.3920 C   0  0  0  0  0  0  0  0  0  0  0  0
   -1.7617    0.8549   -0.2106 C   0  0  0  0  0  0  0  0  0  0  0  0
   -2.5726    1.1871   -1.0741 O   0  0  0  0  0  0  0  0  0  0  0  0
   -1.1941    1.7377    0.6223 N   0  0  0  0  0  0  0  0  0  0  0  0
   -0.4976    1.3916    1.2669 H   0  0  0  0  0  0  0  0  0  0  0  0
   -1.4666    3.1722    0.6095 C   0  0  0  0  0  0  0  0  0  0  0  0
   -2.5439    3.3427    0.6539 H   0  0  0  0  0  0  0  0  0  0  0  0
   -0.9893    3.6529    1.4644 H   0  0  0  0  0  0  0  0  0  0  0  0
   -1.0808    3.6095   -0.3129 H   0  0  0  0  0  0  0  0  0  0  0  0
  5  6  2  0  0  0  0
  5  7  1  0  0  0  0
  2  3  1  0  0  0  0
  2  4  1  0  0  0  0
  2  5  1  0  0  0  0
  1  2  1  0  0  0  0
 29 30  2  0  0  0  0
 29 31  1  0  0  0  0
 26 27  1  0  0  0  0
 26 28  2  0  0  0  0
 24 25  1  0  0  0  0
 24 26  1  0  0  0  0
 22 23  1  0  0  0  0
 22 24  2  0  0  0  0
 20 21  1  0  0  0  0
 20 22  1  0  0  0  0
 19 20  2  0  0  0  0
 19 28  1  0  0  0  0
 17 18  1  0  0  0  0
 17 19  1  0  0  0  0
 15 16  1  0  0  0  0
 15 17  1  0  0  0  0
 14 15  2  0  0  0  0
 14 28  1  0  0  0  0
 11 12  1  0  0  0  0
 11 13  1  0  0  0  0
 11 14  1  0  0  0  0
  9 10  1  0  0  0  0
  9 11  1  0  0  0  0
  9 29  1  0  0  0  0
  7  8  1  0  0  0  0
  7  9  1  0  0  0  0
 33 34  1  0  0  0  0
 33 35  1  0  0  0  0
 33 36  1  0  0  0  0
 31 32  1  0  0  0  0
 31 33  1  0  0  0  0
M  END
$$$$
default_name
  -OEChem-02102213163D

 36 37  0     1  0  0  0  0  0999 V2000
   -4.0843   -4.0736    1.2944 H   0  0  0  0  0  0  0  0  0  0  0  0
   -4.0342   -3.2816    0.5484 C   0  0  0  0  0  0  0  0  0  0  0  0
   -4.8842   -2.6126    0.6694 H   0  0  0  0  0  0  0  0  0  0  0  0
   -4.0433   -3.7186   -0.4486 H   0  0  0  0  0  0  0  0  0  0  0  0
   -2.7532   -2.5046    0.7444 C   0  0  0  0  0  0  0  0  0  0  0  0
   -1.9803   -2.8096    1.6434 O   0  0  0  0  0  0  0  0  0  0  0  0
   -2.5332   -1.4966   -0.0966 N   0  0  0  0  0  0  0  0  0  0  0  0
   -3.2312   -1.2816   -0.7936 H   0  0  0  0  0  0  0  0  0  0  0  0
   -1.3593   -0.6196   -0.0536 C   0  0  1  0  0  0  0  0  0  0  0  0
   -0.8788   -0.7266    0.9196 H   0  0  0  0  0  0  0  0  0  0  0  0
   -0.3559   -1.0533   -1.1339 C   0  0  0  0  0  0  0  0  0  0  0  0
   -0.8668   -1.7007   -1.8488 H   0  0  0  0  0  0  0  0  0  0  0  0
   -0.0208   -0.1656   -1.6731 H   0  0  0  0  0  0  0  0  0  0  0  0
    0.8501   -1.7842   -0.6264 C   0  0  0  0  0  0  0  0  0  0  0  0
    0.9804   -2.3272    0.6048 C   0  0  0  0  0  0  0  0  0  0  0  0
    0.2265   -2.2802    1.3830 H   0  0  0  0  0  0  0  0  0  0  0  0
    2.2031   -2.9614    0.7054 N   0  0  0  0  0  0  0  0  0  0  0  0
    2.5182   -3.4346    1.5396 H   0  0  0  0  0  0  0  0  0  0  0  0
    2.9193   -2.8723   -0.4693 C   0  0  0  0  0  0  0  0  0  0  0  0
    4.1698   -3.3653   -0.8689 C   0  0  0  0  0  0  0  0  0  0  0  0
    4.7751   -3.9415   -0.1846 H   0  0  0  0  0  0  0  0  0  0  0  0
    4.6248   -3.0977   -2.1713 C   0  0  0  0  0  0  0  0  0  0  0  0
    5.5872   -3.4690   -2.4967 H   0  0  0  0  0  0  0  0  0  0  0  0
    3.8292   -2.3399   -3.0499 C   0  0  0  0  0  0  0  0  0  0  0  0
    4.1868   -2.1293   -4.0483 H   0  0  0  0  0  0  0  0  0  0  0  0
    2.5748   -1.8476   -2.6369 C   0  0  0  0  0  0  0  0  0  0  0  0
    1.9795   -1.2555   -3.3174 H   0  0  0  0  0  0  0  0  0  0  0  0
    2.0867   -2.1044   -1.3373 C   0  0  0  0  0  0  0  0  0  0  0  0
   -1.7617    0.8549   -0.2106 C   0  0  0  0  0  0  0  0  0  0  0  0
   -2.5726    1.1871   -1.0741 O   0  0  0  0  0  0  0  0  0  0  0  0
   -1.1941    1.7377    0.6223 N   0  0  0  0  0  0  0  0  0  0  0  0
   -0.4976    1.3916    1.2669 H   0  0  0  0  0  0  0  0  0  0  0  0
   -1.4666    3.1722    0.6095 C   0  0  0  0  0  0  0  0  0  0  0  0
   -2.5439    3.3427    0.6539 H   0  0  0  0  0  0  0  0  0  0  0  0
   -0.9893    3.6529    1.4644 H   0  0  0  0  0  0  0  0  0  0  0  0
   -1.0808    3.6095   -0.3129 H   0  0  0  0  0  0  0  0  0  0  0  0
  5  6  2  0  0  0  0
  5  7  1  0  0  0  0
  2  3  1  0  0  0  0
  2  4  1  0  0  0  0
  2  5  1  0  0  0  0
  1  2  1  0  0  0  0
 29 30  2  0  0  0  0
 29 31  1  0  0  0  0
 26 27  1  0  0  0  0
 26 28  2  0  0  0  0
 24 25  1  0  0  0  0
 24 26  1  0  0  0  0
 22 23  1  0  0  0  0
 22 24  2  0  0  0  0
 20 21  1  0  0  0  0
 20 22  1  0  0  0  0
 19 20  2  0  0  0  0
 19 28  1  0  0  0  0
 17 18  1  0  0  0  0
 17 19  1  0  0  0  0
 15 16  1  0  0  0  0
 15 17  1  0  0  0  0
 14 15  2  0  0  0  0
 14 28  1  0  0  0  0
 11 12  1  0  0  0  0
 11 13  1  0  0  0  0
 11 14  1  0  0  0  0
  9 10  1  0  0  0  0
  9 11  1  0  0  0  0
  9 29  1  0  0  0  0
  7  8  1  0  0  0  0
  7  9  1  0  0  0  0
 33 34  1  0  0  0  0
 33 35  1  0  0  0  0
 33 36  1  0  0  0  0
 31 32  1  0  0  0  0
 31 33  1  0  0  0  0
M  END
$$$$
default_name
  -OEChem-02102213163D

 36 37  0     1  0  0  0  0  0999 V2000
   -4.0843   -4.0736    1.2944 H   0  0  0  0  0  0  0  0  0  0  0  0
   -4.0342   -3.2816    0.5484 C   0  0  0  0  0  0  0  0  0  0  0  0
   -4.8842   -2.6126    0.6694 H   0  0  0  0  0  0  0  0  0  0  0  0
   -4.0433   -3.7186   -0.4486 H   0  0  0  0  0  0  0  0  0  0  0  0
   -2.7532   -2.5046    0.7444 C   0  0  0  0  0  0  0  0  0  0  0  0
   -1.9803   -2.8096    1.6434 O   0  0  0  0  0  0  0  0  0  0  0  0
   -2.5332   -1.4966   -0.0966 N   0  0  0  0  0  0  0  0  0  0  0  0
   -3.2312   -1.2816   -0.7936 H   0  0  0  0  0  0  0  0  0  0  0  0
   -1.3593   -0.6196   -0.0536 C   0  0  1  0  0  0  0  0  0  0  0  0
   -0.8788   -0.7266    0.9196 H   0  0  0  0  0  0  0  0  0  0  0  0
   -0.3559   -1.0533   -1.1339 C   0  0  0  0  0  0  0  0  0  0  0  0
   -0.8668   -1.7007   -1.8488 H   0  0  0  0  0  0  0  0  0  0  0  0
   -0.0208   -0.1656   -1.6731 H   0  0  0  0  0  0  0  0  0  0  0  0
    0.8501   -1.7842   -0.6264 C   0  0  0  0  0  0  0  0  0  0  0  0
    0.8897   -2.5668    0.4753 C   0  0  0  0  0  0  0  0  0  0  0  0
    0.0491   -2.7434    1.1374 H   0  0  0  0  0  0  0  0  0  0  0  0
    2.1500   -3.1152    0.6100 N   0  0  0  0  0  0  0  0  0  0  0  0
    2.4116   -3.7312    1.3659 H   0  0  0  0  0  0  0  0  0  0  0  0
    2.9860   -2.7239   -0.4141 C   0  0  0  0  0  0  0  0  0  0  0  0
    4.3179   -3.0259   -0.7321 C   0  0  0  0  0  0  0  0  0  0  0  0
    4.8942   -3.6885   -0.1032 H   0  0  0  0  0  0  0  0  0  0  0  0
    4.8928   -2.4528   -1.8793 C   0  0  0  0  0  0  0  0  0  0  0  0
    5.9192   -2.6734   -2.1398 H   0  0  0  0  0  0  0  0  0  0  0  0
    4.1329   -1.5858   -2.6857 C   0  0  0  0  0  0  0  0  0  0  0  0
    4.5817   -1.1406   -3.5628 H   0  0  0  0  0  0  0  0  0  0  0  0
    2.7956   -1.2879   -2.3554 C   0  0  0  0  0  0  0  0  0  0  0  0
    2.2273   -0.6098   -2.9760 H   0  0  0  0  0  0  0  0  0  0  0  0
    2.1873   -1.8521   -1.2132 C   0  0  0  0  0  0  0  0  0  0  0  0
   -1.7617    0.8549   -0.2106 C   0  0  0  0  0  0  0  0  0  0  0  0
   -2.5726    1.1871   -1.0741 O   0  0  0  0  0  0  0  0  0  0  0  0
   -1.1941    1.7377    0.6223 N   0  0  0  0  0  0  0  0  0  0  0  0
   -0.4976    1.3916    1.2669 H   0  0  0  0  0  0  0  0  0  0  0  0
   -1.4666    3.1722    0.6095 C   0  0  0  0  0  0  0  0  0  0  0  0
   -2.5439    3.3427    0.6539 H   0  0  0  0  0  0  0  0  0  0  0  0
   -0.9893    3.6529    1.4644 H   0  0  0  0  0  0  0  0  0  0  0  0
   -1.0808    3.6095   -0.3129 H   0  0  0  0  0  0  0  0  0  0  0  0
  5  6  2  0  0  0  0
  5  7  1  0  0  0  0
  2  3  1  0  0  0  0
  2  4  1  0  0  0  0
  2  5  1  0  0  0  0
  1  2  1  0  0  0  0
 29 30  2  0  0  0  0
 29 31  1  0  0  0  0
 26 27  1  0  0  0  0
 26 28  2  0  0  0  0
 24 25  1  0  0  0  0
 24 26  1  0  0  0  0
 22 23  1  0  0  0  0
 22 24  2  0  0  0  0
 20 21  1  0  0  0  0
 20 22  1  0  0  0  0
 19 20  2  0  0  0  0
 19 28  1  0  0  0  0
 17 18  1  0  0  0  0
 17 19  1  0  0  0  0
 15 16  1  0  0  0  0
 15 17  1  0  0  0  0
 14 15  2  0  0  0  0
 14 28  1  0  0  0  0
 11 12  1  0  0  0  0
 11 13  1  0  0  0  0
 11 14  1  0  0  0  0
  9 10  1  0  0  0  0
  9 11  1  0  0  0  0
  9 29  1  0  0  0  0
  7  8  1  0  0  0  0
  7  9  1  0  0  0  0
 33 34  1  0  0  0  0
 33 35  1  0  0  0  0
 33 36  1  0  0  0  0
 31 32  1  0  0  0  0
 31 33  1  0  0  0  0
M  END
$$$$
default_name
  -OEChem-02102213163D

 36 37  0     1  0  0  0  0  0999 V2000
   -4.0843   -4.0736    1.2944 H   0  0  0  0  0  0  0  0  0  0  0  0
   -4.0342   -3.2816    0.5484 C   0  0  0  0  0  0  0  0  0  0  0  0
   -4.8842   -2.6126    0.6694 H   0  0  0  0  0  0  0  0  0  0  0  0
   -4.0433   -3.7186   -0.4486 H   0  0  0  0  0  0  0  0  0  0  0  0
   -2.7532   -2.5046    0.7444 C   0  0  0  0  0  0  0  0  0  0  0  0
   -1.9803   -2.8096    1.6434 O   0  0  0  0  0  0  0  0  0  0  0  0
   -2.5332   -1.4966   -0.0966 N   0  0  0  0  0  0  0  0  0  0  0  0
   -3.2312   -1.2816   -0.7936 H   0  0  0  0  0  0  0  0  0  0  0  0
   -1.3593   -0.6196   -0.0536 C   0  0  1  0  0  0  0  0  0  0  0  0
   -0.8788   -0.7266    0.9196 H   0  0  0  0  0  0  0  0  0  0  0  0
   -0.3559   -1.0533   -1.1339 C   0  0  0  0  0  0  0  0  0  0  0  0
   -0.8668   -1.7007   -1.8488 H   0  0  0  0  0  0  0  0  0  0  0  0
   -0.0208   -0.1656   -1.6731 H   0  0  0  0  0  0  0  0  0  0  0  0
    0.8501   -1.7842   -0.6264 C   0  0  0  0  0  0  0  0  0  0  0  0
    0.8394   -2.7791    0.2888 C   0  0  0  0  0  0  0  0  0  0  0  0
   -0.0506   -3.1552    0.7813 H   0  0  0  0  0  0  0  0  0  0  0  0
    2.1243   -3.2486    0.4792 N   0  0  0  0  0  0  0  0  0  0  0  0
    2.3565   -3.9908    1.1229 H   0  0  0  0  0  0  0  0  0  0  0  0
    3.0304   -2.5863   -0.3215 C   0  0  0  0  0  0  0  0  0  0  0  0
    4.4141   -2.7135   -0.5106 C   0  0  0  0  0  0  0  0  0  0  0  0
    4.9768   -3.4506    0.0432 H   0  0  0  0  0  0  0  0  0  0  0  0
    5.0583   -1.8672   -1.4292 C   0  0  0  0  0  0  0  0  0  0  0  0
    6.1251   -1.9501   -1.5874 H   0  0  0  0  0  0  0  0  0  0  0  0
    4.3142   -0.9067   -2.1385 C   0  0  0  0  0  0  0  0  0  0  0  0
    4.8153   -0.2521   -2.8382 H   0  0  0  0  0  0  0  0  0  0  0  0
    2.9243   -0.7865   -1.9390 C   0  0  0  0  0  0  0  0  0  0  0  0
    2.3668   -0.0355   -2.4805 H   0  0  0  0  0  0  0  0  0  0  0  0
    2.2467   -1.6256   -1.0281 C   0  0  0  0  0  0  0  0  0  0  0  0
   -1.7617    0.8549   -0.2106 C   0  0  0  0  0  0  0  0  0  0  0  0
   -2.5726    1.1871   -1.0741 O   0  0  0  0  0  0  0  0  0  0  0  0
   -1.1941    1.7377    0.6223 N   0  0  0  0  0  0  0  0  0  0  0  0
   -0.4976    1.3916    1.2669 H   0  0  0  0  0  0  0  0  0  0  0  0
   -1.4666    3.1722    0.6095 C   0  0  0  0  0  0  0  0  0  0  0  0
   -2.5439    3.3427    0.6539 H   0  0  0  0  0  0  0  0  0  0  0  0
   -0.9893    3.6529    1.4644 H   0  0  0  0  0  0  0  0  0  0  0  0
   -1.0808    3.6095   -0.3129 H   0  0  0  0  0  0  0  0  0  0  0  0
  5  6  2  0  0  0  0
  5  7  1  0  0  0  0
  2  3  1  0  0  0  0
  2  4  1  0  0  0  0
  2  5  1  0  0  0  0
  1  2  1  0  0  0  0
 29 30  2  0  0  0  0
 29 31  1  0  0  0  0
 26 27  1  0  0  0  0
 26 28  2  0  0  0  0
 24 25  1  0  0  0  0
 24 26  1  0  0  0  0
 22 23  1  0  0  0  0
 22 24  2  0  0  0  0
 20 21  1  0  0  0  0
 20 22  1  0  0  0  0
 19 20  2  0  0  0  0
 19 28  1  0  0  0  0
 17 18  1  0  0  0  0
 17 19  1  0  0  0  0
 15 16  1  0  0  0  0
 15 17  1  0  0  0  0
 14 15  2  0  0  0  0
 14 28  1  0  0  0  0
 11 12  1  0  0  0  0
 11 13  1  0  0  0  0
 11 14  1  0  0  0  0
  9 10  1  0  0  0  0
  9 11  1  0  0  0  0
  9 29  1  0  0  0  0
  7  8  1  0  0  0  0
  7  9  1  0  0  0  0
 33 34  1  0  0  0  0
 33 35  1  0  0  0  0
 33 36  1  0  0  0  0
 31 32  1  0  0  0  0
 31 33  1  0  0  0  0
M  END
$$$$
default_name
  -OEChem-02102213163D

 36 37  0     1  0  0  0  0  0999 V2000
   -4.0843   -4.0736    1.2944 H   0  0  0  0  0  0  0  0  0  0  0  0
   -4.0342   -3.2816    0.5484 C   0  0  0  0  0  0  0  0  0  0  0  0
   -4.8842   -2.6126    0.6694 H   0  0  0  0  0  0  0  0  0  0  0  0
   -4.0433   -3.7186   -0.4486 H   0  0  0  0  0  0  0  0  0  0  0  0
   -2.7532   -2.5046    0.7444 C   0  0  0  0  0  0  0  0  0  0  0  0
   -1.9803   -2.8096    1.6434 O   0  0  0  0  0  0  0  0  0  0  0  0
   -2.5332   -1.4966   -0.0966 N   0  0  0  0  0  0  0  0  0  0  0  0
   -3.2312   -1.2816   -0.7936 H   0  0  0  0  0  0  0  0  0  0  0  0
   -1.3593   -0.6196   -0.0536 C   0  0  1  0  0  0  0  0  0  0  0  0
   -0.8788   -0.7266    0.9196 H   0  0  0  0  0  0  0  0  0  0  0  0
   -0.3559   -1.0533   -1.1339 C   0  0  0  0  0  0  0  0  0  0  0  0
   -0.8668   -1.7007   -1.8488 H   0  0  0  0  0  0  0  0  0  0  0  0
   -0.0208   -0.1656   -1.6731 H   0  0  0  0  0  0  0  0  0  0  0  0
    0.8501   -1.7842   -0.6264 C   0  0  0  0  0  0  0  0  0  0  0  0
    0.8330   -2.9499    0.0581 C   0  0  0  0  0  0  0  0  0  0  0  0
   -0.0659   -3.4876    0.3389 H   0  0  0  0  0  0  0  0  0  0  0  0
    2.1276   -3.3524    0.3218 N   0  0  0  0  0  0  0  0  0  0  0  0
    2.3567   -4.1958    0.8271 H   0  0  0  0  0  0  0  0  0  0  0  0
    3.0496   -2.4688   -0.1978 C   0  0  0  0  0  0  0  0  0  0  0  0
    4.4516   -2.4494   -0.2194 C   0  0  0  0  0  0  0  0  0  0  0  0
    5.0172   -3.2440    0.2445 H   0  0  0  0  0  0  0  0  0  0  0  0
    5.1100   -1.3808   -0.8515 C   0  0  0  0  0  0  0  0  0  0  0  0
    6.1909   -1.3485   -0.8772 H   0  0  0  0  0  0  0  0  0  0  0  0
    4.3608   -0.3488   -1.4457 C   0  0  0  0  0  0  0  0  0  0  0  0
    4.8715    0.4757   -1.9236 H   0  0  0  0  0  0  0  0  0  0  0  0
    2.9521   -0.3776   -1.4161 C   0  0  0  0  0  0  0  0  0  0  0  0
    2.3888    0.4284   -1.8647 H   0  0  0  0  0  0  0  0  0  0  0  0
    2.2609   -1.4400   -0.7945 C   0  0  0  0  0  0  0  0  0  0  0  0
   -1.7617    0.8549   -0.2106 C   0  0  0  0  0  0  0  0  0  0  0  0
   -2.5726    1.1871   -1.0741 O   0  0  0  0  0  0  0  0  0  0  0  0
   -1.1941    1.7377    0.6223 N   0  0  0  0  0  0  0  0  0  0  0  0
   -0.4976    1.3916    1.2669 H   0  0  0  0  0  0  0  0  0  0  0  0
   -1.4666    3.1722    0.6095 C   0  0  0  0  0  0  0  0  0  0  0  0
   -2.5439    3.3427    0.6539 H   0  0  0  0  0  0  0  0  0  0  0  0
   -0.9893    3.6529    1.4644 H   0  0  0  0  0  0  0  0  0  0  0  0
   -1.0808    3.6095   -0.3129 H   0  0  0  0  0  0  0  0  0  0  0  0
  5  6  2  0  0  0  0
  5  7  1  0  0  0  0
  2  3  1  0  0  0  0
  2  4  1  0  0  0  0
  2  5  1  0  0  0  0
  1  2  1  0  0  0  0
 29 30  2  0  0  0  0
 29 31  1  0  0  0  0
 26 27  1  0  0  0  0
 26 28  2  0  0  0  0
 24 25  1  0  0  0  0
 24 26  1  0  0  0  0
 22 23  1  0  0  0  0
 22 24  2  0  0  0  0
 20 21  1  0  0  0  0
 20 22  1  0  0  0  0
 19 20  2  0  0  0  0
 19 28  1  0  0  0  0
 17 18  1  0  0  0  0
 17 19  1  0  0  0  0
 15 16  1  0  0  0  0
 15 17  1  0  0  0  0
 14 15  2  0  0  0  0
 14 28  1  0  0  0  0
 11 12  1  0  0  0  0
 11 13  1  0  0  0  0
 11 14  1  0  0  0  0
  9 10  1  0  0  0  0
  9 11  1  0  0  0  0
  9 29  1  0  0  0  0
  7  8  1  0  0  0  0
  7  9  1  0  0  0  0
 33 34  1  0  0  0  0
 33 35  1  0  0  0  0
 33 36  1  0  0  0  0
 31 32  1  0  0  0  0
 31 33  1  0  0  0  0
M  END
$$$$
default_name
  -OEChem-02102213163D

 36 37  0     1  0  0  0  0  0999 V2000
   -4.0843   -4.0736    1.2944 H   0  0  0  0  0  0  0  0  0  0  0  0
   -4.0342   -3.2816    0.5484 C   0  0  0  0  0  0  0  0  0  0  0  0
   -4.8842   -2.6126    0.6694 H   0  0  0  0  0  0  0  0  0  0  0  0
   -4.0433   -3.7186   -0.4486 H   0  0  0  0  0  0  0  0  0  0  0  0
   -2.7532   -2.5046    0.7444 C   0  0  0  0  0  0  0  0  0  0  0  0
   -1.9803   -2.8096    1.6434 O   0  0  0  0  0  0  0  0  0  0  0  0
   -2.5332   -1.4966   -0.0966 N   0  0  0  0  0  0  0  0  0  0  0  0
   -3.2312   -1.2816   -0.7936 H   0  0  0  0  0  0  0  0  0  0  0  0
   -1.3593   -0.6196   -0.0536 C   0  0  1  0  0  0  0  0  0  0  0  0
   -0.8788   -0.7266    0.9196 H   0  0  0  0  0  0  0  0  0  0  0  0
   -0.3559   -1.0533   -1.1339 C   0  0  0  0  0  0  0  0  0  0  0  0
   -0.8668   -1.7007   -1.8488 H   0  0  0  0  0  0  0  0  0  0  0  0
   -0.0208   -0.1656   -1.6731 H   0  0  0  0  0  0  0  0  0  0  0  0
    0.8501   -1.7842   -0.6264 C   0  0  0  0  0  0  0  0  0  0  0  0
    0.8709   -3.0673   -0.2010 C   0  0  0  0  0  0  0  0  0  0  0  0
    0.0042   -3.7179   -0.1595 H   0  0  0  0  0  0  0  0  0  0  0  0
    2.1598   -3.4196    0.1485 N   0  0  0  0  0  0  0  0  0  0  0  0
    2.4122   -4.3321    0.4988 H   0  0  0  0  0  0  0  0  0  0  0  0
    3.0422   -2.3793   -0.0514 C   0  0  0  0  0  0  0  0  0  0  0  0
    4.4279   -2.2517    0.1216 C   0  0  0  0  0  0  0  0  0  0  0  0
    5.0128   -3.0829    0.4871 H   0  0  0  0  0  0  0  0  0  0  0  0
    5.0444   -1.0268   -0.1857 C   0  0  0  0  0  0  0  0  0  0  0  0
    6.1120   -0.9095   -0.0576 H   0  0  0  0  0  0  0  0  0  0  0  0
    4.2695    0.0499   -0.6543 C   0  0  0  0  0  0  0  0  0  0  0  0
    4.7467    0.9931   -0.8816 H   0  0  0  0  0  0  0  0  0  0  0  0
    2.8771   -0.0891   -0.8224 C   0  0  0  0  0  0  0  0  0  0  0  0
    2.2916    0.7500   -1.1705 H   0  0  0  0  0  0  0  0  0  0  0  0
    2.2288   -1.3082   -0.5285 C   0  0  0  0  0  0  0  0  0  0  0  0
   -1.7617    0.8549   -0.2106 C   0  0  0  0  0  0  0  0  0  0  0  0
   -2.5726    1.1871   -1.0741 O   0  0  0  0  0  0  0  0  0  0  0  0
   -1.1941    1.7377    0.6223 N   0  0  0  0  0  0  0  0  0  0  0  0
   -0.4976    1.3916    1.2669 H   0  0  0  0  0  0  0  0  0  0  0  0
   -1.4666    3.1722    0.6095 C   0  0  0  0  0  0  0  0  0  0  0  0
   -2.5439    3.3427    0.6539 H   0  0  0  0  0  0  0  0  0  0  0  0
   -0.9893    3.6529    1.4644 H   0  0  0  0  0  0  0  0  0  0  0  0
   -1.0808    3.6095   -0.3129 H   0  0  0  0  0  0  0  0  0  0  0  0
  5  6  2  0  0  0  0
  5  7  1  0  0  0  0
  2  3  1  0  0  0  0
  2  4  1  0  0  0  0
  2  5  1  0  0  0  0
  1  2  1  0  0  0  0
 29 30  2  0  0  0  0
 29 31  1  0  0  0  0
 26 27  1  0  0  0  0
 26 28  2  0  0  0  0
 24 25  1  0  0  0  0
 24 26  1  0  0  0  0
 22 23  1  0  0  0  0
 22 24  2  0  0  0  0
 20 21  1  0  0  0  0
 20 22  1  0  0  0  0
 19 20  2  0  0  0  0
 19 28  1  0  0  0  0
 17 18  1  0  0  0  0
 17 19  1  0  0  0  0
 15 16  1  0  0  0  0
 15 17  1  0  0  0  0
 14 15  2  0  0  0  0
 14 28  1  0  0  0  0
 11 12  1  0  0  0  0
 11 13  1  0  0  0  0
 11 14  1  0  0  0  0
  9 10  1  0  0  0  0
  9 11  1  0  0  0  0
  9 29  1  0  0  0  0
  7  8  1  0  0  0  0
  7  9  1  0  0  0  0
 33 34  1  0  0  0  0
 33 35  1  0  0  0  0
 33 36  1  0  0  0  0
 31 32  1  0  0  0  0
 31 33  1  0  0  0  0
M  END
$$$$
default_name
  -OEChem-02102213163D

 36 37  0     1  0  0  0  0  0999 V2000
   -4.0843   -4.0736    1.2944 H   0  0  0  0  0  0  0  0  0  0  0  0
   -4.0342   -3.2816    0.5484 C   0  0  0  0  0  0  0  0  0  0  0  0
   -4.8842   -2.6126    0.6694 H   0  0  0  0  0  0  0  0  0  0  0  0
   -4.0433   -3.7186   -0.4486 H   0  0  0  0  0  0  0  0  0  0  0  0
   -2.7532   -2.5046    0.7444 C   0  0  0  0  0  0  0  0  0  0  0  0
   -1.9803   -2.8096    1.6434 O   0  0  0  0  0  0  0  0  0  0  0  0
   -2.5332   -1.4966   -0.0966 N   0  0  0  0  0  0  0  0  0  0  0  0
   -3.2312   -1.2816   -0.7936 H   0  0  0  0  0  0  0  0  0  0  0  0
   -1.3593   -0.6196   -0.0536 C   0  0  1  0  0  0  0  0  0  0  0  0
   -0.8788   -0.7266    0.9196 H   0  0  0  0  0  0  0  0  0  0  0  0
   -0.3559   -1.0533   -1.1339 C   0  0  0  0  0  0  0  0  0  0  0  0
   -0.8668   -1.7007   -1.8488 H   0  0  0  0  0  0  0  0  0  0  0  0
   -0.0208   -0.1656   -1.6731 H   0  0  0  0  0  0  0  0  0  0  0  0
    0.8501   -1.7842   -0.6264 C   0  0  0  0  0  0  0  0  0  0  0  0
    0.9505   -3.1234   -0.4710 C   0  0  0  0  0  0  0  0  0  0  0  0
    0.1551   -3.8304   -0.6800 H   0  0  0  0  0  0  0  0  0  0  0  0
    2.2186   -3.4456   -0.0288 N   0  0  0  0  0  0  0  0  0  0  0  0
    2.5193   -4.3906    0.1602 H   0  0  0  0  0  0  0  0  0  0  0  0
    3.0087   -2.3240    0.1078 C   0  0  0  0  0  0  0  0  0  0  0  0
    4.3447   -2.1338    0.4891 C   0  0  0  0  0  0  0  0  0  0  0  0
    4.9638   -2.9782    0.7544 H   0  0  0  0  0  0  0  0  0  0  0  0
    4.8660   -0.8292    0.5228 C   0  0  0  0  0  0  0  0  0  0  0  0
    5.8940   -0.6631    0.8155 H   0  0  0  0  0  0  0  0  0  0  0  0
    4.0464    0.2622    0.1815 C   0  0  0  0  0  0  0  0  0  0  0  0
    4.4492    1.2650    0.2169 H   0  0  0  0  0  0  0  0  0  0  0  0
    2.7044    0.0593   -0.1984 C   0  0  0  0  0  0  0  0  0  0  0  0
    2.0820    0.9077   -0.4452 H   0  0  0  0  0  0  0  0  0  0  0  0
    2.1527   -1.2391   -0.2482 C   0  0  0  0  0  0  0  0  0  0  0  0
   -1.7617    0.8549   -0.2106 C   0  0  0  0  0  0  0  0  0  0  0  0
   -2.5726    1.1871   -1.0741 O   0  0  0  0  0  0  0  0  0  0  0  0
   -1.1941    1.7377    0.6223 N   0  0  0  0  0  0  0  0  0  0  0  0
   -0.4976    1.3916    1.2669 H   0  0  0  0  0  0  0  0  0  0  0  0
   -1.4666    3.1722    0.6095 C   0  0  0  0  0  0  0  0  0  0  0  0
   -2.5439    3.3427    0.6539 H   0  0  0  0  0  0  0  0  0  0  0  0
   -0.9893    3.6529    1.4644 H   0  0  0  0  0  0  0  0  0  0  0  0
   -1.0808    3.6095   -0.3129 H   0  0  0  0  0  0  0  0  0  0  0  0
  5  6  2  0  0  0  0
  5  7  1  0  0  0  0
  2  3  1  0  0  0  0
  2  4  1  0  0  0  0
  2  5  1  0  0  0  0
  1  2  1  0  0  0  0
 29 30  2  0  0  0  0
 29 31  1  0  0  0  0
 26 27  1  0  0  0  0
 26 28  2  0  0  0  0
 24 25  1  0  0  0  0
 24 26  1  0  0  0  0
 22 23  1  0  0  0  0
 22 24  2  0  0  0  0
 20 21  1  0  0  0  0
 20 22  1  0  0  0  0
 19 20  2  0  0  0  0
 19 28  1  0  0  0  0
 17 18  1  0  0  0  0
 17 19  1  0  0  0  0
 15 16  1  0  0  0  0
 15 17  1  0  0  0  0
 14 15  2  0  0  0  0
 14 28  1  0  0  0  0
 11 12  1  0  0  0  0
 11 13  1  0  0  0  0
 11 14  1  0  0  0  0
  9 10  1  0  0  0  0
  9 11  1  0  0  0  0
  9 29  1  0  0  0  0
  7  8  1  0  0  0  0
  7  9  1  0  0  0  0
 33 34  1  0  0  0  0
 33 35  1  0  0  0  0
 33 36  1  0  0  0  0
 31 32  1  0  0  0  0
 31 33  1  0  0  0  0
M  END
$$$$
default_name
  -OEChem-02102213163D

 36 37  0     1  0  0  0  0  0999 V2000
   -4.0843   -4.0736    1.2944 H   0  0  0  0  0  0  0  0  0  0  0  0
   -4.0342   -3.2816    0.5484 C   0  0  0  0  0  0  0  0  0  0  0  0
   -4.8842   -2.6126    0.6694 H   0  0  0  0  0  0  0  0  0  0  0  0
   -4.0433   -3.7186   -0.4486 H   0  0  0  0  0  0  0  0  0  0  0  0
   -2.7532   -2.5046    0.7444 C   0  0  0  0  0  0  0  0  0  0  0  0
   -1.9803   -2.8096    1.6434 O   0  0  0  0  0  0  0  0  0  0  0  0
   -2.5332   -1.4966   -0.0966 N   0  0  0  0  0  0  0  0  0  0  0  0
   -3.2312   -1.2816   -0.7936 H   0  0  0  0  0  0  0  0  0  0  0  0
   -1.3593   -0.6196   -0.0536 C   0  0  1  0  0  0  0  0  0  0  0  0
   -0.8788   -0.7266    0.9196 H   0  0  0  0  0  0  0  0  0  0  0  0
   -0.3559   -1.0533   -1.1339 C   0  0  0  0  0  0  0  0  0  0  0  0
   -0.8668   -1.7007   -1.8488 H   0  0  0  0  0  0  0  0  0  0  0  0
   -0.0208   -0.1656   -1.6731 H   0  0  0  0  0  0  0  0  0  0  0  0
    0.8501   -1.7842   -0.6264 C   0  0  0  0  0  0  0  0  0  0  0  0
    1.0664   -3.1144   -0.7335 C   0  0  0  0  0  0  0  0  0  0  0  0
    0.3764   -3.8174   -1.1872 H   0  0  0  0  0  0  0  0  0  0  0  0
    2.3001   -3.4286   -0.1980 N   0  0  0  0  0  0  0  0  0  0  0  0
    2.6705   -4.3672   -0.1655 H   0  0  0  0  0  0  0  0  0  0  0  0
    2.9515   -2.3067    0.2687 C   0  0  0  0  0  0  0  0  0  0  0  0
    4.2076   -2.1038    0.8581 C   0  0  0  0  0  0  0  0  0  0  0  0
    4.8735   -2.9370    1.0283 H   0  0  0  0  0  0  0  0  0  0  0  0
    4.5869   -0.8015    1.2259 C   0  0  0  0  0  0  0  0  0  0  0  0
    5.5515   -0.6260    1.6827 H   0  0  0  0  0  0  0  0  0  0  0  0
    3.7068    0.2736    1.0049 C   0  0  0  0  0  0  0  0  0  0  0  0
    3.9993    1.2727    1.2970 H   0  0  0  0  0  0  0  0  0  0  0  0
    2.4459    0.0576    0.4136 C   0  0  0  0  0  0  0  0  0  0  0  0
    1.7741    0.8905    0.2617 H   0  0  0  0  0  0  0  0  0  0  0  0
    2.0378   -1.2374    0.0274 C   0  0  0  0  0  0  0  0  0  0  0  0
   -1.7617    0.8549   -0.2106 C   0  0  0  0  0  0  0  0  0  0  0  0
   -2.5726    1.1871   -1.0741 O   0  0  0  0  0  0  0  0  0  0  0  0
   -1.1941    1.7377    0.6223 N   0  0  0  0  0  0  0  0  0  0  0  0
   -0.4976    1.3916    1.2669 H   0  0  0  0  0  0  0  0  0  0  0  0
   -1.4666    3.1722    0.6095 C   0  0  0  0  0  0  0  0  0  0  0  0
   -2.5439    3.3427    0.6539 H   0  0  0  0  0  0  0  0  0  0  0  0
   -0.9893    3.6529    1.4644 H   0  0  0  0  0  0  0  0  0  0  0  0
   -1.0808    3.6095   -0.3129 H   0  0  0  0  0  0  0  0  0  0  0  0
  5  6  2  0  0  0  0
  5  7  1  0  0  0  0
  2  3  1  0  0  0  0
  2  4  1  0  0  0  0
  2  5  1  0  0  0  0
  1  2  1  0  0  0  0
 29 30  2  0  0  0  0
 29 31  1  0  0  0  0
 26 27  1  0  0  0  0
 26 28  2  0  0  0  0
 24 25  1  0  0  0  0
 24 26  1  0  0  0  0
 22 23  1  0  0  0  0
 22 24  2  0  0  0  0
 20 21  1  0  0  0  0
 20 22  1  0  0  0  0
 19 20  2  0  0  0  0
 19 28  1  0  0  0  0
 17 18  1  0  0  0  0
 17 19  1  0  0  0  0
 15 16  1  0  0  0  0
 15 17  1  0  0  0  0
 14 15  2  0  0  0  0
 14 28  1  0  0  0  0
 11 12  1  0  0  0  0
 11 13  1  0  0  0  0
 11 14  1  0  0  0  0
  9 10  1  0  0  0  0
  9 11  1  0  0  0  0
  9 29  1  0  0  0  0
  7  8  1  0  0  0  0
  7  9  1  0  0  0  0
 33 34  1  0  0  0  0
 33 35  1  0  0  0  0
 33 36  1  0  0  0  0
 31 32  1  0  0  0  0
 31 33  1  0  0  0  0
M  END
$$$$
default_name
  -OEChem-02102213163D

 36 37  0     1  0  0  0  0  0999 V2000
   -4.0843   -4.0736    1.2944 H   0  0  0  0  0  0  0  0  0  0  0  0
   -4.0342   -3.2816    0.5484 C   0  0  0  0  0  0  0  0  0  0  0  0
   -4.8842   -2.6126    0.6694 H   0  0  0  0  0  0  0  0  0  0  0  0
   -4.0433   -3.7186   -0.4486 H   0  0  0  0  0  0  0  0  0  0  0  0
   -2.7532   -2.5046    0.7444 C   0  0  0  0  0  0  0  0  0  0  0  0
   -1.9803   -2.8096    1.6434 O   0  0  0  0  0  0  0  0  0  0  0  0
   -2.5332   -1.4966   -0.0966 N   0  0  0  0  0  0  0  0  0  0  0  0
   -3.2312   -1.2816   -0.7936 H   0  0  0  0  0  0  0  0  0  0  0  0
   -1.3593   -0.6196   -0.0536 C   0  0  1  0  0  0  0  0  0  0  0  0
   -0.8788   -0.7266    0.9196 H   0  0  0  0  0  0  0  0  0  0  0  0
   -0.3559   -1.0533   -1.1339 C   0  0  0  0  0  0  0  0  0  0  0  0
   -0.8668   -1.7007   -1.8488 H   0  0  0  0  0  0  0  0  0  0  0  0
   -0.0208   -0.1656   -1.6731 H   0  0  0  0  0  0  0  0  0  0  0  0
    0.8501   -1.7842   -0.6264 C   0  0  0  0  0  0  0  0  0  0  0  0
    1.2107   -3.0409   -0.9705 C   0  0  0  0  0  0  0  0  0  0  0  0
    0.6531   -3.6798   -1.6465 H   0  0  0  0  0  0  0  0  0  0  0  0
    2.3987   -3.3699   -0.3477 N   0  0  0  0  0  0  0  0  0  0  0  0
    2.8557   -4.2635   -0.4561 H   0  0  0  0  0  0  0  0  0  0  0  0
    2.8744   -2.3286    0.4206 C   0  0  0  0  0  0  0  0  0  0  0  0
    4.0260   -2.1637    1.2036 C   0  0  0  0  0  0  0  0  0  0  0  0
    4.7481   -2.9622    1.2900 H   0  0  0  0  0  0  0  0  0  0  0  0
    4.2262   -0.9457    1.8755 C   0  0  0  0  0  0  0  0  0  0  0  0
    5.1080   -0.8008    2.4848 H   0  0  0  0  0  0  0  0  0  0  0  0
    3.2739    0.0834    1.7598 C   0  0  0  0  0  0  0  0  0  0  0  0
    3.4278    1.0158    2.2852 H   0  0  0  0  0  0  0  0  0  0  0  0
    2.1191   -0.0941    0.9717 C   0  0  0  0  0  0  0  0  0  0  0  0
    1.3889    0.6997    0.9021 H   0  0  0  0  0  0  0  0  0  0  0  0
    1.8919   -1.3033    0.2794 C   0  0  0  0  0  0  0  0  0  0  0  0
   -1.7617    0.8549   -0.2106 C   0  0  0  0  0  0  0  0  0  0  0  0
   -2.5726    1.1871   -1.0741 O   0  0  0  0  0  0  0  0  0  0  0  0
   -1.1941    1.7377    0.6223 N   0  0  0  0  0  0  0  0  0  0  0  0
   -0.4976    1.3916    1.2669 H   0  0  0  0  0  0  0  0  0  0  0  0
   -1.4666    3.1722    0.6095 C   0  0  0  0  0  0  0  0  0  0  0  0
   -2.5439    3.3427    0.6539 H   0  0  0  0  0  0  0  0  0  0  0  0
   -0.9893    3.6529    1.4644 H   0  0  0  0  0  0  0  0  0  0  0  0
   -1.0808    3.6095   -0.3129 H   0  0  0  0  0  0  0  0  0  0  0  0
  5  6  2  0  0  0  0
  5  7  1  0  0  0  0
  2  3  1  0  0  0  0
  2  4  1  0  0  0  0
  2  5  1  0  0  0  0
  1  2  1  0  0  0  0
 29 30  2  0  0  0  0
 29 31  1  0  0  0  0
 26 27  1  0  0  0  0
 26 28  2  0  0  0  0
 24 25  1  0  0  0  0
 24 26  1  0  0  0  0
 22 23  1  0  0  0  0
 22 24  2  0  0  0  0
 20 21  1  0  0  0  0
 20 22  1  0  0  0  0
 19 20  2  0  0  0  0
 19 28  1  0  0  0  0
 17 18  1  0  0  0  0
 17 19  1  0  0  0  0
 15 16  1  0  0  0  0
 15 17  1  0  0  0  0
 14 15  2  0  0  0  0
 14 28  1  0  0  0  0
 11 12  1  0  0  0  0
 11 13  1  0  0  0  0
 11 14  1  0  0  0  0
  9 10  1  0  0  0  0
  9 11  1  0  0  0  0
  9 29  1  0  0  0  0
  7  8  1  0  0  0  0
  7  9  1  0  0  0  0
 33 34  1  0  0  0  0
 33 35  1  0  0  0  0
 33 36  1  0  0  0  0
 31 32  1  0  0  0  0
 31 33  1  0  0  0  0
M  END
$$$$
default_name
  -OEChem-02102213163D

 36 37  0     1  0  0  0  0  0999 V2000
   -4.0843   -4.0736    1.2944 H   0  0  0  0  0  0  0  0  0  0  0  0
   -4.0342   -3.2816    0.5484 C   0  0  0  0  0  0  0  0  0  0  0  0
   -4.8842   -2.6126    0.6694 H   0  0  0  0  0  0  0  0  0  0  0  0
   -4.0433   -3.7186   -0.4486 H   0  0  0  0  0  0  0  0  0  0  0  0
   -2.7532   -2.5046    0.7444 C   0  0  0  0  0  0  0  0  0  0  0  0
   -1.9803   -2.8096    1.6434 O   0  0  0  0  0  0  0  0  0  0  0  0
   -2.5332   -1.4966   -0.0966 N   0  0  0  0  0  0  0  0  0  0  0  0
   -3.2312   -1.2816   -0.7936 H   0  0  0  0  0  0  0  0  0  0  0  0
   -1.3593   -0.6196   -0.0536 C   0  0  1  0  0  0  0  0  0  0  0  0
   -0.8788   -0.7266    0.9196 H   0  0  0  0  0  0  0  0  0  0  0  0
   -0.3559   -1.0533   -1.1339 C   0  0  0  0  0  0  0  0  0  0  0  0
   -0.8668   -1.7007   -1.8488 H   0  0  0  0  0  0  0  0  0  0  0  0
   -0.0208   -0.1656   -1.6731 H   0  0  0  0  0  0  0  0  0  0  0  0
    0.8501   -1.7842   -0.6264 C   0  0  0  0  0  0  0  0  0  0  0  0
    1.3735   -2.9079   -1.1659 C   0  0  0  0  0  0  0  0  0  0  0  0
    0.9662   -3.4270   -2.0265 H   0  0  0  0  0  0  0  0  0  0  0  0
    2.5077   -3.2733   -0.4675 N   0  0  0  0  0  0  0  0  0  0  0  0
    3.0621   -4.0866   -0.6919 H   0  0  0  0  0  0  0  0  0  0  0  0
    2.7826   -2.3880    0.5530 C   0  0  0  0  0  0  0  0  0  0  0  0
    3.8121   -2.3094    1.5018 C   0  0  0  0  0  0  0  0  0  0  0  0
    4.5962   -3.0520    1.5217 H   0  0  0  0  0  0  0  0  0  0  0  0
    3.8084   -1.2519    2.4274 C   0  0  0  0  0  0  0  0  0  0  0  0
    4.5937   -1.1756    3.1672 H   0  0  0  0  0  0  0  0  0  0  0  0
    2.7771   -0.2955    2.3947 C   0  0  0  0  0  0  0  0  0  0  0  0
    2.7735    0.5118    3.1141 H   0  0  0  0  0  0  0  0  0  0  0  0
    1.7462   -0.3856    1.4379 C   0  0  0  0  0  0  0  0  0  0  0  0
    0.9528    0.3482    1.4324 H   0  0  0  0  0  0  0  0  0  0  0  0
    1.7248   -1.4321    0.4907 C   0  0  0  0  0  0  0  0  0  0  0  0
   -1.7617    0.8549   -0.2106 C   0  0  0  0  0  0  0  0  0  0  0  0
   -2.5726    1.1871   -1.0741 O   0  0  0  0  0  0  0  0  0  0  0  0
   -1.1941    1.7377    0.6223 N   0  0  0  0  0  0  0  0  0  0  0  0
   -0.4976    1.3916    1.2669 H   0  0  0  0  0  0  0  0  0  0  0  0
   -1.4666    3.1722    0.6095 C   0  0  0  0  0  0  0  0  0  0  0  0
   -2.5439    3.3427    0.6539 H   0  0  0  0  0  0  0  0  0  0  0  0
   -0.9893    3.6529    1.4644 H   0  0  0  0  0  0  0  0  0  0  0  0
   -1.0808    3.6095   -0.3129 H   0  0  0  0  0  0  0  0  0  0  0  0
  5  6  2  0  0  0  0
  5  7  1  0  0  0  0
  2  3  1  0  0  0  0
  2  4  1  0  0  0  0
  2  5  1  0  0  0  0
  1  2  1  0  0  0  0
 29 30  2  0  0  0  0
 29 31  1  0  0  0  0
 26 27  1  0  0  0  0
 26 28  2  0  0  0  0
 24 25  1  0  0  0  0
 24 26  1  0  0  0  0
 22 23  1  0  0  0  0
 22 24  2  0  0  0  0
 20 21  1  0  0  0  0
 20 22  1  0  0  0  0
 19 20  2  0  0  0  0
 19 28  1  0  0  0  0
 17 18  1  0  0  0  0
 17 19  1  0  0  0  0
 15 16  1  0  0  0  0
 15 17  1  0  0  0  0
 14 15  2  0  0  0  0
 14 28  1  0  0  0  0
 11 12  1  0  0  0  0
 11 13  1  0  0  0  0
 11 14  1  0  0  0  0
  9 10  1  0  0  0  0
  9 11  1  0  0  0  0
  9 29  1  0  0  0  0
  7  8  1  0  0  0  0
  7  9  1  0  0  0  0
 33 34  1  0  0  0  0
 33 35  1  0  0  0  0
 33 36  1  0  0  0  0
 31 32  1  0  0  0  0
 31 33  1  0  0  0  0
M  END
$$$$
default_name
  -OEChem-02102213163D

 36 37  0     1  0  0  0  0  0999 V2000
   -4.0843   -4.0736    1.2944 H   0  0  0  0  0  0  0  0  0  0  0  0
   -4.0342   -3.2816    0.5484 C   0  0  0  0  0  0  0  0  0  0  0  0
   -4.8842   -2.6126    0.6694 H   0  0  0  0  0  0  0  0  0  0  0  0
   -4.0433   -3.7186   -0.4486 H   0  0  0  0  0  0  0  0  0  0  0  0
   -2.7532   -2.5046    0.7444 C   0  0  0  0  0  0  0  0  0  0  0  0
   -1.9803   -2.8096    1.6434 O   0  0  0  0  0  0  0  0  0  0  0  0
   -2.5332   -1.4966   -0.0966 N   0  0  0  0  0  0  0  0  0  0  0  0
   -3.2312   -1.2816   -0.7936 H   0  0  0  0  0  0  0  0  0  0  0  0
   -1.3593   -0.6196   -0.0536 C   0  0  1  0  0  0  0  0  0  0  0  0
   -0.8788   -0.7266    0.9196 H   0  0  0  0  0  0  0  0  0  0  0  0
   -0.3559   -1.0533   -1.1339 C   0  0  0  0  0  0  0  0  0  0  0  0
   -0.8668   -1.7007   -1.8488 H   0  0  0  0  0  0  0  0  0  0  0  0
   -0.0208   -0.1656   -1.6731 H   0  0  0  0  0  0  0  0  0  0  0  0
    0.8501   -1.7842   -0.6264 C   0  0  0  0  0  0  0  0  0  0  0  0
    1.5438   -2.7244   -1.3064 C   0  0  0  0  0  0  0  0  0  0  0  0
    1.2945   -3.0763   -2.3014 H   0  0  0  0  0  0  0  0  0  0  0  0
    2.6196   -3.1455   -0.5494 N   0  0  0  0  0  0  0  0  0  0  0  0
    3.2757   -3.8485   -0.8567 H   0  0  0  0  0  0  0  0  0  0  0  0
    2.6824   -2.4811    0.6570 C   0  0  0  0  0  0  0  0  0  0  0  0
    3.5807   -2.5310    1.7326 C   0  0  0  0  0  0  0  0  0  0  0  0
    4.4280   -3.2003    1.7076 H   0  0  0  0  0  0  0  0  0  0  0  0
    3.3619   -1.6992    2.8440 C   0  0  0  0  0  0  0  0  0  0  0  0
    4.0437   -1.7248    3.6834 H   0  0  0  0  0  0  0  0  0  0  0  0
    2.2502   -0.8372    2.8664 C   0  0  0  0  0  0  0  0  0  0  0  0
    2.0811   -0.2051    3.7271 H   0  0  0  0  0  0  0  0  0  0  0  0
    1.3528   -0.7969    1.7805 C   0  0  0  0  0  0  0  0  0  0  0  0
    0.4954   -0.1399    1.8163 H   0  0  0  0  0  0  0  0  0  0  0  0
    1.5481   -1.6152    0.6469 C   0  0  0  0  0  0  0  0  0  0  0  0
   -1.7617    0.8549   -0.2106 C   0  0  0  0  0  0  0  0  0  0  0  0
   -2.5726    1.1871   -1.0741 O   0  0  0  0  0  0  0  0  0  0  0  0
   -1.1941    1.7377    0.6223 N   0  0  0  0  0  0  0  0  0  0  0  0
   -0.4976    1.3916    1.2669 H   0  0  0  0  0  0  0  0  0  0  0  0
   -1.4666    3.1722    0.6095 C   0  0  0  0  0  0  0  0  0  0  0  0
   -2.5439    3.3427    0.6539 H   0  0  0  0  0  0  0  0  0  0  0  0
   -0.9893    3.6529    1.4644 H   0  0  0  0  0  0  0  0  0  0  0  0
   -1.0808    3.6095   -0.3129 H   0  0  0  0  0  0  0  0  0  0  0  0
  5  6  2  0  0  0  0
  5  7  1  0  0  0  0
  2  3  1  0  0  0  0
  2  4  1  0  0  0  0
  2  5  1  0  0  0  0
  1  2  1  0  0  0  0
 29 30  2  0  0  0  0
 29 31  1  0  0  0  0
 26 27  1  0  0  0  0
 26 28  2  0  0  0  0
 24 25  1  0  0  0  0
 24 26  1  0  0  0  0
 22 23  1  0  0  0  0
 22 24  2  0  0  0  0
 20 21  1  0  0  0  0
 20 22  1  0  0  0  0
 19 20  2  0  0  0  0
 19 28  1  0  0  0  0
 17 18  1  0  0  0  0
 17 19  1  0  0  0  0
 15 16  1  0  0  0  0
 15 17  1  0  0  0  0
 14 15  2  0  0  0  0
 14 28  1  0  0  0  0
 11 12  1  0  0  0  0
 11 13  1  0  0  0  0
 11 14  1  0  0  0  0
  9 10  1  0  0  0  0
  9 11  1  0  0  0  0
  9 29  1  0  0  0  0
  7  8  1  0  0  0  0
  7  9  1  0  0  0  0
 33 34  1  0  0  0  0
 33 35  1  0  0  0  0
 33 36  1  0  0  0  0
 31 32  1  0  0  0  0
 31 33  1  0  0  0  0
M  END
$$$$
default_name
  -OEChem-02102213163D

 36 37  0     1  0  0  0  0  0999 V2000
   -4.0843   -4.0736    1.2944 H   0  0  0  0  0  0  0  0  0  0  0  0
   -4.0342   -3.2816    0.5484 C   0  0  0  0  0  0  0  0  0  0  0  0
   -4.8842   -2.6126    0.6694 H   0  0  0  0  0  0  0  0  0  0  0  0
   -4.0433   -3.7186   -0.4486 H   0  0  0  0  0  0  0  0  0  0  0  0
   -2.7532   -2.5046    0.7444 C   0  0  0  0  0  0  0  0  0  0  0  0
   -1.9803   -2.8096    1.6434 O   0  0  0  0  0  0  0  0  0  0  0  0
   -2.5332   -1.4966   -0.0966 N   0  0  0  0  0  0  0  0  0  0  0  0
   -3.2312   -1.2816   -0.7936 H   0  0  0  0  0  0  0  0  0  0  0  0
   -1.3593   -0.6196   -0.0536 C   0  0  1  0  0  0  0  0  0  0  0  0
   -0.8788   -0.7266    0.9196 H   0  0  0  0  0  0  0  0  0  0  0  0
   -0.3559   -1.0533   -1.1339 C   0  0  0  0  0  0  0  0  0  0  0  0
   -0.8668   -1.7007   -1.8488 H   0  0  0  0  0  0  0  0  0  0  0  0
   -0.0208   -0.1656   -1.6731 H   0  0  0  0  0  0  0  0  0  0  0  0
    0.8501   -1.7842   -0.6264 C   0  0  0  0  0  0  0  0  0  0  0  0
    1.7100   -2.5031   -1.3824 C   0  0  0  0  0  0  0  0  0  0  0  0
    1.6155   -2.6514   -2.4525 H   0  0  0  0  0  0  0  0  0  0  0  0
    2.7268   -2.9952   -0.5878 N   0  0  0  0  0  0  0  0  0  0  0  0
    3.4821   -3.5655   -0.9394 H   0  0  0  0  0  0  0  0  0  0  0  0
    2.5808   -2.6014    0.7253 C   0  0  0  0  0  0  0  0  0  0  0  0
    3.3475   -2.8134    1.8801 C   0  0  0  0  0  0  0  0  0  0  0  0
    4.2552   -3.3971    1.8351 H   0  0  0  0  0  0  0  0  0  0  0  0
    2.9173   -2.2572    3.0969 C   0  0  0  0  0  0  0  0  0  0  0  0
    3.4953   -2.4110    3.9982 H   0  0  0  0  0  0  0  0  0  0  0  0
    1.7293   -1.5049    3.1427 C   0  0  0  0  0  0  0  0  0  0  0  0
    1.3977   -1.0858    4.0826 H   0  0  0  0  0  0  0  0  0  0  0  0
    0.9655   -1.3000    1.9761 C   0  0  0  0  0  0  0  0  0  0  0  0
    0.0479   -0.7314    2.0278 H   0  0  0  0  0  0  0  0  0  0  0  0
    1.3738   -1.8401    0.7373 C   0  0  0  0  0  0  0  0  0  0  0  0
   -1.7617    0.8549   -0.2106 C   0  0  0  0  0  0  0  0  0  0  0  0
   -2.5726    1.1871   -1.0741 O   0  0  0  0  0  0  0  0  0  0  0  0
   -1.1941    1.7377    0.6223 N   0  0  0  0  0  0  0  0  0  0  0  0
   -0.4976    1.3916    1.2669 H   0  0  0  0  0  0  0  0  0  0  0  0
   -1.4666    3.1722    0.6095 C   0  0  0  0  0  0  0  0  0  0  0  0
   -2.5439    3.3427    0.6539 H   0  0  0  0  0  0  0  0  0  0  0  0
   -0.9893    3.6529    1.4644 H   0  0  0  0  0  0  0  0  0  0  0  0
   -1.0808    3.6095   -0.3129 H   0  0  0  0  0  0  0  0  0  0  0  0
  5  6  2  0  0  0  0
  5  7  1  0  0  0  0
  2  3  1  0  0  0  0
  2  4  1  0  0  0  0
  2  5  1  0  0  0  0
  1  2  1  0  0  0  0
 29 30  2  0  0  0  0
 29 31  1  0  0  0  0
 26 27  1  0  0  0  0
 26 28  2  0  0  0  0
 24 25  1  0  0  0  0
 24 26  1  0  0  0  0
 22 23  1  0  0  0  0
 22 24  2  0  0  0  0
 20 21  1  0  0  0  0
 20 22  1  0  0  0  0
 19 20  2  0  0  0  0
 19 28  1  0  0  0  0
 17 18  1  0  0  0  0
 17 19  1  0  0  0  0
 15 16  1  0  0  0  0
 15 17  1  0  0  0  0
 14 15  2  0  0  0  0
 14 28  1  0  0  0  0
 11 12  1  0  0  0  0
 11 13  1  0  0  0  0
 11 14  1  0  0  0  0
  9 10  1  0  0  0  0
  9 11  1  0  0  0  0
  9 29  1  0  0  0  0
  7  8  1  0  0  0  0
  7  9  1  0  0  0  0
 33 34  1  0  0  0  0
 33 35  1  0  0  0  0
 33 36  1  0  0  0  0
 31 32  1  0  0  0  0
 31 33  1  0  0  0  0
M  END
$$$$
default_name
  -OEChem-02102213163D

 36 37  0     1  0  0  0  0  0999 V2000
   -4.0843   -4.0736    1.2944 H   0  0  0  0  0  0  0  0  0  0  0  0
   -4.0342   -3.2816    0.5484 C   0  0  0  0  0  0  0  0  0  0  0  0
   -4.8842   -2.6126    0.6694 H   0  0  0  0  0  0  0  0  0  0  0  0
   -4.0433   -3.7186   -0.4486 H   0  0  0  0  0  0  0  0  0  0  0  0
   -2.7532   -2.5046    0.7444 C   0  0  0  0  0  0  0  0  0  0  0  0
   -1.9803   -2.8096    1.6434 O   0  0  0  0  0  0  0  0  0  0  0  0
   -2.5332   -1.4966   -0.0966 N   0  0  0  0  0  0  0  0  0  0  0  0
   -3.2312   -1.2816   -0.7936 H   0  0  0  0  0  0  0  0  0  0  0  0
   -1.3593   -0.6196   -0.0536 C   0  0  1  0  0  0  0  0  0  0  0  0
   -0.8788   -0.7266    0.9196 H   0  0  0  0  0  0  0  0  0  0  0  0
   -0.3559   -1.0533   -1.1339 C   0  0  0  0  0  0  0  0  0  0  0  0
   -0.9071   -1.4683   -1.9796 H   0  0  0  0  0  0  0  0  0  0  0  0
    0.1764   -0.1690   -1.4885 H   0  0  0  0  0  0  0  0  0  0  0  0
    0.6531   -2.0706   -0.6944 C   0  0  0  0  0  0  0  0  0  0  0  0
    1.6282   -2.5969   -1.4689 C   0  0  0  0  0  0  0  0  0  0  0  0
    1.7835   -2.3554   -2.5148 H   0  0  0  0  0  0  0  0  0  0  0  0
    2.3983   -3.4648   -0.7199 N   0  0  0  0  0  0  0  0  0  0  0  0
    3.1836   -3.9773   -1.0940 H   0  0  0  0  0  0  0  0  0  0  0  0
    1.9651   -3.5286    0.5874 C   0  0  0  0  0  0  0  0  0  0  0  0
    2.4221   -4.2254    1.7153 C   0  0  0  0  0  0  0  0  0  0  0  0
    3.2814   -4.8760    1.6457 H   0  0  0  0  0  0  0  0  0  0  0  0
    1.7452   -4.0666    2.9366 C   0  0  0  0  0  0  0  0  0  0  0  0
    2.0826   -4.5969    3.8168 H   0  0  0  0  0  0  0  0  0  0  0  0
    0.6230   -3.2214    3.0112 C   0  0  0  0  0  0  0  0  0  0  0  0
    0.1001   -3.1087    3.9509 H   0  0  0  0  0  0  0  0  0  0  0  0
    0.1713   -2.5275    1.8707 C   0  0  0  0  0  0  0  0  0  0  0  0
   -0.7001   -1.8918    1.9388 H   0  0  0  0  0  0  0  0  0  0  0  0
    0.8331   -2.6609    0.6309 C   0  0  0  0  0  0  0  0  0  0  0  0
   -1.7617    0.8549   -0.2106 C   0  0  0  0  0  0  0  0  0  0  0  0
   -2.5726    1.1871   -1.0741 O   0  0  0  0  0  0  0  0  0  0  0  0
   -1.1941    1.7377    0.6223 N   0  0  0  0  0  0  0  0  0  0  0  0
   -0.4976    1.3916    1.2669 H   0  0  0  0  0  0  0  0  0  0  0  0
   -1.4666    3.1722    0.6095 C   0  0  0  0  0  0  0  0  0  0  0  0
   -2.5439    3.3427    0.6539 H   0  0  0  0  0  0  0  0  0  0  0  0
   -0.9893    3.6529    1.4644 H   0  0  0  0  0  0  0  0  0  0  0  0
   -1.0808    3.6095   -0.3129 H   0  0  0  0  0  0  0  0  0  0  0  0
  5  6  2  0  0  0  0
  5  7  1  0  0  0  0
  2  3  1  0  0  0  0
  2  4  1  0  0  0  0
  2  5  1  0  0  0  0
  1  2  1  0  0  0  0
 29 30  2  0  0  0  0
 29 31  1  0  0  0  0
 26 27  1  0  0  0  0
 26 28  2  0  0  0  0
 24 25  1  0  0  0  0
 24 26  1  0  0  0  0
 22 23  1  0  0  0  0
 22 24  2  0  0  0  0
 20 21  1  0  0  0  0
 20 22  1  0  0  0  0
 19 20  2  0  0  0  0
 19 28  1  0  0  0  0
 17 18  1  0  0  0  0
 17 19  1  0  0  0  0
 15 16  1  0  0  0  0
 15 17  1  0  0  0  0
 14 15  2  0  0  0  0
 14 28  1  0  0  0  0
 11 12  1  0  0  0  0
 11 13  1  0  0  0  0
 11 14  1  0  0  0  0
  9 10  1  0  0  0  0
  9 11  1  0  0  0  0
  9 29  1  0  0  0  0
  7  8  1  0  0  0  0
  7  9  1  0  0  0  0
 33 34  1  0  0  0  0
 33 35  1  0  0  0  0
 33 36  1  0  0  0  0
 31 32  1  0  0  0  0
 31 33  1  0  0  0  0
M  END
$$$$
default_name
  -OEChem-02102213163D

 36 37  0     1  0  0  0  0  0999 V2000
   -4.0843   -4.0736    1.2944 H   0  0  0  0  0  0  0  0  0  0  0  0
   -4.0342   -3.2816    0.5484 C   0  0  0  0  0  0  0  0  0  0  0  0
   -4.8842   -2.6126    0.6694 H   0  0  0  0  0  0  0  0  0  0  0  0
   -4.0433   -3.7186   -0.4486 H   0  0  0  0  0  0  0  0  0  0  0  0
   -2.7532   -2.5046    0.7444 C   0  0  0  0  0  0  0  0  0  0  0  0
   -1.9803   -2.8096    1.6434 O   0  0  0  0  0  0  0  0  0  0  0  0
   -2.5332   -1.4966   -0.0966 N   0  0  0  0  0  0  0  0  0  0  0  0
   -3.2312   -1.2816   -0.7936 H   0  0  0  0  0  0  0  0  0  0  0  0
   -1.3593   -0.6196   -0.0536 C   0  0  1  0  0  0  0  0  0  0  0  0
   -0.8788   -0.7266    0.9196 H   0  0  0  0  0  0  0  0  0  0  0  0
   -0.3559   -1.0533   -1.1339 C   0  0  0  0  0  0  0  0  0  0  0  0
   -0.9071   -1.4683   -1.9796 H   0  0  0  0  0  0  0  0  0  0  0  0
    0.1764   -0.1690   -1.4885 H   0  0  0  0  0  0  0  0  0  0  0  0
    0.6531   -2.0706   -0.6944 C   0  0  0  0  0  0  0  0  0  0  0  0
    1.7890   -2.3882   -1.3551 C   0  0  0  0  0  0  0  0  0  0  0  0
    2.0960   -1.9525   -2.2996 H   0  0  0  0  0  0  0  0  0  0  0  0
    2.4977   -3.3293   -0.6342 N   0  0  0  0  0  0  0  0  0  0  0  0
    3.3783   -3.7172   -0.9393 H   0  0  0  0  0  0  0  0  0  0  0  0
    1.8575   -3.6547    0.5426 C   0  0  0  0  0  0  0  0  0  0  0  0
    2.1791   -4.5153    1.6020 C   0  0  0  0  0  0  0  0  0  0  0  0
    3.0937   -5.0896    1.5824 H   0  0  0  0  0  0  0  0  0  0  0  0
    1.2940   -4.6214    2.6884 C   0  0  0  0  0  0  0  0  0  0  0  0
    1.5249   -5.2809    3.5140 H   0  0  0  0  0  0  0  0  0  0  0  0
    0.1027   -3.8729    2.6976 C   0  0  0  0  0  0  0  0  0  0  0  0
   -0.5795   -3.9639    3.5315 H   0  0  0  0  0  0  0  0  0  0  0  0
   -0.2113   -3.0126    1.6264 C   0  0  0  0  0  0  0  0  0  0  0  0
   -1.1361   -2.4534    1.6398 H   0  0  0  0  0  0  0  0  0  0  0  0
    0.6598   -2.8791    0.5236 C   0  0  0  0  0  0  0  0  0  0  0  0
   -1.7617    0.8549   -0.2106 C   0  0  0  0  0  0  0  0  0  0  0  0
   -2.5726    1.1871   -1.0741 O   0  0  0  0  0  0  0  0  0  0  0  0
   -1.1941    1.7377    0.6223 N   0  0  0  0  0  0  0  0  0  0  0  0
   -0.4976    1.3916    1.2669 H   0  0  0  0  0  0  0  0  0  0  0  0
   -1.4666    3.1722    0.6095 C   0  0  0  0  0  0  0  0  0  0  0  0
   -2.5439    3.3427    0.6539 H   0  0  0  0  0  0  0  0  0  0  0  0
   -0.9893    3.6529    1.4644 H   0  0  0  0  0  0  0  0  0  0  0  0
   -1.0808    3.6095   -0.3129 H   0  0  0  0  0  0  0  0  0  0  0  0
  5  6  2  0  0  0  0
  5  7  1  0  0  0  0
  2  3  1  0  0  0  0
  2  4  1  0  0  0  0
  2  5  1  0  0  0  0
  1  2  1  0  0  0  0
 29 30  2  0  0  0  0
 29 31  1  0  0  0  0
 26 27  1  0  0  0  0
 26 28  2  0  0  0  0
 24 25  1  0  0  0  0
 24 26  1  0  0  0  0
 22 23  1  0  0  0  0
 22 24  2  0  0  0  0
 20 21  1  0  0  0  0
 20 22  1  0  0  0  0
 19 20  2  0  0  0  0
 19 28  1  0  0  0  0
 17 18  1  0  0  0  0
 17 19  1  0  0  0  0
 15 16  1  0  0  0  0
 15 17  1  0  0  0  0
 14 15  2  0  0  0  0
 14 28  1  0  0  0  0
 11 12  1  0  0  0  0
 11 13  1  0  0  0  0
 11 14  1  0  0  0  0
  9 10  1  0  0  0  0
  9 11  1  0  0  0  0
  9 29  1  0  0  0  0
  7  8  1  0  0  0  0
  7  9  1  0  0  0  0
 33 34  1  0  0  0  0
 33 35  1  0  0  0  0
 33 36  1  0  0  0  0
 31 32  1  0  0  0  0
 31 33  1  0  0  0  0
M  END
$$$$
default_name
  -OEChem-02102213163D

 36 37  0     1  0  0  0  0  0999 V2000
   -4.0843   -4.0736    1.2944 H   0  0  0  0  0  0  0  0  0  0  0  0
   -4.0342   -3.2816    0.5484 C   0  0  0  0  0  0  0  0  0  0  0  0
   -4.8842   -2.6126    0.6694 H   0  0  0  0  0  0  0  0  0  0  0  0
   -4.0433   -3.7186   -0.4486 H   0  0  0  0  0  0  0  0  0  0  0  0
   -2.7532   -2.5046    0.7444 C   0  0  0  0  0  0  0  0  0  0  0  0
   -1.9803   -2.8096    1.6434 O   0  0  0  0  0  0  0  0  0  0  0  0
   -2.5332   -1.4966   -0.0966 N   0  0  0  0  0  0  0  0  0  0  0  0
   -3.2312   -1.2816   -0.7936 H   0  0  0  0  0  0  0  0  0  0  0  0
   -1.3593   -0.6196   -0.0536 C   0  0  1  0  0  0  0  0  0  0  0  0
   -0.8788   -0.7266    0.9196 H   0  0  0  0  0  0  0  0  0  0  0  0
   -0.3559   -1.0533   -1.1339 C   0  0  0  0  0  0  0  0  0  0  0  0
   -0.9071   -1.4683   -1.9796 H   0  0  0  0  0  0  0  0  0  0  0  0
    0.1764   -0.1690   -1.4885 H   0  0  0  0  0  0  0  0  0  0  0  0
    0.6531   -2.0706   -0.6944 C   0  0  0  0  0  0  0  0  0  0  0  0
    1.9085   -2.1942   -1.1805 C   0  0  0  0  0  0  0  0  0  0  0  0
    2.3295   -1.5770   -1.9666 H   0  0  0  0  0  0  0  0  0  0  0  0
    2.5683   -3.2057   -0.5104 N   0  0  0  0  0  0  0  0  0  0  0  0
    3.5196   -3.4782   -0.7103 H   0  0  0  0  0  0  0  0  0  0  0  0
    1.7710   -3.7769    0.4585 C   0  0  0  0  0  0  0  0  0  0  0  0
    1.9863   -4.7941    1.3995 C   0  0  0  0  0  0  0  0  0  0  0  0
    2.9397   -5.2990    1.4511 H   0  0  0  0  0  0  0  0  0  0  0  0
    0.9438   -5.1483    2.2728 C   0  0  0  0  0  0  0  0  0  0  0  0
    1.0913   -5.9312    3.0043 H   0  0  0  0  0  0  0  0  0  0  0  0
   -0.2953   -4.4871    2.1897 C   0  0  0  0  0  0  0  0  0  0  0  0
   -1.0973   -4.7685    2.8580 H   0  0  0  0  0  0  0  0  0  0  0  0
   -0.5011   -3.4675    1.2387 C   0  0  0  0  0  0  0  0  0  0  0  0
   -1.4621   -2.9769    1.1767 H   0  0  0  0  0  0  0  0  0  0  0  0
    0.5279   -3.0843    0.3515 C   0  0  0  0  0  0  0  0  0  0  0  0
   -1.7617    0.8549   -0.2106 C   0  0  0  0  0  0  0  0  0  0  0  0
   -2.5726    1.1871   -1.0741 O   0  0  0  0  0  0  0  0  0  0  0  0
   -1.1941    1.7377    0.6223 N   0  0  0  0  0  0  0  0  0  0  0  0
   -0.4976    1.3916    1.2669 H   0  0  0  0  0  0  0  0  0  0  0  0
   -1.4666    3.1722    0.6095 C   0  0  0  0  0  0  0  0  0  0  0  0
   -2.5439    3.3427    0.6539 H   0  0  0  0  0  0  0  0  0  0  0  0
   -0.9893    3.6529    1.4644 H   0  0  0  0  0  0  0  0  0  0  0  0
   -1.0808    3.6095   -0.3129 H   0  0  0  0  0  0  0  0  0  0  0  0
  5  6  2  0  0  0  0
  5  7  1  0  0  0  0
  2  3  1  0  0  0  0
  2  4  1  0  0  0  0
  2  5  1  0  0  0  0
  1  2  1  0  0  0  0
 29 30  2  0  0  0  0
 29 31  1  0  0  0  0
 26 27  1  0  0  0  0
 26 28  2  0  0  0  0
 24 25  1  0  0  0  0
 24 26  1  0  0  0  0
 22 23  1  0  0  0  0
 22 24  2  0  0  0  0
 20 21  1  0  0  0  0
 20 22  1  0  0  0  0
 19 20  2  0  0  0  0
 19 28  1  0  0  0  0
 17 18  1  0  0  0  0
 17 19  1  0  0  0  0
 15 16  1  0  0  0  0
 15 17  1  0  0  0  0
 14 15  2  0  0  0  0
 14 28  1  0  0  0  0
 11 12  1  0  0  0  0
 11 13  1  0  0  0  0
 11 14  1  0  0  0  0
  9 10  1  0  0  0  0
  9 11  1  0  0  0  0
  9 29  1  0  0  0  0
  7  8  1  0  0  0  0
  7  9  1  0  0  0  0
 33 34  1  0  0  0  0
 33 35  1  0  0  0  0
 33 36  1  0  0  0  0
 31 32  1  0  0  0  0
 31 33  1  0  0  0  0
M  END
$$$$
default_name
  -OEChem-02102213163D

 36 37  0     1  0  0  0  0  0999 V2000
   -4.0843   -4.0736    1.2944 H   0  0  0  0  0  0  0  0  0  0  0  0
   -4.0342   -3.2816    0.5484 C   0  0  0  0  0  0  0  0  0  0  0  0
   -4.8842   -2.6126    0.6694 H   0  0  0  0  0  0  0  0  0  0  0  0
   -4.0433   -3.7186   -0.4486 H   0  0  0  0  0  0  0  0  0  0  0  0
   -2.7532   -2.5046    0.7444 C   0  0  0  0  0  0  0  0  0  0  0  0
   -1.9803   -2.8096    1.6434 O   0  0  0  0  0  0  0  0  0  0  0  0
   -2.5332   -1.4966   -0.0966 N   0  0  0  0  0  0  0  0  0  0  0  0
   -3.2312   -1.2816   -0.7936 H   0  0  0  0  0  0  0  0  0  0  0  0
   -1.3593   -0.6196   -0.0536 C   0  0  1  0  0  0  0  0  0  0  0  0
   -0.8788   -0.7266    0.9196 H   0  0  0  0  0  0  0  0  0  0  0  0
   -0.3559   -1.0533   -1.1339 C   0  0  0  0  0  0  0  0  0  0  0  0
   -0.9071   -1.4683   -1.9796 H   0  0  0  0  0  0  0  0  0  0  0  0
    0.1764   -0.1690   -1.4885 H   0  0  0  0  0  0  0  0  0  0  0  0
    0.6531   -2.0706   -0.6944 C   0  0  0  0  0  0  0  0  0  0  0  0
    1.9786   -2.0282   -0.9571 C   0  0  0  0  0  0  0  0  0  0  0  0
    2.4681   -1.2546   -1.5385 H   0  0  0  0  0  0  0  0  0  0  0  0
    2.6053   -3.1026   -0.3569 N   0  0  0  0  0  0  0  0  0  0  0  0
    3.5976   -3.2765   -0.4227 H   0  0  0  0  0  0  0  0  0  0  0  0
    1.7114   -3.8868    0.3408 C   0  0  0  0  0  0  0  0  0  0  0  0
    1.8569   -5.0426    1.1213 C   0  0  0  0  0  0  0  0  0  0  0  0
    2.8300   -5.4902    1.2608 H   0  0  0  0  0  0  0  0  0  0  0  0
    0.7186   -5.6113    1.7180 C   0  0  0  0  0  0  0  0  0  0  0  0
    0.8114   -6.5034    2.3226 H   0  0  0  0  0  0  0  0  0  0  0  0
   -0.5438   -5.0220    1.5222 C   0  0  0  0  0  0  0  0  0  0  0  0
   -1.4181   -5.4676    1.9763 H   0  0  0  0  0  0  0  0  0  0  0  0
   -0.6785   -3.8615    0.7340 C   0  0  0  0  0  0  0  0  0  0  0  0
   -1.6559   -3.4266    0.5808 H   0  0  0  0  0  0  0  0  0  0  0  0
    0.4462   -3.2626    0.1263 C   0  0  0  0  0  0  0  0  0  0  0  0
   -1.7617    0.8549   -0.2106 C   0  0  0  0  0  0  0  0  0  0  0  0
   -2.5726    1.1871   -1.0741 O   0  0  0  0  0  0  0  0  0  0  0  0
   -1.1941    1.7377    0.6223 N   0  0  0  0  0  0  0  0  0  0  0  0
   -0.4976    1.3916    1.2669 H   0  0  0  0  0  0  0  0  0  0  0  0
   -1.4666    3.1722    0.6095 C   0  0  0  0  0  0  0  0  0  0  0  0
   -2.5439    3.3427    0.6539 H   0  0  0  0  0  0  0  0  0  0  0  0
   -0.9893    3.6529    1.4644 H   0  0  0  0  0  0  0  0  0  0  0  0
   -1.0808    3.6095   -0.3129 H   0  0  0  0  0  0  0  0  0  0  0  0
  5  6  2  0  0  0  0
  5  7  1  0  0  0  0
  2  3  1  0  0  0  0
  2  4  1  0  0  0  0
  2  5  1  0  0  0  0
  1  2  1  0  0  0  0
 29 30  2  0  0  0  0
 29 31  1  0  0  0  0
 26 27  1  0  0  0  0
 26 28  2  0  0  0  0
 24 25  1  0  0  0  0
 24 26  1  0  0  0  0
 22 23  1  0  0  0  0
 22 24  2  0  0  0  0
 20 21  1  0  0  0  0
 20 22  1  0  0  0  0
 19 20  2  0  0  0  0
 19 28  1  0  0  0  0
 17 18  1  0  0  0  0
 17 19  1  0  0  0  0
 15 16  1  0  0  0  0
 15 17  1  0  0  0  0
 14 15  2  0  0  0  0
 14 28  1  0  0  0  0
 11 12  1  0  0  0  0
 11 13  1  0  0  0  0
 11 14  1  0  0  0  0
  9 10  1  0  0  0  0
  9 11  1  0  0  0  0
  9 29  1  0  0  0  0
  7  8  1  0  0  0  0
  7  9  1  0  0  0  0
 33 34  1  0  0  0  0
 33 35  1  0  0  0  0
 33 36  1  0  0  0  0
 31 32  1  0  0  0  0
 31 33  1  0  0  0  0
M  END
$$$$
default_name
  -OEChem-02102213163D

 36 37  0     1  0  0  0  0  0999 V2000
   -4.0843   -4.0736    1.2944 H   0  0  0  0  0  0  0  0  0  0  0  0
   -4.0342   -3.2816    0.5484 C   0  0  0  0  0  0  0  0  0  0  0  0
   -4.8842   -2.6126    0.6694 H   0  0  0  0  0  0  0  0  0  0  0  0
   -4.0433   -3.7186   -0.4486 H   0  0  0  0  0  0  0  0  0  0  0  0
   -2.7532   -2.5046    0.7444 C   0  0  0  0  0  0  0  0  0  0  0  0
   -1.9803   -2.8096    1.6434 O   0  0  0  0  0  0  0  0  0  0  0  0
   -2.5332   -1.4966   -0.0966 N   0  0  0  0  0  0  0  0  0  0  0  0
   -3.2312   -1.2816   -0.7936 H   0  0  0  0  0  0  0  0  0  0  0  0
   -1.3593   -0.6196   -0.0536 C   0  0  1  0  0  0  0  0  0  0  0  0
   -0.8788   -0.7266    0.9196 H   0  0  0  0  0  0  0  0  0  0  0  0
   -0.3559   -1.0533   -1.1339 C   0  0  0  0  0  0  0  0  0  0  0  0
   -0.9071   -1.4683   -1.9796 H   0  0  0  0  0  0  0  0  0  0  0  0
    0.1764   -0.1690   -1.4885 H   0  0  0  0  0  0  0  0  0  0  0  0
    0.6531   -2.0706   -0.6944 C   0  0  0  0  0  0  0  0  0  0  0  0
    1.9944   -1.9014   -0.7000 C   0  0  0  0  0  0  0  0  0  0  0  0
    2.5023   -1.0073   -1.0445 H   0  0  0  0  0  0  0  0  0  0  0  0
    2.6064   -3.0270   -0.1842 N   0  0  0  0  0  0  0  0  0  0  0  0
    3.6072   -3.1259   -0.0960 H   0  0  0  0  0  0  0  0  0  0  0  0
    1.6830   -3.9770    0.1974 C   0  0  0  0  0  0  0  0  0  0  0  0
    1.7995   -5.2441    0.7866 C   0  0  0  0  0  0  0  0  0  0  0  0
    2.7719   -5.6500    1.0243 H   0  0  0  0  0  0  0  0  0  0  0  0
    0.6337   -5.9790    1.0618 C   0  0  0  0  0  0  0  0  0  0  0  0
    0.7042   -6.9586    1.5151 H   0  0  0  0  0  0  0  0  0  0  0  0
   -0.6261   -5.4413    0.7406 C   0  0  0  0  0  0  0  0  0  0  0  0
   -1.5200   -6.0136    0.9464 H   0  0  0  0  0  0  0  0  0  0  0  0
   -0.7312   -4.1675    0.1467 C   0  0  0  0  0  0  0  0  0  0  0  0
   -1.7043   -3.7718   -0.1072 H   0  0  0  0  0  0  0  0  0  0  0  0
    0.4205   -3.4017   -0.1366 C   0  0  0  0  0  0  0  0  0  0  0  0
   -1.7617    0.8549   -0.2106 C   0  0  0  0  0  0  0  0  0  0  0  0
   -2.5726    1.1871   -1.0741 O   0  0  0  0  0  0  0  0  0  0  0  0
   -1.1941    1.7377    0.6223 N   0  0  0  0  0  0  0  0  0  0  0  0
   -0.4976    1.3916    1.2669 H   0  0  0  0  0  0  0  0  0  0  0  0
   -1.4666    3.1722    0.6095 C   0  0  0  0  0  0  0  0  0  0  0  0
   -2.5439    3.3427    0.6539 H   0  0  0  0  0  0  0  0  0  0  0  0
   -0.9893    3.6529    1.4644 H   0  0  0  0  0  0  0  0  0  0  0  0
   -1.0808    3.6095   -0.3129 H   0  0  0  0  0  0  0  0  0  0  0  0
  5  6  2  0  0  0  0
  5  7  1  0  0  0  0
  2  3  1  0  0  0  0
  2  4  1  0  0  0  0
  2  5  1  0  0  0  0
  1  2  1  0  0  0  0
 29 30  2  0  0  0  0
 29 31  1  0  0  0  0
 26 27  1  0  0  0  0
 26 28  2  0  0  0  0
 24 25  1  0  0  0  0
 24 26  1  0  0  0  0
 22 23  1  0  0  0  0
 22 24  2  0  0  0  0
 20 21  1  0  0  0  0
 20 22  1  0  0  0  0
 19 20  2  0  0  0  0
 19 28  1  0  0  0  0
 17 18  1  0  0  0  0
 17 19  1  0  0  0  0
 15 16  1  0  0  0  0
 15 17  1  0  0  0  0
 14 15  2  0  0  0  0
 14 28  1  0  0  0  0
 11 12  1  0  0  0  0
 11 13  1  0  0  0  0
 11 14  1  0  0  0  0
  9 10  1  0  0  0  0
  9 11  1  0  0  0  0
  9 29  1  0  0  0  0
  7  8  1  0  0  0  0
  7  9  1  0  0  0  0
 33 34  1  0  0  0  0
 33 35  1  0  0  0  0
 33 36  1  0  0  0  0
 31 32  1  0  0  0  0
 31 33  1  0  0  0  0
M  END
$$$$
default_name
  -OEChem-02102213163D

 36 37  0     1  0  0  0  0  0999 V2000
   -4.0843   -4.0736    1.2944 H   0  0  0  0  0  0  0  0  0  0  0  0
   -4.0342   -3.2816    0.5484 C   0  0  0  0  0  0  0  0  0  0  0  0
   -4.8842   -2.6126    0.6694 H   0  0  0  0  0  0  0  0  0  0  0  0
   -4.0433   -3.7186   -0.4486 H   0  0  0  0  0  0  0  0  0  0  0  0
   -2.7532   -2.5046    0.7444 C   0  0  0  0  0  0  0  0  0  0  0  0
   -1.9803   -2.8096    1.6434 O   0  0  0  0  0  0  0  0  0  0  0  0
   -2.5332   -1.4966   -0.0966 N   0  0  0  0  0  0  0  0  0  0  0  0
   -3.2312   -1.2816   -0.7936 H   0  0  0  0  0  0  0  0  0  0  0  0
   -1.3593   -0.6196   -0.0536 C   0  0  1  0  0  0  0  0  0  0  0  0
   -0.8788   -0.7266    0.9196 H   0  0  0  0  0  0  0  0  0  0  0  0
   -0.3559   -1.0533   -1.1339 C   0  0  0  0  0  0  0  0  0  0  0  0
   -0.9071   -1.4683   -1.9796 H   0  0  0  0  0  0  0  0  0  0  0  0
    0.1764   -0.1690   -1.4885 H   0  0  0  0  0  0  0  0  0  0  0  0
    0.6531   -2.0706   -0.6944 C   0  0  0  0  0  0  0  0  0  0  0  0
    1.9549   -1.8226   -0.4268 C   0  0  0  0  0  0  0  0  0  0  0  0
    2.4297   -0.8519   -0.5183 H   0  0  0  0  0  0  0  0  0  0  0  0
    2.5713   -2.9840   -0.0039 N   0  0  0  0  0  0  0  0  0  0  0  0
    3.5476   -3.0366    0.2475 H   0  0  0  0  0  0  0  0  0  0  0  0
    1.6875   -4.0413    0.0382 C   0  0  0  0  0  0  0  0  0  0  0  0
    1.8182   -5.3848    0.4182 C   0  0  0  0  0  0  0  0  0  0  0  0
    2.7694   -5.7675    0.7578 H   0  0  0  0  0  0  0  0  0  0  0  0
    0.6948   -6.2263    0.3491 C   0  0  0  0  0  0  0  0  0  0  0  0
    0.7770   -7.2657    0.6370 H   0  0  0  0  0  0  0  0  0  0  0  0
   -0.5363   -5.7163   -0.1019 C   0  0  0  0  0  0  0  0  0  0  0  0
   -1.3960   -6.3693   -0.1614 H   0  0  0  0  0  0  0  0  0  0  0  0
   -0.6557   -4.3647   -0.4831 C   0  0  0  0  0  0  0  0  0  0  0  0
   -1.6040   -3.9891   -0.8404 H   0  0  0  0  0  0  0  0  0  0  0  0
    0.4523   -3.4922   -0.4194 C   0  0  0  0  0  0  0  0  0  0  0  0
   -1.7617    0.8549   -0.2106 C   0  0  0  0  0  0  0  0  0  0  0  0
   -2.5726    1.1871   -1.0741 O   0  0  0  0  0  0  0  0  0  0  0  0
   -1.1941    1.7377    0.6223 N   0  0  0  0  0  0  0  0  0  0  0  0
   -0.4976    1.3916    1.2669 H   0  0  0  0  0  0  0  0  0  0  0  0
   -1.4666    3.1722    0.6095 C   0  0  0  0  0  0  0  0  0  0  0  0
   -2.5439    3.3427    0.6539 H   0  0  0  0  0  0  0  0  0  0  0  0
   -0.9893    3.6529    1.4644 H   0  0  0  0  0  0  0  0  0  0  0  0
   -1.0808    3.6095   -0.3129 H   0  0  0  0  0  0  0  0  0  0  0  0
  5  6  2  0  0  0  0
  5  7  1  0  0  0  0
  2  3  1  0  0  0  0
  2  4  1  0  0  0  0
  2  5  1  0  0  0  0
  1  2  1  0  0  0  0
 29 30  2  0  0  0  0
 29 31  1  0  0  0  0
 26 27  1  0  0  0  0
 26 28  2  0  0  0  0
 24 25  1  0  0  0  0
 24 26  1  0  0  0  0
 22 23  1  0  0  0  0
 22 24  2  0  0  0  0
 20 21  1  0  0  0  0
 20 22  1  0  0  0  0
 19 20  2  0  0  0  0
 19 28  1  0  0  0  0
 17 18  1  0  0  0  0
 17 19  1  0  0  0  0
 15 16  1  0  0  0  0
 15 17  1  0  0  0  0
 14 15  2  0  0  0  0
 14 28  1  0  0  0  0
 11 12  1  0  0  0  0
 11 13  1  0  0  0  0
 11 14  1  0  0  0  0
  9 10  1  0  0  0  0
  9 11  1  0  0  0  0
  9 29  1  0  0  0  0
  7  8  1  0  0  0  0
  7  9  1  0  0  0  0
 33 34  1  0  0  0  0
 33 35  1  0  0  0  0
 33 36  1  0  0  0  0
 31 32  1  0  0  0  0
 31 33  1  0  0  0  0
M  END
$$$$
default_name
  -OEChem-02102213163D

 36 37  0     1  0  0  0  0  0999 V2000
   -4.0843   -4.0736    1.2944 H   0  0  0  0  0  0  0  0  0  0  0  0
   -4.0342   -3.2816    0.5484 C   0  0  0  0  0  0  0  0  0  0  0  0
   -4.8842   -2.6126    0.6694 H   0  0  0  0  0  0  0  0  0  0  0  0
   -4.0433   -3.7186   -0.4486 H   0  0  0  0  0  0  0  0  0  0  0  0
   -2.7532   -2.5046    0.7444 C   0  0  0  0  0  0  0  0  0  0  0  0
   -1.9803   -2.8096    1.6434 O   0  0  0  0  0  0  0  0  0  0  0  0
   -2.5332   -1.4966   -0.0966 N   0  0  0  0  0  0  0  0  0  0  0  0
   -3.2312   -1.2816   -0.7936 H   0  0  0  0  0  0  0  0  0  0  0  0
   -1.3593   -0.6196   -0.0536 C   0  0  1  0  0  0  0  0  0  0  0  0
   -0.8788   -0.7266    0.9196 H   0  0  0  0  0  0  0  0  0  0  0  0
   -0.3559   -1.0533   -1.1339 C   0  0  0  0  0  0  0  0  0  0  0  0
   -0.9071   -1.4683   -1.9796 H   0  0  0  0  0  0  0  0  0  0  0  0
    0.1764   -0.1690   -1.4885 H   0  0  0  0  0  0  0  0  0  0  0  0
    0.6531   -2.0706   -0.6944 C   0  0  0  0  0  0  0  0  0  0  0  0
    1.8627   -1.7971   -0.1562 C   0  0  0  0  0  0  0  0  0  0  0  0
    2.2554   -0.7990    0.0044 H   0  0  0  0  0  0  0  0  0  0  0  0
    2.5024   -2.9764    0.1715 N   0  0  0  0  0  0  0  0  0  0  0  0
    3.4229   -3.0148    0.5843 H   0  0  0  0  0  0  0  0  0  0  0  0
    1.7247   -4.0753   -0.1259 C   0  0  0  0  0  0  0  0  0  0  0  0
    1.9117   -5.4550    0.0410 C   0  0  0  0  0  0  0  0  0  0  0  0
    2.8228   -5.8348    0.4795 H   0  0  0  0  0  0  0  0  0  0  0  0
    0.8979   -6.3363   -0.3718 C   0  0  0  0  0  0  0  0  0  0  0  0
    1.0250   -7.4038   -0.2518 H   0  0  0  0  0  0  0  0  0  0  0  0
   -0.2808   -5.8283   -0.9479 C   0  0  0  0  0  0  0  0  0  0  0  0
   -1.0547   -6.5104   -1.2717 H   0  0  0  0  0  0  0  0  0  0  0  0
   -0.4571   -4.4398   -1.1126 C   0  0  0  0  0  0  0  0  0  0  0  0
   -1.3618   -4.0636   -1.5689 H   0  0  0  0  0  0  0  0  0  0  0  0
    0.5396   -3.5280   -0.7026 C   0  0  0  0  0  0  0  0  0  0  0  0
   -1.7617    0.8549   -0.2106 C   0  0  0  0  0  0  0  0  0  0  0  0
   -2.5726    1.1871   -1.0741 O   0  0  0  0  0  0  0  0  0  0  0  0
   -1.1941    1.7377    0.6223 N   0  0  0  0  0  0  0  0  0  0  0  0
   -0.4976    1.3916    1.2669 H   0  0  0  0  0  0  0  0  0  0  0  0
   -1.4666    3.1722    0.6095 C   0  0  0  0  0  0  0  0  0  0  0  0
   -2.5439    3.3427    0.6539 H   0  0  0  0  0  0  0  0  0  0  0  0
   -0.9893    3.6529    1.4644 H   0  0  0  0  0  0  0  0  0  0  0  0
   -1.0808    3.6095   -0.3129 H   0  0  0  0  0  0  0  0  0  0  0  0
  5  6  2  0  0  0  0
  5  7  1  0  0  0  0
  2  3  1  0  0  0  0
  2  4  1  0  0  0  0
  2  5  1  0  0  0  0
  1  2  1  0  0  0  0
 29 30  2  0  0  0  0
 29 31  1  0  0  0  0
 26 27  1  0  0  0  0
 26 28  2  0  0  0  0
 24 25  1  0  0  0  0
 24 26  1  0  0  0  0
 22 23  1  0  0  0  0
 22 24  2  0  0  0  0
 20 21  1  0  0  0  0
 20 22  1  0  0  0  0
 19 20  2  0  0  0  0
 19 28  1  0  0  0  0
 17 18  1  0  0  0  0
 17 19  1  0  0  0  0
 15 16  1  0  0  0  0
 15 17  1  0  0  0  0
 14 15  2  0  0  0  0
 14 28  1  0  0  0  0
 11 12  1  0  0  0  0
 11 13  1  0  0  0  0
 11 14  1  0  0  0  0
  9 10  1  0  0  0  0
  9 11  1  0  0  0  0
  9 29  1  0  0  0  0
  7  8  1  0  0  0  0
  7  9  1  0  0  0  0
 33 34  1  0  0  0  0
 33 35  1  0  0  0  0
 33 36  1  0  0  0  0
 31 32  1  0  0  0  0
 31 33  1  0  0  0  0
M  END
$$$$
default_name
  -OEChem-02102213163D

 36 37  0     1  0  0  0  0  0999 V2000
   -4.0843   -4.0736    1.2944 H   0  0  0  0  0  0  0  0  0  0  0  0
   -4.0342   -3.2816    0.5484 C   0  0  0  0  0  0  0  0  0  0  0  0
   -4.8842   -2.6126    0.6694 H   0  0  0  0  0  0  0  0  0  0  0  0
   -4.0433   -3.7186   -0.4486 H   0  0  0  0  0  0  0  0  0  0  0  0
   -2.7532   -2.5046    0.7444 C   0  0  0  0  0  0  0  0  0  0  0  0
   -1.9803   -2.8096    1.6434 O   0  0  0  0  0  0  0  0  0  0  0  0
   -2.5332   -1.4966   -0.0966 N   0  0  0  0  0  0  0  0  0  0  0  0
   -3.2312   -1.2816   -0.7936 H   0  0  0  0  0  0  0  0  0  0  0  0
   -1.3593   -0.6196   -0.0536 C   0  0  1  0  0  0  0  0  0  0  0  0
   -0.8788   -0.7266    0.9196 H   0  0  0  0  0  0  0  0  0  0  0  0
   -0.3559   -1.0533   -1.1339 C   0  0  0  0  0  0  0  0  0  0  0  0
   -0.9071   -1.4683   -1.9796 H   0  0  0  0  0  0  0  0  0  0  0  0
    0.1764   -0.1690   -1.4885 H   0  0  0  0  0  0  0  0  0  0  0  0
    0.6531   -2.0706   -0.6944 C   0  0  0  0  0  0  0  0  0  0  0  0
    1.7243   -1.8266    0.0935 C   0  0  0  0  0  0  0  0  0  0  0  0
    1.9912   -0.8522    0.4879 H   0  0  0  0  0  0  0  0  0  0  0  0
    2.4045   -3.0050    0.3301 N   0  0  0  0  0  0  0  0  0  0  0  0
    3.2416   -3.0618    0.8916 H   0  0  0  0  0  0  0  0  0  0  0  0
    1.7921   -4.0767   -0.2839 C   0  0  0  0  0  0  0  0  0  0  0  0
    2.0736   -5.4500   -0.3191 C   0  0  0  0  0  0  0  0  0  0  0  0
    2.9284   -5.8472    0.2083 H   0  0  0  0  0  0  0  0  0  0  0  0
    1.2290   -6.3016   -1.0515 C   0  0  0  0  0  0  0  0  0  0  0  0
    1.4311   -7.3634   -1.0909 H   0  0  0  0  0  0  0  0  0  0  0  0
    0.1231   -5.7697   -1.7396 C   0  0  0  0  0  0  0  0  0  0  0  0
   -0.5192   -6.4274   -2.3088 H   0  0  0  0  0  0  0  0  0  0  0  0
   -0.1491   -4.3875   -1.6989 C   0  0  0  0  0  0  0  0  0  0  0  0
   -0.9942   -3.9902   -2.2429 H   0  0  0  0  0  0  0  0  0  0  0  0
    0.6765   -3.5066   -0.9672 C   0  0  0  0  0  0  0  0  0  0  0  0
   -1.7617    0.8549   -0.2106 C   0  0  0  0  0  0  0  0  0  0  0  0
   -2.5726    1.1871   -1.0741 O   0  0  0  0  0  0  0  0  0  0  0  0
   -1.1941    1.7377    0.6223 N   0  0  0  0  0  0  0  0  0  0  0  0
   -0.4976    1.3916    1.2669 H   0  0  0  0  0  0  0  0  0  0  0  0
   -1.4666    3.1722    0.6095 C   0  0  0  0  0  0  0  0  0  0  0  0
   -2.5439    3.3427    0.6539 H   0  0  0  0  0  0  0  0  0  0  0  0
   -0.9893    3.6529    1.4644 H   0  0  0  0  0  0  0  0  0  0  0  0
   -1.0808    3.6095   -0.3129 H   0  0  0  0  0  0  0  0  0  0  0  0
  5  6  2  0  0  0  0
  5  7  1  0  0  0  0
  2  3  1  0  0  0  0
  2  4  1  0  0  0  0
  2  5  1  0  0  0  0
  1  2  1  0  0  0  0
 29 30  2  0  0  0  0
 29 31  1  0  0  0  0
 26 27  1  0  0  0  0
 26 28  2  0  0  0  0
 24 25  1  0  0  0  0
 24 26  1  0  0  0  0
 22 23  1  0  0  0  0
 22 24  2  0  0  0  0
 20 21  1  0  0  0  0
 20 22  1  0  0  0  0
 19 20  2  0  0  0  0
 19 28  1  0  0  0  0
 17 18  1  0  0  0  0
 17 19  1  0  0  0  0
 15 16  1  0  0  0  0
 15 17  1  0  0  0  0
 14 15  2  0  0  0  0
 14 28  1  0  0  0  0
 11 12  1  0  0  0  0
 11 13  1  0  0  0  0
 11 14  1  0  0  0  0
  9 10  1  0  0  0  0
  9 11  1  0  0  0  0
  9 29  1  0  0  0  0
  7  8  1  0  0  0  0
  7  9  1  0  0  0  0
 33 34  1  0  0  0  0
 33 35  1  0  0  0  0
 33 36  1  0  0  0  0
 31 32  1  0  0  0  0
 31 33  1  0  0  0  0
M  END
$$$$
default_name
  -OEChem-02102213163D

 36 37  0     1  0  0  0  0  0999 V2000
   -4.0843   -4.0736    1.2944 H   0  0  0  0  0  0  0  0  0  0  0  0
   -4.0342   -3.2816    0.5484 C   0  0  0  0  0  0  0  0  0  0  0  0
   -4.8842   -2.6126    0.6694 H   0  0  0  0  0  0  0  0  0  0  0  0
   -4.0433   -3.7186   -0.4486 H   0  0  0  0  0  0  0  0  0  0  0  0
   -2.7532   -2.5046    0.7444 C   0  0  0  0  0  0  0  0  0  0  0  0
   -1.9803   -2.8096    1.6434 O   0  0  0  0  0  0  0  0  0  0  0  0
   -2.5332   -1.4966   -0.0966 N   0  0  0  0  0  0  0  0  0  0  0  0
   -3.2312   -1.2816   -0.7936 H   0  0  0  0  0  0  0  0  0  0  0  0
   -1.3593   -0.6196   -0.0536 C   0  0  1  0  0  0  0  0  0  0  0  0
   -0.8788   -0.7266    0.9196 H   0  0  0  0  0  0  0  0  0  0  0  0
   -0.3559   -1.0533   -1.1339 C   0  0  0  0  0  0  0  0  0  0  0  0
   -0.9071   -1.4683   -1.9796 H   0  0  0  0  0  0  0  0  0  0  0  0
    0.1764   -0.1690   -1.4885 H   0  0  0  0  0  0  0  0  0  0  0  0
    0.6531   -2.0706   -0.6944 C   0  0  0  0  0  0  0  0  0  0  0  0
    1.5489   -1.9090    0.3052 C   0  0  0  0  0  0  0  0  0  0  0  0
    1.6550   -1.0079    0.8992 H   0  0  0  0  0  0  0  0  0  0  0  0
    2.2843   -3.0676    0.4612 N   0  0  0  0  0  0  0  0  0  0  0  0
    3.0161   -3.1746    1.1484 H   0  0  0  0  0  0  0  0  0  0  0  0
    1.8850   -4.0455   -0.4249 C   0  0  0  0  0  0  0  0  0  0  0  0
    2.2928   -5.3701   -0.6376 C   0  0  0  0  0  0  0  0  0  0  0  0
    3.0789   -5.8040   -0.0372 H   0  0  0  0  0  0  0  0  0  0  0  0
    1.6657   -6.1245   -1.6439 C   0  0  0  0  0  0  0  0  0  0  0  0
    1.9677   -7.1475   -1.8230 H   0  0  0  0  0  0  0  0  0  0  0  0
    0.6480   -5.5445   -2.4232 C   0  0  0  0  0  0  0  0  0  0  0  0
    0.1739   -6.1258   -3.2019 H   0  0  0  0  0  0  0  0  0  0  0  0
    0.2475   -4.2115   -2.2019 C   0  0  0  0  0  0  0  0  0  0  0  0
   -0.5263   -3.7740   -2.8166 H   0  0  0  0  0  0  0  0  0  0  0  0
    0.8535   -3.4294   -1.1949 C   0  0  0  0  0  0  0  0  0  0  0  0
   -1.7617    0.8549   -0.2106 C   0  0  0  0  0  0  0  0  0  0  0  0
   -2.5726    1.1871   -1.0741 O   0  0  0  0  0  0  0  0  0  0  0  0
   -1.1941    1.7377    0.6223 N   0  0  0  0  0  0  0  0  0  0  0  0
   -0.4976    1.3916    1.2669 H   0  0  0  0  0  0  0  0  0  0  0  0
   -1.4666    3.1722    0.6095 C   0  0  0  0  0  0  0  0  0  0  0  0
   -2.5439    3.3427    0.6539 H   0  0  0  0  0  0  0  0  0  0  0  0
   -0.9893    3.6529    1.4644 H   0  0  0  0  0  0  0  0  0  0  0  0
   -1.0808    3.6095   -0.3129 H   0  0  0  0  0  0  0  0  0  0  0  0
  5  6  2  0  0  0  0
  5  7  1  0  0  0  0
  2  3  1  0  0  0  0
  2  4  1  0  0  0  0
  2  5  1  0  0  0  0
  1  2  1  0  0  0  0
 29 30  2  0  0  0  0
 29 31  1  0  0  0  0
 26 27  1  0  0  0  0
 26 28  2  0  0  0  0
 24 25  1  0  0  0  0
 24 26  1  0  0  0  0
 22 23  1  0  0  0  0
 22 24  2  0  0  0  0
 20 21  1  0  0  0  0
 20 22  1  0  0  0  0
 19 20  2  0  0  0  0
 19 28  1  0  0  0  0
 17 18  1  0  0  0  0
 17 19  1  0  0  0  0
 15 16  1  0  0  0  0
 15 17  1  0  0  0  0
 14 15  2  0  0  0  0
 14 28  1  0  0  0  0
 11 12  1  0  0  0  0
 11 13  1  0  0  0  0
 11 14  1  0  0  0  0
  9 10  1  0  0  0  0
  9 11  1  0  0  0  0
  9 29  1  0  0  0  0
  7  8  1  0  0  0  0
  7  9  1  0  0  0  0
 33 34  1  0  0  0  0
 33 35  1  0  0  0  0
 33 36  1  0  0  0  0
 31 32  1  0  0  0  0
 31 33  1  0  0  0  0
M  END
$$$$
default_name
  -OEChem-02102213163D

 36 37  0     1  0  0  0  0  0999 V2000
   -4.0843   -4.0736    1.2944 H   0  0  0  0  0  0  0  0  0  0  0  0
   -4.0342   -3.2816    0.5484 C   0  0  0  0  0  0  0  0  0  0  0  0
   -4.8842   -2.6126    0.6694 H   0  0  0  0  0  0  0  0  0  0  0  0
   -4.0433   -3.7186   -0.4486 H   0  0  0  0  0  0  0  0  0  0  0  0
   -2.7532   -2.5046    0.7444 C   0  0  0  0  0  0  0  0  0  0  0  0
   -1.9803   -2.8096    1.6434 O   0  0  0  0  0  0  0  0  0  0  0  0
   -2.5332   -1.4966   -0.0966 N   0  0  0  0  0  0  0  0  0  0  0  0
   -3.2312   -1.2816   -0.7936 H   0  0  0  0  0  0  0  0  0  0  0  0
   -1.3593   -0.6196   -0.0536 C   0  0  1  0  0  0  0  0  0  0  0  0
   -0.8788   -0.7266    0.9196 H   0  0  0  0  0  0  0  0  0  0  0  0
   -0.3559   -1.0533   -1.1339 C   0  0  0  0  0  0  0  0  0  0  0  0
   -0.9071   -1.4683   -1.9796 H   0  0  0  0  0  0  0  0  0  0  0  0
    0.1764   -0.1690   -1.4885 H   0  0  0  0  0  0  0  0  0  0  0  0
    0.6531   -2.0706   -0.6944 C   0  0  0  0  0  0  0  0  0  0  0  0
    1.3485   -2.0389    0.4645 C   0  0  0  0  0  0  0  0  0  0  0  0
    1.2699   -1.2555    1.2103 H   0  0  0  0  0  0  0  0  0  0  0  0
    2.1498   -3.1601    0.5558 N   0  0  0  0  0  0  0  0  0  0  0  0
    2.7617   -3.3453    1.3371 H   0  0  0  0  0  0  0  0  0  0  0  0
    1.9972   -3.9836   -0.5393 C   0  0  0  0  0  0  0  0  0  0  0  0
    2.5545   -5.2209   -0.8928 C   0  0  0  0  0  0  0  0  0  0  0  0
    3.2642   -5.7080   -0.2404 H   0  0  0  0  0  0  0  0  0  0  0  0
    2.1780   -5.8170   -2.1085 C   0  0  0  0  0  0  0  0  0  0  0  0
    2.5983   -6.7706   -2.3983 H   0  0  0  0  0  0  0  0  0  0  0  0
    1.2579   -5.1680   -2.9521 C   0  0  0  0  0  0  0  0  0  0  0  0
    0.9774   -5.6262   -3.8904 H   0  0  0  0  0  0  0  0  0  0  0  0
    0.7056   -3.9237   -2.5875 C   0  0  0  0  0  0  0  0  0  0  0  0
    0.0100   -3.4296   -3.2509 H   0  0  0  0  0  0  0  0  0  0  0  0
    1.0586   -3.3018   -1.3703 C   0  0  0  0  0  0  0  0  0  0  0  0
   -1.7617    0.8549   -0.2106 C   0  0  0  0  0  0  0  0  0  0  0  0
   -2.5726    1.1871   -1.0741 O   0  0  0  0  0  0  0  0  0  0  0  0
   -1.1941    1.7377    0.6223 N   0  0  0  0  0  0  0  0  0  0  0  0
   -0.4976    1.3916    1.2669 H   0  0  0  0  0  0  0  0  0  0  0  0
   -1.4666    3.1722    0.6095 C   0  0  0  0  0  0  0  0  0  0  0  0
   -2.5439    3.3427    0.6539 H   0  0  0  0  0  0  0  0  0  0  0  0
   -0.9893    3.6529    1.4644 H   0  0  0  0  0  0  0  0  0  0  0  0
   -1.0808    3.6095   -0.3129 H   0  0  0  0  0  0  0  0  0  0  0  0
  5  6  2  0  0  0  0
  5  7  1  0  0  0  0
  2  3  1  0  0  0  0
  2  4  1  0  0  0  0
  2  5  1  0  0  0  0
  1  2  1  0  0  0  0
 29 30  2  0  0  0  0
 29 31  1  0  0  0  0
 26 27  1  0  0  0  0
 26 28  2  0  0  0  0
 24 25  1  0  0  0  0
 24 26  1  0  0  0  0
 22 23  1  0  0  0  0
 22 24  2  0  0  0  0
 20 21  1  0  0  0  0
 20 22  1  0  0  0  0
 19 20  2  0  0  0  0
 19 28  1  0  0  0  0
 17 18  1  0  0  0  0
 17 19  1  0  0  0  0
 15 16  1  0  0  0  0
 15 17  1  0  0  0  0
 14 15  2  0  0  0  0
 14 28  1  0  0  0  0
 11 12  1  0  0  0  0
 11 13  1  0  0  0  0
 11 14  1  0  0  0  0
  9 10  1  0  0  0  0
  9 11  1  0  0  0  0
  9 29  1  0  0  0  0
  7  8  1  0  0  0  0
  7  9  1  0  0  0  0
 33 34  1  0  0  0  0
 33 35  1  0  0  0  0
 33 36  1  0  0  0  0
 31 32  1  0  0  0  0
 31 33  1  0  0  0  0
M  END
$$$$
default_name
  -OEChem-02102213163D

 36 37  0     1  0  0  0  0  0999 V2000
   -4.0843   -4.0736    1.2944 H   0  0  0  0  0  0  0  0  0  0  0  0
   -4.0342   -3.2816    0.5484 C   0  0  0  0  0  0  0  0  0  0  0  0
   -4.8842   -2.6126    0.6694 H   0  0  0  0  0  0  0  0  0  0  0  0
   -4.0433   -3.7186   -0.4486 H   0  0  0  0  0  0  0  0  0  0  0  0
   -2.7532   -2.5046    0.7444 C   0  0  0  0  0  0  0  0  0  0  0  0
   -1.9803   -2.8096    1.6434 O   0  0  0  0  0  0  0  0  0  0  0  0
   -2.5332   -1.4966   -0.0966 N   0  0  0  0  0  0  0  0  0  0  0  0
   -3.2312   -1.2816   -0.7936 H   0  0  0  0  0  0  0  0  0  0  0  0
   -1.3593   -0.6196   -0.0536 C   0  0  1  0  0  0  0  0  0  0  0  0
   -0.8788   -0.7266    0.9196 H   0  0  0  0  0  0  0  0  0  0  0  0
   -0.3559   -1.0533   -1.1339 C   0  0  0  0  0  0  0  0  0  0  0  0
   -0.9071   -1.4683   -1.9796 H   0  0  0  0  0  0  0  0  0  0  0  0
    0.1764   -0.1690   -1.4885 H   0  0  0  0  0  0  0  0  0  0  0  0
    0.6531   -2.0706   -0.6944 C   0  0  0  0  0  0  0  0  0  0  0  0
    1.1369   -2.2074    0.5606 C   0  0  0  0  0  0  0  0  0  0  0  0
    0.8621   -1.5780    1.4000 H   0  0  0  0  0  0  0  0  0  0  0  0
    2.0104   -3.2761    0.6074 N   0  0  0  0  0  0  0  0  0  0  0  0
    2.4958   -3.5625    1.4450 H   0  0  0  0  0  0  0  0  0  0  0  0
    2.1209   -3.8955   -0.6193 C   0  0  0  0  0  0  0  0  0  0  0  0
    2.8408   -5.0124   -1.0674 C   0  0  0  0  0  0  0  0  0  0  0  0
    3.4716   -5.5658   -0.3874 H   0  0  0  0  0  0  0  0  0  0  0  0
    2.7312   -5.4001   -2.4137 C   0  0  0  0  0  0  0  0  0  0  0  0
    3.2799   -6.2584   -2.7775 H   0  0  0  0  0  0  0  0  0  0  0  0
    1.9114   -4.6659   -3.2902 C   0  0  0  0  0  0  0  0  0  0  0  0
    1.8366   -4.9628   -4.3271 H   0  0  0  0  0  0  0  0  0  0  0  0
    1.1940   -3.5438   -2.8293 C   0  0  0  0  0  0  0  0  0  0  0  0
    0.5783   -2.9806   -3.5162 H   0  0  0  0  0  0  0  0  0  0  0  0
    1.2778   -3.1323   -1.4815 C   0  0  0  0  0  0  0  0  0  0  0  0
   -1.7617    0.8549   -0.2106 C   0  0  0  0  0  0  0  0  0  0  0  0
   -2.5726    1.1871   -1.0741 O   0  0  0  0  0  0  0  0  0  0  0  0
   -1.1941    1.7377    0.6223 N   0  0  0  0  0  0  0  0  0  0  0  0
   -0.4976    1.3916    1.2669 H   0  0  0  0  0  0  0  0  0  0  0  0
   -1.4666    3.1722    0.6095 C   0  0  0  0  0  0  0  0  0  0  0  0
   -2.5439    3.3427    0.6539 H   0  0  0  0  0  0  0  0  0  0  0  0
   -0.9893    3.6529    1.4644 H   0  0  0  0  0  0  0  0  0  0  0  0
   -1.0808    3.6095   -0.3129 H   0  0  0  0  0  0  0  0  0  0  0  0
  5  6  2  0  0  0  0
  5  7  1  0  0  0  0
  2  3  1  0  0  0  0
  2  4  1  0  0  0  0
  2  5  1  0  0  0  0
  1  2  1  0  0  0  0
 29 30  2  0  0  0  0
 29 31  1  0  0  0  0
 26 27  1  0  0  0  0
 26 28  2  0  0  0  0
 24 25  1  0  0  0  0
 24 26  1  0  0  0  0
 22 23  1  0  0  0  0
 22 24  2  0  0  0  0
 20 21  1  0  0  0  0
 20 22  1  0  0  0  0
 19 20  2  0  0  0  0
 19 28  1  0  0  0  0
 17 18  1  0  0  0  0
 17 19  1  0  0  0  0
 15 16  1  0  0  0  0
 15 17  1  0  0  0  0
 14 15  2  0  0  0  0
 14 28  1  0  0  0  0
 11 12  1  0  0  0  0
 11 13  1  0  0  0  0
 11 14  1  0  0  0  0
  9 10  1  0  0  0  0
  9 11  1  0  0  0  0
  9 29  1  0  0  0  0
  7  8  1  0  0  0  0
  7  9  1  0  0  0  0
 33 34  1  0  0  0  0
 33 35  1  0  0  0  0
 33 36  1  0  0  0  0
 31 32  1  0  0  0  0
 31 33  1  0  0  0  0
M  END
$$$$
default_name
  -OEChem-02102213163D

 36 37  0     1  0  0  0  0  0999 V2000
   -4.0843   -4.0736    1.2944 H   0  0  0  0  0  0  0  0  0  0  0  0
   -4.0342   -3.2816    0.5484 C   0  0  0  0  0  0  0  0  0  0  0  0
   -4.8842   -2.6126    0.6694 H   0  0  0  0  0  0  0  0  0  0  0  0
   -4.0433   -3.7186   -0.4486 H   0  0  0  0  0  0  0  0  0  0  0  0
   -2.7532   -2.5046    0.7444 C   0  0  0  0  0  0  0  0  0  0  0  0
   -1.9803   -2.8096    1.6434 O   0  0  0  0  0  0  0  0  0  0  0  0
   -2.5332   -1.4966   -0.0966 N   0  0  0  0  0  0  0  0  0  0  0  0
   -3.2312   -1.2816   -0.7936 H   0  0  0  0  0  0  0  0  0  0  0  0
   -1.3593   -0.6196   -0.0536 C   0  0  1  0  0  0  0  0  0  0  0  0
   -0.8788   -0.7266    0.9196 H   0  0  0  0  0  0  0  0  0  0  0  0
   -0.3559   -1.0533   -1.1339 C   0  0  0  0  0  0  0  0  0  0  0  0
   -0.9071   -1.4683   -1.9796 H   0  0  0  0  0  0  0  0  0  0  0  0
    0.1764   -0.1690   -1.4885 H   0  0  0  0  0  0  0  0  0  0  0  0
    0.6531   -2.0706   -0.6944 C   0  0  0  0  0  0  0  0  0  0  0  0
    0.9283   -2.4029    0.5868 C   0  0  0  0  0  0  0  0  0  0  0  0
    0.4593   -1.9536    1.4553 H   0  0  0  0  0  0  0  0  0  0  0  0
    1.8754   -3.4077    0.6126 N   0  0  0  0  0  0  0  0  0  0  0  0
    2.2365   -3.8112    1.4647 H   0  0  0  0  0  0  0  0  0  0  0  0
    2.2478   -3.7870   -0.6595 C   0  0  0  0  0  0  0  0  0  0  0  0
    3.1321   -4.7588   -1.1494 C   0  0  0  0  0  0  0  0  0  0  0  0
    3.6869   -5.3871   -0.4682 H   0  0  0  0  0  0  0  0  0  0  0  0
    3.2876   -4.9023   -2.5387 C   0  0  0  0  0  0  0  0  0  0  0  0
    3.9660   -5.6459   -2.9348 H   0  0  0  0  0  0  0  0  0  0  0  0
    2.5639   -4.0724   -3.4144 C   0  0  0  0  0  0  0  0  0  0  0  0
    2.6928   -4.1806   -4.4825 H   0  0  0  0  0  0  0  0  0  0  0  0
    1.6794   -3.0976   -2.9109 C   0  0  0  0  0  0  0  0  0  0  0  0
    1.1397   -2.4576   -3.5944 H   0  0  0  0  0  0  0  0  0  0  0  0
    1.4963   -2.9326   -1.5208 C   0  0  0  0  0  0  0  0  0  0  0  0
   -1.7617    0.8549   -0.2106 C   0  0  0  0  0  0  0  0  0  0  0  0
   -2.5726    1.1871   -1.0741 O   0  0  0  0  0  0  0  0  0  0  0  0
   -1.1941    1.7377    0.6223 N   0  0  0  0  0  0  0  0  0  0  0  0
   -0.4976    1.3916    1.2669 H   0  0  0  0  0  0  0  0  0  0  0  0
   -1.4666    3.1722    0.6095 C   0  0  0  0  0  0  0  0  0  0  0  0
   -2.5439    3.3427    0.6539 H   0  0  0  0  0  0  0  0  0  0  0  0
   -0.9893    3.6529    1.4644 H   0  0  0  0  0  0  0  0  0  0  0  0
   -1.0808    3.6095   -0.3129 H   0  0  0  0  0  0  0  0  0  0  0  0
  5  6  2  0  0  0  0
  5  7  1  0  0  0  0
  2  3  1  0  0  0  0
  2  4  1  0  0  0  0
  2  5  1  0  0  0  0
  1  2  1  0  0  0  0
 29 30  2  0  0  0  0
 29 31  1  0  0  0  0
 26 27  1  0  0  0  0
 26 28  2  0  0  0  0
 24 25  1  0  0  0  0
 24 26  1  0  0  0  0
 22 23  1  0  0  0  0
 22 24  2  0  0  0  0
 20 21  1  0  0  0  0
 20 22  1  0  0  0  0
 19 20  2  0  0  0  0
 19 28  1  0  0  0  0
 17 18  1  0  0  0  0
 17 19  1  0  0  0  0
 15 16  1  0  0  0  0
 15 17  1  0  0  0  0
 14 15  2  0  0  0  0
 14 28  1  0  0  0  0
 11 12  1  0  0  0  0
 11 13  1  0  0  0  0
 11 14  1  0  0  0  0
  9 10  1  0  0  0  0
  9 11  1  0  0  0  0
  9 29  1  0  0  0  0
  7  8  1  0  0  0  0
  7  9  1  0  0  0  0
 33 34  1  0  0  0  0
 33 35  1  0  0  0  0
 33 36  1  0  0  0  0
 31 32  1  0  0  0  0
 31 33  1  0  0  0  0
M  END
$$$$
default_name
  -OEChem-02102213163D

 36 37  0     1  0  0  0  0  0999 V2000
   -4.0843   -4.0736    1.2944 H   0  0  0  0  0  0  0  0  0  0  0  0
   -4.0342   -3.2816    0.5484 C   0  0  0  0  0  0  0  0  0  0  0  0
   -4.8842   -2.6126    0.6694 H   0  0  0  0  0  0  0  0  0  0  0  0
   -4.0433   -3.7186   -0.4486 H   0  0  0  0  0  0  0  0  0  0  0  0
   -2.7532   -2.5046    0.7444 C   0  0  0  0  0  0  0  0  0  0  0  0
   -1.9803   -2.8096    1.6434 O   0  0  0  0  0  0  0  0  0  0  0  0
   -2.5332   -1.4966   -0.0966 N   0  0  0  0  0  0  0  0  0  0  0  0
   -3.2312   -1.2816   -0.7936 H   0  0  0  0  0  0  0  0  0  0  0  0
   -1.3593   -0.6196   -0.0536 C   0  0  1  0  0  0  0  0  0  0  0  0
   -0.8788   -0.7266    0.9196 H   0  0  0  0  0  0  0  0  0  0  0  0
   -0.3559   -1.0533   -1.1339 C   0  0  0  0  0  0  0  0  0  0  0  0
   -0.9071   -1.4683   -1.9796 H   0  0  0  0  0  0  0  0  0  0  0  0
    0.1764   -0.1690   -1.4885 H   0  0  0  0  0  0  0  0  0  0  0  0
    0.6531   -2.0706   -0.6944 C   0  0  0  0  0  0  0  0  0  0  0  0
    0.7371   -2.6121    0.5415 C   0  0  0  0  0  0  0  0  0  0  0  0
    0.0890   -2.3566    1.3726 H   0  0  0  0  0  0  0  0  0  0  0  0
    1.7542   -3.5460    0.5709 N   0  0  0  0  0  0  0  0  0  0  0  0
    2.0014   -4.0745    1.3947 H   0  0  0  0  0  0  0  0  0  0  0  0
    2.3692   -3.6655   -0.6572 C   0  0  0  0  0  0  0  0  0  0  0  0
    3.4087   -4.4775   -1.1332 C   0  0  0  0  0  0  0  0  0  0  0  0
    3.8956   -5.1841   -0.4773 H   0  0  0  0  0  0  0  0  0  0  0  0
    3.8091   -4.3575   -2.4750 C   0  0  0  0  0  0  0  0  0  0  0  0
    4.6098   -4.9747   -2.8595 H   0  0  0  0  0  0  0  0  0  0  0  0
    3.1710   -3.4279   -3.3164 C   0  0  0  0  0  0  0  0  0  0  0  0
    3.4879   -3.3330   -4.3458 H   0  0  0  0  0  0  0  0  0  0  0  0
    2.1287   -2.6155   -2.8266 C   0  0  0  0  0  0  0  0  0  0  0  0
    1.6560   -1.8961   -3.4801 H   0  0  0  0  0  0  0  0  0  0  0  0
    1.6991   -2.7163   -1.4856 C   0  0  0  0  0  0  0  0  0  0  0  0
   -1.7617    0.8549   -0.2106 C   0  0  0  0  0  0  0  0  0  0  0  0
   -2.5726    1.1871   -1.0741 O   0  0  0  0  0  0  0  0  0  0  0  0
   -1.1941    1.7377    0.6223 N   0  0  0  0  0  0  0  0  0  0  0  0
   -0.4976    1.3916    1.2669 H   0  0  0  0  0  0  0  0  0  0  0  0
   -1.4666    3.1722    0.6095 C   0  0  0  0  0  0  0  0  0  0  0  0
   -2.5439    3.3427    0.6539 H   0  0  0  0  0  0  0  0  0  0  0  0
   -0.9893    3.6529    1.4644 H   0  0  0  0  0  0  0  0  0  0  0  0
   -1.0808    3.6095   -0.3129 H   0  0  0  0  0  0  0  0  0  0  0  0
  5  6  2  0  0  0  0
  5  7  1  0  0  0  0
  2  3  1  0  0  0  0
  2  4  1  0  0  0  0
  2  5  1  0  0  0  0
  1  2  1  0  0  0  0
 29 30  2  0  0  0  0
 29 31  1  0  0  0  0
 26 27  1  0  0  0  0
 26 28  2  0  0  0  0
 24 25  1  0  0  0  0
 24 26  1  0  0  0  0
 22 23  1  0  0  0  0
 22 24  2  0  0  0  0
 20 21  1  0  0  0  0
 20 22  1  0  0  0  0
 19 20  2  0  0  0  0
 19 28  1  0  0  0  0
 17 18  1  0  0  0  0
 17 19  1  0  0  0  0
 15 16  1  0  0  0  0
 15 17  1  0  0  0  0
 14 15  2  0  0  0  0
 14 28  1  0  0  0  0
 11 12  1  0  0  0  0
 11 13  1  0  0  0  0
 11 14  1  0  0  0  0
  9 10  1  0  0  0  0
  9 11  1  0  0  0  0
  9 29  1  0  0  0  0
  7  8  1  0  0  0  0
  7  9  1  0  0  0  0
 33 34  1  0  0  0  0
 33 35  1  0  0  0  0
 33 36  1  0  0  0  0
 31 32  1  0  0  0  0
 31 33  1  0  0  0  0
M  END
$$$$
default_name
  -OEChem-02102213163D

 36 37  0     1  0  0  0  0  0999 V2000
   -4.0843   -4.0736    1.2944 H   0  0  0  0  0  0  0  0  0  0  0  0
   -4.0342   -3.2816    0.5484 C   0  0  0  0  0  0  0  0  0  0  0  0
   -4.8842   -2.6126    0.6694 H   0  0  0  0  0  0  0  0  0  0  0  0
   -4.0433   -3.7186   -0.4486 H   0  0  0  0  0  0  0  0  0  0  0  0
   -2.7532   -2.5046    0.7444 C   0  0  0  0  0  0  0  0  0  0  0  0
   -1.9803   -2.8096    1.6434 O   0  0  0  0  0  0  0  0  0  0  0  0
   -2.5332   -1.4966   -0.0966 N   0  0  0  0  0  0  0  0  0  0  0  0
   -3.2312   -1.2816   -0.7936 H   0  0  0  0  0  0  0  0  0  0  0  0
   -1.3593   -0.6196   -0.0536 C   0  0  1  0  0  0  0  0  0  0  0  0
   -0.8788   -0.7266    0.9196 H   0  0  0  0  0  0  0  0  0  0  0  0
   -0.3559   -1.0533   -1.1339 C   0  0  0  0  0  0  0  0  0  0  0  0
   -0.9071   -1.4683   -1.9796 H   0  0  0  0  0  0  0  0  0  0  0  0
    0.1764   -0.1690   -1.4885 H   0  0  0  0  0  0  0  0  0  0  0  0
    0.6531   -2.0706   -0.6944 C   0  0  0  0  0  0  0  0  0  0  0  0
    0.5763   -2.8208    0.4276 C   0  0  0  0  0  0  0  0  0  0  0  0
   -0.2236   -2.7596    1.1574 H   0  0  0  0  0  0  0  0  0  0  0  0
    1.6548   -3.6816    0.4852 N   0  0  0  0  0  0  0  0  0  0  0  0
    1.8067   -4.3346    1.2400 H   0  0  0  0  0  0  0  0  0  0  0  0
    2.4769   -3.5394   -0.6124 C   0  0  0  0  0  0  0  0  0  0  0  0
    3.6517   -4.1876   -1.0200 C   0  0  0  0  0  0  0  0  0  0  0  0
    4.0833   -4.9706   -0.4140 H   0  0  0  0  0  0  0  0  0  0  0  0
    4.2603   -3.8027   -2.2268 C   0  0  0  0  0  0  0  0  0  0  0  0
    5.1675   -4.2907   -2.5566 H   0  0  0  0  0  0  0  0  0  0  0  0
    3.6912   -2.7764   -3.0028 C   0  0  0  0  0  0  0  0  0  0  0  0
    4.1674   -2.4777   -3.9264 H   0  0  0  0  0  0  0  0  0  0  0  0
    2.5113   -2.1305   -2.5823 C   0  0  0  0  0  0  0  0  0  0  0  0
    2.0920   -1.3345   -3.1812 H   0  0  0  0  0  0  0  0  0  0  0  0
    1.8723   -2.4981   -1.3783 C   0  0  0  0  0  0  0  0  0  0  0  0
   -1.7617    0.8549   -0.2106 C   0  0  0  0  0  0  0  0  0  0  0  0
   -2.5726    1.1871   -1.0741 O   0  0  0  0  0  0  0  0  0  0  0  0
   -1.1941    1.7377    0.6223 N   0  0  0  0  0  0  0  0  0  0  0  0
   -0.4976    1.3916    1.2669 H   0  0  0  0  0  0  0  0  0  0  0  0
   -1.4666    3.1722    0.6095 C   0  0  0  0  0  0  0  0  0  0  0  0
   -2.5439    3.3427    0.6539 H   0  0  0  0  0  0  0  0  0  0  0  0
   -0.9893    3.6529    1.4644 H   0  0  0  0  0  0  0  0  0  0  0  0
   -1.0808    3.6095   -0.3129 H   0  0  0  0  0  0  0  0  0  0  0  0
  5  6  2  0  0  0  0
  5  7  1  0  0  0  0
  2  3  1  0  0  0  0
  2  4  1  0  0  0  0
  2  5  1  0  0  0  0
  1  2  1  0  0  0  0
 29 30  2  0  0  0  0
 29 31  1  0  0  0  0
 26 27  1  0  0  0  0
 26 28  2  0  0  0  0
 24 25  1  0  0  0  0
 24 26  1  0  0  0  0
 22 23  1  0  0  0  0
 22 24  2  0  0  0  0
 20 21  1  0  0  0  0
 20 22  1  0  0  0  0
 19 20  2  0  0  0  0
 19 28  1  0  0  0  0
 17 18  1  0  0  0  0
 17 19  1  0  0  0  0
 15 16  1  0  0  0  0
 15 17  1  0  0  0  0
 14 15  2  0  0  0  0
 14 28  1  0  0  0  0
 11 12  1  0  0  0  0
 11 13  1  0  0  0  0
 11 14  1  0  0  0  0
  9 10  1  0  0  0  0
  9 11  1  0  0  0  0
  9 29  1  0  0  0  0
  7  8  1  0  0  0  0
  7  9  1  0  0  0  0
 33 34  1  0  0  0  0
 33 35  1  0  0  0  0
 33 36  1  0  0  0  0
 31 32  1  0  0  0  0
 31 33  1  0  0  0  0
M  END
$$$$
default_name
  -OEChem-02102213163D

 36 37  0     1  0  0  0  0  0999 V2000
   -4.0843   -4.0736    1.2944 H   0  0  0  0  0  0  0  0  0  0  0  0
   -4.0342   -3.2816    0.5484 C   0  0  0  0  0  0  0  0  0  0  0  0
   -4.8842   -2.6126    0.6694 H   0  0  0  0  0  0  0  0  0  0  0  0
   -4.0433   -3.7186   -0.4486 H   0  0  0  0  0  0  0  0  0  0  0  0
   -2.7532   -2.5046    0.7444 C   0  0  0  0  0  0  0  0  0  0  0  0
   -1.9803   -2.8096    1.6434 O   0  0  0  0  0  0  0  0  0  0  0  0
   -2.5332   -1.4966   -0.0966 N   0  0  0  0  0  0  0  0  0  0  0  0
   -3.2312   -1.2816   -0.7936 H   0  0  0  0  0  0  0  0  0  0  0  0
   -1.3593   -0.6196   -0.0536 C   0  0  1  0  0  0  0  0  0  0  0  0
   -0.8788   -0.7266    0.9196 H   0  0  0  0  0  0  0  0  0  0  0  0
   -0.3559   -1.0533   -1.1339 C   0  0  0  0  0  0  0  0  0  0  0  0
   -0.9071   -1.4683   -1.9796 H   0  0  0  0  0  0  0  0  0  0  0  0
    0.1764   -0.1690   -1.4885 H   0  0  0  0  0  0  0  0  0  0  0  0
    0.6531   -2.0706   -0.6944 C   0  0  0  0  0  0  0  0  0  0  0  0
    0.4568   -3.0148    0.2530 C   0  0  0  0  0  0  0  0  0  0  0  0
   -0.4571   -3.1351    0.8245 H   0  0  0  0  0  0  0  0  0  0  0  0
    1.5842   -3.8051    0.3614 N   0  0  0  0  0  0  0  0  0  0  0  0
    1.6654   -4.5736    1.0111 H   0  0  0  0  0  0  0  0  0  0  0  0
    2.5634   -3.4173   -0.5283 C   0  0  0  0  0  0  0  0  0  0  0  0
    3.8445   -3.9088   -0.8174 C   0  0  0  0  0  0  0  0  0  0  0  0
    4.2373   -4.7611   -0.2827 H   0  0  0  0  0  0  0  0  0  0  0  0
    4.6105   -3.2759   -1.8112 C   0  0  0  0  0  0  0  0  0  0  0  0
    5.6011   -3.6404   -2.0470 H   0  0  0  0  0  0  0  0  0  0  0  0
    4.0892   -2.1622   -2.4949 C   0  0  0  0  0  0  0  0  0  0  0  0
    4.6853   -1.6731   -3.2529 H   0  0  0  0  0  0  0  0  0  0  0  0
    2.8011   -1.6755   -2.1946 C   0  0  0  0  0  0  0  0  0  0  0  0
    2.4180   -0.8110   -2.7181 H   0  0  0  0  0  0  0  0  0  0  0  0
    2.0043   -2.2929   -1.2062 C   0  0  0  0  0  0  0  0  0  0  0  0
   -1.7617    0.8549   -0.2106 C   0  0  0  0  0  0  0  0  0  0  0  0
   -2.5726    1.1871   -1.0741 O   0  0  0  0  0  0  0  0  0  0  0  0
   -1.1941    1.7377    0.6223 N   0  0  0  0  0  0  0  0  0  0  0  0
   -0.4976    1.3916    1.2669 H   0  0  0  0  0  0  0  0  0  0  0  0
   -1.4666    3.1722    0.6095 C   0  0  0  0  0  0  0  0  0  0  0  0
   -2.5439    3.3427    0.6539 H   0  0  0  0  0  0  0  0  0  0  0  0
   -0.9893    3.6529    1.4644 H   0  0  0  0  0  0  0  0  0  0  0  0
   -1.0808    3.6095   -0.3129 H   0  0  0  0  0  0  0  0  0  0  0  0
  5  6  2  0  0  0  0
  5  7  1  0  0  0  0
  2  3  1  0  0  0  0
  2  4  1  0  0  0  0
  2  5  1  0  0  0  0
  1  2  1  0  0  0  0
 29 30  2  0  0  0  0
 29 31  1  0  0  0  0
 26 27  1  0  0  0  0
 26 28  2  0  0  0  0
 24 25  1  0  0  0  0
 24 26  1  0  0  0  0
 22 23  1  0  0  0  0
 22 24  2  0  0  0  0
 20 21  1  0  0  0  0
 20 22  1  0  0  0  0
 19 20  2  0  0  0  0
 19 28  1  0  0  0  0
 17 18  1  0  0  0  0
 17 19  1  0  0  0  0
 15 16  1  0  0  0  0
 15 17  1  0  0  0  0
 14 15  2  0  0  0  0
 14 28  1  0  0  0  0
 11 12  1  0  0  0  0
 11 13  1  0  0  0  0
 11 14  1  0  0  0  0
  9 10  1  0  0  0  0
  9 11  1  0  0  0  0
  9 29  1  0  0  0  0
  7  8  1  0  0  0  0
  7  9  1  0  0  0  0
 33 34  1  0  0  0  0
 33 35  1  0  0  0  0
 33 36  1  0  0  0  0
 31 32  1  0  0  0  0
 31 33  1  0  0  0  0
M  END
$$$$
default_name
  -OEChem-02102213163D

 36 37  0     1  0  0  0  0  0999 V2000
   -4.0843   -4.0736    1.2944 H   0  0  0  0  0  0  0  0  0  0  0  0
   -4.0342   -3.2816    0.5484 C   0  0  0  0  0  0  0  0  0  0  0  0
   -4.8842   -2.6126    0.6694 H   0  0  0  0  0  0  0  0  0  0  0  0
   -4.0433   -3.7186   -0.4486 H   0  0  0  0  0  0  0  0  0  0  0  0
   -2.7532   -2.5046    0.7444 C   0  0  0  0  0  0  0  0  0  0  0  0
   -1.9803   -2.8096    1.6434 O   0  0  0  0  0  0  0  0  0  0  0  0
   -2.5332   -1.4966   -0.0966 N   0  0  0  0  0  0  0  0  0  0  0  0
   -3.2312   -1.2816   -0.7936 H   0  0  0  0  0  0  0  0  0  0  0  0
   -1.3593   -0.6196   -0.0536 C   0  0  1  0  0  0  0  0  0  0  0  0
   -0.8788   -0.7266    0.9196 H   0  0  0  0  0  0  0  0  0  0  0  0
   -0.3559   -1.0533   -1.1339 C   0  0  0  0  0  0  0  0  0  0  0  0
   -0.9071   -1.4683   -1.9796 H   0  0  0  0  0  0  0  0  0  0  0  0
    0.1764   -0.1690   -1.4885 H   0  0  0  0  0  0  0  0  0  0  0  0
    0.6531   -2.0706   -0.6944 C   0  0  0  0  0  0  0  0  0  0  0  0
    0.3867   -3.1808    0.0296 C   0  0  0  0  0  0  0  0  0  0  0  0
   -0.5956   -3.4574    0.3964 H   0  0  0  0  0  0  0  0  0  0  0  0
    1.5472   -3.9082    0.2079 N   0  0  0  0  0  0  0  0  0  0  0  0
    1.5874   -4.7752    0.7234 H   0  0  0  0  0  0  0  0  0  0  0  0
    2.6229   -3.3073   -0.4105 C   0  0  0  0  0  0  0  0  0  0  0  0
    3.9739   -3.6603   -0.5393 C   0  0  0  0  0  0  0  0  0  0  0  0
    4.3471   -4.5700   -0.0923 H   0  0  0  0  0  0  0  0  0  0  0  0
    4.8357   -2.8128   -1.2564 C   0  0  0  0  0  0  0  0  0  0  0  0
    5.8811   -3.0682   -1.3652 H   0  0  0  0  0  0  0  0  0  0  0  0
    4.3378   -1.6273   -1.8274 C   0  0  0  0  0  0  0  0  0  0  0  0
    5.0061   -0.9740   -2.3712 H   0  0  0  0  0  0  0  0  0  0  0  0
    2.9784   -1.2816   -1.6899 C   0  0  0  0  0  0  0  0  0  0  0  0
    2.6118   -0.3614   -2.1222 H   0  0  0  0  0  0  0  0  0  0  0  0
    2.0859   -2.1146   -0.9811 C   0  0  0  0  0  0  0  0  0  0  0  0
   -1.7617    0.8549   -0.2106 C   0  0  0  0  0  0  0  0  0  0  0  0
   -2.5726    1.1871   -1.0741 O   0  0  0  0  0  0  0  0  0  0  0  0
   -1.1941    1.7377    0.6223 N   0  0  0  0  0  0  0  0  0  0  0  0
   -0.4976    1.3916    1.2669 H   0  0  0  0  0  0  0  0  0  0  0  0
   -1.4666    3.1722    0.6095 C   0  0  0  0  0  0  0  0  0  0  0  0
   -2.5439    3.3427    0.6539 H   0  0  0  0  0  0  0  0  0  0  0  0
   -0.9893    3.6529    1.4644 H   0  0  0  0  0  0  0  0  0  0  0  0
   -1.0808    3.6095   -0.3129 H   0  0  0  0  0  0  0  0  0  0  0  0
  5  6  2  0  0  0  0
  5  7  1  0  0  0  0
  2  3  1  0  0  0  0
  2  4  1  0  0  0  0
  2  5  1  0  0  0  0
  1  2  1  0  0  0  0
 29 30  2  0  0  0  0
 29 31  1  0  0  0  0
 26 27  1  0  0  0  0
 26 28  2  0  0  0  0
 24 25  1  0  0  0  0
 24 26  1  0  0  0  0
 22 23  1  0  0  0  0
 22 24  2  0  0  0  0
 20 21  1  0  0  0  0
 20 22  1  0  0  0  0
 19 20  2  0  0  0  0
 19 28  1  0  0  0  0
 17 18  1  0  0  0  0
 17 19  1  0  0  0  0
 15 16  1  0  0  0  0
 15 17  1  0  0  0  0
 14 15  2  0  0  0  0
 14 28  1  0  0  0  0
 11 12  1  0  0  0  0
 11 13  1  0  0  0  0
 11 14  1  0  0  0  0
  9 10  1  0  0  0  0
  9 11  1  0  0  0  0
  9 29  1  0  0  0  0
  7  8  1  0  0  0  0
  7  9  1  0  0  0  0
 33 34  1  0  0  0  0
 33 35  1  0  0  0  0
 33 36  1  0  0  0  0
 31 32  1  0  0  0  0
 31 33  1  0  0  0  0
M  END
$$$$
default_name
  -OEChem-02102213163D

 36 37  0     1  0  0  0  0  0999 V2000
   -4.0843   -4.0736    1.2944 H   0  0  0  0  0  0  0  0  0  0  0  0
   -4.0342   -3.2816    0.5484 C   0  0  0  0  0  0  0  0  0  0  0  0
   -4.8842   -2.6126    0.6694 H   0  0  0  0  0  0  0  0  0  0  0  0
   -4.0433   -3.7186   -0.4486 H   0  0  0  0  0  0  0  0  0  0  0  0
   -2.7532   -2.5046    0.7444 C   0  0  0  0  0  0  0  0  0  0  0  0
   -1.9803   -2.8096    1.6434 O   0  0  0  0  0  0  0  0  0  0  0  0
   -2.5332   -1.4966   -0.0966 N   0  0  0  0  0  0  0  0  0  0  0  0
   -3.2312   -1.2816   -0.7936 H   0  0  0  0  0  0  0  0  0  0  0  0
   -1.3593   -0.6196   -0.0536 C   0  0  1  0  0  0  0  0  0  0  0  0
   -0.8788   -0.7266    0.9196 H   0  0  0  0  0  0  0  0  0  0  0  0
   -0.3559   -1.0533   -1.1339 C   0  0  0  0  0  0  0  0  0  0  0  0
   -0.9071   -1.4683   -1.9796 H   0  0  0  0  0  0  0  0  0  0  0  0
    0.1764   -0.1690   -1.4885 H   0  0  0  0  0  0  0  0  0  0  0  0
    0.6531   -2.0706   -0.6944 C   0  0  0  0  0  0  0  0  0  0  0  0
    0.3709   -3.3075   -0.2275 C   0  0  0  0  0  0  0  0  0  0  0  0
   -0.6298   -3.7048   -0.0976 H   0  0  0  0  0  0  0  0  0  0  0  0
    1.5461   -3.9838    0.0352 N   0  0  0  0  0  0  0  0  0  0  0  0
    1.5778   -4.9259    0.3968 H   0  0  0  0  0  0  0  0  0  0  0  0
    2.6514   -3.2172   -0.2672 C   0  0  0  0  0  0  0  0  0  0  0  0
    4.0313   -3.4588   -0.2046 C   0  0  0  0  0  0  0  0  0  0  0  0
    4.4052   -4.4102    0.1442 H   0  0  0  0  0  0  0  0  0  0  0  0
    4.9206   -2.4451   -0.6002 C   0  0  0  0  0  0  0  0  0  0  0  0
    5.9883   -2.6130   -0.5578 H   0  0  0  0  0  0  0  0  0  0  0  0
    4.4200   -1.2081   -1.0458 C   0  0  0  0  0  0  0  0  0  0  0  0
    5.1080   -0.4280   -1.3413 H   0  0  0  0  0  0  0  0  0  0  0  0
    3.0311   -0.9756   -1.1027 C   0  0  0  0  0  0  0  0  0  0  0  0
    2.6602   -0.0161   -1.4342 H   0  0  0  0  0  0  0  0  0  0  0  0
    2.1117   -1.9755   -0.7182 C   0  0  0  0  0  0  0  0  0  0  0  0
   -1.7617    0.8549   -0.2106 C   0  0  0  0  0  0  0  0  0  0  0  0
   -2.5726    1.1871   -1.0741 O   0  0  0  0  0  0  0  0  0  0  0  0
   -1.1941    1.7377    0.6223 N   0  0  0  0  0  0  0  0  0  0  0  0
   -0.4976    1.3916    1.2669 H   0  0  0  0  0  0  0  0  0  0  0  0
   -1.4666    3.1722    0.6095 C   0  0  0  0  0  0  0  0  0  0  0  0
   -2.5439    3.3427    0.6539 H   0  0  0  0  0  0  0  0  0  0  0  0
   -0.9893    3.6529    1.4644 H   0  0  0  0  0  0  0  0  0  0  0  0
   -1.0808    3.6095   -0.3129 H   0  0  0  0  0  0  0  0  0  0  0  0
  5  6  2  0  0  0  0
  5  7  1  0  0  0  0
  2  3  1  0  0  0  0
  2  4  1  0  0  0  0
  2  5  1  0  0  0  0
  1  2  1  0  0  0  0
 29 30  2  0  0  0  0
 29 31  1  0  0  0  0
 26 27  1  0  0  0  0
 26 28  2  0  0  0  0
 24 25  1  0  0  0  0
 24 26  1  0  0  0  0
 22 23  1  0  0  0  0
 22 24  2  0  0  0  0
 20 21  1  0  0  0  0
 20 22  1  0  0  0  0
 19 20  2  0  0  0  0
 19 28  1  0  0  0  0
 17 18  1  0  0  0  0
 17 19  1  0  0  0  0
 15 16  1  0  0  0  0
 15 17  1  0  0  0  0
 14 15  2  0  0  0  0
 14 28  1  0  0  0  0
 11 12  1  0  0  0  0
 11 13  1  0  0  0  0
 11 14  1  0  0  0  0
  9 10  1  0  0  0  0
  9 11  1  0  0  0  0
  9 29  1  0  0  0  0
  7  8  1  0  0  0  0
  7  9  1  0  0  0  0
 33 34  1  0  0  0  0
 33 35  1  0  0  0  0
 33 36  1  0  0  0  0
 31 32  1  0  0  0  0
 31 33  1  0  0  0  0
M  END
$$$$
default_name
  -OEChem-02102213163D

 36 37  0     1  0  0  0  0  0999 V2000
   -4.0843   -4.0736    1.2944 H   0  0  0  0  0  0  0  0  0  0  0  0
   -4.0342   -3.2816    0.5484 C   0  0  0  0  0  0  0  0  0  0  0  0
   -4.8842   -2.6126    0.6694 H   0  0  0  0  0  0  0  0  0  0  0  0
   -4.0433   -3.7186   -0.4486 H   0  0  0  0  0  0  0  0  0  0  0  0
   -2.7532   -2.5046    0.7444 C   0  0  0  0  0  0  0  0  0  0  0  0
   -1.9803   -2.8096    1.6434 O   0  0  0  0  0  0  0  0  0  0  0  0
   -2.5332   -1.4966   -0.0966 N   0  0  0  0  0  0  0  0  0  0  0  0
   -3.2312   -1.2816   -0.7936 H   0  0  0  0  0  0  0  0  0  0  0  0
   -1.3593   -0.6196   -0.0536 C   0  0  1  0  0  0  0  0  0  0  0  0
   -0.8788   -0.7266    0.9196 H   0  0  0  0  0  0  0  0  0  0  0  0
   -0.3559   -1.0533   -1.1339 C   0  0  0  0  0  0  0  0  0  0  0  0
   -0.9071   -1.4683   -1.9796 H   0  0  0  0  0  0  0  0  0  0  0  0
    0.1764   -0.1690   -1.4885 H   0  0  0  0  0  0  0  0  0  0  0  0
    0.6531   -2.0706   -0.6944 C   0  0  0  0  0  0  0  0  0  0  0  0
    0.4104   -3.3863   -0.5006 C   0  0  0  0  0  0  0  0  0  0  0  0
   -0.5573   -3.8602   -0.6239 H   0  0  0  0  0  0  0  0  0  0  0  0
    1.5813   -4.0269   -0.1450 N   0  0  0  0  0  0  0  0  0  0  0  0
    1.6374   -5.0151    0.0533 H   0  0  0  0  0  0  0  0  0  0  0  0
    2.6469   -3.1529   -0.1080 C   0  0  0  0  0  0  0  0  0  0  0  0
    4.0126   -3.3181    0.1639 C   0  0  0  0  0  0  0  0  0  0  0  0
    4.4076   -4.2927    0.4106 H   0  0  0  0  0  0  0  0  0  0  0  0
    4.8595   -2.1978    0.1125 C   0  0  0  0  0  0  0  0  0  0  0  0
    5.9154   -2.3060    0.3203 H   0  0  0  0  0  0  0  0  0  0  0  0
    4.3303   -0.9330   -0.2033 C   0  0  0  0  0  0  0  0  0  0  0  0
    4.9840   -0.0723   -0.2335 H   0  0  0  0  0  0  0  0  0  0  0  0
    2.9556   -0.7783   -0.4728 C   0  0  0  0  0  0  0  0  0  0  0  0
    2.5599    0.2011   -0.7010 H   0  0  0  0  0  0  0  0  0  0  0  0
    2.0798   -1.8849   -0.4354 C   0  0  0  0  0  0  0  0  0  0  0  0
   -1.7617    0.8549   -0.2106 C   0  0  0  0  0  0  0  0  0  0  0  0
   -2.5726    1.1871   -1.0741 O   0  0  0  0  0  0  0  0  0  0  0  0
   -1.1941    1.7377    0.6223 N   0  0  0  0  0  0  0  0  0  0  0  0
   -0.4976    1.3916    1.2669 H   0  0  0  0  0  0  0  0  0  0  0  0
   -1.4666    3.1722    0.6095 C   0  0  0  0  0  0  0  0  0  0  0  0
   -2.5439    3.3427    0.6539 H   0  0  0  0  0  0  0  0  0  0  0  0
   -0.9893    3.6529    1.4644 H   0  0  0  0  0  0  0  0  0  0  0  0
   -1.0808    3.6095   -0.3129 H   0  0  0  0  0  0  0  0  0  0  0  0
  5  6  2  0  0  0  0
  5  7  1  0  0  0  0
  2  3  1  0  0  0  0
  2  4  1  0  0  0  0
  2  5  1  0  0  0  0
  1  2  1  0  0  0  0
 29 30  2  0  0  0  0
 29 31  1  0  0  0  0
 26 27  1  0  0  0  0
 26 28  2  0  0  0  0
 24 25  1  0  0  0  0
 24 26  1  0  0  0  0
 22 23  1  0  0  0  0
 22 24  2  0  0  0  0
 20 21  1  0  0  0  0
 20 22  1  0  0  0  0
 19 20  2  0  0  0  0
 19 28  1  0  0  0  0
 17 18  1  0  0  0  0
 17 19  1  0  0  0  0
 15 16  1  0  0  0  0
 15 17  1  0  0  0  0
 14 15  2  0  0  0  0
 14 28  1  0  0  0  0
 11 12  1  0  0  0  0
 11 13  1  0  0  0  0
 11 14  1  0  0  0  0
  9 10  1  0  0  0  0
  9 11  1  0  0  0  0
  9 29  1  0  0  0  0
  7  8  1  0  0  0  0
  7  9  1  0  0  0  0
 33 34  1  0  0  0  0
 33 35  1  0  0  0  0
 33 36  1  0  0  0  0
 31 32  1  0  0  0  0
 31 33  1  0  0  0  0
M  END
$$$$
default_name
  -OEChem-02102213163D

 36 37  0     1  0  0  0  0  0999 V2000
   -4.0843   -4.0736    1.2944 H   0  0  0  0  0  0  0  0  0  0  0  0
   -4.0342   -3.2816    0.5484 C   0  0  0  0  0  0  0  0  0  0  0  0
   -4.8842   -2.6126    0.6694 H   0  0  0  0  0  0  0  0  0  0  0  0
   -4.0433   -3.7186   -0.4486 H   0  0  0  0  0  0  0  0  0  0  0  0
   -2.7532   -2.5046    0.7444 C   0  0  0  0  0  0  0  0  0  0  0  0
   -1.9803   -2.8096    1.6434 O   0  0  0  0  0  0  0  0  0  0  0  0
   -2.5332   -1.4966   -0.0966 N   0  0  0  0  0  0  0  0  0  0  0  0
   -3.2312   -1.2816   -0.7936 H   0  0  0  0  0  0  0  0  0  0  0  0
   -1.3593   -0.6196   -0.0536 C   0  0  1  0  0  0  0  0  0  0  0  0
   -0.8788   -0.7266    0.9196 H   0  0  0  0  0  0  0  0  0  0  0  0
   -0.3559   -1.0533   -1.1339 C   0  0  0  0  0  0  0  0  0  0  0  0
   -0.9071   -1.4683   -1.9796 H   0  0  0  0  0  0  0  0  0  0  0  0
    0.1764   -0.1690   -1.4885 H   0  0  0  0  0  0  0  0  0  0  0  0
    0.6531   -2.0706   -0.6944 C   0  0  0  0  0  0  0  0  0  0  0  0
    0.5026   -3.4119   -0.7713 C   0  0  0  0  0  0  0  0  0  0  0  0
   -0.3829   -3.9131   -1.1465 H   0  0  0  0  0  0  0  0  0  0  0  0
    1.6501   -4.0344   -0.3205 N   0  0  0  0  0  0  0  0  0  0  0  0
    1.7621   -5.0370   -0.2836 H   0  0  0  0  0  0  0  0  0  0  0  0
    2.6097   -3.1189    0.0562 C   0  0  0  0  0  0  0  0  0  0  0  0
    3.9191   -3.2479    0.5410 C   0  0  0  0  0  0  0  0  0  0  0  0
    4.3542   -4.2254    0.6889 H   0  0  0  0  0  0  0  0  0  0  0  0
    4.6564   -2.0878    0.8334 C   0  0  0  0  0  0  0  0  0  0  0  0
    5.6675   -2.1679    1.2092 H   0  0  0  0  0  0  0  0  0  0  0  0
    4.0748   -0.8210    0.6427 C   0  0  0  0  0  0  0  0  0  0  0  0
    4.6427    0.0688    0.8768 H   0  0  0  0  0  0  0  0  0  0  0  0
    2.7571   -0.7033    0.1567 C   0  0  0  0  0  0  0  0  0  0  0  0
    2.3177    0.2756    0.0275 H   0  0  0  0  0  0  0  0  0  0  0  0
    1.9925   -1.8491   -0.1521 C   0  0  0  0  0  0  0  0  0  0  0  0
   -1.7617    0.8549   -0.2106 C   0  0  0  0  0  0  0  0  0  0  0  0
   -2.5726    1.1871   -1.0741 O   0  0  0  0  0  0  0  0  0  0  0  0
   -1.1941    1.7377    0.6223 N   0  0  0  0  0  0  0  0  0  0  0  0
   -0.4976    1.3916    1.2669 H   0  0  0  0  0  0  0  0  0  0  0  0
   -1.4666    3.1722    0.6095 C   0  0  0  0  0  0  0  0  0  0  0  0
   -2.5439    3.3427    0.6539 H   0  0  0  0  0  0  0  0  0  0  0  0
   -0.9893    3.6529    1.4644 H   0  0  0  0  0  0  0  0  0  0  0  0
   -1.0808    3.6095   -0.3129 H   0  0  0  0  0  0  0  0  0  0  0  0
  5  6  2  0  0  0  0
  5  7  1  0  0  0  0
  2  3  1  0  0  0  0
  2  4  1  0  0  0  0
  2  5  1  0  0  0  0
  1  2  1  0  0  0  0
 29 30  2  0  0  0  0
 29 31  1  0  0  0  0
 26 27  1  0  0  0  0
 26 28  2  0  0  0  0
 24 25  1  0  0  0  0
 24 26  1  0  0  0  0
 22 23  1  0  0  0  0
 22 24  2  0  0  0  0
 20 21  1  0  0  0  0
 20 22  1  0  0  0  0
 19 20  2  0  0  0  0
 19 28  1  0  0  0  0
 17 18  1  0  0  0  0
 17 19  1  0  0  0  0
 15 16  1  0  0  0  0
 15 17  1  0  0  0  0
 14 15  2  0  0  0  0
 14 28  1  0  0  0  0
 11 12  1  0  0  0  0
 11 13  1  0  0  0  0
 11 14  1  0  0  0  0
  9 10  1  0  0  0  0
  9 11  1  0  0  0  0
  9 29  1  0  0  0  0
  7  8  1  0  0  0  0
  7  9  1  0  0  0  0
 33 34  1  0  0  0  0
 33 35  1  0  0  0  0
 33 36  1  0  0  0  0
 31 32  1  0  0  0  0
 31 33  1  0  0  0  0
M  END
$$$$
default_name
  -OEChem-02102213163D

 36 37  0     1  0  0  0  0  0999 V2000
   -4.0843   -4.0736    1.2944 H   0  0  0  0  0  0  0  0  0  0  0  0
   -4.0342   -3.2816    0.5484 C   0  0  0  0  0  0  0  0  0  0  0  0
   -4.8842   -2.6126    0.6694 H   0  0  0  0  0  0  0  0  0  0  0  0
   -4.0433   -3.7186   -0.4486 H   0  0  0  0  0  0  0  0  0  0  0  0
   -2.7532   -2.5046    0.7444 C   0  0  0  0  0  0  0  0  0  0  0  0
   -1.9803   -2.8096    1.6434 O   0  0  0  0  0  0  0  0  0  0  0  0
   -2.5332   -1.4966   -0.0966 N   0  0  0  0  0  0  0  0  0  0  0  0
   -3.2312   -1.2816   -0.7936 H   0  0  0  0  0  0  0  0  0  0  0  0
   -1.3593   -0.6196   -0.0536 C   0  0  1  0  0  0  0  0  0  0  0  0
   -0.8788   -0.7266    0.9196 H   0  0  0  0  0  0  0  0  0  0  0  0
   -0.3559   -1.0533   -1.1339 C   0  0  0  0  0  0  0  0  0  0  0  0
   -0.9071   -1.4683   -1.9796 H   0  0  0  0  0  0  0  0  0  0  0  0
    0.1764   -0.1690   -1.4885 H   0  0  0  0  0  0  0  0  0  0  0  0
    0.6531   -2.0706   -0.6944 C   0  0  0  0  0  0  0  0  0  0  0  0
    0.6411   -3.3824   -1.0210 C   0  0  0  0  0  0  0  0  0  0  0  0
   -0.1187   -3.8599   -1.6300 H   0  0  0  0  0  0  0  0  0  0  0  0
    1.7480   -4.0058   -0.4791 N   0  0  0  0  0  0  0  0  0  0  0  0
    1.9434   -4.9900   -0.5909 H   0  0  0  0  0  0  0  0  0  0  0  0
    2.5423   -3.1174    0.2141 C   0  0  0  0  0  0  0  0  0  0  0  0
    3.7572   -3.2529    0.9011 C   0  0  0  0  0  0  0  0  0  0  0  0
    4.2486   -4.2129    0.9601 H   0  0  0  0  0  0  0  0  0  0  0  0
    4.3253   -2.1225    1.5131 C   0  0  0  0  0  0  0  0  0  0  0  0
    5.2613   -2.2082    2.0483 H   0  0  0  0  0  0  0  0  0  0  0  0
    3.6708   -0.8796    1.4345 C   0  0  0  0  0  0  0  0  0  0  0  0
    4.1072   -0.0143    1.9139 H   0  0  0  0  0  0  0  0  0  0  0  0
    2.4490   -0.7556    0.7430 C   0  0  0  0  0  0  0  0  0  0  0  0
    1.9501    0.2022    0.7015 H   0  0  0  0  0  0  0  0  0  0  0  0
    1.8557   -1.8706    0.1124 C   0  0  0  0  0  0  0  0  0  0  0  0
   -1.7617    0.8549   -0.2106 C   0  0  0  0  0  0  0  0  0  0  0  0
   -2.5726    1.1871   -1.0741 O   0  0  0  0  0  0  0  0  0  0  0  0
   -1.1941    1.7377    0.6223 N   0  0  0  0  0  0  0  0  0  0  0  0
   -0.4976    1.3916    1.2669 H   0  0  0  0  0  0  0  0  0  0  0  0
   -1.4666    3.1722    0.6095 C   0  0  0  0  0  0  0  0  0  0  0  0
   -2.5439    3.3427    0.6539 H   0  0  0  0  0  0  0  0  0  0  0  0
   -0.9893    3.6529    1.4644 H   0  0  0  0  0  0  0  0  0  0  0  0
   -1.0808    3.6095   -0.3129 H   0  0  0  0  0  0  0  0  0  0  0  0
  5  6  2  0  0  0  0
  5  7  1  0  0  0  0
  2  3  1  0  0  0  0
  2  4  1  0  0  0  0
  2  5  1  0  0  0  0
  1  2  1  0  0  0  0
 29 30  2  0  0  0  0
 29 31  1  0  0  0  0
 26 27  1  0  0  0  0
 26 28  2  0  0  0  0
 24 25  1  0  0  0  0
 24 26  1  0  0  0  0
 22 23  1  0  0  0  0
 22 24  2  0  0  0  0
 20 21  1  0  0  0  0
 20 22  1  0  0  0  0
 19 20  2  0  0  0  0
 19 28  1  0  0  0  0
 17 18  1  0  0  0  0
 17 19  1  0  0  0  0
 15 16  1  0  0  0  0
 15 17  1  0  0  0  0
 14 15  2  0  0  0  0
 14 28  1  0  0  0  0
 11 12  1  0  0  0  0
 11 13  1  0  0  0  0
 11 14  1  0  0  0  0
  9 10  1  0  0  0  0
  9 11  1  0  0  0  0
  9 29  1  0  0  0  0
  7  8  1  0  0  0  0
  7  9  1  0  0  0  0
 33 34  1  0  0  0  0
 33 35  1  0  0  0  0
 33 36  1  0  0  0  0
 31 32  1  0  0  0  0
 31 33  1  0  0  0  0
M  END
$$$$
default_name
  -OEChem-02102213163D

 36 37  0     1  0  0  0  0  0999 V2000
   -4.0843   -4.0736    1.2944 H   0  0  0  0  0  0  0  0  0  0  0  0
   -4.0342   -3.2816    0.5484 C   0  0  0  0  0  0  0  0  0  0  0  0
   -4.8842   -2.6126    0.6694 H   0  0  0  0  0  0  0  0  0  0  0  0
   -4.0433   -3.7186   -0.4486 H   0  0  0  0  0  0  0  0  0  0  0  0
   -2.7532   -2.5046    0.7444 C   0  0  0  0  0  0  0  0  0  0  0  0
   -1.9803   -2.8096    1.6434 O   0  0  0  0  0  0  0  0  0  0  0  0
   -2.5332   -1.4966   -0.0966 N   0  0  0  0  0  0  0  0  0  0  0  0
   -3.2312   -1.2816   -0.7936 H   0  0  0  0  0  0  0  0  0  0  0  0
   -1.3593   -0.6196   -0.0536 C   0  0  1  0  0  0  0  0  0  0  0  0
   -0.8788   -0.7266    0.9196 H   0  0  0  0  0  0  0  0  0  0  0  0
   -0.3559   -1.0533   -1.1339 C   0  0  0  0  0  0  0  0  0  0  0  0
   -0.9071   -1.4683   -1.9796 H   0  0  0  0  0  0  0  0  0  0  0  0
    0.1764   -0.1690   -1.4885 H   0  0  0  0  0  0  0  0  0  0  0  0
    0.6531   -2.0706   -0.6944 C   0  0  0  0  0  0  0  0  0  0  0  0
    0.8165   -3.2999   -1.2327 C   0  0  0  0  0  0  0  0  0  0  0  0
    0.2174   -3.7042   -2.0413 H   0  0  0  0  0  0  0  0  0  0  0  0
    1.8682   -3.9432   -0.6102 N   0  0  0  0  0  0  0  0  0  0  0  0
    2.1689   -4.8772   -0.8476 H   0  0  0  0  0  0  0  0  0  0  0  0
    2.4494   -3.1487    0.3551 C   0  0  0  0  0  0  0  0  0  0  0  0
    3.5380   -3.3328    1.2196 C   0  0  0  0  0  0  0  0  0  0  0  0
    4.0981   -4.2562    1.2057 H   0  0  0  0  0  0  0  0  0  0  0  0
    3.8886   -2.2997    2.1055 C   0  0  0  0  0  0  0  0  0  0  0  0
    4.7247   -2.4241    2.7804 H   0  0  0  0  0  0  0  0  0  0  0  0
    3.1460   -1.1048    2.1181 C   0  0  0  0  0  0  0  0  0  0  0  0
    3.4141   -0.3159    2.8071 H   0  0  0  0  0  0  0  0  0  0  0  0
    2.0525   -0.9316    1.2460 C   0  0  0  0  0  0  0  0  0  0  0  0
    1.4822   -0.0140    1.2753 H   0  0  0  0  0  0  0  0  0  0  0  0
    1.6787   -1.9477    0.3401 C   0  0  0  0  0  0  0  0  0  0  0  0
   -1.7617    0.8549   -0.2106 C   0  0  0  0  0  0  0  0  0  0  0  0
   -2.5726    1.1871   -1.0741 O   0  0  0  0  0  0  0  0  0  0  0  0
   -1.1941    1.7377    0.6223 N   0  0  0  0  0  0  0  0  0  0  0  0
   -0.4976    1.3916    1.2669 H   0  0  0  0  0  0  0  0  0  0  0  0
   -1.4666    3.1722    0.6095 C   0  0  0  0  0  0  0  0  0  0  0  0
   -2.5439    3.3427    0.6539 H   0  0  0  0  0  0  0  0  0  0  0  0
   -0.9893    3.6529    1.4644 H   0  0  0  0  0  0  0  0  0  0  0  0
   -1.0808    3.6095   -0.3129 H   0  0  0  0  0  0  0  0  0  0  0  0
  5  6  2  0  0  0  0
  5  7  1  0  0  0  0
  2  3  1  0  0  0  0
  2  4  1  0  0  0  0
  2  5  1  0  0  0  0
  1  2  1  0  0  0  0
 29 30  2  0  0  0  0
 29 31  1  0  0  0  0
 26 27  1  0  0  0  0
 26 28  2  0  0  0  0
 24 25  1  0  0  0  0
 24 26  1  0  0  0  0
 22 23  1  0  0  0  0
 22 24  2  0  0  0  0
 20 21  1  0  0  0  0
 20 22  1  0  0  0  0
 19 20  2  0  0  0  0
 19 28  1  0  0  0  0
 17 18  1  0  0  0  0
 17 19  1  0  0  0  0
 15 16  1  0  0  0  0
 15 17  1  0  0  0  0
 14 15  2  0  0  0  0
 14 28  1  0  0  0  0
 11 12  1  0  0  0  0
 11 13  1  0  0  0  0
 11 14  1  0  0  0  0
  9 10  1  0  0  0  0
  9 11  1  0  0  0  0
  9 29  1  0  0  0  0
  7  8  1  0  0  0  0
  7  9  1  0  0  0  0
 33 34  1  0  0  0  0
 33 35  1  0  0  0  0
 33 36  1  0  0  0  0
 31 32  1  0  0  0  0
 31 33  1  0  0  0  0
M  END
$$$$
default_name
  -OEChem-02102213163D

 36 37  0     1  0  0  0  0  0999 V2000
   -4.0843   -4.0736    1.2944 H   0  0  0  0  0  0  0  0  0  0  0  0
   -4.0342   -3.2816    0.5484 C   0  0  0  0  0  0  0  0  0  0  0  0
   -4.8842   -2.6126    0.6694 H   0  0  0  0  0  0  0  0  0  0  0  0
   -4.0433   -3.7186   -0.4486 H   0  0  0  0  0  0  0  0  0  0  0  0
   -2.7532   -2.5046    0.7444 C   0  0  0  0  0  0  0  0  0  0  0  0
   -1.9803   -2.8096    1.6434 O   0  0  0  0  0  0  0  0  0  0  0  0
   -2.5332   -1.4966   -0.0966 N   0  0  0  0  0  0  0  0  0  0  0  0
   -3.2312   -1.2816   -0.7936 H   0  0  0  0  0  0  0  0  0  0  0  0
   -1.3593   -0.6196   -0.0536 C   0  0  1  0  0  0  0  0  0  0  0  0
   -0.8788   -0.7266    0.9196 H   0  0  0  0  0  0  0  0  0  0  0  0
   -0.3559   -1.0533   -1.1339 C   0  0  0  0  0  0  0  0  0  0  0  0
   -0.9071   -1.4683   -1.9796 H   0  0  0  0  0  0  0  0  0  0  0  0
    0.1764   -0.1690   -1.4885 H   0  0  0  0  0  0  0  0  0  0  0  0
    0.6531   -2.0706   -0.6944 C   0  0  0  0  0  0  0  0  0  0  0  0
    1.0168   -3.1700   -1.3920 C   0  0  0  0  0  0  0  0  0  0  0  0
    0.6025   -3.4566   -2.3524 H   0  0  0  0  0  0  0  0  0  0  0  0
    2.0027   -3.8507   -0.7048 N   0  0  0  0  0  0  0  0  0  0  0  0
    2.4233   -4.7065   -1.0364 H   0  0  0  0  0  0  0  0  0  0  0  0
    2.3372   -3.2105    0.4695 C   0  0  0  0  0  0  0  0  0  0  0  0
    3.2763   -3.4820    1.4749 C   0  0  0  0  0  0  0  0  0  0  0  0
    3.9128   -4.3522    1.4089 H   0  0  0  0  0  0  0  0  0  0  0  0
    3.3763   -2.6071    2.5701 C   0  0  0  0  0  0  0  0  0  0  0  0
    4.0941   -2.8011    3.3557 H   0  0  0  0  0  0  0  0  0  0  0  0
    2.5360   -1.4813    2.6469 C   0  0  0  0  0  0  0  0  0  0  0  0
    2.6106   -0.8154    3.4955 H   0  0  0  0  0  0  0  0  0  0  0  0
    1.5944   -1.2194    1.6316 C   0  0  0  0  0  0  0  0  0  0  0  0
    0.9458   -0.3583    1.7096 H   0  0  0  0  0  0  0  0  0  0  0  0
    1.4736   -2.0754    0.5155 C   0  0  0  0  0  0  0  0  0  0  0  0
   -1.7617    0.8549   -0.2106 C   0  0  0  0  0  0  0  0  0  0  0  0
   -2.5726    1.1871   -1.0741 O   0  0  0  0  0  0  0  0  0  0  0  0
   -1.1941    1.7377    0.6223 N   0  0  0  0  0  0  0  0  0  0  0  0
   -0.4976    1.3916    1.2669 H   0  0  0  0  0  0  0  0  0  0  0  0
   -1.4666    3.1722    0.6095 C   0  0  0  0  0  0  0  0  0  0  0  0
   -2.5439    3.3427    0.6539 H   0  0  0  0  0  0  0  0  0  0  0  0
   -0.9893    3.6529    1.4644 H   0  0  0  0  0  0  0  0  0  0  0  0
   -1.0808    3.6095   -0.3129 H   0  0  0  0  0  0  0  0  0  0  0  0
  5  6  2  0  0  0  0
  5  7  1  0  0  0  0
  2  3  1  0  0  0  0
  2  4  1  0  0  0  0
  2  5  1  0  0  0  0
  1  2  1  0  0  0  0
 29 30  2  0  0  0  0
 29 31  1  0  0  0  0
 26 27  1  0  0  0  0
 26 28  2  0  0  0  0
 24 25  1  0  0  0  0
 24 26  1  0  0  0  0
 22 23  1  0  0  0  0
 22 24  2  0  0  0  0
 20 21  1  0  0  0  0
 20 22  1  0  0  0  0
 19 20  2  0  0  0  0
 19 28  1  0  0  0  0
 17 18  1  0  0  0  0
 17 19  1  0  0  0  0
 15 16  1  0  0  0  0
 15 17  1  0  0  0  0
 14 15  2  0  0  0  0
 14 28  1  0  0  0  0
 11 12  1  0  0  0  0
 11 13  1  0  0  0  0
 11 14  1  0  0  0  0
  9 10  1  0  0  0  0
  9 11  1  0  0  0  0
  9 29  1  0  0  0  0
  7  8  1  0  0  0  0
  7  9  1  0  0  0  0
 33 34  1  0  0  0  0
 33 35  1  0  0  0  0
 33 36  1  0  0  0  0
 31 32  1  0  0  0  0
 31 33  1  0  0  0  0
M  END
$$$$
default_name
  -OEChem-02102213163D

 36 37  0     1  0  0  0  0  0999 V2000
   -4.0843   -4.0736    1.2944 H   0  0  0  0  0  0  0  0  0  0  0  0
   -4.0342   -3.2816    0.5484 C   0  0  0  0  0  0  0  0  0  0  0  0
   -4.8842   -2.6126    0.6694 H   0  0  0  0  0  0  0  0  0  0  0  0
   -4.0433   -3.7186   -0.4486 H   0  0  0  0  0  0  0  0  0  0  0  0
   -2.7532   -2.5046    0.7444 C   0  0  0  0  0  0  0  0  0  0  0  0
   -1.9803   -2.8096    1.6434 O   0  0  0  0  0  0  0  0  0  0  0  0
   -2.5332   -1.4966   -0.0966 N   0  0  0  0  0  0  0  0  0  0  0  0
   -3.2312   -1.2816   -0.7936 H   0  0  0  0  0  0  0  0  0  0  0  0
   -1.3593   -0.6196   -0.0536 C   0  0  1  0  0  0  0  0  0  0  0  0
   -0.8788   -0.7266    0.9196 H   0  0  0  0  0  0  0  0  0  0  0  0
   -0.3559   -1.0533   -1.1339 C   0  0  0  0  0  0  0  0  0  0  0  0
   -0.9071   -1.4683   -1.9796 H   0  0  0  0  0  0  0  0  0  0  0  0
    0.1764   -0.1690   -1.4885 H   0  0  0  0  0  0  0  0  0  0  0  0
    0.6531   -2.0706   -0.6944 C   0  0  0  0  0  0  0  0  0  0  0  0
    1.2285   -3.0016   -1.4880 C   0  0  0  0  0  0  0  0  0  0  0  0
    1.0104   -3.1340   -2.5421 H   0  0  0  0  0  0  0  0  0  0  0  0
    2.1421   -3.7347   -0.7564 N   0  0  0  0  0  0  0  0  0  0  0  0
    2.6892   -4.4893   -1.1443 H   0  0  0  0  0  0  0  0  0  0  0  0
    2.2134   -3.2987    0.5496 C   0  0  0  0  0  0  0  0  0  0  0  0
    2.9900   -3.6905    1.6494 C   0  0  0  0  0  0  0  0  0  0  0  0
    3.7054   -4.4943    1.5559 H   0  0  0  0  0  0  0  0  0  0  0  0
    2.8231   -3.0240    2.8753 C   0  0  0  0  0  0  0  0  0  0  0  0
    3.4126   -3.3132    3.7349 H   0  0  0  0  0  0  0  0  0  0  0  0
    1.8825   -1.9834    2.9850 C   0  0  0  0  0  0  0  0  0  0  0  0
    1.7514   -1.4789    3.9323 H   0  0  0  0  0  0  0  0  0  0  0  0
    1.1060   -1.5993    1.8734 C   0  0  0  0  0  0  0  0  0  0  0  0
    0.3776   -0.8073    1.9748 H   0  0  0  0  0  0  0  0  0  0  0  0
    1.2543   -2.2448    0.6267 C   0  0  0  0  0  0  0  0  0  0  0  0
   -1.7617    0.8549   -0.2106 C   0  0  0  0  0  0  0  0  0  0  0  0
   -2.5726    1.1871   -1.0741 O   0  0  0  0  0  0  0  0  0  0  0  0
   -1.1941    1.7377    0.6223 N   0  0  0  0  0  0  0  0  0  0  0  0
   -0.4976    1.3916    1.2669 H   0  0  0  0  0  0  0  0  0  0  0  0
   -1.4666    3.1722    0.6095 C   0  0  0  0  0  0  0  0  0  0  0  0
   -2.5439    3.3427    0.6539 H   0  0  0  0  0  0  0  0  0  0  0  0
   -0.9893    3.6529    1.4644 H   0  0  0  0  0  0  0  0  0  0  0  0
   -1.0808    3.6095   -0.3129 H   0  0  0  0  0  0  0  0  0  0  0  0
  5  6  2  0  0  0  0
  5  7  1  0  0  0  0
  2  3  1  0  0  0  0
  2  4  1  0  0  0  0
  2  5  1  0  0  0  0
  1  2  1  0  0  0  0
 29 30  2  0  0  0  0
 29 31  1  0  0  0  0
 26 27  1  0  0  0  0
 26 28  2  0  0  0  0
 24 25  1  0  0  0  0
 24 26  1  0  0  0  0
 22 23  1  0  0  0  0
 22 24  2  0  0  0  0
 20 21  1  0  0  0  0
 20 22  1  0  0  0  0
 19 20  2  0  0  0  0
 19 28  1  0  0  0  0
 17 18  1  0  0  0  0
 17 19  1  0  0  0  0
 15 16  1  0  0  0  0
 15 17  1  0  0  0  0
 14 15  2  0  0  0  0
 14 28  1  0  0  0  0
 11 12  1  0  0  0  0
 11 13  1  0  0  0  0
 11 14  1  0  0  0  0
  9 10  1  0  0  0  0
  9 11  1  0  0  0  0
  9 29  1  0  0  0  0
  7  8  1  0  0  0  0
  7  9  1  0  0  0  0
 33 34  1  0  0  0  0
 33 35  1  0  0  0  0
 33 36  1  0  0  0  0
 31 32  1  0  0  0  0
 31 33  1  0  0  0  0
M  END
$$$$
default_name
  -OEChem-02102213163D

 36 37  0     1  0  0  0  0  0999 V2000
   -4.0843   -4.0736    1.2944 H   0  0  0  0  0  0  0  0  0  0  0  0
   -4.0342   -3.2816    0.5484 C   0  0  0  0  0  0  0  0  0  0  0  0
   -4.8842   -2.6126    0.6694 H   0  0  0  0  0  0  0  0  0  0  0  0
   -4.0433   -3.7186   -0.4486 H   0  0  0  0  0  0  0  0  0  0  0  0
   -2.7532   -2.5046    0.7444 C   0  0  0  0  0  0  0  0  0  0  0  0
   -1.9803   -2.8096    1.6434 O   0  0  0  0  0  0  0  0  0  0  0  0
   -2.5332   -1.4966   -0.0966 N   0  0  0  0  0  0  0  0  0  0  0  0
   -3.2312   -1.2816   -0.7936 H   0  0  0  0  0  0  0  0  0  0  0  0
   -1.3593   -0.6196   -0.0536 C   0  0  1  0  0  0  0  0  0  0  0  0
   -0.8788   -0.7266    0.9196 H   0  0  0  0  0  0  0  0  0  0  0  0
   -0.3559   -1.0533   -1.1339 C   0  0  0  0  0  0  0  0  0  0  0  0
   -0.9071   -1.4683   -1.9796 H   0  0  0  0  0  0  0  0  0  0  0  0
    0.1764   -0.1690   -1.4885 H   0  0  0  0  0  0  0  0  0  0  0  0
    0.6531   -2.0706   -0.6944 C   0  0  0  0  0  0  0  0  0  0  0  0
    1.4370   -2.8061   -1.5143 C   0  0  0  0  0  0  0  0  0  0  0  0
    1.4132   -2.7585   -2.5975 H   0  0  0  0  0  0  0  0  0  0  0  0
    2.2771   -3.6031   -0.7616 N   0  0  0  0  0  0  0  0  0  0  0  0
    2.9485   -4.2406   -1.1639 H   0  0  0  0  0  0  0  0  0  0  0  0
    2.0865   -3.4072    0.5898 C   0  0  0  0  0  0  0  0  0  0  0  0
    2.6987   -3.9441    1.7314 C   0  0  0  0  0  0  0  0  0  0  0  0
    3.4901   -4.6730    1.6367 H   0  0  0  0  0  0  0  0  0  0  0  0
    2.2667   -3.5218    3.0003 C   0  0  0  0  0  0  0  0  0  0  0  0
    2.7265   -3.9258    3.8922 H   0  0  0  0  0  0  0  0  0  0  0  0
    1.2300   -2.5770    3.1093 C   0  0  0  0  0  0  0  0  0  0  0  0
    0.8951   -2.2611    4.0876 H   0  0  0  0  0  0  0  0  0  0  0  0
    0.6206   -2.0455    1.9549 C   0  0  0  0  0  0  0  0  0  0  0  0
   -0.1838   -1.3304    2.0530 H   0  0  0  0  0  0  0  0  0  0  0  0
    1.0358   -2.4445    0.6660 C   0  0  0  0  0  0  0  0  0  0  0  0
   -1.7617    0.8549   -0.2106 C   0  0  0  0  0  0  0  0  0  0  0  0
   -2.5726    1.1871   -1.0741 O   0  0  0  0  0  0  0  0  0  0  0  0
   -1.1941    1.7377    0.6223 N   0  0  0  0  0  0  0  0  0  0  0  0
   -0.4976    1.3916    1.2669 H   0  0  0  0  0  0  0  0  0  0  0  0
   -1.4666    3.1722    0.6095 C   0  0  0  0  0  0  0  0  0  0  0  0
   -2.5439    3.3427    0.6539 H   0  0  0  0  0  0  0  0  0  0  0  0
   -0.9893    3.6529    1.4644 H   0  0  0  0  0  0  0  0  0  0  0  0
   -1.0808    3.6095   -0.3129 H   0  0  0  0  0  0  0  0  0  0  0  0
  5  6  2  0  0  0  0
  5  7  1  0  0  0  0
  2  3  1  0  0  0  0
  2  4  1  0  0  0  0
  2  5  1  0  0  0  0
  1  2  1  0  0  0  0
 29 30  2  0  0  0  0
 29 31  1  0  0  0  0
 26 27  1  0  0  0  0
 26 28  2  0  0  0  0
 24 25  1  0  0  0  0
 24 26  1  0  0  0  0
 22 23  1  0  0  0  0
 22 24  2  0  0  0  0
 20 21  1  0  0  0  0
 20 22  1  0  0  0  0
 19 20  2  0  0  0  0
 19 28  1  0  0  0  0
 17 18  1  0  0  0  0
 17 19  1  0  0  0  0
 15 16  1  0  0  0  0
 15 17  1  0  0  0  0
 14 15  2  0  0  0  0
 14 28  1  0  0  0  0
 11 12  1  0  0  0  0
 11 13  1  0  0  0  0
 11 14  1  0  0  0  0
  9 10  1  0  0  0  0
  9 11  1  0  0  0  0
  9 29  1  0  0  0  0
  7  8  1  0  0  0  0
  7  9  1  0  0  0  0
 33 34  1  0  0  0  0
 33 35  1  0  0  0  0
 33 36  1  0  0  0  0
 31 32  1  0  0  0  0
 31 33  1  0  0  0  0
M  END
$$$$
default_name
  -OEChem-02102213163D

 36 37  0     1  0  0  0  0  0999 V2000
   -4.0843   -4.0736    1.2944 H   0  0  0  0  0  0  0  0  0  0  0  0
   -4.0342   -3.2816    0.5484 C   0  0  0  0  0  0  0  0  0  0  0  0
   -4.8842   -2.6126    0.6694 H   0  0  0  0  0  0  0  0  0  0  0  0
   -4.0433   -3.7186   -0.4486 H   0  0  0  0  0  0  0  0  0  0  0  0
   -2.7532   -2.5046    0.7444 C   0  0  0  0  0  0  0  0  0  0  0  0
   -1.9803   -2.8096    1.6434 O   0  0  0  0  0  0  0  0  0  0  0  0
   -2.5332   -1.4966   -0.0966 N   0  0  0  0  0  0  0  0  0  0  0  0
   -3.2312   -1.2816   -0.7936 H   0  0  0  0  0  0  0  0  0  0  0  0
   -1.3593   -0.6196   -0.0536 C   0  0  1  0  0  0  0  0  0  0  0  0
   -0.8788   -0.7266    0.9196 H   0  0  0  0  0  0  0  0  0  0  0  0
   -0.3559   -1.0533   -1.1339 C   0  0  0  0  0  0  0  0  0  0  0  0
   -0.8943   -1.2143   -2.0696 H   0  0  0  0  0  0  0  0  0  0  0  0
    0.3527   -0.2394   -1.2965 H   0  0  0  0  0  0  0  0  0  0  0  0
    0.4157   -2.2999   -0.8228 C   0  0  0  0  0  0  0  0  0  0  0  0
    1.3480   -2.8675   -1.6205 C   0  0  0  0  0  0  0  0  0  0  0  0
    1.6354   -2.4932   -2.5970 H   0  0  0  0  0  0  0  0  0  0  0  0
    1.8842   -3.9747   -0.9927 N   0  0  0  0  0  0  0  0  0  0  0  0
    2.5972   -4.5582   -1.4054 H   0  0  0  0  0  0  0  0  0  0  0  0
    1.3323   -4.1671    0.2560 C   0  0  0  0  0  0  0  0  0  0  0  0
    1.5580   -5.1110    1.2681 C   0  0  0  0  0  0  0  0  0  0  0  0
    2.2924   -5.8916    1.1348 H   0  0  0  0  0  0  0  0  0  0  0  0
    0.8139   -5.0279    2.4574 C   0  0  0  0  0  0  0  0  0  0  0  0
    0.9735   -5.7478    3.2487 H   0  0  0  0  0  0  0  0  0  0  0  0
   -0.1446   -4.0101    2.6149 C   0  0  0  0  0  0  0  0  0  0  0  0
   -0.7207   -3.9549    3.5282 H   0  0  0  0  0  0  0  0  0  0  0  0
   -0.3644   -3.0679    1.5901 C   0  0  0  0  0  0  0  0  0  0  0  0
   -1.1131   -2.2992    1.7187 H   0  0  0  0  0  0  0  0  0  0  0  0
    0.3710   -3.1205    0.3862 C   0  0  0  0  0  0  0  0  0  0  0  0
   -1.7617    0.8549   -0.2106 C   0  0  0  0  0  0  0  0  0  0  0  0
   -2.5726    1.1871   -1.0741 O   0  0  0  0  0  0  0  0  0  0  0  0
   -1.1941    1.7377    0.6223 N   0  0  0  0  0  0  0  0  0  0  0  0
   -0.4976    1.3916    1.2669 H   0  0  0  0  0  0  0  0  0  0  0  0
   -1.4666    3.1722    0.6095 C   0  0  0  0  0  0  0  0  0  0  0  0
   -2.5439    3.3427    0.6539 H   0  0  0  0  0  0  0  0  0  0  0  0
   -0.9893    3.6529    1.4644 H   0  0  0  0  0  0  0  0  0  0  0  0
   -1.0808    3.6095   -0.3129 H   0  0  0  0  0  0  0  0  0  0  0  0
  5  6  2  0  0  0  0
  5  7  1  0  0  0  0
  2  3  1  0  0  0  0
  2  4  1  0  0  0  0
  2  5  1  0  0  0  0
  1  2  1  0  0  0  0
 29 30  2  0  0  0  0
 29 31  1  0  0  0  0
 26 27  1  0  0  0  0
 26 28  2  0  0  0  0
 24 25  1  0  0  0  0
 24 26  1  0  0  0  0
 22 23  1  0  0  0  0
 22 24  2  0  0  0  0
 20 21  1  0  0  0  0
 20 22  1  0  0  0  0
 19 20  2  0  0  0  0
 19 28  1  0  0  0  0
 17 18  1  0  0  0  0
 17 19  1  0  0  0  0
 15 16  1  0  0  0  0
 15 17  1  0  0  0  0
 14 15  2  0  0  0  0
 14 28  1  0  0  0  0
 11 12  1  0  0  0  0
 11 13  1  0  0  0  0
 11 14  1  0  0  0  0
  9 10  1  0  0  0  0
  9 11  1  0  0  0  0
  9 29  1  0  0  0  0
  7  8  1  0  0  0  0
  7  9  1  0  0  0  0
 33 34  1  0  0  0  0
 33 35  1  0  0  0  0
 33 36  1  0  0  0  0
 31 32  1  0  0  0  0
 31 33  1  0  0  0  0
M  END
$$$$
default_name
  -OEChem-02102213163D

 36 37  0     1  0  0  0  0  0999 V2000
   -4.0843   -4.0736    1.2944 H   0  0  0  0  0  0  0  0  0  0  0  0
   -4.0342   -3.2816    0.5484 C   0  0  0  0  0  0  0  0  0  0  0  0
   -4.8842   -2.6126    0.6694 H   0  0  0  0  0  0  0  0  0  0  0  0
   -4.0433   -3.7186   -0.4486 H   0  0  0  0  0  0  0  0  0  0  0  0
   -2.7532   -2.5046    0.7444 C   0  0  0  0  0  0  0  0  0  0  0  0
   -1.9803   -2.8096    1.6434 O   0  0  0  0  0  0  0  0  0  0  0  0
   -2.5332   -1.4966   -0.0966 N   0  0  0  0  0  0  0  0  0  0  0  0
   -3.2312   -1.2816   -0.7936 H   0  0  0  0  0  0  0  0  0  0  0  0
   -1.3593   -0.6196   -0.0536 C   0  0  1  0  0  0  0  0  0  0  0  0
   -0.8788   -0.7266    0.9196 H   0  0  0  0  0  0  0  0  0  0  0  0
   -0.3559   -1.0533   -1.1339 C   0  0  0  0  0  0  0  0  0  0  0  0
   -0.8943   -1.2143   -2.0696 H   0  0  0  0  0  0  0  0  0  0  0  0
    0.3527   -0.2394   -1.2965 H   0  0  0  0  0  0  0  0  0  0  0  0
    0.4157   -2.2999   -0.8228 C   0  0  0  0  0  0  0  0  0  0  0  0
    1.5322   -2.7141   -1.4627 C   0  0  0  0  0  0  0  0  0  0  0  0
    1.9935   -2.1966   -2.2968 H   0  0  0  0  0  0  0  0  0  0  0  0
    1.9978   -3.8760   -0.8790 N   0  0  0  0  0  0  0  0  0  0  0  0
    2.8202   -4.3681   -1.1965 H   0  0  0  0  0  0  0  0  0  0  0  0
    1.2086   -4.2617    0.1836 C   0  0  0  0  0  0  0  0  0  0  0  0
    1.2789   -5.3277    1.0920 C   0  0  0  0  0  0  0  0  0  0  0  0
    2.0764   -6.0529    1.0243 H   0  0  0  0  0  0  0  0  0  0  0  0
    0.2960   -5.4401    2.0902 C   0  0  0  0  0  0  0  0  0  0  0  0
    0.3334   -6.2563    2.7989 H   0  0  0  0  0  0  0  0  0  0  0  0
   -0.7413   -4.4924    2.1623 C   0  0  0  0  0  0  0  0  0  0  0  0
   -1.5000   -4.5874    2.9268 H   0  0  0  0  0  0  0  0  0  0  0  0
   -0.8030   -3.4261    1.2428 C   0  0  0  0  0  0  0  0  0  0  0  0
   -1.6127   -2.7126    1.3012 H   0  0  0  0  0  0  0  0  0  0  0  0
    0.1723   -3.2818    0.2324 C   0  0  0  0  0  0  0  0  0  0  0  0
   -1.7617    0.8549   -0.2106 C   0  0  0  0  0  0  0  0  0  0  0  0
   -2.5726    1.1871   -1.0741 O   0  0  0  0  0  0  0  0  0  0  0  0
   -1.1941    1.7377    0.6223 N   0  0  0  0  0  0  0  0  0  0  0  0
   -0.4976    1.3916    1.2669 H   0  0  0  0  0  0  0  0  0  0  0  0
   -1.4666    3.1722    0.6095 C   0  0  0  0  0  0  0  0  0  0  0  0
   -2.5439    3.3427    0.6539 H   0  0  0  0  0  0  0  0  0  0  0  0
   -0.9893    3.6529    1.4644 H   0  0  0  0  0  0  0  0  0  0  0  0
   -1.0808    3.6095   -0.3129 H   0  0  0  0  0  0  0  0  0  0  0  0
  5  6  2  0  0  0  0
  5  7  1  0  0  0  0
  2  3  1  0  0  0  0
  2  4  1  0  0  0  0
  2  5  1  0  0  0  0
  1  2  1  0  0  0  0
 29 30  2  0  0  0  0
 29 31  1  0  0  0  0
 26 27  1  0  0  0  0
 26 28  2  0  0  0  0
 24 25  1  0  0  0  0
 24 26  1  0  0  0  0
 22 23  1  0  0  0  0
 22 24  2  0  0  0  0
 20 21  1  0  0  0  0
 20 22  1  0  0  0  0
 19 20  2  0  0  0  0
 19 28  1  0  0  0  0
 17 18  1  0  0  0  0
 17 19  1  0  0  0  0
 15 16  1  0  0  0  0
 15 17  1  0  0  0  0
 14 15  2  0  0  0  0
 14 28  1  0  0  0  0
 11 12  1  0  0  0  0
 11 13  1  0  0  0  0
 11 14  1  0  0  0  0
  9 10  1  0  0  0  0
  9 11  1  0  0  0  0
  9 29  1  0  0  0  0
  7  8  1  0  0  0  0
  7  9  1  0  0  0  0
 33 34  1  0  0  0  0
 33 35  1  0  0  0  0
 33 36  1  0  0  0  0
 31 32  1  0  0  0  0
 31 33  1  0  0  0  0
M  END
$$$$
default_name
  -OEChem-02102213163D

 36 37  0     1  0  0  0  0  0999 V2000
   -4.0843   -4.0736    1.2944 H   0  0  0  0  0  0  0  0  0  0  0  0
   -4.0342   -3.2816    0.5484 C   0  0  0  0  0  0  0  0  0  0  0  0
   -4.8842   -2.6126    0.6694 H   0  0  0  0  0  0  0  0  0  0  0  0
   -4.0433   -3.7186   -0.4486 H   0  0  0  0  0  0  0  0  0  0  0  0
   -2.7532   -2.5046    0.7444 C   0  0  0  0  0  0  0  0  0  0  0  0
   -1.9803   -2.8096    1.6434 O   0  0  0  0  0  0  0  0  0  0  0  0
   -2.5332   -1.4966   -0.0966 N   0  0  0  0  0  0  0  0  0  0  0  0
   -3.2312   -1.2816   -0.7936 H   0  0  0  0  0  0  0  0  0  0  0  0
   -1.3593   -0.6196   -0.0536 C   0  0  1  0  0  0  0  0  0  0  0  0
   -0.8788   -0.7266    0.9196 H   0  0  0  0  0  0  0  0  0  0  0  0
   -0.3559   -1.0533   -1.1339 C   0  0  0  0  0  0  0  0  0  0  0  0
   -0.8943   -1.2143   -2.0696 H   0  0  0  0  0  0  0  0  0  0  0  0
    0.3527   -0.2394   -1.2965 H   0  0  0  0  0  0  0  0  0  0  0  0
    0.4157   -2.2999   -0.8228 C   0  0  0  0  0  0  0  0  0  0  0  0
    1.6680   -2.5770   -1.2502 C   0  0  0  0  0  0  0  0  0  0  0  0
    2.2589   -1.9309   -1.8901 H   0  0  0  0  0  0  0  0  0  0  0  0
    2.0777   -3.7897   -0.7316 N   0  0  0  0  0  0  0  0  0  0  0  0
    2.9803   -4.2003   -0.9213 H   0  0  0  0  0  0  0  0  0  0  0  0
    1.1098   -4.3501    0.0745 C   0  0  0  0  0  0  0  0  0  0  0  0
    1.0588   -5.5285    0.8328 C   0  0  0  0  0  0  0  0  0  0  0  0
    1.9003   -6.2055    0.8496 H   0  0  0  0  0  0  0  0  0  0  0  0
   -0.1030   -5.8171    1.5690 C   0  0  0  0  0  0  0  0  0  0  0  0
   -0.1607   -6.7219    2.1588 H   0  0  0  0  0  0  0  0  0  0  0  0
   -1.1943   -4.9300    1.5325 C   0  0  0  0  0  0  0  0  0  0  0  0
   -2.0894   -5.1600    2.0937 H   0  0  0  0  0  0  0  0  0  0  0  0
   -1.1328   -3.7494    0.7652 C   0  0  0  0  0  0  0  0  0  0  0  0
   -1.9833   -3.0832    0.7353 H   0  0  0  0  0  0  0  0  0  0  0  0
    0.0221   -3.4279    0.0197 C   0  0  0  0  0  0  0  0  0  0  0  0
   -1.7617    0.8549   -0.2106 C   0  0  0  0  0  0  0  0  0  0  0  0
   -2.5726    1.1871   -1.0741 O   0  0  0  0  0  0  0  0  0  0  0  0
   -1.1941    1.7377    0.6223 N   0  0  0  0  0  0  0  0  0  0  0  0
   -0.4976    1.3916    1.2669 H   0  0  0  0  0  0  0  0  0  0  0  0
   -1.4666    3.1722    0.6095 C   0  0  0  0  0  0  0  0  0  0  0  0
   -2.5439    3.3427    0.6539 H   0  0  0  0  0  0  0  0  0  0  0  0
   -0.9893    3.6529    1.4644 H   0  0  0  0  0  0  0  0  0  0  0  0
   -1.0808    3.6095   -0.3129 H   0  0  0  0  0  0  0  0  0  0  0  0
  5  6  2  0  0  0  0
  5  7  1  0  0  0  0
  2  3  1  0  0  0  0
  2  4  1  0  0  0  0
  2  5  1  0  0  0  0
  1  2  1  0  0  0  0
 29 30  2  0  0  0  0
 29 31  1  0  0  0  0
 26 27  1  0  0  0  0
 26 28  2  0  0  0  0
 24 25  1  0  0  0  0
 24 26  1  0  0  0  0
 22 23  1  0  0  0  0
 22 24  2  0  0  0  0
 20 21  1  0  0  0  0
 20 22  1  0  0  0  0
 19 20  2  0  0  0  0
 19 28  1  0  0  0  0
 17 18  1  0  0  0  0
 17 19  1  0  0  0  0
 15 16  1  0  0  0  0
 15 17  1  0  0  0  0
 14 15  2  0  0  0  0
 14 28  1  0  0  0  0
 11 12  1  0  0  0  0
 11 13  1  0  0  0  0
 11 14  1  0  0  0  0
  9 10  1  0  0  0  0
  9 11  1  0  0  0  0
  9 29  1  0  0  0  0
  7  8  1  0  0  0  0
  7  9  1  0  0  0  0
 33 34  1  0  0  0  0
 33 35  1  0  0  0  0
 33 36  1  0  0  0  0
 31 32  1  0  0  0  0
 31 33  1  0  0  0  0
M  END
$$$$
default_name
  -OEChem-02102213163D

 36 37  0     1  0  0  0  0  0999 V2000
   -4.0843   -4.0736    1.2944 H   0  0  0  0  0  0  0  0  0  0  0  0
   -4.0342   -3.2816    0.5484 C   0  0  0  0  0  0  0  0  0  0  0  0
   -4.8842   -2.6126    0.6694 H   0  0  0  0  0  0  0  0  0  0  0  0
   -4.0433   -3.7186   -0.4486 H   0  0  0  0  0  0  0  0  0  0  0  0
   -2.7532   -2.5046    0.7444 C   0  0  0  0  0  0  0  0  0  0  0  0
   -1.9803   -2.8096    1.6434 O   0  0  0  0  0  0  0  0  0  0  0  0
   -2.5332   -1.4966   -0.0966 N   0  0  0  0  0  0  0  0  0  0  0  0
   -3.2312   -1.2816   -0.7936 H   0  0  0  0  0  0  0  0  0  0  0  0
   -1.3593   -0.6196   -0.0536 C   0  0  1  0  0  0  0  0  0  0  0  0
   -0.8788   -0.7266    0.9196 H   0  0  0  0  0  0  0  0  0  0  0  0
   -0.3559   -1.0533   -1.1339 C   0  0  0  0  0  0  0  0  0  0  0  0
   -0.8943   -1.2143   -2.0696 H   0  0  0  0  0  0  0  0  0  0  0  0
    0.3527   -0.2394   -1.2965 H   0  0  0  0  0  0  0  0  0  0  0  0
    0.4157   -2.2999   -0.8228 C   0  0  0  0  0  0  0  0  0  0  0  0
    1.7460   -2.4656   -0.9974 C   0  0  0  0  0  0  0  0  0  0  0  0
    2.4134   -1.7142   -1.4048 H   0  0  0  0  0  0  0  0  0  0  0  0
    2.1186   -3.7217   -0.5605 N   0  0  0  0  0  0  0  0  0  0  0  0
    3.0667   -4.0663   -0.5987 H   0  0  0  0  0  0  0  0  0  0  0  0
    1.0425   -4.4263   -0.0640 C   0  0  0  0  0  0  0  0  0  0  0  0
    0.9129   -5.6998    0.5084 C   0  0  0  0  0  0  0  0  0  0  0  0
    1.7760   -6.3391    0.6226 H   0  0  0  0  0  0  0  0  0  0  0  0
   -0.3559   -6.1332    0.9295 C   0  0  0  0  0  0  0  0  0  0  0  0
   -0.4753   -7.1129    1.3722 H   0  0  0  0  0  0  0  0  0  0  0  0
   -1.4728   -5.2931    0.7682 C   0  0  0  0  0  0  0  0  0  0  0  0
   -2.4485   -5.6338    1.0859 H   0  0  0  0  0  0  0  0  0  0  0  0
   -1.3310   -4.0157    0.1898 C   0  0  0  0  0  0  0  0  0  0  0  0
   -2.1994   -3.3856    0.0595 H   0  0  0  0  0  0  0  0  0  0  0  0
   -0.0693   -3.5487   -0.2377 C   0  0  0  0  0  0  0  0  0  0  0  0
   -1.7617    0.8549   -0.2106 C   0  0  0  0  0  0  0  0  0  0  0  0
   -2.5726    1.1871   -1.0741 O   0  0  0  0  0  0  0  0  0  0  0  0
   -1.1941    1.7377    0.6223 N   0  0  0  0  0  0  0  0  0  0  0  0
   -0.4976    1.3916    1.2669 H   0  0  0  0  0  0  0  0  0  0  0  0
   -1.4666    3.1722    0.6095 C   0  0  0  0  0  0  0  0  0  0  0  0
   -2.5439    3.3427    0.6539 H   0  0  0  0  0  0  0  0  0  0  0  0
   -0.9893    3.6529    1.4644 H   0  0  0  0  0  0  0  0  0  0  0  0
   -1.0808    3.6095   -0.3129 H   0  0  0  0  0  0  0  0  0  0  0  0
  5  6  2  0  0  0  0
  5  7  1  0  0  0  0
  2  3  1  0  0  0  0
  2  4  1  0  0  0  0
  2  5  1  0  0  0  0
  1  2  1  0  0  0  0
 29 30  2  0  0  0  0
 29 31  1  0  0  0  0
 26 27  1  0  0  0  0
 26 28  2  0  0  0  0
 24 25  1  0  0  0  0
 24 26  1  0  0  0  0
 22 23  1  0  0  0  0
 22 24  2  0  0  0  0
 20 21  1  0  0  0  0
 20 22  1  0  0  0  0
 19 20  2  0  0  0  0
 19 28  1  0  0  0  0
 17 18  1  0  0  0  0
 17 19  1  0  0  0  0
 15 16  1  0  0  0  0
 15 17  1  0  0  0  0
 14 15  2  0  0  0  0
 14 28  1  0  0  0  0
 11 12  1  0  0  0  0
 11 13  1  0  0  0  0
 11 14  1  0  0  0  0
  9 10  1  0  0  0  0
  9 11  1  0  0  0  0
  9 29  1  0  0  0  0
  7  8  1  0  0  0  0
  7  9  1  0  0  0  0
 33 34  1  0  0  0  0
 33 35  1  0  0  0  0
 33 36  1  0  0  0  0
 31 32  1  0  0  0  0
 31 33  1  0  0  0  0
M  END
$$$$
default_name
  -OEChem-02102213163D

 36 37  0     1  0  0  0  0  0999 V2000
   -4.0843   -4.0736    1.2944 H   0  0  0  0  0  0  0  0  0  0  0  0
   -4.0342   -3.2816    0.5484 C   0  0  0  0  0  0  0  0  0  0  0  0
   -4.8842   -2.6126    0.6694 H   0  0  0  0  0  0  0  0  0  0  0  0
   -4.0433   -3.7186   -0.4486 H   0  0  0  0  0  0  0  0  0  0  0  0
   -2.7532   -2.5046    0.7444 C   0  0  0  0  0  0  0  0  0  0  0  0
   -1.9803   -2.8096    1.6434 O   0  0  0  0  0  0  0  0  0  0  0  0
   -2.5332   -1.4966   -0.0966 N   0  0  0  0  0  0  0  0  0  0  0  0
   -3.2312   -1.2816   -0.7936 H   0  0  0  0  0  0  0  0  0  0  0  0
   -1.3593   -0.6196   -0.0536 C   0  0  1  0  0  0  0  0  0  0  0  0
   -0.8788   -0.7266    0.9196 H   0  0  0  0  0  0  0  0  0  0  0  0
   -0.3559   -1.0533   -1.1339 C   0  0  0  0  0  0  0  0  0  0  0  0
   -0.8943   -1.2143   -2.0696 H   0  0  0  0  0  0  0  0  0  0  0  0
    0.3527   -0.2394   -1.2965 H   0  0  0  0  0  0  0  0  0  0  0  0
    0.4157   -2.2999   -0.8228 C   0  0  0  0  0  0  0  0  0  0  0  0
    1.7610   -2.3876   -0.7216 C   0  0  0  0  0  0  0  0  0  0  0  0
    2.4466   -1.5612   -0.8739 H   0  0  0  0  0  0  0  0  0  0  0  0
    2.1175   -3.6767   -0.3774 N   0  0  0  0  0  0  0  0  0  0  0  0
    3.0736   -3.9752   -0.2507 H   0  0  0  0  0  0  0  0  0  0  0  0
    1.0115   -4.4850   -0.2223 C   0  0  0  0  0  0  0  0  0  0  0  0
    0.8510   -5.8299    0.1408 C   0  0  0  0  0  0  0  0  0  0  0  0
    1.7119   -6.4446    0.3588 H   0  0  0  0  0  0  0  0  0  0  0  0
   -0.4456   -6.3670    0.2152 C   0  0  0  0  0  0  0  0  0  0  0  0
   -0.5887   -7.4026    0.4925 H   0  0  0  0  0  0  0  0  0  0  0  0
   -1.5577   -5.5569   -0.0784 C   0  0  0  0  0  0  0  0  0  0  0  0
   -2.5530   -5.9764   -0.0280 H   0  0  0  0  0  0  0  0  0  0  0  0
   -1.3844   -4.2069   -0.4442 C   0  0  0  0  0  0  0  0  0  0  0  0
   -2.2465   -3.5993   -0.6800 H   0  0  0  0  0  0  0  0  0  0  0  0
   -0.0957   -3.6359   -0.5220 C   0  0  0  0  0  0  0  0  0  0  0  0
   -1.7617    0.8549   -0.2106 C   0  0  0  0  0  0  0  0  0  0  0  0
   -2.5726    1.1871   -1.0741 O   0  0  0  0  0  0  0  0  0  0  0  0
   -1.1941    1.7377    0.6223 N   0  0  0  0  0  0  0  0  0  0  0  0
   -0.4976    1.3916    1.2669 H   0  0  0  0  0  0  0  0  0  0  0  0
   -1.4666    3.1722    0.6095 C   0  0  0  0  0  0  0  0  0  0  0  0
   -2.5439    3.3427    0.6539 H   0  0  0  0  0  0  0  0  0  0  0  0
   -0.9893    3.6529    1.4644 H   0  0  0  0  0  0  0  0  0  0  0  0
   -1.0808    3.6095   -0.3129 H   0  0  0  0  0  0  0  0  0  0  0  0
  5  6  2  0  0  0  0
  5  7  1  0  0  0  0
  2  3  1  0  0  0  0
  2  4  1  0  0  0  0
  2  5  1  0  0  0  0
  1  2  1  0  0  0  0
 29 30  2  0  0  0  0
 29 31  1  0  0  0  0
 26 27  1  0  0  0  0
 26 28  2  0  0  0  0
 24 25  1  0  0  0  0
 24 26  1  0  0  0  0
 22 23  1  0  0  0  0
 22 24  2  0  0  0  0
 20 21  1  0  0  0  0
 20 22  1  0  0  0  0
 19 20  2  0  0  0  0
 19 28  1  0  0  0  0
 17 18  1  0  0  0  0
 17 19  1  0  0  0  0
 15 16  1  0  0  0  0
 15 17  1  0  0  0  0
 14 15  2  0  0  0  0
 14 28  1  0  0  0  0
 11 12  1  0  0  0  0
 11 13  1  0  0  0  0
 11 14  1  0  0  0  0
  9 10  1  0  0  0  0
  9 11  1  0  0  0  0
  9 29  1  0  0  0  0
  7  8  1  0  0  0  0
  7  9  1  0  0  0  0
 33 34  1  0  0  0  0
 33 35  1  0  0  0  0
 33 36  1  0  0  0  0
 31 32  1  0  0  0  0
 31 33  1  0  0  0  0
M  END
$$$$
default_name
  -OEChem-02102213163D

 36 37  0     1  0  0  0  0  0999 V2000
   -4.0843   -4.0736    1.2944 H   0  0  0  0  0  0  0  0  0  0  0  0
   -4.0342   -3.2816    0.5484 C   0  0  0  0  0  0  0  0  0  0  0  0
   -4.8842   -2.6126    0.6694 H   0  0  0  0  0  0  0  0  0  0  0  0
   -4.0433   -3.7186   -0.4486 H   0  0  0  0  0  0  0  0  0  0  0  0
   -2.7532   -2.5046    0.7444 C   0  0  0  0  0  0  0  0  0  0  0  0
   -1.9803   -2.8096    1.6434 O   0  0  0  0  0  0  0  0  0  0  0  0
   -2.5332   -1.4966   -0.0966 N   0  0  0  0  0  0  0  0  0  0  0  0
   -3.2312   -1.2816   -0.7936 H   0  0  0  0  0  0  0  0  0  0  0  0
   -1.3593   -0.6196   -0.0536 C   0  0  1  0  0  0  0  0  0  0  0  0
   -0.8788   -0.7266    0.9196 H   0  0  0  0  0  0  0  0  0  0  0  0
   -0.3559   -1.0533   -1.1339 C   0  0  0  0  0  0  0  0  0  0  0  0
   -0.8943   -1.2143   -2.0696 H   0  0  0  0  0  0  0  0  0  0  0  0
    0.3527   -0.2394   -1.2965 H   0  0  0  0  0  0  0  0  0  0  0  0
    0.4157   -2.2999   -0.8228 C   0  0  0  0  0  0  0  0  0  0  0  0
    1.7119   -2.3481   -0.4416 C   0  0  0  0  0  0  0  0  0  0  0  0
    2.3561   -1.4823   -0.3336 H   0  0  0  0  0  0  0  0  0  0  0  0
    2.0747   -3.6576   -0.1947 N   0  0  0  0  0  0  0  0  0  0  0  0
    3.0004   -3.9332    0.0992 H   0  0  0  0  0  0  0  0  0  0  0  0
    1.0188   -4.5223   -0.3898 C   0  0  0  0  0  0  0  0  0  0  0  0
    0.8773   -5.9099   -0.2450 C   0  0  0  0  0  0  0  0  0  0  0  0
    1.7125   -6.5147    0.0761 H   0  0  0  0  0  0  0  0  0  0  0  0
   -0.3659   -6.5024   -0.5253 C   0  0  0  0  0  0  0  0  0  0  0  0
   -0.4934   -7.5713   -0.4202 H   0  0  0  0  0  0  0  0  0  0  0  0
   -1.4434   -5.7035   -0.9495 C   0  0  0  0  0  0  0  0  0  0  0  0
   -2.3957   -6.1646   -1.1721 H   0  0  0  0  0  0  0  0  0  0  0  0
   -1.2892   -4.3100   -1.0935 C   0  0  0  0  0  0  0  0  0  0  0  0
   -2.1213   -3.7097   -1.4330 H   0  0  0  0  0  0  0  0  0  0  0  0
   -0.0553   -3.6838   -0.8139 C   0  0  0  0  0  0  0  0  0  0  0  0
   -1.7617    0.8549   -0.2106 C   0  0  0  0  0  0  0  0  0  0  0  0
   -2.5726    1.1871   -1.0741 O   0  0  0  0  0  0  0  0  0  0  0  0
   -1.1941    1.7377    0.6223 N   0  0  0  0  0  0  0  0  0  0  0  0
   -0.4976    1.3916    1.2669 H   0  0  0  0  0  0  0  0  0  0  0  0
   -1.4666    3.1722    0.6095 C   0  0  0  0  0  0  0  0  0  0  0  0
   -2.5439    3.3427    0.6539 H   0  0  0  0  0  0  0  0  0  0  0  0
   -0.9893    3.6529    1.4644 H   0  0  0  0  0  0  0  0  0  0  0  0
   -1.0808    3.6095   -0.3129 H   0  0  0  0  0  0  0  0  0  0  0  0
  5  6  2  0  0  0  0
  5  7  1  0  0  0  0
  2  3  1  0  0  0  0
  2  4  1  0  0  0  0
  2  5  1  0  0  0  0
  1  2  1  0  0  0  0
 29 30  2  0  0  0  0
 29 31  1  0  0  0  0
 26 27  1  0  0  0  0
 26 28  2  0  0  0  0
 24 25  1  0  0  0  0
 24 26  1  0  0  0  0
 22 23  1  0  0  0  0
 22 24  2  0  0  0  0
 20 21  1  0  0  0  0
 20 22  1  0  0  0  0
 19 20  2  0  0  0  0
 19 28  1  0  0  0  0
 17 18  1  0  0  0  0
 17 19  1  0  0  0  0
 15 16  1  0  0  0  0
 15 17  1  0  0  0  0
 14 15  2  0  0  0  0
 14 28  1  0  0  0  0
 11 12  1  0  0  0  0
 11 13  1  0  0  0  0
 11 14  1  0  0  0  0
  9 10  1  0  0  0  0
  9 11  1  0  0  0  0
  9 29  1  0  0  0  0
  7  8  1  0  0  0  0
  7  9  1  0  0  0  0
 33 34  1  0  0  0  0
 33 35  1  0  0  0  0
 33 36  1  0  0  0  0
 31 32  1  0  0  0  0
 31 33  1  0  0  0  0
M  END
$$$$
default_name
  -OEChem-02102213163D

 36 37  0     1  0  0  0  0  0999 V2000
   -4.0843   -4.0736    1.2944 H   0  0  0  0  0  0  0  0  0  0  0  0
   -4.0342   -3.2816    0.5484 C   0  0  0  0  0  0  0  0  0  0  0  0
   -4.8842   -2.6126    0.6694 H   0  0  0  0  0  0  0  0  0  0  0  0
   -4.0433   -3.7186   -0.4486 H   0  0  0  0  0  0  0  0  0  0  0  0
   -2.7532   -2.5046    0.7444 C   0  0  0  0  0  0  0  0  0  0  0  0
   -1.9803   -2.8096    1.6434 O   0  0  0  0  0  0  0  0  0  0  0  0
   -2.5332   -1.4966   -0.0966 N   0  0  0  0  0  0  0  0  0  0  0  0
   -3.2312   -1.2816   -0.7936 H   0  0  0  0  0  0  0  0  0  0  0  0
   -1.3593   -0.6196   -0.0536 C   0  0  1  0  0  0  0  0  0  0  0  0
   -0.8788   -0.7266    0.9196 H   0  0  0  0  0  0  0  0  0  0  0  0
   -0.3559   -1.0533   -1.1339 C   0  0  0  0  0  0  0  0  0  0  0  0
   -0.8943   -1.2143   -2.0696 H   0  0  0  0  0  0  0  0  0  0  0  0
    0.3527   -0.2394   -1.2965 H   0  0  0  0  0  0  0  0  0  0  0  0
    0.4157   -2.2999   -0.8228 C   0  0  0  0  0  0  0  0  0  0  0  0
    1.6020   -2.3499   -0.1764 C   0  0  0  0  0  0  0  0  0  0  0  0
    2.1481   -1.4831    0.1794 H   0  0  0  0  0  0  0  0  0  0  0  0
    1.9930   -3.6659   -0.0249 N   0  0  0  0  0  0  0  0  0  0  0  0
    2.8521   -3.9432    0.4269 H   0  0  0  0  0  0  0  0  0  0  0  0
    1.0638   -4.5356   -0.5550 C   0  0  0  0  0  0  0  0  0  0  0  0
    0.9900   -5.9343   -0.6226 C   0  0  0  0  0  0  0  0  0  0  0  0
    1.7777   -6.5448   -0.2062 H   0  0  0  0  0  0  0  0  0  0  0  0
   -0.1222   -6.5303   -1.2414 C   0  0  0  0  0  0  0  0  0  0  0  0
   -0.1957   -7.6076   -1.3038 H   0  0  0  0  0  0  0  0  0  0  0  0
   -1.1375   -5.7229   -1.7859 C   0  0  0  0  0  0  0  0  0  0  0  0
   -1.9874   -6.1854   -2.2685 H   0  0  0  0  0  0  0  0  0  0  0  0
   -1.0519   -4.3180   -1.7140 C   0  0  0  0  0  0  0  0  0  0  0  0
   -1.8323   -3.7093   -2.1481 H   0  0  0  0  0  0  0  0  0  0  0  0
    0.0492   -3.6889   -1.0936 C   0  0  0  0  0  0  0  0  0  0  0  0
   -1.7617    0.8549   -0.2106 C   0  0  0  0  0  0  0  0  0  0  0  0
   -2.5726    1.1871   -1.0741 O   0  0  0  0  0  0  0  0  0  0  0  0
   -1.1941    1.7377    0.6223 N   0  0  0  0  0  0  0  0  0  0  0  0
   -0.4976    1.3916    1.2669 H   0  0  0  0  0  0  0  0  0  0  0  0
   -1.4666    3.1722    0.6095 C   0  0  0  0  0  0  0  0  0  0  0  0
   -2.5439    3.3427    0.6539 H   0  0  0  0  0  0  0  0  0  0  0  0
   -0.9893    3.6529    1.4644 H   0  0  0  0  0  0  0  0  0  0  0  0
   -1.0808    3.6095   -0.3129 H   0  0  0  0  0  0  0  0  0  0  0  0
  5  6  2  0  0  0  0
  5  7  1  0  0  0  0
  2  3  1  0  0  0  0
  2  4  1  0  0  0  0
  2  5  1  0  0  0  0
  1  2  1  0  0  0  0
 29 30  2  0  0  0  0
 29 31  1  0  0  0  0
 26 27  1  0  0  0  0
 26 28  2  0  0  0  0
 24 25  1  0  0  0  0
 24 26  1  0  0  0  0
 22 23  1  0  0  0  0
 22 24  2  0  0  0  0
 20 21  1  0  0  0  0
 20 22  1  0  0  0  0
 19 20  2  0  0  0  0
 19 28  1  0  0  0  0
 17 18  1  0  0  0  0
 17 19  1  0  0  0  0
 15 16  1  0  0  0  0
 15 17  1  0  0  0  0
 14 15  2  0  0  0  0
 14 28  1  0  0  0  0
 11 12  1  0  0  0  0
 11 13  1  0  0  0  0
 11 14  1  0  0  0  0
  9 10  1  0  0  0  0
  9 11  1  0  0  0  0
  9 29  1  0  0  0  0
  7  8  1  0  0  0  0
  7  9  1  0  0  0  0
 33 34  1  0  0  0  0
 33 35  1  0  0  0  0
 33 36  1  0  0  0  0
 31 32  1  0  0  0  0
 31 33  1  0  0  0  0
M  END
$$$$
default_name
  -OEChem-02102213163D

 36 37  0     1  0  0  0  0  0999 V2000
   -4.0843   -4.0736    1.2944 H   0  0  0  0  0  0  0  0  0  0  0  0
   -4.0342   -3.2816    0.5484 C   0  0  0  0  0  0  0  0  0  0  0  0
   -4.8842   -2.6126    0.6694 H   0  0  0  0  0  0  0  0  0  0  0  0
   -4.0433   -3.7186   -0.4486 H   0  0  0  0  0  0  0  0  0  0  0  0
   -2.7532   -2.5046    0.7444 C   0  0  0  0  0  0  0  0  0  0  0  0
   -1.9803   -2.8096    1.6434 O   0  0  0  0  0  0  0  0  0  0  0  0
   -2.5332   -1.4966   -0.0966 N   0  0  0  0  0  0  0  0  0  0  0  0
   -3.2312   -1.2816   -0.7936 H   0  0  0  0  0  0  0  0  0  0  0  0
   -1.3593   -0.6196   -0.0536 C   0  0  1  0  0  0  0  0  0  0  0  0
   -0.8788   -0.7266    0.9196 H   0  0  0  0  0  0  0  0  0  0  0  0
   -0.3559   -1.0533   -1.1339 C   0  0  0  0  0  0  0  0  0  0  0  0
   -0.8943   -1.2143   -2.0696 H   0  0  0  0  0  0  0  0  0  0  0  0
    0.3527   -0.2394   -1.2965 H   0  0  0  0  0  0  0  0  0  0  0  0
    0.4157   -2.2999   -0.8228 C   0  0  0  0  0  0  0  0  0  0  0  0
    1.4389   -2.3929    0.0558 C   0  0  0  0  0  0  0  0  0  0  0  0
    1.8368   -1.5633    0.6300 H   0  0  0  0  0  0  0  0  0  0  0  0
    1.8779   -3.7008    0.1204 N   0  0  0  0  0  0  0  0  0  0  0  0
    2.6389   -4.0045    0.7102 H   0  0  0  0  0  0  0  0  0  0  0  0
    1.1436   -4.5241   -0.7066 C   0  0  0  0  0  0  0  0  0  0  0  0
    1.1815   -5.9015   -0.9663 C   0  0  0  0  0  0  0  0  0  0  0  0
    1.9031   -6.5328   -0.4688 H   0  0  0  0  0  0  0  0  0  0  0  0
    0.2689   -6.4487   -1.8843 C   0  0  0  0  0  0  0  0  0  0  0  0
    0.2840   -7.5089   -2.0980 H   0  0  0  0  0  0  0  0  0  0  0  0
   -0.6610   -5.6137   -2.5305 C   0  0  0  0  0  0  0  0  0  0  0  0
   -1.3558   -6.0375   -3.2423 H   0  0  0  0  0  0  0  0  0  0  0  0
   -0.6887   -4.2302   -2.2632 C   0  0  0  0  0  0  0  0  0  0  0  0
   -1.3993   -3.5980   -2.7766 H   0  0  0  0  0  0  0  0  0  0  0  0
    0.2106   -3.6510   -1.3419 C   0  0  0  0  0  0  0  0  0  0  0  0
   -1.7617    0.8549   -0.2106 C   0  0  0  0  0  0  0  0  0  0  0  0
   -2.5726    1.1871   -1.0741 O   0  0  0  0  0  0  0  0  0  0  0  0
   -1.1941    1.7377    0.6223 N   0  0  0  0  0  0  0  0  0  0  0  0
   -0.4976    1.3916    1.2669 H   0  0  0  0  0  0  0  0  0  0  0  0
   -1.4666    3.1722    0.6095 C   0  0  0  0  0  0  0  0  0  0  0  0
   -2.5439    3.3427    0.6539 H   0  0  0  0  0  0  0  0  0  0  0  0
   -0.9893    3.6529    1.4644 H   0  0  0  0  0  0  0  0  0  0  0  0
   -1.0808    3.6095   -0.3129 H   0  0  0  0  0  0  0  0  0  0  0  0
  5  6  2  0  0  0  0
  5  7  1  0  0  0  0
  2  3  1  0  0  0  0
  2  4  1  0  0  0  0
  2  5  1  0  0  0  0
  1  2  1  0  0  0  0
 29 30  2  0  0  0  0
 29 31  1  0  0  0  0
 26 27  1  0  0  0  0
 26 28  2  0  0  0  0
 24 25  1  0  0  0  0
 24 26  1  0  0  0  0
 22 23  1  0  0  0  0
 22 24  2  0  0  0  0
 20 21  1  0  0  0  0
 20 22  1  0  0  0  0
 19 20  2  0  0  0  0
 19 28  1  0  0  0  0
 17 18  1  0  0  0  0
 17 19  1  0  0  0  0
 15 16  1  0  0  0  0
 15 17  1  0  0  0  0
 14 15  2  0  0  0  0
 14 28  1  0  0  0  0
 11 12  1  0  0  0  0
 11 13  1  0  0  0  0
 11 14  1  0  0  0  0
  9 10  1  0  0  0  0
  9 11  1  0  0  0  0
  9 29  1  0  0  0  0
  7  8  1  0  0  0  0
  7  9  1  0  0  0  0
 33 34  1  0  0  0  0
 33 35  1  0  0  0  0
 33 36  1  0  0  0  0
 31 32  1  0  0  0  0
 31 33  1  0  0  0  0
M  END
$$$$
default_name
  -OEChem-02102213163D

 36 37  0     1  0  0  0  0  0999 V2000
   -4.0843   -4.0736    1.2944 H   0  0  0  0  0  0  0  0  0  0  0  0
   -4.0342   -3.2816    0.5484 C   0  0  0  0  0  0  0  0  0  0  0  0
   -4.8842   -2.6126    0.6694 H   0  0  0  0  0  0  0  0  0  0  0  0
   -4.0433   -3.7186   -0.4486 H   0  0  0  0  0  0  0  0  0  0  0  0
   -2.7532   -2.5046    0.7444 C   0  0  0  0  0  0  0  0  0  0  0  0
   -1.9803   -2.8096    1.6434 O   0  0  0  0  0  0  0  0  0  0  0  0
   -2.5332   -1.4966   -0.0966 N   0  0  0  0  0  0  0  0  0  0  0  0
   -3.2312   -1.2816   -0.7936 H   0  0  0  0  0  0  0  0  0  0  0  0
   -1.3593   -0.6196   -0.0536 C   0  0  1  0  0  0  0  0  0  0  0  0
   -0.8788   -0.7266    0.9196 H   0  0  0  0  0  0  0  0  0  0  0  0
   -0.3559   -1.0533   -1.1339 C   0  0  0  0  0  0  0  0  0  0  0  0
   -0.8943   -1.2143   -2.0696 H   0  0  0  0  0  0  0  0  0  0  0  0
    0.3527   -0.2394   -1.2965 H   0  0  0  0  0  0  0  0  0  0  0  0
    0.4157   -2.2999   -0.8228 C   0  0  0  0  0  0  0  0  0  0  0  0
    1.2337   -2.4742    0.2393 C   0  0  0  0  0  0  0  0  0  0  0  0
    1.4434   -1.7176    0.9875 H   0  0  0  0  0  0  0  0  0  0  0  0
    1.7374   -3.7601    0.2313 N   0  0  0  0  0  0  0  0  0  0  0  0
    2.3752   -4.1129    0.9298 H   0  0  0  0  0  0  0  0  0  0  0  0
    1.2527   -4.4884   -0.8343 C   0  0  0  0  0  0  0  0  0  0  0  0
    1.4388   -5.8138   -1.2527 C   0  0  0  0  0  0  0  0  0  0  0  0
    2.0801   -6.4794   -0.6939 H   0  0  0  0  0  0  0  0  0  0  0  0
    0.7806   -6.2631   -2.4103 C   0  0  0  0  0  0  0  0  0  0  0  0
    0.9130   -7.2819   -2.7488 H   0  0  0  0  0  0  0  0  0  0  0  0
   -0.0462   -5.3834   -3.1327 C   0  0  0  0  0  0  0  0  0  0  0  0
   -0.5441   -5.7309   -4.0273 H   0  0  0  0  0  0  0  0  0  0  0  0
   -0.2243   -4.0527   -2.7039 C   0  0  0  0  0  0  0  0  0  0  0  0
   -0.8517   -3.3836   -3.2755 H   0  0  0  0  0  0  0  0  0  0  0  0
    0.4178   -3.5726   -1.5420 C   0  0  0  0  0  0  0  0  0  0  0  0
   -1.7617    0.8549   -0.2106 C   0  0  0  0  0  0  0  0  0  0  0  0
   -2.5726    1.1871   -1.0741 O   0  0  0  0  0  0  0  0  0  0  0  0
   -1.1941    1.7377    0.6223 N   0  0  0  0  0  0  0  0  0  0  0  0
   -0.4976    1.3916    1.2669 H   0  0  0  0  0  0  0  0  0  0  0  0
   -1.4666    3.1722    0.6095 C   0  0  0  0  0  0  0  0  0  0  0  0
   -2.5439    3.3427    0.6539 H   0  0  0  0  0  0  0  0  0  0  0  0
   -0.9893    3.6529    1.4644 H   0  0  0  0  0  0  0  0  0  0  0  0
   -1.0808    3.6095   -0.3129 H   0  0  0  0  0  0  0  0  0  0  0  0
  5  6  2  0  0  0  0
  5  7  1  0  0  0  0
  2  3  1  0  0  0  0
  2  4  1  0  0  0  0
  2  5  1  0  0  0  0
  1  2  1  0  0  0  0
 29 30  2  0  0  0  0
 29 31  1  0  0  0  0
 26 27  1  0  0  0  0
 26 28  2  0  0  0  0
 24 25  1  0  0  0  0
 24 26  1  0  0  0  0
 22 23  1  0  0  0  0
 22 24  2  0  0  0  0
 20 21  1  0  0  0  0
 20 22  1  0  0  0  0
 19 20  2  0  0  0  0
 19 28  1  0  0  0  0
 17 18  1  0  0  0  0
 17 19  1  0  0  0  0
 15 16  1  0  0  0  0
 15 17  1  0  0  0  0
 14 15  2  0  0  0  0
 14 28  1  0  0  0  0
 11 12  1  0  0  0  0
 11 13  1  0  0  0  0
 11 14  1  0  0  0  0
  9 10  1  0  0  0  0
  9 11  1  0  0  0  0
  9 29  1  0  0  0  0
  7  8  1  0  0  0  0
  7  9  1  0  0  0  0
 33 34  1  0  0  0  0
 33 35  1  0  0  0  0
 33 36  1  0  0  0  0
 31 32  1  0  0  0  0
 31 33  1  0  0  0  0
M  END
$$$$
default_name
  -OEChem-02102213163D

 36 37  0     1  0  0  0  0  0999 V2000
   -4.0843   -4.0736    1.2944 H   0  0  0  0  0  0  0  0  0  0  0  0
   -4.0342   -3.2816    0.5484 C   0  0  0  0  0  0  0  0  0  0  0  0
   -4.8842   -2.6126    0.6694 H   0  0  0  0  0  0  0  0  0  0  0  0
   -4.0433   -3.7186   -0.4486 H   0  0  0  0  0  0  0  0  0  0  0  0
   -2.7532   -2.5046    0.7444 C   0  0  0  0  0  0  0  0  0  0  0  0
   -1.9803   -2.8096    1.6434 O   0  0  0  0  0  0  0  0  0  0  0  0
   -2.5332   -1.4966   -0.0966 N   0  0  0  0  0  0  0  0  0  0  0  0
   -3.2312   -1.2816   -0.7936 H   0  0  0  0  0  0  0  0  0  0  0  0
   -1.3593   -0.6196   -0.0536 C   0  0  1  0  0  0  0  0  0  0  0  0
   -0.8788   -0.7266    0.9196 H   0  0  0  0  0  0  0  0  0  0  0  0
   -0.3559   -1.0533   -1.1339 C   0  0  0  0  0  0  0  0  0  0  0  0
   -0.8943   -1.2143   -2.0696 H   0  0  0  0  0  0  0  0  0  0  0  0
    0.3527   -0.2394   -1.2965 H   0  0  0  0  0  0  0  0  0  0  0  0
    0.4157   -2.2999   -0.8228 C   0  0  0  0  0  0  0  0  0  0  0  0
    1.0003   -2.5881    0.3616 C   0  0  0  0  0  0  0  0  0  0  0  0
    0.9948   -1.9354    1.2276 H   0  0  0  0  0  0  0  0  0  0  0  0
    1.5810   -3.8397    0.3002 N   0  0  0  0  0  0  0  0  0  0  0  0
    2.0791   -4.2611    1.0707 H   0  0  0  0  0  0  0  0  0  0  0  0
    1.3837   -4.4311   -0.9295 C   0  0  0  0  0  0  0  0  0  0  0  0
    1.7442   -5.6770   -1.4623 C   0  0  0  0  0  0  0  0  0  0  0  0
    2.2966   -6.3883   -0.8661 H   0  0  0  0  0  0  0  0  0  0  0  0
    1.3782   -5.9864   -2.7835 C   0  0  0  0  0  0  0  0  0  0  0  0
    1.6484   -6.9422   -3.2117 H   0  0  0  0  0  0  0  0  0  0  0  0
    0.6648   -5.0477   -3.5512 C   0  0  0  0  0  0  0  0  0  0  0  0
    0.3925   -5.2866   -4.5700 H   0  0  0  0  0  0  0  0  0  0  0  0
    0.3096   -3.7976   -3.0060 C   0  0  0  0  0  0  0  0  0  0  0  0
   -0.2268   -3.0805   -3.6111 H   0  0  0  0  0  0  0  0  0  0  0  0
    0.6569   -3.4591   -1.6802 C   0  0  0  0  0  0  0  0  0  0  0  0
   -1.7617    0.8549   -0.2106 C   0  0  0  0  0  0  0  0  0  0  0  0
   -2.5726    1.1871   -1.0741 O   0  0  0  0  0  0  0  0  0  0  0  0
   -1.1941    1.7377    0.6223 N   0  0  0  0  0  0  0  0  0  0  0  0
   -0.4976    1.3916    1.2669 H   0  0  0  0  0  0  0  0  0  0  0  0
   -1.4666    3.1722    0.6095 C   0  0  0  0  0  0  0  0  0  0  0  0
   -2.5439    3.3427    0.6539 H   0  0  0  0  0  0  0  0  0  0  0  0
   -0.9893    3.6529    1.4644 H   0  0  0  0  0  0  0  0  0  0  0  0
   -1.0808    3.6095   -0.3129 H   0  0  0  0  0  0  0  0  0  0  0  0
  5  6  2  0  0  0  0
  5  7  1  0  0  0  0
  2  3  1  0  0  0  0
  2  4  1  0  0  0  0
  2  5  1  0  0  0  0
  1  2  1  0  0  0  0
 29 30  2  0  0  0  0
 29 31  1  0  0  0  0
 26 27  1  0  0  0  0
 26 28  2  0  0  0  0
 24 25  1  0  0  0  0
 24 26  1  0  0  0  0
 22 23  1  0  0  0  0
 22 24  2  0  0  0  0
 20 21  1  0  0  0  0
 20 22  1  0  0  0  0
 19 20  2  0  0  0  0
 19 28  1  0  0  0  0
 17 18  1  0  0  0  0
 17 19  1  0  0  0  0
 15 16  1  0  0  0  0
 15 17  1  0  0  0  0
 14 15  2  0  0  0  0
 14 28  1  0  0  0  0
 11 12  1  0  0  0  0
 11 13  1  0  0  0  0
 11 14  1  0  0  0  0
  9 10  1  0  0  0  0
  9 11  1  0  0  0  0
  9 29  1  0  0  0  0
  7  8  1  0  0  0  0
  7  9  1  0  0  0  0
 33 34  1  0  0  0  0
 33 35  1  0  0  0  0
 33 36  1  0  0  0  0
 31 32  1  0  0  0  0
 31 33  1  0  0  0  0
M  END
$$$$
default_name
  -OEChem-02102213163D

 36 37  0     1  0  0  0  0  0999 V2000
   -4.0843   -4.0736    1.2944 H   0  0  0  0  0  0  0  0  0  0  0  0
   -4.0342   -3.2816    0.5484 C   0  0  0  0  0  0  0  0  0  0  0  0
   -4.8842   -2.6126    0.6694 H   0  0  0  0  0  0  0  0  0  0  0  0
   -4.0433   -3.7186   -0.4486 H   0  0  0  0  0  0  0  0  0  0  0  0
   -2.7532   -2.5046    0.7444 C   0  0  0  0  0  0  0  0  0  0  0  0
   -1.9803   -2.8096    1.6434 O   0  0  0  0  0  0  0  0  0  0  0  0
   -2.5332   -1.4966   -0.0966 N   0  0  0  0  0  0  0  0  0  0  0  0
   -3.2312   -1.2816   -0.7936 H   0  0  0  0  0  0  0  0  0  0  0  0
   -1.3593   -0.6196   -0.0536 C   0  0  1  0  0  0  0  0  0  0  0  0
   -0.8788   -0.7266    0.9196 H   0  0  0  0  0  0  0  0  0  0  0  0
   -0.3559   -1.0533   -1.1339 C   0  0  0  0  0  0  0  0  0  0  0  0
   -0.8943   -1.2143   -2.0696 H   0  0  0  0  0  0  0  0  0  0  0  0
    0.3527   -0.2394   -1.2965 H   0  0  0  0  0  0  0  0  0  0  0  0
    0.4157   -2.2999   -0.8228 C   0  0  0  0  0  0  0  0  0  0  0  0
    0.7547   -2.7270    0.4142 C   0  0  0  0  0  0  0  0  0  0  0  0
    0.5214   -2.2018    1.3340 H   0  0  0  0  0  0  0  0  0  0  0  0
    1.4193   -3.9342    0.3226 N   0  0  0  0  0  0  0  0  0  0  0  0
    1.7706   -4.4388    1.1233 H   0  0  0  0  0  0  0  0  0  0  0  0
    1.5276   -4.3560   -0.9855 C   0  0  0  0  0  0  0  0  0  0  0  0
    2.0770   -5.5006   -1.5808 C   0  0  0  0  0  0  0  0  0  0  0  0
    2.5379   -6.2658   -0.9736 H   0  0  0  0  0  0  0  0  0  0  0  0
    2.0208   -5.6372   -2.9784 C   0  0  0  0  0  0  0  0  0  0  0  0
    2.4403   -6.5128   -3.4552 H   0  0  0  0  0  0  0  0  0  0  0  0
    1.4237   -4.6295   -3.7577 C   0  0  0  0  0  0  0  0  0  0  0  0
    1.3902   -4.7348   -4.8333 H   0  0  0  0  0  0  0  0  0  0  0  0
    0.8766   -3.4823   -3.1488 C   0  0  0  0  0  0  0  0  0  0  0  0
    0.4327   -2.7095   -3.7602 H   0  0  0  0  0  0  0  0  0  0  0  0
    0.9115   -3.3182   -1.7471 C   0  0  0  0  0  0  0  0  0  0  0  0
   -1.7617    0.8549   -0.2106 C   0  0  0  0  0  0  0  0  0  0  0  0
   -2.5726    1.1871   -1.0741 O   0  0  0  0  0  0  0  0  0  0  0  0
   -1.1941    1.7377    0.6223 N   0  0  0  0  0  0  0  0  0  0  0  0
   -0.4976    1.3916    1.2669 H   0  0  0  0  0  0  0  0  0  0  0  0
   -1.4666    3.1722    0.6095 C   0  0  0  0  0  0  0  0  0  0  0  0
   -2.5439    3.3427    0.6539 H   0  0  0  0  0  0  0  0  0  0  0  0
   -0.9893    3.6529    1.4644 H   0  0  0  0  0  0  0  0  0  0  0  0
   -1.0808    3.6095   -0.3129 H   0  0  0  0  0  0  0  0  0  0  0  0
  5  6  2  0  0  0  0
  5  7  1  0  0  0  0
  2  3  1  0  0  0  0
  2  4  1  0  0  0  0
  2  5  1  0  0  0  0
  1  2  1  0  0  0  0
 29 30  2  0  0  0  0
 29 31  1  0  0  0  0
 26 27  1  0  0  0  0
 26 28  2  0  0  0  0
 24 25  1  0  0  0  0
 24 26  1  0  0  0  0
 22 23  1  0  0  0  0
 22 24  2  0  0  0  0
 20 21  1  0  0  0  0
 20 22  1  0  0  0  0
 19 20  2  0  0  0  0
 19 28  1  0  0  0  0
 17 18  1  0  0  0  0
 17 19  1  0  0  0  0
 15 16  1  0  0  0  0
 15 17  1  0  0  0  0
 14 15  2  0  0  0  0
 14 28  1  0  0  0  0
 11 12  1  0  0  0  0
 11 13  1  0  0  0  0
 11 14  1  0  0  0  0
  9 10  1  0  0  0  0
  9 11  1  0  0  0  0
  9 29  1  0  0  0  0
  7  8  1  0  0  0  0
  7  9  1  0  0  0  0
 33 34  1  0  0  0  0
 33 35  1  0  0  0  0
 33 36  1  0  0  0  0
 31 32  1  0  0  0  0
 31 33  1  0  0  0  0
M  END
$$$$
default_name
  -OEChem-02102213163D

 36 37  0     1  0  0  0  0  0999 V2000
   -4.0843   -4.0736    1.2944 H   0  0  0  0  0  0  0  0  0  0  0  0
   -4.0342   -3.2816    0.5484 C   0  0  0  0  0  0  0  0  0  0  0  0
   -4.8842   -2.6126    0.6694 H   0  0  0  0  0  0  0  0  0  0  0  0
   -4.0433   -3.7186   -0.4486 H   0  0  0  0  0  0  0  0  0  0  0  0
   -2.7532   -2.5046    0.7444 C   0  0  0  0  0  0  0  0  0  0  0  0
   -1.9803   -2.8096    1.6434 O   0  0  0  0  0  0  0  0  0  0  0  0
   -2.5332   -1.4966   -0.0966 N   0  0  0  0  0  0  0  0  0  0  0  0
   -3.2312   -1.2816   -0.7936 H   0  0  0  0  0  0  0  0  0  0  0  0
   -1.3593   -0.6196   -0.0536 C   0  0  1  0  0  0  0  0  0  0  0  0
   -0.8788   -0.7266    0.9196 H   0  0  0  0  0  0  0  0  0  0  0  0
   -0.3559   -1.0533   -1.1339 C   0  0  0  0  0  0  0  0  0  0  0  0
   -0.8943   -1.2143   -2.0696 H   0  0  0  0  0  0  0  0  0  0  0  0
    0.3527   -0.2394   -1.2965 H   0  0  0  0  0  0  0  0  0  0  0  0
    0.4157   -2.2999   -0.8228 C   0  0  0  0  0  0  0  0  0  0  0  0
    0.5136   -2.8814    0.3937 C   0  0  0  0  0  0  0  0  0  0  0  0
    0.0556   -2.4988    1.2993 H   0  0  0  0  0  0  0  0  0  0  0  0
    1.2634   -4.0372    0.2968 N   0  0  0  0  0  0  0  0  0  0  0  0
    1.4710   -4.6341    1.0840 H   0  0  0  0  0  0  0  0  0  0  0  0
    1.6747   -4.2682   -0.9987 C   0  0  0  0  0  0  0  0  0  0  0  0
    2.4144   -5.2966   -1.6001 C   0  0  0  0  0  0  0  0  0  0  0  0
    2.7876   -6.1201   -1.0093 H   0  0  0  0  0  0  0  0  0  0  0  0
    2.6648   -5.2395   -2.9818 C   0  0  0  0  0  0  0  0  0  0  0  0
    3.2345   -6.0231   -3.4628 H   0  0  0  0  0  0  0  0  0  0  0  0
    2.1788   -4.1573   -3.7381 C   0  0  0  0  0  0  0  0  0  0  0  0
    2.3809   -4.1131   -4.7993 H   0  0  0  0  0  0  0  0  0  0  0  0
    1.4381   -3.1282   -3.1227 C   0  0  0  0  0  0  0  0  0  0  0  0
    1.0819   -2.2959   -3.7129 H   0  0  0  0  0  0  0  0  0  0  0  0
    1.1643   -3.1595   -1.7381 C   0  0  0  0  0  0  0  0  0  0  0  0
   -1.7617    0.8549   -0.2106 C   0  0  0  0  0  0  0  0  0  0  0  0
   -2.5726    1.1871   -1.0741 O   0  0  0  0  0  0  0  0  0  0  0  0
   -1.1941    1.7377    0.6223 N   0  0  0  0  0  0  0  0  0  0  0  0
   -0.4976    1.3916    1.2669 H   0  0  0  0  0  0  0  0  0  0  0  0
   -1.4666    3.1722    0.6095 C   0  0  0  0  0  0  0  0  0  0  0  0
   -2.5439    3.3427    0.6539 H   0  0  0  0  0  0  0  0  0  0  0  0
   -0.9893    3.6529    1.4644 H   0  0  0  0  0  0  0  0  0  0  0  0
   -1.0808    3.6095   -0.3129 H   0  0  0  0  0  0  0  0  0  0  0  0
  5  6  2  0  0  0  0
  5  7  1  0  0  0  0
  2  3  1  0  0  0  0
  2  4  1  0  0  0  0
  2  5  1  0  0  0  0
  1  2  1  0  0  0  0
 29 30  2  0  0  0  0
 29 31  1  0  0  0  0
 26 27  1  0  0  0  0
 26 28  2  0  0  0  0
 24 25  1  0  0  0  0
 24 26  1  0  0  0  0
 22 23  1  0  0  0  0
 22 24  2  0  0  0  0
 20 21  1  0  0  0  0
 20 22  1  0  0  0  0
 19 20  2  0  0  0  0
 19 28  1  0  0  0  0
 17 18  1  0  0  0  0
 17 19  1  0  0  0  0
 15 16  1  0  0  0  0
 15 17  1  0  0  0  0
 14 15  2  0  0  0  0
 14 28  1  0  0  0  0
 11 12  1  0  0  0  0
 11 13  1  0  0  0  0
 11 14  1  0  0  0  0
  9 10  1  0  0  0  0
  9 11  1  0  0  0  0
  9 29  1  0  0  0  0
  7  8  1  0  0  0  0
  7  9  1  0  0  0  0
 33 34  1  0  0  0  0
 33 35  1  0  0  0  0
 33 36  1  0  0  0  0
 31 32  1  0  0  0  0
 31 33  1  0  0  0  0
M  END
$$$$
default_name
  -OEChem-02102213163D

 36 37  0     1  0  0  0  0  0999 V2000
   -4.0843   -4.0736    1.2944 H   0  0  0  0  0  0  0  0  0  0  0  0
   -4.0342   -3.2816    0.5484 C   0  0  0  0  0  0  0  0  0  0  0  0
   -4.8842   -2.6126    0.6694 H   0  0  0  0  0  0  0  0  0  0  0  0
   -4.0433   -3.7186   -0.4486 H   0  0  0  0  0  0  0  0  0  0  0  0
   -2.7532   -2.5046    0.7444 C   0  0  0  0  0  0  0  0  0  0  0  0
   -1.9803   -2.8096    1.6434 O   0  0  0  0  0  0  0  0  0  0  0  0
   -2.5332   -1.4966   -0.0966 N   0  0  0  0  0  0  0  0  0  0  0  0
   -3.2312   -1.2816   -0.7936 H   0  0  0  0  0  0  0  0  0  0  0  0
   -1.3593   -0.6196   -0.0536 C   0  0  1  0  0  0  0  0  0  0  0  0
   -0.8788   -0.7266    0.9196 H   0  0  0  0  0  0  0  0  0  0  0  0
   -0.3559   -1.0533   -1.1339 C   0  0  0  0  0  0  0  0  0  0  0  0
   -0.8943   -1.2143   -2.0696 H   0  0  0  0  0  0  0  0  0  0  0  0
    0.3527   -0.2394   -1.2965 H   0  0  0  0  0  0  0  0  0  0  0  0
    0.4157   -2.2999   -0.8228 C   0  0  0  0  0  0  0  0  0  0  0  0
    0.2934   -3.0407    0.3014 C   0  0  0  0  0  0  0  0  0  0  0  0
   -0.3709   -2.8061    1.1259 H   0  0  0  0  0  0  0  0  0  0  0  0
    1.1239   -4.1415    0.2246 N   0  0  0  0  0  0  0  0  0  0  0  0
    1.2004   -4.8336    0.9555 H   0  0  0  0  0  0  0  0  0  0  0  0
    1.8148   -4.1738   -0.9681 C   0  0  0  0  0  0  0  0  0  0  0  0
    2.7336   -5.0787   -1.5189 C   0  0  0  0  0  0  0  0  0  0  0  0
    3.0287   -5.9613   -0.9705 H   0  0  0  0  0  0  0  0  0  0  0  0
    3.2662   -4.8202   -2.7934 C   0  0  0  0  0  0  0  0  0  0  0  0
    3.9769   -5.5064   -3.2338 H   0  0  0  0  0  0  0  0  0  0  0  0
    2.8785   -3.6632   -3.4936 C   0  0  0  0  0  0  0  0  0  0  0  0
    3.2971   -3.4639   -4.4704 H   0  0  0  0  0  0  0  0  0  0  0  0
    1.9558   -2.7596   -2.9294 C   0  0  0  0  0  0  0  0  0  0  0  0
    1.6766   -1.8677   -3.4723 H   0  0  0  0  0  0  0  0  0  0  0  0
    1.3980   -2.9939   -1.6539 C   0  0  0  0  0  0  0  0  0  0  0  0
   -1.7617    0.8549   -0.2106 C   0  0  0  0  0  0  0  0  0  0  0  0
   -2.5726    1.1871   -1.0741 O   0  0  0  0  0  0  0  0  0  0  0  0
   -1.1941    1.7377    0.6223 N   0  0  0  0  0  0  0  0  0  0  0  0
   -0.4976    1.3916    1.2669 H   0  0  0  0  0  0  0  0  0  0  0  0
   -1.4666    3.1722    0.6095 C   0  0  0  0  0  0  0  0  0  0  0  0
   -2.5439    3.3427    0.6539 H   0  0  0  0  0  0  0  0  0  0  0  0
   -0.9893    3.6529    1.4644 H   0  0  0  0  0  0  0  0  0  0  0  0
   -1.0808    3.6095   -0.3129 H   0  0  0  0  0  0  0  0  0  0  0  0
  5  6  2  0  0  0  0
  5  7  1  0  0  0  0
  2  3  1  0  0  0  0
  2  4  1  0  0  0  0
  2  5  1  0  0  0  0
  1  2  1  0  0  0  0
 29 30  2  0  0  0  0
 29 31  1  0  0  0  0
 26 27  1  0  0  0  0
 26 28  2  0  0  0  0
 24 25  1  0  0  0  0
 24 26  1  0  0  0  0
 22 23  1  0  0  0  0
 22 24  2  0  0  0  0
 20 21  1  0  0  0  0
 20 22  1  0  0  0  0
 19 20  2  0  0  0  0
 19 28  1  0  0  0  0
 17 18  1  0  0  0  0
 17 19  1  0  0  0  0
 15 16  1  0  0  0  0
 15 17  1  0  0  0  0
 14 15  2  0  0  0  0
 14 28  1  0  0  0  0
 11 12  1  0  0  0  0
 11 13  1  0  0  0  0
 11 14  1  0  0  0  0
  9 10  1  0  0  0  0
  9 11  1  0  0  0  0
  9 29  1  0  0  0  0
  7  8  1  0  0  0  0
  7  9  1  0  0  0  0
 33 34  1  0  0  0  0
 33 35  1  0  0  0  0
 33 36  1  0  0  0  0
 31 32  1  0  0  0  0
 31 33  1  0  0  0  0
M  END
$$$$
default_name
  -OEChem-02102213163D

 36 37  0     1  0  0  0  0  0999 V2000
   -4.0843   -4.0736    1.2944 H   0  0  0  0  0  0  0  0  0  0  0  0
   -4.0342   -3.2816    0.5484 C   0  0  0  0  0  0  0  0  0  0  0  0
   -4.8842   -2.6126    0.6694 H   0  0  0  0  0  0  0  0  0  0  0  0
   -4.0433   -3.7186   -0.4486 H   0  0  0  0  0  0  0  0  0  0  0  0
   -2.7532   -2.5046    0.7444 C   0  0  0  0  0  0  0  0  0  0  0  0
   -1.9803   -2.8096    1.6434 O   0  0  0  0  0  0  0  0  0  0  0  0
   -2.5332   -1.4966   -0.0966 N   0  0  0  0  0  0  0  0  0  0  0  0
   -3.2312   -1.2816   -0.7936 H   0  0  0  0  0  0  0  0  0  0  0  0
   -1.3593   -0.6196   -0.0536 C   0  0  1  0  0  0  0  0  0  0  0  0
   -0.8788   -0.7266    0.9196 H   0  0  0  0  0  0  0  0  0  0  0  0
   -0.3559   -1.0533   -1.1339 C   0  0  0  0  0  0  0  0  0  0  0  0
   -0.8943   -1.2143   -2.0696 H   0  0  0  0  0  0  0  0  0  0  0  0
    0.3527   -0.2394   -1.2965 H   0  0  0  0  0  0  0  0  0  0  0  0
    0.4157   -2.2999   -0.8228 C   0  0  0  0  0  0  0  0  0  0  0  0
    0.1091   -3.1941    0.1436 C   0  0  0  0  0  0  0  0  0  0  0  0
   -0.7290   -3.1027    0.8257 H   0  0  0  0  0  0  0  0  0  0  0  0
    1.0103   -4.2402    0.1109 N   0  0  0  0  0  0  0  0  0  0  0  0
    0.9775   -5.0238    0.7466 H   0  0  0  0  0  0  0  0  0  0  0  0
    1.9385   -4.0792   -0.8957 C   0  0  0  0  0  0  0  0  0  0  0  0
    3.0127   -4.8620   -1.3427 C   0  0  0  0  0  0  0  0  0  0  0  0
    3.2446   -5.8000   -0.8600 H   0  0  0  0  0  0  0  0  0  0  0  0
    3.7841   -4.4080   -2.4262 C   0  0  0  0  0  0  0  0  0  0  0  0
    4.6171   -4.9979   -2.7840 H   0  0  0  0  0  0  0  0  0  0  0  0
    3.4752   -3.1809   -3.0410 C   0  0  0  0  0  0  0  0  0  0  0  0
    4.0764   -2.8314   -3.8690 H   0  0  0  0  0  0  0  0  0  0  0  0
    2.3944   -2.4014   -2.5821 C   0  0  0  0  0  0  0  0  0  0  0  0
    2.1763   -1.4543   -3.0549 H   0  0  0  0  0  0  0  0  0  0  0  0
    1.5967   -2.8325   -1.5001 C   0  0  0  0  0  0  0  0  0  0  0  0
   -1.7617    0.8549   -0.2106 C   0  0  0  0  0  0  0  0  0  0  0  0
   -2.5726    1.1871   -1.0741 O   0  0  0  0  0  0  0  0  0  0  0  0
   -1.1941    1.7377    0.6223 N   0  0  0  0  0  0  0  0  0  0  0  0
   -0.4976    1.3916    1.2669 H   0  0  0  0  0  0  0  0  0  0  0  0
   -1.4666    3.1722    0.6095 C   0  0  0  0  0  0  0  0  0  0  0  0
   -2.5439    3.3427    0.6539 H   0  0  0  0  0  0  0  0  0  0  0  0
   -0.9893    3.6529    1.4644 H   0  0  0  0  0  0  0  0  0  0  0  0
   -1.0808    3.6095   -0.3129 H   0  0  0  0  0  0  0  0  0  0  0  0
  5  6  2  0  0  0  0
  5  7  1  0  0  0  0
  2  3  1  0  0  0  0
  2  4  1  0  0  0  0
  2  5  1  0  0  0  0
  1  2  1  0  0  0  0
 29 30  2  0  0  0  0
 29 31  1  0  0  0  0
 26 27  1  0  0  0  0
 26 28  2  0  0  0  0
 24 25  1  0  0  0  0
 24 26  1  0  0  0  0
 22 23  1  0  0  0  0
 22 24  2  0  0  0  0
 20 21  1  0  0  0  0
 20 22  1  0  0  0  0
 19 20  2  0  0  0  0
 19 28  1  0  0  0  0
 17 18  1  0  0  0  0
 17 19  1  0  0  0  0
 15 16  1  0  0  0  0
 15 17  1  0  0  0  0
 14 15  2  0  0  0  0
 14 28  1  0  0  0  0
 11 12  1  0  0  0  0
 11 13  1  0  0  0  0
 11 14  1  0  0  0  0
  9 10  1  0  0  0  0
  9 11  1  0  0  0  0
  9 29  1  0  0  0  0
  7  8  1  0  0  0  0
  7  9  1  0  0  0  0
 33 34  1  0  0  0  0
 33 35  1  0  0  0  0
 33 36  1  0  0  0  0
 31 32  1  0  0  0  0
 31 33  1  0  0  0  0
M  END
$$$$
default_name
  -OEChem-02102213163D

 36 37  0     1  0  0  0  0  0999 V2000
   -4.0843   -4.0736    1.2944 H   0  0  0  0  0  0  0  0  0  0  0  0
   -4.0342   -3.2816    0.5484 C   0  0  0  0  0  0  0  0  0  0  0  0
   -4.8842   -2.6126    0.6694 H   0  0  0  0  0  0  0  0  0  0  0  0
   -4.0433   -3.7186   -0.4486 H   0  0  0  0  0  0  0  0  0  0  0  0
   -2.7532   -2.5046    0.7444 C   0  0  0  0  0  0  0  0  0  0  0  0
   -1.9803   -2.8096    1.6434 O   0  0  0  0  0  0  0  0  0  0  0  0
   -2.5332   -1.4966   -0.0966 N   0  0  0  0  0  0  0  0  0  0  0  0
   -3.2312   -1.2816   -0.7936 H   0  0  0  0  0  0  0  0  0  0  0  0
   -1.3593   -0.6196   -0.0536 C   0  0  1  0  0  0  0  0  0  0  0  0
   -0.8788   -0.7266    0.9196 H   0  0  0  0  0  0  0  0  0  0  0  0
   -0.3559   -1.0533   -1.1339 C   0  0  0  0  0  0  0  0  0  0  0  0
   -0.8943   -1.2143   -2.0696 H   0  0  0  0  0  0  0  0  0  0  0  0
    0.3527   -0.2394   -1.2965 H   0  0  0  0  0  0  0  0  0  0  0  0
    0.4157   -2.2999   -0.8228 C   0  0  0  0  0  0  0  0  0  0  0  0
   -0.0266   -3.3312   -0.0689 C   0  0  0  0  0  0  0  0  0  0  0  0
   -0.9944   -3.3684    0.4191 H   0  0  0  0  0  0  0  0  0  0  0  0
    0.9304   -4.3265   -0.0366 N   0  0  0  0  0  0  0  0  0  0  0  0
    0.8174   -5.1915    0.4715 H   0  0  0  0  0  0  0  0  0  0  0  0
    2.0374   -3.9908   -0.7866 C   0  0  0  0  0  0  0  0  0  0  0  0
    3.2327   -4.6612   -1.0836 C   0  0  0  0  0  0  0  0  0  0  0  0
    3.4207   -5.6474   -0.6853 H   0  0  0  0  0  0  0  0  0  0  0  0
    4.1831   -4.0310   -1.9050 C   0  0  0  0  0  0  0  0  0  0  0  0
    5.1112   -4.5323   -2.1440 H   0  0  0  0  0  0  0  0  0  0  0  0
    3.9282   -2.7433   -2.4112 C   0  0  0  0  0  0  0  0  0  0  0  0
    4.6657   -2.2587   -3.0359 H   0  0  0  0  0  0  0  0  0  0  0  0
    2.7242   -2.0781   -2.1045 C   0  0  0  0  0  0  0  0  0  0  0  0
    2.5468   -1.0837   -2.4890 H   0  0  0  0  0  0  0  0  0  0  0  0
    1.7468   -2.6865   -1.2874 C   0  0  0  0  0  0  0  0  0  0  0  0
   -1.7617    0.8549   -0.2106 C   0  0  0  0  0  0  0  0  0  0  0  0
   -2.5726    1.1871   -1.0741 O   0  0  0  0  0  0  0  0  0  0  0  0
   -1.1941    1.7377    0.6223 N   0  0  0  0  0  0  0  0  0  0  0  0
   -0.4976    1.3916    1.2669 H   0  0  0  0  0  0  0  0  0  0  0  0
   -1.4666    3.1722    0.6095 C   0  0  0  0  0  0  0  0  0  0  0  0
   -2.5439    3.3427    0.6539 H   0  0  0  0  0  0  0  0  0  0  0  0
   -0.9893    3.6529    1.4644 H   0  0  0  0  0  0  0  0  0  0  0  0
   -1.0808    3.6095   -0.3129 H   0  0  0  0  0  0  0  0  0  0  0  0
  5  6  2  0  0  0  0
  5  7  1  0  0  0  0
  2  3  1  0  0  0  0
  2  4  1  0  0  0  0
  2  5  1  0  0  0  0
  1  2  1  0  0  0  0
 29 30  2  0  0  0  0
 29 31  1  0  0  0  0
 26 27  1  0  0  0  0
 26 28  2  0  0  0  0
 24 25  1  0  0  0  0
 24 26  1  0  0  0  0
 22 23  1  0  0  0  0
 22 24  2  0  0  0  0
 20 21  1  0  0  0  0
 20 22  1  0  0  0  0
 19 20  2  0  0  0  0
 19 28  1  0  0  0  0
 17 18  1  0  0  0  0
 17 19  1  0  0  0  0
 15 16  1  0  0  0  0
 15 17  1  0  0  0  0
 14 15  2  0  0  0  0
 14 28  1  0  0  0  0
 11 12  1  0  0  0  0
 11 13  1  0  0  0  0
 11 14  1  0  0  0  0
  9 10  1  0  0  0  0
  9 11  1  0  0  0  0
  9 29  1  0  0  0  0
  7  8  1  0  0  0  0
  7  9  1  0  0  0  0
 33 34  1  0  0  0  0
 33 35  1  0  0  0  0
 33 36  1  0  0  0  0
 31 32  1  0  0  0  0
 31 33  1  0  0  0  0
M  END
$$$$
default_name
  -OEChem-02102213163D

 36 37  0     1  0  0  0  0  0999 V2000
   -4.0843   -4.0736    1.2944 H   0  0  0  0  0  0  0  0  0  0  0  0
   -4.0342   -3.2816    0.5484 C   0  0  0  0  0  0  0  0  0  0  0  0
   -4.8842   -2.6126    0.6694 H   0  0  0  0  0  0  0  0  0  0  0  0
   -4.0433   -3.7186   -0.4486 H   0  0  0  0  0  0  0  0  0  0  0  0
   -2.7532   -2.5046    0.7444 C   0  0  0  0  0  0  0  0  0  0  0  0
   -1.9803   -2.8096    1.6434 O   0  0  0  0  0  0  0  0  0  0  0  0
   -2.5332   -1.4966   -0.0966 N   0  0  0  0  0  0  0  0  0  0  0  0
   -3.2312   -1.2816   -0.7936 H   0  0  0  0  0  0  0  0  0  0  0  0
   -1.3593   -0.6196   -0.0536 C   0  0  1  0  0  0  0  0  0  0  0  0
   -0.8788   -0.7266    0.9196 H   0  0  0  0  0  0  0  0  0  0  0  0
   -0.3559   -1.0533   -1.1339 C   0  0  0  0  0  0  0  0  0  0  0  0
   -0.8943   -1.2143   -2.0696 H   0  0  0  0  0  0  0  0  0  0  0  0
    0.3527   -0.2394   -1.2965 H   0  0  0  0  0  0  0  0  0  0  0  0
    0.4157   -2.2999   -0.8228 C   0  0  0  0  0  0  0  0  0  0  0  0
   -0.1046   -3.4426   -0.3217 C   0  0  0  0  0  0  0  0  0  0  0  0
   -1.1489   -3.5852   -0.0662 H   0  0  0  0  0  0  0  0  0  0  0  0
    0.8895   -4.3945   -0.2077 N   0  0  0  0  0  0  0  0  0  0  0  0
    0.7309   -5.3256    0.1489 H   0  0  0  0  0  0  0  0  0  0  0  0
    2.1046   -3.9146   -0.6482 C   0  0  0  0  0  0  0  0  0  0  0  0
    3.3787   -4.4899   -0.7592 C   0  0  0  0  0  0  0  0  0  0  0  0
    3.5451   -5.5138   -0.4584 H   0  0  0  0  0  0  0  0  0  0  0  0
    4.4360   -3.7148   -1.2655 C   0  0  0  0  0  0  0  0  0  0  0  0
    5.4257   -4.1413   -1.3573 H   0  0  0  0  0  0  0  0  0  0  0  0
    4.2067   -2.3802   -1.6469 C   0  0  0  0  0  0  0  0  0  0  0  0
    5.0249   -1.7850   -2.0281 H   0  0  0  0  0  0  0  0  0  0  0  0
    2.9224   -1.8118   -1.5291 C   0  0  0  0  0  0  0  0  0  0  0  0
    2.7630   -0.7813   -1.8132 H   0  0  0  0  0  0  0  0  0  0  0  0
    1.8382   -2.5657   -1.0301 C   0  0  0  0  0  0  0  0  0  0  0  0
   -1.7617    0.8549   -0.2106 C   0  0  0  0  0  0  0  0  0  0  0  0
   -2.5726    1.1871   -1.0741 O   0  0  0  0  0  0  0  0  0  0  0  0
   -1.1941    1.7377    0.6223 N   0  0  0  0  0  0  0  0  0  0  0  0
   -0.4976    1.3916    1.2669 H   0  0  0  0  0  0  0  0  0  0  0  0
   -1.4666    3.1722    0.6095 C   0  0  0  0  0  0  0  0  0  0  0  0
   -2.5439    3.3427    0.6539 H   0  0  0  0  0  0  0  0  0  0  0  0
   -0.9893    3.6529    1.4644 H   0  0  0  0  0  0  0  0  0  0  0  0
   -1.0808    3.6095   -0.3129 H   0  0  0  0  0  0  0  0  0  0  0  0
  5  6  2  0  0  0  0
  5  7  1  0  0  0  0
  2  3  1  0  0  0  0
  2  4  1  0  0  0  0
  2  5  1  0  0  0  0
  1  2  1  0  0  0  0
 29 30  2  0  0  0  0
 29 31  1  0  0  0  0
 26 27  1  0  0  0  0
 26 28  2  0  0  0  0
 24 25  1  0  0  0  0
 24 26  1  0  0  0  0
 22 23  1  0  0  0  0
 22 24  2  0  0  0  0
 20 21  1  0  0  0  0
 20 22  1  0  0  0  0
 19 20  2  0  0  0  0
 19 28  1  0  0  0  0
 17 18  1  0  0  0  0
 17 19  1  0  0  0  0
 15 16  1  0  0  0  0
 15 17  1  0  0  0  0
 14 15  2  0  0  0  0
 14 28  1  0  0  0  0
 11 12  1  0  0  0  0
 11 13  1  0  0  0  0
 11 14  1  0  0  0  0
  9 10  1  0  0  0  0
  9 11  1  0  0  0  0
  9 29  1  0  0  0  0
  7  8  1  0  0  0  0
  7  9  1  0  0  0  0
 33 34  1  0  0  0  0
 33 35  1  0  0  0  0
 33 36  1  0  0  0  0
 31 32  1  0  0  0  0
 31 33  1  0  0  0  0
M  END
$$$$
default_name
  -OEChem-02102213163D

 36 37  0     1  0  0  0  0  0999 V2000
   -4.0843   -4.0736    1.2944 H   0  0  0  0  0  0  0  0  0  0  0  0
   -4.0342   -3.2816    0.5484 C   0  0  0  0  0  0  0  0  0  0  0  0
   -4.8842   -2.6126    0.6694 H   0  0  0  0  0  0  0  0  0  0  0  0
   -4.0433   -3.7186   -0.4486 H   0  0  0  0  0  0  0  0  0  0  0  0
   -2.7532   -2.5046    0.7444 C   0  0  0  0  0  0  0  0  0  0  0  0
   -1.9803   -2.8096    1.6434 O   0  0  0  0  0  0  0  0  0  0  0  0
   -2.5332   -1.4966   -0.0966 N   0  0  0  0  0  0  0  0  0  0  0  0
   -3.2312   -1.2816   -0.7936 H   0  0  0  0  0  0  0  0  0  0  0  0
   -1.3593   -0.6196   -0.0536 C   0  0  1  0  0  0  0  0  0  0  0  0
   -0.8788   -0.7266    0.9196 H   0  0  0  0  0  0  0  0  0  0  0  0
   -0.3559   -1.0533   -1.1339 C   0  0  0  0  0  0  0  0  0  0  0  0
   -0.8943   -1.2143   -2.0696 H   0  0  0  0  0  0  0  0  0  0  0  0
    0.3527   -0.2394   -1.2965 H   0  0  0  0  0  0  0  0  0  0  0  0
    0.4157   -2.2999   -0.8228 C   0  0  0  0  0  0  0  0  0  0  0  0
   -0.1196   -3.5207   -0.5975 C   0  0  0  0  0  0  0  0  0  0  0  0
   -1.1821   -3.7382   -0.5971 H   0  0  0  0  0  0  0  0  0  0  0  0
    0.8905   -4.4395   -0.3908 N   0  0  0  0  0  0  0  0  0  0  0  0
    0.7241   -5.4166   -0.1992 H   0  0  0  0  0  0  0  0  0  0  0  0
    2.1357   -3.8559   -0.4898 C   0  0  0  0  0  0  0  0  0  0  0  0
    3.4406   -4.3598   -0.3915 C   0  0  0  0  0  0  0  0  0  0  0  0
    3.6091   -5.4083   -0.1945 H   0  0  0  0  0  0  0  0  0  0  0  0
    4.5257   -3.4811   -0.5512 C   0  0  0  0  0  0  0  0  0  0  0  0
    5.5392   -3.8516   -0.4777 H   0  0  0  0  0  0  0  0  0  0  0  0
    4.2916   -2.1164   -0.8003 C   0  0  0  0  0  0  0  0  0  0  0  0
    5.1294   -1.4423   -0.9142 H   0  0  0  0  0  0  0  0  0  0  0  0
    2.9758   -1.6206   -0.8951 C   0  0  0  0  0  0  0  0  0  0  0  0
    2.8101   -0.5676   -1.0736 H   0  0  0  0  0  0  0  0  0  0  0  0
    1.8646   -2.4784   -0.7457 C   0  0  0  0  0  0  0  0  0  0  0  0
   -1.7617    0.8549   -0.2106 C   0  0  0  0  0  0  0  0  0  0  0  0
   -2.5726    1.1871   -1.0741 O   0  0  0  0  0  0  0  0  0  0  0  0
   -1.1941    1.7377    0.6223 N   0  0  0  0  0  0  0  0  0  0  0  0
   -0.4976    1.3916    1.2669 H   0  0  0  0  0  0  0  0  0  0  0  0
   -1.4666    3.1722    0.6095 C   0  0  0  0  0  0  0  0  0  0  0  0
   -2.5439    3.3427    0.6539 H   0  0  0  0  0  0  0  0  0  0  0  0
   -0.9893    3.6529    1.4644 H   0  0  0  0  0  0  0  0  0  0  0  0
   -1.0808    3.6095   -0.3129 H   0  0  0  0  0  0  0  0  0  0  0  0
  5  6  2  0  0  0  0
  5  7  1  0  0  0  0
  2  3  1  0  0  0  0
  2  4  1  0  0  0  0
  2  5  1  0  0  0  0
  1  2  1  0  0  0  0
 29 30  2  0  0  0  0
 29 31  1  0  0  0  0
 26 27  1  0  0  0  0
 26 28  2  0  0  0  0
 24 25  1  0  0  0  0
 24 26  1  0  0  0  0
 22 23  1  0  0  0  0
 22 24  2  0  0  0  0
 20 21  1  0  0  0  0
 20 22  1  0  0  0  0
 19 20  2  0  0  0  0
 19 28  1  0  0  0  0
 17 18  1  0  0  0  0
 17 19  1  0  0  0  0
 15 16  1  0  0  0  0
 15 17  1  0  0  0  0
 14 15  2  0  0  0  0
 14 28  1  0  0  0  0
 11 12  1  0  0  0  0
 11 13  1  0  0  0  0
 11 14  1  0  0  0  0
  9 10  1  0  0  0  0
  9 11  1  0  0  0  0
  9 29  1  0  0  0  0
  7  8  1  0  0  0  0
  7  9  1  0  0  0  0
 33 34  1  0  0  0  0
 33 35  1  0  0  0  0
 33 36  1  0  0  0  0
 31 32  1  0  0  0  0
 31 33  1  0  0  0  0
M  END
$$$$
default_name
  -OEChem-02102213163D

 36 37  0     1  0  0  0  0  0999 V2000
   -4.0843   -4.0736    1.2944 H   0  0  0  0  0  0  0  0  0  0  0  0
   -4.0342   -3.2816    0.5484 C   0  0  0  0  0  0  0  0  0  0  0  0
   -4.8842   -2.6126    0.6694 H   0  0  0  0  0  0  0  0  0  0  0  0
   -4.0433   -3.7186   -0.4486 H   0  0  0  0  0  0  0  0  0  0  0  0
   -2.7532   -2.5046    0.7444 C   0  0  0  0  0  0  0  0  0  0  0  0
   -1.9803   -2.8096    1.6434 O   0  0  0  0  0  0  0  0  0  0  0  0
   -2.5332   -1.4966   -0.0966 N   0  0  0  0  0  0  0  0  0  0  0  0
   -3.2312   -1.2816   -0.7936 H   0  0  0  0  0  0  0  0  0  0  0  0
   -1.3593   -0.6196   -0.0536 C   0  0  1  0  0  0  0  0  0  0  0  0
   -0.8788   -0.7266    0.9196 H   0  0  0  0  0  0  0  0  0  0  0  0
   -0.3559   -1.0533   -1.1339 C   0  0  0  0  0  0  0  0  0  0  0  0
   -0.8943   -1.2143   -2.0696 H   0  0  0  0  0  0  0  0  0  0  0  0
    0.3527   -0.2394   -1.2965 H   0  0  0  0  0  0  0  0  0  0  0  0
    0.4157   -2.2999   -0.8228 C   0  0  0  0  0  0  0  0  0  0  0  0
   -0.0705   -3.5601   -0.8776 C   0  0  0  0  0  0  0  0  0  0  0  0
   -1.0916   -3.8170   -1.1375 H   0  0  0  0  0  0  0  0  0  0  0  0
    0.9334   -4.4586   -0.5735 N   0  0  0  0  0  0  0  0  0  0  0  0
    0.7973   -5.4586   -0.5490 H   0  0  0  0  0  0  0  0  0  0  0  0
    2.1284   -3.8186   -0.3223 C   0  0  0  0  0  0  0  0  0  0  0  0
    3.4143   -4.2798   -0.0058 C   0  0  0  0  0  0  0  0  0  0  0  0
    3.6085   -5.3382    0.0881 H   0  0  0  0  0  0  0  0  0  0  0  0
    4.4459   -3.3457    0.1893 C   0  0  0  0  0  0  0  0  0  0  0  0
    5.4438   -3.6829    0.4351 H   0  0  0  0  0  0  0  0  0  0  0  0
    4.1773   -1.9698    0.0708 C   0  0  0  0  0  0  0  0  0  0  0  0
    4.9721   -1.2542    0.2299 H   0  0  0  0  0  0  0  0  0  0  0  0
    2.8806   -1.5175   -0.2458 C   0  0  0  0  0  0  0  0  0  0  0  0
    2.6848   -0.4572   -0.3206 H   0  0  0  0  0  0  0  0  0  0  0  0
    1.8242   -2.4306   -0.4538 C   0  0  0  0  0  0  0  0  0  0  0  0
   -1.7617    0.8549   -0.2106 C   0  0  0  0  0  0  0  0  0  0  0  0
   -2.5726    1.1871   -1.0741 O   0  0  0  0  0  0  0  0  0  0  0  0
   -1.1941    1.7377    0.6223 N   0  0  0  0  0  0  0  0  0  0  0  0
   -0.4976    1.3916    1.2669 H   0  0  0  0  0  0  0  0  0  0  0  0
   -1.4666    3.1722    0.6095 C   0  0  0  0  0  0  0  0  0  0  0  0
   -2.5439    3.3427    0.6539 H   0  0  0  0  0  0  0  0  0  0  0  0
   -0.9893    3.6529    1.4644 H   0  0  0  0  0  0  0  0  0  0  0  0
   -1.0808    3.6095   -0.3129 H   0  0  0  0  0  0  0  0  0  0  0  0
  5  6  2  0  0  0  0
  5  7  1  0  0  0  0
  2  3  1  0  0  0  0
  2  4  1  0  0  0  0
  2  5  1  0  0  0  0
  1  2  1  0  0  0  0
 29 30  2  0  0  0  0
 29 31  1  0  0  0  0
 26 27  1  0  0  0  0
 26 28  2  0  0  0  0
 24 25  1  0  0  0  0
 24 26  1  0  0  0  0
 22 23  1  0  0  0  0
 22 24  2  0  0  0  0
 20 21  1  0  0  0  0
 20 22  1  0  0  0  0
 19 20  2  0  0  0  0
 19 28  1  0  0  0  0
 17 18  1  0  0  0  0
 17 19  1  0  0  0  0
 15 16  1  0  0  0  0
 15 17  1  0  0  0  0
 14 15  2  0  0  0  0
 14 28  1  0  0  0  0
 11 12  1  0  0  0  0
 11 13  1  0  0  0  0
 11 14  1  0  0  0  0
  9 10  1  0  0  0  0
  9 11  1  0  0  0  0
  9 29  1  0  0  0  0
  7  8  1  0  0  0  0
  7  9  1  0  0  0  0
 33 34  1  0  0  0  0
 33 35  1  0  0  0  0
 33 36  1  0  0  0  0
 31 32  1  0  0  0  0
 31 33  1  0  0  0  0
M  END
$$$$
default_name
  -OEChem-02102213163D

 36 37  0     1  0  0  0  0  0999 V2000
   -4.0843   -4.0736    1.2944 H   0  0  0  0  0  0  0  0  0  0  0  0
   -4.0342   -3.2816    0.5484 C   0  0  0  0  0  0  0  0  0  0  0  0
   -4.8842   -2.6126    0.6694 H   0  0  0  0  0  0  0  0  0  0  0  0
   -4.0433   -3.7186   -0.4486 H   0  0  0  0  0  0  0  0  0  0  0  0
   -2.7532   -2.5046    0.7444 C   0  0  0  0  0  0  0  0  0  0  0  0
   -1.9803   -2.8096    1.6434 O   0  0  0  0  0  0  0  0  0  0  0  0
   -2.5332   -1.4966   -0.0966 N   0  0  0  0  0  0  0  0  0  0  0  0
   -3.2312   -1.2816   -0.7936 H   0  0  0  0  0  0  0  0  0  0  0  0
   -1.3593   -0.6196   -0.0536 C   0  0  1  0  0  0  0  0  0  0  0  0
   -0.8788   -0.7266    0.9196 H   0  0  0  0  0  0  0  0  0  0  0  0
   -0.3559   -1.0533   -1.1339 C   0  0  0  0  0  0  0  0  0  0  0  0
   -0.8943   -1.2143   -2.0696 H   0  0  0  0  0  0  0  0  0  0  0  0
    0.3527   -0.2394   -1.2965 H   0  0  0  0  0  0  0  0  0  0  0  0
    0.4157   -2.2999   -0.8228 C   0  0  0  0  0  0  0  0  0  0  0  0
    0.0394   -3.5583   -1.1427 C   0  0  0  0  0  0  0  0  0  0  0  0
   -0.8836   -3.8162   -1.6504 H   0  0  0  0  0  0  0  0  0  0  0  0
    1.0151   -4.4504   -0.7432 N   0  0  0  0  0  0  0  0  0  0  0  0
    0.9456   -5.4486   -0.8768 H   0  0  0  0  0  0  0  0  0  0  0  0
    2.0833   -3.8053   -0.1571 C   0  0  0  0  0  0  0  0  0  0  0  0
    3.3015   -4.2554    0.3718 C   0  0  0  0  0  0  0  0  0  0  0  0
    3.5433   -5.3081    0.3704 H   0  0  0  0  0  0  0  0  0  0  0  0
    4.2023   -3.3178    0.9054 C   0  0  0  0  0  0  0  0  0  0  0  0
    5.1462   -3.6466    1.3187 H   0  0  0  0  0  0  0  0  0  0  0  0
    3.8714   -1.9504    0.9072 C   0  0  0  0  0  0  0  0  0  0  0  0
    4.5638   -1.2334    1.3262 H   0  0  0  0  0  0  0  0  0  0  0  0
    2.6433   -1.5095    0.3747 C   0  0  0  0  0  0  0  0  0  0  0  0
    2.3959   -0.4576    0.3945 H   0  0  0  0  0  0  0  0  0  0  0  0
    1.7198   -2.4254   -0.1741 C   0  0  0  0  0  0  0  0  0  0  0  0
   -1.7617    0.8549   -0.2106 C   0  0  0  0  0  0  0  0  0  0  0  0
   -2.5726    1.1871   -1.0741 O   0  0  0  0  0  0  0  0  0  0  0  0
   -1.1941    1.7377    0.6223 N   0  0  0  0  0  0  0  0  0  0  0  0
   -0.4976    1.3916    1.2669 H   0  0  0  0  0  0  0  0  0  0  0  0
   -1.4666    3.1722    0.6095 C   0  0  0  0  0  0  0  0  0  0  0  0
   -2.5439    3.3427    0.6539 H   0  0  0  0  0  0  0  0  0  0  0  0
   -0.9893    3.6529    1.4644 H   0  0  0  0  0  0  0  0  0  0  0  0
   -1.0808    3.6095   -0.3129 H   0  0  0  0  0  0  0  0  0  0  0  0
  5  6  2  0  0  0  0
  5  7  1  0  0  0  0
  2  3  1  0  0  0  0
  2  4  1  0  0  0  0
  2  5  1  0  0  0  0
  1  2  1  0  0  0  0
 29 30  2  0  0  0  0
 29 31  1  0  0  0  0
 26 27  1  0  0  0  0
 26 28  2  0  0  0  0
 24 25  1  0  0  0  0
 24 26  1  0  0  0  0
 22 23  1  0  0  0  0
 22 24  2  0  0  0  0
 20 21  1  0  0  0  0
 20 22  1  0  0  0  0
 19 20  2  0  0  0  0
 19 28  1  0  0  0  0
 17 18  1  0  0  0  0
 17 19  1  0  0  0  0
 15 16  1  0  0  0  0
 15 17  1  0  0  0  0
 14 15  2  0  0  0  0
 14 28  1  0  0  0  0
 11 12  1  0  0  0  0
 11 13  1  0  0  0  0
 11 14  1  0  0  0  0
  9 10  1  0  0  0  0
  9 11  1  0  0  0  0
  9 29  1  0  0  0  0
  7  8  1  0  0  0  0
  7  9  1  0  0  0  0
 33 34  1  0  0  0  0
 33 35  1  0  0  0  0
 33 36  1  0  0  0  0
 31 32  1  0  0  0  0
 31 33  1  0  0  0  0
M  END
$$$$
default_name
  -OEChem-02102213163D

 36 37  0     1  0  0  0  0  0999 V2000
   -4.0843   -4.0736    1.2944 H   0  0  0  0  0  0  0  0  0  0  0  0
   -4.0342   -3.2816    0.5484 C   0  0  0  0  0  0  0  0  0  0  0  0
   -4.8842   -2.6126    0.6694 H   0  0  0  0  0  0  0  0  0  0  0  0
   -4.0433   -3.7186   -0.4486 H   0  0  0  0  0  0  0  0  0  0  0  0
   -2.7532   -2.5046    0.7444 C   0  0  0  0  0  0  0  0  0  0  0  0
   -1.9803   -2.8096    1.6434 O   0  0  0  0  0  0  0  0  0  0  0  0
   -2.5332   -1.4966   -0.0966 N   0  0  0  0  0  0  0  0  0  0  0  0
   -3.2312   -1.2816   -0.7936 H   0  0  0  0  0  0  0  0  0  0  0  0
   -1.3593   -0.6196   -0.0536 C   0  0  1  0  0  0  0  0  0  0  0  0
   -0.8788   -0.7266    0.9196 H   0  0  0  0  0  0  0  0  0  0  0  0
   -0.3559   -1.0533   -1.1339 C   0  0  0  0  0  0  0  0  0  0  0  0
   -0.8943   -1.2143   -2.0696 H   0  0  0  0  0  0  0  0  0  0  0  0
    0.3527   -0.2394   -1.2965 H   0  0  0  0  0  0  0  0  0  0  0  0
    0.4157   -2.2999   -0.8228 C   0  0  0  0  0  0  0  0  0  0  0  0
    0.2024   -3.5153   -1.3750 C   0  0  0  0  0  0  0  0  0  0  0  0
   -0.5723   -3.7360   -2.1011 H   0  0  0  0  0  0  0  0  0  0  0  0
    1.1302   -4.4154   -0.8885 N   0  0  0  0  0  0  0  0  0  0  0  0
    1.1588   -5.3873   -1.1601 H   0  0  0  0  0  0  0  0  0  0  0  0
    2.0035   -3.8168   -0.0055 C   0  0  0  0  0  0  0  0  0  0  0  0
    3.1100   -4.2882    0.7156 C   0  0  0  0  0  0  0  0  0  0  0  0
    3.4179   -5.3201    0.6330 H   0  0  0  0  0  0  0  0  0  0  0  0
    3.8112   -3.3994    1.5483 C   0  0  0  0  0  0  0  0  0  0  0  0
    4.6665   -3.7454    2.1129 H   0  0  0  0  0  0  0  0  0  0  0  0
    3.3949   -2.0596    1.6518 C   0  0  0  0  0  0  0  0  0  0  0  0
    3.9322   -1.3813    2.3001 H   0  0  0  0  0  0  0  0  0  0  0  0
    2.2801   -1.5973    0.9239 C   0  0  0  0  0  0  0  0  0  0  0  0
    1.9628   -0.5689    1.0229 H   0  0  0  0  0  0  0  0  0  0  0  0
    1.5584   -2.4633    0.0742 C   0  0  0  0  0  0  0  0  0  0  0  0
   -1.7617    0.8549   -0.2106 C   0  0  0  0  0  0  0  0  0  0  0  0
   -2.5726    1.1871   -1.0741 O   0  0  0  0  0  0  0  0  0  0  0  0
   -1.1941    1.7377    0.6223 N   0  0  0  0  0  0  0  0  0  0  0  0
   -0.4976    1.3916    1.2669 H   0  0  0  0  0  0  0  0  0  0  0  0
   -1.4666    3.1722    0.6095 C   0  0  0  0  0  0  0  0  0  0  0  0
   -2.5439    3.3427    0.6539 H   0  0  0  0  0  0  0  0  0  0  0  0
   -0.9893    3.6529    1.4644 H   0  0  0  0  0  0  0  0  0  0  0  0
   -1.0808    3.6095   -0.3129 H   0  0  0  0  0  0  0  0  0  0  0  0
  5  6  2  0  0  0  0
  5  7  1  0  0  0  0
  2  3  1  0  0  0  0
  2  4  1  0  0  0  0
  2  5  1  0  0  0  0
  1  2  1  0  0  0  0
 29 30  2  0  0  0  0
 29 31  1  0  0  0  0
 26 27  1  0  0  0  0
 26 28  2  0  0  0  0
 24 25  1  0  0  0  0
 24 26  1  0  0  0  0
 22 23  1  0  0  0  0
 22 24  2  0  0  0  0
 20 21  1  0  0  0  0
 20 22  1  0  0  0  0
 19 20  2  0  0  0  0
 19 28  1  0  0  0  0
 17 18  1  0  0  0  0
 17 19  1  0  0  0  0
 15 16  1  0  0  0  0
 15 17  1  0  0  0  0
 14 15  2  0  0  0  0
 14 28  1  0  0  0  0
 11 12  1  0  0  0  0
 11 13  1  0  0  0  0
 11 14  1  0  0  0  0
  9 10  1  0  0  0  0
  9 11  1  0  0  0  0
  9 29  1  0  0  0  0
  7  8  1  0  0  0  0
  7  9  1  0  0  0  0
 33 34  1  0  0  0  0
 33 35  1  0  0  0  0
 33 36  1  0  0  0  0
 31 32  1  0  0  0  0
 31 33  1  0  0  0  0
M  END
$$$$
default_name
  -OEChem-02102213163D

 36 37  0     1  0  0  0  0  0999 V2000
   -4.0843   -4.0736    1.2944 H   0  0  0  0  0  0  0  0  0  0  0  0
   -4.0342   -3.2816    0.5484 C   0  0  0  0  0  0  0  0  0  0  0  0
   -4.8842   -2.6126    0.6694 H   0  0  0  0  0  0  0  0  0  0  0  0
   -4.0433   -3.7186   -0.4486 H   0  0  0  0  0  0  0  0  0  0  0  0
   -2.7532   -2.5046    0.7444 C   0  0  0  0  0  0  0  0  0  0  0  0
   -1.9803   -2.8096    1.6434 O   0  0  0  0  0  0  0  0  0  0  0  0
   -2.5332   -1.4966   -0.0966 N   0  0  0  0  0  0  0  0  0  0  0  0
   -3.2312   -1.2816   -0.7936 H   0  0  0  0  0  0  0  0  0  0  0  0
   -1.3593   -0.6196   -0.0536 C   0  0  1  0  0  0  0  0  0  0  0  0
   -0.8788   -0.7266    0.9196 H   0  0  0  0  0  0  0  0  0  0  0  0
   -0.3559   -1.0533   -1.1339 C   0  0  0  0  0  0  0  0  0  0  0  0
   -0.8943   -1.2143   -2.0696 H   0  0  0  0  0  0  0  0  0  0  0  0
    0.3527   -0.2394   -1.2965 H   0  0  0  0  0  0  0  0  0  0  0  0
    0.4157   -2.2999   -0.8228 C   0  0  0  0  0  0  0  0  0  0  0  0
    0.4077   -3.4341   -1.5585 C   0  0  0  0  0  0  0  0  0  0  0  0
   -0.1789   -3.5817   -2.4586 H   0  0  0  0  0  0  0  0  0  0  0  0
    1.2707   -4.3561   -0.9994 N   0  0  0  0  0  0  0  0  0  0  0  0
    1.4225   -5.2789   -1.3796 H   0  0  0  0  0  0  0  0  0  0  0  0
    1.8944   -3.8525    0.1222 C   0  0  0  0  0  0  0  0  0  0  0  0
    2.8528   -4.3759    1.0020 C   0  0  0  0  0  0  0  0  0  0  0  0
    3.2410   -5.3735    0.8581 H   0  0  0  0  0  0  0  0  0  0  0  0
    3.2995   -3.5849    2.0743 C   0  0  0  0  0  0  0  0  0  0  0  0
    4.0375   -3.9723    2.7636 H   0  0  0  0  0  0  0  0  0  0  0  0
    2.7801   -2.2898    2.2539 C   0  0  0  0  0  0  0  0  0  0  0  0
    3.1205   -1.6878    3.0851 H   0  0  0  0  0  0  0  0  0  0  0  0
    1.8157   -1.7747    1.3646 C   0  0  0  0  0  0  0  0  0  0  0  0
    1.4152   -0.7833    1.5219 H   0  0  0  0  0  0  0  0  0  0  0  0
    1.3511   -2.5417    0.2743 C   0  0  0  0  0  0  0  0  0  0  0  0
   -1.7617    0.8549   -0.2106 C   0  0  0  0  0  0  0  0  0  0  0  0
   -2.5726    1.1871   -1.0741 O   0  0  0  0  0  0  0  0  0  0  0  0
   -1.1941    1.7377    0.6223 N   0  0  0  0  0  0  0  0  0  0  0  0
   -0.4976    1.3916    1.2669 H   0  0  0  0  0  0  0  0  0  0  0  0
   -1.4666    3.1722    0.6095 C   0  0  0  0  0  0  0  0  0  0  0  0
   -2.5439    3.3427    0.6539 H   0  0  0  0  0  0  0  0  0  0  0  0
   -0.9893    3.6529    1.4644 H   0  0  0  0  0  0  0  0  0  0  0  0
   -1.0808    3.6095   -0.3129 H   0  0  0  0  0  0  0  0  0  0  0  0
  5  6  2  0  0  0  0
  5  7  1  0  0  0  0
  2  3  1  0  0  0  0
  2  4  1  0  0  0  0
  2  5  1  0  0  0  0
  1  2  1  0  0  0  0
 29 30  2  0  0  0  0
 29 31  1  0  0  0  0
 26 27  1  0  0  0  0
 26 28  2  0  0  0  0
 24 25  1  0  0  0  0
 24 26  1  0  0  0  0
 22 23  1  0  0  0  0
 22 24  2  0  0  0  0
 20 21  1  0  0  0  0
 20 22  1  0  0  0  0
 19 20  2  0  0  0  0
 19 28  1  0  0  0  0
 17 18  1  0  0  0  0
 17 19  1  0  0  0  0
 15 16  1  0  0  0  0
 15 17  1  0  0  0  0
 14 15  2  0  0  0  0
 14 28  1  0  0  0  0
 11 12  1  0  0  0  0
 11 13  1  0  0  0  0
 11 14  1  0  0  0  0
  9 10  1  0  0  0  0
  9 11  1  0  0  0  0
  9 29  1  0  0  0  0
  7  8  1  0  0  0  0
  7  9  1  0  0  0  0
 33 34  1  0  0  0  0
 33 35  1  0  0  0  0
 33 36  1  0  0  0  0
 31 32  1  0  0  0  0
 31 33  1  0  0  0  0
M  END
$$$$
default_name
  -OEChem-02102213163D

 36 37  0     1  0  0  0  0  0999 V2000
   -4.0843   -4.0736    1.2944 H   0  0  0  0  0  0  0  0  0  0  0  0
   -4.0342   -3.2816    0.5484 C   0  0  0  0  0  0  0  0  0  0  0  0
   -4.8842   -2.6126    0.6694 H   0  0  0  0  0  0  0  0  0  0  0  0
   -4.0433   -3.7186   -0.4486 H   0  0  0  0  0  0  0  0  0  0  0  0
   -2.7532   -2.5046    0.7444 C   0  0  0  0  0  0  0  0  0  0  0  0
   -1.9803   -2.8096    1.6434 O   0  0  0  0  0  0  0  0  0  0  0  0
   -2.5332   -1.4966   -0.0966 N   0  0  0  0  0  0  0  0  0  0  0  0
   -3.2312   -1.2816   -0.7936 H   0  0  0  0  0  0  0  0  0  0  0  0
   -1.3593   -0.6196   -0.0536 C   0  0  1  0  0  0  0  0  0  0  0  0
   -0.8788   -0.7266    0.9196 H   0  0  0  0  0  0  0  0  0  0  0  0
   -0.3559   -1.0533   -1.1339 C   0  0  0  0  0  0  0  0  0  0  0  0
   -0.8943   -1.2143   -2.0696 H   0  0  0  0  0  0  0  0  0  0  0  0
    0.3527   -0.2394   -1.2965 H   0  0  0  0  0  0  0  0  0  0  0  0
    0.4157   -2.2999   -0.8228 C   0  0  0  0  0  0  0  0  0  0  0  0
    0.6410   -3.3201   -1.6807 C   0  0  0  0  0  0  0  0  0  0  0  0
    0.2697   -3.3640   -2.6987 H   0  0  0  0  0  0  0  0  0  0  0  0
    1.4271   -4.2765   -1.0684 N   0  0  0  0  0  0  0  0  0  0  0  0
    1.7186   -5.1308   -1.5205 H   0  0  0  0  0  0  0  0  0  0  0  0
    1.7634   -3.9098    0.2174 C   0  0  0  0  0  0  0  0  0  0  0  0
    2.5474   -4.5127    1.2116 C   0  0  0  0  0  0  0  0  0  0  0  0
    3.0244   -5.4646    1.0303 H   0  0  0  0  0  0  0  0  0  0  0  0
    2.7019   -3.8617    2.4474 C   0  0  0  0  0  0  0  0  0  0  0  0
    3.3020   -4.3121    3.2265 H   0  0  0  0  0  0  0  0  0  0  0  0
    2.0691   -2.6255    2.6725 C   0  0  0  0  0  0  0  0  0  0  0  0
    2.1839   -2.1322    3.6278 H   0  0  0  0  0  0  0  0  0  0  0  0
    1.2818   -2.0298    1.6667 C   0  0  0  0  0  0  0  0  0  0  0  0
    0.7903   -1.0864    1.8574 H   0  0  0  0  0  0  0  0  0  0  0  0
    1.1120   -2.6552    0.4125 C   0  0  0  0  0  0  0  0  0  0  0  0
   -1.7617    0.8549   -0.2106 C   0  0  0  0  0  0  0  0  0  0  0  0
   -2.5726    1.1871   -1.0741 O   0  0  0  0  0  0  0  0  0  0  0  0
   -1.1941    1.7377    0.6223 N   0  0  0  0  0  0  0  0  0  0  0  0
   -0.4976    1.3916    1.2669 H   0  0  0  0  0  0  0  0  0  0  0  0
   -1.4666    3.1722    0.6095 C   0  0  0  0  0  0  0  0  0  0  0  0
   -2.5439    3.3427    0.6539 H   0  0  0  0  0  0  0  0  0  0  0  0
   -0.9893    3.6529    1.4644 H   0  0  0  0  0  0  0  0  0  0  0  0
   -1.0808    3.6095   -0.3129 H   0  0  0  0  0  0  0  0  0  0  0  0
  5  6  2  0  0  0  0
  5  7  1  0  0  0  0
  2  3  1  0  0  0  0
  2  4  1  0  0  0  0
  2  5  1  0  0  0  0
  1  2  1  0  0  0  0
 29 30  2  0  0  0  0
 29 31  1  0  0  0  0
 26 27  1  0  0  0  0
 26 28  2  0  0  0  0
 24 25  1  0  0  0  0
 24 26  1  0  0  0  0
 22 23  1  0  0  0  0
 22 24  2  0  0  0  0
 20 21  1  0  0  0  0
 20 22  1  0  0  0  0
 19 20  2  0  0  0  0
 19 28  1  0  0  0  0
 17 18  1  0  0  0  0
 17 19  1  0  0  0  0
 15 16  1  0  0  0  0
 15 17  1  0  0  0  0
 14 15  2  0  0  0  0
 14 28  1  0  0  0  0
 11 12  1  0  0  0  0
 11 13  1  0  0  0  0
 11 14  1  0  0  0  0
  9 10  1  0  0  0  0
  9 11  1  0  0  0  0
  9 29  1  0  0  0  0
  7  8  1  0  0  0  0
  7  9  1  0  0  0  0
 33 34  1  0  0  0  0
 33 35  1  0  0  0  0
 33 36  1  0  0  0  0
 31 32  1  0  0  0  0
 31 33  1  0  0  0  0
M  END
$$$$
default_name
  -OEChem-02102213163D

 36 37  0     1  0  0  0  0  0999 V2000
   -4.0843   -4.0736    1.2944 H   0  0  0  0  0  0  0  0  0  0  0  0
   -4.0342   -3.2816    0.5484 C   0  0  0  0  0  0  0  0  0  0  0  0
   -4.8842   -2.6126    0.6694 H   0  0  0  0  0  0  0  0  0  0  0  0
   -4.0433   -3.7186   -0.4486 H   0  0  0  0  0  0  0  0  0  0  0  0
   -2.7532   -2.5046    0.7444 C   0  0  0  0  0  0  0  0  0  0  0  0
   -1.9803   -2.8096    1.6434 O   0  0  0  0  0  0  0  0  0  0  0  0
   -2.5332   -1.4966   -0.0966 N   0  0  0  0  0  0  0  0  0  0  0  0
   -3.2312   -1.2816   -0.7936 H   0  0  0  0  0  0  0  0  0  0  0  0
   -1.3593   -0.6196   -0.0536 C   0  0  1  0  0  0  0  0  0  0  0  0
   -0.8788   -0.7266    0.9196 H   0  0  0  0  0  0  0  0  0  0  0  0
   -0.3559   -1.0533   -1.1339 C   0  0  0  0  0  0  0  0  0  0  0  0
   -0.8943   -1.2143   -2.0696 H   0  0  0  0  0  0  0  0  0  0  0  0
    0.3527   -0.2394   -1.2965 H   0  0  0  0  0  0  0  0  0  0  0  0
    0.4157   -2.2999   -0.8228 C   0  0  0  0  0  0  0  0  0  0  0  0
    0.8867   -3.1812   -1.7334 C   0  0  0  0  0  0  0  0  0  0  0  0
    0.7431   -3.0975   -2.8051 H   0  0  0  0  0  0  0  0  0  0  0  0
    1.5888   -4.1820   -1.0908 N   0  0  0  0  0  0  0  0  0  0  0  0
    2.0270   -4.9530   -1.5731 H   0  0  0  0  0  0  0  0  0  0  0  0
    1.6195   -3.9849    0.2734 C   0  0  0  0  0  0  0  0  0  0  0  0
    2.2146   -4.6891    1.3300 C   0  0  0  0  0  0  0  0  0  0  0  0
    2.7831   -5.5871    1.1379 H   0  0  0  0  0  0  0  0  0  0  0  0
    2.0593   -4.2109    2.6424 C   0  0  0  0  0  0  0  0  0  0  0  0
    2.5102   -4.7414    3.4701 H   0  0  0  0  0  0  0  0  0  0  0  0
    1.3102   -3.0437    2.8790 C   0  0  0  0  0  0  0  0  0  0  0  0
    1.1862   -2.6840    3.8911 H   0  0  0  0  0  0  0  0  0  0  0  0
    0.7148   -2.3452    1.8095 C   0  0  0  0  0  0  0  0  0  0  0  0
    0.1308   -1.4574    2.0066 H   0  0  0  0  0  0  0  0  0  0  0  0
    0.8574   -2.7961    0.4794 C   0  0  0  0  0  0  0  0  0  0  0  0
   -1.7617    0.8549   -0.2106 C   0  0  0  0  0  0  0  0  0  0  0  0
   -2.5726    1.1871   -1.0741 O   0  0  0  0  0  0  0  0  0  0  0  0
   -1.1941    1.7377    0.6223 N   0  0  0  0  0  0  0  0  0  0  0  0
   -0.4976    1.3916    1.2669 H   0  0  0  0  0  0  0  0  0  0  0  0
   -1.4666    3.1722    0.6095 C   0  0  0  0  0  0  0  0  0  0  0  0
   -2.5439    3.3427    0.6539 H   0  0  0  0  0  0  0  0  0  0  0  0
   -0.9893    3.6529    1.4644 H   0  0  0  0  0  0  0  0  0  0  0  0
   -1.0808    3.6095   -0.3129 H   0  0  0  0  0  0  0  0  0  0  0  0
  5  6  2  0  0  0  0
  5  7  1  0  0  0  0
  2  3  1  0  0  0  0
  2  4  1  0  0  0  0
  2  5  1  0  0  0  0
  1  2  1  0  0  0  0
 29 30  2  0  0  0  0
 29 31  1  0  0  0  0
 26 27  1  0  0  0  0
 26 28  2  0  0  0  0
 24 25  1  0  0  0  0
 24 26  1  0  0  0  0
 22 23  1  0  0  0  0
 22 24  2  0  0  0  0
 20 21  1  0  0  0  0
 20 22  1  0  0  0  0
 19 20  2  0  0  0  0
 19 28  1  0  0  0  0
 17 18  1  0  0  0  0
 17 19  1  0  0  0  0
 15 16  1  0  0  0  0
 15 17  1  0  0  0  0
 14 15  2  0  0  0  0
 14 28  1  0  0  0  0
 11 12  1  0  0  0  0
 11 13  1  0  0  0  0
 11 14  1  0  0  0  0
  9 10  1  0  0  0  0
  9 11  1  0  0  0  0
  9 29  1  0  0  0  0
  7  8  1  0  0  0  0
  7  9  1  0  0  0  0
 33 34  1  0  0  0  0
 33 35  1  0  0  0  0
 33 36  1  0  0  0  0
 31 32  1  0  0  0  0
 31 33  1  0  0  0  0
M  END
$$$$
default_name
  -OEChem-02102213163D

 36 37  0     1  0  0  0  0  0999 V2000
   -4.0843   -4.0736    1.2944 H   0  0  0  0  0  0  0  0  0  0  0  0
   -4.0342   -3.2816    0.5484 C   0  0  0  0  0  0  0  0  0  0  0  0
   -4.8842   -2.6126    0.6694 H   0  0  0  0  0  0  0  0  0  0  0  0
   -4.0433   -3.7186   -0.4486 H   0  0  0  0  0  0  0  0  0  0  0  0
   -2.7532   -2.5046    0.7444 C   0  0  0  0  0  0  0  0  0  0  0  0
   -1.9803   -2.8096    1.6434 O   0  0  0  0  0  0  0  0  0  0  0  0
   -2.5332   -1.4966   -0.0966 N   0  0  0  0  0  0  0  0  0  0  0  0
   -3.2312   -1.2816   -0.7936 H   0  0  0  0  0  0  0  0  0  0  0  0
   -1.3593   -0.6196   -0.0536 C   0  0  1  0  0  0  0  0  0  0  0  0
   -0.8788   -0.7266    0.9196 H   0  0  0  0  0  0  0  0  0  0  0  0
   -0.3559   -1.0533   -1.1339 C   0  0  0  0  0  0  0  0  0  0  0  0
   -0.8943   -1.2143   -2.0696 H   0  0  0  0  0  0  0  0  0  0  0  0
    0.3527   -0.2394   -1.2965 H   0  0  0  0  0  0  0  0  0  0  0  0
    0.4157   -2.2999   -0.8228 C   0  0  0  0  0  0  0  0  0  0  0  0
    1.1278   -3.0269   -1.7128 C   0  0  0  0  0  0  0  0  0  0  0  0
    1.2089   -2.8005   -2.7704 H   0  0  0  0  0  0  0  0  0  0  0  0
    1.7447   -4.0790   -1.0649 N   0  0  0  0  0  0  0  0  0  0  0  0
    2.3267   -4.7577   -1.5339 H   0  0  0  0  0  0  0  0  0  0  0  0
    1.4725   -4.0727    0.2866 C   0  0  0  0  0  0  0  0  0  0  0  0
    1.8771   -4.8932    1.3493 C   0  0  0  0  0  0  0  0  0  0  0  0
    2.5334   -5.7328    1.1735 H   0  0  0  0  0  0  0  0  0  0  0  0
    1.4153   -4.6086    2.6458 C   0  0  0  0  0  0  0  0  0  0  0  0
    1.7160   -5.2311    3.4776 H   0  0  0  0  0  0  0  0  0  0  0  0
    0.5551   -3.5160    2.8594 C   0  0  0  0  0  0  0  0  0  0  0  0
    0.1955   -3.3057    3.8571 H   0  0  0  0  0  0  0  0  0  0  0  0
    0.1533   -2.6992    1.7834 C   0  0  0  0  0  0  0  0  0  0  0  0
   -0.5184   -1.8711    1.9593 H   0  0  0  0  0  0  0  0  0  0  0  0
    0.6047   -2.9548    0.4704 C   0  0  0  0  0  0  0  0  0  0  0  0
   -1.7617    0.8549   -0.2106 C   0  0  0  0  0  0  0  0  0  0  0  0
   -2.5726    1.1871   -1.0741 O   0  0  0  0  0  0  0  0  0  0  0  0
   -1.1941    1.7377    0.6223 N   0  0  0  0  0  0  0  0  0  0  0  0
   -0.4976    1.3916    1.2669 H   0  0  0  0  0  0  0  0  0  0  0  0
   -1.4666    3.1722    0.6095 C   0  0  0  0  0  0  0  0  0  0  0  0
   -2.5439    3.3427    0.6539 H   0  0  0  0  0  0  0  0  0  0  0  0
   -0.9893    3.6529    1.4644 H   0  0  0  0  0  0  0  0  0  0  0  0
   -1.0808    3.6095   -0.3129 H   0  0  0  0  0  0  0  0  0  0  0  0
  5  6  2  0  0  0  0
  5  7  1  0  0  0  0
  2  3  1  0  0  0  0
  2  4  1  0  0  0  0
  2  5  1  0  0  0  0
  1  2  1  0  0  0  0
 29 30  2  0  0  0  0
 29 31  1  0  0  0  0
 26 27  1  0  0  0  0
 26 28  2  0  0  0  0
 24 25  1  0  0  0  0
 24 26  1  0  0  0  0
 22 23  1  0  0  0  0
 22 24  2  0  0  0  0
 20 21  1  0  0  0  0
 20 22  1  0  0  0  0
 19 20  2  0  0  0  0
 19 28  1  0  0  0  0
 17 18  1  0  0  0  0
 17 19  1  0  0  0  0
 15 16  1  0  0  0  0
 15 17  1  0  0  0  0
 14 15  2  0  0  0  0
 14 28  1  0  0  0  0
 11 12  1  0  0  0  0
 11 13  1  0  0  0  0
 11 14  1  0  0  0  0
  9 10  1  0  0  0  0
  9 11  1  0  0  0  0
  9 29  1  0  0  0  0
  7  8  1  0  0  0  0
  7  9  1  0  0  0  0
 33 34  1  0  0  0  0
 33 35  1  0  0  0  0
 33 36  1  0  0  0  0
 31 32  1  0  0  0  0
 31 33  1  0  0  0  0
M  END
$$$$
default_name
  -OEChem-02102213163D

 36 37  0     1  0  0  0  0  0999 V2000
   -4.0843   -4.0736    1.2944 H   0  0  0  0  0  0  0  0  0  0  0  0
   -4.0342   -3.2816    0.5484 C   0  0  0  0  0  0  0  0  0  0  0  0
   -4.8842   -2.6126    0.6694 H   0  0  0  0  0  0  0  0  0  0  0  0
   -4.0433   -3.7186   -0.4486 H   0  0  0  0  0  0  0  0  0  0  0  0
   -2.7532   -2.5046    0.7444 C   0  0  0  0  0  0  0  0  0  0  0  0
   -1.9803   -2.8096    1.6434 O   0  0  0  0  0  0  0  0  0  0  0  0
   -2.5332   -1.4966   -0.0966 N   0  0  0  0  0  0  0  0  0  0  0  0
   -3.2312   -1.2816   -0.7936 H   0  0  0  0  0  0  0  0  0  0  0  0
   -1.3593   -0.6196   -0.0536 C   0  0  1  0  0  0  0  0  0  0  0  0
   -0.8788   -0.7266    0.9196 H   0  0  0  0  0  0  0  0  0  0  0  0
   -0.3559   -1.0533   -1.1339 C   0  0  0  0  0  0  0  0  0  0  0  0
   -0.8291   -0.9561   -2.1126 H   0  0  0  0  0  0  0  0  0  0  0  0
    0.4963   -0.3719   -1.1100 H   0  0  0  0  0  0  0  0  0  0  0  0
    0.1541   -2.4565   -1.0030 C   0  0  0  0  0  0  0  0  0  0  0  0
    1.0391   -3.0524   -1.8332 C   0  0  0  0  0  0  0  0  0  0  0  0
    1.4732   -2.5855   -2.7105 H   0  0  0  0  0  0  0  0  0  0  0  0
    1.3147   -4.3276   -1.3800 N   0  0  0  0  0  0  0  0  0  0  0  0
    1.9479   -4.9600   -1.8471 H   0  0  0  0  0  0  0  0  0  0  0  0
    0.6292   -4.6126   -0.2183 C   0  0  0  0  0  0  0  0  0  0  0  0
    0.5948   -5.7336    0.6235 C   0  0  0  0  0  0  0  0  0  0  0  0
    1.1896   -6.6064    0.3974 H   0  0  0  0  0  0  0  0  0  0  0  0
   -0.2256   -5.7060    1.7642 C   0  0  0  0  0  0  0  0  0  0  0  0
   -0.2657   -6.5618    2.4245 H   0  0  0  0  0  0  0  0  0  0  0  0
   -1.0005   -4.5653    2.0428 C   0  0  0  0  0  0  0  0  0  0  0  0
   -1.6367   -4.5515    2.9170 H   0  0  0  0  0  0  0  0  0  0  0  0
   -0.9596   -3.4450    1.1886 C   0  0  0  0  0  0  0  0  0  0  0  0
   -1.5701   -2.5804    1.4071 H   0  0  0  0  0  0  0  0  0  0  0  0
   -0.1411   -3.4390    0.0384 C   0  0  0  0  0  0  0  0  0  0  0  0
   -1.7617    0.8549   -0.2106 C   0  0  0  0  0  0  0  0  0  0  0  0
   -2.5726    1.1871   -1.0741 O   0  0  0  0  0  0  0  0  0  0  0  0
   -1.1941    1.7377    0.6223 N   0  0  0  0  0  0  0  0  0  0  0  0
   -0.4976    1.3916    1.2669 H   0  0  0  0  0  0  0  0  0  0  0  0
   -1.4666    3.1722    0.6095 C   0  0  0  0  0  0  0  0  0  0  0  0
   -2.5439    3.3427    0.6539 H   0  0  0  0  0  0  0  0  0  0  0  0
   -0.9893    3.6529    1.4644 H   0  0  0  0  0  0  0  0  0  0  0  0
   -1.0808    3.6095   -0.3129 H   0  0  0  0  0  0  0  0  0  0  0  0
  5  6  2  0  0  0  0
  5  7  1  0  0  0  0
  2  3  1  0  0  0  0
  2  4  1  0  0  0  0
  2  5  1  0  0  0  0
  1  2  1  0  0  0  0
 29 30  2  0  0  0  0
 29 31  1  0  0  0  0
 26 27  1  0  0  0  0
 26 28  2  0  0  0  0
 24 25  1  0  0  0  0
 24 26  1  0  0  0  0
 22 23  1  0  0  0  0
 22 24  2  0  0  0  0
 20 21  1  0  0  0  0
 20 22  1  0  0  0  0
 19 20  2  0  0  0  0
 19 28  1  0  0  0  0
 17 18  1  0  0  0  0
 17 19  1  0  0  0  0
 15 16  1  0  0  0  0
 15 17  1  0  0  0  0
 14 15  2  0  0  0  0
 14 28  1  0  0  0  0
 11 12  1  0  0  0  0
 11 13  1  0  0  0  0
 11 14  1  0  0  0  0
  9 10  1  0  0  0  0
  9 11  1  0  0  0  0
  9 29  1  0  0  0  0
  7  8  1  0  0  0  0
  7  9  1  0  0  0  0
 33 34  1  0  0  0  0
 33 35  1  0  0  0  0
 33 36  1  0  0  0  0
 31 32  1  0  0  0  0
 31 33  1  0  0  0  0
M  END
$$$$
default_name
  -OEChem-02102213163D

 36 37  0     1  0  0  0  0  0999 V2000
   -4.0843   -4.0736    1.2944 H   0  0  0  0  0  0  0  0  0  0  0  0
   -4.0342   -3.2816    0.5484 C   0  0  0  0  0  0  0  0  0  0  0  0
   -4.8842   -2.6126    0.6694 H   0  0  0  0  0  0  0  0  0  0  0  0
   -4.0433   -3.7186   -0.4486 H   0  0  0  0  0  0  0  0  0  0  0  0
   -2.7532   -2.5046    0.7444 C   0  0  0  0  0  0  0  0  0  0  0  0
   -1.9803   -2.8096    1.6434 O   0  0  0  0  0  0  0  0  0  0  0  0
   -2.5332   -1.4966   -0.0966 N   0  0  0  0  0  0  0  0  0  0  0  0
   -3.2312   -1.2816   -0.7936 H   0  0  0  0  0  0  0  0  0  0  0  0
   -1.3593   -0.6196   -0.0536 C   0  0  1  0  0  0  0  0  0  0  0  0
   -0.8788   -0.7266    0.9196 H   0  0  0  0  0  0  0  0  0  0  0  0
   -0.3559   -1.0533   -1.1339 C   0  0  0  0  0  0  0  0  0  0  0  0
   -0.8291   -0.9561   -2.1126 H   0  0  0  0  0  0  0  0  0  0  0  0
    0.4963   -0.3719   -1.1100 H   0  0  0  0  0  0  0  0  0  0  0  0
    0.1541   -2.4565   -1.0030 C   0  0  0  0  0  0  0  0  0  0  0  0
    1.2328   -2.9640   -1.6406 C   0  0  0  0  0  0  0  0  0  0  0  0
    1.8499   -2.4143   -2.3428 H   0  0  0  0  0  0  0  0  0  0  0  0
    1.4334   -4.2718   -1.2444 N   0  0  0  0  0  0  0  0  0  0  0  0
    2.1814   -4.8517   -1.5956 H   0  0  0  0  0  0  0  0  0  0  0  0
    0.4976   -4.6692   -0.3131 C   0  0  0  0  0  0  0  0  0  0  0  0
    0.2987   -5.8624    0.3962 C   0  0  0  0  0  0  0  0  0  0  0  0
    0.9593   -6.7040    0.2481 H   0  0  0  0  0  0  0  0  0  0  0  0
   -0.7732   -5.9482    1.3011 C   0  0  0  0  0  0  0  0  0  0  0  0
   -0.9427   -6.8608    1.8563 H   0  0  0  0  0  0  0  0  0  0  0  0
   -1.6301   -4.8467    1.4790 C   0  0  0  0  0  0  0  0  0  0  0  0
   -2.4585   -4.9199    2.1700 H   0  0  0  0  0  0  0  0  0  0  0  0
   -1.4218   -3.6531    0.7592 C   0  0  0  0  0  0  0  0  0  0  0  0
   -2.0956   -2.8191    0.8955 H   0  0  0  0  0  0  0  0  0  0  0  0
   -0.3506   -3.5330   -0.1524 C   0  0  0  0  0  0  0  0  0  0  0  0
   -1.7617    0.8549   -0.2106 C   0  0  0  0  0  0  0  0  0  0  0  0
   -2.5726    1.1871   -1.0741 O   0  0  0  0  0  0  0  0  0  0  0  0
   -1.1941    1.7377    0.6223 N   0  0  0  0  0  0  0  0  0  0  0  0
   -0.4976    1.3916    1.2669 H   0  0  0  0  0  0  0  0  0  0  0  0
   -1.4666    3.1722    0.6095 C   0  0  0  0  0  0  0  0  0  0  0  0
   -2.5439    3.3427    0.6539 H   0  0  0  0  0  0  0  0  0  0  0  0
   -0.9893    3.6529    1.4644 H   0  0  0  0  0  0  0  0  0  0  0  0
   -1.0808    3.6095   -0.3129 H   0  0  0  0  0  0  0  0  0  0  0  0
  5  6  2  0  0  0  0
  5  7  1  0  0  0  0
  2  3  1  0  0  0  0
  2  4  1  0  0  0  0
  2  5  1  0  0  0  0
  1  2  1  0  0  0  0
 29 30  2  0  0  0  0
 29 31  1  0  0  0  0
 26 27  1  0  0  0  0
 26 28  2  0  0  0  0
 24 25  1  0  0  0  0
 24 26  1  0  0  0  0
 22 23  1  0  0  0  0
 22 24  2  0  0  0  0
 20 21  1  0  0  0  0
 20 22  1  0  0  0  0
 19 20  2  0  0  0  0
 19 28  1  0  0  0  0
 17 18  1  0  0  0  0
 17 19  1  0  0  0  0
 15 16  1  0  0  0  0
 15 17  1  0  0  0  0
 14 15  2  0  0  0  0
 14 28  1  0  0  0  0
 11 12  1  0  0  0  0
 11 13  1  0  0  0  0
 11 14  1  0  0  0  0
  9 10  1  0  0  0  0
  9 11  1  0  0  0  0
  9 29  1  0  0  0  0
  7  8  1  0  0  0  0
  7  9  1  0  0  0  0
 33 34  1  0  0  0  0
 33 35  1  0  0  0  0
 33 36  1  0  0  0  0
 31 32  1  0  0  0  0
 31 33  1  0  0  0  0
M  END
$$$$
default_name
  -OEChem-02102213163D

 36 37  0     1  0  0  0  0  0999 V2000
   -4.0843   -4.0736    1.2944 H   0  0  0  0  0  0  0  0  0  0  0  0
   -4.0342   -3.2816    0.5484 C   0  0  0  0  0  0  0  0  0  0  0  0
   -4.8842   -2.6126    0.6694 H   0  0  0  0  0  0  0  0  0  0  0  0
   -4.0433   -3.7186   -0.4486 H   0  0  0  0  0  0  0  0  0  0  0  0
   -2.7532   -2.5046    0.7444 C   0  0  0  0  0  0  0  0  0  0  0  0
   -1.9803   -2.8096    1.6434 O   0  0  0  0  0  0  0  0  0  0  0  0
   -2.5332   -1.4966   -0.0966 N   0  0  0  0  0  0  0  0  0  0  0  0
   -3.2312   -1.2816   -0.7936 H   0  0  0  0  0  0  0  0  0  0  0  0
   -1.3593   -0.6196   -0.0536 C   0  0  1  0  0  0  0  0  0  0  0  0
   -0.8788   -0.7266    0.9196 H   0  0  0  0  0  0  0  0  0  0  0  0
   -0.3559   -1.0533   -1.1339 C   0  0  0  0  0  0  0  0  0  0  0  0
   -0.8291   -0.9561   -2.1126 H   0  0  0  0  0  0  0  0  0  0  0  0
    0.4963   -0.3719   -1.1100 H   0  0  0  0  0  0  0  0  0  0  0  0
    0.1541   -2.4565   -1.0030 C   0  0  0  0  0  0  0  0  0  0  0  0
    1.3711   -2.8913   -1.3998 C   0  0  0  0  0  0  0  0  0  0  0  0
    2.1207   -2.2728   -1.8813 H   0  0  0  0  0  0  0  0  0  0  0  0
    1.5138   -4.2272   -1.0797 N   0  0  0  0  0  0  0  0  0  0  0  0
    2.3435   -4.7640   -1.2865 H   0  0  0  0  0  0  0  0  0  0  0  0
    0.3949   -4.7186   -0.4416 C   0  0  0  0  0  0  0  0  0  0  0  0
    0.0707   -5.9735    0.0937 C   0  0  0  0  0  0  0  0  0  0  0  0
    0.7753   -6.7903    0.0395 H   0  0  0  0  0  0  0  0  0  0  0  0
   -1.1844   -6.1538    0.6998 C   0  0  0  0  0  0  0  0  0  0  0  0
   -1.4522   -7.1150    1.1171 H   0  0  0  0  0  0  0  0  0  0  0  0
   -2.0953   -5.0831    0.7571 C   0  0  0  0  0  0  0  0  0  0  0  0
   -3.0630   -5.2285    1.2169 H   0  0  0  0  0  0  0  0  0  0  0  0
   -1.7595   -3.8267    0.2141 C   0  0  0  0  0  0  0  0  0  0  0  0
   -2.4738   -3.0165    0.2529 H   0  0  0  0  0  0  0  0  0  0  0  0
   -0.5047   -3.6117   -0.3958 C   0  0  0  0  0  0  0  0  0  0  0  0
   -1.7617    0.8549   -0.2106 C   0  0  0  0  0  0  0  0  0  0  0  0
   -2.5726    1.1871   -1.0741 O   0  0  0  0  0  0  0  0  0  0  0  0
   -1.1941    1.7377    0.6223 N   0  0  0  0  0  0  0  0  0  0  0  0
   -0.4976    1.3916    1.2669 H   0  0  0  0  0  0  0  0  0  0  0  0
   -1.4666    3.1722    0.6095 C   0  0  0  0  0  0  0  0  0  0  0  0
   -2.5439    3.3427    0.6539 H   0  0  0  0  0  0  0  0  0  0  0  0
   -0.9893    3.6529    1.4644 H   0  0  0  0  0  0  0  0  0  0  0  0
   -1.0808    3.6095   -0.3129 H   0  0  0  0  0  0  0  0  0  0  0  0
  5  6  2  0  0  0  0
  5  7  1  0  0  0  0
  2  3  1  0  0  0  0
  2  4  1  0  0  0  0
  2  5  1  0  0  0  0
  1  2  1  0  0  0  0
 29 30  2  0  0  0  0
 29 31  1  0  0  0  0
 26 27  1  0  0  0  0
 26 28  2  0  0  0  0
 24 25  1  0  0  0  0
 24 26  1  0  0  0  0
 22 23  1  0  0  0  0
 22 24  2  0  0  0  0
 20 21  1  0  0  0  0
 20 22  1  0  0  0  0
 19 20  2  0  0  0  0
 19 28  1  0  0  0  0
 17 18  1  0  0  0  0
 17 19  1  0  0  0  0
 15 16  1  0  0  0  0
 15 17  1  0  0  0  0
 14 15  2  0  0  0  0
 14 28  1  0  0  0  0
 11 12  1  0  0  0  0
 11 13  1  0  0  0  0
 11 14  1  0  0  0  0
  9 10  1  0  0  0  0
  9 11  1  0  0  0  0
  9 29  1  0  0  0  0
  7  8  1  0  0  0  0
  7  9  1  0  0  0  0
 33 34  1  0  0  0  0
 33 35  1  0  0  0  0
 33 36  1  0  0  0  0
 31 32  1  0  0  0  0
 31 33  1  0  0  0  0
M  END
$$$$
default_name
  -OEChem-02102213163D

 36 37  0     1  0  0  0  0  0999 V2000
   -4.0843   -4.0736    1.2944 H   0  0  0  0  0  0  0  0  0  0  0  0
   -4.0342   -3.2816    0.5484 C   0  0  0  0  0  0  0  0  0  0  0  0
   -4.8842   -2.6126    0.6694 H   0  0  0  0  0  0  0  0  0  0  0  0
   -4.0433   -3.7186   -0.4486 H   0  0  0  0  0  0  0  0  0  0  0  0
   -2.7532   -2.5046    0.7444 C   0  0  0  0  0  0  0  0  0  0  0  0
   -1.9803   -2.8096    1.6434 O   0  0  0  0  0  0  0  0  0  0  0  0
   -2.5332   -1.4966   -0.0966 N   0  0  0  0  0  0  0  0  0  0  0  0
   -3.2312   -1.2816   -0.7936 H   0  0  0  0  0  0  0  0  0  0  0  0
   -1.3593   -0.6196   -0.0536 C   0  0  1  0  0  0  0  0  0  0  0  0
   -0.8788   -0.7266    0.9196 H   0  0  0  0  0  0  0  0  0  0  0  0
   -0.3559   -1.0533   -1.1339 C   0  0  0  0  0  0  0  0  0  0  0  0
   -0.8291   -0.9561   -2.1126 H   0  0  0  0  0  0  0  0  0  0  0  0
    0.4963   -0.3719   -1.1100 H   0  0  0  0  0  0  0  0  0  0  0  0
    0.1541   -2.4565   -1.0030 C   0  0  0  0  0  0  0  0  0  0  0  0
    1.4447   -2.8391   -1.1273 C   0  0  0  0  0  0  0  0  0  0  0  0
    2.2672   -2.1707   -1.3574 H   0  0  0  0  0  0  0  0  0  0  0  0
    1.5506   -4.1968   -0.8973 N   0  0  0  0  0  0  0  0  0  0  0  0
    2.4231   -4.7028   -0.9410 H   0  0  0  0  0  0  0  0  0  0  0  0
    0.3279   -4.7572   -0.5949 C   0  0  0  0  0  0  0  0  0  0  0  0
   -0.0737   -6.0593   -0.2637 C   0  0  0  0  0  0  0  0  0  0  0  0
    0.6501   -6.8595   -0.2142 H   0  0  0  0  0  0  0  0  0  0  0  0
   -1.4312   -6.3086    0.0012 C   0  0  0  0  0  0  0  0  0  0  0  0
   -1.7595   -7.3069    0.2572 H   0  0  0  0  0  0  0  0  0  0  0  0
   -2.3643   -5.2584   -0.0738 C   0  0  0  0  0  0  0  0  0  0  0  0
   -3.4090   -5.4564    0.1226 H   0  0  0  0  0  0  0  0  0  0  0  0
   -1.9497   -3.9540   -0.4096 C   0  0  0  0  0  0  0  0  0  0  0  0
   -2.6789   -3.1591   -0.4767 H   0  0  0  0  0  0  0  0  0  0  0  0
   -0.5927   -3.6697   -0.6752 C   0  0  0  0  0  0  0  0  0  0  0  0
   -1.7617    0.8549   -0.2106 C   0  0  0  0  0  0  0  0  0  0  0  0
   -2.5726    1.1871   -1.0741 O   0  0  0  0  0  0  0  0  0  0  0  0
   -1.1941    1.7377    0.6223 N   0  0  0  0  0  0  0  0  0  0  0  0
   -0.4976    1.3916    1.2669 H   0  0  0  0  0  0  0  0  0  0  0  0
   -1.4666    3.1722    0.6095 C   0  0  0  0  0  0  0  0  0  0  0  0
   -2.5439    3.3427    0.6539 H   0  0  0  0  0  0  0  0  0  0  0  0
   -0.9893    3.6529    1.4644 H   0  0  0  0  0  0  0  0  0  0  0  0
   -1.0808    3.6095   -0.3129 H   0  0  0  0  0  0  0  0  0  0  0  0
  5  6  2  0  0  0  0
  5  7  1  0  0  0  0
  2  3  1  0  0  0  0
  2  4  1  0  0  0  0
  2  5  1  0  0  0  0
  1  2  1  0  0  0  0
 29 30  2  0  0  0  0
 29 31  1  0  0  0  0
 26 27  1  0  0  0  0
 26 28  2  0  0  0  0
 24 25  1  0  0  0  0
 24 26  1  0  0  0  0
 22 23  1  0  0  0  0
 22 24  2  0  0  0  0
 20 21  1  0  0  0  0
 20 22  1  0  0  0  0
 19 20  2  0  0  0  0
 19 28  1  0  0  0  0
 17 18  1  0  0  0  0
 17 19  1  0  0  0  0
 15 16  1  0  0  0  0
 15 17  1  0  0  0  0
 14 15  2  0  0  0  0
 14 28  1  0  0  0  0
 11 12  1  0  0  0  0
 11 13  1  0  0  0  0
 11 14  1  0  0  0  0
  9 10  1  0  0  0  0
  9 11  1  0  0  0  0
  9 29  1  0  0  0  0
  7  8  1  0  0  0  0
  7  9  1  0  0  0  0
 33 34  1  0  0  0  0
 33 35  1  0  0  0  0
 33 36  1  0  0  0  0
 31 32  1  0  0  0  0
 31 33  1  0  0  0  0
M  END
$$$$
default_name
  -OEChem-02102213163D

 36 37  0     1  0  0  0  0  0999 V2000
   -4.0843   -4.0736    1.2944 H   0  0  0  0  0  0  0  0  0  0  0  0
   -4.0342   -3.2816    0.5484 C   0  0  0  0  0  0  0  0  0  0  0  0
   -4.8842   -2.6126    0.6694 H   0  0  0  0  0  0  0  0  0  0  0  0
   -4.0433   -3.7186   -0.4486 H   0  0  0  0  0  0  0  0  0  0  0  0
   -2.7532   -2.5046    0.7444 C   0  0  0  0  0  0  0  0  0  0  0  0
   -1.9803   -2.8096    1.6434 O   0  0  0  0  0  0  0  0  0  0  0  0
   -2.5332   -1.4966   -0.0966 N   0  0  0  0  0  0  0  0  0  0  0  0
   -3.2312   -1.2816   -0.7936 H   0  0  0  0  0  0  0  0  0  0  0  0
   -1.3593   -0.6196   -0.0536 C   0  0  1  0  0  0  0  0  0  0  0  0
   -0.8788   -0.7266    0.9196 H   0  0  0  0  0  0  0  0  0  0  0  0
   -0.3559   -1.0533   -1.1339 C   0  0  0  0  0  0  0  0  0  0  0  0
   -0.8291   -0.9561   -2.1126 H   0  0  0  0  0  0  0  0  0  0  0  0
    0.4963   -0.3719   -1.1100 H   0  0  0  0  0  0  0  0  0  0  0  0
    0.1541   -2.4565   -1.0030 C   0  0  0  0  0  0  0  0  0  0  0  0
    1.4487   -2.8110   -0.8417 C   0  0  0  0  0  0  0  0  0  0  0  0
    2.2795   -2.1149   -0.8068 H   0  0  0  0  0  0  0  0  0  0  0  0
    1.5413   -4.1827   -0.7095 N   0  0  0  0  0  0  0  0  0  0  0  0
    2.4150   -4.6723   -0.5825 H   0  0  0  0  0  0  0  0  0  0  0  0
    0.3011   -4.7826   -0.7626 C   0  0  0  0  0  0  0  0  0  0  0  0
   -0.1247   -6.1140   -0.6514 C   0  0  0  0  0  0  0  0  0  0  0  0
    0.5922   -6.9068   -0.4957 H   0  0  0  0  0  0  0  0  0  0  0  0
   -1.4968   -6.4023   -0.7471 C   0  0  0  0  0  0  0  0  0  0  0  0
   -1.8437   -7.4235   -0.6647 H   0  0  0  0  0  0  0  0  0  0  0  0
   -2.4189   -5.3607   -0.9570 C   0  0  0  0  0  0  0  0  0  0  0  0
   -3.4729   -5.5879   -1.0384 H   0  0  0  0  0  0  0  0  0  0  0  0
   -1.9794   -4.0263   -1.0693 C   0  0  0  0  0  0  0  0  0  0  0  0
   -2.6970   -3.2373   -1.2438 H   0  0  0  0  0  0  0  0  0  0  0  0
   -0.6086   -3.7032   -0.9714 C   0  0  0  0  0  0  0  0  0  0  0  0
   -1.7617    0.8549   -0.2106 C   0  0  0  0  0  0  0  0  0  0  0  0
   -2.5726    1.1871   -1.0741 O   0  0  0  0  0  0  0  0  0  0  0  0
   -1.1941    1.7377    0.6223 N   0  0  0  0  0  0  0  0  0  0  0  0
   -0.4976    1.3916    1.2669 H   0  0  0  0  0  0  0  0  0  0  0  0
   -1.4666    3.1722    0.6095 C   0  0  0  0  0  0  0  0  0  0  0  0
   -2.5439    3.3427    0.6539 H   0  0  0  0  0  0  0  0  0  0  0  0
   -0.9893    3.6529    1.4644 H   0  0  0  0  0  0  0  0  0  0  0  0
   -1.0808    3.6095   -0.3129 H   0  0  0  0  0  0  0  0  0  0  0  0
  5  6  2  0  0  0  0
  5  7  1  0  0  0  0
  2  3  1  0  0  0  0
  2  4  1  0  0  0  0
  2  5  1  0  0  0  0
  1  2  1  0  0  0  0
 29 30  2  0  0  0  0
 29 31  1  0  0  0  0
 26 27  1  0  0  0  0
 26 28  2  0  0  0  0
 24 25  1  0  0  0  0
 24 26  1  0  0  0  0
 22 23  1  0  0  0  0
 22 24  2  0  0  0  0
 20 21  1  0  0  0  0
 20 22  1  0  0  0  0
 19 20  2  0  0  0  0
 19 28  1  0  0  0  0
 17 18  1  0  0  0  0
 17 19  1  0  0  0  0
 15 16  1  0  0  0  0
 15 17  1  0  0  0  0
 14 15  2  0  0  0  0
 14 28  1  0  0  0  0
 11 12  1  0  0  0  0
 11 13  1  0  0  0  0
 11 14  1  0  0  0  0
  9 10  1  0  0  0  0
  9 11  1  0  0  0  0
  9 29  1  0  0  0  0
  7  8  1  0  0  0  0
  7  9  1  0  0  0  0
 33 34  1  0  0  0  0
 33 35  1  0  0  0  0
 33 36  1  0  0  0  0
 31 32  1  0  0  0  0
 31 33  1  0  0  0  0
M  END
$$$$
default_name
  -OEChem-02102213163D

 36 37  0     1  0  0  0  0  0999 V2000
   -4.0843   -4.0736    1.2944 H   0  0  0  0  0  0  0  0  0  0  0  0
   -4.0342   -3.2816    0.5484 C   0  0  0  0  0  0  0  0  0  0  0  0
   -4.8842   -2.6126    0.6694 H   0  0  0  0  0  0  0  0  0  0  0  0
   -4.0433   -3.7186   -0.4486 H   0  0  0  0  0  0  0  0  0  0  0  0
   -2.7532   -2.5046    0.7444 C   0  0  0  0  0  0  0  0  0  0  0  0
   -1.9803   -2.8096    1.6434 O   0  0  0  0  0  0  0  0  0  0  0  0
   -2.5332   -1.4966   -0.0966 N   0  0  0  0  0  0  0  0  0  0  0  0
   -3.2312   -1.2816   -0.7936 H   0  0  0  0  0  0  0  0  0  0  0  0
   -1.3593   -0.6196   -0.0536 C   0  0  1  0  0  0  0  0  0  0  0  0
   -0.8788   -0.7266    0.9196 H   0  0  0  0  0  0  0  0  0  0  0  0
   -0.3559   -1.0533   -1.1339 C   0  0  0  0  0  0  0  0  0  0  0  0
   -0.8291   -0.9561   -2.1126 H   0  0  0  0  0  0  0  0  0  0  0  0
    0.4963   -0.3719   -1.1100 H   0  0  0  0  0  0  0  0  0  0  0  0
    0.1541   -2.4565   -1.0030 C   0  0  0  0  0  0  0  0  0  0  0  0
    1.3826   -2.8090   -0.5624 C   0  0  0  0  0  0  0  0  0  0  0  0
    2.1567   -2.1091   -0.2671 H   0  0  0  0  0  0  0  0  0  0  0  0
    1.4865   -4.1858   -0.5291 N   0  0  0  0  0  0  0  0  0  0  0  0
    2.3196   -4.6746   -0.2356 H   0  0  0  0  0  0  0  0  0  0  0  0
    0.3166   -4.7929   -0.9334 C   0  0  0  0  0  0  0  0  0  0  0  0
   -0.0787   -6.1339   -1.0430 C   0  0  0  0  0  0  0  0  0  0  0  0
    0.6055   -6.9290   -0.7858 H   0  0  0  0  0  0  0  0  0  0  0  0
   -1.3768   -6.4284   -1.4940 C   0  0  0  0  0  0  0  0  0  0  0  0
   -1.6989   -7.4568   -1.5859 H   0  0  0  0  0  0  0  0  0  0  0  0
   -2.2553   -5.3829   -1.8323 C   0  0  0  0  0  0  0  0  0  0  0  0
   -3.2503   -5.6142   -2.1868 H   0  0  0  0  0  0  0  0  0  0  0  0
   -1.8466   -4.0388   -1.7201 C   0  0  0  0  0  0  0  0  0  0  0  0
   -2.5269   -3.2456   -1.9960 H   0  0  0  0  0  0  0  0  0  0  0  0
   -0.5516   -3.7098   -1.2644 C   0  0  0  0  0  0  0  0  0  0  0  0
   -1.7617    0.8549   -0.2106 C   0  0  0  0  0  0  0  0  0  0  0  0
   -2.5726    1.1871   -1.0741 O   0  0  0  0  0  0  0  0  0  0  0  0
   -1.1941    1.7377    0.6223 N   0  0  0  0  0  0  0  0  0  0  0  0
   -0.4976    1.3916    1.2669 H   0  0  0  0  0  0  0  0  0  0  0  0
   -1.4666    3.1722    0.6095 C   0  0  0  0  0  0  0  0  0  0  0  0
   -2.5439    3.3427    0.6539 H   0  0  0  0  0  0  0  0  0  0  0  0
   -0.9893    3.6529    1.4644 H   0  0  0  0  0  0  0  0  0  0  0  0
   -1.0808    3.6095   -0.3129 H   0  0  0  0  0  0  0  0  0  0  0  0
  5  6  2  0  0  0  0
  5  7  1  0  0  0  0
  2  3  1  0  0  0  0
  2  4  1  0  0  0  0
  2  5  1  0  0  0  0
  1  2  1  0  0  0  0
 29 30  2  0  0  0  0
 29 31  1  0  0  0  0
 26 27  1  0  0  0  0
 26 28  2  0  0  0  0
 24 25  1  0  0  0  0
 24 26  1  0  0  0  0
 22 23  1  0  0  0  0
 22 24  2  0  0  0  0
 20 21  1  0  0  0  0
 20 22  1  0  0  0  0
 19 20  2  0  0  0  0
 19 28  1  0  0  0  0
 17 18  1  0  0  0  0
 17 19  1  0  0  0  0
 15 16  1  0  0  0  0
 15 17  1  0  0  0  0
 14 15  2  0  0  0  0
 14 28  1  0  0  0  0
 11 12  1  0  0  0  0
 11 13  1  0  0  0  0
 11 14  1  0  0  0  0
  9 10  1  0  0  0  0
  9 11  1  0  0  0  0
  9 29  1  0  0  0  0
  7  8  1  0  0  0  0
  7  9  1  0  0  0  0
 33 34  1  0  0  0  0
 33 35  1  0  0  0  0
 33 36  1  0  0  0  0
 31 32  1  0  0  0  0
 31 33  1  0  0  0  0
M  END
$$$$
default_name
  -OEChem-02102213163D

 36 37  0     1  0  0  0  0  0999 V2000
   -4.0843   -4.0736    1.2944 H   0  0  0  0  0  0  0  0  0  0  0  0
   -4.0342   -3.2816    0.5484 C   0  0  0  0  0  0  0  0  0  0  0  0
   -4.8842   -2.6126    0.6694 H   0  0  0  0  0  0  0  0  0  0  0  0
   -4.0433   -3.7186   -0.4486 H   0  0  0  0  0  0  0  0  0  0  0  0
   -2.7532   -2.5046    0.7444 C   0  0  0  0  0  0  0  0  0  0  0  0
   -1.9803   -2.8096    1.6434 O   0  0  0  0  0  0  0  0  0  0  0  0
   -2.5332   -1.4966   -0.0966 N   0  0  0  0  0  0  0  0  0  0  0  0
   -3.2312   -1.2816   -0.7936 H   0  0  0  0  0  0  0  0  0  0  0  0
   -1.3593   -0.6196   -0.0536 C   0  0  1  0  0  0  0  0  0  0  0  0
   -0.8788   -0.7266    0.9196 H   0  0  0  0  0  0  0  0  0  0  0  0
   -0.3559   -1.0533   -1.1339 C   0  0  0  0  0  0  0  0  0  0  0  0
   -0.8291   -0.9561   -2.1126 H   0  0  0  0  0  0  0  0  0  0  0  0
    0.4963   -0.3719   -1.1100 H   0  0  0  0  0  0  0  0  0  0  0  0
    0.1541   -2.4565   -1.0030 C   0  0  0  0  0  0  0  0  0  0  0  0
    1.2511   -2.8331   -0.3084 C   0  0  0  0  0  0  0  0  0  0  0  0
    1.9072   -2.1539    0.2249 H   0  0  0  0  0  0  0  0  0  0  0  0
    1.3898   -4.2059   -0.3684 N   0  0  0  0  0  0  0  0  0  0  0  0
    2.1434   -4.7095    0.0762 H   0  0  0  0  0  0  0  0  0  0  0  0
    0.3731   -4.7875   -1.0954 C   0  0  0  0  0  0  0  0  0  0  0  0
    0.0610   -6.1175   -1.4120 C   0  0  0  0  0  0  0  0  0  0  0  0
    0.6892   -6.9247   -1.0648 H   0  0  0  0  0  0  0  0  0  0  0  0
   -1.0793   -6.3850   -2.1886 C   0  0  0  0  0  0  0  0  0  0  0  0
   -1.3351   -7.4046   -2.4435 H   0  0  0  0  0  0  0  0  0  0  0  0
   -1.8846   -5.3235   -2.6402 C   0  0  0  0  0  0  0  0  0  0  0  0
   -2.7564   -5.5333   -3.2445 H   0  0  0  0  0  0  0  0  0  0  0  0
   -1.5603   -3.9905   -2.3176 C   0  0  0  0  0  0  0  0  0  0  0  0
   -2.1800   -3.1836   -2.6821 H   0  0  0  0  0  0  0  0  0  0  0  0
   -0.4253   -3.6890   -1.5342 C   0  0  0  0  0  0  0  0  0  0  0  0
   -1.7617    0.8549   -0.2106 C   0  0  0  0  0  0  0  0  0  0  0  0
   -2.5726    1.1871   -1.0741 O   0  0  0  0  0  0  0  0  0  0  0  0
   -1.1941    1.7377    0.6223 N   0  0  0  0  0  0  0  0  0  0  0  0
   -0.4976    1.3916    1.2669 H   0  0  0  0  0  0  0  0  0  0  0  0
   -1.4666    3.1722    0.6095 C   0  0  0  0  0  0  0  0  0  0  0  0
   -2.5439    3.3427    0.6539 H   0  0  0  0  0  0  0  0  0  0  0  0
   -0.9893    3.6529    1.4644 H   0  0  0  0  0  0  0  0  0  0  0  0
   -1.0808    3.6095   -0.3129 H   0  0  0  0  0  0  0  0  0  0  0  0
  5  6  2  0  0  0  0
  5  7  1  0  0  0  0
  2  3  1  0  0  0  0
  2  4  1  0  0  0  0
  2  5  1  0  0  0  0
  1  2  1  0  0  0  0
 29 30  2  0  0  0  0
 29 31  1  0  0  0  0
 26 27  1  0  0  0  0
 26 28  2  0  0  0  0
 24 25  1  0  0  0  0
 24 26  1  0  0  0  0
 22 23  1  0  0  0  0
 22 24  2  0  0  0  0
 20 21  1  0  0  0  0
 20 22  1  0  0  0  0
 19 20  2  0  0  0  0
 19 28  1  0  0  0  0
 17 18  1  0  0  0  0
 17 19  1  0  0  0  0
 15 16  1  0  0  0  0
 15 17  1  0  0  0  0
 14 15  2  0  0  0  0
 14 28  1  0  0  0  0
 11 12  1  0  0  0  0
 11 13  1  0  0  0  0
 11 14  1  0  0  0  0
  9 10  1  0  0  0  0
  9 11  1  0  0  0  0
  9 29  1  0  0  0  0
  7  8  1  0  0  0  0
  7  9  1  0  0  0  0
 33 34  1  0  0  0  0
 33 35  1  0  0  0  0
 33 36  1  0  0  0  0
 31 32  1  0  0  0  0
 31 33  1  0  0  0  0
M  END
$$$$
default_name
  -OEChem-02102213163D

 36 37  0     1  0  0  0  0  0999 V2000
   -4.0843   -4.0736    1.2944 H   0  0  0  0  0  0  0  0  0  0  0  0
   -4.0342   -3.2816    0.5484 C   0  0  0  0  0  0  0  0  0  0  0  0
   -4.8842   -2.6126    0.6694 H   0  0  0  0  0  0  0  0  0  0  0  0
   -4.0433   -3.7186   -0.4486 H   0  0  0  0  0  0  0  0  0  0  0  0
   -2.7532   -2.5046    0.7444 C   0  0  0  0  0  0  0  0  0  0  0  0
   -1.9803   -2.8096    1.6434 O   0  0  0  0  0  0  0  0  0  0  0  0
   -2.5332   -1.4966   -0.0966 N   0  0  0  0  0  0  0  0  0  0  0  0
   -3.2312   -1.2816   -0.7936 H   0  0  0  0  0  0  0  0  0  0  0  0
   -1.3593   -0.6196   -0.0536 C   0  0  1  0  0  0  0  0  0  0  0  0
   -0.8788   -0.7266    0.9196 H   0  0  0  0  0  0  0  0  0  0  0  0
   -0.3559   -1.0533   -1.1339 C   0  0  0  0  0  0  0  0  0  0  0  0
   -0.8291   -0.9561   -2.1126 H   0  0  0  0  0  0  0  0  0  0  0  0
    0.4963   -0.3719   -1.1100 H   0  0  0  0  0  0  0  0  0  0  0  0
    0.1541   -2.4565   -1.0030 C   0  0  0  0  0  0  0  0  0  0  0  0
    1.0630   -2.8817   -0.0971 C   0  0  0  0  0  0  0  0  0  0  0  0
    1.5479   -2.2461    0.6358 H   0  0  0  0  0  0  0  0  0  0  0  0
    1.2580   -4.2417   -0.2383 N   0  0  0  0  0  0  0  0  0  0  0  0
    1.8984   -4.7747    0.3317 H   0  0  0  0  0  0  0  0  0  0  0  0
    0.4668   -4.7667   -1.2378 C   0  0  0  0  0  0  0  0  0  0  0  0
    0.2850   -6.0660   -1.7330 C   0  0  0  0  0  0  0  0  0  0  0  0
    0.8375   -6.8940   -1.3135 H   0  0  0  0  0  0  0  0  0  0  0  0
   -0.6245   -6.2753   -2.7837 C   0  0  0  0  0  0  0  0  0  0  0  0
   -0.7770   -7.2704   -3.1792 H   0  0  0  0  0  0  0  0  0  0  0  0
   -1.3322   -5.1867   -3.3254 C   0  0  0  0  0  0  0  0  0  0  0  0
   -2.0248   -5.3509   -4.1393 H   0  0  0  0  0  0  0  0  0  0  0  0
   -1.1401   -3.8847   -2.8212 C   0  0  0  0  0  0  0  0  0  0  0  0
   -1.6802   -3.0554   -3.2553 H   0  0  0  0  0  0  0  0  0  0  0  0
   -0.2384   -3.6424   -1.7623 C   0  0  0  0  0  0  0  0  0  0  0  0
   -1.7617    0.8549   -0.2106 C   0  0  0  0  0  0  0  0  0  0  0  0
   -2.5726    1.1871   -1.0741 O   0  0  0  0  0  0  0  0  0  0  0  0
   -1.1941    1.7377    0.6223 N   0  0  0  0  0  0  0  0  0  0  0  0
   -0.4976    1.3916    1.2669 H   0  0  0  0  0  0  0  0  0  0  0  0
   -1.4666    3.1722    0.6095 C   0  0  0  0  0  0  0  0  0  0  0  0
   -2.5439    3.3427    0.6539 H   0  0  0  0  0  0  0  0  0  0  0  0
   -0.9893    3.6529    1.4644 H   0  0  0  0  0  0  0  0  0  0  0  0
   -1.0808    3.6095   -0.3129 H   0  0  0  0  0  0  0  0  0  0  0  0
  5  6  2  0  0  0  0
  5  7  1  0  0  0  0
  2  3  1  0  0  0  0
  2  4  1  0  0  0  0
  2  5  1  0  0  0  0
  1  2  1  0  0  0  0
 29 30  2  0  0  0  0
 29 31  1  0  0  0  0
 26 27  1  0  0  0  0
 26 28  2  0  0  0  0
 24 25  1  0  0  0  0
 24 26  1  0  0  0  0
 22 23  1  0  0  0  0
 22 24  2  0  0  0  0
 20 21  1  0  0  0  0
 20 22  1  0  0  0  0
 19 20  2  0  0  0  0
 19 28  1  0  0  0  0
 17 18  1  0  0  0  0
 17 19  1  0  0  0  0
 15 16  1  0  0  0  0
 15 17  1  0  0  0  0
 14 15  2  0  0  0  0
 14 28  1  0  0  0  0
 11 12  1  0  0  0  0
 11 13  1  0  0  0  0
 11 14  1  0  0  0  0
  9 10  1  0  0  0  0
  9 11  1  0  0  0  0
  9 29  1  0  0  0  0
  7  8  1  0  0  0  0
  7  9  1  0  0  0  0
 33 34  1  0  0  0  0
 33 35  1  0  0  0  0
 33 36  1  0  0  0  0
 31 32  1  0  0  0  0
 31 33  1  0  0  0  0
M  END
$$$$
default_name
  -OEChem-02102213163D

 36 37  0     1  0  0  0  0  0999 V2000
   -4.0843   -4.0736    1.2944 H   0  0  0  0  0  0  0  0  0  0  0  0
   -4.0342   -3.2816    0.5484 C   0  0  0  0  0  0  0  0  0  0  0  0
   -4.8842   -2.6126    0.6694 H   0  0  0  0  0  0  0  0  0  0  0  0
   -4.0433   -3.7186   -0.4486 H   0  0  0  0  0  0  0  0  0  0  0  0
   -2.7532   -2.5046    0.7444 C   0  0  0  0  0  0  0  0  0  0  0  0
   -1.9803   -2.8096    1.6434 O   0  0  0  0  0  0  0  0  0  0  0  0
   -2.5332   -1.4966   -0.0966 N   0  0  0  0  0  0  0  0  0  0  0  0
   -3.2312   -1.2816   -0.7936 H   0  0  0  0  0  0  0  0  0  0  0  0
   -1.3593   -0.6196   -0.0536 C   0  0  1  0  0  0  0  0  0  0  0  0
   -0.8788   -0.7266    0.9196 H   0  0  0  0  0  0  0  0  0  0  0  0
   -0.3559   -1.0533   -1.1339 C   0  0  0  0  0  0  0  0  0  0  0  0
   -0.8291   -0.9561   -2.1126 H   0  0  0  0  0  0  0  0  0  0  0  0
    0.4963   -0.3719   -1.1100 H   0  0  0  0  0  0  0  0  0  0  0  0
    0.1541   -2.4565   -1.0030 C   0  0  0  0  0  0  0  0  0  0  0  0
    0.8313   -2.9515    0.0572 C   0  0  0  0  0  0  0  0  0  0  0  0
    1.1035   -2.3795    0.9375 H   0  0  0  0  0  0  0  0  0  0  0  0
    1.1000   -4.2907   -0.1478 N   0  0  0  0  0  0  0  0  0  0  0  0
    1.6014   -4.8657    0.5133 H   0  0  0  0  0  0  0  0  0  0  0  0
    0.5914   -4.7320   -1.3508 C   0  0  0  0  0  0  0  0  0  0  0  0
    0.5780   -5.9830   -1.9843 C   0  0  0  0  0  0  0  0  0  0  0  0
    1.0403   -6.8391   -1.5152 H   0  0  0  0  0  0  0  0  0  0  0  0
   -0.0436   -6.1066   -3.2386 C   0  0  0  0  0  0  0  0  0  0  0  0
   -0.0627   -7.0634   -3.7427 H   0  0  0  0  0  0  0  0  0  0  0  0
   -0.6356   -4.9817   -3.8414 C   0  0  0  0  0  0  0  0  0  0  0  0
   -1.1055   -5.0794   -4.8103 H   0  0  0  0  0  0  0  0  0  0  0  0
   -0.6145   -3.7287   -3.1964 C   0  0  0  0  0  0  0  0  0  0  0  0
   -1.0614   -2.8698   -3.6766 H   0  0  0  0  0  0  0  0  0  0  0  0
   -0.0036   -3.5730   -1.9333 C   0  0  0  0  0  0  0  0  0  0  0  0
   -1.7617    0.8549   -0.2106 C   0  0  0  0  0  0  0  0  0  0  0  0
   -2.5726    1.1871   -1.0741 O   0  0  0  0  0  0  0  0  0  0  0  0
   -1.1941    1.7377    0.6223 N   0  0  0  0  0  0  0  0  0  0  0  0
   -0.4976    1.3916    1.2669 H   0  0  0  0  0  0  0  0  0  0  0  0
   -1.4666    3.1722    0.6095 C   0  0  0  0  0  0  0  0  0  0  0  0
   -2.5439    3.3427    0.6539 H   0  0  0  0  0  0  0  0  0  0  0  0
   -0.9893    3.6529    1.4644 H   0  0  0  0  0  0  0  0  0  0  0  0
   -1.0808    3.6095   -0.3129 H   0  0  0  0  0  0  0  0  0  0  0  0
  5  6  2  0  0  0  0
  5  7  1  0  0  0  0
  2  3  1  0  0  0  0
  2  4  1  0  0  0  0
  2  5  1  0  0  0  0
  1  2  1  0  0  0  0
 29 30  2  0  0  0  0
 29 31  1  0  0  0  0
 26 27  1  0  0  0  0
 26 28  2  0  0  0  0
 24 25  1  0  0  0  0
 24 26  1  0  0  0  0
 22 23  1  0  0  0  0
 22 24  2  0  0  0  0
 20 21  1  0  0  0  0
 20 22  1  0  0  0  0
 19 20  2  0  0  0  0
 19 28  1  0  0  0  0
 17 18  1  0  0  0  0
 17 19  1  0  0  0  0
 15 16  1  0  0  0  0
 15 17  1  0  0  0  0
 14 15  2  0  0  0  0
 14 28  1  0  0  0  0
 11 12  1  0  0  0  0
 11 13  1  0  0  0  0
 11 14  1  0  0  0  0
  9 10  1  0  0  0  0
  9 11  1  0  0  0  0
  9 29  1  0  0  0  0
  7  8  1  0  0  0  0
  7  9  1  0  0  0  0
 33 34  1  0  0  0  0
 33 35  1  0  0  0  0
 33 36  1  0  0  0  0
 31 32  1  0  0  0  0
 31 33  1  0  0  0  0
M  END
$$$$
default_name
  -OEChem-02102213163D

 36 37  0     1  0  0  0  0  0999 V2000
   -4.0843   -4.0736    1.2944 H   0  0  0  0  0  0  0  0  0  0  0  0
   -4.0342   -3.2816    0.5484 C   0  0  0  0  0  0  0  0  0  0  0  0
   -4.8842   -2.6126    0.6694 H   0  0  0  0  0  0  0  0  0  0  0  0
   -4.0433   -3.7186   -0.4486 H   0  0  0  0  0  0  0  0  0  0  0  0
   -2.7532   -2.5046    0.7444 C   0  0  0  0  0  0  0  0  0  0  0  0
   -1.9803   -2.8096    1.6434 O   0  0  0  0  0  0  0  0  0  0  0  0
   -2.5332   -1.4966   -0.0966 N   0  0  0  0  0  0  0  0  0  0  0  0
   -3.2312   -1.2816   -0.7936 H   0  0  0  0  0  0  0  0  0  0  0  0
   -1.3593   -0.6196   -0.0536 C   0  0  1  0  0  0  0  0  0  0  0  0
   -0.8788   -0.7266    0.9196 H   0  0  0  0  0  0  0  0  0  0  0  0
   -0.3559   -1.0533   -1.1339 C   0  0  0  0  0  0  0  0  0  0  0  0
   -0.8291   -0.9561   -2.1126 H   0  0  0  0  0  0  0  0  0  0  0  0
    0.4963   -0.3719   -1.1100 H   0  0  0  0  0  0  0  0  0  0  0  0
    0.1541   -2.4565   -1.0030 C   0  0  0  0  0  0  0  0  0  0  0  0
    0.5716   -3.0378    0.1439 C   0  0  0  0  0  0  0  0  0  0  0  0
    0.6040   -2.5450    1.1094 H   0  0  0  0  0  0  0  0  0  0  0  0
    0.9265   -4.3495   -0.1030 N   0  0  0  0  0  0  0  0  0  0  0  0
    1.2725   -4.9764    0.6087 H   0  0  0  0  0  0  0  0  0  0  0  0
    0.7383   -4.6857   -1.4267 C   0  0  0  0  0  0  0  0  0  0  0  0
    0.9201   -5.8740   -2.1487 C   0  0  0  0  0  0  0  0  0  0  0  0
    1.2839   -6.7637   -1.6560 H   0  0  0  0  0  0  0  0  0  0  0  0
    0.6240   -5.8904   -3.5224 C   0  0  0  0  0  0  0  0  0  0  0  0
    0.7591   -6.7976   -4.0957 H   0  0  0  0  0  0  0  0  0  0  0  0
    0.1576   -4.7224   -4.1529 C   0  0  0  0  0  0  0  0  0  0  0  0
   -0.0610   -4.7373   -5.2117 H   0  0  0  0  0  0  0  0  0  0  0  0
   -0.0195   -3.5331   -3.4178 C   0  0  0  0  0  0  0  0  0  0  0  0
   -0.3657   -2.6394   -3.9172 H   0  0  0  0  0  0  0  0  0  0  0  0
    0.2630   -3.4857   -2.0354 C   0  0  0  0  0  0  0  0  0  0  0  0
   -1.7617    0.8549   -0.2106 C   0  0  0  0  0  0  0  0  0  0  0  0
   -2.5726    1.1871   -1.0741 O   0  0  0  0  0  0  0  0  0  0  0  0
   -1.1941    1.7377    0.6223 N   0  0  0  0  0  0  0  0  0  0  0  0
   -0.4976    1.3916    1.2669 H   0  0  0  0  0  0  0  0  0  0  0  0
   -1.4666    3.1722    0.6095 C   0  0  0  0  0  0  0  0  0  0  0  0
   -2.5439    3.3427    0.6539 H   0  0  0  0  0  0  0  0  0  0  0  0
   -0.9893    3.6529    1.4644 H   0  0  0  0  0  0  0  0  0  0  0  0
   -1.0808    3.6095   -0.3129 H   0  0  0  0  0  0  0  0  0  0  0  0
  5  6  2  0  0  0  0
  5  7  1  0  0  0  0
  2  3  1  0  0  0  0
  2  4  1  0  0  0  0
  2  5  1  0  0  0  0
  1  2  1  0  0  0  0
 29 30  2  0  0  0  0
 29 31  1  0  0  0  0
 26 27  1  0  0  0  0
 26 28  2  0  0  0  0
 24 25  1  0  0  0  0
 24 26  1  0  0  0  0
 22 23  1  0  0  0  0
 22 24  2  0  0  0  0
 20 21  1  0  0  0  0
 20 22  1  0  0  0  0
 19 20  2  0  0  0  0
 19 28  1  0  0  0  0
 17 18  1  0  0  0  0
 17 19  1  0  0  0  0
 15 16  1  0  0  0  0
 15 17  1  0  0  0  0
 14 15  2  0  0  0  0
 14 28  1  0  0  0  0
 11 12  1  0  0  0  0
 11 13  1  0  0  0  0
 11 14  1  0  0  0  0
  9 10  1  0  0  0  0
  9 11  1  0  0  0  0
  9 29  1  0  0  0  0
  7  8  1  0  0  0  0
  7  9  1  0  0  0  0
 33 34  1  0  0  0  0
 33 35  1  0  0  0  0
 33 36  1  0  0  0  0
 31 32  1  0  0  0  0
 31 33  1  0  0  0  0
M  END
$$$$
default_name
  -OEChem-02102213163D

 36 37  0     1  0  0  0  0  0999 V2000
   -4.0843   -4.0736    1.2944 H   0  0  0  0  0  0  0  0  0  0  0  0
   -4.0342   -3.2816    0.5484 C   0  0  0  0  0  0  0  0  0  0  0  0
   -4.8842   -2.6126    0.6694 H   0  0  0  0  0  0  0  0  0  0  0  0
   -4.0433   -3.7186   -0.4486 H   0  0  0  0  0  0  0  0  0  0  0  0
   -2.7532   -2.5046    0.7444 C   0  0  0  0  0  0  0  0  0  0  0  0
   -1.9803   -2.8096    1.6434 O   0  0  0  0  0  0  0  0  0  0  0  0
   -2.5332   -1.4966   -0.0966 N   0  0  0  0  0  0  0  0  0  0  0  0
   -3.2312   -1.2816   -0.7936 H   0  0  0  0  0  0  0  0  0  0  0  0
   -1.3593   -0.6196   -0.0536 C   0  0  1  0  0  0  0  0  0  0  0  0
   -0.8788   -0.7266    0.9196 H   0  0  0  0  0  0  0  0  0  0  0  0
   -0.3559   -1.0533   -1.1339 C   0  0  0  0  0  0  0  0  0  0  0  0
   -0.8291   -0.9561   -2.1126 H   0  0  0  0  0  0  0  0  0  0  0  0
    0.4963   -0.3719   -1.1100 H   0  0  0  0  0  0  0  0  0  0  0  0
    0.1541   -2.4565   -1.0030 C   0  0  0  0  0  0  0  0  0  0  0  0
    0.3017   -3.1347    0.1572 C   0  0  0  0  0  0  0  0  0  0  0  0
    0.0837   -2.7313    1.1399 H   0  0  0  0  0  0  0  0  0  0  0  0
    0.7494   -4.4143   -0.1069 N   0  0  0  0  0  0  0  0  0  0  0  0
    0.9342   -5.0990    0.6115 H   0  0  0  0  0  0  0  0  0  0  0  0
    0.8975   -4.6310   -1.4604 C   0  0  0  0  0  0  0  0  0  0  0  0
    1.2878   -5.7465   -2.2150 C   0  0  0  0  0  0  0  0  0  0  0  0
    1.5516   -6.6729   -1.7263 H   0  0  0  0  0  0  0  0  0  0  0  0
    1.3328   -5.6416   -3.6157 C   0  0  0  0  0  0  0  0  0  0  0  0
    1.6325   -6.4913   -4.2141 H   0  0  0  0  0  0  0  0  0  0  0  0
    0.9934   -4.4267   -4.2388 C   0  0  0  0  0  0  0  0  0  0  0  0
    1.0374   -4.3478   -5.3163 H   0  0  0  0  0  0  0  0  0  0  0  0
    0.6045   -3.3112   -3.4702 C   0  0  0  0  0  0  0  0  0  0  0  0
    0.3593   -2.3800   -3.9608 H   0  0  0  0  0  0  0  0  0  0  0  0
    0.5433   -3.3862   -2.0618 C   0  0  0  0  0  0  0  0  0  0  0  0
   -1.7617    0.8549   -0.2106 C   0  0  0  0  0  0  0  0  0  0  0  0
   -2.5726    1.1871   -1.0741 O   0  0  0  0  0  0  0  0  0  0  0  0
   -1.1941    1.7377    0.6223 N   0  0  0  0  0  0  0  0  0  0  0  0
   -0.4976    1.3916    1.2669 H   0  0  0  0  0  0  0  0  0  0  0  0
   -1.4666    3.1722    0.6095 C   0  0  0  0  0  0  0  0  0  0  0  0
   -2.5439    3.3427    0.6539 H   0  0  0  0  0  0  0  0  0  0  0  0
   -0.9893    3.6529    1.4644 H   0  0  0  0  0  0  0  0  0  0  0  0
   -1.0808    3.6095   -0.3129 H   0  0  0  0  0  0  0  0  0  0  0  0
  5  6  2  0  0  0  0
  5  7  1  0  0  0  0
  2  3  1  0  0  0  0
  2  4  1  0  0  0  0
  2  5  1  0  0  0  0
  1  2  1  0  0  0  0
 29 30  2  0  0  0  0
 29 31  1  0  0  0  0
 26 27  1  0  0  0  0
 26 28  2  0  0  0  0
 24 25  1  0  0  0  0
 24 26  1  0  0  0  0
 22 23  1  0  0  0  0
 22 24  2  0  0  0  0
 20 21  1  0  0  0  0
 20 22  1  0  0  0  0
 19 20  2  0  0  0  0
 19 28  1  0  0  0  0
 17 18  1  0  0  0  0
 17 19  1  0  0  0  0
 15 16  1  0  0  0  0
 15 17  1  0  0  0  0
 14 15  2  0  0  0  0
 14 28  1  0  0  0  0
 11 12  1  0  0  0  0
 11 13  1  0  0  0  0
 11 14  1  0  0  0  0
  9 10  1  0  0  0  0
  9 11  1  0  0  0  0
  9 29  1  0  0  0  0
  7  8  1  0  0  0  0
  7  9  1  0  0  0  0
 33 34  1  0  0  0  0
 33 35  1  0  0  0  0
 33 36  1  0  0  0  0
 31 32  1  0  0  0  0
 31 33  1  0  0  0  0
M  END
$$$$
default_name
  -OEChem-02102213163D

 36 37  0     1  0  0  0  0  0999 V2000
   -4.0843   -4.0736    1.2944 H   0  0  0  0  0  0  0  0  0  0  0  0
   -4.0342   -3.2816    0.5484 C   0  0  0  0  0  0  0  0  0  0  0  0
   -4.8842   -2.6126    0.6694 H   0  0  0  0  0  0  0  0  0  0  0  0
   -4.0433   -3.7186   -0.4486 H   0  0  0  0  0  0  0  0  0  0  0  0
   -2.7532   -2.5046    0.7444 C   0  0  0  0  0  0  0  0  0  0  0  0
   -1.9803   -2.8096    1.6434 O   0  0  0  0  0  0  0  0  0  0  0  0
   -2.5332   -1.4966   -0.0966 N   0  0  0  0  0  0  0  0  0  0  0  0
   -3.2312   -1.2816   -0.7936 H   0  0  0  0  0  0  0  0  0  0  0  0
   -1.3593   -0.6196   -0.0536 C   0  0  1  0  0  0  0  0  0  0  0  0
   -0.8788   -0.7266    0.9196 H   0  0  0  0  0  0  0  0  0  0  0  0
   -0.3559   -1.0533   -1.1339 C   0  0  0  0  0  0  0  0  0  0  0  0
   -0.8291   -0.9561   -2.1126 H   0  0  0  0  0  0  0  0  0  0  0  0
    0.4963   -0.3719   -1.1100 H   0  0  0  0  0  0  0  0  0  0  0  0
    0.1541   -2.4565   -1.0030 C   0  0  0  0  0  0  0  0  0  0  0  0
    0.0400   -3.2355    0.0960 C   0  0  0  0  0  0  0  0  0  0  0  0
   -0.4221   -2.9257    1.0269 H   0  0  0  0  0  0  0  0  0  0  0  0
    0.5808   -4.4804   -0.1593 N   0  0  0  0  0  0  0  0  0  0  0  0
    0.6096   -5.2255    0.5213 H   0  0  0  0  0  0  0  0  0  0  0  0
    1.0583   -4.5715   -1.4495 C   0  0  0  0  0  0  0  0  0  0  0  0
    1.6563   -5.6092   -2.1788 C   0  0  0  0  0  0  0  0  0  0  0  0
    1.8251   -6.5731   -1.7214 H   0  0  0  0  0  0  0  0  0  0  0  0
    2.0343   -5.3769   -3.5122 C   0  0  0  0  0  0  0  0  0  0  0  0
    2.4978   -6.1652   -4.0899 H   0  0  0  0  0  0  0  0  0  0  0  0
    1.8149   -4.1145   -4.0932 C   0  0  0  0  0  0  0  0  0  0  0  0
    2.1149   -3.9376   -5.1168 H   0  0  0  0  0  0  0  0  0  0  0  0
    1.2149   -3.0782   -3.3501 C   0  0  0  0  0  0  0  0  0  0  0  0
    1.0643   -2.1091   -3.8043 H   0  0  0  0  0  0  0  0  0  0  0  0
    0.8182   -3.2816   -2.0106 C   0  0  0  0  0  0  0  0  0  0  0  0
   -1.7617    0.8549   -0.2106 C   0  0  0  0  0  0  0  0  0  0  0  0
   -2.5726    1.1871   -1.0741 O   0  0  0  0  0  0  0  0  0  0  0  0
   -1.1941    1.7377    0.6223 N   0  0  0  0  0  0  0  0  0  0  0  0
   -0.4976    1.3916    1.2669 H   0  0  0  0  0  0  0  0  0  0  0  0
   -1.4666    3.1722    0.6095 C   0  0  0  0  0  0  0  0  0  0  0  0
   -2.5439    3.3427    0.6539 H   0  0  0  0  0  0  0  0  0  0  0  0
   -0.9893    3.6529    1.4644 H   0  0  0  0  0  0  0  0  0  0  0  0
   -1.0808    3.6095   -0.3129 H   0  0  0  0  0  0  0  0  0  0  0  0
  5  6  2  0  0  0  0
  5  7  1  0  0  0  0
  2  3  1  0  0  0  0
  2  4  1  0  0  0  0
  2  5  1  0  0  0  0
  1  2  1  0  0  0  0
 29 30  2  0  0  0  0
 29 31  1  0  0  0  0
 26 27  1  0  0  0  0
 26 28  2  0  0  0  0
 24 25  1  0  0  0  0
 24 26  1  0  0  0  0
 22 23  1  0  0  0  0
 22 24  2  0  0  0  0
 20 21  1  0  0  0  0
 20 22  1  0  0  0  0
 19 20  2  0  0  0  0
 19 28  1  0  0  0  0
 17 18  1  0  0  0  0
 17 19  1  0  0  0  0
 15 16  1  0  0  0  0
 15 17  1  0  0  0  0
 14 15  2  0  0  0  0
 14 28  1  0  0  0  0
 11 12  1  0  0  0  0
 11 13  1  0  0  0  0
 11 14  1  0  0  0  0
  9 10  1  0  0  0  0
  9 11  1  0  0  0  0
  9 29  1  0  0  0  0
  7  8  1  0  0  0  0
  7  9  1  0  0  0  0
 33 34  1  0  0  0  0
 33 35  1  0  0  0  0
 33 36  1  0  0  0  0
 31 32  1  0  0  0  0
 31 33  1  0  0  0  0
M  END
$$$$
default_name
  -OEChem-02102213163D

 36 37  0     1  0  0  0  0  0999 V2000
   -4.0843   -4.0736    1.2944 H   0  0  0  0  0  0  0  0  0  0  0  0
   -4.0342   -3.2816    0.5484 C   0  0  0  0  0  0  0  0  0  0  0  0
   -4.8842   -2.6126    0.6694 H   0  0  0  0  0  0  0  0  0  0  0  0
   -4.0433   -3.7186   -0.4486 H   0  0  0  0  0  0  0  0  0  0  0  0
   -2.7532   -2.5046    0.7444 C   0  0  0  0  0  0  0  0  0  0  0  0
   -1.9803   -2.8096    1.6434 O   0  0  0  0  0  0  0  0  0  0  0  0
   -2.5332   -1.4966   -0.0966 N   0  0  0  0  0  0  0  0  0  0  0  0
   -3.2312   -1.2816   -0.7936 H   0  0  0  0  0  0  0  0  0  0  0  0
   -1.3593   -0.6196   -0.0536 C   0  0  1  0  0  0  0  0  0  0  0  0
   -0.8788   -0.7266    0.9196 H   0  0  0  0  0  0  0  0  0  0  0  0
   -0.3559   -1.0533   -1.1339 C   0  0  0  0  0  0  0  0  0  0  0  0
   -0.8291   -0.9561   -2.1126 H   0  0  0  0  0  0  0  0  0  0  0  0
    0.4963   -0.3719   -1.1100 H   0  0  0  0  0  0  0  0  0  0  0  0
    0.1541   -2.4565   -1.0030 C   0  0  0  0  0  0  0  0  0  0  0  0
   -0.1957   -3.3334   -0.0353 C   0  0  0  0  0  0  0  0  0  0  0  0
   -0.8789   -3.1149    0.7781 H   0  0  0  0  0  0  0  0  0  0  0  0
    0.4321   -4.5436   -0.2567 N   0  0  0  0  0  0  0  0  0  0  0  0
    0.3207   -5.3469    0.3445 H   0  0  0  0  0  0  0  0  0  0  0  0
    1.2096   -4.5114   -1.3947 C   0  0  0  0  0  0  0  0  0  0  0  0
    2.0002   -5.4715   -2.0424 C   0  0  0  0  0  0  0  0  0  0  0  0
    2.0859   -6.4708   -1.6416 H   0  0  0  0  0  0  0  0  0  0  0  0
    2.6809   -5.1146   -3.2189 C   0  0  0  0  0  0  0  0  0  0  0  0
    3.2962   -5.8416   -3.7315 H   0  0  0  0  0  0  0  0  0  0  0  0
    2.5661   -3.8072   -3.7260 C   0  0  0  0  0  0  0  0  0  0  0  0
    3.0981   -3.5345   -4.6269 H   0  0  0  0  0  0  0  0  0  0  0  0
    1.7701   -2.8498   -3.0656 C   0  0  0  0  0  0  0  0  0  0  0  0
    1.7012   -1.8454   -3.4585 H   0  0  0  0  0  0  0  0  0  0  0  0
    1.0689   -3.1787   -1.8853 C   0  0  0  0  0  0  0  0  0  0  0  0
   -1.7617    0.8549   -0.2106 C   0  0  0  0  0  0  0  0  0  0  0  0
   -2.5726    1.1871   -1.0741 O   0  0  0  0  0  0  0  0  0  0  0  0
   -1.1941    1.7377    0.6223 N   0  0  0  0  0  0  0  0  0  0  0  0
   -0.4976    1.3916    1.2669 H   0  0  0  0  0  0  0  0  0  0  0  0
   -1.4666    3.1722    0.6095 C   0  0  0  0  0  0  0  0  0  0  0  0
   -2.5439    3.3427    0.6539 H   0  0  0  0  0  0  0  0  0  0  0  0
   -0.9893    3.6529    1.4644 H   0  0  0  0  0  0  0  0  0  0  0  0
   -1.0808    3.6095   -0.3129 H   0  0  0  0  0  0  0  0  0  0  0  0
  5  6  2  0  0  0  0
  5  7  1  0  0  0  0
  2  3  1  0  0  0  0
  2  4  1  0  0  0  0
  2  5  1  0  0  0  0
  1  2  1  0  0  0  0
 29 30  2  0  0  0  0
 29 31  1  0  0  0  0
 26 27  1  0  0  0  0
 26 28  2  0  0  0  0
 24 25  1  0  0  0  0
 24 26  1  0  0  0  0
 22 23  1  0  0  0  0
 22 24  2  0  0  0  0
 20 21  1  0  0  0  0
 20 22  1  0  0  0  0
 19 20  2  0  0  0  0
 19 28  1  0  0  0  0
 17 18  1  0  0  0  0
 17 19  1  0  0  0  0
 15 16  1  0  0  0  0
 15 17  1  0  0  0  0
 14 15  2  0  0  0  0
 14 28  1  0  0  0  0
 11 12  1  0  0  0  0
 11 13  1  0  0  0  0
 11 14  1  0  0  0  0
  9 10  1  0  0  0  0
  9 11  1  0  0  0  0
  9 29  1  0  0  0  0
  7  8  1  0  0  0  0
  7  9  1  0  0  0  0
 33 34  1  0  0  0  0
 33 35  1  0  0  0  0
 33 36  1  0  0  0  0
 31 32  1  0  0  0  0
 31 33  1  0  0  0  0
M  END
$$$$
default_name
  -OEChem-02102213163D

 36 37  0     1  0  0  0  0  0999 V2000
   -4.0843   -4.0736    1.2944 H   0  0  0  0  0  0  0  0  0  0  0  0
   -4.0342   -3.2816    0.5484 C   0  0  0  0  0  0  0  0  0  0  0  0
   -4.8842   -2.6126    0.6694 H   0  0  0  0  0  0  0  0  0  0  0  0
   -4.0433   -3.7186   -0.4486 H   0  0  0  0  0  0  0  0  0  0  0  0
   -2.7532   -2.5046    0.7444 C   0  0  0  0  0  0  0  0  0  0  0  0
   -1.9803   -2.8096    1.6434 O   0  0  0  0  0  0  0  0  0  0  0  0
   -2.5332   -1.4966   -0.0966 N   0  0  0  0  0  0  0  0  0  0  0  0
   -3.2312   -1.2816   -0.7936 H   0  0  0  0  0  0  0  0  0  0  0  0
   -1.3593   -0.6196   -0.0536 C   0  0  1  0  0  0  0  0  0  0  0  0
   -0.8788   -0.7266    0.9196 H   0  0  0  0  0  0  0  0  0  0  0  0
   -0.3559   -1.0533   -1.1339 C   0  0  0  0  0  0  0  0  0  0  0  0
   -0.8291   -0.9561   -2.1126 H   0  0  0  0  0  0  0  0  0  0  0  0
    0.4963   -0.3719   -1.1100 H   0  0  0  0  0  0  0  0  0  0  0  0
    0.1541   -2.4565   -1.0030 C   0  0  0  0  0  0  0  0  0  0  0  0
   -0.3893   -3.4217   -0.2280 C   0  0  0  0  0  0  0  0  0  0  0  0
   -1.2555   -3.2861    0.4103 H   0  0  0  0  0  0  0  0  0  0  0  0
    0.3134   -4.5993   -0.3922 N   0  0  0  0  0  0  0  0  0  0  0  0
    0.0873   -5.4553    0.0929 H   0  0  0  0  0  0  0  0  0  0  0  0
    1.3411   -4.4548   -1.2999 C   0  0  0  0  0  0  0  0  0  0  0  0
    2.2963   -5.3427   -1.8151 C   0  0  0  0  0  0  0  0  0  0  0  0
    2.3161   -6.3732   -1.4923 H   0  0  0  0  0  0  0  0  0  0  0  0
    3.2285   -4.8723   -2.7558 C   0  0  0  0  0  0  0  0  0  0  0  0
    3.9733   -5.5425   -3.1634 H   0  0  0  0  0  0  0  0  0  0  0  0
    3.1957   -3.5258   -3.1622 C   0  0  0  0  0  0  0  0  0  0  0  0
    3.9200   -3.1661   -3.8799 H   0  0  0  0  0  0  0  0  0  0  0  0
    2.2323   -2.6418   -2.6362 C   0  0  0  0  0  0  0  0  0  0  0  0
    2.2267   -1.6067   -2.9469 H   0  0  0  0  0  0  0  0  0  0  0  0
    1.2785   -3.0848   -1.6944 C   0  0  0  0  0  0  0  0  0  0  0  0
   -1.7617    0.8549   -0.2106 C   0  0  0  0  0  0  0  0  0  0  0  0
   -2.5726    1.1871   -1.0741 O   0  0  0  0  0  0  0  0  0  0  0  0
   -1.1941    1.7377    0.6223 N   0  0  0  0  0  0  0  0  0  0  0  0
   -0.4976    1.3916    1.2669 H   0  0  0  0  0  0  0  0  0  0  0  0
   -1.4666    3.1722    0.6095 C   0  0  0  0  0  0  0  0  0  0  0  0
   -2.5439    3.3427    0.6539 H   0  0  0  0  0  0  0  0  0  0  0  0
   -0.9893    3.6529    1.4644 H   0  0  0  0  0  0  0  0  0  0  0  0
   -1.0808    3.6095   -0.3129 H   0  0  0  0  0  0  0  0  0  0  0  0
  5  6  2  0  0  0  0
  5  7  1  0  0  0  0
  2  3  1  0  0  0  0
  2  4  1  0  0  0  0
  2  5  1  0  0  0  0
  1  2  1  0  0  0  0
 29 30  2  0  0  0  0
 29 31  1  0  0  0  0
 26 27  1  0  0  0  0
 26 28  2  0  0  0  0
 24 25  1  0  0  0  0
 24 26  1  0  0  0  0
 22 23  1  0  0  0  0
 22 24  2  0  0  0  0
 20 21  1  0  0  0  0
 20 22  1  0  0  0  0
 19 20  2  0  0  0  0
 19 28  1  0  0  0  0
 17 18  1  0  0  0  0
 17 19  1  0  0  0  0
 15 16  1  0  0  0  0
 15 17  1  0  0  0  0
 14 15  2  0  0  0  0
 14 28  1  0  0  0  0
 11 12  1  0  0  0  0
 11 13  1  0  0  0  0
 11 14  1  0  0  0  0
  9 10  1  0  0  0  0
  9 11  1  0  0  0  0
  9 29  1  0  0  0  0
  7  8  1  0  0  0  0
  7  9  1  0  0  0  0
 33 34  1  0  0  0  0
 33 35  1  0  0  0  0
 33 36  1  0  0  0  0
 31 32  1  0  0  0  0
 31 33  1  0  0  0  0
M  END
$$$$
default_name
  -OEChem-02102213163D

 36 37  0     1  0  0  0  0  0999 V2000
   -4.0843   -4.0736    1.2944 H   0  0  0  0  0  0  0  0  0  0  0  0
   -4.0342   -3.2816    0.5484 C   0  0  0  0  0  0  0  0  0  0  0  0
   -4.8842   -2.6126    0.6694 H   0  0  0  0  0  0  0  0  0  0  0  0
   -4.0433   -3.7186   -0.4486 H   0  0  0  0  0  0  0  0  0  0  0  0
   -2.7532   -2.5046    0.7444 C   0  0  0  0  0  0  0  0  0  0  0  0
   -1.9803   -2.8096    1.6434 O   0  0  0  0  0  0  0  0  0  0  0  0
   -2.5332   -1.4966   -0.0966 N   0  0  0  0  0  0  0  0  0  0  0  0
   -3.2312   -1.2816   -0.7936 H   0  0  0  0  0  0  0  0  0  0  0  0
   -1.3593   -0.6196   -0.0536 C   0  0  1  0  0  0  0  0  0  0  0  0
   -0.8788   -0.7266    0.9196 H   0  0  0  0  0  0  0  0  0  0  0  0
   -0.3559   -1.0533   -1.1339 C   0  0  0  0  0  0  0  0  0  0  0  0
   -0.8291   -0.9561   -2.1126 H   0  0  0  0  0  0  0  0  0  0  0  0
    0.4963   -0.3719   -1.1100 H   0  0  0  0  0  0  0  0  0  0  0  0
    0.1541   -2.4565   -1.0030 C   0  0  0  0  0  0  0  0  0  0  0  0
   -0.5276   -3.4945   -0.4687 C   0  0  0  0  0  0  0  0  0  0  0  0
   -1.5263   -3.4276   -0.0512 H   0  0  0  0  0  0  0  0  0  0  0  0
    0.2330   -4.6439   -0.5569 N   0  0  0  0  0  0  0  0  0  0  0  0
   -0.0748   -5.5430   -0.2161 H   0  0  0  0  0  0  0  0  0  0  0  0
    1.4438   -4.4054   -1.1715 C   0  0  0  0  0  0  0  0  0  0  0  0
    2.5244   -5.2316   -1.5125 C   0  0  0  0  0  0  0  0  0  0  0  0
    2.5002   -6.2869   -1.2837 H   0  0  0  0  0  0  0  0  0  0  0  0
    3.6397   -4.6668   -2.1545 C   0  0  0  0  0  0  0  0  0  0  0  0
    4.4828   -5.2883   -2.4242 H   0  0  0  0  0  0  0  0  0  0  0  0
    3.6609   -3.2894   -2.4402 C   0  0  0  0  0  0  0  0  0  0  0  0
    4.5245   -2.8575   -2.9268 H   0  0  0  0  0  0  0  0  0  0  0  0
    2.5700   -2.4682   -2.0911 C   0  0  0  0  0  0  0  0  0  0  0  0
    2.6049   -1.4093   -2.3043 H   0  0  0  0  0  0  0  0  0  0  0  0
    1.4325   -3.0061   -1.4510 C   0  0  0  0  0  0  0  0  0  0  0  0
   -1.7617    0.8549   -0.2106 C   0  0  0  0  0  0  0  0  0  0  0  0
   -2.5726    1.1871   -1.0741 O   0  0  0  0  0  0  0  0  0  0  0  0
   -1.1941    1.7377    0.6223 N   0  0  0  0  0  0  0  0  0  0  0  0
   -0.4976    1.3916    1.2669 H   0  0  0  0  0  0  0  0  0  0  0  0
   -1.4666    3.1722    0.6095 C   0  0  0  0  0  0  0  0  0  0  0  0
   -2.5439    3.3427    0.6539 H   0  0  0  0  0  0  0  0  0  0  0  0
   -0.9893    3.6529    1.4644 H   0  0  0  0  0  0  0  0  0  0  0  0
   -1.0808    3.6095   -0.3129 H   0  0  0  0  0  0  0  0  0  0  0  0
  5  6  2  0  0  0  0
  5  7  1  0  0  0  0
  2  3  1  0  0  0  0
  2  4  1  0  0  0  0
  2  5  1  0  0  0  0
  1  2  1  0  0  0  0
 29 30  2  0  0  0  0
 29 31  1  0  0  0  0
 26 27  1  0  0  0  0
 26 28  2  0  0  0  0
 24 25  1  0  0  0  0
 24 26  1  0  0  0  0
 22 23  1  0  0  0  0
 22 24  2  0  0  0  0
 20 21  1  0  0  0  0
 20 22  1  0  0  0  0
 19 20  2  0  0  0  0
 19 28  1  0  0  0  0
 17 18  1  0  0  0  0
 17 19  1  0  0  0  0
 15 16  1  0  0  0  0
 15 17  1  0  0  0  0
 14 15  2  0  0  0  0
 14 28  1  0  0  0  0
 11 12  1  0  0  0  0
 11 13  1  0  0  0  0
 11 14  1  0  0  0  0
  9 10  1  0  0  0  0
  9 11  1  0  0  0  0
  9 29  1  0  0  0  0
  7  8  1  0  0  0  0
  7  9  1  0  0  0  0
 33 34  1  0  0  0  0
 33 35  1  0  0  0  0
 33 36  1  0  0  0  0
 31 32  1  0  0  0  0
 31 33  1  0  0  0  0
M  END
$$$$
default_name
  -OEChem-02102213163D

 36 37  0     1  0  0  0  0  0999 V2000
   -4.0843   -4.0736    1.2944 H   0  0  0  0  0  0  0  0  0  0  0  0
   -4.0342   -3.2816    0.5484 C   0  0  0  0  0  0  0  0  0  0  0  0
   -4.8842   -2.6126    0.6694 H   0  0  0  0  0  0  0  0  0  0  0  0
   -4.0433   -3.7186   -0.4486 H   0  0  0  0  0  0  0  0  0  0  0  0
   -2.7532   -2.5046    0.7444 C   0  0  0  0  0  0  0  0  0  0  0  0
   -1.9803   -2.8096    1.6434 O   0  0  0  0  0  0  0  0  0  0  0  0
   -2.5332   -1.4966   -0.0966 N   0  0  0  0  0  0  0  0  0  0  0  0
   -3.2312   -1.2816   -0.7936 H   0  0  0  0  0  0  0  0  0  0  0  0
   -1.3593   -0.6196   -0.0536 C   0  0  1  0  0  0  0  0  0  0  0  0
   -0.8788   -0.7266    0.9196 H   0  0  0  0  0  0  0  0  0  0  0  0
   -0.3559   -1.0533   -1.1339 C   0  0  0  0  0  0  0  0  0  0  0  0
   -0.8291   -0.9561   -2.1126 H   0  0  0  0  0  0  0  0  0  0  0  0
    0.4963   -0.3719   -1.1100 H   0  0  0  0  0  0  0  0  0  0  0  0
    0.1541   -2.4565   -1.0030 C   0  0  0  0  0  0  0  0  0  0  0  0
   -0.6013   -3.5467   -0.7412 C   0  0  0  0  0  0  0  0  0  0  0  0
   -1.6728   -3.5297   -0.5751 H   0  0  0  0  0  0  0  0  0  0  0  0
    0.1961   -4.6743   -0.7393 N   0  0  0  0  0  0  0  0  0  0  0  0
   -0.1545   -5.6042   -0.5617 H   0  0  0  0  0  0  0  0  0  0  0  0
    1.5108   -4.3668   -1.0181 C   0  0  0  0  0  0  0  0  0  0  0  0
    2.6688   -5.1458   -1.1552 C   0  0  0  0  0  0  0  0  0  0  0  0
    2.6254   -6.2177   -1.0300 H   0  0  0  0  0  0  0  0  0  0  0  0
    3.8865   -4.5119   -1.4559 C   0  0  0  0  0  0  0  0  0  0  0  0
    4.7901   -5.0964   -1.5643 H   0  0  0  0  0  0  0  0  0  0  0  0
    3.9299   -3.1141   -1.6094 C   0  0  0  0  0  0  0  0  0  0  0  0
    4.8705   -2.6297   -1.8325 H   0  0  0  0  0  0  0  0  0  0  0  0
    2.7602   -2.3409   -1.4674 C   0  0  0  0  0  0  0  0  0  0  0  0
    2.8100   -1.2666   -1.5747 H   0  0  0  0  0  0  0  0  0  0  0  0
    1.5205   -2.9480   -1.1717 C   0  0  0  0  0  0  0  0  0  0  0  0
   -1.7617    0.8549   -0.2106 C   0  0  0  0  0  0  0  0  0  0  0  0
   -2.5726    1.1871   -1.0741 O   0  0  0  0  0  0  0  0  0  0  0  0
   -1.1941    1.7377    0.6223 N   0  0  0  0  0  0  0  0  0  0  0  0
   -0.4976    1.3916    1.2669 H   0  0  0  0  0  0  0  0  0  0  0  0
   -1.4666    3.1722    0.6095 C   0  0  0  0  0  0  0  0  0  0  0  0
   -2.5439    3.3427    0.6539 H   0  0  0  0  0  0  0  0  0  0  0  0
   -0.9893    3.6529    1.4644 H   0  0  0  0  0  0  0  0  0  0  0  0
   -1.0808    3.6095   -0.3129 H   0  0  0  0  0  0  0  0  0  0  0  0
  5  6  2  0  0  0  0
  5  7  1  0  0  0  0
  2  3  1  0  0  0  0
  2  4  1  0  0  0  0
  2  5  1  0  0  0  0
  1  2  1  0  0  0  0
 29 30  2  0  0  0  0
 29 31  1  0  0  0  0
 26 27  1  0  0  0  0
 26 28  2  0  0  0  0
 24 25  1  0  0  0  0
 24 26  1  0  0  0  0
 22 23  1  0  0  0  0
 22 24  2  0  0  0  0
 20 21  1  0  0  0  0
 20 22  1  0  0  0  0
 19 20  2  0  0  0  0
 19 28  1  0  0  0  0
 17 18  1  0  0  0  0
 17 19  1  0  0  0  0
 15 16  1  0  0  0  0
 15 17  1  0  0  0  0
 14 15  2  0  0  0  0
 14 28  1  0  0  0  0
 11 12  1  0  0  0  0
 11 13  1  0  0  0  0
 11 14  1  0  0  0  0
  9 10  1  0  0  0  0
  9 11  1  0  0  0  0
  9 29  1  0  0  0  0
  7  8  1  0  0  0  0
  7  9  1  0  0  0  0
 33 34  1  0  0  0  0
 33 35  1  0  0  0  0
 33 36  1  0  0  0  0
 31 32  1  0  0  0  0
 31 33  1  0  0  0  0
M  END
$$$$
default_name
  -OEChem-02102213163D

 36 37  0     1  0  0  0  0  0999 V2000
   -4.0843   -4.0736    1.2944 H   0  0  0  0  0  0  0  0  0  0  0  0
   -4.0342   -3.2816    0.5484 C   0  0  0  0  0  0  0  0  0  0  0  0
   -4.8842   -2.6126    0.6694 H   0  0  0  0  0  0  0  0  0  0  0  0
   -4.0433   -3.7186   -0.4486 H   0  0  0  0  0  0  0  0  0  0  0  0
   -2.7532   -2.5046    0.7444 C   0  0  0  0  0  0  0  0  0  0  0  0
   -1.9803   -2.8096    1.6434 O   0  0  0  0  0  0  0  0  0  0  0  0
   -2.5332   -1.4966   -0.0966 N   0  0  0  0  0  0  0  0  0  0  0  0
   -3.2312   -1.2816   -0.7936 H   0  0  0  0  0  0  0  0  0  0  0  0
   -1.3593   -0.6196   -0.0536 C   0  0  1  0  0  0  0  0  0  0  0  0
   -0.8788   -0.7266    0.9196 H   0  0  0  0  0  0  0  0  0  0  0  0
   -0.3559   -1.0533   -1.1339 C   0  0  0  0  0  0  0  0  0  0  0  0
   -0.8291   -0.9561   -2.1126 H   0  0  0  0  0  0  0  0  0  0  0  0
    0.4963   -0.3719   -1.1100 H   0  0  0  0  0  0  0  0  0  0  0  0
    0.1541   -2.4565   -1.0030 C   0  0  0  0  0  0  0  0  0  0  0  0
   -0.6052   -3.5748   -1.0268 C   0  0  0  0  0  0  0  0  0  0  0  0
   -1.6851   -3.5855   -1.1257 H   0  0  0  0  0  0  0  0  0  0  0  0
    0.2055   -4.6885   -0.9272 N   0  0  0  0  0  0  0  0  0  0  0  0
   -0.1464   -5.6347   -0.9201 H   0  0  0  0  0  0  0  0  0  0  0  0
    1.5376   -4.3414   -0.8504 C   0  0  0  0  0  0  0  0  0  0  0  0
    2.7197   -5.0911   -0.7675 C   0  0  0  0  0  0  0  0  0  0  0  0
    2.6833   -6.1704   -0.7485 H   0  0  0  0  0  0  0  0  0  0  0  0
    3.9521   -4.4182   -0.7077 C   0  0  0  0  0  0  0  0  0  0  0  0
    4.8742   -4.9798   -0.6424 H   0  0  0  0  0  0  0  0  0  0  0  0
    3.9845   -3.0118   -0.7261 C   0  0  0  0  0  0  0  0  0  0  0  0
    4.9343   -2.4981   -0.6715 H   0  0  0  0  0  0  0  0  0  0  0  0
    2.7899   -2.2685   -0.8077 C   0  0  0  0  0  0  0  0  0  0  0  0
    2.8281   -1.1885   -0.8076 H   0  0  0  0  0  0  0  0  0  0  0  0
    1.5365   -2.9146   -0.8754 C   0  0  0  0  0  0  0  0  0  0  0  0
   -1.7617    0.8549   -0.2106 C   0  0  0  0  0  0  0  0  0  0  0  0
   -2.5726    1.1871   -1.0741 O   0  0  0  0  0  0  0  0  0  0  0  0
   -1.1941    1.7377    0.6223 N   0  0  0  0  0  0  0  0  0  0  0  0
   -0.4976    1.3916    1.2669 H   0  0  0  0  0  0  0  0  0  0  0  0
   -1.4666    3.1722    0.6095 C   0  0  0  0  0  0  0  0  0  0  0  0
   -2.5439    3.3427    0.6539 H   0  0  0  0  0  0  0  0  0  0  0  0
   -0.9893    3.6529    1.4644 H   0  0  0  0  0  0  0  0  0  0  0  0
   -1.0808    3.6095   -0.3129 H   0  0  0  0  0  0  0  0  0  0  0  0
  5  6  2  0  0  0  0
  5  7  1  0  0  0  0
  2  3  1  0  0  0  0
  2  4  1  0  0  0  0
  2  5  1  0  0  0  0
  1  2  1  0  0  0  0
 29 30  2  0  0  0  0
 29 31  1  0  0  0  0
 26 27  1  0  0  0  0
 26 28  2  0  0  0  0
 24 25  1  0  0  0  0
 24 26  1  0  0  0  0
 22 23  1  0  0  0  0
 22 24  2  0  0  0  0
 20 21  1  0  0  0  0
 20 22  1  0  0  0  0
 19 20  2  0  0  0  0
 19 28  1  0  0  0  0
 17 18  1  0  0  0  0
 17 19  1  0  0  0  0
 15 16  1  0  0  0  0
 15 17  1  0  0  0  0
 14 15  2  0  0  0  0
 14 28  1  0  0  0  0
 11 12  1  0  0  0  0
 11 13  1  0  0  0  0
 11 14  1  0  0  0  0
  9 10  1  0  0  0  0
  9 11  1  0  0  0  0
  9 29  1  0  0  0  0
  7  8  1  0  0  0  0
  7  9  1  0  0  0  0
 33 34  1  0  0  0  0
 33 35  1  0  0  0  0
 33 36  1  0  0  0  0
 31 32  1  0  0  0  0
 31 33  1  0  0  0  0
M  END
$$$$
default_name
  -OEChem-02102213163D

 36 37  0     1  0  0  0  0  0999 V2000
   -4.0843   -4.0736    1.2944 H   0  0  0  0  0  0  0  0  0  0  0  0
   -4.0342   -3.2816    0.5484 C   0  0  0  0  0  0  0  0  0  0  0  0
   -4.8842   -2.6126    0.6694 H   0  0  0  0  0  0  0  0  0  0  0  0
   -4.0433   -3.7186   -0.4486 H   0  0  0  0  0  0  0  0  0  0  0  0
   -2.7532   -2.5046    0.7444 C   0  0  0  0  0  0  0  0  0  0  0  0
   -1.9803   -2.8096    1.6434 O   0  0  0  0  0  0  0  0  0  0  0  0
   -2.5332   -1.4966   -0.0966 N   0  0  0  0  0  0  0  0  0  0  0  0
   -3.2312   -1.2816   -0.7936 H   0  0  0  0  0  0  0  0  0  0  0  0
   -1.3593   -0.6196   -0.0536 C   0  0  1  0  0  0  0  0  0  0  0  0
   -0.8788   -0.7266    0.9196 H   0  0  0  0  0  0  0  0  0  0  0  0
   -0.3559   -1.0533   -1.1339 C   0  0  0  0  0  0  0  0  0  0  0  0
   -0.8291   -0.9561   -2.1126 H   0  0  0  0  0  0  0  0  0  0  0  0
    0.4963   -0.3719   -1.1100 H   0  0  0  0  0  0  0  0  0  0  0  0
    0.1541   -2.4565   -1.0030 C   0  0  0  0  0  0  0  0  0  0  0  0
   -0.5391   -3.5768   -1.3061 C   0  0  0  0  0  0  0  0  0  0  0  0
   -1.5623   -3.5913   -1.6653 H   0  0  0  0  0  0  0  0  0  0  0  0
    0.2603   -4.6854   -1.1076 N   0  0  0  0  0  0  0  0  0  0  0  0
   -0.0509   -5.6324   -1.2671 H   0  0  0  0  0  0  0  0  0  0  0  0
    1.5221   -4.3311   -0.6797 C   0  0  0  0  0  0  0  0  0  0  0  0
    2.6738   -5.0712   -0.3758 C   0  0  0  0  0  0  0  0  0  0  0  0
    2.6700   -6.1482   -0.4584 H   0  0  0  0  0  0  0  0  0  0  0  0
    3.8321   -4.3922    0.0392 C   0  0  0  0  0  0  0  0  0  0  0  0
    4.7294   -4.9465    0.2788 H   0  0  0  0  0  0  0  0  0  0  0  0
    3.8209   -2.9896    0.1492 C   0  0  0  0  0  0  0  0  0  0  0  0
    4.7117   -2.4719    0.4769 H   0  0  0  0  0  0  0  0  0  0  0  0
    2.6570   -2.2561   -0.1569 C   0  0  0  0  0  0  0  0  0  0  0  0
    2.6580   -1.1801   -0.0554 H   0  0  0  0  0  0  0  0  0  0  0  0
    1.4794   -2.9080   -0.5824 C   0  0  0  0  0  0  0  0  0  0  0  0
   -1.7617    0.8549   -0.2106 C   0  0  0  0  0  0  0  0  0  0  0  0
   -2.5726    1.1871   -1.0741 O   0  0  0  0  0  0  0  0  0  0  0  0
   -1.1941    1.7377    0.6223 N   0  0  0  0  0  0  0  0  0  0  0  0
   -0.4976    1.3916    1.2669 H   0  0  0  0  0  0  0  0  0  0  0  0
   -1.4666    3.1722    0.6095 C   0  0  0  0  0  0  0  0  0  0  0  0
   -2.5439    3.3427    0.6539 H   0  0  0  0  0  0  0  0  0  0  0  0
   -0.9893    3.6529    1.4644 H   0  0  0  0  0  0  0  0  0  0  0  0
   -1.0808    3.6095   -0.3129 H   0  0  0  0  0  0  0  0  0  0  0  0
  5  6  2  0  0  0  0
  5  7  1  0  0  0  0
  2  3  1  0  0  0  0
  2  4  1  0  0  0  0
  2  5  1  0  0  0  0
  1  2  1  0  0  0  0
 29 30  2  0  0  0  0
 29 31  1  0  0  0  0
 26 27  1  0  0  0  0
 26 28  2  0  0  0  0
 24 25  1  0  0  0  0
 24 26  1  0  0  0  0
 22 23  1  0  0  0  0
 22 24  2  0  0  0  0
 20 21  1  0  0  0  0
 20 22  1  0  0  0  0
 19 20  2  0  0  0  0
 19 28  1  0  0  0  0
 17 18  1  0  0  0  0
 17 19  1  0  0  0  0
 15 16  1  0  0  0  0
 15 17  1  0  0  0  0
 14 15  2  0  0  0  0
 14 28  1  0  0  0  0
 11 12  1  0  0  0  0
 11 13  1  0  0  0  0
 11 14  1  0  0  0  0
  9 10  1  0  0  0  0
  9 11  1  0  0  0  0
  9 29  1  0  0  0  0
  7  8  1  0  0  0  0
  7  9  1  0  0  0  0
 33 34  1  0  0  0  0
 33 35  1  0  0  0  0
 33 36  1  0  0  0  0
 31 32  1  0  0  0  0
 31 33  1  0  0  0  0
M  END
$$$$
default_name
  -OEChem-02102213163D

 36 37  0     1  0  0  0  0  0999 V2000
   -4.0843   -4.0736    1.2944 H   0  0  0  0  0  0  0  0  0  0  0  0
   -4.0342   -3.2816    0.5484 C   0  0  0  0  0  0  0  0  0  0  0  0
   -4.8842   -2.6126    0.6694 H   0  0  0  0  0  0  0  0  0  0  0  0
   -4.0433   -3.7186   -0.4486 H   0  0  0  0  0  0  0  0  0  0  0  0
   -2.7532   -2.5046    0.7444 C   0  0  0  0  0  0  0  0  0  0  0  0
   -1.9803   -2.8096    1.6434 O   0  0  0  0  0  0  0  0  0  0  0  0
   -2.5332   -1.4966   -0.0966 N   0  0  0  0  0  0  0  0  0  0  0  0
   -3.2312   -1.2816   -0.7936 H   0  0  0  0  0  0  0  0  0  0  0  0
   -1.3593   -0.6196   -0.0536 C   0  0  1  0  0  0  0  0  0  0  0  0
   -0.8788   -0.7266    0.9196 H   0  0  0  0  0  0  0  0  0  0  0  0
   -0.3559   -1.0533   -1.1339 C   0  0  0  0  0  0  0  0  0  0  0  0
   -0.8291   -0.9561   -2.1126 H   0  0  0  0  0  0  0  0  0  0  0  0
    0.4963   -0.3719   -1.1100 H   0  0  0  0  0  0  0  0  0  0  0  0
    0.1541   -2.4565   -1.0030 C   0  0  0  0  0  0  0  0  0  0  0  0
   -0.4076   -3.5527   -1.5601 C   0  0  0  0  0  0  0  0  0  0  0  0
   -1.3128   -3.5465   -2.1574 H   0  0  0  0  0  0  0  0  0  0  0  0
    0.3570   -4.6652   -1.2683 N   0  0  0  0  0  0  0  0  0  0  0  0
    0.1253   -5.5974   -1.5789 H   0  0  0  0  0  0  0  0  0  0  0  0
    1.4656   -4.3365   -0.5176 C   0  0  0  0  0  0  0  0  0  0  0  0
    2.5340   -5.0876   -0.0069 C   0  0  0  0  0  0  0  0  0  0  0  0
    2.5863   -6.1525   -0.1794 H   0  0  0  0  0  0  0  0  0  0  0  0
    3.5346   -4.4355    0.7339 C   0  0  0  0  0  0  0  0  0  0  0  0
    4.3656   -4.9987    1.1364 H   0  0  0  0  0  0  0  0  0  0  0  0
    3.4502   -3.0490    0.9570 C   0  0  0  0  0  0  0  0  0  0  0  0
    4.2178   -2.5527    1.5346 H   0  0  0  0  0  0  0  0  0  0  0  0
    2.3708   -2.3044    0.4406 C   0  0  0  0  0  0  0  0  0  0  0  0
    2.3112   -1.2422    0.6307 H   0  0  0  0  0  0  0  0  0  0  0  0
    1.3531   -2.9287   -0.3127 C   0  0  0  0  0  0  0  0  0  0  0  0
   -1.7617    0.8549   -0.2106 C   0  0  0  0  0  0  0  0  0  0  0  0
   -2.5726    1.1871   -1.0741 O   0  0  0  0  0  0  0  0  0  0  0  0
   -1.1941    1.7377    0.6223 N   0  0  0  0  0  0  0  0  0  0  0  0
   -0.4976    1.3916    1.2669 H   0  0  0  0  0  0  0  0  0  0  0  0
   -1.4666    3.1722    0.6095 C   0  0  0  0  0  0  0  0  0  0  0  0
   -2.5439    3.3427    0.6539 H   0  0  0  0  0  0  0  0  0  0  0  0
   -0.9893    3.6529    1.4644 H   0  0  0  0  0  0  0  0  0  0  0  0
   -1.0808    3.6095   -0.3129 H   0  0  0  0  0  0  0  0  0  0  0  0
  5  6  2  0  0  0  0
  5  7  1  0  0  0  0
  2  3  1  0  0  0  0
  2  4  1  0  0  0  0
  2  5  1  0  0  0  0
  1  2  1  0  0  0  0
 29 30  2  0  0  0  0
 29 31  1  0  0  0  0
 26 27  1  0  0  0  0
 26 28  2  0  0  0  0
 24 25  1  0  0  0  0
 24 26  1  0  0  0  0
 22 23  1  0  0  0  0
 22 24  2  0  0  0  0
 20 21  1  0  0  0  0
 20 22  1  0  0  0  0
 19 20  2  0  0  0  0
 19 28  1  0  0  0  0
 17 18  1  0  0  0  0
 17 19  1  0  0  0  0
 15 16  1  0  0  0  0
 15 17  1  0  0  0  0
 14 15  2  0  0  0  0
 14 28  1  0  0  0  0
 11 12  1  0  0  0  0
 11 13  1  0  0  0  0
 11 14  1  0  0  0  0
  9 10  1  0  0  0  0
  9 11  1  0  0  0  0
  9 29  1  0  0  0  0
  7  8  1  0  0  0  0
  7  9  1  0  0  0  0
 33 34  1  0  0  0  0
 33 35  1  0  0  0  0
 33 36  1  0  0  0  0
 31 32  1  0  0  0  0
 31 33  1  0  0  0  0
M  END
$$$$
default_name
  -OEChem-02102213163D

 36 37  0     1  0  0  0  0  0999 V2000
   -4.0843   -4.0736    1.2944 H   0  0  0  0  0  0  0  0  0  0  0  0
   -4.0342   -3.2816    0.5484 C   0  0  0  0  0  0  0  0  0  0  0  0
   -4.8842   -2.6126    0.6694 H   0  0  0  0  0  0  0  0  0  0  0  0
   -4.0433   -3.7186   -0.4486 H   0  0  0  0  0  0  0  0  0  0  0  0
   -2.7532   -2.5046    0.7444 C   0  0  0  0  0  0  0  0  0  0  0  0
   -1.9803   -2.8096    1.6434 O   0  0  0  0  0  0  0  0  0  0  0  0
   -2.5332   -1.4966   -0.0966 N   0  0  0  0  0  0  0  0  0  0  0  0
   -3.2312   -1.2816   -0.7936 H   0  0  0  0  0  0  0  0  0  0  0  0
   -1.3593   -0.6196   -0.0536 C   0  0  1  0  0  0  0  0  0  0  0  0
   -0.8788   -0.7266    0.9196 H   0  0  0  0  0  0  0  0  0  0  0  0
   -0.3559   -1.0533   -1.1339 C   0  0  0  0  0  0  0  0  0  0  0  0
   -0.8291   -0.9561   -2.1126 H   0  0  0  0  0  0  0  0  0  0  0  0
    0.4963   -0.3719   -1.1100 H   0  0  0  0  0  0  0  0  0  0  0  0
    0.1541   -2.4565   -1.0030 C   0  0  0  0  0  0  0  0  0  0  0  0
   -0.2195   -3.5041   -1.7715 C   0  0  0  0  0  0  0  0  0  0  0  0
   -0.9535   -3.4542   -2.5683 H   0  0  0  0  0  0  0  0  0  0  0  0
    0.4888   -4.6295   -1.3983 N   0  0  0  0  0  0  0  0  0  0  0  0
    0.3702   -5.5322   -1.8343 H   0  0  0  0  0  0  0  0  0  0  0  0
    1.3719   -4.3573   -0.3752 C   0  0  0  0  0  0  0  0  0  0  0  0
    2.3100   -5.1390    0.3141 C   0  0  0  0  0  0  0  0  0  0  0  0
    2.4380   -6.1832    0.0693 H   0  0  0  0  0  0  0  0  0  0  0  0
    3.0798   -4.5452    1.3289 C   0  0  0  0  0  0  0  0  0  0  0  0
    3.8075   -5.1329    1.8721 H   0  0  0  0  0  0  0  0  0  0  0  0
    2.8978   -3.1858    1.6423 C   0  0  0  0  0  0  0  0  0  0  0  0
    3.4863   -2.7351    2.4294 H   0  0  0  0  0  0  0  0  0  0  0  0
    1.9505   -2.4101    0.9442 C   0  0  0  0  0  0  0  0  0  0  0  0
    1.8113   -1.3703    1.2039 H   0  0  0  0  0  0  0  0  0  0  0  0
    1.1662   -2.9754   -0.0845 C   0  0  0  0  0  0  0  0  0  0  0  0
   -1.7617    0.8549   -0.2106 C   0  0  0  0  0  0  0  0  0  0  0  0
   -2.5726    1.1871   -1.0741 O   0  0  0  0  0  0  0  0  0  0  0  0
   -1.1941    1.7377    0.6223 N   0  0  0  0  0  0  0  0  0  0  0  0
   -0.4976    1.3916    1.2669 H   0  0  0  0  0  0  0  0  0  0  0  0
   -1.4666    3.1722    0.6095 C   0  0  0  0  0  0  0  0  0  0  0  0
   -2.5439    3.3427    0.6539 H   0  0  0  0  0  0  0  0  0  0  0  0
   -0.9893    3.6529    1.4644 H   0  0  0  0  0  0  0  0  0  0  0  0
   -1.0808    3.6095   -0.3129 H   0  0  0  0  0  0  0  0  0  0  0  0
  5  6  2  0  0  0  0
  5  7  1  0  0  0  0
  2  3  1  0  0  0  0
  2  4  1  0  0  0  0
  2  5  1  0  0  0  0
  1  2  1  0  0  0  0
 29 30  2  0  0  0  0
 29 31  1  0  0  0  0
 26 27  1  0  0  0  0
 26 28  2  0  0  0  0
 24 25  1  0  0  0  0
 24 26  1  0  0  0  0
 22 23  1  0  0  0  0
 22 24  2  0  0  0  0
 20 21  1  0  0  0  0
 20 22  1  0  0  0  0
 19 20  2  0  0  0  0
 19 28  1  0  0  0  0
 17 18  1  0  0  0  0
 17 19  1  0  0  0  0
 15 16  1  0  0  0  0
 15 17  1  0  0  0  0
 14 15  2  0  0  0  0
 14 28  1  0  0  0  0
 11 12  1  0  0  0  0
 11 13  1  0  0  0  0
 11 14  1  0  0  0  0
  9 10  1  0  0  0  0
  9 11  1  0  0  0  0
  9 29  1  0  0  0  0
  7  8  1  0  0  0  0
  7  9  1  0  0  0  0
 33 34  1  0  0  0  0
 33 35  1  0  0  0  0
 33 36  1  0  0  0  0
 31 32  1  0  0  0  0
 31 33  1  0  0  0  0
M  END
$$$$
default_name
  -OEChem-02102213163D

 36 37  0     1  0  0  0  0  0999 V2000
   -4.0843   -4.0736    1.2944 H   0  0  0  0  0  0  0  0  0  0  0  0
   -4.0342   -3.2816    0.5484 C   0  0  0  0  0  0  0  0  0  0  0  0
   -4.8842   -2.6126    0.6694 H   0  0  0  0  0  0  0  0  0  0  0  0
   -4.0433   -3.7186   -0.4486 H   0  0  0  0  0  0  0  0  0  0  0  0
   -2.7532   -2.5046    0.7444 C   0  0  0  0  0  0  0  0  0  0  0  0
   -1.9803   -2.8096    1.6434 O   0  0  0  0  0  0  0  0  0  0  0  0
   -2.5332   -1.4966   -0.0966 N   0  0  0  0  0  0  0  0  0  0  0  0
   -3.2312   -1.2816   -0.7936 H   0  0  0  0  0  0  0  0  0  0  0  0
   -1.3593   -0.6196   -0.0536 C   0  0  1  0  0  0  0  0  0  0  0  0
   -0.8788   -0.7266    0.9196 H   0  0  0  0  0  0  0  0  0  0  0  0
   -0.3559   -1.0533   -1.1339 C   0  0  0  0  0  0  0  0  0  0  0  0
   -0.8291   -0.9561   -2.1126 H   0  0  0  0  0  0  0  0  0  0  0  0
    0.4963   -0.3719   -1.1100 H   0  0  0  0  0  0  0  0  0  0  0  0
    0.1541   -2.4565   -1.0030 C   0  0  0  0  0  0  0  0  0  0  0  0
    0.0122   -3.4342   -1.9257 C   0  0  0  0  0  0  0  0  0  0  0  0
   -0.5091   -3.3208   -2.8700 H   0  0  0  0  0  0  0  0  0  0  0  0
    0.6468   -4.5805   -1.4888 N   0  0  0  0  0  0  0  0  0  0  0  0
    0.6673   -5.4412   -2.0159 H   0  0  0  0  0  0  0  0  0  0  0  0
    1.2474   -4.3920   -0.2622 C   0  0  0  0  0  0  0  0  0  0  0  0
    2.0170   -5.2221    0.5654 C   0  0  0  0  0  0  0  0  0  0  0  0
    2.2352   -6.2381    0.2710 H   0  0  0  0  0  0  0  0  0  0  0  0
    2.4989   -4.7139    1.7839 C   0  0  0  0  0  0  0  0  0  0  0  0
    3.0933   -5.3399    2.4356 H   0  0  0  0  0  0  0  0  0  0  0  0
    2.2012   -3.3908    2.1582 C   0  0  0  0  0  0  0  0  0  0  0  0
    2.5669   -3.0066    3.1004 H   0  0  0  0  0  0  0  0  0  0  0  0
    1.4250   -2.5661    1.3194 C   0  0  0  0  0  0  0  0  0  0  0  0
    1.1925   -1.5560    1.6252 H   0  0  0  0  0  0  0  0  0  0  0  0
    0.9314   -3.0447    0.0864 C   0  0  0  0  0  0  0  0  0  0  0  0
   -1.7617    0.8549   -0.2106 C   0  0  0  0  0  0  0  0  0  0  0  0
   -2.5726    1.1871   -1.0741 O   0  0  0  0  0  0  0  0  0  0  0  0
   -1.1941    1.7377    0.6223 N   0  0  0  0  0  0  0  0  0  0  0  0
   -0.4976    1.3916    1.2669 H   0  0  0  0  0  0  0  0  0  0  0  0
   -1.4666    3.1722    0.6095 C   0  0  0  0  0  0  0  0  0  0  0  0
   -2.5439    3.3427    0.6539 H   0  0  0  0  0  0  0  0  0  0  0  0
   -0.9893    3.6529    1.4644 H   0  0  0  0  0  0  0  0  0  0  0  0
   -1.0808    3.6095   -0.3129 H   0  0  0  0  0  0  0  0  0  0  0  0
  5  6  2  0  0  0  0
  5  7  1  0  0  0  0
  2  3  1  0  0  0  0
  2  4  1  0  0  0  0
  2  5  1  0  0  0  0
  1  2  1  0  0  0  0
 29 30  2  0  0  0  0
 29 31  1  0  0  0  0
 26 27  1  0  0  0  0
 26 28  2  0  0  0  0
 24 25  1  0  0  0  0
 24 26  1  0  0  0  0
 22 23  1  0  0  0  0
 22 24  2  0  0  0  0
 20 21  1  0  0  0  0
 20 22  1  0  0  0  0
 19 20  2  0  0  0  0
 19 28  1  0  0  0  0
 17 18  1  0  0  0  0
 17 19  1  0  0  0  0
 15 16  1  0  0  0  0
 15 17  1  0  0  0  0
 14 15  2  0  0  0  0
 14 28  1  0  0  0  0
 11 12  1  0  0  0  0
 11 13  1  0  0  0  0
 11 14  1  0  0  0  0
  9 10  1  0  0  0  0
  9 11  1  0  0  0  0
  9 29  1  0  0  0  0
  7  8  1  0  0  0  0
  7  9  1  0  0  0  0
 33 34  1  0  0  0  0
 33 35  1  0  0  0  0
 33 36  1  0  0  0  0
 31 32  1  0  0  0  0
 31 33  1  0  0  0  0
M  END
$$$$
default_name
  -OEChem-02102213163D

 36 37  0     1  0  0  0  0  0999 V2000
   -4.0843   -4.0736    1.2944 H   0  0  0  0  0  0  0  0  0  0  0  0
   -4.0342   -3.2816    0.5484 C   0  0  0  0  0  0  0  0  0  0  0  0
   -4.8842   -2.6126    0.6694 H   0  0  0  0  0  0  0  0  0  0  0  0
   -4.0433   -3.7186   -0.4486 H   0  0  0  0  0  0  0  0  0  0  0  0
   -2.7532   -2.5046    0.7444 C   0  0  0  0  0  0  0  0  0  0  0  0
   -1.9803   -2.8096    1.6434 O   0  0  0  0  0  0  0  0  0  0  0  0
   -2.5332   -1.4966   -0.0966 N   0  0  0  0  0  0  0  0  0  0  0  0
   -3.2312   -1.2816   -0.7936 H   0  0  0  0  0  0  0  0  0  0  0  0
   -1.3593   -0.6196   -0.0536 C   0  0  1  0  0  0  0  0  0  0  0  0
   -0.8788   -0.7266    0.9196 H   0  0  0  0  0  0  0  0  0  0  0  0
   -0.3559   -1.0533   -1.1339 C   0  0  0  0  0  0  0  0  0  0  0  0
   -0.8291   -0.9561   -2.1126 H   0  0  0  0  0  0  0  0  0  0  0  0
    0.4963   -0.3719   -1.1100 H   0  0  0  0  0  0  0  0  0  0  0  0
    0.1541   -2.4565   -1.0030 C   0  0  0  0  0  0  0  0  0  0  0  0
    0.2719   -3.3479   -2.0124 C   0  0  0  0  0  0  0  0  0  0  0  0
   -0.0096   -3.1554   -3.0419 H   0  0  0  0  0  0  0  0  0  0  0  0
    0.8203   -4.5216   -1.5336 N   0  0  0  0  0  0  0  0  0  0  0  0
    0.9961   -5.3306   -2.1114 H   0  0  0  0  0  0  0  0  0  0  0  0
    1.1004   -4.4383   -0.1863 C   0  0  0  0  0  0  0  0  0  0  0  0
    1.6750   -5.3311    0.7298 C   0  0  0  0  0  0  0  0  0  0  0  0
    1.9916   -6.3135    0.4118 H   0  0  0  0  0  0  0  0  0  0  0  0
    1.8313   -4.9301    2.0677 C   0  0  0  0  0  0  0  0  0  0  0  0
    2.2714   -5.6057    2.7886 H   0  0  0  0  0  0  0  0  0  0  0  0
    1.4080   -3.6501    2.4698 C   0  0  0  0  0  0  0  0  0  0  0  0
    1.5225   -3.3488    3.5019 H   0  0  0  0  0  0  0  0  0  0  0  0
    0.8300   -2.7617    1.5408 C   0  0  0  0  0  0  0  0  0  0  0  0
    0.4969   -1.7863    1.8658 H   0  0  0  0  0  0  0  0  0  0  0  0
    0.6648   -3.1321    0.1886 C   0  0  0  0  0  0  0  0  0  0  0  0
   -1.7617    0.8549   -0.2106 C   0  0  0  0  0  0  0  0  0  0  0  0
   -2.5726    1.1871   -1.0741 O   0  0  0  0  0  0  0  0  0  0  0  0
   -1.1941    1.7377    0.6223 N   0  0  0  0  0  0  0  0  0  0  0  0
   -0.4976    1.3916    1.2669 H   0  0  0  0  0  0  0  0  0  0  0  0
   -1.4666    3.1722    0.6095 C   0  0  0  0  0  0  0  0  0  0  0  0
   -2.5439    3.3427    0.6539 H   0  0  0  0  0  0  0  0  0  0  0  0
   -0.9893    3.6529    1.4644 H   0  0  0  0  0  0  0  0  0  0  0  0
   -1.0808    3.6095   -0.3129 H   0  0  0  0  0  0  0  0  0  0  0  0
  5  6  2  0  0  0  0
  5  7  1  0  0  0  0
  2  3  1  0  0  0  0
  2  4  1  0  0  0  0
  2  5  1  0  0  0  0
  1  2  1  0  0  0  0
 29 30  2  0  0  0  0
 29 31  1  0  0  0  0
 26 27  1  0  0  0  0
 26 28  2  0  0  0  0
 24 25  1  0  0  0  0
 24 26  1  0  0  0  0
 22 23  1  0  0  0  0
 22 24  2  0  0  0  0
 20 21  1  0  0  0  0
 20 22  1  0  0  0  0
 19 20  2  0  0  0  0
 19 28  1  0  0  0  0
 17 18  1  0  0  0  0
 17 19  1  0  0  0  0
 15 16  1  0  0  0  0
 15 17  1  0  0  0  0
 14 15  2  0  0  0  0
 14 28  1  0  0  0  0
 11 12  1  0  0  0  0
 11 13  1  0  0  0  0
 11 14  1  0  0  0  0
  9 10  1  0  0  0  0
  9 11  1  0  0  0  0
  9 29  1  0  0  0  0
  7  8  1  0  0  0  0
  7  9  1  0  0  0  0
 33 34  1  0  0  0  0
 33 35  1  0  0  0  0
 33 36  1  0  0  0  0
 31 32  1  0  0  0  0
 31 33  1  0  0  0  0
M  END
$$$$
default_name
  -OEChem-02102213163D

 36 37  0     1  0  0  0  0  0999 V2000
   -4.0843   -4.0736    1.2944 H   0  0  0  0  0  0  0  0  0  0  0  0
   -4.0342   -3.2816    0.5484 C   0  0  0  0  0  0  0  0  0  0  0  0
   -4.8842   -2.6126    0.6694 H   0  0  0  0  0  0  0  0  0  0  0  0
   -4.0433   -3.7186   -0.4486 H   0  0  0  0  0  0  0  0  0  0  0  0
   -2.7532   -2.5046    0.7444 C   0  0  0  0  0  0  0  0  0  0  0  0
   -1.9803   -2.8096    1.6434 O   0  0  0  0  0  0  0  0  0  0  0  0
   -2.5332   -1.4966   -0.0966 N   0  0  0  0  0  0  0  0  0  0  0  0
   -3.2312   -1.2816   -0.7936 H   0  0  0  0  0  0  0  0  0  0  0  0
   -1.3593   -0.6196   -0.0536 C   0  0  1  0  0  0  0  0  0  0  0  0
   -0.8788   -0.7266    0.9196 H   0  0  0  0  0  0  0  0  0  0  0  0
   -0.3559   -1.0533   -1.1339 C   0  0  0  0  0  0  0  0  0  0  0  0
   -0.8291   -0.9561   -2.1126 H   0  0  0  0  0  0  0  0  0  0  0  0
    0.4963   -0.3719   -1.1100 H   0  0  0  0  0  0  0  0  0  0  0  0
    0.1541   -2.4565   -1.0030 C   0  0  0  0  0  0  0  0  0  0  0  0
    0.5418   -3.2511   -2.0257 C   0  0  0  0  0  0  0  0  0  0  0  0
    0.5107   -2.9691   -3.0724 H   0  0  0  0  0  0  0  0  0  0  0  0
    0.9974   -4.4569   -1.5297 N   0  0  0  0  0  0  0  0  0  0  0  0
    1.3344   -5.2079   -2.1141 H   0  0  0  0  0  0  0  0  0  0  0  0
    0.9412   -4.4931   -0.1527 C   0  0  0  0  0  0  0  0  0  0  0  0
    1.3072   -5.4585    0.7962 C   0  0  0  0  0  0  0  0  0  0  0  0
    1.7239   -6.4043    0.4821 H   0  0  0  0  0  0  0  0  0  0  0  0
    1.1225   -5.1790    2.1610 C   0  0  0  0  0  0  0  0  0  0  0  0
    1.3981   -5.9120    2.9071 H   0  0  0  0  0  0  0  0  0  0  0  0
    0.5721   -3.9458    2.5557 C   0  0  0  0  0  0  0  0  0  0  0  0
    0.4240   -3.7382    3.6064 H   0  0  0  0  0  0  0  0  0  0  0  0
    0.2060   -2.9836    1.5932 C   0  0  0  0  0  0  0  0  0  0  0  0
   -0.2281   -2.0458    1.9094 H   0  0  0  0  0  0  0  0  0  0  0  0
    0.3845   -3.2315    0.2149 C   0  0  0  0  0  0  0  0  0  0  0  0
   -1.7617    0.8549   -0.2106 C   0  0  0  0  0  0  0  0  0  0  0  0
   -2.5726    1.1871   -1.0741 O   0  0  0  0  0  0  0  0  0  0  0  0
   -1.1941    1.7377    0.6223 N   0  0  0  0  0  0  0  0  0  0  0  0
   -0.4976    1.3916    1.2669 H   0  0  0  0  0  0  0  0  0  0  0  0
   -1.4666    3.1722    0.6095 C   0  0  0  0  0  0  0  0  0  0  0  0
   -2.5439    3.3427    0.6539 H   0  0  0  0  0  0  0  0  0  0  0  0
   -0.9893    3.6529    1.4644 H   0  0  0  0  0  0  0  0  0  0  0  0
   -1.0808    3.6095   -0.3129 H   0  0  0  0  0  0  0  0  0  0  0  0
  5  6  2  0  0  0  0
  5  7  1  0  0  0  0
  2  3  1  0  0  0  0
  2  4  1  0  0  0  0
  2  5  1  0  0  0  0
  1  2  1  0  0  0  0
 29 30  2  0  0  0  0
 29 31  1  0  0  0  0
 26 27  1  0  0  0  0
 26 28  2  0  0  0  0
 24 25  1  0  0  0  0
 24 26  1  0  0  0  0
 22 23  1  0  0  0  0
 22 24  2  0  0  0  0
 20 21  1  0  0  0  0
 20 22  1  0  0  0  0
 19 20  2  0  0  0  0
 19 28  1  0  0  0  0
 17 18  1  0  0  0  0
 17 19  1  0  0  0  0
 15 16  1  0  0  0  0
 15 17  1  0  0  0  0
 14 15  2  0  0  0  0
 14 28  1  0  0  0  0
 11 12  1  0  0  0  0
 11 13  1  0  0  0  0
 11 14  1  0  0  0  0
  9 10  1  0  0  0  0
  9 11  1  0  0  0  0
  9 29  1  0  0  0  0
  7  8  1  0  0  0  0
  7  9  1  0  0  0  0
 33 34  1  0  0  0  0
 33 35  1  0  0  0  0
 33 36  1  0  0  0  0
 31 32  1  0  0  0  0
 31 33  1  0  0  0  0
M  END
$$$$
default_name
  -OEChem-02102213163D

 36 37  0     1  0  0  0  0  0999 V2000
   -4.0843   -4.0736    1.2944 H   0  0  0  0  0  0  0  0  0  0  0  0
   -4.0342   -3.2816    0.5484 C   0  0  0  0  0  0  0  0  0  0  0  0
   -4.8842   -2.6126    0.6694 H   0  0  0  0  0  0  0  0  0  0  0  0
   -4.0433   -3.7186   -0.4486 H   0  0  0  0  0  0  0  0  0  0  0  0
   -2.7532   -2.5046    0.7444 C   0  0  0  0  0  0  0  0  0  0  0  0
   -1.9803   -2.8096    1.6434 O   0  0  0  0  0  0  0  0  0  0  0  0
   -2.5332   -1.4966   -0.0966 N   0  0  0  0  0  0  0  0  0  0  0  0
   -3.2312   -1.2816   -0.7936 H   0  0  0  0  0  0  0  0  0  0  0  0
   -1.3593   -0.6196   -0.0536 C   0  0  1  0  0  0  0  0  0  0  0  0
   -0.8788   -0.7266    0.9196 H   0  0  0  0  0  0  0  0  0  0  0  0
   -0.3559   -1.0533   -1.1339 C   0  0  0  0  0  0  0  0  0  0  0  0
   -0.8291   -0.9561   -2.1126 H   0  0  0  0  0  0  0  0  0  0  0  0
    0.4963   -0.3719   -1.1100 H   0  0  0  0  0  0  0  0  0  0  0  0
    0.1541   -2.4565   -1.0030 C   0  0  0  0  0  0  0  0  0  0  0  0
    0.8035   -3.1503   -1.9645 C   0  0  0  0  0  0  0  0  0  0  0  0
    1.0165   -2.7747   -2.9594 H   0  0  0  0  0  0  0  0  0  0  0  0
    1.1660   -4.3907   -1.4773 N   0  0  0  0  0  0  0  0  0  0  0  0
    1.6590   -5.0815   -2.0240 H   0  0  0  0  0  0  0  0  0  0  0  0
    0.7804   -4.5525   -0.1636 C   0  0  0  0  0  0  0  0  0  0  0  0
    0.9388   -5.5958    0.7599 C   0  0  0  0  0  0  0  0  0  0  0  0
    1.4504   -6.5041    0.4772 H   0  0  0  0  0  0  0  0  0  0  0  0
    0.4210   -5.4436    2.0575 C   0  0  0  0  0  0  0  0  0  0  0  0
    0.5327   -6.2381    2.7829 H   0  0  0  0  0  0  0  0  0  0  0  0
   -0.2494   -4.2580    2.4100 C   0  0  0  0  0  0  0  0  0  0  0  0
   -0.6535   -4.1485    3.4069 H   0  0  0  0  0  0  0  0  0  0  0  0
   -0.4044   -3.2167    1.4731 C   0  0  0  0  0  0  0  0  0  0  0  0
   -0.9331   -2.3166    1.7529 H   0  0  0  0  0  0  0  0  0  0  0  0
    0.1096   -3.3362    0.1637 C   0  0  0  0  0  0  0  0  0  0  0  0
   -1.7617    0.8549   -0.2106 C   0  0  0  0  0  0  0  0  0  0  0  0
   -2.5726    1.1871   -1.0741 O   0  0  0  0  0  0  0  0  0  0  0  0
   -1.1941    1.7377    0.6223 N   0  0  0  0  0  0  0  0  0  0  0  0
   -0.4976    1.3916    1.2669 H   0  0  0  0  0  0  0  0  0  0  0  0
   -1.4666    3.1722    0.6095 C   0  0  0  0  0  0  0  0  0  0  0  0
   -2.5439    3.3427    0.6539 H   0  0  0  0  0  0  0  0  0  0  0  0
   -0.9893    3.6529    1.4644 H   0  0  0  0  0  0  0  0  0  0  0  0
   -1.0808    3.6095   -0.3129 H   0  0  0  0  0  0  0  0  0  0  0  0
  5  6  2  0  0  0  0
  5  7  1  0  0  0  0
  2  3  1  0  0  0  0
  2  4  1  0  0  0  0
  2  5  1  0  0  0  0
  1  2  1  0  0  0  0
 29 30  2  0  0  0  0
 29 31  1  0  0  0  0
 26 27  1  0  0  0  0
 26 28  2  0  0  0  0
 24 25  1  0  0  0  0
 24 26  1  0  0  0  0
 22 23  1  0  0  0  0
 22 24  2  0  0  0  0
 20 21  1  0  0  0  0
 20 22  1  0  0  0  0
 19 20  2  0  0  0  0
 19 28  1  0  0  0  0
 17 18  1  0  0  0  0
 17 19  1  0  0  0  0
 15 16  1  0  0  0  0
 15 17  1  0  0  0  0
 14 15  2  0  0  0  0
 14 28  1  0  0  0  0
 11 12  1  0  0  0  0
 11 13  1  0  0  0  0
 11 14  1  0  0  0  0
  9 10  1  0  0  0  0
  9 11  1  0  0  0  0
  9 29  1  0  0  0  0
  7  8  1  0  0  0  0
  7  9  1  0  0  0  0
 33 34  1  0  0  0  0
 33 35  1  0  0  0  0
 33 36  1  0  0  0  0
 31 32  1  0  0  0  0
 31 33  1  0  0  0  0
M  END
$$$$
default_name
  -OEChem-02102213163D

 36 37  0     1  0  0  0  0  0999 V2000
   -4.0843   -4.0736    1.2944 H   0  0  0  0  0  0  0  0  0  0  0  0
   -4.0342   -3.2816    0.5484 C   0  0  0  0  0  0  0  0  0  0  0  0
   -4.8842   -2.6126    0.6694 H   0  0  0  0  0  0  0  0  0  0  0  0
   -4.0433   -3.7186   -0.4486 H   0  0  0  0  0  0  0  0  0  0  0  0
   -2.7532   -2.5046    0.7444 C   0  0  0  0  0  0  0  0  0  0  0  0
   -1.9803   -2.8096    1.6434 O   0  0  0  0  0  0  0  0  0  0  0  0
   -2.5332   -1.4966   -0.0966 N   0  0  0  0  0  0  0  0  0  0  0  0
   -3.2312   -1.2816   -0.7936 H   0  0  0  0  0  0  0  0  0  0  0  0
   -1.3593   -0.6196   -0.0536 C   0  0  1  0  0  0  0  0  0  0  0  0
   -0.8788   -0.7266    0.9196 H   0  0  0  0  0  0  0  0  0  0  0  0
   -0.3559   -1.0533   -1.1339 C   0  0  0  0  0  0  0  0  0  0  0  0
   -0.7159   -0.7114   -2.1058 H   0  0  0  0  0  0  0  0  0  0  0  0
    0.5972   -0.5575   -0.9417 H   0  0  0  0  0  0  0  0  0  0  0  0
   -0.1140   -2.5297   -1.2225 C   0  0  0  0  0  0  0  0  0  0  0  0
    0.7227   -3.1388   -2.0924 C   0  0  0  0  0  0  0  0  0  0  0  0
    1.3082   -2.6259   -2.8476 H   0  0  0  0  0  0  0  0  0  0  0  0
    0.7288   -4.4994   -1.8553 N   0  0  0  0  0  0  0  0  0  0  0  0
    1.2799   -5.1554   -2.3892 H   0  0  0  0  0  0  0  0  0  0  0  0
   -0.0965   -4.8349   -0.8031 C   0  0  0  0  0  0  0  0  0  0  0  0
   -0.4017   -6.0508   -0.1747 C   0  0  0  0  0  0  0  0  0  0  0  0
    0.0482   -6.9715   -0.5162 H   0  0  0  0  0  0  0  0  0  0  0  0
   -1.3024   -6.0547    0.9040 C   0  0  0  0  0  0  0  0  0  0  0  0
   -1.5505   -6.9832    1.4002 H   0  0  0  0  0  0  0  0  0  0  0  0
   -1.8865   -4.8491    1.3339 C   0  0  0  0  0  0  0  0  0  0  0  0
   -2.5853   -4.8579    2.1589 H   0  0  0  0  0  0  0  0  0  0  0  0
   -1.5739   -3.6331    0.6936 C   0  0  0  0  0  0  0  0  0  0  0  0
   -2.0399   -2.7161    1.0252 H   0  0  0  0  0  0  0  0  0  0  0  0
   -0.6683   -3.5948   -0.3887 C   0  0  0  0  0  0  0  0  0  0  0  0
   -1.7617    0.8549   -0.2106 C   0  0  0  0  0  0  0  0  0  0  0  0
   -2.5726    1.1871   -1.0741 O   0  0  0  0  0  0  0  0  0  0  0  0
   -1.1941    1.7377    0.6223 N   0  0  0  0  0  0  0  0  0  0  0  0
   -0.4976    1.3916    1.2669 H   0  0  0  0  0  0  0  0  0  0  0  0
   -1.4666    3.1722    0.6095 C   0  0  0  0  0  0  0  0  0  0  0  0
   -2.5439    3.3427    0.6539 H   0  0  0  0  0  0  0  0  0  0  0  0
   -0.9893    3.6529    1.4644 H   0  0  0  0  0  0  0  0  0  0  0  0
   -1.0808    3.6095   -0.3129 H   0  0  0  0  0  0  0  0  0  0  0  0
  5  6  2  0  0  0  0
  5  7  1  0  0  0  0
  2  3  1  0  0  0  0
  2  4  1  0  0  0  0
  2  5  1  0  0  0  0
  1  2  1  0  0  0  0
 29 30  2  0  0  0  0
 29 31  1  0  0  0  0
 26 27  1  0  0  0  0
 26 28  2  0  0  0  0
 24 25  1  0  0  0  0
 24 26  1  0  0  0  0
 22 23  1  0  0  0  0
 22 24  2  0  0  0  0
 20 21  1  0  0  0  0
 20 22  1  0  0  0  0
 19 20  2  0  0  0  0
 19 28  1  0  0  0  0
 17 18  1  0  0  0  0
 17 19  1  0  0  0  0
 15 16  1  0  0  0  0
 15 17  1  0  0  0  0
 14 15  2  0  0  0  0
 14 28  1  0  0  0  0
 11 12  1  0  0  0  0
 11 13  1  0  0  0  0
 11 14  1  0  0  0  0
  9 10  1  0  0  0  0
  9 11  1  0  0  0  0
  9 29  1  0  0  0  0
  7  8  1  0  0  0  0
  7  9  1  0  0  0  0
 33 34  1  0  0  0  0
 33 35  1  0  0  0  0
 33 36  1  0  0  0  0
 31 32  1  0  0  0  0
 31 33  1  0  0  0  0
M  END
$$$$
default_name
  -OEChem-02102213163D

 36 37  0     1  0  0  0  0  0999 V2000
   -4.0843   -4.0736    1.2944 H   0  0  0  0  0  0  0  0  0  0  0  0
   -4.0342   -3.2816    0.5484 C   0  0  0  0  0  0  0  0  0  0  0  0
   -4.8842   -2.6126    0.6694 H   0  0  0  0  0  0  0  0  0  0  0  0
   -4.0433   -3.7186   -0.4486 H   0  0  0  0  0  0  0  0  0  0  0  0
   -2.7532   -2.5046    0.7444 C   0  0  0  0  0  0  0  0  0  0  0  0
   -1.9803   -2.8096    1.6434 O   0  0  0  0  0  0  0  0  0  0  0  0
   -2.5332   -1.4966   -0.0966 N   0  0  0  0  0  0  0  0  0  0  0  0
   -3.2312   -1.2816   -0.7936 H   0  0  0  0  0  0  0  0  0  0  0  0
   -1.3593   -0.6196   -0.0536 C   0  0  1  0  0  0  0  0  0  0  0  0
   -0.8788   -0.7266    0.9196 H   0  0  0  0  0  0  0  0  0  0  0  0
   -0.3559   -1.0533   -1.1339 C   0  0  0  0  0  0  0  0  0  0  0  0
   -0.7159   -0.7114   -2.1058 H   0  0  0  0  0  0  0  0  0  0  0  0
    0.5972   -0.5575   -0.9417 H   0  0  0  0  0  0  0  0  0  0  0  0
   -0.1140   -2.5297   -1.2225 C   0  0  0  0  0  0  0  0  0  0  0  0
    0.9110   -3.1209   -1.8764 C   0  0  0  0  0  0  0  0  0  0  0  0
    1.6749   -2.5907   -2.4345 H   0  0  0  0  0  0  0  0  0  0  0  0
    0.8428   -4.4897   -1.7054 N   0  0  0  0  0  0  0  0  0  0  0  0
    1.5055   -5.1352   -2.1095 H   0  0  0  0  0  0  0  0  0  0  0  0
   -0.2270   -4.8496   -0.9137 C   0  0  0  0  0  0  0  0  0  0  0  0
   -0.6945   -6.0830   -0.4377 C   0  0  0  0  0  0  0  0  0  0  0  0
   -0.1815   -6.9985   -0.6933 H   0  0  0  0  0  0  0  0  0  0  0  0
   -1.8407   -6.1112    0.3749 C   0  0  0  0  0  0  0  0  0  0  0  0
   -2.2165   -7.0533    0.7505 H   0  0  0  0  0  0  0  0  0  0  0  0
   -2.5032   -4.9118    0.6942 C   0  0  0  0  0  0  0  0  0  0  0  0
   -3.3896   -4.9389    1.3129 H   0  0  0  0  0  0  0  0  0  0  0  0
   -2.0255   -3.6780    0.2085 C   0  0  0  0  0  0  0  0  0  0  0  0
   -2.5517   -2.7655    0.4503 H   0  0  0  0  0  0  0  0  0  0  0  0
   -0.8733   -3.6154   -0.6048 C   0  0  0  0  0  0  0  0  0  0  0  0
   -1.7617    0.8549   -0.2106 C   0  0  0  0  0  0  0  0  0  0  0  0
   -2.5726    1.1871   -1.0741 O   0  0  0  0  0  0  0  0  0  0  0  0
   -1.1941    1.7377    0.6223 N   0  0  0  0  0  0  0  0  0  0  0  0
   -0.4976    1.3916    1.2669 H   0  0  0  0  0  0  0  0  0  0  0  0
   -1.4666    3.1722    0.6095 C   0  0  0  0  0  0  0  0  0  0  0  0
   -2.5439    3.3427    0.6539 H   0  0  0  0  0  0  0  0  0  0  0  0
   -0.9893    3.6529    1.4644 H   0  0  0  0  0  0  0  0  0  0  0  0
   -1.0808    3.6095   -0.3129 H   0  0  0  0  0  0  0  0  0  0  0  0
  5  6  2  0  0  0  0
  5  7  1  0  0  0  0
  2  3  1  0  0  0  0
  2  4  1  0  0  0  0
  2  5  1  0  0  0  0
  1  2  1  0  0  0  0
 29 30  2  0  0  0  0
 29 31  1  0  0  0  0
 26 27  1  0  0  0  0
 26 28  2  0  0  0  0
 24 25  1  0  0  0  0
 24 26  1  0  0  0  0
 22 23  1  0  0  0  0
 22 24  2  0  0  0  0
 20 21  1  0  0  0  0
 20 22  1  0  0  0  0
 19 20  2  0  0  0  0
 19 28  1  0  0  0  0
 17 18  1  0  0  0  0
 17 19  1  0  0  0  0
 15 16  1  0  0  0  0
 15 17  1  0  0  0  0
 14 15  2  0  0  0  0
 14 28  1  0  0  0  0
 11 12  1  0  0  0  0
 11 13  1  0  0  0  0
 11 14  1  0  0  0  0
  9 10  1  0  0  0  0
  9 11  1  0  0  0  0
  9 29  1  0  0  0  0
  7  8  1  0  0  0  0
  7  9  1  0  0  0  0
 33 34  1  0  0  0  0
 33 35  1  0  0  0  0
 33 36  1  0  0  0  0
 31 32  1  0  0  0  0
 31 33  1  0  0  0  0
M  END
$$$$
default_name
  -OEChem-02102213163D

 36 37  0     1  0  0  0  0  0999 V2000
   -4.0843   -4.0736    1.2944 H   0  0  0  0  0  0  0  0  0  0  0  0
   -4.0342   -3.2816    0.5484 C   0  0  0  0  0  0  0  0  0  0  0  0
   -4.8842   -2.6126    0.6694 H   0  0  0  0  0  0  0  0  0  0  0  0
   -4.0433   -3.7186   -0.4486 H   0  0  0  0  0  0  0  0  0  0  0  0
   -2.7532   -2.5046    0.7444 C   0  0  0  0  0  0  0  0  0  0  0  0
   -1.9803   -2.8096    1.6434 O   0  0  0  0  0  0  0  0  0  0  0  0
   -2.5332   -1.4966   -0.0966 N   0  0  0  0  0  0  0  0  0  0  0  0
   -3.2312   -1.2816   -0.7936 H   0  0  0  0  0  0  0  0  0  0  0  0
   -1.3593   -0.6196   -0.0536 C   0  0  1  0  0  0  0  0  0  0  0  0
   -0.8788   -0.7266    0.9196 H   0  0  0  0  0  0  0  0  0  0  0  0
   -0.3559   -1.0533   -1.1339 C   0  0  0  0  0  0  0  0  0  0  0  0
   -0.7159   -0.7114   -2.1058 H   0  0  0  0  0  0  0  0  0  0  0  0
    0.5972   -0.5575   -0.9417 H   0  0  0  0  0  0  0  0  0  0  0  0
   -0.1140   -2.5297   -1.2225 C   0  0  0  0  0  0  0  0  0  0  0  0
    1.0381   -3.1155   -1.6191 C   0  0  0  0  0  0  0  0  0  0  0  0
    1.9243   -2.5794   -1.9405 H   0  0  0  0  0  0  0  0  0  0  0  0
    0.9150   -4.4883   -1.5311 N   0  0  0  0  0  0  0  0  0  0  0  0
    1.6524   -5.1309   -1.7811 H   0  0  0  0  0  0  0  0  0  0  0  0
   -0.3250   -4.8572   -1.0545 C   0  0  0  0  0  0  0  0  0  0  0  0
   -0.9107   -6.0986   -0.7677 C   0  0  0  0  0  0  0  0  0  0  0  0
   -0.3586   -7.0136   -0.9240 H   0  0  0  0  0  0  0  0  0  0  0  0
   -2.2267   -6.1353   -0.2758 C   0  0  0  0  0  0  0  0  0  0  0  0
   -2.6952   -7.0837   -0.0499 H   0  0  0  0  0  0  0  0  0  0  0  0
   -2.9368   -4.9361   -0.0835 C   0  0  0  0  0  0  0  0  0  0  0  0
   -3.9520   -4.9694    0.2872 H   0  0  0  0  0  0  0  0  0  0  0  0
   -2.3388   -3.6942   -0.3771 C   0  0  0  0  0  0  0  0  0  0  0  0
   -2.9002   -2.7813   -0.2375 H   0  0  0  0  0  0  0  0  0  0  0  0
   -1.0166   -3.6232   -0.8667 C   0  0  0  0  0  0  0  0  0  0  0  0
   -1.7617    0.8549   -0.2106 C   0  0  0  0  0  0  0  0  0  0  0  0
   -2.5726    1.1871   -1.0741 O   0  0  0  0  0  0  0  0  0  0  0  0
   -1.1941    1.7377    0.6223 N   0  0  0  0  0  0  0  0  0  0  0  0
   -0.4976    1.3916    1.2669 H   0  0  0  0  0  0  0  0  0  0  0  0
   -1.4666    3.1722    0.6095 C   0  0  0  0  0  0  0  0  0  0  0  0
   -2.5439    3.3427    0.6539 H   0  0  0  0  0  0  0  0  0  0  0  0
   -0.9893    3.6529    1.4644 H   0  0  0  0  0  0  0  0  0  0  0  0
   -1.0808    3.6095   -0.3129 H   0  0  0  0  0  0  0  0  0  0  0  0
  5  6  2  0  0  0  0
  5  7  1  0  0  0  0
  2  3  1  0  0  0  0
  2  4  1  0  0  0  0
  2  5  1  0  0  0  0
  1  2  1  0  0  0  0
 29 30  2  0  0  0  0
 29 31  1  0  0  0  0
 26 27  1  0  0  0  0
 26 28  2  0  0  0  0
 24 25  1  0  0  0  0
 24 26  1  0  0  0  0
 22 23  1  0  0  0  0
 22 24  2  0  0  0  0
 20 21  1  0  0  0  0
 20 22  1  0  0  0  0
 19 20  2  0  0  0  0
 19 28  1  0  0  0  0
 17 18  1  0  0  0  0
 17 19  1  0  0  0  0
 15 16  1  0  0  0  0
 15 17  1  0  0  0  0
 14 15  2  0  0  0  0
 14 28  1  0  0  0  0
 11 12  1  0  0  0  0
 11 13  1  0  0  0  0
 11 14  1  0  0  0  0
  9 10  1  0  0  0  0
  9 11  1  0  0  0  0
  9 29  1  0  0  0  0
  7  8  1  0  0  0  0
  7  9  1  0  0  0  0
 33 34  1  0  0  0  0
 33 35  1  0  0  0  0
 33 36  1  0  0  0  0
 31 32  1  0  0  0  0
 31 33  1  0  0  0  0
M  END
$$$$
default_name
  -OEChem-02102213163D

 36 37  0     1  0  0  0  0  0999 V2000
   -4.0843   -4.0736    1.2944 H   0  0  0  0  0  0  0  0  0  0  0  0
   -4.0342   -3.2816    0.5484 C   0  0  0  0  0  0  0  0  0  0  0  0
   -4.8842   -2.6126    0.6694 H   0  0  0  0  0  0  0  0  0  0  0  0
   -4.0433   -3.7186   -0.4486 H   0  0  0  0  0  0  0  0  0  0  0  0
   -2.7532   -2.5046    0.7444 C   0  0  0  0  0  0  0  0  0  0  0  0
   -1.9803   -2.8096    1.6434 O   0  0  0  0  0  0  0  0  0  0  0  0
   -2.5332   -1.4966   -0.0966 N   0  0  0  0  0  0  0  0  0  0  0  0
   -3.2312   -1.2816   -0.7936 H   0  0  0  0  0  0  0  0  0  0  0  0
   -1.3593   -0.6196   -0.0536 C   0  0  1  0  0  0  0  0  0  0  0  0
   -0.8788   -0.7266    0.9196 H   0  0  0  0  0  0  0  0  0  0  0  0
   -0.3559   -1.0533   -1.1339 C   0  0  0  0  0  0  0  0  0  0  0  0
   -0.7159   -0.7114   -2.1058 H   0  0  0  0  0  0  0  0  0  0  0  0
    0.5972   -0.5575   -0.9417 H   0  0  0  0  0  0  0  0  0  0  0  0
   -0.1140   -2.5297   -1.2225 C   0  0  0  0  0  0  0  0  0  0  0  0
    1.0953   -3.1230   -1.3379 C   0  0  0  0  0  0  0  0  0  0  0  0
    2.0395   -2.5931   -1.3993 H   0  0  0  0  0  0  0  0  0  0  0  0
    0.9402   -4.4954   -1.3444 N   0  0  0  0  0  0  0  0  0  0  0  0
    1.7107   -5.1426   -1.4262 H   0  0  0  0  0  0  0  0  0  0  0  0
   -0.3839   -4.8572   -1.2159 C   0  0  0  0  0  0  0  0  0  0  0  0
   -1.0357   -6.0966   -1.1422 C   0  0  0  0  0  0  0  0  0  0  0  0
   -0.4710   -7.0159   -1.1927 H   0  0  0  0  0  0  0  0  0  0  0  0
   -2.4339   -6.1256   -1.0037 C   0  0  0  0  0  0  0  0  0  0  0  0
   -2.9539   -7.0723   -0.9463 H   0  0  0  0  0  0  0  0  0  0  0  0
   -3.1577   -4.9205   -0.9464 C   0  0  0  0  0  0  0  0  0  0  0  0
   -4.2341   -4.9475   -0.8481 H   0  0  0  0  0  0  0  0  0  0  0  0
   -2.4923   -3.6805   -1.0233 C   0  0  0  0  0  0  0  0  0  0  0  0
   -3.0616   -2.7625   -0.9915 H   0  0  0  0  0  0  0  0  0  0  0  0
   -1.0883   -3.6175   -1.1565 C   0  0  0  0  0  0  0  0  0  0  0  0
   -1.7617    0.8549   -0.2106 C   0  0  0  0  0  0  0  0  0  0  0  0
   -2.5726    1.1871   -1.0741 O   0  0  0  0  0  0  0  0  0  0  0  0
   -1.1941    1.7377    0.6223 N   0  0  0  0  0  0  0  0  0  0  0  0
   -0.4976    1.3916    1.2669 H   0  0  0  0  0  0  0  0  0  0  0  0
   -1.4666    3.1722    0.6095 C   0  0  0  0  0  0  0  0  0  0  0  0
   -2.5439    3.3427    0.6539 H   0  0  0  0  0  0  0  0  0  0  0  0
   -0.9893    3.6529    1.4644 H   0  0  0  0  0  0  0  0  0  0  0  0
   -1.0808    3.6095   -0.3129 H   0  0  0  0  0  0  0  0  0  0  0  0
  5  6  2  0  0  0  0
  5  7  1  0  0  0  0
  2  3  1  0  0  0  0
  2  4  1  0  0  0  0
  2  5  1  0  0  0  0
  1  2  1  0  0  0  0
 29 30  2  0  0  0  0
 29 31  1  0  0  0  0
 26 27  1  0  0  0  0
 26 28  2  0  0  0  0
 24 25  1  0  0  0  0
 24 26  1  0  0  0  0
 22 23  1  0  0  0  0
 22 24  2  0  0  0  0
 20 21  1  0  0  0  0
 20 22  1  0  0  0  0
 19 20  2  0  0  0  0
 19 28  1  0  0  0  0
 17 18  1  0  0  0  0
 17 19  1  0  0  0  0
 15 16  1  0  0  0  0
 15 17  1  0  0  0  0
 14 15  2  0  0  0  0
 14 28  1  0  0  0  0
 11 12  1  0  0  0  0
 11 13  1  0  0  0  0
 11 14  1  0  0  0  0
  9 10  1  0  0  0  0
  9 11  1  0  0  0  0
  9 29  1  0  0  0  0
  7  8  1  0  0  0  0
  7  9  1  0  0  0  0
 33 34  1  0  0  0  0
 33 35  1  0  0  0  0
 33 36  1  0  0  0  0
 31 32  1  0  0  0  0
 31 33  1  0  0  0  0
M  END
$$$$
default_name
  -OEChem-02102213163D

 36 37  0     1  0  0  0  0  0999 V2000
   -4.0843   -4.0736    1.2944 H   0  0  0  0  0  0  0  0  0  0  0  0
   -4.0342   -3.2816    0.5484 C   0  0  0  0  0  0  0  0  0  0  0  0
   -4.8842   -2.6126    0.6694 H   0  0  0  0  0  0  0  0  0  0  0  0
   -4.0433   -3.7186   -0.4486 H   0  0  0  0  0  0  0  0  0  0  0  0
   -2.7532   -2.5046    0.7444 C   0  0  0  0  0  0  0  0  0  0  0  0
   -1.9803   -2.8096    1.6434 O   0  0  0  0  0  0  0  0  0  0  0  0
   -2.5332   -1.4966   -0.0966 N   0  0  0  0  0  0  0  0  0  0  0  0
   -3.2312   -1.2816   -0.7936 H   0  0  0  0  0  0  0  0  0  0  0  0
   -1.3593   -0.6196   -0.0536 C   0  0  1  0  0  0  0  0  0  0  0  0
   -0.8788   -0.7266    0.9196 H   0  0  0  0  0  0  0  0  0  0  0  0
   -0.3559   -1.0533   -1.1339 C   0  0  0  0  0  0  0  0  0  0  0  0
   -0.7159   -0.7114   -2.1058 H   0  0  0  0  0  0  0  0  0  0  0  0
    0.5972   -0.5575   -0.9417 H   0  0  0  0  0  0  0  0  0  0  0  0
   -0.1140   -2.5297   -1.2225 C   0  0  0  0  0  0  0  0  0  0  0  0
    1.0787   -3.1429   -1.0521 C   0  0  0  0  0  0  0  0  0  0  0  0
    2.0125   -2.6306   -0.8477 H   0  0  0  0  0  0  0  0  0  0  0  0
    0.9169   -4.5104   -1.1578 N   0  0  0  0  0  0  0  0  0  0  0  0
    1.6763   -5.1697   -1.0690 H   0  0  0  0  0  0  0  0  0  0  0  0
   -0.3997   -4.8495   -1.3867 C   0  0  0  0  0  0  0  0  0  0  0  0
   -1.0609   -6.0771   -1.5358 C   0  0  0  0  0  0  0  0  0  0  0  0
   -0.5112   -7.0052   -1.4810 H   0  0  0  0  0  0  0  0  0  0  0  0
   -2.4484   -6.0826   -1.7593 C   0  0  0  0  0  0  0  0  0  0  0  0
   -2.9751   -7.0198   -1.8777 H   0  0  0  0  0  0  0  0  0  0  0  0
   -3.1509   -4.8660   -1.8354 C   0  0  0  0  0  0  0  0  0  0  0  0
   -4.2169   -4.8746   -2.0158 H   0  0  0  0  0  0  0  0  0  0  0  0
   -2.4756   -3.6380   -1.6861 C   0  0  0  0  0  0  0  0  0  0  0  0
   -3.0251   -2.7103   -1.7601 H   0  0  0  0  0  0  0  0  0  0  0  0
   -1.0836   -3.5989   -1.4544 C   0  0  0  0  0  0  0  0  0  0  0  0
   -1.7617    0.8549   -0.2106 C   0  0  0  0  0  0  0  0  0  0  0  0
   -2.5726    1.1871   -1.0741 O   0  0  0  0  0  0  0  0  0  0  0  0
   -1.1941    1.7377    0.6223 N   0  0  0  0  0  0  0  0  0  0  0  0
   -0.4976    1.3916    1.2669 H   0  0  0  0  0  0  0  0  0  0  0  0
   -1.4666    3.1722    0.6095 C   0  0  0  0  0  0  0  0  0  0  0  0
   -2.5439    3.3427    0.6539 H   0  0  0  0  0  0  0  0  0  0  0  0
   -0.9893    3.6529    1.4644 H   0  0  0  0  0  0  0  0  0  0  0  0
   -1.0808    3.6095   -0.3129 H   0  0  0  0  0  0  0  0  0  0  0  0
  5  6  2  0  0  0  0
  5  7  1  0  0  0  0
  2  3  1  0  0  0  0
  2  4  1  0  0  0  0
  2  5  1  0  0  0  0
  1  2  1  0  0  0  0
 29 30  2  0  0  0  0
 29 31  1  0  0  0  0
 26 27  1  0  0  0  0
 26 28  2  0  0  0  0
 24 25  1  0  0  0  0
 24 26  1  0  0  0  0
 22 23  1  0  0  0  0
 22 24  2  0  0  0  0
 20 21  1  0  0  0  0
 20 22  1  0  0  0  0
 19 20  2  0  0  0  0
 19 28  1  0  0  0  0
 17 18  1  0  0  0  0
 17 19  1  0  0  0  0
 15 16  1  0  0  0  0
 15 17  1  0  0  0  0
 14 15  2  0  0  0  0
 14 28  1  0  0  0  0
 11 12  1  0  0  0  0
 11 13  1  0  0  0  0
 11 14  1  0  0  0  0
  9 10  1  0  0  0  0
  9 11  1  0  0  0  0
  9 29  1  0  0  0  0
  7  8  1  0  0  0  0
  7  9  1  0  0  0  0
 33 34  1  0  0  0  0
 33 35  1  0  0  0  0
 33 36  1  0  0  0  0
 31 32  1  0  0  0  0
 31 33  1  0  0  0  0
M  END
$$$$
default_name
  -OEChem-02102213163D

 36 37  0     1  0  0  0  0  0999 V2000
   -4.0843   -4.0736    1.2944 H   0  0  0  0  0  0  0  0  0  0  0  0
   -4.0342   -3.2816    0.5484 C   0  0  0  0  0  0  0  0  0  0  0  0
   -4.8842   -2.6126    0.6694 H   0  0  0  0  0  0  0  0  0  0  0  0
   -4.0433   -3.7186   -0.4486 H   0  0  0  0  0  0  0  0  0  0  0  0
   -2.7532   -2.5046    0.7444 C   0  0  0  0  0  0  0  0  0  0  0  0
   -1.9803   -2.8096    1.6434 O   0  0  0  0  0  0  0  0  0  0  0  0
   -2.5332   -1.4966   -0.0966 N   0  0  0  0  0  0  0  0  0  0  0  0
   -3.2312   -1.2816   -0.7936 H   0  0  0  0  0  0  0  0  0  0  0  0
   -1.3593   -0.6196   -0.0536 C   0  0  1  0  0  0  0  0  0  0  0  0
   -0.8788   -0.7266    0.9196 H   0  0  0  0  0  0  0  0  0  0  0  0
   -0.3559   -1.0533   -1.1339 C   0  0  0  0  0  0  0  0  0  0  0  0
   -0.7159   -0.7114   -2.1058 H   0  0  0  0  0  0  0  0  0  0  0  0
    0.5972   -0.5575   -0.9417 H   0  0  0  0  0  0  0  0  0  0  0  0
   -0.1140   -2.5297   -1.2225 C   0  0  0  0  0  0  0  0  0  0  0  0
    0.9896   -3.1738   -0.7810 C   0  0  0  0  0  0  0  0  0  0  0  0
    1.8453   -2.6895   -0.3234 H   0  0  0  0  0  0  0  0  0  0  0  0
    0.8466   -4.5324   -0.9842 N   0  0  0  0  0  0  0  0  0  0  0  0
    1.5515   -5.2103   -0.7339 H   0  0  0  0  0  0  0  0  0  0  0  0
   -0.3712   -4.8347   -1.5554 C   0  0  0  0  0  0  0  0  0  0  0  0
   -0.9846   -6.0414   -1.9215 C   0  0  0  0  0  0  0  0  0  0  0  0
   -0.4763   -6.9822   -1.7692 H   0  0  0  0  0  0  0  0  0  0  0  0
   -2.2690   -6.0092   -2.4910 C   0  0  0  0  0  0  0  0  0  0  0  0
   -2.7573   -6.9299   -2.7805 H   0  0  0  0  0  0  0  0  0  0  0  0
   -2.9167   -4.7763   -2.6902 C   0  0  0  0  0  0  0  0  0  0  0  0
   -3.9014   -4.7556   -3.1363 H   0  0  0  0  0  0  0  0  0  0  0  0
   -2.2899   -3.5695   -2.3202 C   0  0  0  0  0  0  0  0  0  0  0  0
   -2.7931   -2.6284   -2.4911 H   0  0  0  0  0  0  0  0  0  0  0  0
   -1.0028   -3.5685   -1.7403 C   0  0  0  0  0  0  0  0  0  0  0  0
   -1.7617    0.8549   -0.2106 C   0  0  0  0  0  0  0  0  0  0  0  0
   -2.5726    1.1871   -1.0741 O   0  0  0  0  0  0  0  0  0  0  0  0
   -1.1941    1.7377    0.6223 N   0  0  0  0  0  0  0  0  0  0  0  0
   -0.4976    1.3916    1.2669 H   0  0  0  0  0  0  0  0  0  0  0  0
   -1.4666    3.1722    0.6095 C   0  0  0  0  0  0  0  0  0  0  0  0
   -2.5439    3.3427    0.6539 H   0  0  0  0  0  0  0  0  0  0  0  0
   -0.9893    3.6529    1.4644 H   0  0  0  0  0  0  0  0  0  0  0  0
   -1.0808    3.6095   -0.3129 H   0  0  0  0  0  0  0  0  0  0  0  0
  5  6  2  0  0  0  0
  5  7  1  0  0  0  0
  2  3  1  0  0  0  0
  2  4  1  0  0  0  0
  2  5  1  0  0  0  0
  1  2  1  0  0  0  0
 29 30  2  0  0  0  0
 29 31  1  0  0  0  0
 26 27  1  0  0  0  0
 26 28  2  0  0  0  0
 24 25  1  0  0  0  0
 24 26  1  0  0  0  0
 22 23  1  0  0  0  0
 22 24  2  0  0  0  0
 20 21  1  0  0  0  0
 20 22  1  0  0  0  0
 19 20  2  0  0  0  0
 19 28  1  0  0  0  0
 17 18  1  0  0  0  0
 17 19  1  0  0  0  0
 15 16  1  0  0  0  0
 15 17  1  0  0  0  0
 14 15  2  0  0  0  0
 14 28  1  0  0  0  0
 11 12  1  0  0  0  0
 11 13  1  0  0  0  0
 11 14  1  0  0  0  0
  9 10  1  0  0  0  0
  9 11  1  0  0  0  0
  9 29  1  0  0  0  0
  7  8  1  0  0  0  0
  7  9  1  0  0  0  0
 33 34  1  0  0  0  0
 33 35  1  0  0  0  0
 33 36  1  0  0  0  0
 31 32  1  0  0  0  0
 31 33  1  0  0  0  0
M  END
$$$$
default_name
  -OEChem-02102213163D

 36 37  0     1  0  0  0  0  0999 V2000
   -4.0843   -4.0736    1.2944 H   0  0  0  0  0  0  0  0  0  0  0  0
   -4.0342   -3.2816    0.5484 C   0  0  0  0  0  0  0  0  0  0  0  0
   -4.8842   -2.6126    0.6694 H   0  0  0  0  0  0  0  0  0  0  0  0
   -4.0433   -3.7186   -0.4486 H   0  0  0  0  0  0  0  0  0  0  0  0
   -2.7532   -2.5046    0.7444 C   0  0  0  0  0  0  0  0  0  0  0  0
   -1.9803   -2.8096    1.6434 O   0  0  0  0  0  0  0  0  0  0  0  0
   -2.5332   -1.4966   -0.0966 N   0  0  0  0  0  0  0  0  0  0  0  0
   -3.2312   -1.2816   -0.7936 H   0  0  0  0  0  0  0  0  0  0  0  0
   -1.3593   -0.6196   -0.0536 C   0  0  1  0  0  0  0  0  0  0  0  0
   -0.8788   -0.7266    0.9196 H   0  0  0  0  0  0  0  0  0  0  0  0
   -0.3559   -1.0533   -1.1339 C   0  0  0  0  0  0  0  0  0  0  0  0
   -0.7159   -0.7114   -2.1058 H   0  0  0  0  0  0  0  0  0  0  0  0
    0.5972   -0.5575   -0.9417 H   0  0  0  0  0  0  0  0  0  0  0  0
   -0.1140   -2.5297   -1.2225 C   0  0  0  0  0  0  0  0  0  0  0  0
    0.8339   -3.2136   -0.5432 C   0  0  0  0  0  0  0  0  0  0  0  0
    1.5491   -2.7657    0.1380 H   0  0  0  0  0  0  0  0  0  0  0  0
    0.7341   -4.5598   -0.8354 N   0  0  0  0  0  0  0  0  0  0  0  0
    1.3450   -5.2616   -0.4437 H   0  0  0  0  0  0  0  0  0  0  0  0
   -0.3005   -4.8138   -1.7105 C   0  0  0  0  0  0  0  0  0  0  0  0
   -0.8120   -5.9920   -2.2732 C   0  0  0  0  0  0  0  0  0  0  0  0
   -0.3687   -6.9484   -2.0378 H   0  0  0  0  0  0  0  0  0  0  0  0
   -1.9081   -5.9106   -3.1490 C   0  0  0  0  0  0  0  0  0  0  0  0
   -2.3154   -6.8087   -3.5933 H   0  0  0  0  0  0  0  0  0  0  0  0
   -2.4713   -4.6575   -3.4524 C   0  0  0  0  0  0  0  0  0  0  0  0
   -3.3092   -4.5987   -4.1332 H   0  0  0  0  0  0  0  0  0  0  0  0
   -1.9477   -3.4797   -2.8825 C   0  0  0  0  0  0  0  0  0  0  0  0
   -2.3813   -2.5223   -3.1345 H   0  0  0  0  0  0  0  0  0  0  0  0
   -0.8514   -3.5284   -1.9945 C   0  0  0  0  0  0  0  0  0  0  0  0
   -1.7617    0.8549   -0.2106 C   0  0  0  0  0  0  0  0  0  0  0  0
   -2.5726    1.1871   -1.0741 O   0  0  0  0  0  0  0  0  0  0  0  0
   -1.1941    1.7377    0.6223 N   0  0  0  0  0  0  0  0  0  0  0  0
   -0.4976    1.3916    1.2669 H   0  0  0  0  0  0  0  0  0  0  0  0
   -1.4666    3.1722    0.6095 C   0  0  0  0  0  0  0  0  0  0  0  0
   -2.5439    3.3427    0.6539 H   0  0  0  0  0  0  0  0  0  0  0  0
   -0.9893    3.6529    1.4644 H   0  0  0  0  0  0  0  0  0  0  0  0
   -1.0808    3.6095   -0.3129 H   0  0  0  0  0  0  0  0  0  0  0  0
  5  6  2  0  0  0  0
  5  7  1  0  0  0  0
  2  3  1  0  0  0  0
  2  4  1  0  0  0  0
  2  5  1  0  0  0  0
  1  2  1  0  0  0  0
 29 30  2  0  0  0  0
 29 31  1  0  0  0  0
 26 27  1  0  0  0  0
 26 28  2  0  0  0  0
 24 25  1  0  0  0  0
 24 26  1  0  0  0  0
 22 23  1  0  0  0  0
 22 24  2  0  0  0  0
 20 21  1  0  0  0  0
 20 22  1  0  0  0  0
 19 20  2  0  0  0  0
 19 28  1  0  0  0  0
 17 18  1  0  0  0  0
 17 19  1  0  0  0  0
 15 16  1  0  0  0  0
 15 17  1  0  0  0  0
 14 15  2  0  0  0  0
 14 28  1  0  0  0  0
 11 12  1  0  0  0  0
 11 13  1  0  0  0  0
 11 14  1  0  0  0  0
  9 10  1  0  0  0  0
  9 11  1  0  0  0  0
  9 29  1  0  0  0  0
  7  8  1  0  0  0  0
  7  9  1  0  0  0  0
 33 34  1  0  0  0  0
 33 35  1  0  0  0  0
 33 36  1  0  0  0  0
 31 32  1  0  0  0  0
 31 33  1  0  0  0  0
M  END
$$$$
default_name
  -OEChem-02102213163D

 36 37  0     1  0  0  0  0  0999 V2000
   -4.0843   -4.0736    1.2944 H   0  0  0  0  0  0  0  0  0  0  0  0
   -4.0342   -3.2816    0.5484 C   0  0  0  0  0  0  0  0  0  0  0  0
   -4.8842   -2.6126    0.6694 H   0  0  0  0  0  0  0  0  0  0  0  0
   -4.0433   -3.7186   -0.4486 H   0  0  0  0  0  0  0  0  0  0  0  0
   -2.7532   -2.5046    0.7444 C   0  0  0  0  0  0  0  0  0  0  0  0
   -1.9803   -2.8096    1.6434 O   0  0  0  0  0  0  0  0  0  0  0  0
   -2.5332   -1.4966   -0.0966 N   0  0  0  0  0  0  0  0  0  0  0  0
   -3.2312   -1.2816   -0.7936 H   0  0  0  0  0  0  0  0  0  0  0  0
   -1.3593   -0.6196   -0.0536 C   0  0  1  0  0  0  0  0  0  0  0  0
   -0.8788   -0.7266    0.9196 H   0  0  0  0  0  0  0  0  0  0  0  0
   -0.3559   -1.0533   -1.1339 C   0  0  0  0  0  0  0  0  0  0  0  0
   -0.7159   -0.7114   -2.1058 H   0  0  0  0  0  0  0  0  0  0  0  0
    0.5972   -0.5575   -0.9417 H   0  0  0  0  0  0  0  0  0  0  0  0
   -0.1140   -2.5297   -1.2225 C   0  0  0  0  0  0  0  0  0  0  0  0
    0.6222   -3.2596   -0.3548 C   0  0  0  0  0  0  0  0  0  0  0  0
    1.1443   -2.8541    0.5049 H   0  0  0  0  0  0  0  0  0  0  0  0
    0.5870   -4.5907   -0.7214 N   0  0  0  0  0  0  0  0  0  0  0  0
    1.0707   -5.3200   -0.2182 H   0  0  0  0  0  0  0  0  0  0  0  0
   -0.1924   -4.7883   -1.8414 C   0  0  0  0  0  0  0  0  0  0  0  0
   -0.5549   -5.9323   -2.5668 C   0  0  0  0  0  0  0  0  0  0  0  0
   -0.1959   -6.9063   -2.2684 H   0  0  0  0  0  0  0  0  0  0  0  0
   -1.3902   -5.7933   -3.6884 C   0  0  0  0  0  0  0  0  0  0  0  0
   -1.6795   -6.6644   -4.2607 H   0  0  0  0  0  0  0  0  0  0  0  0
   -1.8448   -4.5178   -4.0701 C   0  0  0  0  0  0  0  0  0  0  0  0
   -2.4806   -4.4145   -4.9385 H   0  0  0  0  0  0  0  0  0  0  0  0
   -1.4725   -3.3746   -3.3347 C   0  0  0  0  0  0  0  0  0  0  0  0
   -1.8179   -2.3992   -3.6466 H   0  0  0  0  0  0  0  0  0  0  0  0
   -0.6397   -3.4814   -2.1998 C   0  0  0  0  0  0  0  0  0  0  0  0
   -1.7617    0.8549   -0.2106 C   0  0  0  0  0  0  0  0  0  0  0  0
   -2.5726    1.1871   -1.0741 O   0  0  0  0  0  0  0  0  0  0  0  0
   -1.1941    1.7377    0.6223 N   0  0  0  0  0  0  0  0  0  0  0  0
   -0.4976    1.3916    1.2669 H   0  0  0  0  0  0  0  0  0  0  0  0
   -1.4666    3.1722    0.6095 C   0  0  0  0  0  0  0  0  0  0  0  0
   -2.5439    3.3427    0.6539 H   0  0  0  0  0  0  0  0  0  0  0  0
   -0.9893    3.6529    1.4644 H   0  0  0  0  0  0  0  0  0  0  0  0
   -1.0808    3.6095   -0.3129 H   0  0  0  0  0  0  0  0  0  0  0  0
  5  6  2  0  0  0  0
  5  7  1  0  0  0  0
  2  3  1  0  0  0  0
  2  4  1  0  0  0  0
  2  5  1  0  0  0  0
  1  2  1  0  0  0  0
 29 30  2  0  0  0  0
 29 31  1  0  0  0  0
 26 27  1  0  0  0  0
 26 28  2  0  0  0  0
 24 25  1  0  0  0  0
 24 26  1  0  0  0  0
 22 23  1  0  0  0  0
 22 24  2  0  0  0  0
 20 21  1  0  0  0  0
 20 22  1  0  0  0  0
 19 20  2  0  0  0  0
 19 28  1  0  0  0  0
 17 18  1  0  0  0  0
 17 19  1  0  0  0  0
 15 16  1  0  0  0  0
 15 17  1  0  0  0  0
 14 15  2  0  0  0  0
 14 28  1  0  0  0  0
 11 12  1  0  0  0  0
 11 13  1  0  0  0  0
 11 14  1  0  0  0  0
  9 10  1  0  0  0  0
  9 11  1  0  0  0  0
  9 29  1  0  0  0  0
  7  8  1  0  0  0  0
  7  9  1  0  0  0  0
 33 34  1  0  0  0  0
 33 35  1  0  0  0  0
 33 36  1  0  0  0  0
 31 32  1  0  0  0  0
 31 33  1  0  0  0  0
M  END
$$$$
default_name
  -OEChem-02102213163D

 36 37  0     1  0  0  0  0  0999 V2000
   -4.0843   -4.0736    1.2944 H   0  0  0  0  0  0  0  0  0  0  0  0
   -4.0342   -3.2816    0.5484 C   0  0  0  0  0  0  0  0  0  0  0  0
   -4.8842   -2.6126    0.6694 H   0  0  0  0  0  0  0  0  0  0  0  0
   -4.0433   -3.7186   -0.4486 H   0  0  0  0  0  0  0  0  0  0  0  0
   -2.7532   -2.5046    0.7444 C   0  0  0  0  0  0  0  0  0  0  0  0
   -1.9803   -2.8096    1.6434 O   0  0  0  0  0  0  0  0  0  0  0  0
   -2.5332   -1.4966   -0.0966 N   0  0  0  0  0  0  0  0  0  0  0  0
   -3.2312   -1.2816   -0.7936 H   0  0  0  0  0  0  0  0  0  0  0  0
   -1.3593   -0.6196   -0.0536 C   0  0  1  0  0  0  0  0  0  0  0  0
   -0.8788   -0.7266    0.9196 H   0  0  0  0  0  0  0  0  0  0  0  0
   -0.3559   -1.0533   -1.1339 C   0  0  0  0  0  0  0  0  0  0  0  0
   -0.7159   -0.7114   -2.1058 H   0  0  0  0  0  0  0  0  0  0  0  0
    0.5972   -0.5575   -0.9417 H   0  0  0  0  0  0  0  0  0  0  0  0
   -0.1140   -2.5297   -1.2225 C   0  0  0  0  0  0  0  0  0  0  0  0
    0.3690   -3.3087   -0.2288 C   0  0  0  0  0  0  0  0  0  0  0  0
    0.6583   -2.9486    0.7525 H   0  0  0  0  0  0  0  0  0  0  0  0
    0.4154   -4.6231   -0.6502 N   0  0  0  0  0  0  0  0  0  0  0  0
    0.7474   -5.3818   -0.0728 H   0  0  0  0  0  0  0  0  0  0  0  0
   -0.0541   -4.7597   -1.9392 C   0  0  0  0  0  0  0  0  0  0  0  0
   -0.2307   -5.8662   -2.7824 C   0  0  0  0  0  0  0  0  0  0  0  0
    0.0306   -6.8585   -2.4453 H   0  0  0  0  0  0  0  0  0  0  0  0
   -0.7507   -5.6655   -4.0725 C   0  0  0  0  0  0  0  0  0  0  0  0
   -0.8928   -6.5069   -4.7371 H   0  0  0  0  0  0  0  0  0  0  0  0
   -1.0801   -4.3666   -4.5011 C   0  0  0  0  0  0  0  0  0  0  0  0
   -1.4720   -4.2157   -5.4975 H   0  0  0  0  0  0  0  0  0  0  0  0
   -0.8965   -3.2616   -3.6459 C   0  0  0  0  0  0  0  0  0  0  0  0
   -1.1412   -2.2676   -3.9925 H   0  0  0  0  0  0  0  0  0  0  0  0
   -0.3822   -3.4306   -2.3421 C   0  0  0  0  0  0  0  0  0  0  0  0
   -1.7617    0.8549   -0.2106 C   0  0  0  0  0  0  0  0  0  0  0  0
   -2.5726    1.1871   -1.0741 O   0  0  0  0  0  0  0  0  0  0  0  0
   -1.1941    1.7377    0.6223 N   0  0  0  0  0  0  0  0  0  0  0  0
   -0.4976    1.3916    1.2669 H   0  0  0  0  0  0  0  0  0  0  0  0
   -1.4666    3.1722    0.6095 C   0  0  0  0  0  0  0  0  0  0  0  0
   -2.5439    3.3427    0.6539 H   0  0  0  0  0  0  0  0  0  0  0  0
   -0.9893    3.6529    1.4644 H   0  0  0  0  0  0  0  0  0  0  0  0
   -1.0808    3.6095   -0.3129 H   0  0  0  0  0  0  0  0  0  0  0  0
  5  6  2  0  0  0  0
  5  7  1  0  0  0  0
  2  3  1  0  0  0  0
  2  4  1  0  0  0  0
  2  5  1  0  0  0  0
  1  2  1  0  0  0  0
 29 30  2  0  0  0  0
 29 31  1  0  0  0  0
 26 27  1  0  0  0  0
 26 28  2  0  0  0  0
 24 25  1  0  0  0  0
 24 26  1  0  0  0  0
 22 23  1  0  0  0  0
 22 24  2  0  0  0  0
 20 21  1  0  0  0  0
 20 22  1  0  0  0  0
 19 20  2  0  0  0  0
 19 28  1  0  0  0  0
 17 18  1  0  0  0  0
 17 19  1  0  0  0  0
 15 16  1  0  0  0  0
 15 17  1  0  0  0  0
 14 15  2  0  0  0  0
 14 28  1  0  0  0  0
 11 12  1  0  0  0  0
 11 13  1  0  0  0  0
 11 14  1  0  0  0  0
  9 10  1  0  0  0  0
  9 11  1  0  0  0  0
  9 29  1  0  0  0  0
  7  8  1  0  0  0  0
  7  9  1  0  0  0  0
 33 34  1  0  0  0  0
 33 35  1  0  0  0  0
 33 36  1  0  0  0  0
 31 32  1  0  0  0  0
 31 33  1  0  0  0  0
M  END
$$$$
default_name
  -OEChem-02102213163D

 36 37  0     1  0  0  0  0  0999 V2000
   -4.0843   -4.0736    1.2944 H   0  0  0  0  0  0  0  0  0  0  0  0
   -4.0342   -3.2816    0.5484 C   0  0  0  0  0  0  0  0  0  0  0  0
   -4.8842   -2.6126    0.6694 H   0  0  0  0  0  0  0  0  0  0  0  0
   -4.0433   -3.7186   -0.4486 H   0  0  0  0  0  0  0  0  0  0  0  0
   -2.7532   -2.5046    0.7444 C   0  0  0  0  0  0  0  0  0  0  0  0
   -1.9803   -2.8096    1.6434 O   0  0  0  0  0  0  0  0  0  0  0  0
   -2.5332   -1.4966   -0.0966 N   0  0  0  0  0  0  0  0  0  0  0  0
   -3.2312   -1.2816   -0.7936 H   0  0  0  0  0  0  0  0  0  0  0  0
   -1.3593   -0.6196   -0.0536 C   0  0  1  0  0  0  0  0  0  0  0  0
   -0.8788   -0.7266    0.9196 H   0  0  0  0  0  0  0  0  0  0  0  0
   -0.3559   -1.0533   -1.1339 C   0  0  0  0  0  0  0  0  0  0  0  0
   -0.7159   -0.7114   -2.1058 H   0  0  0  0  0  0  0  0  0  0  0  0
    0.5972   -0.5575   -0.9417 H   0  0  0  0  0  0  0  0  0  0  0  0
   -0.1140   -2.5297   -1.2225 C   0  0  0  0  0  0  0  0  0  0  0  0
    0.0916   -3.3574   -0.1736 C   0  0  0  0  0  0  0  0  0  0  0  0
    0.1243   -3.0428    0.8637 H   0  0  0  0  0  0  0  0  0  0  0  0
    0.2310   -4.6547   -0.6264 N   0  0  0  0  0  0  0  0  0  0  0  0
    0.3971   -5.4425   -0.0173 H   0  0  0  0  0  0  0  0  0  0  0  0
    0.1048   -4.7302   -1.9972 C   0  0  0  0  0  0  0  0  0  0  0  0
    0.1384   -5.7983   -2.9052 C   0  0  0  0  0  0  0  0  0  0  0  0
    0.2951   -6.8085   -2.5564 H   0  0  0  0  0  0  0  0  0  0  0  0
   -0.0330   -5.5357   -4.2751 C   0  0  0  0  0  0  0  0  0  0  0  0
   -0.0091   -6.3469   -4.9902 H   0  0  0  0  0  0  0  0  0  0  0  0
   -0.2292   -4.2143   -4.7162 C   0  0  0  0  0  0  0  0  0  0  0  0
   -0.3523   -4.0157   -5.7719 H   0  0  0  0  0  0  0  0  0  0  0  0
   -0.2591   -3.1482   -3.7949 C   0  0  0  0  0  0  0  0  0  0  0  0
   -0.3974   -2.1363   -4.1485 H   0  0  0  0  0  0  0  0  0  0  0  0
   -0.0964   -3.3796   -2.4118 C   0  0  0  0  0  0  0  0  0  0  0  0
   -1.7617    0.8549   -0.2106 C   0  0  0  0  0  0  0  0  0  0  0  0
   -2.5726    1.1871   -1.0741 O   0  0  0  0  0  0  0  0  0  0  0  0
   -1.1941    1.7377    0.6223 N   0  0  0  0  0  0  0  0  0  0  0  0
   -0.4976    1.3916    1.2669 H   0  0  0  0  0  0  0  0  0  0  0  0
   -1.4666    3.1722    0.6095 C   0  0  0  0  0  0  0  0  0  0  0  0
   -2.5439    3.3427    0.6539 H   0  0  0  0  0  0  0  0  0  0  0  0
   -0.9893    3.6529    1.4644 H   0  0  0  0  0  0  0  0  0  0  0  0
   -1.0808    3.6095   -0.3129 H   0  0  0  0  0  0  0  0  0  0  0  0
  5  6  2  0  0  0  0
  5  7  1  0  0  0  0
  2  3  1  0  0  0  0
  2  4  1  0  0  0  0
  2  5  1  0  0  0  0
  1  2  1  0  0  0  0
 29 30  2  0  0  0  0
 29 31  1  0  0  0  0
 26 27  1  0  0  0  0
 26 28  2  0  0  0  0
 24 25  1  0  0  0  0
 24 26  1  0  0  0  0
 22 23  1  0  0  0  0
 22 24  2  0  0  0  0
 20 21  1  0  0  0  0
 20 22  1  0  0  0  0
 19 20  2  0  0  0  0
 19 28  1  0  0  0  0
 17 18  1  0  0  0  0
 17 19  1  0  0  0  0
 15 16  1  0  0  0  0
 15 17  1  0  0  0  0
 14 15  2  0  0  0  0
 14 28  1  0  0  0  0
 11 12  1  0  0  0  0
 11 13  1  0  0  0  0
 11 14  1  0  0  0  0
  9 10  1  0  0  0  0
  9 11  1  0  0  0  0
  9 29  1  0  0  0  0
  7  8  1  0  0  0  0
  7  9  1  0  0  0  0
 33 34  1  0  0  0  0
 33 35  1  0  0  0  0
 33 36  1  0  0  0  0
 31 32  1  0  0  0  0
 31 33  1  0  0  0  0
M  END
$$$$
default_name
  -OEChem-02102213163D

 36 37  0     1  0  0  0  0  0999 V2000
   -4.0843   -4.0736    1.2944 H   0  0  0  0  0  0  0  0  0  0  0  0
   -4.0342   -3.2816    0.5484 C   0  0  0  0  0  0  0  0  0  0  0  0
   -4.8842   -2.6126    0.6694 H   0  0  0  0  0  0  0  0  0  0  0  0
   -4.0433   -3.7186   -0.4486 H   0  0  0  0  0  0  0  0  0  0  0  0
   -2.7532   -2.5046    0.7444 C   0  0  0  0  0  0  0  0  0  0  0  0
   -1.9803   -2.8096    1.6434 O   0  0  0  0  0  0  0  0  0  0  0  0
   -2.5332   -1.4966   -0.0966 N   0  0  0  0  0  0  0  0  0  0  0  0
   -3.2312   -1.2816   -0.7936 H   0  0  0  0  0  0  0  0  0  0  0  0
   -1.3593   -0.6196   -0.0536 C   0  0  1  0  0  0  0  0  0  0  0  0
   -0.8788   -0.7266    0.9196 H   0  0  0  0  0  0  0  0  0  0  0  0
   -0.3559   -1.0533   -1.1339 C   0  0  0  0  0  0  0  0  0  0  0  0
   -0.7159   -0.7114   -2.1058 H   0  0  0  0  0  0  0  0  0  0  0  0
    0.5972   -0.5575   -0.9417 H   0  0  0  0  0  0  0  0  0  0  0  0
   -0.1140   -2.5297   -1.2225 C   0  0  0  0  0  0  0  0  0  0  0  0
   -0.1912   -3.4026   -0.1931 C   0  0  0  0  0  0  0  0  0  0  0  0
   -0.4213   -3.1303    0.8311 H   0  0  0  0  0  0  0  0  0  0  0  0
    0.0464   -4.6835   -0.6518 N   0  0  0  0  0  0  0  0  0  0  0  0
    0.0436   -5.4981   -0.0556 H   0  0  0  0  0  0  0  0  0  0  0  0
    0.2736   -4.7017   -2.0115 C   0  0  0  0  0  0  0  0  0  0  0  0
    0.5272   -5.7333   -2.9268 C   0  0  0  0  0  0  0  0  0  0  0  0
    0.5797   -6.7596   -2.5942 H   0  0  0  0  0  0  0  0  0  0  0  0
    0.7139   -5.4129   -4.2824 C   0  0  0  0  0  0  0  0  0  0  0  0
    0.9115   -6.1953   -5.0026 H   0  0  0  0  0  0  0  0  0  0  0  0
    0.6499   -4.0711   -4.7007 C   0  0  0  0  0  0  0  0  0  0  0  0
    0.8023   -3.8282   -5.7432 H   0  0  0  0  0  0  0  0  0  0  0  0
    0.3963   -3.0422   -3.7716 C   0  0  0  0  0  0  0  0  0  0  0  0
    0.3629   -2.0144   -4.1041 H   0  0  0  0  0  0  0  0  0  0  0  0
    0.1982   -3.3318   -2.4042 C   0  0  0  0  0  0  0  0  0  0  0  0
   -1.7617    0.8549   -0.2106 C   0  0  0  0  0  0  0  0  0  0  0  0
   -2.5726    1.1871   -1.0741 O   0  0  0  0  0  0  0  0  0  0  0  0
   -1.1941    1.7377    0.6223 N   0  0  0  0  0  0  0  0  0  0  0  0
   -0.4976    1.3916    1.2669 H   0  0  0  0  0  0  0  0  0  0  0  0
   -1.4666    3.1722    0.6095 C   0  0  0  0  0  0  0  0  0  0  0  0
   -2.5439    3.3427    0.6539 H   0  0  0  0  0  0  0  0  0  0  0  0
   -0.9893    3.6529    1.4644 H   0  0  0  0  0  0  0  0  0  0  0  0
   -1.0808    3.6095   -0.3129 H   0  0  0  0  0  0  0  0  0  0  0  0
  5  6  2  0  0  0  0
  5  7  1  0  0  0  0
  2  3  1  0  0  0  0
  2  4  1  0  0  0  0
  2  5  1  0  0  0  0
  1  2  1  0  0  0  0
 29 30  2  0  0  0  0
 29 31  1  0  0  0  0
 26 27  1  0  0  0  0
 26 28  2  0  0  0  0
 24 25  1  0  0  0  0
 24 26  1  0  0  0  0
 22 23  1  0  0  0  0
 22 24  2  0  0  0  0
 20 21  1  0  0  0  0
 20 22  1  0  0  0  0
 19 20  2  0  0  0  0
 19 28  1  0  0  0  0
 17 18  1  0  0  0  0
 17 19  1  0  0  0  0
 15 16  1  0  0  0  0
 15 17  1  0  0  0  0
 14 15  2  0  0  0  0
 14 28  1  0  0  0  0
 11 12  1  0  0  0  0
 11 13  1  0  0  0  0
 11 14  1  0  0  0  0
  9 10  1  0  0  0  0
  9 11  1  0  0  0  0
  9 29  1  0  0  0  0
  7  8  1  0  0  0  0
  7  9  1  0  0  0  0
 33 34  1  0  0  0  0
 33 35  1  0  0  0  0
 33 36  1  0  0  0  0
 31 32  1  0  0  0  0
 31 33  1  0  0  0  0
M  END
$$$$
default_name
  -OEChem-02102213163D

 36 37  0     1  0  0  0  0  0999 V2000
   -4.0843   -4.0736    1.2944 H   0  0  0  0  0  0  0  0  0  0  0  0
   -4.0342   -3.2816    0.5484 C   0  0  0  0  0  0  0  0  0  0  0  0
   -4.8842   -2.6126    0.6694 H   0  0  0  0  0  0  0  0  0  0  0  0
   -4.0433   -3.7186   -0.4486 H   0  0  0  0  0  0  0  0  0  0  0  0
   -2.7532   -2.5046    0.7444 C   0  0  0  0  0  0  0  0  0  0  0  0
   -1.9803   -2.8096    1.6434 O   0  0  0  0  0  0  0  0  0  0  0  0
   -2.5332   -1.4966   -0.0966 N   0  0  0  0  0  0  0  0  0  0  0  0
   -3.2312   -1.2816   -0.7936 H   0  0  0  0  0  0  0  0  0  0  0  0
   -1.3593   -0.6196   -0.0536 C   0  0  1  0  0  0  0  0  0  0  0  0
   -0.8788   -0.7266    0.9196 H   0  0  0  0  0  0  0  0  0  0  0  0
   -0.3559   -1.0533   -1.1339 C   0  0  0  0  0  0  0  0  0  0  0  0
   -0.7159   -0.7114   -2.1058 H   0  0  0  0  0  0  0  0  0  0  0  0
    0.5972   -0.5575   -0.9417 H   0  0  0  0  0  0  0  0  0  0  0  0
   -0.1140   -2.5297   -1.2225 C   0  0  0  0  0  0  0  0  0  0  0  0
   -0.4601   -3.4411   -0.2860 C   0  0  0  0  0  0  0  0  0  0  0  0
   -0.9413   -3.2050    0.6568 H   0  0  0  0  0  0  0  0  0  0  0  0
   -0.1260   -4.7073   -0.7247 N   0  0  0  0  0  0  0  0  0  0  0  0
   -0.2889   -5.5448   -0.1850 H   0  0  0  0  0  0  0  0  0  0  0  0
    0.4406   -4.6761   -1.9811 C   0  0  0  0  0  0  0  0  0  0  0  0
    0.9093   -5.6756   -2.8459 C   0  0  0  0  0  0  0  0  0  0  0  0
    0.8650   -6.7151   -2.5561 H   0  0  0  0  0  0  0  0  0  0  0  0
    1.4390   -5.3054   -4.0939 C   0  0  0  0  0  0  0  0  0  0  0  0
    1.8062   -6.0624   -4.7735 H   0  0  0  0  0  0  0  0  0  0  0  0
    1.4972   -3.9470   -4.4556 C   0  0  0  0  0  0  0  0  0  0  0  0
    1.9132   -3.6660   -5.4132 H   0  0  0  0  0  0  0  0  0  0  0  0
    1.0250   -2.9508   -3.5776 C   0  0  0  0  0  0  0  0  0  0  0  0
    1.0878   -1.9101   -3.8623 H   0  0  0  0  0  0  0  0  0  0  0  0
    0.4816   -3.2904   -2.3197 C   0  0  0  0  0  0  0  0  0  0  0  0
   -1.7617    0.8549   -0.2106 C   0  0  0  0  0  0  0  0  0  0  0  0
   -2.5726    1.1871   -1.0741 O   0  0  0  0  0  0  0  0  0  0  0  0
   -1.1941    1.7377    0.6223 N   0  0  0  0  0  0  0  0  0  0  0  0
   -0.4976    1.3916    1.2669 H   0  0  0  0  0  0  0  0  0  0  0  0
   -1.4666    3.1722    0.6095 C   0  0  0  0  0  0  0  0  0  0  0  0
   -2.5439    3.3427    0.6539 H   0  0  0  0  0  0  0  0  0  0  0  0
   -0.9893    3.6529    1.4644 H   0  0  0  0  0  0  0  0  0  0  0  0
   -1.0808    3.6095   -0.3129 H   0  0  0  0  0  0  0  0  0  0  0  0
  5  6  2  0  0  0  0
  5  7  1  0  0  0  0
  2  3  1  0  0  0  0
  2  4  1  0  0  0  0
  2  5  1  0  0  0  0
  1  2  1  0  0  0  0
 29 30  2  0  0  0  0
 29 31  1  0  0  0  0
 26 27  1  0  0  0  0
 26 28  2  0  0  0  0
 24 25  1  0  0  0  0
 24 26  1  0  0  0  0
 22 23  1  0  0  0  0
 22 24  2  0  0  0  0
 20 21  1  0  0  0  0
 20 22  1  0  0  0  0
 19 20  2  0  0  0  0
 19 28  1  0  0  0  0
 17 18  1  0  0  0  0
 17 19  1  0  0  0  0
 15 16  1  0  0  0  0
 15 17  1  0  0  0  0
 14 15  2  0  0  0  0
 14 28  1  0  0  0  0
 11 12  1  0  0  0  0
 11 13  1  0  0  0  0
 11 14  1  0  0  0  0
  9 10  1  0  0  0  0
  9 11  1  0  0  0  0
  9 29  1  0  0  0  0
  7  8  1  0  0  0  0
  7  9  1  0  0  0  0
 33 34  1  0  0  0  0
 33 35  1  0  0  0  0
 33 36  1  0  0  0  0
 31 32  1  0  0  0  0
 31 33  1  0  0  0  0
M  END
$$$$
default_name
  -OEChem-02102213163D

 36 37  0     1  0  0  0  0  0999 V2000
   -4.0843   -4.0736    1.2944 H   0  0  0  0  0  0  0  0  0  0  0  0
   -4.0342   -3.2816    0.5484 C   0  0  0  0  0  0  0  0  0  0  0  0
   -4.8842   -2.6126    0.6694 H   0  0  0  0  0  0  0  0  0  0  0  0
   -4.0433   -3.7186   -0.4486 H   0  0  0  0  0  0  0  0  0  0  0  0
   -2.7532   -2.5046    0.7444 C   0  0  0  0  0  0  0  0  0  0  0  0
   -1.9803   -2.8096    1.6434 O   0  0  0  0  0  0  0  0  0  0  0  0
   -2.5332   -1.4966   -0.0966 N   0  0  0  0  0  0  0  0  0  0  0  0
   -3.2312   -1.2816   -0.7936 H   0  0  0  0  0  0  0  0  0  0  0  0
   -1.3593   -0.6196   -0.0536 C   0  0  1  0  0  0  0  0  0  0  0  0
   -0.8788   -0.7266    0.9196 H   0  0  0  0  0  0  0  0  0  0  0  0
   -0.3559   -1.0533   -1.1339 C   0  0  0  0  0  0  0  0  0  0  0  0
   -0.7159   -0.7114   -2.1058 H   0  0  0  0  0  0  0  0  0  0  0  0
    0.5972   -0.5575   -0.9417 H   0  0  0  0  0  0  0  0  0  0  0  0
   -0.1140   -2.5297   -1.2225 C   0  0  0  0  0  0  0  0  0  0  0  0
   -0.6967   -3.4703   -0.4458 C   0  0  0  0  0  0  0  0  0  0  0  0
   -1.4003   -3.2620    0.3528 H   0  0  0  0  0  0  0  0  0  0  0  0
   -0.2742   -4.7247   -0.8399 N   0  0  0  0  0  0  0  0  0  0  0  0
   -0.5778   -5.5795   -0.3967 H   0  0  0  0  0  0  0  0  0  0  0  0
    0.5947   -4.6553   -1.9081 C   0  0  0  0  0  0  0  0  0  0  0  0
    1.2587   -5.6290   -2.6679 C   0  0  0  0  0  0  0  0  0  0  0  0
    1.1316   -6.6781   -2.4448 H   0  0  0  0  0  0  0  0  0  0  0  0
    2.0931   -5.2205   -3.7224 C   0  0  0  0  0  0  0  0  0  0  0  0
    2.6141   -5.9574   -4.3186 H   0  0  0  0  0  0  0  0  0  0  0  0
    2.2551   -3.8503   -3.9975 C   0  0  0  0  0  0  0  0  0  0  0  0
    2.9045   -3.5402   -4.8045 H   0  0  0  0  0  0  0  0  0  0  0  0
    1.5843   -2.8803   -3.2260 C   0  0  0  0  0  0  0  0  0  0  0  0
    1.7280   -1.8306   -3.4395 H   0  0  0  0  0  0  0  0  0  0  0  0
    0.7344   -3.2583   -2.1641 C   0  0  0  0  0  0  0  0  0  0  0  0
   -1.7617    0.8549   -0.2106 C   0  0  0  0  0  0  0  0  0  0  0  0
   -2.5726    1.1871   -1.0741 O   0  0  0  0  0  0  0  0  0  0  0  0
   -1.1941    1.7377    0.6223 N   0  0  0  0  0  0  0  0  0  0  0  0
   -0.4976    1.3916    1.2669 H   0  0  0  0  0  0  0  0  0  0  0  0
   -1.4666    3.1722    0.6095 C   0  0  0  0  0  0  0  0  0  0  0  0
   -2.5439    3.3427    0.6539 H   0  0  0  0  0  0  0  0  0  0  0  0
   -0.9893    3.6529    1.4644 H   0  0  0  0  0  0  0  0  0  0  0  0
   -1.0808    3.6095   -0.3129 H   0  0  0  0  0  0  0  0  0  0  0  0
  5  6  2  0  0  0  0
  5  7  1  0  0  0  0
  2  3  1  0  0  0  0
  2  4  1  0  0  0  0
  2  5  1  0  0  0  0
  1  2  1  0  0  0  0
 29 30  2  0  0  0  0
 29 31  1  0  0  0  0
 26 27  1  0  0  0  0
 26 28  2  0  0  0  0
 24 25  1  0  0  0  0
 24 26  1  0  0  0  0
 22 23  1  0  0  0  0
 22 24  2  0  0  0  0
 20 21  1  0  0  0  0
 20 22  1  0  0  0  0
 19 20  2  0  0  0  0
 19 28  1  0  0  0  0
 17 18  1  0  0  0  0
 17 19  1  0  0  0  0
 15 16  1  0  0  0  0
 15 17  1  0  0  0  0
 14 15  2  0  0  0  0
 14 28  1  0  0  0  0
 11 12  1  0  0  0  0
 11 13  1  0  0  0  0
 11 14  1  0  0  0  0
  9 10  1  0  0  0  0
  9 11  1  0  0  0  0
  9 29  1  0  0  0  0
  7  8  1  0  0  0  0
  7  9  1  0  0  0  0
 33 34  1  0  0  0  0
 33 35  1  0  0  0  0
 33 36  1  0  0  0  0
 31 32  1  0  0  0  0
 31 33  1  0  0  0  0
M  END
$$$$
default_name
  -OEChem-02102213163D

 36 37  0     1  0  0  0  0  0999 V2000
   -4.0843   -4.0736    1.2944 H   0  0  0  0  0  0  0  0  0  0  0  0
   -4.0342   -3.2816    0.5484 C   0  0  0  0  0  0  0  0  0  0  0  0
   -4.8842   -2.6126    0.6694 H   0  0  0  0  0  0  0  0  0  0  0  0
   -4.0433   -3.7186   -0.4486 H   0  0  0  0  0  0  0  0  0  0  0  0
   -2.7532   -2.5046    0.7444 C   0  0  0  0  0  0  0  0  0  0  0  0
   -1.9803   -2.8096    1.6434 O   0  0  0  0  0  0  0  0  0  0  0  0
   -2.5332   -1.4966   -0.0966 N   0  0  0  0  0  0  0  0  0  0  0  0
   -3.2312   -1.2816   -0.7936 H   0  0  0  0  0  0  0  0  0  0  0  0
   -1.3593   -0.6196   -0.0536 C   0  0  1  0  0  0  0  0  0  0  0  0
   -0.8788   -0.7266    0.9196 H   0  0  0  0  0  0  0  0  0  0  0  0
   -0.3559   -1.0533   -1.1339 C   0  0  0  0  0  0  0  0  0  0  0  0
   -0.7159   -0.7114   -2.1058 H   0  0  0  0  0  0  0  0  0  0  0  0
    0.5972   -0.5575   -0.9417 H   0  0  0  0  0  0  0  0  0  0  0  0
   -0.1140   -2.5297   -1.2225 C   0  0  0  0  0  0  0  0  0  0  0  0
   -0.8850   -3.4881   -0.6617 C   0  0  0  0  0  0  0  0  0  0  0  0
   -1.7670   -3.2972   -0.0603 H   0  0  0  0  0  0  0  0  0  0  0  0
   -0.3883   -4.7344   -0.9898 N   0  0  0  0  0  0  0  0  0  0  0  0
   -0.8034   -5.5996   -0.6764 H   0  0  0  0  0  0  0  0  0  0  0  0
    0.7251   -4.6406   -1.7974 C   0  0  0  0  0  0  0  0  0  0  0  0
    1.5515   -5.5968   -2.4050 C   0  0  0  0  0  0  0  0  0  0  0  0
    1.3612   -6.6511   -2.2676 H   0  0  0  0  0  0  0  0  0  0  0  0
    2.6314   -5.1641   -3.1933 C   0  0  0  0  0  0  0  0  0  0  0  0
    3.2801   -5.8873   -3.6688 H   0  0  0  0  0  0  0  0  0  0  0  0
    2.8718   -3.7877   -3.3579 C   0  0  0  0  0  0  0  0  0  0  0  0
    3.7088   -3.4592   -3.9584 H   0  0  0  0  0  0  0  0  0  0  0  0
    2.0359   -2.8354   -2.7409 C   0  0  0  0  0  0  0  0  0  0  0  0
    2.2398   -1.7813   -2.8646 H   0  0  0  0  0  0  0  0  0  0  0  0
    0.9394   -3.2377   -1.9480 C   0  0  0  0  0  0  0  0  0  0  0  0
   -1.7617    0.8549   -0.2106 C   0  0  0  0  0  0  0  0  0  0  0  0
   -2.5726    1.1871   -1.0741 O   0  0  0  0  0  0  0  0  0  0  0  0
   -1.1941    1.7377    0.6223 N   0  0  0  0  0  0  0  0  0  0  0  0
   -0.4976    1.3916    1.2669 H   0  0  0  0  0  0  0  0  0  0  0  0
   -1.4666    3.1722    0.6095 C   0  0  0  0  0  0  0  0  0  0  0  0
   -2.5439    3.3427    0.6539 H   0  0  0  0  0  0  0  0  0  0  0  0
   -0.9893    3.6529    1.4644 H   0  0  0  0  0  0  0  0  0  0  0  0
   -1.0808    3.6095   -0.3129 H   0  0  0  0  0  0  0  0  0  0  0  0
  5  6  2  0  0  0  0
  5  7  1  0  0  0  0
  2  3  1  0  0  0  0
  2  4  1  0  0  0  0
  2  5  1  0  0  0  0
  1  2  1  0  0  0  0
 29 30  2  0  0  0  0
 29 31  1  0  0  0  0
 26 27  1  0  0  0  0
 26 28  2  0  0  0  0
 24 25  1  0  0  0  0
 24 26  1  0  0  0  0
 22 23  1  0  0  0  0
 22 24  2  0  0  0  0
 20 21  1  0  0  0  0
 20 22  1  0  0  0  0
 19 20  2  0  0  0  0
 19 28  1  0  0  0  0
 17 18  1  0  0  0  0
 17 19  1  0  0  0  0
 15 16  1  0  0  0  0
 15 17  1  0  0  0  0
 14 15  2  0  0  0  0
 14 28  1  0  0  0  0
 11 12  1  0  0  0  0
 11 13  1  0  0  0  0
 11 14  1  0  0  0  0
  9 10  1  0  0  0  0
  9 11  1  0  0  0  0
  9 29  1  0  0  0  0
  7  8  1  0  0  0  0
  7  9  1  0  0  0  0
 33 34  1  0  0  0  0
 33 35  1  0  0  0  0
 33 36  1  0  0  0  0
 31 32  1  0  0  0  0
 31 33  1  0  0  0  0
M  END
$$$$
default_name
  -OEChem-02102213163D

 36 37  0     1  0  0  0  0  0999 V2000
   -4.0843   -4.0736    1.2944 H   0  0  0  0  0  0  0  0  0  0  0  0
   -4.0342   -3.2816    0.5484 C   0  0  0  0  0  0  0  0  0  0  0  0
   -4.8842   -2.6126    0.6694 H   0  0  0  0  0  0  0  0  0  0  0  0
   -4.0433   -3.7186   -0.4486 H   0  0  0  0  0  0  0  0  0  0  0  0
   -2.7532   -2.5046    0.7444 C   0  0  0  0  0  0  0  0  0  0  0  0
   -1.9803   -2.8096    1.6434 O   0  0  0  0  0  0  0  0  0  0  0  0
   -2.5332   -1.4966   -0.0966 N   0  0  0  0  0  0  0  0  0  0  0  0
   -3.2312   -1.2816   -0.7936 H   0  0  0  0  0  0  0  0  0  0  0  0
   -1.3593   -0.6196   -0.0536 C   0  0  1  0  0  0  0  0  0  0  0  0
   -0.8788   -0.7266    0.9196 H   0  0  0  0  0  0  0  0  0  0  0  0
   -0.3559   -1.0533   -1.1339 C   0  0  0  0  0  0  0  0  0  0  0  0
   -0.7159   -0.7114   -2.1058 H   0  0  0  0  0  0  0  0  0  0  0  0
    0.5972   -0.5575   -0.9417 H   0  0  0  0  0  0  0  0  0  0  0  0
   -0.1140   -2.5297   -1.2225 C   0  0  0  0  0  0  0  0  0  0  0  0
   -1.0120   -3.4935   -0.9190 C   0  0  0  0  0  0  0  0  0  0  0  0
   -2.0165   -3.3085   -0.5543 H   0  0  0  0  0  0  0  0  0  0  0  0
   -0.4604   -4.7358   -1.1640 N   0  0  0  0  0  0  0  0  0  0  0  0
   -0.9503   -5.6040   -1.0048 H   0  0  0  0  0  0  0  0  0  0  0  0
    0.8232   -4.6329   -1.6566 C   0  0  0  0  0  0  0  0  0  0  0  0
    1.7677   -5.5812   -2.0750 C   0  0  0  0  0  0  0  0  0  0  0  0
    1.5383   -6.6360   -2.0369 H   0  0  0  0  0  0  0  0  0  0  0  0
    3.0173   -5.1399   -2.5426 C   0  0  0  0  0  0  0  0  0  0  0  0
    3.7587   -5.8569   -2.8685 H   0  0  0  0  0  0  0  0  0  0  0  0
    3.3054   -3.7633   -2.5801 C   0  0  0  0  0  0  0  0  0  0  0  0
    4.2711   -3.4286   -2.9328 H   0  0  0  0  0  0  0  0  0  0  0  0
    2.3491   -2.8192   -2.1553 C   0  0  0  0  0  0  0  0  0  0  0  0
    2.5883   -1.7655   -2.1768 H   0  0  0  0  0  0  0  0  0  0  0  0
    1.0826   -3.2300   -1.6861 C   0  0  0  0  0  0  0  0  0  0  0  0
   -1.7617    0.8549   -0.2106 C   0  0  0  0  0  0  0  0  0  0  0  0
   -2.5726    1.1871   -1.0741 O   0  0  0  0  0  0  0  0  0  0  0  0
   -1.1941    1.7377    0.6223 N   0  0  0  0  0  0  0  0  0  0  0  0
   -0.4976    1.3916    1.2669 H   0  0  0  0  0  0  0  0  0  0  0  0
   -1.4666    3.1722    0.6095 C   0  0  0  0  0  0  0  0  0  0  0  0
   -2.5439    3.3427    0.6539 H   0  0  0  0  0  0  0  0  0  0  0  0
   -0.9893    3.6529    1.4644 H   0  0  0  0  0  0  0  0  0  0  0  0
   -1.0808    3.6095   -0.3129 H   0  0  0  0  0  0  0  0  0  0  0  0
  5  6  2  0  0  0  0
  5  7  1  0  0  0  0
  2  3  1  0  0  0  0
  2  4  1  0  0  0  0
  2  5  1  0  0  0  0
  1  2  1  0  0  0  0
 29 30  2  0  0  0  0
 29 31  1  0  0  0  0
 26 27  1  0  0  0  0
 26 28  2  0  0  0  0
 24 25  1  0  0  0  0
 24 26  1  0  0  0  0
 22 23  1  0  0  0  0
 22 24  2  0  0  0  0
 20 21  1  0  0  0  0
 20 22  1  0  0  0  0
 19 20  2  0  0  0  0
 19 28  1  0  0  0  0
 17 18  1  0  0  0  0
 17 19  1  0  0  0  0
 15 16  1  0  0  0  0
 15 17  1  0  0  0  0
 14 15  2  0  0  0  0
 14 28  1  0  0  0  0
 11 12  1  0  0  0  0
 11 13  1  0  0  0  0
 11 14  1  0  0  0  0
  9 10  1  0  0  0  0
  9 11  1  0  0  0  0
  9 29  1  0  0  0  0
  7  8  1  0  0  0  0
  7  9  1  0  0  0  0
 33 34  1  0  0  0  0
 33 35  1  0  0  0  0
 33 36  1  0  0  0  0
 31 32  1  0  0  0  0
 31 33  1  0  0  0  0
M  END
$$$$
default_name
  -OEChem-02102213163D

 36 37  0     1  0  0  0  0  0999 V2000
   -4.0843   -4.0736    1.2944 H   0  0  0  0  0  0  0  0  0  0  0  0
   -4.0342   -3.2816    0.5484 C   0  0  0  0  0  0  0  0  0  0  0  0
   -4.8842   -2.6126    0.6694 H   0  0  0  0  0  0  0  0  0  0  0  0
   -4.0433   -3.7186   -0.4486 H   0  0  0  0  0  0  0  0  0  0  0  0
   -2.7532   -2.5046    0.7444 C   0  0  0  0  0  0  0  0  0  0  0  0
   -1.9803   -2.8096    1.6434 O   0  0  0  0  0  0  0  0  0  0  0  0
   -2.5332   -1.4966   -0.0966 N   0  0  0  0  0  0  0  0  0  0  0  0
   -3.2312   -1.2816   -0.7936 H   0  0  0  0  0  0  0  0  0  0  0  0
   -1.3593   -0.6196   -0.0536 C   0  0  1  0  0  0  0  0  0  0  0  0
   -0.8788   -0.7266    0.9196 H   0  0  0  0  0  0  0  0  0  0  0  0
   -0.3559   -1.0533   -1.1339 C   0  0  0  0  0  0  0  0  0  0  0  0
   -0.7159   -0.7114   -2.1058 H   0  0  0  0  0  0  0  0  0  0  0  0
    0.5972   -0.5575   -0.9417 H   0  0  0  0  0  0  0  0  0  0  0  0
   -0.1140   -2.5297   -1.2225 C   0  0  0  0  0  0  0  0  0  0  0  0
   -1.0693   -3.4860   -1.2002 C   0  0  0  0  0  0  0  0  0  0  0  0
   -2.1316   -3.2948   -1.0955 H   0  0  0  0  0  0  0  0  0  0  0  0
   -0.4857   -4.7287   -1.3508 N   0  0  0  0  0  0  0  0  0  0  0  0
   -1.0086   -5.5922   -1.3597 H   0  0  0  0  0  0  0  0  0  0  0  0
    0.8821   -4.6330   -1.4953 C   0  0  0  0  0  0  0  0  0  0  0  0
    1.8927   -5.5832   -1.7004 C   0  0  0  0  0  0  0  0  0  0  0  0
    1.6508   -6.6337   -1.7682 H   0  0  0  0  0  0  0  0  0  0  0  0
    3.2246   -5.1496   -1.8147 C   0  0  0  0  0  0  0  0  0  0  0  0
    4.0175   -5.8683   -1.9720 H   0  0  0  0  0  0  0  0  0  0  0  0
    3.5263   -3.7789   -1.7173 C   0  0  0  0  0  0  0  0  0  0  0  0
    4.5533   -3.4505   -1.7975 H   0  0  0  0  0  0  0  0  0  0  0  0
    2.5027   -2.8329   -1.5091 C   0  0  0  0  0  0  0  0  0  0  0  0
    2.7497   -1.7843   -1.4228 H   0  0  0  0  0  0  0  0  0  0  0  0
    1.1543   -3.2356   -1.3963 C   0  0  0  0  0  0  0  0  0  0  0  0
   -1.7617    0.8549   -0.2106 C   0  0  0  0  0  0  0  0  0  0  0  0
   -2.5726    1.1871   -1.0741 O   0  0  0  0  0  0  0  0  0  0  0  0
   -1.1941    1.7377    0.6223 N   0  0  0  0  0  0  0  0  0  0  0  0
   -0.4976    1.3916    1.2669 H   0  0  0  0  0  0  0  0  0  0  0  0
   -1.4666    3.1722    0.6095 C   0  0  0  0  0  0  0  0  0  0  0  0
   -2.5439    3.3427    0.6539 H   0  0  0  0  0  0  0  0  0  0  0  0
   -0.9893    3.6529    1.4644 H   0  0  0  0  0  0  0  0  0  0  0  0
   -1.0808    3.6095   -0.3129 H   0  0  0  0  0  0  0  0  0  0  0  0
  5  6  2  0  0  0  0
  5  7  1  0  0  0  0
  2  3  1  0  0  0  0
  2  4  1  0  0  0  0
  2  5  1  0  0  0  0
  1  2  1  0  0  0  0
 29 30  2  0  0  0  0
 29 31  1  0  0  0  0
 26 27  1  0  0  0  0
 26 28  2  0  0  0  0
 24 25  1  0  0  0  0
 24 26  1  0  0  0  0
 22 23  1  0  0  0  0
 22 24  2  0  0  0  0
 20 21  1  0  0  0  0
 20 22  1  0  0  0  0
 19 20  2  0  0  0  0
 19 28  1  0  0  0  0
 17 18  1  0  0  0  0
 17 19  1  0  0  0  0
 15 16  1  0  0  0  0
 15 17  1  0  0  0  0
 14 15  2  0  0  0  0
 14 28  1  0  0  0  0
 11 12  1  0  0  0  0
 11 13  1  0  0  0  0
 11 14  1  0  0  0  0
  9 10  1  0  0  0  0
  9 11  1  0  0  0  0
  9 29  1  0  0  0  0
  7  8  1  0  0  0  0
  7  9  1  0  0  0  0
 33 34  1  0  0  0  0
 33 35  1  0  0  0  0
 33 36  1  0  0  0  0
 31 32  1  0  0  0  0
 31 33  1  0  0  0  0
M  END
$$$$
default_name
  -OEChem-02102213163D

 36 37  0     1  0  0  0  0  0999 V2000
   -4.0843   -4.0736    1.2944 H   0  0  0  0  0  0  0  0  0  0  0  0
   -4.0342   -3.2816    0.5484 C   0  0  0  0  0  0  0  0  0  0  0  0
   -4.8842   -2.6126    0.6694 H   0  0  0  0  0  0  0  0  0  0  0  0
   -4.0433   -3.7186   -0.4486 H   0  0  0  0  0  0  0  0  0  0  0  0
   -2.7532   -2.5046    0.7444 C   0  0  0  0  0  0  0  0  0  0  0  0
   -1.9803   -2.8096    1.6434 O   0  0  0  0  0  0  0  0  0  0  0  0
   -2.5332   -1.4966   -0.0966 N   0  0  0  0  0  0  0  0  0  0  0  0
   -3.2312   -1.2816   -0.7936 H   0  0  0  0  0  0  0  0  0  0  0  0
   -1.3593   -0.6196   -0.0536 C   0  0  1  0  0  0  0  0  0  0  0  0
   -0.8788   -0.7266    0.9196 H   0  0  0  0  0  0  0  0  0  0  0  0
   -0.3559   -1.0533   -1.1339 C   0  0  0  0  0  0  0  0  0  0  0  0
   -0.7159   -0.7114   -2.1058 H   0  0  0  0  0  0  0  0  0  0  0  0
    0.5972   -0.5575   -0.9417 H   0  0  0  0  0  0  0  0  0  0  0  0
   -0.1140   -2.5297   -1.2225 C   0  0  0  0  0  0  0  0  0  0  0  0
   -1.0527   -3.4661   -1.4861 C   0  0  0  0  0  0  0  0  0  0  0  0
   -2.1047   -3.2573   -1.6471 H   0  0  0  0  0  0  0  0  0  0  0  0
   -0.4623   -4.7137   -1.5373 N   0  0  0  0  0  0  0  0  0  0  0  0
   -0.9741   -5.5651   -1.7169 H   0  0  0  0  0  0  0  0  0  0  0  0
    0.8978   -4.6407   -1.3245 C   0  0  0  0  0  0  0  0  0  0  0  0
    1.9179   -5.6027   -1.3069 C   0  0  0  0  0  0  0  0  0  0  0  0
    1.6909   -6.6444   -1.4800 H   0  0  0  0  0  0  0  0  0  0  0  0
    3.2390   -5.1926   -1.0591 C   0  0  0  0  0  0  0  0  0  0  0  0
    4.0387   -5.9208   -1.0407 H   0  0  0  0  0  0  0  0  0  0  0  0
    3.5195   -3.8335   -0.8282 C   0  0  0  0  0  0  0  0  0  0  0  0
    4.5361   -3.5235   -0.6298 H   0  0  0  0  0  0  0  0  0  0  0  0
    2.4860   -2.8754   -0.8463 C   0  0  0  0  0  0  0  0  0  0  0  0
    2.7132   -1.8364   -0.6542 H   0  0  0  0  0  0  0  0  0  0  0  0
    1.1496   -3.2543   -1.0984 C   0  0  0  0  0  0  0  0  0  0  0  0
   -1.7617    0.8549   -0.2106 C   0  0  0  0  0  0  0  0  0  0  0  0
   -2.5726    1.1871   -1.0741 O   0  0  0  0  0  0  0  0  0  0  0  0
   -1.1941    1.7377    0.6223 N   0  0  0  0  0  0  0  0  0  0  0  0
   -0.4976    1.3916    1.2669 H   0  0  0  0  0  0  0  0  0  0  0  0
   -1.4666    3.1722    0.6095 C   0  0  0  0  0  0  0  0  0  0  0  0
   -2.5439    3.3427    0.6539 H   0  0  0  0  0  0  0  0  0  0  0  0
   -0.9893    3.6529    1.4644 H   0  0  0  0  0  0  0  0  0  0  0  0
   -1.0808    3.6095   -0.3129 H   0  0  0  0  0  0  0  0  0  0  0  0
  5  6  2  0  0  0  0
  5  7  1  0  0  0  0
  2  3  1  0  0  0  0
  2  4  1  0  0  0  0
  2  5  1  0  0  0  0
  1  2  1  0  0  0  0
 29 30  2  0  0  0  0
 29 31  1  0  0  0  0
 26 27  1  0  0  0  0
 26 28  2  0  0  0  0
 24 25  1  0  0  0  0
 24 26  1  0  0  0  0
 22 23  1  0  0  0  0
 22 24  2  0  0  0  0
 20 21  1  0  0  0  0
 20 22  1  0  0  0  0
 19 20  2  0  0  0  0
 19 28  1  0  0  0  0
 17 18  1  0  0  0  0
 17 19  1  0  0  0  0
 15 16  1  0  0  0  0
 15 17  1  0  0  0  0
 14 15  2  0  0  0  0
 14 28  1  0  0  0  0
 11 12  1  0  0  0  0
 11 13  1  0  0  0  0
 11 14  1  0  0  0  0
  9 10  1  0  0  0  0
  9 11  1  0  0  0  0
  9 29  1  0  0  0  0
  7  8  1  0  0  0  0
  7  9  1  0  0  0  0
 33 34  1  0  0  0  0
 33 35  1  0  0  0  0
 33 36  1  0  0  0  0
 31 32  1  0  0  0  0
 31 33  1  0  0  0  0
M  END
$$$$
default_name
  -OEChem-02102213163D

 36 37  0     1  0  0  0  0  0999 V2000
   -4.0843   -4.0736    1.2944 H   0  0  0  0  0  0  0  0  0  0  0  0
   -4.0342   -3.2816    0.5484 C   0  0  0  0  0  0  0  0  0  0  0  0
   -4.8842   -2.6126    0.6694 H   0  0  0  0  0  0  0  0  0  0  0  0
   -4.0433   -3.7186   -0.4486 H   0  0  0  0  0  0  0  0  0  0  0  0
   -2.7532   -2.5046    0.7444 C   0  0  0  0  0  0  0  0  0  0  0  0
   -1.9803   -2.8096    1.6434 O   0  0  0  0  0  0  0  0  0  0  0  0
   -2.5332   -1.4966   -0.0966 N   0  0  0  0  0  0  0  0  0  0  0  0
   -3.2312   -1.2816   -0.7936 H   0  0  0  0  0  0  0  0  0  0  0  0
   -1.3593   -0.6196   -0.0536 C   0  0  1  0  0  0  0  0  0  0  0  0
   -0.8788   -0.7266    0.9196 H   0  0  0  0  0  0  0  0  0  0  0  0
   -0.3559   -1.0533   -1.1339 C   0  0  0  0  0  0  0  0  0  0  0  0
   -0.7159   -0.7114   -2.1058 H   0  0  0  0  0  0  0  0  0  0  0  0
    0.5972   -0.5575   -0.9417 H   0  0  0  0  0  0  0  0  0  0  0  0
   -0.1140   -2.5297   -1.2225 C   0  0  0  0  0  0  0  0  0  0  0  0
   -0.9635   -3.4352   -1.7572 C   0  0  0  0  0  0  0  0  0  0  0  0
   -1.9374   -3.1984   -2.1714 H   0  0  0  0  0  0  0  0  0  0  0  0
   -0.3920   -4.6917   -1.7110 N   0  0  0  0  0  0  0  0  0  0  0  0
   -0.8494   -5.5246   -2.0520 H   0  0  0  0  0  0  0  0  0  0  0  0
    0.8694   -4.6554   -1.1558 C   0  0  0  0  0  0  0  0  0  0  0  0
    1.8416   -5.6384   -0.9211 C   0  0  0  0  0  0  0  0  0  0  0  0
    1.6560   -6.6674   -1.1917 H   0  0  0  0  0  0  0  0  0  0  0  0
    3.0597   -5.2660   -0.3274 C   0  0  0  0  0  0  0  0  0  0  0  0
    3.8209   -6.0107   -0.1378 H   0  0  0  0  0  0  0  0  0  0  0  0
    3.2853   -3.9231    0.0265 C   0  0  0  0  0  0  0  0  0  0  0  0
    4.2206   -3.6425    0.4907 H   0  0  0  0  0  0  0  0  0  0  0  0
    2.3002   -2.9439   -0.2122 C   0  0  0  0  0  0  0  0  0  0  0  0
    2.4812   -1.9183    0.0768 H   0  0  0  0  0  0  0  0  0  0  0  0
    1.0688   -3.2847   -0.8125 C   0  0  0  0  0  0  0  0  0  0  0  0
   -1.7617    0.8549   -0.2106 C   0  0  0  0  0  0  0  0  0  0  0  0
   -2.5726    1.1871   -1.0741 O   0  0  0  0  0  0  0  0  0  0  0  0
   -1.1941    1.7377    0.6223 N   0  0  0  0  0  0  0  0  0  0  0  0
   -0.4976    1.3916    1.2669 H   0  0  0  0  0  0  0  0  0  0  0  0
   -1.4666    3.1722    0.6095 C   0  0  0  0  0  0  0  0  0  0  0  0
   -2.5439    3.3427    0.6539 H   0  0  0  0  0  0  0  0  0  0  0  0
   -0.9893    3.6529    1.4644 H   0  0  0  0  0  0  0  0  0  0  0  0
   -1.0808    3.6095   -0.3129 H   0  0  0  0  0  0  0  0  0  0  0  0
  5  6  2  0  0  0  0
  5  7  1  0  0  0  0
  2  3  1  0  0  0  0
  2  4  1  0  0  0  0
  2  5  1  0  0  0  0
  1  2  1  0  0  0  0
 29 30  2  0  0  0  0
 29 31  1  0  0  0  0
 26 27  1  0  0  0  0
 26 28  2  0  0  0  0
 24 25  1  0  0  0  0
 24 26  1  0  0  0  0
 22 23  1  0  0  0  0
 22 24  2  0  0  0  0
 20 21  1  0  0  0  0
 20 22  1  0  0  0  0
 19 20  2  0  0  0  0
 19 28  1  0  0  0  0
 17 18  1  0  0  0  0
 17 19  1  0  0  0  0
 15 16  1  0  0  0  0
 15 17  1  0  0  0  0
 14 15  2  0  0  0  0
 14 28  1  0  0  0  0
 11 12  1  0  0  0  0
 11 13  1  0  0  0  0
 11 14  1  0  0  0  0
  9 10  1  0  0  0  0
  9 11  1  0  0  0  0
  9 29  1  0  0  0  0
  7  8  1  0  0  0  0
  7  9  1  0  0  0  0
 33 34  1  0  0  0  0
 33 35  1  0  0  0  0
 33 36  1  0  0  0  0
 31 32  1  0  0  0  0
 31 33  1  0  0  0  0
M  END
$$$$
default_name
  -OEChem-02102213163D

 36 37  0     1  0  0  0  0  0999 V2000
   -4.0843   -4.0736    1.2944 H   0  0  0  0  0  0  0  0  0  0  0  0
   -4.0342   -3.2816    0.5484 C   0  0  0  0  0  0  0  0  0  0  0  0
   -4.8842   -2.6126    0.6694 H   0  0  0  0  0  0  0  0  0  0  0  0
   -4.0433   -3.7186   -0.4486 H   0  0  0  0  0  0  0  0  0  0  0  0
   -2.7532   -2.5046    0.7444 C   0  0  0  0  0  0  0  0  0  0  0  0
   -1.9803   -2.8096    1.6434 O   0  0  0  0  0  0  0  0  0  0  0  0
   -2.5332   -1.4966   -0.0966 N   0  0  0  0  0  0  0  0  0  0  0  0
   -3.2312   -1.2816   -0.7936 H   0  0  0  0  0  0  0  0  0  0  0  0
   -1.3593   -0.6196   -0.0536 C   0  0  1  0  0  0  0  0  0  0  0  0
   -0.8788   -0.7266    0.9196 H   0  0  0  0  0  0  0  0  0  0  0  0
   -0.3559   -1.0533   -1.1339 C   0  0  0  0  0  0  0  0  0  0  0  0
   -0.7159   -0.7114   -2.1058 H   0  0  0  0  0  0  0  0  0  0  0  0
    0.5972   -0.5575   -0.9417 H   0  0  0  0  0  0  0  0  0  0  0  0
   -0.1140   -2.5297   -1.2225 C   0  0  0  0  0  0  0  0  0  0  0  0
   -0.8078   -3.3954   -1.9950 C   0  0  0  0  0  0  0  0  0  0  0  0
   -1.6413   -3.1222   -2.6328 H   0  0  0  0  0  0  0  0  0  0  0  0
   -0.2795   -4.6643   -1.8598 N   0  0  0  0  0  0  0  0  0  0  0  0
   -0.6429   -5.4733   -2.3422 H   0  0  0  0  0  0  0  0  0  0  0  0
    0.7987   -4.6763   -1.0007 C   0  0  0  0  0  0  0  0  0  0  0  0
    1.6690   -5.6878   -0.5695 C   0  0  0  0  0  0  0  0  0  0  0  0
    1.5485   -6.7012   -0.9231 H   0  0  0  0  0  0  0  0  0  0  0  0
    2.6988   -5.3646    0.3306 C   0  0  0  0  0  0  0  0  0  0  0  0
    3.3790   -6.1319    0.6749 H   0  0  0  0  0  0  0  0  0  0  0  0
    2.8399   -4.0419    0.7887 C   0  0  0  0  0  0  0  0  0  0  0  0
    3.6284   -3.7994    1.4876 H   0  0  0  0  0  0  0  0  0  0  0  0
    1.9581   -3.0338    0.3501 C   0  0  0  0  0  0  0  0  0  0  0  0
    2.0694   -2.0245    0.7202 H   0  0  0  0  0  0  0  0  0  0  0  0
    0.9174   -3.3248   -0.5583 C   0  0  0  0  0  0  0  0  0  0  0  0
   -1.7617    0.8549   -0.2106 C   0  0  0  0  0  0  0  0  0  0  0  0
   -2.5726    1.1871   -1.0741 O   0  0  0  0  0  0  0  0  0  0  0  0
   -1.1941    1.7377    0.6223 N   0  0  0  0  0  0  0  0  0  0  0  0
   -0.4976    1.3916    1.2669 H   0  0  0  0  0  0  0  0  0  0  0  0
   -1.4666    3.1722    0.6095 C   0  0  0  0  0  0  0  0  0  0  0  0
   -2.5439    3.3427    0.6539 H   0  0  0  0  0  0  0  0  0  0  0  0
   -0.9893    3.6529    1.4644 H   0  0  0  0  0  0  0  0  0  0  0  0
   -1.0808    3.6095   -0.3129 H   0  0  0  0  0  0  0  0  0  0  0  0
  5  6  2  0  0  0  0
  5  7  1  0  0  0  0
  2  3  1  0  0  0  0
  2  4  1  0  0  0  0
  2  5  1  0  0  0  0
  1  2  1  0  0  0  0
 29 30  2  0  0  0  0
 29 31  1  0  0  0  0
 26 27  1  0  0  0  0
 26 28  2  0  0  0  0
 24 25  1  0  0  0  0
 24 26  1  0  0  0  0
 22 23  1  0  0  0  0
 22 24  2  0  0  0  0
 20 21  1  0  0  0  0
 20 22  1  0  0  0  0
 19 20  2  0  0  0  0
 19 28  1  0  0  0  0
 17 18  1  0  0  0  0
 17 19  1  0  0  0  0
 15 16  1  0  0  0  0
 15 17  1  0  0  0  0
 14 15  2  0  0  0  0
 14 28  1  0  0  0  0
 11 12  1  0  0  0  0
 11 13  1  0  0  0  0
 11 14  1  0  0  0  0
  9 10  1  0  0  0  0
  9 11  1  0  0  0  0
  9 29  1  0  0  0  0
  7  8  1  0  0  0  0
  7  9  1  0  0  0  0
 33 34  1  0  0  0  0
 33 35  1  0  0  0  0
 33 36  1  0  0  0  0
 31 32  1  0  0  0  0
 31 33  1  0  0  0  0
M  END
$$$$
default_name
  -OEChem-02102213163D

 36 37  0     1  0  0  0  0  0999 V2000
   -4.0843   -4.0736    1.2944 H   0  0  0  0  0  0  0  0  0  0  0  0
   -4.0342   -3.2816    0.5484 C   0  0  0  0  0  0  0  0  0  0  0  0
   -4.8842   -2.6126    0.6694 H   0  0  0  0  0  0  0  0  0  0  0  0
   -4.0433   -3.7186   -0.4486 H   0  0  0  0  0  0  0  0  0  0  0  0
   -2.7532   -2.5046    0.7444 C   0  0  0  0  0  0  0  0  0  0  0  0
   -1.9803   -2.8096    1.6434 O   0  0  0  0  0  0  0  0  0  0  0  0
   -2.5332   -1.4966   -0.0966 N   0  0  0  0  0  0  0  0  0  0  0  0
   -3.2312   -1.2816   -0.7936 H   0  0  0  0  0  0  0  0  0  0  0  0
   -1.3593   -0.6196   -0.0536 C   0  0  1  0  0  0  0  0  0  0  0  0
   -0.8788   -0.7266    0.9196 H   0  0  0  0  0  0  0  0  0  0  0  0
   -0.3559   -1.0533   -1.1339 C   0  0  0  0  0  0  0  0  0  0  0  0
   -0.7159   -0.7114   -2.1058 H   0  0  0  0  0  0  0  0  0  0  0  0
    0.5972   -0.5575   -0.9417 H   0  0  0  0  0  0  0  0  0  0  0  0
   -0.1140   -2.5297   -1.2225 C   0  0  0  0  0  0  0  0  0  0  0  0
   -0.5962   -3.3494   -2.1833 C   0  0  0  0  0  0  0  0  0  0  0  0
   -1.2364   -3.0338   -2.9998 H   0  0  0  0  0  0  0  0  0  0  0  0
   -0.1324   -4.6334   -1.9737 N   0  0  0  0  0  0  0  0  0  0  0  0
   -0.3686   -5.4148   -2.5677 H   0  0  0  0  0  0  0  0  0  0  0  0
    0.6905   -4.7019   -0.8697 C   0  0  0  0  0  0  0  0  0  0  0  0
    1.4118   -5.7476   -0.2758 C   0  0  0  0  0  0  0  0  0  0  0  0
    1.3756   -6.7434   -0.6926 H   0  0  0  0  0  0  0  0  0  0  0  0
    2.1809   -5.4819    0.8700 C   0  0  0  0  0  0  0  0  0  0  0  0
    2.7430   -6.2762    1.3423 H   0  0  0  0  0  0  0  0  0  0  0  0
    2.2134   -4.1817    1.4064 C   0  0  0  0  0  0  0  0  0  0  0  0
    2.7998   -3.9835    2.2930 H   0  0  0  0  0  0  0  0  0  0  0  0
    1.4828   -3.1388    0.8023 C   0  0  0  0  0  0  0  0  0  0  0  0
    1.5060   -2.1475    1.2323 H   0  0  0  0  0  0  0  0  0  0  0  0
    0.7058   -3.3718   -0.3531 C   0  0  0  0  0  0  0  0  0  0  0  0
   -1.7617    0.8549   -0.2106 C   0  0  0  0  0  0  0  0  0  0  0  0
   -2.5726    1.1871   -1.0741 O   0  0  0  0  0  0  0  0  0  0  0  0
   -1.1941    1.7377    0.6223 N   0  0  0  0  0  0  0  0  0  0  0  0
   -0.4976    1.3916    1.2669 H   0  0  0  0  0  0  0  0  0  0  0  0
   -1.4666    3.1722    0.6095 C   0  0  0  0  0  0  0  0  0  0  0  0
   -2.5439    3.3427    0.6539 H   0  0  0  0  0  0  0  0  0  0  0  0
   -0.9893    3.6529    1.4644 H   0  0  0  0  0  0  0  0  0  0  0  0
   -1.0808    3.6095   -0.3129 H   0  0  0  0  0  0  0  0  0  0  0  0
  5  6  2  0  0  0  0
  5  7  1  0  0  0  0
  2  3  1  0  0  0  0
  2  4  1  0  0  0  0
  2  5  1  0  0  0  0
  1  2  1  0  0  0  0
 29 30  2  0  0  0  0
 29 31  1  0  0  0  0
 26 27  1  0  0  0  0
 26 28  2  0  0  0  0
 24 25  1  0  0  0  0
 24 26  1  0  0  0  0
 22 23  1  0  0  0  0
 22 24  2  0  0  0  0
 20 21  1  0  0  0  0
 20 22  1  0  0  0  0
 19 20  2  0  0  0  0
 19 28  1  0  0  0  0
 17 18  1  0  0  0  0
 17 19  1  0  0  0  0
 15 16  1  0  0  0  0
 15 17  1  0  0  0  0
 14 15  2  0  0  0  0
 14 28  1  0  0  0  0
 11 12  1  0  0  0  0
 11 13  1  0  0  0  0
 11 14  1  0  0  0  0
  9 10  1  0  0  0  0
  9 11  1  0  0  0  0
  9 29  1  0  0  0  0
  7  8  1  0  0  0  0
  7  9  1  0  0  0  0
 33 34  1  0  0  0  0
 33 35  1  0  0  0  0
 33 36  1  0  0  0  0
 31 32  1  0  0  0  0
 31 33  1  0  0  0  0
M  END
$$$$
default_name
  -OEChem-02102213163D

 36 37  0     1  0  0  0  0  0999 V2000
   -4.0843   -4.0736    1.2944 H   0  0  0  0  0  0  0  0  0  0  0  0
   -4.0342   -3.2816    0.5484 C   0  0  0  0  0  0  0  0  0  0  0  0
   -4.8842   -2.6126    0.6694 H   0  0  0  0  0  0  0  0  0  0  0  0
   -4.0433   -3.7186   -0.4486 H   0  0  0  0  0  0  0  0  0  0  0  0
   -2.7532   -2.5046    0.7444 C   0  0  0  0  0  0  0  0  0  0  0  0
   -1.9803   -2.8096    1.6434 O   0  0  0  0  0  0  0  0  0  0  0  0
   -2.5332   -1.4966   -0.0966 N   0  0  0  0  0  0  0  0  0  0  0  0
   -3.2312   -1.2816   -0.7936 H   0  0  0  0  0  0  0  0  0  0  0  0
   -1.3593   -0.6196   -0.0536 C   0  0  1  0  0  0  0  0  0  0  0  0
   -0.8788   -0.7266    0.9196 H   0  0  0  0  0  0  0  0  0  0  0  0
   -0.3559   -1.0533   -1.1339 C   0  0  0  0  0  0  0  0  0  0  0  0
   -0.7159   -0.7114   -2.1058 H   0  0  0  0  0  0  0  0  0  0  0  0
    0.5972   -0.5575   -0.9417 H   0  0  0  0  0  0  0  0  0  0  0  0
   -0.1140   -2.5297   -1.2225 C   0  0  0  0  0  0  0  0  0  0  0  0
   -0.3430   -3.3004   -2.3094 C   0  0  0  0  0  0  0  0  0  0  0  0
   -0.7504   -2.9393   -3.2473 H   0  0  0  0  0  0  0  0  0  0  0  0
    0.0391   -4.6010   -2.0450 N   0  0  0  0  0  0  0  0  0  0  0  0
   -0.0453   -5.3531   -2.7131 H   0  0  0  0  0  0  0  0  0  0  0  0
    0.5523   -4.7305   -0.7719 C   0  0  0  0  0  0  0  0  0  0  0  0
    1.0877   -5.8136   -0.0603 C   0  0  0  0  0  0  0  0  0  0  0  0
    1.1492   -6.7911   -0.5157 H   0  0  0  0  0  0  0  0  0  0  0  0
    1.5413   -5.6098    1.2541 C   0  0  0  0  0  0  0  0  0  0  0  0
    1.9564   -6.4337    1.8187 H   0  0  0  0  0  0  0  0  0  0  0  0
    1.4487   -4.3329    1.8375 C   0  0  0  0  0  0  0  0  0  0  0  0
    1.7912   -4.1824    2.8519 H   0  0  0  0  0  0  0  0  0  0  0  0
    0.9069   -3.2518    1.1135 C   0  0  0  0  0  0  0  0  0  0  0  0
    0.8293   -2.2792    1.5782 H   0  0  0  0  0  0  0  0  0  0  0  0
    0.4483   -3.4225   -0.2107 C   0  0  0  0  0  0  0  0  0  0  0  0
   -1.7617    0.8549   -0.2106 C   0  0  0  0  0  0  0  0  0  0  0  0
   -2.5726    1.1871   -1.0741 O   0  0  0  0  0  0  0  0  0  0  0  0
   -1.1941    1.7377    0.6223 N   0  0  0  0  0  0  0  0  0  0  0  0
   -0.4976    1.3916    1.2669 H   0  0  0  0  0  0  0  0  0  0  0  0
   -1.4666    3.1722    0.6095 C   0  0  0  0  0  0  0  0  0  0  0  0
   -2.5439    3.3427    0.6539 H   0  0  0  0  0  0  0  0  0  0  0  0
   -0.9893    3.6529    1.4644 H   0  0  0  0  0  0  0  0  0  0  0  0
   -1.0808    3.6095   -0.3129 H   0  0  0  0  0  0  0  0  0  0  0  0
  5  6  2  0  0  0  0
  5  7  1  0  0  0  0
  2  3  1  0  0  0  0
  2  4  1  0  0  0  0
  2  5  1  0  0  0  0
  1  2  1  0  0  0  0
 29 30  2  0  0  0  0
 29 31  1  0  0  0  0
 26 27  1  0  0  0  0
 26 28  2  0  0  0  0
 24 25  1  0  0  0  0
 24 26  1  0  0  0  0
 22 23  1  0  0  0  0
 22 24  2  0  0  0  0
 20 21  1  0  0  0  0
 20 22  1  0  0  0  0
 19 20  2  0  0  0  0
 19 28  1  0  0  0  0
 17 18  1  0  0  0  0
 17 19  1  0  0  0  0
 15 16  1  0  0  0  0
 15 17  1  0  0  0  0
 14 15  2  0  0  0  0
 14 28  1  0  0  0  0
 11 12  1  0  0  0  0
 11 13  1  0  0  0  0
 11 14  1  0  0  0  0
  9 10  1  0  0  0  0
  9 11  1  0  0  0  0
  9 29  1  0  0  0  0
  7  8  1  0  0  0  0
  7  9  1  0  0  0  0
 33 34  1  0  0  0  0
 33 35  1  0  0  0  0
 33 36  1  0  0  0  0
 31 32  1  0  0  0  0
 31 33  1  0  0  0  0
M  END
$$$$
default_name
  -OEChem-02102213163D

 36 37  0     1  0  0  0  0  0999 V2000
   -4.0843   -4.0736    1.2944 H   0  0  0  0  0  0  0  0  0  0  0  0
   -4.0342   -3.2816    0.5484 C   0  0  0  0  0  0  0  0  0  0  0  0
   -4.8842   -2.6126    0.6694 H   0  0  0  0  0  0  0  0  0  0  0  0
   -4.0433   -3.7186   -0.4486 H   0  0  0  0  0  0  0  0  0  0  0  0
   -2.7532   -2.5046    0.7444 C   0  0  0  0  0  0  0  0  0  0  0  0
   -1.9803   -2.8096    1.6434 O   0  0  0  0  0  0  0  0  0  0  0  0
   -2.5332   -1.4966   -0.0966 N   0  0  0  0  0  0  0  0  0  0  0  0
   -3.2312   -1.2816   -0.7936 H   0  0  0  0  0  0  0  0  0  0  0  0
   -1.3593   -0.6196   -0.0536 C   0  0  1  0  0  0  0  0  0  0  0  0
   -0.8788   -0.7266    0.9196 H   0  0  0  0  0  0  0  0  0  0  0  0
   -0.3559   -1.0533   -1.1339 C   0  0  0  0  0  0  0  0  0  0  0  0
   -0.7159   -0.7114   -2.1058 H   0  0  0  0  0  0  0  0  0  0  0  0
    0.5972   -0.5575   -0.9417 H   0  0  0  0  0  0  0  0  0  0  0  0
   -0.1140   -2.5297   -1.2225 C   0  0  0  0  0  0  0  0  0  0  0  0
   -0.0656   -3.2516   -2.3645 C   0  0  0  0  0  0  0  0  0  0  0  0
   -0.2165   -2.8451   -3.3586 H   0  0  0  0  0  0  0  0  0  0  0  0
    0.2235   -4.5694   -2.0688 N   0  0  0  0  0  0  0  0  0  0  0  0
    0.3050   -5.2924   -2.7686 H   0  0  0  0  0  0  0  0  0  0  0  0
    0.3934   -4.7600   -0.7139 C   0  0  0  0  0  0  0  0  0  0  0  0
    0.7186   -5.8815    0.0625 C   0  0  0  0  0  0  0  0  0  0  0  0
    0.8847   -6.8411   -0.4045 H   0  0  0  0  0  0  0  0  0  0  0  0
    0.8237   -5.7395    1.4567 C   0  0  0  0  0  0  0  0  0  0  0  0
    1.0726   -6.5937    2.0718 H   0  0  0  0  0  0  0  0  0  0  0  0
    0.5978   -4.4852    2.0526 C   0  0  0  0  0  0  0  0  0  0  0  0
    0.6715   -4.3823    3.1264 H   0  0  0  0  0  0  0  0  0  0  0  0
    0.2695   -3.3652    1.2625 C   0  0  0  0  0  0  0  0  0  0  0  0
    0.0855   -2.4104    1.7342 H   0  0  0  0  0  0  0  0  0  0  0  0
    0.1624   -3.4736   -0.1410 C   0  0  0  0  0  0  0  0  0  0  0  0
   -1.7617    0.8549   -0.2106 C   0  0  0  0  0  0  0  0  0  0  0  0
   -2.5726    1.1871   -1.0741 O   0  0  0  0  0  0  0  0  0  0  0  0
   -1.1941    1.7377    0.6223 N   0  0  0  0  0  0  0  0  0  0  0  0
   -0.4976    1.3916    1.2669 H   0  0  0  0  0  0  0  0  0  0  0  0
   -1.4666    3.1722    0.6095 C   0  0  0  0  0  0  0  0  0  0  0  0
   -2.5439    3.3427    0.6539 H   0  0  0  0  0  0  0  0  0  0  0  0
   -0.9893    3.6529    1.4644 H   0  0  0  0  0  0  0  0  0  0  0  0
   -1.0808    3.6095   -0.3129 H   0  0  0  0  0  0  0  0  0  0  0  0
  5  6  2  0  0  0  0
  5  7  1  0  0  0  0
  2  3  1  0  0  0  0
  2  4  1  0  0  0  0
  2  5  1  0  0  0  0
  1  2  1  0  0  0  0
 29 30  2  0  0  0  0
 29 31  1  0  0  0  0
 26 27  1  0  0  0  0
 26 28  2  0  0  0  0
 24 25  1  0  0  0  0
 24 26  1  0  0  0  0
 22 23  1  0  0  0  0
 22 24  2  0  0  0  0
 20 21  1  0  0  0  0
 20 22  1  0  0  0  0
 19 20  2  0  0  0  0
 19 28  1  0  0  0  0
 17 18  1  0  0  0  0
 17 19  1  0  0  0  0
 15 16  1  0  0  0  0
 15 17  1  0  0  0  0
 14 15  2  0  0  0  0
 14 28  1  0  0  0  0
 11 12  1  0  0  0  0
 11 13  1  0  0  0  0
 11 14  1  0  0  0  0
  9 10  1  0  0  0  0
  9 11  1  0  0  0  0
  9 29  1  0  0  0  0
  7  8  1  0  0  0  0
  7  9  1  0  0  0  0
 33 34  1  0  0  0  0
 33 35  1  0  0  0  0
 33 36  1  0  0  0  0
 31 32  1  0  0  0  0
 31 33  1  0  0  0  0
M  END
$$$$
default_name
  -OEChem-02102213163D

 36 37  0     1  0  0  0  0  0999 V2000
   -4.0843   -4.0736    1.2944 H   0  0  0  0  0  0  0  0  0  0  0  0
   -4.0342   -3.2816    0.5484 C   0  0  0  0  0  0  0  0  0  0  0  0
   -4.8842   -2.6126    0.6694 H   0  0  0  0  0  0  0  0  0  0  0  0
   -4.0433   -3.7186   -0.4486 H   0  0  0  0  0  0  0  0  0  0  0  0
   -2.7532   -2.5046    0.7444 C   0  0  0  0  0  0  0  0  0  0  0  0
   -1.9803   -2.8096    1.6434 O   0  0  0  0  0  0  0  0  0  0  0  0
   -2.5332   -1.4966   -0.0966 N   0  0  0  0  0  0  0  0  0  0  0  0
   -3.2312   -1.2816   -0.7936 H   0  0  0  0  0  0  0  0  0  0  0  0
   -1.3593   -0.6196   -0.0536 C   0  0  1  0  0  0  0  0  0  0  0  0
   -0.8788   -0.7266    0.9196 H   0  0  0  0  0  0  0  0  0  0  0  0
   -0.3559   -1.0533   -1.1339 C   0  0  0  0  0  0  0  0  0  0  0  0
   -0.7159   -0.7114   -2.1058 H   0  0  0  0  0  0  0  0  0  0  0  0
    0.5972   -0.5575   -0.9417 H   0  0  0  0  0  0  0  0  0  0  0  0
   -0.1140   -2.5297   -1.2225 C   0  0  0  0  0  0  0  0  0  0  0  0
    0.2172   -3.2064   -2.3450 C   0  0  0  0  0  0  0  0  0  0  0  0
    0.3291   -2.7577   -3.3259 H   0  0  0  0  0  0  0  0  0  0  0  0
    0.4082   -4.5406   -2.0434 N   0  0  0  0  0  0  0  0  0  0  0  0
    0.6585   -5.2367   -2.7303 H   0  0  0  0  0  0  0  0  0  0  0  0
    0.2246   -4.7885   -0.6996 C   0  0  0  0  0  0  0  0  0  0  0  0
    0.3298   -5.9465    0.0842 C   0  0  0  0  0  0  0  0  0  0  0  0
    0.6000   -6.8900   -0.3667 H   0  0  0  0  0  0  0  0  0  0  0  0
    0.0768   -5.8623    1.4640 C   0  0  0  0  0  0  0  0  0  0  0  0
    0.1520   -6.7453    2.0842 H   0  0  0  0  0  0  0  0  0  0  0  0
   -0.2813   -4.6283    2.0370 C   0  0  0  0  0  0  0  0  0  0  0  0
   -0.4832   -4.5698    3.0976 H   0  0  0  0  0  0  0  0  0  0  0  0
   -0.3859   -3.4712    1.2392 C   0  0  0  0  0  0  0  0  0  0  0  0
   -0.6748   -2.5324    1.6898 H   0  0  0  0  0  0  0  0  0  0  0  0
   -0.1322   -3.5214   -0.1486 C   0  0  0  0  0  0  0  0  0  0  0  0
   -1.7617    0.8549   -0.2106 C   0  0  0  0  0  0  0  0  0  0  0  0
   -2.5726    1.1871   -1.0741 O   0  0  0  0  0  0  0  0  0  0  0  0
   -1.1941    1.7377    0.6223 N   0  0  0  0  0  0  0  0  0  0  0  0
   -0.4976    1.3916    1.2669 H   0  0  0  0  0  0  0  0  0  0  0  0
   -1.4666    3.1722    0.6095 C   0  0  0  0  0  0  0  0  0  0  0  0
   -2.5439    3.3427    0.6539 H   0  0  0  0  0  0  0  0  0  0  0  0
   -0.9893    3.6529    1.4644 H   0  0  0  0  0  0  0  0  0  0  0  0
   -1.0808    3.6095   -0.3129 H   0  0  0  0  0  0  0  0  0  0  0  0
  5  6  2  0  0  0  0
  5  7  1  0  0  0  0
  2  3  1  0  0  0  0
  2  4  1  0  0  0  0
  2  5  1  0  0  0  0
  1  2  1  0  0  0  0
 29 30  2  0  0  0  0
 29 31  1  0  0  0  0
 26 27  1  0  0  0  0
 26 28  2  0  0  0  0
 24 25  1  0  0  0  0
 24 26  1  0  0  0  0
 22 23  1  0  0  0  0
 22 24  2  0  0  0  0
 20 21  1  0  0  0  0
 20 22  1  0  0  0  0
 19 20  2  0  0  0  0
 19 28  1  0  0  0  0
 17 18  1  0  0  0  0
 17 19  1  0  0  0  0
 15 16  1  0  0  0  0
 15 17  1  0  0  0  0
 14 15  2  0  0  0  0
 14 28  1  0  0  0  0
 11 12  1  0  0  0  0
 11 13  1  0  0  0  0
 11 14  1  0  0  0  0
  9 10  1  0  0  0  0
  9 11  1  0  0  0  0
  9 29  1  0  0  0  0
  7  8  1  0  0  0  0
  7  9  1  0  0  0  0
 33 34  1  0  0  0  0
 33 35  1  0  0  0  0
 33 36  1  0  0  0  0
 31 32  1  0  0  0  0
 31 33  1  0  0  0  0
M  END
$$$$
default_name
  -OEChem-02102213163D

 36 37  0     1  0  0  0  0  0999 V2000
   -4.0843   -4.0736    1.2944 H   0  0  0  0  0  0  0  0  0  0  0  0
   -4.0342   -3.2816    0.5484 C   0  0  0  0  0  0  0  0  0  0  0  0
   -4.8842   -2.6126    0.6694 H   0  0  0  0  0  0  0  0  0  0  0  0
   -4.0433   -3.7186   -0.4486 H   0  0  0  0  0  0  0  0  0  0  0  0
   -2.7532   -2.5046    0.7444 C   0  0  0  0  0  0  0  0  0  0  0  0
   -1.9803   -2.8096    1.6434 O   0  0  0  0  0  0  0  0  0  0  0  0
   -2.5332   -1.4966   -0.0966 N   0  0  0  0  0  0  0  0  0  0  0  0
   -3.2312   -1.2816   -0.7936 H   0  0  0  0  0  0  0  0  0  0  0  0
   -1.3593   -0.6196   -0.0536 C   0  0  1  0  0  0  0  0  0  0  0  0
   -0.8788   -0.7266    0.9196 H   0  0  0  0  0  0  0  0  0  0  0  0
   -0.3559   -1.0533   -1.1339 C   0  0  0  0  0  0  0  0  0  0  0  0
   -0.7159   -0.7114   -2.1058 H   0  0  0  0  0  0  0  0  0  0  0  0
    0.5972   -0.5575   -0.9417 H   0  0  0  0  0  0  0  0  0  0  0  0
   -0.1140   -2.5297   -1.2225 C   0  0  0  0  0  0  0  0  0  0  0  0
    0.4861   -3.1680   -2.2522 C   0  0  0  0  0  0  0  0  0  0  0  0
    0.8492   -2.6829   -3.1517 H   0  0  0  0  0  0  0  0  0  0  0  0
    0.5805   -4.5168   -1.9705 N   0  0  0  0  0  0  0  0  0  0  0  0
    0.9910   -5.1900   -2.6009 H   0  0  0  0  0  0  0  0  0  0  0  0
    0.0575   -4.8140   -0.7300 C   0  0  0  0  0  0  0  0  0  0  0  0
   -0.0524   -6.0043    0.0033 C   0  0  0  0  0  0  0  0  0  0  0  0
    0.3147   -6.9345   -0.4048 H   0  0  0  0  0  0  0  0  0  0  0  0
   -0.6484   -5.9699    1.2755 C   0  0  0  0  0  0  0  0  0  0  0  0
   -0.7427   -6.8782    1.8552 H   0  0  0  0  0  0  0  0  0  0  0  0
   -1.1286   -4.7524    1.7919 C   0  0  0  0  0  0  0  0  0  0  0  0
   -1.5940   -4.7320    2.7676 H   0  0  0  0  0  0  0  0  0  0  0  0
   -1.0146   -3.5626    1.0452 C   0  0  0  0  0  0  0  0  0  0  0  0
   -1.3997   -2.6366    1.4480 H   0  0  0  0  0  0  0  0  0  0  0  0
   -0.4155   -3.5627   -0.2331 C   0  0  0  0  0  0  0  0  0  0  0  0
   -1.7617    0.8549   -0.2106 C   0  0  0  0  0  0  0  0  0  0  0  0
   -2.5726    1.1871   -1.0741 O   0  0  0  0  0  0  0  0  0  0  0  0
   -1.1941    1.7377    0.6223 N   0  0  0  0  0  0  0  0  0  0  0  0
   -0.4976    1.3916    1.2669 H   0  0  0  0  0  0  0  0  0  0  0  0
   -1.4666    3.1722    0.6095 C   0  0  0  0  0  0  0  0  0  0  0  0
   -2.5439    3.3427    0.6539 H   0  0  0  0  0  0  0  0  0  0  0  0
   -0.9893    3.6529    1.4644 H   0  0  0  0  0  0  0  0  0  0  0  0
   -1.0808    3.6095   -0.3129 H   0  0  0  0  0  0  0  0  0  0  0  0
  5  6  2  0  0  0  0
  5  7  1  0  0  0  0
  2  3  1  0  0  0  0
  2  4  1  0  0  0  0
  2  5  1  0  0  0  0
  1  2  1  0  0  0  0
 29 30  2  0  0  0  0
 29 31  1  0  0  0  0
 26 27  1  0  0  0  0
 26 28  2  0  0  0  0
 24 25  1  0  0  0  0
 24 26  1  0  0  0  0
 22 23  1  0  0  0  0
 22 24  2  0  0  0  0
 20 21  1  0  0  0  0
 20 22  1  0  0  0  0
 19 20  2  0  0  0  0
 19 28  1  0  0  0  0
 17 18  1  0  0  0  0
 17 19  1  0  0  0  0
 15 16  1  0  0  0  0
 15 17  1  0  0  0  0
 14 15  2  0  0  0  0
 14 28  1  0  0  0  0
 11 12  1  0  0  0  0
 11 13  1  0  0  0  0
 11 14  1  0  0  0  0
  9 10  1  0  0  0  0
  9 11  1  0  0  0  0
  9 29  1  0  0  0  0
  7  8  1  0  0  0  0
  7  9  1  0  0  0  0
 33 34  1  0  0  0  0
 33 35  1  0  0  0  0
 33 36  1  0  0  0  0
 31 32  1  0  0  0  0
 31 33  1  0  0  0  0
M  END
$$$$
default_name
  -OEChem-02102213163D

 36 37  0     1  0  0  0  0  0999 V2000
   -4.0843   -4.0736    1.2944 H   0  0  0  0  0  0  0  0  0  0  0  0
   -4.0342   -3.2816    0.5484 C   0  0  0  0  0  0  0  0  0  0  0  0
   -4.8842   -2.6126    0.6694 H   0  0  0  0  0  0  0  0  0  0  0  0
   -4.0433   -3.7186   -0.4486 H   0  0  0  0  0  0  0  0  0  0  0  0
   -2.7532   -2.5046    0.7444 C   0  0  0  0  0  0  0  0  0  0  0  0
   -1.9803   -2.8096    1.6434 O   0  0  0  0  0  0  0  0  0  0  0  0
   -2.5332   -1.4966   -0.0966 N   0  0  0  0  0  0  0  0  0  0  0  0
   -3.2312   -1.2816   -0.7936 H   0  0  0  0  0  0  0  0  0  0  0  0
   -1.3593   -0.6196   -0.0536 C   0  0  1  0  0  0  0  0  0  0  0  0
   -0.8788   -0.7266    0.9196 H   0  0  0  0  0  0  0  0  0  0  0  0
   -0.3559   -1.0533   -1.1339 C   0  0  0  0  0  0  0  0  0  0  0  0
   -0.5627   -0.4966   -2.0497 H   0  0  0  0  0  0  0  0  0  0  0  0
    0.6486   -0.7836   -0.8032 H   0  0  0  0  0  0  0  0  0  0  0  0
   -0.3701   -2.5145   -1.4666 C   0  0  0  0  0  0  0  0  0  0  0  0
    0.4203   -3.1209   -2.3804 C   0  0  0  0  0  0  0  0  0  0  0  0
    1.1514   -2.6118   -2.9989 H   0  0  0  0  0  0  0  0  0  0  0  0
    0.1662   -4.4784   -2.3862 N   0  0  0  0  0  0  0  0  0  0  0  0
    0.6387   -5.1310   -2.9945 H   0  0  0  0  0  0  0  0  0  0  0  0
   -0.7951   -4.8188   -1.4584 C   0  0  0  0  0  0  0  0  0  0  0  0
   -1.3637   -6.0410   -1.0722 C   0  0  0  0  0  0  0  0  0  0  0  0
   -1.0541   -6.9621   -1.5437 H   0  0  0  0  0  0  0  0  0  0  0  0
   -2.3431   -6.0503   -0.0644 C   0  0  0  0  0  0  0  0  0  0  0  0
   -2.7935   -6.9835    0.2459 H   0  0  0  0  0  0  0  0  0  0  0  0
   -2.7421   -4.8423    0.5364 C   0  0  0  0  0  0  0  0  0  0  0  0
   -3.5020   -4.8531    1.3055 H   0  0  0  0  0  0  0  0  0  0  0  0
   -2.1653   -3.6195    0.1388 C   0  0  0  0  0  0  0  0  0  0  0  0
   -2.4905   -2.6973    0.5991 H   0  0  0  0  0  0  0  0  0  0  0  0
   -1.1747   -3.5772   -0.8662 C   0  0  0  0  0  0  0  0  0  0  0  0
   -1.7617    0.8549   -0.2106 C   0  0  0  0  0  0  0  0  0  0  0  0
   -2.5726    1.1871   -1.0741 O   0  0  0  0  0  0  0  0  0  0  0  0
   -1.1941    1.7377    0.6223 N   0  0  0  0  0  0  0  0  0  0  0  0
   -0.4976    1.3916    1.2669 H   0  0  0  0  0  0  0  0  0  0  0  0
   -1.4666    3.1722    0.6095 C   0  0  0  0  0  0  0  0  0  0  0  0
   -2.5439    3.3427    0.6539 H   0  0  0  0  0  0  0  0  0  0  0  0
   -0.9893    3.6529    1.4644 H   0  0  0  0  0  0  0  0  0  0  0  0
   -1.0808    3.6095   -0.3129 H   0  0  0  0  0  0  0  0  0  0  0  0
  5  6  2  0  0  0  0
  5  7  1  0  0  0  0
  2  3  1  0  0  0  0
  2  4  1  0  0  0  0
  2  5  1  0  0  0  0
  1  2  1  0  0  0  0
 29 30  2  0  0  0  0
 29 31  1  0  0  0  0
 26 27  1  0  0  0  0
 26 28  2  0  0  0  0
 24 25  1  0  0  0  0
 24 26  1  0  0  0  0
 22 23  1  0  0  0  0
 22 24  2  0  0  0  0
 20 21  1  0  0  0  0
 20 22  1  0  0  0  0
 19 20  2  0  0  0  0
 19 28  1  0  0  0  0
 17 18  1  0  0  0  0
 17 19  1  0  0  0  0
 15 16  1  0  0  0  0
 15 17  1  0  0  0  0
 14 15  2  0  0  0  0
 14 28  1  0  0  0  0
 11 12  1  0  0  0  0
 11 13  1  0  0  0  0
 11 14  1  0  0  0  0
  9 10  1  0  0  0  0
  9 11  1  0  0  0  0
  9 29  1  0  0  0  0
  7  8  1  0  0  0  0
  7  9  1  0  0  0  0
 33 34  1  0  0  0  0
 33 35  1  0  0  0  0
 33 36  1  0  0  0  0
 31 32  1  0  0  0  0
 31 33  1  0  0  0  0
M  END
$$$$
default_name
  -OEChem-02102213163D

 36 37  0     1  0  0  0  0  0999 V2000
   -4.0843   -4.0736    1.2944 H   0  0  0  0  0  0  0  0  0  0  0  0
   -4.0342   -3.2816    0.5484 C   0  0  0  0  0  0  0  0  0  0  0  0
   -4.8842   -2.6126    0.6694 H   0  0  0  0  0  0  0  0  0  0  0  0
   -4.0433   -3.7186   -0.4486 H   0  0  0  0  0  0  0  0  0  0  0  0
   -2.7532   -2.5046    0.7444 C   0  0  0  0  0  0  0  0  0  0  0  0
   -1.9803   -2.8096    1.6434 O   0  0  0  0  0  0  0  0  0  0  0  0
   -2.5332   -1.4966   -0.0966 N   0  0  0  0  0  0  0  0  0  0  0  0
   -3.2312   -1.2816   -0.7936 H   0  0  0  0  0  0  0  0  0  0  0  0
   -1.3593   -0.6196   -0.0536 C   0  0  1  0  0  0  0  0  0  0  0  0
   -0.8788   -0.7266    0.9196 H   0  0  0  0  0  0  0  0  0  0  0  0
   -0.3559   -1.0533   -1.1339 C   0  0  0  0  0  0  0  0  0  0  0  0
   -0.5627   -0.4966   -2.0497 H   0  0  0  0  0  0  0  0  0  0  0  0
    0.6486   -0.7836   -0.8032 H   0  0  0  0  0  0  0  0  0  0  0  0
   -0.3701   -2.5145   -1.4666 C   0  0  0  0  0  0  0  0  0  0  0  0
    0.5889   -3.1740   -2.1543 C   0  0  0  0  0  0  0  0  0  0  0  0
    1.4805   -2.7137   -2.5657 H   0  0  0  0  0  0  0  0  0  0  0  0
    0.2665   -4.5148   -2.2306 N   0  0  0  0  0  0  0  0  0  0  0  0
    0.8386   -5.1993   -2.7032 H   0  0  0  0  0  0  0  0  0  0  0  0
   -0.9158   -4.7905   -1.5773 C   0  0  0  0  0  0  0  0  0  0  0  0
   -1.6331   -5.9745   -1.3530 C   0  0  0  0  0  0  0  0  0  0  0  0
   -1.2682   -6.9163   -1.7357 H   0  0  0  0  0  0  0  0  0  0  0  0
   -2.8339   -5.9178   -0.6252 C   0  0  0  0  0  0  0  0  0  0  0  0
   -3.4011   -6.8207   -0.4433 H   0  0  0  0  0  0  0  0  0  0  0  0
   -3.3011   -4.6832   -0.1387 C   0  0  0  0  0  0  0  0  0  0  0  0
   -4.2297   -4.6430    0.4137 H   0  0  0  0  0  0  0  0  0  0  0  0
   -2.5730   -3.4992   -0.3718 C   0  0  0  0  0  0  0  0  0  0  0  0
   -2.9500   -2.5555   -0.0039 H   0  0  0  0  0  0  0  0  0  0  0  0
   -1.3602   -3.5235   -1.0939 C   0  0  0  0  0  0  0  0  0  0  0  0
   -1.7617    0.8549   -0.2106 C   0  0  0  0  0  0  0  0  0  0  0  0
   -2.5726    1.1871   -1.0741 O   0  0  0  0  0  0  0  0  0  0  0  0
   -1.1941    1.7377    0.6223 N   0  0  0  0  0  0  0  0  0  0  0  0
   -0.4976    1.3916    1.2669 H   0  0  0  0  0  0  0  0  0  0  0  0
   -1.4666    3.1722    0.6095 C   0  0  0  0  0  0  0  0  0  0  0  0
   -2.5439    3.3427    0.6539 H   0  0  0  0  0  0  0  0  0  0  0  0
   -0.9893    3.6529    1.4644 H   0  0  0  0  0  0  0  0  0  0  0  0
   -1.0808    3.6095   -0.3129 H   0  0  0  0  0  0  0  0  0  0  0  0
  5  6  2  0  0  0  0
  5  7  1  0  0  0  0
  2  3  1  0  0  0  0
  2  4  1  0  0  0  0
  2  5  1  0  0  0  0
  1  2  1  0  0  0  0
 29 30  2  0  0  0  0
 29 31  1  0  0  0  0
 26 27  1  0  0  0  0
 26 28  2  0  0  0  0
 24 25  1  0  0  0  0
 24 26  1  0  0  0  0
 22 23  1  0  0  0  0
 22 24  2  0  0  0  0
 20 21  1  0  0  0  0
 20 22  1  0  0  0  0
 19 20  2  0  0  0  0
 19 28  1  0  0  0  0
 17 18  1  0  0  0  0
 17 19  1  0  0  0  0
 15 16  1  0  0  0  0
 15 17  1  0  0  0  0
 14 15  2  0  0  0  0
 14 28  1  0  0  0  0
 11 12  1  0  0  0  0
 11 13  1  0  0  0  0
 11 14  1  0  0  0  0
  9 10  1  0  0  0  0
  9 11  1  0  0  0  0
  9 29  1  0  0  0  0
  7  8  1  0  0  0  0
  7  9  1  0  0  0  0
 33 34  1  0  0  0  0
 33 35  1  0  0  0  0
 33 36  1  0  0  0  0
 31 32  1  0  0  0  0
 31 33  1  0  0  0  0
M  END
$$$$
default_name
  -OEChem-02102213163D

 36 37  0     1  0  0  0  0  0999 V2000
   -4.0843   -4.0736    1.2944 H   0  0  0  0  0  0  0  0  0  0  0  0
   -4.0342   -3.2816    0.5484 C   0  0  0  0  0  0  0  0  0  0  0  0
   -4.8842   -2.6126    0.6694 H   0  0  0  0  0  0  0  0  0  0  0  0
   -4.0433   -3.7186   -0.4486 H   0  0  0  0  0  0  0  0  0  0  0  0
   -2.7532   -2.5046    0.7444 C   0  0  0  0  0  0  0  0  0  0  0  0
   -1.9803   -2.8096    1.6434 O   0  0  0  0  0  0  0  0  0  0  0  0
   -2.5332   -1.4966   -0.0966 N   0  0  0  0  0  0  0  0  0  0  0  0
   -3.2312   -1.2816   -0.7936 H   0  0  0  0  0  0  0  0  0  0  0  0
   -1.3593   -0.6196   -0.0536 C   0  0  1  0  0  0  0  0  0  0  0  0
   -0.8788   -0.7266    0.9196 H   0  0  0  0  0  0  0  0  0  0  0  0
   -0.3559   -1.0533   -1.1339 C   0  0  0  0  0  0  0  0  0  0  0  0
   -0.5627   -0.4966   -2.0497 H   0  0  0  0  0  0  0  0  0  0  0  0
    0.6486   -0.7836   -0.8032 H   0  0  0  0  0  0  0  0  0  0  0  0
   -0.3701   -2.5145   -1.4666 C   0  0  0  0  0  0  0  0  0  0  0  0
    0.6916   -3.2345   -1.8931 C   0  0  0  0  0  0  0  0  0  0  0  0
    1.6832   -2.8299   -2.0640 H   0  0  0  0  0  0  0  0  0  0  0  0
    0.3220   -4.5554   -2.0550 N   0  0  0  0  0  0  0  0  0  0  0  0
    0.9543   -5.2760   -2.3712 H   0  0  0  0  0  0  0  0  0  0  0  0
   -1.0008   -4.7566   -1.7226 C   0  0  0  0  0  0  0  0  0  0  0  0
   -1.8186   -5.8954   -1.6925 C   0  0  0  0  0  0  0  0  0  0  0  0
   -1.4241   -6.8603   -1.9753 H   0  0  0  0  0  0  0  0  0  0  0  0
   -3.1589   -5.7631   -1.2910 C   0  0  0  0  0  0  0  0  0  0  0  0
   -3.8048   -6.6302   -1.2626 H   0  0  0  0  0  0  0  0  0  0  0  0
   -3.6615   -4.4990   -0.9322 C   0  0  0  0  0  0  0  0  0  0  0  0
   -4.6955   -4.4004   -0.6319 H   0  0  0  0  0  0  0  0  0  0  0  0
   -2.8310   -3.3609   -0.9681 C   0  0  0  0  0  0  0  0  0  0  0  0
   -3.2334   -2.3936   -0.7027 H   0  0  0  0  0  0  0  0  0  0  0  0
   -1.4788   -3.4616   -1.3609 C   0  0  0  0  0  0  0  0  0  0  0  0
   -1.7617    0.8549   -0.2106 C   0  0  0  0  0  0  0  0  0  0  0  0
   -2.5726    1.1871   -1.0741 O   0  0  0  0  0  0  0  0  0  0  0  0
   -1.1941    1.7377    0.6223 N   0  0  0  0  0  0  0  0  0  0  0  0
   -0.4976    1.3916    1.2669 H   0  0  0  0  0  0  0  0  0  0  0  0
   -1.4666    3.1722    0.6095 C   0  0  0  0  0  0  0  0  0  0  0  0
   -2.5439    3.3427    0.6539 H   0  0  0  0  0  0  0  0  0  0  0  0
   -0.9893    3.6529    1.4644 H   0  0  0  0  0  0  0  0  0  0  0  0
   -1.0808    3.6095   -0.3129 H   0  0  0  0  0  0  0  0  0  0  0  0
  5  6  2  0  0  0  0
  5  7  1  0  0  0  0
  2  3  1  0  0  0  0
  2  4  1  0  0  0  0
  2  5  1  0  0  0  0
  1  2  1  0  0  0  0
 29 30  2  0  0  0  0
 29 31  1  0  0  0  0
 26 27  1  0  0  0  0
 26 28  2  0  0  0  0
 24 25  1  0  0  0  0
 24 26  1  0  0  0  0
 22 23  1  0  0  0  0
 22 24  2  0  0  0  0
 20 21  1  0  0  0  0
 20 22  1  0  0  0  0
 19 20  2  0  0  0  0
 19 28  1  0  0  0  0
 17 18  1  0  0  0  0
 17 19  1  0  0  0  0
 15 16  1  0  0  0  0
 15 17  1  0  0  0  0
 14 15  2  0  0  0  0
 14 28  1  0  0  0  0
 11 12  1  0  0  0  0
 11 13  1  0  0  0  0
 11 14  1  0  0  0  0
  9 10  1  0  0  0  0
  9 11  1  0  0  0  0
  9 29  1  0  0  0  0
  7  8  1  0  0  0  0
  7  9  1  0  0  0  0
 33 34  1  0  0  0  0
 33 35  1  0  0  0  0
 33 36  1  0  0  0  0
 31 32  1  0  0  0  0
 31 33  1  0  0  0  0
M  END
$$$$
default_name
  -OEChem-02102213163D

 36 37  0     1  0  0  0  0  0999 V2000
   -4.0843   -4.0736    1.2944 H   0  0  0  0  0  0  0  0  0  0  0  0
   -4.0342   -3.2816    0.5484 C   0  0  0  0  0  0  0  0  0  0  0  0
   -4.8842   -2.6126    0.6694 H   0  0  0  0  0  0  0  0  0  0  0  0
   -4.0433   -3.7186   -0.4486 H   0  0  0  0  0  0  0  0  0  0  0  0
   -2.7532   -2.5046    0.7444 C   0  0  0  0  0  0  0  0  0  0  0  0
   -1.9803   -2.8096    1.6434 O   0  0  0  0  0  0  0  0  0  0  0  0
   -2.5332   -1.4966   -0.0966 N   0  0  0  0  0  0  0  0  0  0  0  0
   -3.2312   -1.2816   -0.7936 H   0  0  0  0  0  0  0  0  0  0  0  0
   -1.3593   -0.6196   -0.0536 C   0  0  1  0  0  0  0  0  0  0  0  0
   -0.8788   -0.7266    0.9196 H   0  0  0  0  0  0  0  0  0  0  0  0
   -0.3559   -1.0533   -1.1339 C   0  0  0  0  0  0  0  0  0  0  0  0
   -0.5627   -0.4966   -2.0497 H   0  0  0  0  0  0  0  0  0  0  0  0
    0.6486   -0.7836   -0.8032 H   0  0  0  0  0  0  0  0  0  0  0  0
   -0.3701   -2.5145   -1.4666 C   0  0  0  0  0  0  0  0  0  0  0  0
    0.7215   -3.2982   -1.6149 C   0  0  0  0  0  0  0  0  0  0  0  0
    1.7457   -2.9526   -1.5278 H   0  0  0  0  0  0  0  0  0  0  0  0
    0.3289   -4.5973   -1.8713 N   0  0  0  0  0  0  0  0  0  0  0  0
    0.9779   -5.3559   -2.0212 H   0  0  0  0  0  0  0  0  0  0  0  0
   -1.0443   -4.7193   -1.8846 C   0  0  0  0  0  0  0  0  0  0  0  0
   -1.9076   -5.8091   -2.0674 C   0  0  0  0  0  0  0  0  0  0  0  0
   -1.5109   -6.7977   -2.2462 H   0  0  0  0  0  0  0  0  0  0  0  0
   -3.2958   -5.5965   -2.0166 C   0  0  0  0  0  0  0  0  0  0  0  0
   -3.9770   -6.4250   -2.1564 H   0  0  0  0  0  0  0  0  0  0  0  0
   -3.7989   -4.3023   -1.7900 C   0  0  0  0  0  0  0  0  0  0  0  0
   -4.8677   -4.1418   -1.7600 H   0  0  0  0  0  0  0  0  0  0  0  0
   -2.9218   -3.2140   -1.6096 C   0  0  0  0  0  0  0  0  0  0  0  0
   -3.3216   -2.2227   -1.4496 H   0  0  0  0  0  0  0  0  0  0  0  0
   -1.5224   -3.3956   -1.6488 C   0  0  0  0  0  0  0  0  0  0  0  0
   -1.7617    0.8549   -0.2106 C   0  0  0  0  0  0  0  0  0  0  0  0
   -2.5726    1.1871   -1.0741 O   0  0  0  0  0  0  0  0  0  0  0  0
   -1.1941    1.7377    0.6223 N   0  0  0  0  0  0  0  0  0  0  0  0
   -0.4976    1.3916    1.2669 H   0  0  0  0  0  0  0  0  0  0  0  0
   -1.4666    3.1722    0.6095 C   0  0  0  0  0  0  0  0  0  0  0  0
   -2.5439    3.3427    0.6539 H   0  0  0  0  0  0  0  0  0  0  0  0
   -0.9893    3.6529    1.4644 H   0  0  0  0  0  0  0  0  0  0  0  0
   -1.0808    3.6095   -0.3129 H   0  0  0  0  0  0  0  0  0  0  0  0
  5  6  2  0  0  0  0
  5  7  1  0  0  0  0
  2  3  1  0  0  0  0
  2  4  1  0  0  0  0
  2  5  1  0  0  0  0
  1  2  1  0  0  0  0
 29 30  2  0  0  0  0
 29 31  1  0  0  0  0
 26 27  1  0  0  0  0
 26 28  2  0  0  0  0
 24 25  1  0  0  0  0
 24 26  1  0  0  0  0
 22 23  1  0  0  0  0
 22 24  2  0  0  0  0
 20 21  1  0  0  0  0
 20 22  1  0  0  0  0
 19 20  2  0  0  0  0
 19 28  1  0  0  0  0
 17 18  1  0  0  0  0
 17 19  1  0  0  0  0
 15 16  1  0  0  0  0
 15 17  1  0  0  0  0
 14 15  2  0  0  0  0
 14 28  1  0  0  0  0
 11 12  1  0  0  0  0
 11 13  1  0  0  0  0
 11 14  1  0  0  0  0
  9 10  1  0  0  0  0
  9 11  1  0  0  0  0
  9 29  1  0  0  0  0
  7  8  1  0  0  0  0
  7  9  1  0  0  0  0
 33 34  1  0  0  0  0
 33 35  1  0  0  0  0
 33 36  1  0  0  0  0
 31 32  1  0  0  0  0
 31 33  1  0  0  0  0
M  END
$$$$
default_name
  -OEChem-02102213163D

 36 37  0     1  0  0  0  0  0999 V2000
   -4.0843   -4.0736    1.2944 H   0  0  0  0  0  0  0  0  0  0  0  0
   -4.0342   -3.2816    0.5484 C   0  0  0  0  0  0  0  0  0  0  0  0
   -4.8842   -2.6126    0.6694 H   0  0  0  0  0  0  0  0  0  0  0  0
   -4.0433   -3.7186   -0.4486 H   0  0  0  0  0  0  0  0  0  0  0  0
   -2.7532   -2.5046    0.7444 C   0  0  0  0  0  0  0  0  0  0  0  0
   -1.9803   -2.8096    1.6434 O   0  0  0  0  0  0  0  0  0  0  0  0
   -2.5332   -1.4966   -0.0966 N   0  0  0  0  0  0  0  0  0  0  0  0
   -3.2312   -1.2816   -0.7936 H   0  0  0  0  0  0  0  0  0  0  0  0
   -1.3593   -0.6196   -0.0536 C   0  0  1  0  0  0  0  0  0  0  0  0
   -0.8788   -0.7266    0.9196 H   0  0  0  0  0  0  0  0  0  0  0  0
   -0.3559   -1.0533   -1.1339 C   0  0  0  0  0  0  0  0  0  0  0  0
   -0.5627   -0.4966   -2.0497 H   0  0  0  0  0  0  0  0  0  0  0  0
    0.6486   -0.7836   -0.8032 H   0  0  0  0  0  0  0  0  0  0  0  0
   -0.3701   -2.5145   -1.4666 C   0  0  0  0  0  0  0  0  0  0  0  0
    0.6764   -3.3607   -1.3384 C   0  0  0  0  0  0  0  0  0  0  0  0
    1.6638   -3.0733   -0.9939 H   0  0  0  0  0  0  0  0  0  0  0  0
    0.2869   -4.6377   -1.6919 N   0  0  0  0  0  0  0  0  0  0  0  0
    0.9077   -5.4336   -1.6769 H   0  0  0  0  0  0  0  0  0  0  0  0
   -1.0432   -4.6812   -2.0520 C   0  0  0  0  0  0  0  0  0  0  0  0
   -1.8939   -5.7217   -2.4522 C   0  0  0  0  0  0  0  0  0  0  0  0
   -1.5228   -6.7330   -2.5299 H   0  0  0  0  0  0  0  0  0  0  0  0
   -3.2354   -5.4296   -2.7524 C   0  0  0  0  0  0  0  0  0  0  0  0
   -3.9060   -6.2191   -3.0637 H   0  0  0  0  0  0  0  0  0  0  0  0
   -3.7037   -4.1066   -2.6538 C   0  0  0  0  0  0  0  0  0  0  0  0
   -4.7344   -3.8850   -2.8938 H   0  0  0  0  0  0  0  0  0  0  0  0
   -2.8392   -3.0684   -2.2525 C   0  0  0  0  0  0  0  0  0  0  0  0
   -3.2085   -2.0544   -2.1937 H   0  0  0  0  0  0  0  0  0  0  0  0
   -1.4881   -3.3301   -1.9380 C   0  0  0  0  0  0  0  0  0  0  0  0
   -1.7617    0.8549   -0.2106 C   0  0  0  0  0  0  0  0  0  0  0  0
   -2.5726    1.1871   -1.0741 O   0  0  0  0  0  0  0  0  0  0  0  0
   -1.1941    1.7377    0.6223 N   0  0  0  0  0  0  0  0  0  0  0  0
   -0.4976    1.3916    1.2669 H   0  0  0  0  0  0  0  0  0  0  0  0
   -1.4666    3.1722    0.6095 C   0  0  0  0  0  0  0  0  0  0  0  0
   -2.5439    3.3427    0.6539 H   0  0  0  0  0  0  0  0  0  0  0  0
   -0.9893    3.6529    1.4644 H   0  0  0  0  0  0  0  0  0  0  0  0
   -1.0808    3.6095   -0.3129 H   0  0  0  0  0  0  0  0  0  0  0  0
  5  6  2  0  0  0  0
  5  7  1  0  0  0  0
  2  3  1  0  0  0  0
  2  4  1  0  0  0  0
  2  5  1  0  0  0  0
  1  2  1  0  0  0  0
 29 30  2  0  0  0  0
 29 31  1  0  0  0  0
 26 27  1  0  0  0  0
 26 28  2  0  0  0  0
 24 25  1  0  0  0  0
 24 26  1  0  0  0  0
 22 23  1  0  0  0  0
 22 24  2  0  0  0  0
 20 21  1  0  0  0  0
 20 22  1  0  0  0  0
 19 20  2  0  0  0  0
 19 28  1  0  0  0  0
 17 18  1  0  0  0  0
 17 19  1  0  0  0  0
 15 16  1  0  0  0  0
 15 17  1  0  0  0  0
 14 15  2  0  0  0  0
 14 28  1  0  0  0  0
 11 12  1  0  0  0  0
 11 13  1  0  0  0  0
 11 14  1  0  0  0  0
  9 10  1  0  0  0  0
  9 11  1  0  0  0  0
  9 29  1  0  0  0  0
  7  8  1  0  0  0  0
  7  9  1  0  0  0  0
 33 34  1  0  0  0  0
 33 35  1  0  0  0  0
 33 36  1  0  0  0  0
 31 32  1  0  0  0  0
 31 33  1  0  0  0  0
M  END
$$$$
default_name
  -OEChem-02102213163D

 36 37  0     1  0  0  0  0  0999 V2000
   -4.0843   -4.0736    1.2944 H   0  0  0  0  0  0  0  0  0  0  0  0
   -4.0342   -3.2816    0.5484 C   0  0  0  0  0  0  0  0  0  0  0  0
   -4.8842   -2.6126    0.6694 H   0  0  0  0  0  0  0  0  0  0  0  0
   -4.0433   -3.7186   -0.4486 H   0  0  0  0  0  0  0  0  0  0  0  0
   -2.7532   -2.5046    0.7444 C   0  0  0  0  0  0  0  0  0  0  0  0
   -1.9803   -2.8096    1.6434 O   0  0  0  0  0  0  0  0  0  0  0  0
   -2.5332   -1.4966   -0.0966 N   0  0  0  0  0  0  0  0  0  0  0  0
   -3.2312   -1.2816   -0.7936 H   0  0  0  0  0  0  0  0  0  0  0  0
   -1.3593   -0.6196   -0.0536 C   0  0  1  0  0  0  0  0  0  0  0  0
   -0.8788   -0.7266    0.9196 H   0  0  0  0  0  0  0  0  0  0  0  0
   -0.3559   -1.0533   -1.1339 C   0  0  0  0  0  0  0  0  0  0  0  0
   -0.5627   -0.4966   -2.0497 H   0  0  0  0  0  0  0  0  0  0  0  0
    0.6486   -0.7836   -0.8032 H   0  0  0  0  0  0  0  0  0  0  0  0
   -0.3701   -2.5145   -1.4666 C   0  0  0  0  0  0  0  0  0  0  0  0
    0.5595   -3.4178   -1.0825 C   0  0  0  0  0  0  0  0  0  0  0  0
    1.4430   -3.1840   -0.4986 H   0  0  0  0  0  0  0  0  0  0  0  0
    0.1987   -4.6739   -1.5292 N   0  0  0  0  0  0  0  0  0  0  0  0
    0.7486   -5.5038   -1.3618 H   0  0  0  0  0  0  0  0  0  0  0  0
   -0.9978   -4.6449   -2.2136 C   0  0  0  0  0  0  0  0  0  0  0  0
   -1.7787   -5.6389   -2.8207 C   0  0  0  0  0  0  0  0  0  0  0  0
   -1.4590   -6.6705   -2.8071 H   0  0  0  0  0  0  0  0  0  0  0  0
   -2.9818   -5.2736   -3.4483 C   0  0  0  0  0  0  0  0  0  0  0  0
   -3.5966   -6.0265   -3.9227 H   0  0  0  0  0  0  0  0  0  0  0  0
   -3.3826   -3.9251   -3.4646 C   0  0  0  0  0  0  0  0  0  0  0  0
   -4.3049   -3.6473   -3.9559 H   0  0  0  0  0  0  0  0  0  0  0  0
   -2.5888   -2.9341   -2.8530 C   0  0  0  0  0  0  0  0  0  0  0  0
   -2.9017   -1.9001   -2.8844 H   0  0  0  0  0  0  0  0  0  0  0  0
   -1.3781   -3.2695   -2.2090 C   0  0  0  0  0  0  0  0  0  0  0  0
   -1.7617    0.8549   -0.2106 C   0  0  0  0  0  0  0  0  0  0  0  0
   -2.5726    1.1871   -1.0741 O   0  0  0  0  0  0  0  0  0  0  0  0
   -1.1941    1.7377    0.6223 N   0  0  0  0  0  0  0  0  0  0  0  0
   -0.4976    1.3916    1.2669 H   0  0  0  0  0  0  0  0  0  0  0  0
   -1.4666    3.1722    0.6095 C   0  0  0  0  0  0  0  0  0  0  0  0
   -2.5439    3.3427    0.6539 H   0  0  0  0  0  0  0  0  0  0  0  0
   -0.9893    3.6529    1.4644 H   0  0  0  0  0  0  0  0  0  0  0  0
   -1.0808    3.6095   -0.3129 H   0  0  0  0  0  0  0  0  0  0  0  0
  5  6  2  0  0  0  0
  5  7  1  0  0  0  0
  2  3  1  0  0  0  0
  2  4  1  0  0  0  0
  2  5  1  0  0  0  0
  1  2  1  0  0  0  0
 29 30  2  0  0  0  0
 29 31  1  0  0  0  0
 26 27  1  0  0  0  0
 26 28  2  0  0  0  0
 24 25  1  0  0  0  0
 24 26  1  0  0  0  0
 22 23  1  0  0  0  0
 22 24  2  0  0  0  0
 20 21  1  0  0  0  0
 20 22  1  0  0  0  0
 19 20  2  0  0  0  0
 19 28  1  0  0  0  0
 17 18  1  0  0  0  0
 17 19  1  0  0  0  0
 15 16  1  0  0  0  0
 15 17  1  0  0  0  0
 14 15  2  0  0  0  0
 14 28  1  0  0  0  0
 11 12  1  0  0  0  0
 11 13  1  0  0  0  0
 11 14  1  0  0  0  0
  9 10  1  0  0  0  0
  9 11  1  0  0  0  0
  9 29  1  0  0  0  0
  7  8  1  0  0  0  0
  7  9  1  0  0  0  0
 33 34  1  0  0  0  0
 33 35  1  0  0  0  0
 33 36  1  0  0  0  0
 31 32  1  0  0  0  0
 31 33  1  0  0  0  0
M  END
$$$$
default_name
  -OEChem-02102213163D

 36 37  0     1  0  0  0  0  0999 V2000
   -4.0843   -4.0736    1.2944 H   0  0  0  0  0  0  0  0  0  0  0  0
   -4.0342   -3.2816    0.5484 C   0  0  0  0  0  0  0  0  0  0  0  0
   -4.8842   -2.6126    0.6694 H   0  0  0  0  0  0  0  0  0  0  0  0
   -4.0433   -3.7186   -0.4486 H   0  0  0  0  0  0  0  0  0  0  0  0
   -2.7532   -2.5046    0.7444 C   0  0  0  0  0  0  0  0  0  0  0  0
   -1.9803   -2.8096    1.6434 O   0  0  0  0  0  0  0  0  0  0  0  0
   -2.5332   -1.4966   -0.0966 N   0  0  0  0  0  0  0  0  0  0  0  0
   -3.2312   -1.2816   -0.7936 H   0  0  0  0  0  0  0  0  0  0  0  0
   -1.3593   -0.6196   -0.0536 C   0  0  1  0  0  0  0  0  0  0  0  0
   -0.8788   -0.7266    0.9196 H   0  0  0  0  0  0  0  0  0  0  0  0
   -0.3559   -1.0533   -1.1339 C   0  0  0  0  0  0  0  0  0  0  0  0
   -0.5627   -0.4966   -2.0497 H   0  0  0  0  0  0  0  0  0  0  0  0
    0.6486   -0.7836   -0.8032 H   0  0  0  0  0  0  0  0  0  0  0  0
   -0.3701   -2.5145   -1.4666 C   0  0  0  0  0  0  0  0  0  0  0  0
    0.3788   -3.4656   -0.8647 C   0  0  0  0  0  0  0  0  0  0  0  0
    1.0983   -3.2769   -0.0755 H   0  0  0  0  0  0  0  0  0  0  0  0
    0.0704   -4.7034   -1.3942 N   0  0  0  0  0  0  0  0  0  0  0  0
    0.5113   -5.5617   -1.0975 H   0  0  0  0  0  0  0  0  0  0  0  0
   -0.9110   -4.6128   -2.3583 C   0  0  0  0  0  0  0  0  0  0  0  0
   -1.5696   -5.5665   -3.1477 C   0  0  0  0  0  0  0  0  0  0  0  0
   -1.3238   -6.6145   -3.0590 H   0  0  0  0  0  0  0  0  0  0  0  0
   -2.5523   -5.1392   -4.0569 C   0  0  0  0  0  0  0  0  0  0  0  0
   -3.0700   -5.8604   -4.6748 H   0  0  0  0  0  0  0  0  0  0  0  0
   -2.8574   -3.7703   -4.1672 C   0  0  0  0  0  0  0  0  0  0  0  0
   -3.6083   -3.4451   -4.8740 H   0  0  0  0  0  0  0  0  0  0  0  0
   -2.1877   -2.8203   -3.3702 C   0  0  0  0  0  0  0  0  0  0  0  0
   -2.4223   -1.7705   -3.4744 H   0  0  0  0  0  0  0  0  0  0  0  0
   -1.2001   -3.2179   -2.4431 C   0  0  0  0  0  0  0  0  0  0  0  0
   -1.7617    0.8549   -0.2106 C   0  0  0  0  0  0  0  0  0  0  0  0
   -2.5726    1.1871   -1.0741 O   0  0  0  0  0  0  0  0  0  0  0  0
   -1.1941    1.7377    0.6223 N   0  0  0  0  0  0  0  0  0  0  0  0
   -0.4976    1.3916    1.2669 H   0  0  0  0  0  0  0  0  0  0  0  0
   -1.4666    3.1722    0.6095 C   0  0  0  0  0  0  0  0  0  0  0  0
   -2.5439    3.3427    0.6539 H   0  0  0  0  0  0  0  0  0  0  0  0
   -0.9893    3.6529    1.4644 H   0  0  0  0  0  0  0  0  0  0  0  0
   -1.0808    3.6095   -0.3129 H   0  0  0  0  0  0  0  0  0  0  0  0
  5  6  2  0  0  0  0
  5  7  1  0  0  0  0
  2  3  1  0  0  0  0
  2  4  1  0  0  0  0
  2  5  1  0  0  0  0
  1  2  1  0  0  0  0
 29 30  2  0  0  0  0
 29 31  1  0  0  0  0
 26 27  1  0  0  0  0
 26 28  2  0  0  0  0
 24 25  1  0  0  0  0
 24 26  1  0  0  0  0
 22 23  1  0  0  0  0
 22 24  2  0  0  0  0
 20 21  1  0  0  0  0
 20 22  1  0  0  0  0
 19 20  2  0  0  0  0
 19 28  1  0  0  0  0
 17 18  1  0  0  0  0
 17 19  1  0  0  0  0
 15 16  1  0  0  0  0
 15 17  1  0  0  0  0
 14 15  2  0  0  0  0
 14 28  1  0  0  0  0
 11 12  1  0  0  0  0
 11 13  1  0  0  0  0
 11 14  1  0  0  0  0
  9 10  1  0  0  0  0
  9 11  1  0  0  0  0
  9 29  1  0  0  0  0
  7  8  1  0  0  0  0
  7  9  1  0  0  0  0
 33 34  1  0  0  0  0
 33 35  1  0  0  0  0
 33 36  1  0  0  0  0
 31 32  1  0  0  0  0
 31 33  1  0  0  0  0
M  END
$$$$
default_name
  -OEChem-02102213163D

 36 37  0     1  0  0  0  0  0999 V2000
   -4.0843   -4.0736    1.2944 H   0  0  0  0  0  0  0  0  0  0  0  0
   -4.0342   -3.2816    0.5484 C   0  0  0  0  0  0  0  0  0  0  0  0
   -4.8842   -2.6126    0.6694 H   0  0  0  0  0  0  0  0  0  0  0  0
   -4.0433   -3.7186   -0.4486 H   0  0  0  0  0  0  0  0  0  0  0  0
   -2.7532   -2.5046    0.7444 C   0  0  0  0  0  0  0  0  0  0  0  0
   -1.9803   -2.8096    1.6434 O   0  0  0  0  0  0  0  0  0  0  0  0
   -2.5332   -1.4966   -0.0966 N   0  0  0  0  0  0  0  0  0  0  0  0
   -3.2312   -1.2816   -0.7936 H   0  0  0  0  0  0  0  0  0  0  0  0
   -1.3593   -0.6196   -0.0536 C   0  0  1  0  0  0  0  0  0  0  0  0
   -0.8788   -0.7266    0.9196 H   0  0  0  0  0  0  0  0  0  0  0  0
   -0.3559   -1.0533   -1.1339 C   0  0  0  0  0  0  0  0  0  0  0  0
   -0.5627   -0.4966   -2.0497 H   0  0  0  0  0  0  0  0  0  0  0  0
    0.6486   -0.7836   -0.8032 H   0  0  0  0  0  0  0  0  0  0  0  0
   -0.3701   -2.5145   -1.4666 C   0  0  0  0  0  0  0  0  0  0  0  0
    0.1465   -3.5009   -0.6998 C   0  0  0  0  0  0  0  0  0  0  0  0
    0.6533   -3.3458    0.2463 H   0  0  0  0  0  0  0  0  0  0  0  0
   -0.0894   -4.7241   -1.2961 N   0  0  0  0  0  0  0  0  0  0  0  0
    0.2122   -5.6033   -0.9019 H   0  0  0  0  0  0  0  0  0  0  0  0
   -0.7889   -4.5871   -2.4762 C   0  0  0  0  0  0  0  0  0  0  0  0
   -1.2809   -5.5093   -3.4110 C   0  0  0  0  0  0  0  0  0  0  0  0
   -1.1265   -6.5688   -3.2682 H   0  0  0  0  0  0  0  0  0  0  0  0
   -1.9761   -5.0356   -4.5367 C   0  0  0  0  0  0  0  0  0  0  0  0
   -2.3619   -5.7321   -5.2688 H   0  0  0  0  0  0  0  0  0  0  0  0
   -2.1639   -3.6526   -4.7138 C   0  0  0  0  0  0  0  0  0  0  0  0
   -2.6921   -3.2920   -5.5856 H   0  0  0  0  0  0  0  0  0  0  0  0
   -1.6632   -2.7347   -3.7688 C   0  0  0  0  0  0  0  0  0  0  0  0
   -1.8029   -1.6742   -3.9237 H   0  0  0  0  0  0  0  0  0  0  0  0
   -0.9662   -3.1789   -2.6244 C   0  0  0  0  0  0  0  0  0  0  0  0
   -1.7617    0.8549   -0.2106 C   0  0  0  0  0  0  0  0  0  0  0  0
   -2.5726    1.1871   -1.0741 O   0  0  0  0  0  0  0  0  0  0  0  0
   -1.1941    1.7377    0.6223 N   0  0  0  0  0  0  0  0  0  0  0  0
   -0.4976    1.3916    1.2669 H   0  0  0  0  0  0  0  0  0  0  0  0
   -1.4666    3.1722    0.6095 C   0  0  0  0  0  0  0  0  0  0  0  0
   -2.5439    3.3427    0.6539 H   0  0  0  0  0  0  0  0  0  0  0  0
   -0.9893    3.6529    1.4644 H   0  0  0  0  0  0  0  0  0  0  0  0
   -1.0808    3.6095   -0.3129 H   0  0  0  0  0  0  0  0  0  0  0  0
  5  6  2  0  0  0  0
  5  7  1  0  0  0  0
  2  3  1  0  0  0  0
  2  4  1  0  0  0  0
  2  5  1  0  0  0  0
  1  2  1  0  0  0  0
 29 30  2  0  0  0  0
 29 31  1  0  0  0  0
 26 27  1  0  0  0  0
 26 28  2  0  0  0  0
 24 25  1  0  0  0  0
 24 26  1  0  0  0  0
 22 23  1  0  0  0  0
 22 24  2  0  0  0  0
 20 21  1  0  0  0  0
 20 22  1  0  0  0  0
 19 20  2  0  0  0  0
 19 28  1  0  0  0  0
 17 18  1  0  0  0  0
 17 19  1  0  0  0  0
 15 16  1  0  0  0  0
 15 17  1  0  0  0  0
 14 15  2  0  0  0  0
 14 28  1  0  0  0  0
 11 12  1  0  0  0  0
 11 13  1  0  0  0  0
 11 14  1  0  0  0  0
  9 10  1  0  0  0  0
  9 11  1  0  0  0  0
  9 29  1  0  0  0  0
  7  8  1  0  0  0  0
  7  9  1  0  0  0  0
 33 34  1  0  0  0  0
 33 35  1  0  0  0  0
 33 36  1  0  0  0  0
 31 32  1  0  0  0  0
 31 33  1  0  0  0  0
M  END
$$$$
default_name
  -OEChem-02102213163D

 36 37  0     1  0  0  0  0  0999 V2000
   -4.0843   -4.0736    1.2944 H   0  0  0  0  0  0  0  0  0  0  0  0
   -4.0342   -3.2816    0.5484 C   0  0  0  0  0  0  0  0  0  0  0  0
   -4.8842   -2.6126    0.6694 H   0  0  0  0  0  0  0  0  0  0  0  0
   -4.0433   -3.7186   -0.4486 H   0  0  0  0  0  0  0  0  0  0  0  0
   -2.7532   -2.5046    0.7444 C   0  0  0  0  0  0  0  0  0  0  0  0
   -1.9803   -2.8096    1.6434 O   0  0  0  0  0  0  0  0  0  0  0  0
   -2.5332   -1.4966   -0.0966 N   0  0  0  0  0  0  0  0  0  0  0  0
   -3.2312   -1.2816   -0.7936 H   0  0  0  0  0  0  0  0  0  0  0  0
   -1.3593   -0.6196   -0.0536 C   0  0  1  0  0  0  0  0  0  0  0  0
   -0.8788   -0.7266    0.9196 H   0  0  0  0  0  0  0  0  0  0  0  0
   -0.3559   -1.0533   -1.1339 C   0  0  0  0  0  0  0  0  0  0  0  0
   -0.5627   -0.4966   -2.0497 H   0  0  0  0  0  0  0  0  0  0  0  0
    0.6486   -0.7836   -0.8032 H   0  0  0  0  0  0  0  0  0  0  0  0
   -0.3701   -2.5145   -1.4666 C   0  0  0  0  0  0  0  0  0  0  0  0
   -0.1216   -3.5212   -0.5991 C   0  0  0  0  0  0  0  0  0  0  0  0
    0.1383   -3.3861    0.4451 H   0  0  0  0  0  0  0  0  0  0  0  0
   -0.2696   -4.7348   -1.2416 N   0  0  0  0  0  0  0  0  0  0  0  0
   -0.1286   -5.6258   -0.7884 H   0  0  0  0  0  0  0  0  0  0  0  0
   -0.6396   -4.5696   -2.5594 C   0  0  0  0  0  0  0  0  0  0  0  0
   -0.9324   -5.4714   -3.5926 C   0  0  0  0  0  0  0  0  0  0  0  0
   -0.8804   -6.5365   -3.4207 H   0  0  0  0  0  0  0  0  0  0  0  0
   -1.2925   -4.9698   -4.8550 C   0  0  0  0  0  0  0  0  0  0  0  0
   -1.5207   -5.6503   -5.6642 H   0  0  0  0  0  0  0  0  0  0  0  0
   -1.3493   -3.5801   -5.0669 C   0  0  0  0  0  0  0  0  0  0  0  0
   -1.6188   -3.1986   -6.0421 H   0  0  0  0  0  0  0  0  0  0  0  0
   -1.0511   -2.6831   -4.0217 C   0  0  0  0  0  0  0  0  0  0  0  0
   -1.0856   -1.6179   -4.2017 H   0  0  0  0  0  0  0  0  0  0  0  0
   -0.6921   -3.1551   -2.7406 C   0  0  0  0  0  0  0  0  0  0  0  0
   -1.7617    0.8549   -0.2106 C   0  0  0  0  0  0  0  0  0  0  0  0
   -2.5726    1.1871   -1.0741 O   0  0  0  0  0  0  0  0  0  0  0  0
   -1.1941    1.7377    0.6223 N   0  0  0  0  0  0  0  0  0  0  0  0
   -0.4976    1.3916    1.2669 H   0  0  0  0  0  0  0  0  0  0  0  0
   -1.4666    3.1722    0.6095 C   0  0  0  0  0  0  0  0  0  0  0  0
   -2.5439    3.3427    0.6539 H   0  0  0  0  0  0  0  0  0  0  0  0
   -0.9893    3.6529    1.4644 H   0  0  0  0  0  0  0  0  0  0  0  0
   -1.0808    3.6095   -0.3129 H   0  0  0  0  0  0  0  0  0  0  0  0
  5  6  2  0  0  0  0
  5  7  1  0  0  0  0
  2  3  1  0  0  0  0
  2  4  1  0  0  0  0
  2  5  1  0  0  0  0
  1  2  1  0  0  0  0
 29 30  2  0  0  0  0
 29 31  1  0  0  0  0
 26 27  1  0  0  0  0
 26 28  2  0  0  0  0
 24 25  1  0  0  0  0
 24 26  1  0  0  0  0
 22 23  1  0  0  0  0
 22 24  2  0  0  0  0
 20 21  1  0  0  0  0
 20 22  1  0  0  0  0
 19 20  2  0  0  0  0
 19 28  1  0  0  0  0
 17 18  1  0  0  0  0
 17 19  1  0  0  0  0
 15 16  1  0  0  0  0
 15 17  1  0  0  0  0
 14 15  2  0  0  0  0
 14 28  1  0  0  0  0
 11 12  1  0  0  0  0
 11 13  1  0  0  0  0
 11 14  1  0  0  0  0
  9 10  1  0  0  0  0
  9 11  1  0  0  0  0
  9 29  1  0  0  0  0
  7  8  1  0  0  0  0
  7  9  1  0  0  0  0
 33 34  1  0  0  0  0
 33 35  1  0  0  0  0
 33 36  1  0  0  0  0
 31 32  1  0  0  0  0
 31 33  1  0  0  0  0
M  END
$$$$
default_name
  -OEChem-02102213163D

 36 37  0     1  0  0  0  0  0999 V2000
   -4.0843   -4.0736    1.2944 H   0  0  0  0  0  0  0  0  0  0  0  0
   -4.0342   -3.2816    0.5484 C   0  0  0  0  0  0  0  0  0  0  0  0
   -4.8842   -2.6126    0.6694 H   0  0  0  0  0  0  0  0  0  0  0  0
   -4.0433   -3.7186   -0.4486 H   0  0  0  0  0  0  0  0  0  0  0  0
   -2.7532   -2.5046    0.7444 C   0  0  0  0  0  0  0  0  0  0  0  0
   -1.9803   -2.8096    1.6434 O   0  0  0  0  0  0  0  0  0  0  0  0
   -2.5332   -1.4966   -0.0966 N   0  0  0  0  0  0  0  0  0  0  0  0
   -3.2312   -1.2816   -0.7936 H   0  0  0  0  0  0  0  0  0  0  0  0
   -1.3593   -0.6196   -0.0536 C   0  0  1  0  0  0  0  0  0  0  0  0
   -0.8788   -0.7266    0.9196 H   0  0  0  0  0  0  0  0  0  0  0  0
   -0.3559   -1.0533   -1.1339 C   0  0  0  0  0  0  0  0  0  0  0  0
   -0.5627   -0.4966   -2.0497 H   0  0  0  0  0  0  0  0  0  0  0  0
    0.6486   -0.7836   -0.8032 H   0  0  0  0  0  0  0  0  0  0  0  0
   -0.3701   -2.5145   -1.4666 C   0  0  0  0  0  0  0  0  0  0  0  0
   -0.4070   -3.5252   -0.5694 C   0  0  0  0  0  0  0  0  0  0  0  0
   -0.4117   -3.3948    0.5072 H   0  0  0  0  0  0  0  0  0  0  0  0
   -0.4581   -4.7346   -1.2344 N   0  0  0  0  0  0  0  0  0  0  0  0
   -0.4876   -5.6277   -0.7647 H   0  0  0  0  0  0  0  0  0  0  0  0
   -0.4735   -4.5615   -2.6021 C   0  0  0  0  0  0  0  0  0  0  0  0
   -0.5477   -5.4552   -3.6801 C   0  0  0  0  0  0  0  0  0  0  0  0
   -0.6024   -6.5198   -3.5059 H   0  0  0  0  0  0  0  0  0  0  0  0
   -0.5481   -4.9463   -4.9901 C   0  0  0  0  0  0  0  0  0  0  0  0
   -0.6037   -5.6206   -5.8341 H   0  0  0  0  0  0  0  0  0  0  0  0
   -0.4693   -3.5578   -5.2027 C   0  0  0  0  0  0  0  0  0  0  0  0
   -0.4614   -3.1711   -6.2124 H   0  0  0  0  0  0  0  0  0  0  0  0
   -0.3930   -2.6690   -4.1116 C   0  0  0  0  0  0  0  0  0  0  0  0
   -0.3195   -1.6055   -4.2893 H   0  0  0  0  0  0  0  0  0  0  0  0
   -0.3968   -3.1482   -2.7837 C   0  0  0  0  0  0  0  0  0  0  0  0
   -1.7617    0.8549   -0.2106 C   0  0  0  0  0  0  0  0  0  0  0  0
   -2.5726    1.1871   -1.0741 O   0  0  0  0  0  0  0  0  0  0  0  0
   -1.1941    1.7377    0.6223 N   0  0  0  0  0  0  0  0  0  0  0  0
   -0.4976    1.3916    1.2669 H   0  0  0  0  0  0  0  0  0  0  0  0
   -1.4666    3.1722    0.6095 C   0  0  0  0  0  0  0  0  0  0  0  0
   -2.5439    3.3427    0.6539 H   0  0  0  0  0  0  0  0  0  0  0  0
   -0.9893    3.6529    1.4644 H   0  0  0  0  0  0  0  0  0  0  0  0
   -1.0808    3.6095   -0.3129 H   0  0  0  0  0  0  0  0  0  0  0  0
  5  6  2  0  0  0  0
  5  7  1  0  0  0  0
  2  3  1  0  0  0  0
  2  4  1  0  0  0  0
  2  5  1  0  0  0  0
  1  2  1  0  0  0  0
 29 30  2  0  0  0  0
 29 31  1  0  0  0  0
 26 27  1  0  0  0  0
 26 28  2  0  0  0  0
 24 25  1  0  0  0  0
 24 26  1  0  0  0  0
 22 23  1  0  0  0  0
 22 24  2  0  0  0  0
 20 21  1  0  0  0  0
 20 22  1  0  0  0  0
 19 20  2  0  0  0  0
 19 28  1  0  0  0  0
 17 18  1  0  0  0  0
 17 19  1  0  0  0  0
 15 16  1  0  0  0  0
 15 17  1  0  0  0  0
 14 15  2  0  0  0  0
 14 28  1  0  0  0  0
 11 12  1  0  0  0  0
 11 13  1  0  0  0  0
 11 14  1  0  0  0  0
  9 10  1  0  0  0  0
  9 11  1  0  0  0  0
  9 29  1  0  0  0  0
  7  8  1  0  0  0  0
  7  9  1  0  0  0  0
 33 34  1  0  0  0  0
 33 35  1  0  0  0  0
 33 36  1  0  0  0  0
 31 32  1  0  0  0  0
 31 33  1  0  0  0  0
M  END
$$$$
default_name
  -OEChem-02102213163D

 36 37  0     1  0  0  0  0  0999 V2000
   -4.0843   -4.0736    1.2944 H   0  0  0  0  0  0  0  0  0  0  0  0
   -4.0342   -3.2816    0.5484 C   0  0  0  0  0  0  0  0  0  0  0  0
   -4.8842   -2.6126    0.6694 H   0  0  0  0  0  0  0  0  0  0  0  0
   -4.0433   -3.7186   -0.4486 H   0  0  0  0  0  0  0  0  0  0  0  0
   -2.7532   -2.5046    0.7444 C   0  0  0  0  0  0  0  0  0  0  0  0
   -1.9803   -2.8096    1.6434 O   0  0  0  0  0  0  0  0  0  0  0  0
   -2.5332   -1.4966   -0.0966 N   0  0  0  0  0  0  0  0  0  0  0  0
   -3.2312   -1.2816   -0.7936 H   0  0  0  0  0  0  0  0  0  0  0  0
   -1.3593   -0.6196   -0.0536 C   0  0  1  0  0  0  0  0  0  0  0  0
   -0.8788   -0.7266    0.9196 H   0  0  0  0  0  0  0  0  0  0  0  0
   -0.3559   -1.0533   -1.1339 C   0  0  0  0  0  0  0  0  0  0  0  0
   -0.5627   -0.4966   -2.0497 H   0  0  0  0  0  0  0  0  0  0  0  0
    0.6486   -0.7836   -0.8032 H   0  0  0  0  0  0  0  0  0  0  0  0
   -0.3701   -2.5145   -1.4666 C   0  0  0  0  0  0  0  0  0  0  0  0
   -0.6905   -3.5125   -0.6128 C   0  0  0  0  0  0  0  0  0  0  0  0
   -0.9590   -3.3716    0.4285 H   0  0  0  0  0  0  0  0  0  0  0  0
   -0.6419   -4.7235   -1.2750 N   0  0  0  0  0  0  0  0  0  0  0  0
   -0.8406   -5.6088   -0.8324 H   0  0  0  0  0  0  0  0  0  0  0  0
   -0.3018   -4.5634   -2.6014 C   0  0  0  0  0  0  0  0  0  0  0  0
   -0.1531   -5.4619   -3.6677 C   0  0  0  0  0  0  0  0  0  0  0  0
   -0.3114   -6.5198   -3.5182 H   0  0  0  0  0  0  0  0  0  0  0  0
    0.2064   -4.9667   -4.9328 C   0  0  0  0  0  0  0  0  0  0  0  0
    0.3266   -5.6450   -5.7668 H   0  0  0  0  0  0  0  0  0  0  0  0
    0.4164   -3.5872   -5.1118 C   0  0  0  0  0  0  0  0  0  0  0  0
    0.7010   -3.2115   -6.0849 H   0  0  0  0  0  0  0  0  0  0  0  0
    0.2661   -2.6935   -4.0325 C   0  0  0  0  0  0  0  0  0  0  0  0
    0.4434   -1.6377   -4.1806 H   0  0  0  0  0  0  0  0  0  0  0  0
   -0.1002   -3.1585   -2.7509 C   0  0  0  0  0  0  0  0  0  0  0  0
   -1.7617    0.8549   -0.2106 C   0  0  0  0  0  0  0  0  0  0  0  0
   -2.5726    1.1871   -1.0741 O   0  0  0  0  0  0  0  0  0  0  0  0
   -1.1941    1.7377    0.6223 N   0  0  0  0  0  0  0  0  0  0  0  0
   -0.4976    1.3916    1.2669 H   0  0  0  0  0  0  0  0  0  0  0  0
   -1.4666    3.1722    0.6095 C   0  0  0  0  0  0  0  0  0  0  0  0
   -2.5439    3.3427    0.6539 H   0  0  0  0  0  0  0  0  0  0  0  0
   -0.9893    3.6529    1.4644 H   0  0  0  0  0  0  0  0  0  0  0  0
   -1.0808    3.6095   -0.3129 H   0  0  0  0  0  0  0  0  0  0  0  0
  5  6  2  0  0  0  0
  5  7  1  0  0  0  0
  2  3  1  0  0  0  0
  2  4  1  0  0  0  0
  2  5  1  0  0  0  0
  1  2  1  0  0  0  0
 29 30  2  0  0  0  0
 29 31  1  0  0  0  0
 26 27  1  0  0  0  0
 26 28  2  0  0  0  0
 24 25  1  0  0  0  0
 24 26  1  0  0  0  0
 22 23  1  0  0  0  0
 22 24  2  0  0  0  0
 20 21  1  0  0  0  0
 20 22  1  0  0  0  0
 19 20  2  0  0  0  0
 19 28  1  0  0  0  0
 17 18  1  0  0  0  0
 17 19  1  0  0  0  0
 15 16  1  0  0  0  0
 15 17  1  0  0  0  0
 14 15  2  0  0  0  0
 14 28  1  0  0  0  0
 11 12  1  0  0  0  0
 11 13  1  0  0  0  0
 11 14  1  0  0  0  0
  9 10  1  0  0  0  0
  9 11  1  0  0  0  0
  9 29  1  0  0  0  0
  7  8  1  0  0  0  0
  7  9  1  0  0  0  0
 33 34  1  0  0  0  0
 33 35  1  0  0  0  0
 33 36  1  0  0  0  0
 31 32  1  0  0  0  0
 31 33  1  0  0  0  0
M  END
$$$$
default_name
  -OEChem-02102213163D

 36 37  0     1  0  0  0  0  0999 V2000
   -4.0843   -4.0736    1.2944 H   0  0  0  0  0  0  0  0  0  0  0  0
   -4.0342   -3.2816    0.5484 C   0  0  0  0  0  0  0  0  0  0  0  0
   -4.8842   -2.6126    0.6694 H   0  0  0  0  0  0  0  0  0  0  0  0
   -4.0433   -3.7186   -0.4486 H   0  0  0  0  0  0  0  0  0  0  0  0
   -2.7532   -2.5046    0.7444 C   0  0  0  0  0  0  0  0  0  0  0  0
   -1.9803   -2.8096    1.6434 O   0  0  0  0  0  0  0  0  0  0  0  0
   -2.5332   -1.4966   -0.0966 N   0  0  0  0  0  0  0  0  0  0  0  0
   -3.2312   -1.2816   -0.7936 H   0  0  0  0  0  0  0  0  0  0  0  0
   -1.3593   -0.6196   -0.0536 C   0  0  1  0  0  0  0  0  0  0  0  0
   -0.8788   -0.7266    0.9196 H   0  0  0  0  0  0  0  0  0  0  0  0
   -0.3559   -1.0533   -1.1339 C   0  0  0  0  0  0  0  0  0  0  0  0
   -0.5627   -0.4966   -2.0497 H   0  0  0  0  0  0  0  0  0  0  0  0
    0.6486   -0.7836   -0.8032 H   0  0  0  0  0  0  0  0  0  0  0  0
   -0.3701   -2.5145   -1.4666 C   0  0  0  0  0  0  0  0  0  0  0  0
   -0.9526   -3.4841   -0.7262 C   0  0  0  0  0  0  0  0  0  0  0  0
   -1.4666   -3.3178    0.2142 H   0  0  0  0  0  0  0  0  0  0  0  0
   -0.8086   -4.7024   -1.3607 N   0  0  0  0  0  0  0  0  0  0  0  0
   -1.1633   -5.5705   -0.9868 H   0  0  0  0  0  0  0  0  0  0  0  0
   -0.1362   -4.5750   -2.5575 C   0  0  0  0  0  0  0  0  0  0  0  0
    0.2245   -5.4910   -3.5561 C   0  0  0  0  0  0  0  0  0  0  0  0
   -0.0272   -6.5366   -3.4565 H   0  0  0  0  0  0  0  0  0  0  0  0
    0.9195   -5.0297   -4.6871 C   0  0  0  0  0  0  0  0  0  0  0  0
    1.2069   -5.7218   -5.4670 H   0  0  0  0  0  0  0  0  0  0  0  0
    1.2472   -3.6662   -4.8005 C   0  0  0  0  0  0  0  0  0  0  0  0
    1.7893   -3.3170   -5.6684 H   0  0  0  0  0  0  0  0  0  0  0  0
    0.8814   -2.7548   -3.7896 C   0  0  0  0  0  0  0  0  0  0  0  0
    1.1511   -1.7124   -3.8830 H   0  0  0  0  0  0  0  0  0  0  0  0
    0.1774   -3.1855   -2.6443 C   0  0  0  0  0  0  0  0  0  0  0  0
   -1.7617    0.8549   -0.2106 C   0  0  0  0  0  0  0  0  0  0  0  0
   -2.5726    1.1871   -1.0741 O   0  0  0  0  0  0  0  0  0  0  0  0
   -1.1941    1.7377    0.6223 N   0  0  0  0  0  0  0  0  0  0  0  0
   -0.4976    1.3916    1.2669 H   0  0  0  0  0  0  0  0  0  0  0  0
   -1.4666    3.1722    0.6095 C   0  0  0  0  0  0  0  0  0  0  0  0
   -2.5439    3.3427    0.6539 H   0  0  0  0  0  0  0  0  0  0  0  0
   -0.9893    3.6529    1.4644 H   0  0  0  0  0  0  0  0  0  0  0  0
   -1.0808    3.6095   -0.3129 H   0  0  0  0  0  0  0  0  0  0  0  0
  5  6  2  0  0  0  0
  5  7  1  0  0  0  0
  2  3  1  0  0  0  0
  2  4  1  0  0  0  0
  2  5  1  0  0  0  0
  1  2  1  0  0  0  0
 29 30  2  0  0  0  0
 29 31  1  0  0  0  0
 26 27  1  0  0  0  0
 26 28  2  0  0  0  0
 24 25  1  0  0  0  0
 24 26  1  0  0  0  0
 22 23  1  0  0  0  0
 22 24  2  0  0  0  0
 20 21  1  0  0  0  0
 20 22  1  0  0  0  0
 19 20  2  0  0  0  0
 19 28  1  0  0  0  0
 17 18  1  0  0  0  0
 17 19  1  0  0  0  0
 15 16  1  0  0  0  0
 15 17  1  0  0  0  0
 14 15  2  0  0  0  0
 14 28  1  0  0  0  0
 11 12  1  0  0  0  0
 11 13  1  0  0  0  0
 11 14  1  0  0  0  0
  9 10  1  0  0  0  0
  9 11  1  0  0  0  0
  9 29  1  0  0  0  0
  7  8  1  0  0  0  0
  7  9  1  0  0  0  0
 33 34  1  0  0  0  0
 33 35  1  0  0  0  0
 33 36  1  0  0  0  0
 31 32  1  0  0  0  0
 31 33  1  0  0  0  0
M  END
$$$$
default_name
  -OEChem-02102213163D

 36 37  0     1  0  0  0  0  0999 V2000
   -4.0843   -4.0736    1.2944 H   0  0  0  0  0  0  0  0  0  0  0  0
   -4.0342   -3.2816    0.5484 C   0  0  0  0  0  0  0  0  0  0  0  0
   -4.8842   -2.6126    0.6694 H   0  0  0  0  0  0  0  0  0  0  0  0
   -4.0433   -3.7186   -0.4486 H   0  0  0  0  0  0  0  0  0  0  0  0
   -2.7532   -2.5046    0.7444 C   0  0  0  0  0  0  0  0  0  0  0  0
   -1.9803   -2.8096    1.6434 O   0  0  0  0  0  0  0  0  0  0  0  0
   -2.5332   -1.4966   -0.0966 N   0  0  0  0  0  0  0  0  0  0  0  0
   -3.2312   -1.2816   -0.7936 H   0  0  0  0  0  0  0  0  0  0  0  0
   -1.3593   -0.6196   -0.0536 C   0  0  1  0  0  0  0  0  0  0  0  0
   -0.8788   -0.7266    0.9196 H   0  0  0  0  0  0  0  0  0  0  0  0
   -0.3559   -1.0533   -1.1339 C   0  0  0  0  0  0  0  0  0  0  0  0
   -0.5627   -0.4966   -2.0497 H   0  0  0  0  0  0  0  0  0  0  0  0
    0.6486   -0.7836   -0.8032 H   0  0  0  0  0  0  0  0  0  0  0  0
   -0.3701   -2.5145   -1.4666 C   0  0  0  0  0  0  0  0  0  0  0  0
   -1.1756   -3.4419   -0.9020 C   0  0  0  0  0  0  0  0  0  0  0  0
   -1.8997   -3.2373   -0.1209 H   0  0  0  0  0  0  0  0  0  0  0  0
   -0.9468   -4.6726   -1.4855 N   0  0  0  0  0  0  0  0  0  0  0  0
   -1.4339   -5.5153   -1.2176 H   0  0  0  0  0  0  0  0  0  0  0  0
    0.0120   -4.5956   -2.4732 C   0  0  0  0  0  0  0  0  0  0  0  0
    0.5594   -5.5405   -3.3529 C   0  0  0  0  0  0  0  0  0  0  0  0
    0.2307   -6.5690   -3.3253 H   0  0  0  0  0  0  0  0  0  0  0  0
    1.5427   -5.1308   -4.2696 C   0  0  0  0  0  0  0  0  0  0  0  0
    1.9770   -5.8459   -4.9551 H   0  0  0  0  0  0  0  0  0  0  0  0
    1.9666   -3.7895   -4.2899 C   0  0  0  0  0  0  0  0  0  0  0  0
    2.7294   -3.4803   -4.9911 H   0  0  0  0  0  0  0  0  0  0  0  0
    1.4109   -2.8487   -3.3996 C   0  0  0  0  0  0  0  0  0  0  0  0
    1.7552   -1.8244   -3.4168 H   0  0  0  0  0  0  0  0  0  0  0  0
    0.4171   -3.2273   -2.4712 C   0  0  0  0  0  0  0  0  0  0  0  0
   -1.7617    0.8549   -0.2106 C   0  0  0  0  0  0  0  0  0  0  0  0
   -2.5726    1.1871   -1.0741 O   0  0  0  0  0  0  0  0  0  0  0  0
   -1.1941    1.7377    0.6223 N   0  0  0  0  0  0  0  0  0  0  0  0
   -0.4976    1.3916    1.2669 H   0  0  0  0  0  0  0  0  0  0  0  0
   -1.4666    3.1722    0.6095 C   0  0  0  0  0  0  0  0  0  0  0  0
   -2.5439    3.3427    0.6539 H   0  0  0  0  0  0  0  0  0  0  0  0
   -0.9893    3.6529    1.4644 H   0  0  0  0  0  0  0  0  0  0  0  0
   -1.0808    3.6095   -0.3129 H   0  0  0  0  0  0  0  0  0  0  0  0
  5  6  2  0  0  0  0
  5  7  1  0  0  0  0
  2  3  1  0  0  0  0
  2  4  1  0  0  0  0
  2  5  1  0  0  0  0
  1  2  1  0  0  0  0
 29 30  2  0  0  0  0
 29 31  1  0  0  0  0
 26 27  1  0  0  0  0
 26 28  2  0  0  0  0
 24 25  1  0  0  0  0
 24 26  1  0  0  0  0
 22 23  1  0  0  0  0
 22 24  2  0  0  0  0
 20 21  1  0  0  0  0
 20 22  1  0  0  0  0
 19 20  2  0  0  0  0
 19 28  1  0  0  0  0
 17 18  1  0  0  0  0
 17 19  1  0  0  0  0
 15 16  1  0  0  0  0
 15 17  1  0  0  0  0
 14 15  2  0  0  0  0
 14 28  1  0  0  0  0
 11 12  1  0  0  0  0
 11 13  1  0  0  0  0
 11 14  1  0  0  0  0
  9 10  1  0  0  0  0
  9 11  1  0  0  0  0
  9 29  1  0  0  0  0
  7  8  1  0  0  0  0
  7  9  1  0  0  0  0
 33 34  1  0  0  0  0
 33 35  1  0  0  0  0
 33 36  1  0  0  0  0
 31 32  1  0  0  0  0
 31 33  1  0  0  0  0
M  END
$$$$
default_name
  -OEChem-02102213163D

 36 37  0     1  0  0  0  0  0999 V2000
   -4.0843   -4.0736    1.2944 H   0  0  0  0  0  0  0  0  0  0  0  0
   -4.0342   -3.2816    0.5484 C   0  0  0  0  0  0  0  0  0  0  0  0
   -4.8842   -2.6126    0.6694 H   0  0  0  0  0  0  0  0  0  0  0  0
   -4.0433   -3.7186   -0.4486 H   0  0  0  0  0  0  0  0  0  0  0  0
   -2.7532   -2.5046    0.7444 C   0  0  0  0  0  0  0  0  0  0  0  0
   -1.9803   -2.8096    1.6434 O   0  0  0  0  0  0  0  0  0  0  0  0
   -2.5332   -1.4966   -0.0966 N   0  0  0  0  0  0  0  0  0  0  0  0
   -3.2312   -1.2816   -0.7936 H   0  0  0  0  0  0  0  0  0  0  0  0
   -1.3593   -0.6196   -0.0536 C   0  0  1  0  0  0  0  0  0  0  0  0
   -0.8788   -0.7266    0.9196 H   0  0  0  0  0  0  0  0  0  0  0  0
   -0.3559   -1.0533   -1.1339 C   0  0  0  0  0  0  0  0  0  0  0  0
   -0.5627   -0.4966   -2.0497 H   0  0  0  0  0  0  0  0  0  0  0  0
    0.6486   -0.7836   -0.8032 H   0  0  0  0  0  0  0  0  0  0  0  0
   -0.3701   -2.5145   -1.4666 C   0  0  0  0  0  0  0  0  0  0  0  0
   -1.3442   -3.3888   -1.1281 C   0  0  0  0  0  0  0  0  0  0  0  0
   -2.2288   -3.1354   -0.5542 H   0  0  0  0  0  0  0  0  0  0  0  0
   -1.0470   -4.6362   -1.6410 N   0  0  0  0  0  0  0  0  0  0  0  0
   -1.6338   -5.4470   -1.5089 H   0  0  0  0  0  0  0  0  0  0  0  0
    0.1327   -4.6239   -2.3543 C   0  0  0  0  0  0  0  0  0  0  0  0
    0.8288   -5.6071   -3.0720 C   0  0  0  0  0  0  0  0  0  0  0  0
    0.4449   -6.6148   -3.1333 H   0  0  0  0  0  0  0  0  0  0  0  0
    2.0335   -5.2633   -3.7088 C   0  0  0  0  0  0  0  0  0  0  0  0
    2.5847   -6.0087   -4.2659 H   0  0  0  0  0  0  0  0  0  0  0  0
    2.5256   -3.9486   -3.6148 C   0  0  0  0  0  0  0  0  0  0  0  0
    3.4572   -3.6905   -4.0993 H   0  0  0  0  0  0  0  0  0  0  0  0
    1.8186   -2.9690   -2.8891 C   0  0  0  0  0  0  0  0  0  0  0  0
    2.2146   -1.9662   -2.8137 H   0  0  0  0  0  0  0  0  0  0  0  0
    0.6025   -3.2809   -2.2435 C   0  0  0  0  0  0  0  0  0  0  0  0
   -1.7617    0.8549   -0.2106 C   0  0  0  0  0  0  0  0  0  0  0  0
   -2.5726    1.1871   -1.0741 O   0  0  0  0  0  0  0  0  0  0  0  0
   -1.1941    1.7377    0.6223 N   0  0  0  0  0  0  0  0  0  0  0  0
   -0.4976    1.3916    1.2669 H   0  0  0  0  0  0  0  0  0  0  0  0
   -1.4666    3.1722    0.6095 C   0  0  0  0  0  0  0  0  0  0  0  0
   -2.5439    3.3427    0.6539 H   0  0  0  0  0  0  0  0  0  0  0  0
   -0.9893    3.6529    1.4644 H   0  0  0  0  0  0  0  0  0  0  0  0
   -1.0808    3.6095   -0.3129 H   0  0  0  0  0  0  0  0  0  0  0  0
  5  6  2  0  0  0  0
  5  7  1  0  0  0  0
  2  3  1  0  0  0  0
  2  4  1  0  0  0  0
  2  5  1  0  0  0  0
  1  2  1  0  0  0  0
 29 30  2  0  0  0  0
 29 31  1  0  0  0  0
 26 27  1  0  0  0  0
 26 28  2  0  0  0  0
 24 25  1  0  0  0  0
 24 26  1  0  0  0  0
 22 23  1  0  0  0  0
 22 24  2  0  0  0  0
 20 21  1  0  0  0  0
 20 22  1  0  0  0  0
 19 20  2  0  0  0  0
 19 28  1  0  0  0  0
 17 18  1  0  0  0  0
 17 19  1  0  0  0  0
 15 16  1  0  0  0  0
 15 17  1  0  0  0  0
 14 15  2  0  0  0  0
 14 28  1  0  0  0  0
 11 12  1  0  0  0  0
 11 13  1  0  0  0  0
 11 14  1  0  0  0  0
  9 10  1  0  0  0  0
  9 11  1  0  0  0  0
  9 29  1  0  0  0  0
  7  8  1  0  0  0  0
  7  9  1  0  0  0  0
 33 34  1  0  0  0  0
 33 35  1  0  0  0  0
 33 36  1  0  0  0  0
 31 32  1  0  0  0  0
 31 33  1  0  0  0  0
M  END
$$$$
default_name
  -OEChem-02102213163D

 36 37  0     1  0  0  0  0  0999 V2000
   -4.0843   -4.0736    1.2944 H   0  0  0  0  0  0  0  0  0  0  0  0
   -4.0342   -3.2816    0.5484 C   0  0  0  0  0  0  0  0  0  0  0  0
   -4.8842   -2.6126    0.6694 H   0  0  0  0  0  0  0  0  0  0  0  0
   -4.0433   -3.7186   -0.4486 H   0  0  0  0  0  0  0  0  0  0  0  0
   -2.7532   -2.5046    0.7444 C   0  0  0  0  0  0  0  0  0  0  0  0
   -1.9803   -2.8096    1.6434 O   0  0  0  0  0  0  0  0  0  0  0  0
   -2.5332   -1.4966   -0.0966 N   0  0  0  0  0  0  0  0  0  0  0  0
   -3.2312   -1.2816   -0.7936 H   0  0  0  0  0  0  0  0  0  0  0  0
   -1.3593   -0.6196   -0.0536 C   0  0  1  0  0  0  0  0  0  0  0  0
   -0.8788   -0.7266    0.9196 H   0  0  0  0  0  0  0  0  0  0  0  0
   -0.3559   -1.0533   -1.1339 C   0  0  0  0  0  0  0  0  0  0  0  0
   -0.5627   -0.4966   -2.0497 H   0  0  0  0  0  0  0  0  0  0  0  0
    0.6486   -0.7836   -0.8032 H   0  0  0  0  0  0  0  0  0  0  0  0
   -0.3701   -2.5145   -1.4666 C   0  0  0  0  0  0  0  0  0  0  0  0
   -1.4469   -3.3283   -1.3892 C   0  0  0  0  0  0  0  0  0  0  0  0
   -2.4315   -3.0192   -1.0559 H   0  0  0  0  0  0  0  0  0  0  0  0
   -1.1025   -4.5957   -1.8167 N   0  0  0  0  0  0  0  0  0  0  0  0
   -1.7495   -5.3703   -1.8409 H   0  0  0  0  0  0  0  0  0  0  0  0
    0.2177   -4.6578   -2.2090 C   0  0  0  0  0  0  0  0  0  0  0  0
    1.0143   -5.6862   -2.7326 C   0  0  0  0  0  0  0  0  0  0  0  0
    0.6007   -6.6709   -2.8937 H   0  0  0  0  0  0  0  0  0  0  0  0
    2.3585   -5.4181   -3.0429 C   0  0  0  0  0  0  0  0  0  0  0  0
    2.9883   -6.1993   -3.4466 H   0  0  0  0  0  0  0  0  0  0  0  0
    2.8861   -4.1328   -2.8213 C   0  0  0  0  0  0  0  0  0  0  0  0
    3.9230   -3.9331   -3.0536 H   0  0  0  0  0  0  0  0  0  0  0  0
    2.0766   -3.1073   -2.2928 C   0  0  0  0  0  0  0  0  0  0  0  0
    2.4981   -2.1281   -2.1150 H   0  0  0  0  0  0  0  0  0  0  0  0
    0.7211   -3.3429   -1.9765 C   0  0  0  0  0  0  0  0  0  0  0  0
   -1.7617    0.8549   -0.2106 C   0  0  0  0  0  0  0  0  0  0  0  0
   -2.5726    1.1871   -1.0741 O   0  0  0  0  0  0  0  0  0  0  0  0
   -1.1941    1.7377    0.6223 N   0  0  0  0  0  0  0  0  0  0  0  0
   -0.4976    1.3916    1.2669 H   0  0  0  0  0  0  0  0  0  0  0  0
   -1.4666    3.1722    0.6095 C   0  0  0  0  0  0  0  0  0  0  0  0
   -2.5439    3.3427    0.6539 H   0  0  0  0  0  0  0  0  0  0  0  0
   -0.9893    3.6529    1.4644 H   0  0  0  0  0  0  0  0  0  0  0  0
   -1.0808    3.6095   -0.3129 H   0  0  0  0  0  0  0  0  0  0  0  0
  5  6  2  0  0  0  0
  5  7  1  0  0  0  0
  2  3  1  0  0  0  0
  2  4  1  0  0  0  0
  2  5  1  0  0  0  0
  1  2  1  0  0  0  0
 29 30  2  0  0  0  0
 29 31  1  0  0  0  0
 26 27  1  0  0  0  0
 26 28  2  0  0  0  0
 24 25  1  0  0  0  0
 24 26  1  0  0  0  0
 22 23  1  0  0  0  0
 22 24  2  0  0  0  0
 20 21  1  0  0  0  0
 20 22  1  0  0  0  0
 19 20  2  0  0  0  0
 19 28  1  0  0  0  0
 17 18  1  0  0  0  0
 17 19  1  0  0  0  0
 15 16  1  0  0  0  0
 15 17  1  0  0  0  0
 14 15  2  0  0  0  0
 14 28  1  0  0  0  0
 11 12  1  0  0  0  0
 11 13  1  0  0  0  0
 11 14  1  0  0  0  0
  9 10  1  0  0  0  0
  9 11  1  0  0  0  0
  9 29  1  0  0  0  0
  7  8  1  0  0  0  0
  7  9  1  0  0  0  0
 33 34  1  0  0  0  0
 33 35  1  0  0  0  0
 33 36  1  0  0  0  0
 31 32  1  0  0  0  0
 31 33  1  0  0  0  0
M  END
$$$$
default_name
  -OEChem-02102213163D

 36 37  0     1  0  0  0  0  0999 V2000
   -4.0843   -4.0736    1.2944 H   0  0  0  0  0  0  0  0  0  0  0  0
   -4.0342   -3.2816    0.5484 C   0  0  0  0  0  0  0  0  0  0  0  0
   -4.8842   -2.6126    0.6694 H   0  0  0  0  0  0  0  0  0  0  0  0
   -4.0433   -3.7186   -0.4486 H   0  0  0  0  0  0  0  0  0  0  0  0
   -2.7532   -2.5046    0.7444 C   0  0  0  0  0  0  0  0  0  0  0  0
   -1.9803   -2.8096    1.6434 O   0  0  0  0  0  0  0  0  0  0  0  0
   -2.5332   -1.4966   -0.0966 N   0  0  0  0  0  0  0  0  0  0  0  0
   -3.2312   -1.2816   -0.7936 H   0  0  0  0  0  0  0  0  0  0  0  0
   -1.3593   -0.6196   -0.0536 C   0  0  1  0  0  0  0  0  0  0  0  0
   -0.8788   -0.7266    0.9196 H   0  0  0  0  0  0  0  0  0  0  0  0
   -0.3559   -1.0533   -1.1339 C   0  0  0  0  0  0  0  0  0  0  0  0
   -0.5627   -0.4966   -2.0497 H   0  0  0  0  0  0  0  0  0  0  0  0
    0.6486   -0.7836   -0.8032 H   0  0  0  0  0  0  0  0  0  0  0  0
   -0.3701   -2.5145   -1.4666 C   0  0  0  0  0  0  0  0  0  0  0  0
   -1.4767   -3.2647   -1.6675 C   0  0  0  0  0  0  0  0  0  0  0  0
   -2.4940   -2.8965   -1.5920 H   0  0  0  0  0  0  0  0  0  0  0  0
   -1.1095   -4.5538   -2.0004 N   0  0  0  0  0  0  0  0  0  0  0  0
   -1.7730   -5.2904   -2.1910 H   0  0  0  0  0  0  0  0  0  0  0  0
    0.2611   -4.6951   -2.0471 C   0  0  0  0  0  0  0  0  0  0  0  0
    1.1033   -5.7724   -2.3577 C   0  0  0  0  0  0  0  0  0  0  0  0
    0.6876   -6.7334   -2.6228 H   0  0  0  0  0  0  0  0  0  0  0  0
    2.4954   -5.5846   -2.3173 C   0  0  0  0  0  0  0  0  0  0  0  0
    3.1605   -6.4044   -2.5528 H   0  0  0  0  0  0  0  0  0  0  0  0
    3.0234   -4.3295   -1.9634 C   0  0  0  0  0  0  0  0  0  0  0  0
    4.0951   -4.1917   -1.9255 H   0  0  0  0  0  0  0  0  0  0  0  0
    2.1675   -3.2542   -1.6513 C   0  0  0  0  0  0  0  0  0  0  0  0
    2.5863   -2.2990   -1.3681 H   0  0  0  0  0  0  0  0  0  0  0  0
    0.7647   -3.4089   -1.6886 C   0  0  0  0  0  0  0  0  0  0  0  0
   -1.7617    0.8549   -0.2106 C   0  0  0  0  0  0  0  0  0  0  0  0
   -2.5726    1.1871   -1.0741 O   0  0  0  0  0  0  0  0  0  0  0  0
   -1.1941    1.7377    0.6223 N   0  0  0  0  0  0  0  0  0  0  0  0
   -0.4976    1.3916    1.2669 H   0  0  0  0  0  0  0  0  0  0  0  0
   -1.4666    3.1722    0.6095 C   0  0  0  0  0  0  0  0  0  0  0  0
   -2.5439    3.3427    0.6539 H   0  0  0  0  0  0  0  0  0  0  0  0
   -0.9893    3.6529    1.4644 H   0  0  0  0  0  0  0  0  0  0  0  0
   -1.0808    3.6095   -0.3129 H   0  0  0  0  0  0  0  0  0  0  0  0
  5  6  2  0  0  0  0
  5  7  1  0  0  0  0
  2  3  1  0  0  0  0
  2  4  1  0  0  0  0
  2  5  1  0  0  0  0
  1  2  1  0  0  0  0
 29 30  2  0  0  0  0
 29 31  1  0  0  0  0
 26 27  1  0  0  0  0
 26 28  2  0  0  0  0
 24 25  1  0  0  0  0
 24 26  1  0  0  0  0
 22 23  1  0  0  0  0
 22 24  2  0  0  0  0
 20 21  1  0  0  0  0
 20 22  1  0  0  0  0
 19 20  2  0  0  0  0
 19 28  1  0  0  0  0
 17 18  1  0  0  0  0
 17 19  1  0  0  0  0
 15 16  1  0  0  0  0
 15 17  1  0  0  0  0
 14 15  2  0  0  0  0
 14 28  1  0  0  0  0
 11 12  1  0  0  0  0
 11 13  1  0  0  0  0
 11 14  1  0  0  0  0
  9 10  1  0  0  0  0
  9 11  1  0  0  0  0
  9 29  1  0  0  0  0
  7  8  1  0  0  0  0
  7  9  1  0  0  0  0
 33 34  1  0  0  0  0
 33 35  1  0  0  0  0
 33 36  1  0  0  0  0
 31 32  1  0  0  0  0
 31 33  1  0  0  0  0
M  END
$$$$
default_name
  -OEChem-02102213163D

 36 37  0     1  0  0  0  0  0999 V2000
   -4.0843   -4.0736    1.2944 H   0  0  0  0  0  0  0  0  0  0  0  0
   -4.0342   -3.2816    0.5484 C   0  0  0  0  0  0  0  0  0  0  0  0
   -4.8842   -2.6126    0.6694 H   0  0  0  0  0  0  0  0  0  0  0  0
   -4.0433   -3.7186   -0.4486 H   0  0  0  0  0  0  0  0  0  0  0  0
   -2.7532   -2.5046    0.7444 C   0  0  0  0  0  0  0  0  0  0  0  0
   -1.9803   -2.8096    1.6434 O   0  0  0  0  0  0  0  0  0  0  0  0
   -2.5332   -1.4966   -0.0966 N   0  0  0  0  0  0  0  0  0  0  0  0
   -3.2312   -1.2816   -0.7936 H   0  0  0  0  0  0  0  0  0  0  0  0
   -1.3593   -0.6196   -0.0536 C   0  0  1  0  0  0  0  0  0  0  0  0
   -0.8788   -0.7266    0.9196 H   0  0  0  0  0  0  0  0  0  0  0  0
   -0.3559   -1.0533   -1.1339 C   0  0  0  0  0  0  0  0  0  0  0  0
   -0.5627   -0.4966   -2.0497 H   0  0  0  0  0  0  0  0  0  0  0  0
    0.6486   -0.7836   -0.8032 H   0  0  0  0  0  0  0  0  0  0  0  0
   -0.3701   -2.5145   -1.4666 C   0  0  0  0  0  0  0  0  0  0  0  0
   -1.4317   -3.2022   -1.9440 C   0  0  0  0  0  0  0  0  0  0  0  0
   -2.4121   -2.7758   -2.1260 H   0  0  0  0  0  0  0  0  0  0  0  0
   -1.0674   -4.5134   -2.1798 N   0  0  0  0  0  0  0  0  0  0  0  0
   -1.7029   -5.2127   -2.5353 H   0  0  0  0  0  0  0  0  0  0  0  0
    0.2601   -4.7332   -1.8797 C   0  0  0  0  0  0  0  0  0  0  0  0
    1.0897   -5.8599   -1.9729 C   0  0  0  0  0  0  0  0  0  0  0  0
    0.6995   -6.7982   -2.3391 H   0  0  0  0  0  0  0  0  0  0  0  0
    2.4350   -5.7516   -1.5815 C   0  0  0  0  0  0  0  0  0  0  0  0
    3.0895   -6.6103   -1.6455 H   0  0  0  0  0  0  0  0  0  0  0  0
    2.9283   -4.5252   -1.0997 C   0  0  0  0  0  0  0  0  0  0  0  0
    3.9619   -4.4485   -0.7918 H   0  0  0  0  0  0  0  0  0  0  0  0
    2.0849   -3.3998   -1.0084 C   0  0  0  0  0  0  0  0  0  0  0  0
    2.4731   -2.4673   -0.6239 H   0  0  0  0  0  0  0  0  0  0  0  0
    0.7304   -3.4744   -1.3994 C   0  0  0  0  0  0  0  0  0  0  0  0
   -1.7617    0.8549   -0.2106 C   0  0  0  0  0  0  0  0  0  0  0  0
   -2.5726    1.1871   -1.0741 O   0  0  0  0  0  0  0  0  0  0  0  0
   -1.1941    1.7377    0.6223 N   0  0  0  0  0  0  0  0  0  0  0  0
   -0.4976    1.3916    1.2669 H   0  0  0  0  0  0  0  0  0  0  0  0
   -1.4666    3.1722    0.6095 C   0  0  0  0  0  0  0  0  0  0  0  0
   -2.5439    3.3427    0.6539 H   0  0  0  0  0  0  0  0  0  0  0  0
   -0.9893    3.6529    1.4644 H   0  0  0  0  0  0  0  0  0  0  0  0
   -1.0808    3.6095   -0.3129 H   0  0  0  0  0  0  0  0  0  0  0  0
  5  6  2  0  0  0  0
  5  7  1  0  0  0  0
  2  3  1  0  0  0  0
  2  4  1  0  0  0  0
  2  5  1  0  0  0  0
  1  2  1  0  0  0  0
 29 30  2  0  0  0  0
 29 31  1  0  0  0  0
 26 27  1  0  0  0  0
 26 28  2  0  0  0  0
 24 25  1  0  0  0  0
 24 26  1  0  0  0  0
 22 23  1  0  0  0  0
 22 24  2  0  0  0  0
 20 21  1  0  0  0  0
 20 22  1  0  0  0  0
 19 20  2  0  0  0  0
 19 28  1  0  0  0  0
 17 18  1  0  0  0  0
 17 19  1  0  0  0  0
 15 16  1  0  0  0  0
 15 17  1  0  0  0  0
 14 15  2  0  0  0  0
 14 28  1  0  0  0  0
 11 12  1  0  0  0  0
 11 13  1  0  0  0  0
 11 14  1  0  0  0  0
  9 10  1  0  0  0  0
  9 11  1  0  0  0  0
  9 29  1  0  0  0  0
  7  8  1  0  0  0  0
  7  9  1  0  0  0  0
 33 34  1  0  0  0  0
 33 35  1  0  0  0  0
 33 36  1  0  0  0  0
 31 32  1  0  0  0  0
 31 33  1  0  0  0  0
M  END
$$$$
default_name
  -OEChem-02102213163D

 36 37  0     1  0  0  0  0  0999 V2000
   -4.0843   -4.0736    1.2944 H   0  0  0  0  0  0  0  0  0  0  0  0
   -4.0342   -3.2816    0.5484 C   0  0  0  0  0  0  0  0  0  0  0  0
   -4.8842   -2.6126    0.6694 H   0  0  0  0  0  0  0  0  0  0  0  0
   -4.0433   -3.7186   -0.4486 H   0  0  0  0  0  0  0  0  0  0  0  0
   -2.7532   -2.5046    0.7444 C   0  0  0  0  0  0  0  0  0  0  0  0
   -1.9803   -2.8096    1.6434 O   0  0  0  0  0  0  0  0  0  0  0  0
   -2.5332   -1.4966   -0.0966 N   0  0  0  0  0  0  0  0  0  0  0  0
   -3.2312   -1.2816   -0.7936 H   0  0  0  0  0  0  0  0  0  0  0  0
   -1.3593   -0.6196   -0.0536 C   0  0  1  0  0  0  0  0  0  0  0  0
   -0.8788   -0.7266    0.9196 H   0  0  0  0  0  0  0  0  0  0  0  0
   -0.3559   -1.0533   -1.1339 C   0  0  0  0  0  0  0  0  0  0  0  0
   -0.5627   -0.4966   -2.0497 H   0  0  0  0  0  0  0  0  0  0  0  0
    0.6486   -0.7836   -0.8032 H   0  0  0  0  0  0  0  0  0  0  0  0
   -0.3701   -2.5145   -1.4666 C   0  0  0  0  0  0  0  0  0  0  0  0
   -1.3148   -3.1451   -2.1999 C   0  0  0  0  0  0  0  0  0  0  0  0
   -2.1913   -2.6651   -2.6213 H   0  0  0  0  0  0  0  0  0  0  0  0
   -0.9792   -4.4772   -2.3425 N   0  0  0  0  0  0  0  0  0  0  0  0
   -1.5437   -5.1425   -2.8503 H   0  0  0  0  0  0  0  0  0  0  0  0
    0.2147   -4.7695   -1.7181 C   0  0  0  0  0  0  0  0  0  0  0  0
    0.9744   -5.9427   -1.6044 C   0  0  0  0  0  0  0  0  0  0  0  0
    0.6357   -6.8607   -2.0619 H   0  0  0  0  0  0  0  0  0  0  0  0
    2.1814   -5.9075   -0.8856 C   0  0  0  0  0  0  0  0  0  0  0  0
    2.7802   -6.8029   -0.7865 H   0  0  0  0  0  0  0  0  0  0  0  0
    2.6071   -4.7067   -0.2888 C   0  0  0  0  0  0  0  0  0  0  0  0
    3.5323   -4.6861    0.2704 H   0  0  0  0  0  0  0  0  0  0  0  0
    1.8345   -3.5341   -0.4079 C   0  0  0  0  0  0  0  0  0  0  0  0
    2.1664   -2.6216    0.0667 H   0  0  0  0  0  0  0  0  0  0  0  0
    0.6205   -3.5350   -1.1284 C   0  0  0  0  0  0  0  0  0  0  0  0
   -1.7617    0.8549   -0.2106 C   0  0  0  0  0  0  0  0  0  0  0  0
   -2.5726    1.1871   -1.0741 O   0  0  0  0  0  0  0  0  0  0  0  0
   -1.1941    1.7377    0.6223 N   0  0  0  0  0  0  0  0  0  0  0  0
   -0.4976    1.3916    1.2669 H   0  0  0  0  0  0  0  0  0  0  0  0
   -1.4666    3.1722    0.6095 C   0  0  0  0  0  0  0  0  0  0  0  0
   -2.5439    3.3427    0.6539 H   0  0  0  0  0  0  0  0  0  0  0  0
   -0.9893    3.6529    1.4644 H   0  0  0  0  0  0  0  0  0  0  0  0
   -1.0808    3.6095   -0.3129 H   0  0  0  0  0  0  0  0  0  0  0  0
  5  6  2  0  0  0  0
  5  7  1  0  0  0  0
  2  3  1  0  0  0  0
  2  4  1  0  0  0  0
  2  5  1  0  0  0  0
  1  2  1  0  0  0  0
 29 30  2  0  0  0  0
 29 31  1  0  0  0  0
 26 27  1  0  0  0  0
 26 28  2  0  0  0  0
 24 25  1  0  0  0  0
 24 26  1  0  0  0  0
 22 23  1  0  0  0  0
 22 24  2  0  0  0  0
 20 21  1  0  0  0  0
 20 22  1  0  0  0  0
 19 20  2  0  0  0  0
 19 28  1  0  0  0  0
 17 18  1  0  0  0  0
 17 19  1  0  0  0  0
 15 16  1  0  0  0  0
 15 17  1  0  0  0  0
 14 15  2  0  0  0  0
 14 28  1  0  0  0  0
 11 12  1  0  0  0  0
 11 13  1  0  0  0  0
 11 14  1  0  0  0  0
  9 10  1  0  0  0  0
  9 11  1  0  0  0  0
  9 29  1  0  0  0  0
  7  8  1  0  0  0  0
  7  9  1  0  0  0  0
 33 34  1  0  0  0  0
 33 35  1  0  0  0  0
 33 36  1  0  0  0  0
 31 32  1  0  0  0  0
 31 33  1  0  0  0  0
M  END
$$$$
default_name
  -OEChem-02102213163D

 36 37  0     1  0  0  0  0  0999 V2000
   -4.0843   -4.0736    1.2944 H   0  0  0  0  0  0  0  0  0  0  0  0
   -4.0342   -3.2816    0.5484 C   0  0  0  0  0  0  0  0  0  0  0  0
   -4.8842   -2.6126    0.6694 H   0  0  0  0  0  0  0  0  0  0  0  0
   -4.0433   -3.7186   -0.4486 H   0  0  0  0  0  0  0  0  0  0  0  0
   -2.7532   -2.5046    0.7444 C   0  0  0  0  0  0  0  0  0  0  0  0
   -1.9803   -2.8096    1.6434 O   0  0  0  0  0  0  0  0  0  0  0  0
   -2.5332   -1.4966   -0.0966 N   0  0  0  0  0  0  0  0  0  0  0  0
   -3.2312   -1.2816   -0.7936 H   0  0  0  0  0  0  0  0  0  0  0  0
   -1.3593   -0.6196   -0.0536 C   0  0  1  0  0  0  0  0  0  0  0  0
   -0.8788   -0.7266    0.9196 H   0  0  0  0  0  0  0  0  0  0  0  0
   -0.3559   -1.0533   -1.1339 C   0  0  0  0  0  0  0  0  0  0  0  0
   -0.5627   -0.4966   -2.0497 H   0  0  0  0  0  0  0  0  0  0  0  0
    0.6486   -0.7836   -0.8032 H   0  0  0  0  0  0  0  0  0  0  0  0
   -0.3701   -2.5145   -1.4666 C   0  0  0  0  0  0  0  0  0  0  0  0
   -1.1340   -3.0972   -2.4177 C   0  0  0  0  0  0  0  0  0  0  0  0
   -1.8466   -2.5722   -3.0443 H   0  0  0  0  0  0  0  0  0  0  0  0
   -0.8509   -4.4477   -2.4775 N   0  0  0  0  0  0  0  0  0  0  0  0
   -1.3065   -5.0846   -3.1146 H   0  0  0  0  0  0  0  0  0  0  0  0
    0.1279   -4.8016   -1.5734 C   0  0  0  0  0  0  0  0  0  0  0  0
    0.7653   -6.0151   -1.2774 C   0  0  0  0  0  0  0  0  0  0  0  0
    0.5005   -6.9167   -1.8100 H   0  0  0  0  0  0  0  0  0  0  0  0
    1.7519   -6.0419   -0.2770 C   0  0  0  0  0  0  0  0  0  0  0  0
    2.2535   -6.9690   -0.0344 H   0  0  0  0  0  0  0  0  0  0  0  0
    2.0819   -4.8615    0.4138 C   0  0  0  0  0  0  0  0  0  0  0  0
    2.8357   -4.8884    1.1885 H   0  0  0  0  0  0  0  0  0  0  0  0
    1.4334   -3.6479    0.1093 C   0  0  0  0  0  0  0  0  0  0  0  0
    1.6870   -2.7512    0.6568 H   0  0  0  0  0  0  0  0  0  0  0  0
    0.4425   -3.5866   -0.8944 C   0  0  0  0  0  0  0  0  0  0  0  0
   -1.7617    0.8549   -0.2106 C   0  0  0  0  0  0  0  0  0  0  0  0
   -2.5726    1.1871   -1.0741 O   0  0  0  0  0  0  0  0  0  0  0  0
   -1.1941    1.7377    0.6223 N   0  0  0  0  0  0  0  0  0  0  0  0
   -0.4976    1.3916    1.2669 H   0  0  0  0  0  0  0  0  0  0  0  0
   -1.4666    3.1722    0.6095 C   0  0  0  0  0  0  0  0  0  0  0  0
   -2.5439    3.3427    0.6539 H   0  0  0  0  0  0  0  0  0  0  0  0
   -0.9893    3.6529    1.4644 H   0  0  0  0  0  0  0  0  0  0  0  0
   -1.0808    3.6095   -0.3129 H   0  0  0  0  0  0  0  0  0  0  0  0
  5  6  2  0  0  0  0
  5  7  1  0  0  0  0
  2  3  1  0  0  0  0
  2  4  1  0  0  0  0
  2  5  1  0  0  0  0
  1  2  1  0  0  0  0
 29 30  2  0  0  0  0
 29 31  1  0  0  0  0
 26 27  1  0  0  0  0
 26 28  2  0  0  0  0
 24 25  1  0  0  0  0
 24 26  1  0  0  0  0
 22 23  1  0  0  0  0
 22 24  2  0  0  0  0
 20 21  1  0  0  0  0
 20 22  1  0  0  0  0
 19 20  2  0  0  0  0
 19 28  1  0  0  0  0
 17 18  1  0  0  0  0
 17 19  1  0  0  0  0
 15 16  1  0  0  0  0
 15 17  1  0  0  0  0
 14 15  2  0  0  0  0
 14 28  1  0  0  0  0
 11 12  1  0  0  0  0
 11 13  1  0  0  0  0
 11 14  1  0  0  0  0
  9 10  1  0  0  0  0
  9 11  1  0  0  0  0
  9 29  1  0  0  0  0
  7  8  1  0  0  0  0
  7  9  1  0  0  0  0
 33 34  1  0  0  0  0
 33 35  1  0  0  0  0
 33 36  1  0  0  0  0
 31 32  1  0  0  0  0
 31 33  1  0  0  0  0
M  END
$$$$
default_name
  -OEChem-02102213163D

 36 37  0     1  0  0  0  0  0999 V2000
   -4.0843   -4.0736    1.2944 H   0  0  0  0  0  0  0  0  0  0  0  0
   -4.0342   -3.2816    0.5484 C   0  0  0  0  0  0  0  0  0  0  0  0
   -4.8842   -2.6126    0.6694 H   0  0  0  0  0  0  0  0  0  0  0  0
   -4.0433   -3.7186   -0.4486 H   0  0  0  0  0  0  0  0  0  0  0  0
   -2.7532   -2.5046    0.7444 C   0  0  0  0  0  0  0  0  0  0  0  0
   -1.9803   -2.8096    1.6434 O   0  0  0  0  0  0  0  0  0  0  0  0
   -2.5332   -1.4966   -0.0966 N   0  0  0  0  0  0  0  0  0  0  0  0
   -3.2312   -1.2816   -0.7936 H   0  0  0  0  0  0  0  0  0  0  0  0
   -1.3593   -0.6196   -0.0536 C   0  0  1  0  0  0  0  0  0  0  0  0
   -0.8788   -0.7266    0.9196 H   0  0  0  0  0  0  0  0  0  0  0  0
   -0.3559   -1.0533   -1.1339 C   0  0  0  0  0  0  0  0  0  0  0  0
   -0.5627   -0.4966   -2.0497 H   0  0  0  0  0  0  0  0  0  0  0  0
    0.6486   -0.7836   -0.8032 H   0  0  0  0  0  0  0  0  0  0  0  0
   -0.3701   -2.5145   -1.4666 C   0  0  0  0  0  0  0  0  0  0  0  0
   -0.9017   -3.0620   -2.5826 C   0  0  0  0  0  0  0  0  0  0  0  0
   -1.4016   -2.5033   -3.3662 H   0  0  0  0  0  0  0  0  0  0  0  0
   -0.6912   -4.4269   -2.5756 N   0  0  0  0  0  0  0  0  0  0  0  0
   -1.0073   -5.0430   -3.3102 H   0  0  0  0  0  0  0  0  0  0  0  0
    0.0057   -4.8273   -1.4554 C   0  0  0  0  0  0  0  0  0  0  0  0
    0.4766   -6.0722   -1.0141 C   0  0  0  0  0  0  0  0  0  0  0  0
    0.3031   -6.9624   -1.6008 H   0  0  0  0  0  0  0  0  0  0  0  0
    1.1757   -6.1455    0.2028 C   0  0  0  0  0  0  0  0  0  0  0  0
    1.5454   -7.0973    0.5596 H   0  0  0  0  0  0  0  0  0  0  0  0
    1.3884   -4.9792    0.9603 C   0  0  0  0  0  0  0  0  0  0  0  0
    1.9195   -5.0415    1.9001 H   0  0  0  0  0  0  0  0  0  0  0  0
    0.9089   -3.7335    0.5079 C   0  0  0  0  0  0  0  0  0  0  0  0
    1.0675   -2.8475    1.1061 H   0  0  0  0  0  0  0  0  0  0  0  0
    0.2085   -3.6256   -0.7130 C   0  0  0  0  0  0  0  0  0  0  0  0
   -1.7617    0.8549   -0.2106 C   0  0  0  0  0  0  0  0  0  0  0  0
   -2.5726    1.1871   -1.0741 O   0  0  0  0  0  0  0  0  0  0  0  0
   -1.1941    1.7377    0.6223 N   0  0  0  0  0  0  0  0  0  0  0  0
   -0.4976    1.3916    1.2669 H   0  0  0  0  0  0  0  0  0  0  0  0
   -1.4666    3.1722    0.6095 C   0  0  0  0  0  0  0  0  0  0  0  0
   -2.5439    3.3427    0.6539 H   0  0  0  0  0  0  0  0  0  0  0  0
   -0.9893    3.6529    1.4644 H   0  0  0  0  0  0  0  0  0  0  0  0
   -1.0808    3.6095   -0.3129 H   0  0  0  0  0  0  0  0  0  0  0  0
  5  6  2  0  0  0  0
  5  7  1  0  0  0  0
  2  3  1  0  0  0  0
  2  4  1  0  0  0  0
  2  5  1  0  0  0  0
  1  2  1  0  0  0  0
 29 30  2  0  0  0  0
 29 31  1  0  0  0  0
 26 27  1  0  0  0  0
 26 28  2  0  0  0  0
 24 25  1  0  0  0  0
 24 26  1  0  0  0  0
 22 23  1  0  0  0  0
 22 24  2  0  0  0  0
 20 21  1  0  0  0  0
 20 22  1  0  0  0  0
 19 20  2  0  0  0  0
 19 28  1  0  0  0  0
 17 18  1  0  0  0  0
 17 19  1  0  0  0  0
 15 16  1  0  0  0  0
 15 17  1  0  0  0  0
 14 15  2  0  0  0  0
 14 28  1  0  0  0  0
 11 12  1  0  0  0  0
 11 13  1  0  0  0  0
 11 14  1  0  0  0  0
  9 10  1  0  0  0  0
  9 11  1  0  0  0  0
  9 29  1  0  0  0  0
  7  8  1  0  0  0  0
  7  9  1  0  0  0  0
 33 34  1  0  0  0  0
 33 35  1  0  0  0  0
 33 36  1  0  0  0  0
 31 32  1  0  0  0  0
 31 33  1  0  0  0  0
M  END
$$$$
default_name
  -OEChem-02102213163D

 36 37  0     1  0  0  0  0  0999 V2000
   -4.0843   -4.0736    1.2944 H   0  0  0  0  0  0  0  0  0  0  0  0
   -4.0342   -3.2816    0.5484 C   0  0  0  0  0  0  0  0  0  0  0  0
   -4.8842   -2.6126    0.6694 H   0  0  0  0  0  0  0  0  0  0  0  0
   -4.0433   -3.7186   -0.4486 H   0  0  0  0  0  0  0  0  0  0  0  0
   -2.7532   -2.5046    0.7444 C   0  0  0  0  0  0  0  0  0  0  0  0
   -1.9803   -2.8096    1.6434 O   0  0  0  0  0  0  0  0  0  0  0  0
   -2.5332   -1.4966   -0.0966 N   0  0  0  0  0  0  0  0  0  0  0  0
   -3.2312   -1.2816   -0.7936 H   0  0  0  0  0  0  0  0  0  0  0  0
   -1.3593   -0.6196   -0.0536 C   0  0  1  0  0  0  0  0  0  0  0  0
   -0.8788   -0.7266    0.9196 H   0  0  0  0  0  0  0  0  0  0  0  0
   -0.3559   -1.0533   -1.1339 C   0  0  0  0  0  0  0  0  0  0  0  0
   -0.5627   -0.4966   -2.0497 H   0  0  0  0  0  0  0  0  0  0  0  0
    0.6486   -0.7836   -0.8032 H   0  0  0  0  0  0  0  0  0  0  0  0
   -0.3701   -2.5145   -1.4666 C   0  0  0  0  0  0  0  0  0  0  0  0
   -0.6337   -3.0417   -2.6833 C   0  0  0  0  0  0  0  0  0  0  0  0
   -0.8866   -2.4630   -3.5650 H   0  0  0  0  0  0  0  0  0  0  0  0
   -0.5109   -4.4163   -2.6301 N   0  0  0  0  0  0  0  0  0  0  0  0
   -0.6666   -5.0205   -3.4237 H   0  0  0  0  0  0  0  0  0  0  0  0
   -0.1435   -4.8448   -1.3723 C   0  0  0  0  0  0  0  0  0  0  0  0
    0.1281   -6.1102   -0.8325 C   0  0  0  0  0  0  0  0  0  0  0  0
    0.0571   -6.9947   -1.4483 H   0  0  0  0  0  0  0  0  0  0  0  0
    0.4921   -6.2113    0.5211 C   0  0  0  0  0  0  0  0  0  0  0  0
    0.7043   -7.1791    0.9550 H   0  0  0  0  0  0  0  0  0  0  0  0
    0.5739   -5.0517    1.3135 C   0  0  0  0  0  0  0  0  0  0  0  0
    0.8462   -5.1349    2.3565 H   0  0  0  0  0  0  0  0  0  0  0  0
    0.2968   -3.7851    0.7609 C   0  0  0  0  0  0  0  0  0  0  0  0
    0.3503   -2.9038    1.3840 H   0  0  0  0  0  0  0  0  0  0  0  0
   -0.0655   -3.6493   -0.5968 C   0  0  0  0  0  0  0  0  0  0  0  0
   -1.7617    0.8549   -0.2106 C   0  0  0  0  0  0  0  0  0  0  0  0
   -2.5726    1.1871   -1.0741 O   0  0  0  0  0  0  0  0  0  0  0  0
   -1.1941    1.7377    0.6223 N   0  0  0  0  0  0  0  0  0  0  0  0
   -0.4976    1.3916    1.2669 H   0  0  0  0  0  0  0  0  0  0  0  0
   -1.4666    3.1722    0.6095 C   0  0  0  0  0  0  0  0  0  0  0  0
   -2.5439    3.3427    0.6539 H   0  0  0  0  0  0  0  0  0  0  0  0
   -0.9893    3.6529    1.4644 H   0  0  0  0  0  0  0  0  0  0  0  0
   -1.0808    3.6095   -0.3129 H   0  0  0  0  0  0  0  0  0  0  0  0
  5  6  2  0  0  0  0
  5  7  1  0  0  0  0
  2  3  1  0  0  0  0
  2  4  1  0  0  0  0
  2  5  1  0  0  0  0
  1  2  1  0  0  0  0
 29 30  2  0  0  0  0
 29 31  1  0  0  0  0
 26 27  1  0  0  0  0
 26 28  2  0  0  0  0
 24 25  1  0  0  0  0
 24 26  1  0  0  0  0
 22 23  1  0  0  0  0
 22 24  2  0  0  0  0
 20 21  1  0  0  0  0
 20 22  1  0  0  0  0
 19 20  2  0  0  0  0
 19 28  1  0  0  0  0
 17 18  1  0  0  0  0
 17 19  1  0  0  0  0
 15 16  1  0  0  0  0
 15 17  1  0  0  0  0
 14 15  2  0  0  0  0
 14 28  1  0  0  0  0
 11 12  1  0  0  0  0
 11 13  1  0  0  0  0
 11 14  1  0  0  0  0
  9 10  1  0  0  0  0
  9 11  1  0  0  0  0
  9 29  1  0  0  0  0
  7  8  1  0  0  0  0
  7  9  1  0  0  0  0
 33 34  1  0  0  0  0
 33 35  1  0  0  0  0
 33 36  1  0  0  0  0
 31 32  1  0  0  0  0
 31 33  1  0  0  0  0
M  END
$$$$
default_name
  -OEChem-02102213163D

 36 37  0     1  0  0  0  0  0999 V2000
   -4.0843   -4.0736    1.2944 H   0  0  0  0  0  0  0  0  0  0  0  0
   -4.0342   -3.2816    0.5484 C   0  0  0  0  0  0  0  0  0  0  0  0
   -4.8842   -2.6126    0.6694 H   0  0  0  0  0  0  0  0  0  0  0  0
   -4.0433   -3.7186   -0.4486 H   0  0  0  0  0  0  0  0  0  0  0  0
   -2.7532   -2.5046    0.7444 C   0  0  0  0  0  0  0  0  0  0  0  0
   -1.9803   -2.8096    1.6434 O   0  0  0  0  0  0  0  0  0  0  0  0
   -2.5332   -1.4966   -0.0966 N   0  0  0  0  0  0  0  0  0  0  0  0
   -3.2312   -1.2816   -0.7936 H   0  0  0  0  0  0  0  0  0  0  0  0
   -1.3593   -0.6196   -0.0536 C   0  0  1  0  0  0  0  0  0  0  0  0
   -0.8788   -0.7266    0.9196 H   0  0  0  0  0  0  0  0  0  0  0  0
   -0.3559   -1.0533   -1.1339 C   0  0  0  0  0  0  0  0  0  0  0  0
   -0.5627   -0.4966   -2.0497 H   0  0  0  0  0  0  0  0  0  0  0  0
    0.6486   -0.7836   -0.8032 H   0  0  0  0  0  0  0  0  0  0  0  0
   -0.3701   -2.5145   -1.4666 C   0  0  0  0  0  0  0  0  0  0  0  0
   -0.3482   -3.0377   -2.7130 C   0  0  0  0  0  0  0  0  0  0  0  0
   -0.3366   -2.4543   -3.6271 H   0  0  0  0  0  0  0  0  0  0  0  0
   -0.3225   -4.4165   -2.6373 N   0  0  0  0  0  0  0  0  0  0  0  0
   -0.3075   -5.0186   -3.4475 H   0  0  0  0  0  0  0  0  0  0  0  0
   -0.3096   -4.8529   -1.3296 C   0  0  0  0  0  0  0  0  0  0  0  0
   -0.2566   -6.1264   -0.7449 C   0  0  0  0  0  0  0  0  0  0  0  0
   -0.2209   -7.0114   -1.3630 H   0  0  0  0  0  0  0  0  0  0  0  0
   -0.2523   -6.2348    0.6562 C   0  0  0  0  0  0  0  0  0  0  0  0
   -0.2128   -7.2088    1.1249 H   0  0  0  0  0  0  0  0  0  0  0  0
   -0.3062   -5.0740    1.4493 C   0  0  0  0  0  0  0  0  0  0  0  0
   -0.3111   -5.1624    2.5269 H   0  0  0  0  0  0  0  0  0  0  0  0
   -0.3613   -3.7992    0.8508 C   0  0  0  0  0  0  0  0  0  0  0  0
   -0.4159   -2.9162    1.4716 H   0  0  0  0  0  0  0  0  0  0  0  0
   -0.3609   -3.6563   -0.5537 C   0  0  0  0  0  0  0  0  0  0  0  0
   -1.7617    0.8549   -0.2106 C   0  0  0  0  0  0  0  0  0  0  0  0
   -2.5726    1.1871   -1.0741 O   0  0  0  0  0  0  0  0  0  0  0  0
   -1.1941    1.7377    0.6223 N   0  0  0  0  0  0  0  0  0  0  0  0
   -0.4976    1.3916    1.2669 H   0  0  0  0  0  0  0  0  0  0  0  0
   -1.4666    3.1722    0.6095 C   0  0  0  0  0  0  0  0  0  0  0  0
   -2.5439    3.3427    0.6539 H   0  0  0  0  0  0  0  0  0  0  0  0
   -0.9893    3.6529    1.4644 H   0  0  0  0  0  0  0  0  0  0  0  0
   -1.0808    3.6095   -0.3129 H   0  0  0  0  0  0  0  0  0  0  0  0
  5  6  2  0  0  0  0
  5  7  1  0  0  0  0
  2  3  1  0  0  0  0
  2  4  1  0  0  0  0
  2  5  1  0  0  0  0
  1  2  1  0  0  0  0
 29 30  2  0  0  0  0
 29 31  1  0  0  0  0
 26 27  1  0  0  0  0
 26 28  2  0  0  0  0
 24 25  1  0  0  0  0
 24 26  1  0  0  0  0
 22 23  1  0  0  0  0
 22 24  2  0  0  0  0
 20 21  1  0  0  0  0
 20 22  1  0  0  0  0
 19 20  2  0  0  0  0
 19 28  1  0  0  0  0
 17 18  1  0  0  0  0
 17 19  1  0  0  0  0
 15 16  1  0  0  0  0
 15 17  1  0  0  0  0
 14 15  2  0  0  0  0
 14 28  1  0  0  0  0
 11 12  1  0  0  0  0
 11 13  1  0  0  0  0
 11 14  1  0  0  0  0
  9 10  1  0  0  0  0
  9 11  1  0  0  0  0
  9 29  1  0  0  0  0
  7  8  1  0  0  0  0
  7  9  1  0  0  0  0
 33 34  1  0  0  0  0
 33 35  1  0  0  0  0
 33 36  1  0  0  0  0
 31 32  1  0  0  0  0
 31 33  1  0  0  0  0
M  END
$$$$
default_name
  -OEChem-02102213163D

 36 37  0     1  0  0  0  0  0999 V2000
   -4.0843   -4.0736    1.2944 H   0  0  0  0  0  0  0  0  0  0  0  0
   -4.0342   -3.2816    0.5484 C   0  0  0  0  0  0  0  0  0  0  0  0
   -4.8842   -2.6126    0.6694 H   0  0  0  0  0  0  0  0  0  0  0  0
   -4.0433   -3.7186   -0.4486 H   0  0  0  0  0  0  0  0  0  0  0  0
   -2.7532   -2.5046    0.7444 C   0  0  0  0  0  0  0  0  0  0  0  0
   -1.9803   -2.8096    1.6434 O   0  0  0  0  0  0  0  0  0  0  0  0
   -2.5332   -1.4966   -0.0966 N   0  0  0  0  0  0  0  0  0  0  0  0
   -3.2312   -1.2816   -0.7936 H   0  0  0  0  0  0  0  0  0  0  0  0
   -1.3593   -0.6196   -0.0536 C   0  0  1  0  0  0  0  0  0  0  0  0
   -0.8788   -0.7266    0.9196 H   0  0  0  0  0  0  0  0  0  0  0  0
   -0.3559   -1.0533   -1.1339 C   0  0  0  0  0  0  0  0  0  0  0  0
   -0.5627   -0.4966   -2.0497 H   0  0  0  0  0  0  0  0  0  0  0  0
    0.6486   -0.7836   -0.8032 H   0  0  0  0  0  0  0  0  0  0  0  0
   -0.3701   -2.5145   -1.4666 C   0  0  0  0  0  0  0  0  0  0  0  0
   -0.0648   -3.0503   -2.6696 C   0  0  0  0  0  0  0  0  0  0  0  0
    0.2107   -2.4775   -3.5484 H   0  0  0  0  0  0  0  0  0  0  0  0
   -0.1387   -4.4275   -2.5967 N   0  0  0  0  0  0  0  0  0  0  0  0
    0.0454   -5.0375   -3.3798 H   0  0  0  0  0  0  0  0  0  0  0  0
   -0.4813   -4.8511   -1.3302 C   0  0  0  0  0  0  0  0  0  0  0  0
   -0.6512   -6.1197   -0.7574 C   0  0  0  0  0  0  0  0  0  0  0  0
   -0.5119   -7.0113   -1.3508 H   0  0  0  0  0  0  0  0  0  0  0  0
   -1.0068   -6.2144    0.5989 C   0  0  0  0  0  0  0  0  0  0  0  0
   -1.1431   -7.1844    1.0576 H   0  0  0  0  0  0  0  0  0  0  0  0
   -1.1919   -5.0446    1.3584 C   0  0  0  0  0  0  0  0  0  0  0  0
   -1.4736   -5.1220    2.3994 H   0  0  0  0  0  0  0  0  0  0  0  0
   -1.0204   -3.7747    0.7716 C   0  0  0  0  0  0  0  0  0  0  0  0
   -1.1788   -2.8840    1.3629 H   0  0  0  0  0  0  0  0  0  0  0  0
   -0.6574   -3.6459   -0.5865 C   0  0  0  0  0  0  0  0  0  0  0  0
   -1.7617    0.8549   -0.2106 C   0  0  0  0  0  0  0  0  0  0  0  0
   -2.5726    1.1871   -1.0741 O   0  0  0  0  0  0  0  0  0  0  0  0
   -1.1941    1.7377    0.6223 N   0  0  0  0  0  0  0  0  0  0  0  0
   -0.4976    1.3916    1.2669 H   0  0  0  0  0  0  0  0  0  0  0  0
   -1.4666    3.1722    0.6095 C   0  0  0  0  0  0  0  0  0  0  0  0
   -2.5439    3.3427    0.6539 H   0  0  0  0  0  0  0  0  0  0  0  0
   -0.9893    3.6529    1.4644 H   0  0  0  0  0  0  0  0  0  0  0  0
   -1.0808    3.6095   -0.3129 H   0  0  0  0  0  0  0  0  0  0  0  0
  5  6  2  0  0  0  0
  5  7  1  0  0  0  0
  2  3  1  0  0  0  0
  2  4  1  0  0  0  0
  2  5  1  0  0  0  0
  1  2  1  0  0  0  0
 29 30  2  0  0  0  0
 29 31  1  0  0  0  0
 26 27  1  0  0  0  0
 26 28  2  0  0  0  0
 24 25  1  0  0  0  0
 24 26  1  0  0  0  0
 22 23  1  0  0  0  0
 22 24  2  0  0  0  0
 20 21  1  0  0  0  0
 20 22  1  0  0  0  0
 19 20  2  0  0  0  0
 19 28  1  0  0  0  0
 17 18  1  0  0  0  0
 17 19  1  0  0  0  0
 15 16  1  0  0  0  0
 15 17  1  0  0  0  0
 14 15  2  0  0  0  0
 14 28  1  0  0  0  0
 11 12  1  0  0  0  0
 11 13  1  0  0  0  0
 11 14  1  0  0  0  0
  9 10  1  0  0  0  0
  9 11  1  0  0  0  0
  9 29  1  0  0  0  0
  7  8  1  0  0  0  0
  7  9  1  0  0  0  0
 33 34  1  0  0  0  0
 33 35  1  0  0  0  0
 33 36  1  0  0  0  0
 31 32  1  0  0  0  0
 31 33  1  0  0  0  0
M  END
$$$$
default_name
  -OEChem-02102213163D

 36 37  0     1  0  0  0  0  0999 V2000
   -4.0843   -4.0736    1.2944 H   0  0  0  0  0  0  0  0  0  0  0  0
   -4.0342   -3.2816    0.5484 C   0  0  0  0  0  0  0  0  0  0  0  0
   -4.8842   -2.6126    0.6694 H   0  0  0  0  0  0  0  0  0  0  0  0
   -4.0433   -3.7186   -0.4486 H   0  0  0  0  0  0  0  0  0  0  0  0
   -2.7532   -2.5046    0.7444 C   0  0  0  0  0  0  0  0  0  0  0  0
   -1.9803   -2.8096    1.6434 O   0  0  0  0  0  0  0  0  0  0  0  0
   -2.5332   -1.4966   -0.0966 N   0  0  0  0  0  0  0  0  0  0  0  0
   -3.2312   -1.2816   -0.7936 H   0  0  0  0  0  0  0  0  0  0  0  0
   -1.3593   -0.6196   -0.0536 C   0  0  1  0  0  0  0  0  0  0  0  0
   -0.8788   -0.7266    0.9196 H   0  0  0  0  0  0  0  0  0  0  0  0
   -0.3559   -1.0533   -1.1339 C   0  0  0  0  0  0  0  0  0  0  0  0
   -0.5627   -0.4966   -2.0497 H   0  0  0  0  0  0  0  0  0  0  0  0
    0.6486   -0.7836   -0.8032 H   0  0  0  0  0  0  0  0  0  0  0  0
   -0.3701   -2.5145   -1.4666 C   0  0  0  0  0  0  0  0  0  0  0  0
    0.1974   -3.0787   -2.5562 C   0  0  0  0  0  0  0  0  0  0  0  0
    0.7183   -2.5313   -3.3341 H   0  0  0  0  0  0  0  0  0  0  0  0
    0.0280   -4.4487   -2.5110 N   0  0  0  0  0  0  0  0  0  0  0  0
    0.3681   -5.0758   -3.2253 H   0  0  0  0  0  0  0  0  0  0  0  0
   -0.6470   -4.8394   -1.3742 C   0  0  0  0  0  0  0  0  0  0  0  0
   -1.0288   -6.0906   -0.8690 C   0  0  0  0  0  0  0  0  0  0  0  0
   -0.7961   -6.9945   -1.4124 H   0  0  0  0  0  0  0  0  0  0  0  0
   -1.7199   -6.1515    0.3532 C   0  0  0  0  0  0  0  0  0  0  0  0
   -2.0233   -7.1076    0.7578 H   0  0  0  0  0  0  0  0  0  0  0  0
   -2.0227   -4.9656    1.0470 C   0  0  0  0  0  0  0  0  0  0  0  0
   -2.5619   -5.0165    1.9828 H   0  0  0  0  0  0  0  0  0  0  0  0
   -1.6357   -3.7134    0.5288 C   0  0  0  0  0  0  0  0  0  0  0  0
   -1.8864   -2.8093    1.0653 H   0  0  0  0  0  0  0  0  0  0  0  0
   -0.9350   -3.6189   -0.6931 C   0  0  0  0  0  0  0  0  0  0  0  0
   -1.7617    0.8549   -0.2106 C   0  0  0  0  0  0  0  0  0  0  0  0
   -2.5726    1.1871   -1.0741 O   0  0  0  0  0  0  0  0  0  0  0  0
   -1.1941    1.7377    0.6223 N   0  0  0  0  0  0  0  0  0  0  0  0
   -0.4976    1.3916    1.2669 H   0  0  0  0  0  0  0  0  0  0  0  0
   -1.4666    3.1722    0.6095 C   0  0  0  0  0  0  0  0  0  0  0  0
   -2.5439    3.3427    0.6539 H   0  0  0  0  0  0  0  0  0  0  0  0
   -0.9893    3.6529    1.4644 H   0  0  0  0  0  0  0  0  0  0  0  0
   -1.0808    3.6095   -0.3129 H   0  0  0  0  0  0  0  0  0  0  0  0
  5  6  2  0  0  0  0
  5  7  1  0  0  0  0
  2  3  1  0  0  0  0
  2  4  1  0  0  0  0
  2  5  1  0  0  0  0
  1  2  1  0  0  0  0
 29 30  2  0  0  0  0
 29 31  1  0  0  0  0
 26 27  1  0  0  0  0
 26 28  2  0  0  0  0
 24 25  1  0  0  0  0
 24 26  1  0  0  0  0
 22 23  1  0  0  0  0
 22 24  2  0  0  0  0
 20 21  1  0  0  0  0
 20 22  1  0  0  0  0
 19 20  2  0  0  0  0
 19 28  1  0  0  0  0
 17 18  1  0  0  0  0
 17 19  1  0  0  0  0
 15 16  1  0  0  0  0
 15 17  1  0  0  0  0
 14 15  2  0  0  0  0
 14 28  1  0  0  0  0
 11 12  1  0  0  0  0
 11 13  1  0  0  0  0
 11 14  1  0  0  0  0
  9 10  1  0  0  0  0
  9 11  1  0  0  0  0
  9 29  1  0  0  0  0
  7  8  1  0  0  0  0
  7  9  1  0  0  0  0
 33 34  1  0  0  0  0
 33 35  1  0  0  0  0
 33 36  1  0  0  0  0
 31 32  1  0  0  0  0
 31 33  1  0  0  0  0
M  END
$$$$
default_name
  -OEChem-02102213163D

 36 37  0     1  0  0  0  0  0999 V2000
   -4.0843   -4.0736    1.2944 H   0  0  0  0  0  0  0  0  0  0  0  0
   -4.0342   -3.2816    0.5484 C   0  0  0  0  0  0  0  0  0  0  0  0
   -4.8842   -2.6126    0.6694 H   0  0  0  0  0  0  0  0  0  0  0  0
   -4.0433   -3.7186   -0.4486 H   0  0  0  0  0  0  0  0  0  0  0  0
   -2.7532   -2.5046    0.7444 C   0  0  0  0  0  0  0  0  0  0  0  0
   -1.9803   -2.8096    1.6434 O   0  0  0  0  0  0  0  0  0  0  0  0
   -2.5332   -1.4966   -0.0966 N   0  0  0  0  0  0  0  0  0  0  0  0
   -3.2312   -1.2816   -0.7936 H   0  0  0  0  0  0  0  0  0  0  0  0
   -1.3593   -0.6196   -0.0536 C   0  0  1  0  0  0  0  0  0  0  0  0
   -0.8788   -0.7266    0.9196 H   0  0  0  0  0  0  0  0  0  0  0  0
   -0.3559   -1.0533   -1.1339 C   0  0  0  0  0  0  0  0  0  0  0  0
   -0.3796   -0.3266   -1.9479 H   0  0  0  0  0  0  0  0  0  0  0  0
    0.6470   -1.0348   -0.7039 H   0  0  0  0  0  0  0  0  0  0  0  0
   -0.5970   -2.4120   -1.7185 C   0  0  0  0  0  0  0  0  0  0  0  0
    0.1525   -2.9999   -2.6777 C   0  0  0  0  0  0  0  0  0  0  0  0
    1.0135   -2.5441   -3.1542 H   0  0  0  0  0  0  0  0  0  0  0  0
   -0.3346   -4.2661   -2.9366 N   0  0  0  0  0  0  0  0  0  0  0  0
    0.0680   -4.8885   -3.6220 H   0  0  0  0  0  0  0  0  0  0  0  0
   -1.4192   -4.5654   -2.1398 C   0  0  0  0  0  0  0  0  0  0  0  0
   -2.2256   -5.7050   -2.0076 C   0  0  0  0  0  0  0  0  0  0  0  0
   -2.0420   -6.5789   -2.6151 H   0  0  0  0  0  0  0  0  0  0  0  0
   -3.2768   -5.6931   -1.0750 C   0  0  0  0  0  0  0  0  0  0  0  0
   -3.9099   -6.5626   -0.9600 H   0  0  0  0  0  0  0  0  0  0  0  0
   -3.5091   -4.5454   -0.2952 C   0  0  0  0  0  0  0  0  0  0  0  0
   -4.3242   -4.5376    0.4151 H   0  0  0  0  0  0  0  0  0  0  0  0
   -2.6935   -3.4049   -0.4380 C   0  0  0  0  0  0  0  0  0  0  0  0
   -2.8912   -2.5251    0.1578 H   0  0  0  0  0  0  0  0  0  0  0  0
   -1.6258   -3.3873   -1.3613 C   0  0  0  0  0  0  0  0  0  0  0  0
   -1.7617    0.8549   -0.2106 C   0  0  0  0  0  0  0  0  0  0  0  0
   -2.5726    1.1871   -1.0741 O   0  0  0  0  0  0  0  0  0  0  0  0
   -1.1941    1.7377    0.6223 N   0  0  0  0  0  0  0  0  0  0  0  0
   -0.4976    1.3916    1.2669 H   0  0  0  0  0  0  0  0  0  0  0  0
   -1.4666    3.1722    0.6095 C   0  0  0  0  0  0  0  0  0  0  0  0
   -2.5439    3.3427    0.6539 H   0  0  0  0  0  0  0  0  0  0  0  0
   -0.9893    3.6529    1.4644 H   0  0  0  0  0  0  0  0  0  0  0  0
   -1.0808    3.6095   -0.3129 H   0  0  0  0  0  0  0  0  0  0  0  0
  5  6  2  0  0  0  0
  5  7  1  0  0  0  0
  2  3  1  0  0  0  0
  2  4  1  0  0  0  0
  2  5  1  0  0  0  0
  1  2  1  0  0  0  0
 29 30  2  0  0  0  0
 29 31  1  0  0  0  0
 26 27  1  0  0  0  0
 26 28  2  0  0  0  0
 24 25  1  0  0  0  0
 24 26  1  0  0  0  0
 22 23  1  0  0  0  0
 22 24  2  0  0  0  0
 20 21  1  0  0  0  0
 20 22  1  0  0  0  0
 19 20  2  0  0  0  0
 19 28  1  0  0  0  0
 17 18  1  0  0  0  0
 17 19  1  0  0  0  0
 15 16  1  0  0  0  0
 15 17  1  0  0  0  0
 14 15  2  0  0  0  0
 14 28  1  0  0  0  0
 11 12  1  0  0  0  0
 11 13  1  0  0  0  0
 11 14  1  0  0  0  0
  9 10  1  0  0  0  0
  9 11  1  0  0  0  0
  9 29  1  0  0  0  0
  7  8  1  0  0  0  0
  7  9  1  0  0  0  0
 33 34  1  0  0  0  0
 33 35  1  0  0  0  0
 33 36  1  0  0  0  0
 31 32  1  0  0  0  0
 31 33  1  0  0  0  0
M  END
$$$$
default_name
  -OEChem-02102213163D

 36 37  0     1  0  0  0  0  0999 V2000
   -4.0843   -4.0736    1.2944 H   0  0  0  0  0  0  0  0  0  0  0  0
   -4.0342   -3.2816    0.5484 C   0  0  0  0  0  0  0  0  0  0  0  0
   -4.8842   -2.6126    0.6694 H   0  0  0  0  0  0  0  0  0  0  0  0
   -4.0433   -3.7186   -0.4486 H   0  0  0  0  0  0  0  0  0  0  0  0
   -2.7532   -2.5046    0.7444 C   0  0  0  0  0  0  0  0  0  0  0  0
   -1.9803   -2.8096    1.6434 O   0  0  0  0  0  0  0  0  0  0  0  0
   -2.5332   -1.4966   -0.0966 N   0  0  0  0  0  0  0  0  0  0  0  0
   -3.2312   -1.2816   -0.7936 H   0  0  0  0  0  0  0  0  0  0  0  0
   -1.3593   -0.6196   -0.0536 C   0  0  1  0  0  0  0  0  0  0  0  0
   -0.8788   -0.7266    0.9196 H   0  0  0  0  0  0  0  0  0  0  0  0
   -0.3559   -1.0533   -1.1339 C   0  0  0  0  0  0  0  0  0  0  0  0
   -0.3796   -0.3266   -1.9479 H   0  0  0  0  0  0  0  0  0  0  0  0
    0.6470   -1.0348   -0.7039 H   0  0  0  0  0  0  0  0  0  0  0  0
   -0.5970   -2.4120   -1.7185 C   0  0  0  0  0  0  0  0  0  0  0  0
    0.2884   -3.1198   -2.4552 C   0  0  0  0  0  0  0  0  0  0  0  0
    1.2799   -2.7749   -2.7274 H   0  0  0  0  0  0  0  0  0  0  0  0
   -0.2565   -4.3455   -2.7843 N   0  0  0  0  0  0  0  0  0  0  0  0
    0.2262   -5.0395   -3.3362 H   0  0  0  0  0  0  0  0  0  0  0  0
   -1.5220   -4.4960   -2.2586 C   0  0  0  0  0  0  0  0  0  0  0  0
   -2.4531   -5.5442   -2.2874 C   0  0  0  0  0  0  0  0  0  0  0  0
   -2.2269   -6.4631   -2.8080 H   0  0  0  0  0  0  0  0  0  0  0  0
   -3.6850   -5.3814   -1.6310 C   0  0  0  0  0  0  0  0  0  0  0  0
   -4.4159   -6.1787   -1.6435 H   0  0  0  0  0  0  0  0  0  0  0  0
   -3.9694   -4.1765   -0.9628 C   0  0  0  0  0  0  0  0  0  0  0  0
   -4.9218   -4.0524   -0.4662 H   0  0  0  0  0  0  0  0  0  0  0  0
   -3.0268   -3.1289   -0.9420 C   0  0  0  0  0  0  0  0  0  0  0  0
   -3.2633   -2.2035   -0.4363 H   0  0  0  0  0  0  0  0  0  0  0  0
   -1.7780   -3.2635   -1.5864 C   0  0  0  0  0  0  0  0  0  0  0  0
   -1.7617    0.8549   -0.2106 C   0  0  0  0  0  0  0  0  0  0  0  0
   -2.5726    1.1871   -1.0741 O   0  0  0  0  0  0  0  0  0  0  0  0
   -1.1941    1.7377    0.6223 N   0  0  0  0  0  0  0  0  0  0  0  0
   -0.4976    1.3916    1.2669 H   0  0  0  0  0  0  0  0  0  0  0  0
   -1.4666    3.1722    0.6095 C   0  0  0  0  0  0  0  0  0  0  0  0
   -2.5439    3.3427    0.6539 H   0  0  0  0  0  0  0  0  0  0  0  0
   -0.9893    3.6529    1.4644 H   0  0  0  0  0  0  0  0  0  0  0  0
   -1.0808    3.6095   -0.3129 H   0  0  0  0  0  0  0  0  0  0  0  0
  5  6  2  0  0  0  0
  5  7  1  0  0  0  0
  2  3  1  0  0  0  0
  2  4  1  0  0  0  0
  2  5  1  0  0  0  0
  1  2  1  0  0  0  0
 29 30  2  0  0  0  0
 29 31  1  0  0  0  0
 26 27  1  0  0  0  0
 26 28  2  0  0  0  0
 24 25  1  0  0  0  0
 24 26  1  0  0  0  0
 22 23  1  0  0  0  0
 22 24  2  0  0  0  0
 20 21  1  0  0  0  0
 20 22  1  0  0  0  0
 19 20  2  0  0  0  0
 19 28  1  0  0  0  0
 17 18  1  0  0  0  0
 17 19  1  0  0  0  0
 15 16  1  0  0  0  0
 15 17  1  0  0  0  0
 14 15  2  0  0  0  0
 14 28  1  0  0  0  0
 11 12  1  0  0  0  0
 11 13  1  0  0  0  0
 11 14  1  0  0  0  0
  9 10  1  0  0  0  0
  9 11  1  0  0  0  0
  9 29  1  0  0  0  0
  7  8  1  0  0  0  0
  7  9  1  0  0  0  0
 33 34  1  0  0  0  0
 33 35  1  0  0  0  0
 33 36  1  0  0  0  0
 31 32  1  0  0  0  0
 31 33  1  0  0  0  0
M  END
$$$$
default_name
  -OEChem-02102213163D

 36 37  0     1  0  0  0  0  0999 V2000
   -4.0843   -4.0736    1.2944 H   0  0  0  0  0  0  0  0  0  0  0  0
   -4.0342   -3.2816    0.5484 C   0  0  0  0  0  0  0  0  0  0  0  0
   -4.8842   -2.6126    0.6694 H   0  0  0  0  0  0  0  0  0  0  0  0
   -4.0433   -3.7186   -0.4486 H   0  0  0  0  0  0  0  0  0  0  0  0
   -2.7532   -2.5046    0.7444 C   0  0  0  0  0  0  0  0  0  0  0  0
   -1.9803   -2.8096    1.6434 O   0  0  0  0  0  0  0  0  0  0  0  0
   -2.5332   -1.4966   -0.0966 N   0  0  0  0  0  0  0  0  0  0  0  0
   -3.2312   -1.2816   -0.7936 H   0  0  0  0  0  0  0  0  0  0  0  0
   -1.3593   -0.6196   -0.0536 C   0  0  1  0  0  0  0  0  0  0  0  0
   -0.8788   -0.7266    0.9196 H   0  0  0  0  0  0  0  0  0  0  0  0
   -0.3559   -1.0533   -1.1339 C   0  0  0  0  0  0  0  0  0  0  0  0
   -0.3796   -0.3266   -1.9479 H   0  0  0  0  0  0  0  0  0  0  0  0
    0.6470   -1.0348   -0.7039 H   0  0  0  0  0  0  0  0  0  0  0  0
   -0.5970   -2.4120   -1.7185 C   0  0  0  0  0  0  0  0  0  0  0  0
    0.3553   -3.2401   -2.2033 C   0  0  0  0  0  0  0  0  0  0  0  0
    1.4138   -3.0071   -2.2431 H   0  0  0  0  0  0  0  0  0  0  0  0
   -0.2247   -4.4237   -2.6157 N   0  0  0  0  0  0  0  0  0  0  0  0
    0.2967   -5.1894   -3.0168 H   0  0  0  0  0  0  0  0  0  0  0  0
   -1.5865   -4.4236   -2.4003 C   0  0  0  0  0  0  0  0  0  0  0  0
   -2.5910   -5.3776   -2.6178 C   0  0  0  0  0  0  0  0  0  0  0  0
   -2.3486   -6.3406   -3.0426 H   0  0  0  0  0  0  0  0  0  0  0  0
   -3.9174   -5.0623   -2.2769 C   0  0  0  0  0  0  0  0  0  0  0  0
   -4.7056   -5.7853   -2.4384 H   0  0  0  0  0  0  0  0  0  0  0  0
   -4.2200   -3.8015   -1.7309 C   0  0  0  0  0  0  0  0  0  0  0  0
   -5.2431   -3.5601   -1.4778 H   0  0  0  0  0  0  0  0  0  0  0  0
   -3.2027   -2.8496   -1.5186 C   0  0  0  0  0  0  0  0  0  0  0  0
   -3.4508   -1.8800   -1.1108 H   0  0  0  0  0  0  0  0  0  0  0  0
   -1.8597   -3.1379   -1.8446 C   0  0  0  0  0  0  0  0  0  0  0  0
   -1.7617    0.8549   -0.2106 C   0  0  0  0  0  0  0  0  0  0  0  0
   -2.5726    1.1871   -1.0741 O   0  0  0  0  0  0  0  0  0  0  0  0
   -1.1941    1.7377    0.6223 N   0  0  0  0  0  0  0  0  0  0  0  0
   -0.4976    1.3916    1.2669 H   0  0  0  0  0  0  0  0  0  0  0  0
   -1.4666    3.1722    0.6095 C   0  0  0  0  0  0  0  0  0  0  0  0
   -2.5439    3.3427    0.6539 H   0  0  0  0  0  0  0  0  0  0  0  0
   -0.9893    3.6529    1.4644 H   0  0  0  0  0  0  0  0  0  0  0  0
   -1.0808    3.6095   -0.3129 H   0  0  0  0  0  0  0  0  0  0  0  0
  5  6  2  0  0  0  0
  5  7  1  0  0  0  0
  2  3  1  0  0  0  0
  2  4  1  0  0  0  0
  2  5  1  0  0  0  0
  1  2  1  0  0  0  0
 29 30  2  0  0  0  0
 29 31  1  0  0  0  0
 26 27  1  0  0  0  0
 26 28  2  0  0  0  0
 24 25  1  0  0  0  0
 24 26  1  0  0  0  0
 22 23  1  0  0  0  0
 22 24  2  0  0  0  0
 20 21  1  0  0  0  0
 20 22  1  0  0  0  0
 19 20  2  0  0  0  0
 19 28  1  0  0  0  0
 17 18  1  0  0  0  0
 17 19  1  0  0  0  0
 15 16  1  0  0  0  0
 15 17  1  0  0  0  0
 14 15  2  0  0  0  0
 14 28  1  0  0  0  0
 11 12  1  0  0  0  0
 11 13  1  0  0  0  0
 11 14  1  0  0  0  0
  9 10  1  0  0  0  0
  9 11  1  0  0  0  0
  9 29  1  0  0  0  0
  7  8  1  0  0  0  0
  7  9  1  0  0  0  0
 33 34  1  0  0  0  0
 33 35  1  0  0  0  0
 33 36  1  0  0  0  0
 31 32  1  0  0  0  0
 31 33  1  0  0  0  0
M  END
$$$$
default_name
  -OEChem-02102213163D

 36 37  0     1  0  0  0  0  0999 V2000
   -4.0843   -4.0736    1.2944 H   0  0  0  0  0  0  0  0  0  0  0  0
   -4.0342   -3.2816    0.5484 C   0  0  0  0  0  0  0  0  0  0  0  0
   -4.8842   -2.6126    0.6694 H   0  0  0  0  0  0  0  0  0  0  0  0
   -4.0433   -3.7186   -0.4486 H   0  0  0  0  0  0  0  0  0  0  0  0
   -2.7532   -2.5046    0.7444 C   0  0  0  0  0  0  0  0  0  0  0  0
   -1.9803   -2.8096    1.6434 O   0  0  0  0  0  0  0  0  0  0  0  0
   -2.5332   -1.4966   -0.0966 N   0  0  0  0  0  0  0  0  0  0  0  0
   -3.2312   -1.2816   -0.7936 H   0  0  0  0  0  0  0  0  0  0  0  0
   -1.3593   -0.6196   -0.0536 C   0  0  1  0  0  0  0  0  0  0  0  0
   -0.8788   -0.7266    0.9196 H   0  0  0  0  0  0  0  0  0  0  0  0
   -0.3559   -1.0533   -1.1339 C   0  0  0  0  0  0  0  0  0  0  0  0
   -0.3796   -0.3266   -1.9479 H   0  0  0  0  0  0  0  0  0  0  0  0
    0.6470   -1.0348   -0.7039 H   0  0  0  0  0  0  0  0  0  0  0  0
   -0.5970   -2.4120   -1.7185 C   0  0  0  0  0  0  0  0  0  0  0  0
    0.3487   -3.3525   -1.9392 C   0  0  0  0  0  0  0  0  0  0  0  0
    1.4060   -3.2246   -1.7342 H   0  0  0  0  0  0  0  0  0  0  0  0
   -0.2416   -4.4954   -2.4421 N   0  0  0  0  0  0  0  0  0  0  0  0
    0.2747   -5.3281   -2.6855 H   0  0  0  0  0  0  0  0  0  0  0  0
   -1.6082   -4.3530   -2.5554 C   0  0  0  0  0  0  0  0  0  0  0  0
   -2.6298   -5.2165   -2.9762 C   0  0  0  0  0  0  0  0  0  0  0  0
   -2.3987   -6.2198   -3.3028 H   0  0  0  0  0  0  0  0  0  0  0  0
   -3.9581   -4.7575   -2.9686 C   0  0  0  0  0  0  0  0  0  0  0  0
   -4.7591   -5.4091   -3.2907 H   0  0  0  0  0  0  0  0  0  0  0  0
   -4.2441   -3.4460   -2.5473 C   0  0  0  0  0  0  0  0  0  0  0  0
   -5.2665   -3.0942   -2.5510 H   0  0  0  0  0  0  0  0  0  0  0  0
   -3.2090   -2.5861   -2.1284 C   0  0  0  0  0  0  0  0  0  0  0  0
   -3.4410   -1.5767   -1.8199 H   0  0  0  0  0  0  0  0  0  0  0  0
   -1.8653   -3.0191   -2.1185 C   0  0  0  0  0  0  0  0  0  0  0  0
   -1.7617    0.8549   -0.2106 C   0  0  0  0  0  0  0  0  0  0  0  0
   -2.5726    1.1871   -1.0741 O   0  0  0  0  0  0  0  0  0  0  0  0
   -1.1941    1.7377    0.6223 N   0  0  0  0  0  0  0  0  0  0  0  0
   -0.4976    1.3916    1.2669 H   0  0  0  0  0  0  0  0  0  0  0  0
   -1.4666    3.1722    0.6095 C   0  0  0  0  0  0  0  0  0  0  0  0
   -2.5439    3.3427    0.6539 H   0  0  0  0  0  0  0  0  0  0  0  0
   -0.9893    3.6529    1.4644 H   0  0  0  0  0  0  0  0  0  0  0  0
   -1.0808    3.6095   -0.3129 H   0  0  0  0  0  0  0  0  0  0  0  0
  5  6  2  0  0  0  0
  5  7  1  0  0  0  0
  2  3  1  0  0  0  0
  2  4  1  0  0  0  0
  2  5  1  0  0  0  0
  1  2  1  0  0  0  0
 29 30  2  0  0  0  0
 29 31  1  0  0  0  0
 26 27  1  0  0  0  0
 26 28  2  0  0  0  0
 24 25  1  0  0  0  0
 24 26  1  0  0  0  0
 22 23  1  0  0  0  0
 22 24  2  0  0  0  0
 20 21  1  0  0  0  0
 20 22  1  0  0  0  0
 19 20  2  0  0  0  0
 19 28  1  0  0  0  0
 17 18  1  0  0  0  0
 17 19  1  0  0  0  0
 15 16  1  0  0  0  0
 15 17  1  0  0  0  0
 14 15  2  0  0  0  0
 14 28  1  0  0  0  0
 11 12  1  0  0  0  0
 11 13  1  0  0  0  0
 11 14  1  0  0  0  0
  9 10  1  0  0  0  0
  9 11  1  0  0  0  0
  9 29  1  0  0  0  0
  7  8  1  0  0  0  0
  7  9  1  0  0  0  0
 33 34  1  0  0  0  0
 33 35  1  0  0  0  0
 33 36  1  0  0  0  0
 31 32  1  0  0  0  0
 31 33  1  0  0  0  0
M  END
$$$$
default_name
  -OEChem-02102213163D

 36 37  0     1  0  0  0  0  0999 V2000
   -4.0843   -4.0736    1.2944 H   0  0  0  0  0  0  0  0  0  0  0  0
   -4.0342   -3.2816    0.5484 C   0  0  0  0  0  0  0  0  0  0  0  0
   -4.8842   -2.6126    0.6694 H   0  0  0  0  0  0  0  0  0  0  0  0
   -4.0433   -3.7186   -0.4486 H   0  0  0  0  0  0  0  0  0  0  0  0
   -2.7532   -2.5046    0.7444 C   0  0  0  0  0  0  0  0  0  0  0  0
   -1.9803   -2.8096    1.6434 O   0  0  0  0  0  0  0  0  0  0  0  0
   -2.5332   -1.4966   -0.0966 N   0  0  0  0  0  0  0  0  0  0  0  0
   -3.2312   -1.2816   -0.7936 H   0  0  0  0  0  0  0  0  0  0  0  0
   -1.3593   -0.6196   -0.0536 C   0  0  1  0  0  0  0  0  0  0  0  0
   -0.8788   -0.7266    0.9196 H   0  0  0  0  0  0  0  0  0  0  0  0
   -0.3559   -1.0533   -1.1339 C   0  0  0  0  0  0  0  0  0  0  0  0
   -0.3796   -0.3266   -1.9479 H   0  0  0  0  0  0  0  0  0  0  0  0
    0.6470   -1.0348   -0.7039 H   0  0  0  0  0  0  0  0  0  0  0  0
   -0.5970   -2.4120   -1.7185 C   0  0  0  0  0  0  0  0  0  0  0  0
    0.2691   -3.4494   -1.6811 C   0  0  0  0  0  0  0  0  0  0  0  0
    1.2571   -3.4128   -1.2354 H   0  0  0  0  0  0  0  0  0  0  0  0
   -0.3058   -4.5557   -2.2753 N   0  0  0  0  0  0  0  0  0  0  0  0
    0.1617   -5.4460   -2.3648 H   0  0  0  0  0  0  0  0  0  0  0  0
   -1.5856   -4.2891   -2.7132 C   0  0  0  0  0  0  0  0  0  0  0  0
   -2.5670   -5.0719   -3.3382 C   0  0  0  0  0  0  0  0  0  0  0  0
   -2.3739   -6.1088   -3.5710 H   0  0  0  0  0  0  0  0  0  0  0  0
   -3.8043   -4.4878   -3.6589 C   0  0  0  0  0  0  0  0  0  0  0  0
   -4.5729   -5.0759   -4.1421 H   0  0  0  0  0  0  0  0  0  0  0  0
   -4.0398   -3.1342   -3.3563 C   0  0  0  0  0  0  0  0  0  0  0  0
   -4.9902   -2.6866   -3.6124 H   0  0  0  0  0  0  0  0  0  0  0  0
   -3.0454   -2.3564   -2.7298 C   0  0  0  0  0  0  0  0  0  0  0  0
   -3.2346   -1.3142   -2.5151 H   0  0  0  0  0  0  0  0  0  0  0  0
   -1.7945   -2.9151   -2.3893 C   0  0  0  0  0  0  0  0  0  0  0  0
   -1.7617    0.8549   -0.2106 C   0  0  0  0  0  0  0  0  0  0  0  0
   -2.5726    1.1871   -1.0741 O   0  0  0  0  0  0  0  0  0  0  0  0
   -1.1941    1.7377    0.6223 N   0  0  0  0  0  0  0  0  0  0  0  0
   -0.4976    1.3916    1.2669 H   0  0  0  0  0  0  0  0  0  0  0  0
   -1.4666    3.1722    0.6095 C   0  0  0  0  0  0  0  0  0  0  0  0
   -2.5439    3.3427    0.6539 H   0  0  0  0  0  0  0  0  0  0  0  0
   -0.9893    3.6529    1.4644 H   0  0  0  0  0  0  0  0  0  0  0  0
   -1.0808    3.6095   -0.3129 H   0  0  0  0  0  0  0  0  0  0  0  0
  5  6  2  0  0  0  0
  5  7  1  0  0  0  0
  2  3  1  0  0  0  0
  2  4  1  0  0  0  0
  2  5  1  0  0  0  0
  1  2  1  0  0  0  0
 29 30  2  0  0  0  0
 29 31  1  0  0  0  0
 26 27  1  0  0  0  0
 26 28  2  0  0  0  0
 24 25  1  0  0  0  0
 24 26  1  0  0  0  0
 22 23  1  0  0  0  0
 22 24  2  0  0  0  0
 20 21  1  0  0  0  0
 20 22  1  0  0  0  0
 19 20  2  0  0  0  0
 19 28  1  0  0  0  0
 17 18  1  0  0  0  0
 17 19  1  0  0  0  0
 15 16  1  0  0  0  0
 15 17  1  0  0  0  0
 14 15  2  0  0  0  0
 14 28  1  0  0  0  0
 11 12  1  0  0  0  0
 11 13  1  0  0  0  0
 11 14  1  0  0  0  0
  9 10  1  0  0  0  0
  9 11  1  0  0  0  0
  9 29  1  0  0  0  0
  7  8  1  0  0  0  0
  7  9  1  0  0  0  0
 33 34  1  0  0  0  0
 33 35  1  0  0  0  0
 33 36  1  0  0  0  0
 31 32  1  0  0  0  0
 31 33  1  0  0  0  0
M  END
$$$$
default_name
  -OEChem-02102213163D

 36 37  0     1  0  0  0  0  0999 V2000
   -4.0843   -4.0736    1.2944 H   0  0  0  0  0  0  0  0  0  0  0  0
   -4.0342   -3.2816    0.5484 C   0  0  0  0  0  0  0  0  0  0  0  0
   -4.8842   -2.6126    0.6694 H   0  0  0  0  0  0  0  0  0  0  0  0
   -4.0433   -3.7186   -0.4486 H   0  0  0  0  0  0  0  0  0  0  0  0
   -2.7532   -2.5046    0.7444 C   0  0  0  0  0  0  0  0  0  0  0  0
   -1.9803   -2.8096    1.6434 O   0  0  0  0  0  0  0  0  0  0  0  0
   -2.5332   -1.4966   -0.0966 N   0  0  0  0  0  0  0  0  0  0  0  0
   -3.2312   -1.2816   -0.7936 H   0  0  0  0  0  0  0  0  0  0  0  0
   -1.3593   -0.6196   -0.0536 C   0  0  1  0  0  0  0  0  0  0  0  0
   -0.8788   -0.7266    0.9196 H   0  0  0  0  0  0  0  0  0  0  0  0
   -0.3559   -1.0533   -1.1339 C   0  0  0  0  0  0  0  0  0  0  0  0
   -0.3796   -0.3266   -1.9479 H   0  0  0  0  0  0  0  0  0  0  0  0
    0.6470   -1.0348   -0.7039 H   0  0  0  0  0  0  0  0  0  0  0  0
   -0.5970   -2.4120   -1.7185 C   0  0  0  0  0  0  0  0  0  0  0  0
    0.1217   -3.5243   -1.4464 C   0  0  0  0  0  0  0  0  0  0  0  0
    0.9772   -3.5588   -0.7807 H   0  0  0  0  0  0  0  0  0  0  0  0
   -0.4131   -4.6006   -2.1268 N   0  0  0  0  0  0  0  0  0  0  0  0
   -0.0345   -5.5351   -2.0766 H   0  0  0  0  0  0  0  0  0  0  0  0
   -1.5204   -4.2363   -2.8630 C   0  0  0  0  0  0  0  0  0  0  0  0
   -2.4067   -4.9537   -3.6791 C   0  0  0  0  0  0  0  0  0  0  0  0
   -2.2757   -6.0153   -3.8288 H   0  0  0  0  0  0  0  0  0  0  0  0
   -3.4666   -4.2716   -4.3008 C   0  0  0  0  0  0  0  0  0  0  0  0
   -4.1595   -4.8082   -4.9346 H   0  0  0  0  0  0  0  0  0  0  0  0
   -3.6212   -2.8873   -4.1029 C   0  0  0  0  0  0  0  0  0  0  0  0
   -4.4331   -2.3650   -4.5898 H   0  0  0  0  0  0  0  0  0  0  0  0
   -2.7231   -2.1760   -3.2820 C   0  0  0  0  0  0  0  0  0  0  0  0
   -2.8455   -1.1105   -3.1491 H   0  0  0  0  0  0  0  0  0  0  0  0
   -1.6521   -2.8332   -2.6386 C   0  0  0  0  0  0  0  0  0  0  0  0
   -1.7617    0.8549   -0.2106 C   0  0  0  0  0  0  0  0  0  0  0  0
   -2.5726    1.1871   -1.0741 O   0  0  0  0  0  0  0  0  0  0  0  0
   -1.1941    1.7377    0.6223 N   0  0  0  0  0  0  0  0  0  0  0  0
   -0.4976    1.3916    1.2669 H   0  0  0  0  0  0  0  0  0  0  0  0
   -1.4666    3.1722    0.6095 C   0  0  0  0  0  0  0  0  0  0  0  0
   -2.5439    3.3427    0.6539 H   0  0  0  0  0  0  0  0  0  0  0  0
   -0.9893    3.6529    1.4644 H   0  0  0  0  0  0  0  0  0  0  0  0
   -1.0808    3.6095   -0.3129 H   0  0  0  0  0  0  0  0  0  0  0  0
  5  6  2  0  0  0  0
  5  7  1  0  0  0  0
  2  3  1  0  0  0  0
  2  4  1  0  0  0  0
  2  5  1  0  0  0  0
  1  2  1  0  0  0  0
 29 30  2  0  0  0  0
 29 31  1  0  0  0  0
 26 27  1  0  0  0  0
 26 28  2  0  0  0  0
 24 25  1  0  0  0  0
 24 26  1  0  0  0  0
 22 23  1  0  0  0  0
 22 24  2  0  0  0  0
 20 21  1  0  0  0  0
 20 22  1  0  0  0  0
 19 20  2  0  0  0  0
 19 28  1  0  0  0  0
 17 18  1  0  0  0  0
 17 19  1  0  0  0  0
 15 16  1  0  0  0  0
 15 17  1  0  0  0  0
 14 15  2  0  0  0  0
 14 28  1  0  0  0  0
 11 12  1  0  0  0  0
 11 13  1  0  0  0  0
 11 14  1  0  0  0  0
  9 10  1  0  0  0  0
  9 11  1  0  0  0  0
  9 29  1  0  0  0  0
  7  8  1  0  0  0  0
  7  9  1  0  0  0  0
 33 34  1  0  0  0  0
 33 35  1  0  0  0  0
 33 36  1  0  0  0  0
 31 32  1  0  0  0  0
 31 33  1  0  0  0  0
M  END
$$$$
default_name
  -OEChem-02102213163D

 36 37  0     1  0  0  0  0  0999 V2000
   -4.0843   -4.0736    1.2944 H   0  0  0  0  0  0  0  0  0  0  0  0
   -4.0342   -3.2816    0.5484 C   0  0  0  0  0  0  0  0  0  0  0  0
   -4.8842   -2.6126    0.6694 H   0  0  0  0  0  0  0  0  0  0  0  0
   -4.0433   -3.7186   -0.4486 H   0  0  0  0  0  0  0  0  0  0  0  0
   -2.7532   -2.5046    0.7444 C   0  0  0  0  0  0  0  0  0  0  0  0
   -1.9803   -2.8096    1.6434 O   0  0  0  0  0  0  0  0  0  0  0  0
   -2.5332   -1.4966   -0.0966 N   0  0  0  0  0  0  0  0  0  0  0  0
   -3.2312   -1.2816   -0.7936 H   0  0  0  0  0  0  0  0  0  0  0  0
   -1.3593   -0.6196   -0.0536 C   0  0  1  0  0  0  0  0  0  0  0  0
   -0.8788   -0.7266    0.9196 H   0  0  0  0  0  0  0  0  0  0  0  0
   -0.3559   -1.0533   -1.1339 C   0  0  0  0  0  0  0  0  0  0  0  0
   -0.3796   -0.3266   -1.9479 H   0  0  0  0  0  0  0  0  0  0  0  0
    0.6470   -1.0348   -0.7039 H   0  0  0  0  0  0  0  0  0  0  0  0
   -0.5970   -2.4120   -1.7185 C   0  0  0  0  0  0  0  0  0  0  0  0
   -0.0832   -3.5719   -1.2511 C   0  0  0  0  0  0  0  0  0  0  0  0
    0.5855   -3.6525   -0.4011 H   0  0  0  0  0  0  0  0  0  0  0  0
   -0.5560   -4.6269   -2.0067 N   0  0  0  0  0  0  0  0  0  0  0  0
   -0.3007   -5.5894   -1.8407 H   0  0  0  0  0  0  0  0  0  0  0  0
   -1.4168   -4.1981   -2.9946 C   0  0  0  0  0  0  0  0  0  0  0  0
   -2.1600   -4.8698   -3.9758 C   0  0  0  0  0  0  0  0  0  0  0  0
   -2.1110   -5.9456   -4.0586 H   0  0  0  0  0  0  0  0  0  0  0  0
   -2.9679   -4.1235   -4.8507 C   0  0  0  0  0  0  0  0  0  0  0  0
   -3.5473   -4.6244   -5.6144 H   0  0  0  0  0  0  0  0  0  0  0  0
   -3.0168   -2.7222   -4.7360 C   0  0  0  0  0  0  0  0  0  0  0  0
   -3.6332   -2.1512   -5.4166 H   0  0  0  0  0  0  0  0  0  0  0  0
   -2.2640   -2.0573   -3.7473 C   0  0  0  0  0  0  0  0  0  0  0  0
   -2.3003   -0.9794   -3.6787 H   0  0  0  0  0  0  0  0  0  0  0  0
   -1.4478   -2.7787   -2.8493 C   0  0  0  0  0  0  0  0  0  0  0  0
   -1.7617    0.8549   -0.2106 C   0  0  0  0  0  0  0  0  0  0  0  0
   -2.5726    1.1871   -1.0741 O   0  0  0  0  0  0  0  0  0  0  0  0
   -1.1941    1.7377    0.6223 N   0  0  0  0  0  0  0  0  0  0  0  0
   -0.4976    1.3916    1.2669 H   0  0  0  0  0  0  0  0  0  0  0  0
   -1.4666    3.1722    0.6095 C   0  0  0  0  0  0  0  0  0  0  0  0
   -2.5439    3.3427    0.6539 H   0  0  0  0  0  0  0  0  0  0  0  0
   -0.9893    3.6529    1.4644 H   0  0  0  0  0  0  0  0  0  0  0  0
   -1.0808    3.6095   -0.3129 H   0  0  0  0  0  0  0  0  0  0  0  0
  5  6  2  0  0  0  0
  5  7  1  0  0  0  0
  2  3  1  0  0  0  0
  2  4  1  0  0  0  0
  2  5  1  0  0  0  0
  1  2  1  0  0  0  0
 29 30  2  0  0  0  0
 29 31  1  0  0  0  0
 26 27  1  0  0  0  0
 26 28  2  0  0  0  0
 24 25  1  0  0  0  0
 24 26  1  0  0  0  0
 22 23  1  0  0  0  0
 22 24  2  0  0  0  0
 20 21  1  0  0  0  0
 20 22  1  0  0  0  0
 19 20  2  0  0  0  0
 19 28  1  0  0  0  0
 17 18  1  0  0  0  0
 17 19  1  0  0  0  0
 15 16  1  0  0  0  0
 15 17  1  0  0  0  0
 14 15  2  0  0  0  0
 14 28  1  0  0  0  0
 11 12  1  0  0  0  0
 11 13  1  0  0  0  0
 11 14  1  0  0  0  0
  9 10  1  0  0  0  0
  9 11  1  0  0  0  0
  9 29  1  0  0  0  0
  7  8  1  0  0  0  0
  7  9  1  0  0  0  0
 33 34  1  0  0  0  0
 33 35  1  0  0  0  0
 33 36  1  0  0  0  0
 31 32  1  0  0  0  0
 31 33  1  0  0  0  0
M  END
$$$$
default_name
  -OEChem-02102213163D

 36 37  0     1  0  0  0  0  0999 V2000
   -4.0843   -4.0736    1.2944 H   0  0  0  0  0  0  0  0  0  0  0  0
   -4.0342   -3.2816    0.5484 C   0  0  0  0  0  0  0  0  0  0  0  0
   -4.8842   -2.6126    0.6694 H   0  0  0  0  0  0  0  0  0  0  0  0
   -4.0433   -3.7186   -0.4486 H   0  0  0  0  0  0  0  0  0  0  0  0
   -2.7532   -2.5046    0.7444 C   0  0  0  0  0  0  0  0  0  0  0  0
   -1.9803   -2.8096    1.6434 O   0  0  0  0  0  0  0  0  0  0  0  0
   -2.5332   -1.4966   -0.0966 N   0  0  0  0  0  0  0  0  0  0  0  0
   -3.2312   -1.2816   -0.7936 H   0  0  0  0  0  0  0  0  0  0  0  0
   -1.3593   -0.6196   -0.0536 C   0  0  1  0  0  0  0  0  0  0  0  0
   -0.8788   -0.7266    0.9196 H   0  0  0  0  0  0  0  0  0  0  0  0
   -0.3559   -1.0533   -1.1339 C   0  0  0  0  0  0  0  0  0  0  0  0
   -0.3796   -0.3266   -1.9479 H   0  0  0  0  0  0  0  0  0  0  0  0
    0.6470   -1.0348   -0.7039 H   0  0  0  0  0  0  0  0  0  0  0  0
   -0.5970   -2.4120   -1.7185 C   0  0  0  0  0  0  0  0  0  0  0  0
   -0.3318   -3.5891   -1.1086 C   0  0  0  0  0  0  0  0  0  0  0  0
    0.1085   -3.6878   -0.1224 H   0  0  0  0  0  0  0  0  0  0  0  0
   -0.7250   -4.6329   -1.9231 N   0  0  0  0  0  0  0  0  0  0  0  0
   -0.6187   -5.6051   -1.6729 H   0  0  0  0  0  0  0  0  0  0  0  0
   -1.2821   -4.1771   -3.0990 C   0  0  0  0  0  0  0  0  0  0  0  0
   -1.8436   -4.8261   -4.2079 C   0  0  0  0  0  0  0  0  0  0  0  0
   -1.8910   -5.9045   -4.2449 H   0  0  0  0  0  0  0  0  0  0  0  0
   -2.3422   -4.0538   -5.2709 C   0  0  0  0  0  0  0  0  0  0  0  0
   -2.7779   -4.5370   -6.1349 H   0  0  0  0  0  0  0  0  0  0  0  0
   -2.2677   -2.6501   -5.2126 C   0  0  0  0  0  0  0  0  0  0  0  0
   -2.6449   -2.0600   -6.0364 H   0  0  0  0  0  0  0  0  0  0  0  0
   -1.6994   -2.0084   -4.0939 C   0  0  0  0  0  0  0  0  0  0  0  0
   -1.6363   -0.9298   -4.0678 H   0  0  0  0  0  0  0  0  0  0  0  0
   -1.1954   -2.7556   -3.0073 C   0  0  0  0  0  0  0  0  0  0  0  0
   -1.7617    0.8549   -0.2106 C   0  0  0  0  0  0  0  0  0  0  0  0
   -2.5726    1.1871   -1.0741 O   0  0  0  0  0  0  0  0  0  0  0  0
   -1.1941    1.7377    0.6223 N   0  0  0  0  0  0  0  0  0  0  0  0
   -0.4976    1.3916    1.2669 H   0  0  0  0  0  0  0  0  0  0  0  0
   -1.4666    3.1722    0.6095 C   0  0  0  0  0  0  0  0  0  0  0  0
   -2.5439    3.3427    0.6539 H   0  0  0  0  0  0  0  0  0  0  0  0
   -0.9893    3.6529    1.4644 H   0  0  0  0  0  0  0  0  0  0  0  0
   -1.0808    3.6095   -0.3129 H   0  0  0  0  0  0  0  0  0  0  0  0
  5  6  2  0  0  0  0
  5  7  1  0  0  0  0
  2  3  1  0  0  0  0
  2  4  1  0  0  0  0
  2  5  1  0  0  0  0
  1  2  1  0  0  0  0
 29 30  2  0  0  0  0
 29 31  1  0  0  0  0
 26 27  1  0  0  0  0
 26 28  2  0  0  0  0
 24 25  1  0  0  0  0
 24 26  1  0  0  0  0
 22 23  1  0  0  0  0
 22 24  2  0  0  0  0
 20 21  1  0  0  0  0
 20 22  1  0  0  0  0
 19 20  2  0  0  0  0
 19 28  1  0  0  0  0
 17 18  1  0  0  0  0
 17 19  1  0  0  0  0
 15 16  1  0  0  0  0
 15 17  1  0  0  0  0
 14 15  2  0  0  0  0
 14 28  1  0  0  0  0
 11 12  1  0  0  0  0
 11 13  1  0  0  0  0
 11 14  1  0  0  0  0
  9 10  1  0  0  0  0
  9 11  1  0  0  0  0
  9 29  1  0  0  0  0
  7  8  1  0  0  0  0
  7  9  1  0  0  0  0
 33 34  1  0  0  0  0
 33 35  1  0  0  0  0
 33 36  1  0  0  0  0
 31 32  1  0  0  0  0
 31 33  1  0  0  0  0
M  END
$$$$
default_name
  -OEChem-02102213163D

 36 37  0     1  0  0  0  0  0999 V2000
   -4.0843   -4.0736    1.2944 H   0  0  0  0  0  0  0  0  0  0  0  0
   -4.0342   -3.2816    0.5484 C   0  0  0  0  0  0  0  0  0  0  0  0
   -4.8842   -2.6126    0.6694 H   0  0  0  0  0  0  0  0  0  0  0  0
   -4.0433   -3.7186   -0.4486 H   0  0  0  0  0  0  0  0  0  0  0  0
   -2.7532   -2.5046    0.7444 C   0  0  0  0  0  0  0  0  0  0  0  0
   -1.9803   -2.8096    1.6434 O   0  0  0  0  0  0  0  0  0  0  0  0
   -2.5332   -1.4966   -0.0966 N   0  0  0  0  0  0  0  0  0  0  0  0
   -3.2312   -1.2816   -0.7936 H   0  0  0  0  0  0  0  0  0  0  0  0
   -1.3593   -0.6196   -0.0536 C   0  0  1  0  0  0  0  0  0  0  0  0
   -0.8788   -0.7266    0.9196 H   0  0  0  0  0  0  0  0  0  0  0  0
   -0.3559   -1.0533   -1.1339 C   0  0  0  0  0  0  0  0  0  0  0  0
   -0.3796   -0.3266   -1.9479 H   0  0  0  0  0  0  0  0  0  0  0  0
    0.6470   -1.0348   -0.7039 H   0  0  0  0  0  0  0  0  0  0  0  0
   -0.5970   -2.4120   -1.7185 C   0  0  0  0  0  0  0  0  0  0  0  0
   -0.6071   -3.5746   -1.0286 C   0  0  0  0  0  0  0  0  0  0  0  0
   -0.4211   -3.6621    0.0363 H   0  0  0  0  0  0  0  0  0  0  0  0
   -0.9084   -4.6181   -1.8818 N   0  0  0  0  0  0  0  0  0  0  0  0
   -0.9668   -5.5812   -1.5849 H   0  0  0  0  0  0  0  0  0  0  0  0
   -1.1253   -4.1747   -3.1690 C   0  0  0  0  0  0  0  0  0  0  0  0
   -1.4792   -4.8255   -4.3597 C   0  0  0  0  0  0  0  0  0  0  0  0
   -1.6305   -5.8948   -4.3750 H   0  0  0  0  0  0  0  0  0  0  0  0
   -1.6322   -4.0671   -5.5329 C   0  0  0  0  0  0  0  0  0  0  0  0
   -1.9037   -4.5520   -6.4608 H   0  0  0  0  0  0  0  0  0  0  0  0
   -1.4250   -2.6759   -5.5002 C   0  0  0  0  0  0  0  0  0  0  0  0
   -1.5357   -2.0974   -6.4070 H   0  0  0  0  0  0  0  0  0  0  0  0
   -1.0677   -2.0326   -4.2982 C   0  0  0  0  0  0  0  0  0  0  0  0
   -0.8985   -0.9652   -4.2899 H   0  0  0  0  0  0  0  0  0  0  0  0
   -0.9123   -2.7653   -3.1016 C   0  0  0  0  0  0  0  0  0  0  0  0
   -1.7617    0.8549   -0.2106 C   0  0  0  0  0  0  0  0  0  0  0  0
   -2.5726    1.1871   -1.0741 O   0  0  0  0  0  0  0  0  0  0  0  0
   -1.1941    1.7377    0.6223 N   0  0  0  0  0  0  0  0  0  0  0  0
   -0.4976    1.3916    1.2669 H   0  0  0  0  0  0  0  0  0  0  0  0
   -1.4666    3.1722    0.6095 C   0  0  0  0  0  0  0  0  0  0  0  0
   -2.5439    3.3427    0.6539 H   0  0  0  0  0  0  0  0  0  0  0  0
   -0.9893    3.6529    1.4644 H   0  0  0  0  0  0  0  0  0  0  0  0
   -1.0808    3.6095   -0.3129 H   0  0  0  0  0  0  0  0  0  0  0  0
  5  6  2  0  0  0  0
  5  7  1  0  0  0  0
  2  3  1  0  0  0  0
  2  4  1  0  0  0  0
  2  5  1  0  0  0  0
  1  2  1  0  0  0  0
 29 30  2  0  0  0  0
 29 31  1  0  0  0  0
 26 27  1  0  0  0  0
 26 28  2  0  0  0  0
 24 25  1  0  0  0  0
 24 26  1  0  0  0  0
 22 23  1  0  0  0  0
 22 24  2  0  0  0  0
 20 21  1  0  0  0  0
 20 22  1  0  0  0  0
 19 20  2  0  0  0  0
 19 28  1  0  0  0  0
 17 18  1  0  0  0  0
 17 19  1  0  0  0  0
 15 16  1  0  0  0  0
 15 17  1  0  0  0  0
 14 15  2  0  0  0  0
 14 28  1  0  0  0  0
 11 12  1  0  0  0  0
 11 13  1  0  0  0  0
 11 14  1  0  0  0  0
  9 10  1  0  0  0  0
  9 11  1  0  0  0  0
  9 29  1  0  0  0  0
  7  8  1  0  0  0  0
  7  9  1  0  0  0  0
 33 34  1  0  0  0  0
 33 35  1  0  0  0  0
 33 36  1  0  0  0  0
 31 32  1  0  0  0  0
 31 33  1  0  0  0  0
M  END
$$$$
default_name
  -OEChem-02102213163D

 36 37  0     1  0  0  0  0  0999 V2000
   -4.0843   -4.0736    1.2944 H   0  0  0  0  0  0  0  0  0  0  0  0
   -4.0342   -3.2816    0.5484 C   0  0  0  0  0  0  0  0  0  0  0  0
   -4.8842   -2.6126    0.6694 H   0  0  0  0  0  0  0  0  0  0  0  0
   -4.0433   -3.7186   -0.4486 H   0  0  0  0  0  0  0  0  0  0  0  0
   -2.7532   -2.5046    0.7444 C   0  0  0  0  0  0  0  0  0  0  0  0
   -1.9803   -2.8096    1.6434 O   0  0  0  0  0  0  0  0  0  0  0  0
   -2.5332   -1.4966   -0.0966 N   0  0  0  0  0  0  0  0  0  0  0  0
   -3.2312   -1.2816   -0.7936 H   0  0  0  0  0  0  0  0  0  0  0  0
   -1.3593   -0.6196   -0.0536 C   0  0  1  0  0  0  0  0  0  0  0  0
   -0.8788   -0.7266    0.9196 H   0  0  0  0  0  0  0  0  0  0  0  0
   -0.3559   -1.0533   -1.1339 C   0  0  0  0  0  0  0  0  0  0  0  0
   -0.3796   -0.3266   -1.9479 H   0  0  0  0  0  0  0  0  0  0  0  0
    0.6470   -1.0348   -0.7039 H   0  0  0  0  0  0  0  0  0  0  0  0
   -0.5970   -2.4120   -1.7185 C   0  0  0  0  0  0  0  0  0  0  0  0
   -0.8903   -3.5296   -1.0165 C   0  0  0  0  0  0  0  0  0  0  0  0
   -0.9674   -3.5771    0.0642 H   0  0  0  0  0  0  0  0  0  0  0  0
   -1.0938   -4.5836   -1.8855 N   0  0  0  0  0  0  0  0  0  0  0  0
   -1.3213   -5.5193   -1.5825 H   0  0  0  0  0  0  0  0  0  0  0  0
   -0.9572   -4.1912   -3.2001 C   0  0  0  0  0  0  0  0  0  0  0  0
   -1.0914   -4.8680   -4.4209 C   0  0  0  0  0  0  0  0  0  0  0  0
   -1.3475   -5.9171   -4.4399 H   0  0  0  0  0  0  0  0  0  0  0  0
   -0.8862   -4.1625   -5.6188 C   0  0  0  0  0  0  0  0  0  0  0  0
   -0.9844   -4.6682   -6.5699 H   0  0  0  0  0  0  0  0  0  0  0  0
   -0.5462   -2.7979   -5.5792 C   0  0  0  0  0  0  0  0  0  0  0  0
   -0.3810   -2.2610   -6.5031 H   0  0  0  0  0  0  0  0  0  0  0  0
   -0.4121   -2.1283   -4.3464 C   0  0  0  0  0  0  0  0  0  0  0  0
   -0.1374   -1.0832   -4.3298 H   0  0  0  0  0  0  0  0  0  0  0  0
   -0.6177   -2.8071   -3.1258 C   0  0  0  0  0  0  0  0  0  0  0  0
   -1.7617    0.8549   -0.2106 C   0  0  0  0  0  0  0  0  0  0  0  0
   -2.5726    1.1871   -1.0741 O   0  0  0  0  0  0  0  0  0  0  0  0
   -1.1941    1.7377    0.6223 N   0  0  0  0  0  0  0  0  0  0  0  0
   -0.4976    1.3916    1.2669 H   0  0  0  0  0  0  0  0  0  0  0  0
   -1.4666    3.1722    0.6095 C   0  0  0  0  0  0  0  0  0  0  0  0
   -2.5439    3.3427    0.6539 H   0  0  0  0  0  0  0  0  0  0  0  0
   -0.9893    3.6529    1.4644 H   0  0  0  0  0  0  0  0  0  0  0  0
   -1.0808    3.6095   -0.3129 H   0  0  0  0  0  0  0  0  0  0  0  0
  5  6  2  0  0  0  0
  5  7  1  0  0  0  0
  2  3  1  0  0  0  0
  2  4  1  0  0  0  0
  2  5  1  0  0  0  0
  1  2  1  0  0  0  0
 29 30  2  0  0  0  0
 29 31  1  0  0  0  0
 26 27  1  0  0  0  0
 26 28  2  0  0  0  0
 24 25  1  0  0  0  0
 24 26  1  0  0  0  0
 22 23  1  0  0  0  0
 22 24  2  0  0  0  0
 20 21  1  0  0  0  0
 20 22  1  0  0  0  0
 19 20  2  0  0  0  0
 19 28  1  0  0  0  0
 17 18  1  0  0  0  0
 17 19  1  0  0  0  0
 15 16  1  0  0  0  0
 15 17  1  0  0  0  0
 14 15  2  0  0  0  0
 14 28  1  0  0  0  0
 11 12  1  0  0  0  0
 11 13  1  0  0  0  0
 11 14  1  0  0  0  0
  9 10  1  0  0  0  0
  9 11  1  0  0  0  0
  9 29  1  0  0  0  0
  7  8  1  0  0  0  0
  7  9  1  0  0  0  0
 33 34  1  0  0  0  0
 33 35  1  0  0  0  0
 33 36  1  0  0  0  0
 31 32  1  0  0  0  0
 31 33  1  0  0  0  0
M  END
$$$$
default_name
  -OEChem-02102213163D

 36 37  0     1  0  0  0  0  0999 V2000
   -4.0843   -4.0736    1.2944 H   0  0  0  0  0  0  0  0  0  0  0  0
   -4.0342   -3.2816    0.5484 C   0  0  0  0  0  0  0  0  0  0  0  0
   -4.8842   -2.6126    0.6694 H   0  0  0  0  0  0  0  0  0  0  0  0
   -4.0433   -3.7186   -0.4486 H   0  0  0  0  0  0  0  0  0  0  0  0
   -2.7532   -2.5046    0.7444 C   0  0  0  0  0  0  0  0  0  0  0  0
   -1.9803   -2.8096    1.6434 O   0  0  0  0  0  0  0  0  0  0  0  0
   -2.5332   -1.4966   -0.0966 N   0  0  0  0  0  0  0  0  0  0  0  0
   -3.2312   -1.2816   -0.7936 H   0  0  0  0  0  0  0  0  0  0  0  0
   -1.3593   -0.6196   -0.0536 C   0  0  1  0  0  0  0  0  0  0  0  0
   -0.8788   -0.7266    0.9196 H   0  0  0  0  0  0  0  0  0  0  0  0
   -0.3559   -1.0533   -1.1339 C   0  0  0  0  0  0  0  0  0  0  0  0
   -0.3796   -0.3266   -1.9479 H   0  0  0  0  0  0  0  0  0  0  0  0
    0.6470   -1.0348   -0.7039 H   0  0  0  0  0  0  0  0  0  0  0  0
   -0.5970   -2.4120   -1.7185 C   0  0  0  0  0  0  0  0  0  0  0  0
   -1.1621   -3.4570   -1.0731 C   0  0  0  0  0  0  0  0  0  0  0  0
   -1.4930   -3.4388   -0.0405 H   0  0  0  0  0  0  0  0  0  0  0  0
   -1.2685   -4.5317   -1.9340 N   0  0  0  0  0  0  0  0  0  0  0  0
   -1.6580   -5.4237   -1.6660 H   0  0  0  0  0  0  0  0  0  0  0  0
   -0.7893   -4.2254   -3.1899 C   0  0  0  0  0  0  0  0  0  0  0  0
   -0.7068   -4.9508   -4.3872 C   0  0  0  0  0  0  0  0  0  0  0  0
   -1.0611   -5.9700   -4.4352 H   0  0  0  0  0  0  0  0  0  0  0  0
   -0.1552   -4.3336   -5.5228 C   0  0  0  0  0  0  0  0  0  0  0  0
   -0.0825   -4.8779   -6.4547 H   0  0  0  0  0  0  0  0  0  0  0  0
    0.3089   -3.0077   -5.4442 C   0  0  0  0  0  0  0  0  0  0  0  0
    0.7403   -2.5396   -6.3182 H   0  0  0  0  0  0  0  0  0  0  0  0
    0.2229   -2.2889   -4.2351 C   0  0  0  0  0  0  0  0  0  0  0  0
    0.5953   -1.2756   -4.1849 H   0  0  0  0  0  0  0  0  0  0  0  0
   -0.3316   -2.8783   -3.0783 C   0  0  0  0  0  0  0  0  0  0  0  0
   -1.7617    0.8549   -0.2106 C   0  0  0  0  0  0  0  0  0  0  0  0
   -2.5726    1.1871   -1.0741 O   0  0  0  0  0  0  0  0  0  0  0  0
   -1.1941    1.7377    0.6223 N   0  0  0  0  0  0  0  0  0  0  0  0
   -0.4976    1.3916    1.2669 H   0  0  0  0  0  0  0  0  0  0  0  0
   -1.4666    3.1722    0.6095 C   0  0  0  0  0  0  0  0  0  0  0  0
   -2.5439    3.3427    0.6539 H   0  0  0  0  0  0  0  0  0  0  0  0
   -0.9893    3.6529    1.4644 H   0  0  0  0  0  0  0  0  0  0  0  0
   -1.0808    3.6095   -0.3129 H   0  0  0  0  0  0  0  0  0  0  0  0
  5  6  2  0  0  0  0
  5  7  1  0  0  0  0
  2  3  1  0  0  0  0
  2  4  1  0  0  0  0
  2  5  1  0  0  0  0
  1  2  1  0  0  0  0
 29 30  2  0  0  0  0
 29 31  1  0  0  0  0
 26 27  1  0  0  0  0
 26 28  2  0  0  0  0
 24 25  1  0  0  0  0
 24 26  1  0  0  0  0
 22 23  1  0  0  0  0
 22 24  2  0  0  0  0
 20 21  1  0  0  0  0
 20 22  1  0  0  0  0
 19 20  2  0  0  0  0
 19 28  1  0  0  0  0
 17 18  1  0  0  0  0
 17 19  1  0  0  0  0
 15 16  1  0  0  0  0
 15 17  1  0  0  0  0
 14 15  2  0  0  0  0
 14 28  1  0  0  0  0
 11 12  1  0  0  0  0
 11 13  1  0  0  0  0
 11 14  1  0  0  0  0
  9 10  1  0  0  0  0
  9 11  1  0  0  0  0
  9 29  1  0  0  0  0
  7  8  1  0  0  0  0
  7  9  1  0  0  0  0
 33 34  1  0  0  0  0
 33 35  1  0  0  0  0
 33 36  1  0  0  0  0
 31 32  1  0  0  0  0
 31 33  1  0  0  0  0
M  END
$$$$
default_name
  -OEChem-02102213163D

 36 37  0     1  0  0  0  0  0999 V2000
   -4.0843   -4.0736    1.2944 H   0  0  0  0  0  0  0  0  0  0  0  0
   -4.0342   -3.2816    0.5484 C   0  0  0  0  0  0  0  0  0  0  0  0
   -4.8842   -2.6126    0.6694 H   0  0  0  0  0  0  0  0  0  0  0  0
   -4.0433   -3.7186   -0.4486 H   0  0  0  0  0  0  0  0  0  0  0  0
   -2.7532   -2.5046    0.7444 C   0  0  0  0  0  0  0  0  0  0  0  0
   -1.9803   -2.8096    1.6434 O   0  0  0  0  0  0  0  0  0  0  0  0
   -2.5332   -1.4966   -0.0966 N   0  0  0  0  0  0  0  0  0  0  0  0
   -3.2312   -1.2816   -0.7936 H   0  0  0  0  0  0  0  0  0  0  0  0
   -1.3593   -0.6196   -0.0536 C   0  0  1  0  0  0  0  0  0  0  0  0
   -0.8788   -0.7266    0.9196 H   0  0  0  0  0  0  0  0  0  0  0  0
   -0.3559   -1.0533   -1.1339 C   0  0  0  0  0  0  0  0  0  0  0  0
   -0.3796   -0.3266   -1.9479 H   0  0  0  0  0  0  0  0  0  0  0  0
    0.6470   -1.0348   -0.7039 H   0  0  0  0  0  0  0  0  0  0  0  0
   -0.5970   -2.4120   -1.7185 C   0  0  0  0  0  0  0  0  0  0  0  0
   -1.4041   -3.3617   -1.1946 C   0  0  0  0  0  0  0  0  0  0  0  0
   -1.9622   -3.2565   -0.2707 H   0  0  0  0  0  0  0  0  0  0  0  0
   -1.4206   -4.4660   -2.0240 N   0  0  0  0  0  0  0  0  0  0  0  0
   -1.9540   -5.3007   -1.8296 H   0  0  0  0  0  0  0  0  0  0  0  0
   -0.6328   -4.2750   -3.1392 C   0  0  0  0  0  0  0  0  0  0  0  0
   -0.3516   -5.0681   -4.2609 C   0  0  0  0  0  0  0  0  0  0  0  0
   -0.7909   -6.0497   -4.3613 H   0  0  0  0  0  0  0  0  0  0  0  0
    0.5112   -4.5686   -5.2514 C   0  0  0  0  0  0  0  0  0  0  0  0
    0.7405   -5.1666   -6.1230 H   0  0  0  0  0  0  0  0  0  0  0  0
    1.0821   -3.2912   -5.1044 C   0  0  0  0  0  0  0  0  0  0  0  0
    1.7519   -2.9141   -5.8649 H   0  0  0  0  0  0  0  0  0  0  0  0
    0.7938   -2.5034   -3.9719 C   0  0  0  0  0  0  0  0  0  0  0  0
    1.2496   -1.5293   -3.8649 H   0  0  0  0  0  0  0  0  0  0  0  0
   -0.0736   -2.9740   -2.9624 C   0  0  0  0  0  0  0  0  0  0  0  0
   -1.7617    0.8549   -0.2106 C   0  0  0  0  0  0  0  0  0  0  0  0
   -2.5726    1.1871   -1.0741 O   0  0  0  0  0  0  0  0  0  0  0  0
   -1.1941    1.7377    0.6223 N   0  0  0  0  0  0  0  0  0  0  0  0
   -0.4976    1.3916    1.2669 H   0  0  0  0  0  0  0  0  0  0  0  0
   -1.4666    3.1722    0.6095 C   0  0  0  0  0  0  0  0  0  0  0  0
   -2.5439    3.3427    0.6539 H   0  0  0  0  0  0  0  0  0  0  0  0
   -0.9893    3.6529    1.4644 H   0  0  0  0  0  0  0  0  0  0  0  0
   -1.0808    3.6095   -0.3129 H   0  0  0  0  0  0  0  0  0  0  0  0
  5  6  2  0  0  0  0
  5  7  1  0  0  0  0
  2  3  1  0  0  0  0
  2  4  1  0  0  0  0
  2  5  1  0  0  0  0
  1  2  1  0  0  0  0
 29 30  2  0  0  0  0
 29 31  1  0  0  0  0
 26 27  1  0  0  0  0
 26 28  2  0  0  0  0
 24 25  1  0  0  0  0
 24 26  1  0  0  0  0
 22 23  1  0  0  0  0
 22 24  2  0  0  0  0
 20 21  1  0  0  0  0
 20 22  1  0  0  0  0
 19 20  2  0  0  0  0
 19 28  1  0  0  0  0
 17 18  1  0  0  0  0
 17 19  1  0  0  0  0
 15 16  1  0  0  0  0
 15 17  1  0  0  0  0
 14 15  2  0  0  0  0
 14 28  1  0  0  0  0
 11 12  1  0  0  0  0
 11 13  1  0  0  0  0
 11 14  1  0  0  0  0
  9 10  1  0  0  0  0
  9 11  1  0  0  0  0
  9 29  1  0  0  0  0
  7  8  1  0  0  0  0
  7  9  1  0  0  0  0
 33 34  1  0  0  0  0
 33 35  1  0  0  0  0
 33 36  1  0  0  0  0
 31 32  1  0  0  0  0
 31 33  1  0  0  0  0
M  END
$$$$
default_name
  -OEChem-02102213163D

 36 37  0     1  0  0  0  0  0999 V2000
   -4.0843   -4.0736    1.2944 H   0  0  0  0  0  0  0  0  0  0  0  0
   -4.0342   -3.2816    0.5484 C   0  0  0  0  0  0  0  0  0  0  0  0
   -4.8842   -2.6126    0.6694 H   0  0  0  0  0  0  0  0  0  0  0  0
   -4.0433   -3.7186   -0.4486 H   0  0  0  0  0  0  0  0  0  0  0  0
   -2.7532   -2.5046    0.7444 C   0  0  0  0  0  0  0  0  0  0  0  0
   -1.9803   -2.8096    1.6434 O   0  0  0  0  0  0  0  0  0  0  0  0
   -2.5332   -1.4966   -0.0966 N   0  0  0  0  0  0  0  0  0  0  0  0
   -3.2312   -1.2816   -0.7936 H   0  0  0  0  0  0  0  0  0  0  0  0
   -1.3593   -0.6196   -0.0536 C   0  0  1  0  0  0  0  0  0  0  0  0
   -0.8788   -0.7266    0.9196 H   0  0  0  0  0  0  0  0  0  0  0  0
   -0.3559   -1.0533   -1.1339 C   0  0  0  0  0  0  0  0  0  0  0  0
   -0.3796   -0.3266   -1.9479 H   0  0  0  0  0  0  0  0  0  0  0  0
    0.6470   -1.0348   -0.7039 H   0  0  0  0  0  0  0  0  0  0  0  0
   -0.5970   -2.4120   -1.7185 C   0  0  0  0  0  0  0  0  0  0  0  0
   -1.5997   -3.2504   -1.3728 C   0  0  0  0  0  0  0  0  0  0  0  0
   -2.3429   -3.0426   -0.6108 H   0  0  0  0  0  0  0  0  0  0  0  0
   -1.5398   -4.3909   -2.1494 N   0  0  0  0  0  0  0  0  0  0  0  0
   -2.1891   -5.1589   -2.0622 H   0  0  0  0  0  0  0  0  0  0  0  0
   -0.4986   -4.3365   -3.0515 C   0  0  0  0  0  0  0  0  0  0  0  0
   -0.0499   -5.2121   -4.0507 C   0  0  0  0  0  0  0  0  0  0  0  0
   -0.5553   -6.1510   -4.2232 H   0  0  0  0  0  0  0  0  0  0  0  0
    1.0674   -4.8516   -4.8231 C   0  0  0  0  0  0  0  0  0  0  0  0
    1.4284   -5.5148   -5.5975 H   0  0  0  0  0  0  0  0  0  0  0  0
    1.7205   -3.6288   -4.5830 C   0  0  0  0  0  0  0  0  0  0  0  0
    2.5848   -3.3592   -5.1740 H   0  0  0  0  0  0  0  0  0  0  0  0
    1.2619   -2.7574   -3.5747 C   0  0  0  0  0  0  0  0  0  0  0  0
    1.7809   -1.8272   -3.3918 H   0  0  0  0  0  0  0  0  0  0  0  0
    0.1387   -3.0876   -2.7859 C   0  0  0  0  0  0  0  0  0  0  0  0
   -1.7617    0.8549   -0.2106 C   0  0  0  0  0  0  0  0  0  0  0  0
   -2.5726    1.1871   -1.0741 O   0  0  0  0  0  0  0  0  0  0  0  0
   -1.1941    1.7377    0.6223 N   0  0  0  0  0  0  0  0  0  0  0  0
   -0.4976    1.3916    1.2669 H   0  0  0  0  0  0  0  0  0  0  0  0
   -1.4666    3.1722    0.6095 C   0  0  0  0  0  0  0  0  0  0  0  0
   -2.5439    3.3427    0.6539 H   0  0  0  0  0  0  0  0  0  0  0  0
   -0.9893    3.6529    1.4644 H   0  0  0  0  0  0  0  0  0  0  0  0
   -1.0808    3.6095   -0.3129 H   0  0  0  0  0  0  0  0  0  0  0  0
  5  6  2  0  0  0  0
  5  7  1  0  0  0  0
  2  3  1  0  0  0  0
  2  4  1  0  0  0  0
  2  5  1  0  0  0  0
  1  2  1  0  0  0  0
 29 30  2  0  0  0  0
 29 31  1  0  0  0  0
 26 27  1  0  0  0  0
 26 28  2  0  0  0  0
 24 25  1  0  0  0  0
 24 26  1  0  0  0  0
 22 23  1  0  0  0  0
 22 24  2  0  0  0  0
 20 21  1  0  0  0  0
 20 22  1  0  0  0  0
 19 20  2  0  0  0  0
 19 28  1  0  0  0  0
 17 18  1  0  0  0  0
 17 19  1  0  0  0  0
 15 16  1  0  0  0  0
 15 17  1  0  0  0  0
 14 15  2  0  0  0  0
 14 28  1  0  0  0  0
 11 12  1  0  0  0  0
 11 13  1  0  0  0  0
 11 14  1  0  0  0  0
  9 10  1  0  0  0  0
  9 11  1  0  0  0  0
  9 29  1  0  0  0  0
  7  8  1  0  0  0  0
  7  9  1  0  0  0  0
 33 34  1  0  0  0  0
 33 35  1  0  0  0  0
 33 36  1  0  0  0  0
 31 32  1  0  0  0  0
 31 33  1  0  0  0  0
M  END
$$$$
default_name
  -OEChem-02102213163D

 36 37  0     1  0  0  0  0  0999 V2000
   -4.0843   -4.0736    1.2944 H   0  0  0  0  0  0  0  0  0  0  0  0
   -4.0342   -3.2816    0.5484 C   0  0  0  0  0  0  0  0  0  0  0  0
   -4.8842   -2.6126    0.6694 H   0  0  0  0  0  0  0  0  0  0  0  0
   -4.0433   -3.7186   -0.4486 H   0  0  0  0  0  0  0  0  0  0  0  0
   -2.7532   -2.5046    0.7444 C   0  0  0  0  0  0  0  0  0  0  0  0
   -1.9803   -2.8096    1.6434 O   0  0  0  0  0  0  0  0  0  0  0  0
   -2.5332   -1.4966   -0.0966 N   0  0  0  0  0  0  0  0  0  0  0  0
   -3.2312   -1.2816   -0.7936 H   0  0  0  0  0  0  0  0  0  0  0  0
   -1.3593   -0.6196   -0.0536 C   0  0  1  0  0  0  0  0  0  0  0  0
   -0.8788   -0.7266    0.9196 H   0  0  0  0  0  0  0  0  0  0  0  0
   -0.3559   -1.0533   -1.1339 C   0  0  0  0  0  0  0  0  0  0  0  0
   -0.3796   -0.3266   -1.9479 H   0  0  0  0  0  0  0  0  0  0  0  0
    0.6470   -1.0348   -0.7039 H   0  0  0  0  0  0  0  0  0  0  0  0
   -0.5970   -2.4120   -1.7185 C   0  0  0  0  0  0  0  0  0  0  0  0
   -1.7356   -3.1305   -1.5954 C   0  0  0  0  0  0  0  0  0  0  0  0
   -2.6093   -2.8117   -1.0376 H   0  0  0  0  0  0  0  0  0  0  0  0
   -1.6179   -4.3115   -2.3016 N   0  0  0  0  0  0  0  0  0  0  0  0
   -2.3473   -5.0079   -2.3479 H   0  0  0  0  0  0  0  0  0  0  0  0
   -0.3958   -4.4059   -2.9327 C   0  0  0  0  0  0  0  0  0  0  0  0
    0.1776   -5.3729   -3.7709 C   0  0  0  0  0  0  0  0  0  0  0  0
   -0.3703   -6.2668   -4.0303 H   0  0  0  0  0  0  0  0  0  0  0  0
    1.4756   -5.1633   -4.2671 C   0  0  0  0  0  0  0  0  0  0  0  0
    1.9345   -5.8987   -4.9140 H   0  0  0  0  0  0  0  0  0  0  0  0
    2.1807   -3.9977   -3.9155 C   0  0  0  0  0  0  0  0  0  0  0  0
    3.1823   -3.8444   -4.2927 H   0  0  0  0  0  0  0  0  0  0  0  0
    1.5952   -3.0334   -3.0707 C   0  0  0  0  0  0  0  0  0  0  0  0
    2.1530   -2.1488   -2.7977 H   0  0  0  0  0  0  0  0  0  0  0  0
    0.2909   -3.2115   -2.5608 C   0  0  0  0  0  0  0  0  0  0  0  0
   -1.7617    0.8549   -0.2106 C   0  0  0  0  0  0  0  0  0  0  0  0
   -2.5726    1.1871   -1.0741 O   0  0  0  0  0  0  0  0  0  0  0  0
   -1.1941    1.7377    0.6223 N   0  0  0  0  0  0  0  0  0  0  0  0
   -0.4976    1.3916    1.2669 H   0  0  0  0  0  0  0  0  0  0  0  0
   -1.4666    3.1722    0.6095 C   0  0  0  0  0  0  0  0  0  0  0  0
   -2.5439    3.3427    0.6539 H   0  0  0  0  0  0  0  0  0  0  0  0
   -0.9893    3.6529    1.4644 H   0  0  0  0  0  0  0  0  0  0  0  0
   -1.0808    3.6095   -0.3129 H   0  0  0  0  0  0  0  0  0  0  0  0
  5  6  2  0  0  0  0
  5  7  1  0  0  0  0
  2  3  1  0  0  0  0
  2  4  1  0  0  0  0
  2  5  1  0  0  0  0
  1  2  1  0  0  0  0
 29 30  2  0  0  0  0
 29 31  1  0  0  0  0
 26 27  1  0  0  0  0
 26 28  2  0  0  0  0
 24 25  1  0  0  0  0
 24 26  1  0  0  0  0
 22 23  1  0  0  0  0
 22 24  2  0  0  0  0
 20 21  1  0  0  0  0
 20 22  1  0  0  0  0
 19 20  2  0  0  0  0
 19 28  1  0  0  0  0
 17 18  1  0  0  0  0
 17 19  1  0  0  0  0
 15 16  1  0  0  0  0
 15 17  1  0  0  0  0
 14 15  2  0  0  0  0
 14 28  1  0  0  0  0
 11 12  1  0  0  0  0
 11 13  1  0  0  0  0
 11 14  1  0  0  0  0
  9 10  1  0  0  0  0
  9 11  1  0  0  0  0
  9 29  1  0  0  0  0
  7  8  1  0  0  0  0
  7  9  1  0  0  0  0
 33 34  1  0  0  0  0
 33 35  1  0  0  0  0
 33 36  1  0  0  0  0
 31 32  1  0  0  0  0
 31 33  1  0  0  0  0
M  END
$$$$
default_name
  -OEChem-02102213163D

 36 37  0     1  0  0  0  0  0999 V2000
   -4.0843   -4.0736    1.2944 H   0  0  0  0  0  0  0  0  0  0  0  0
   -4.0342   -3.2816    0.5484 C   0  0  0  0  0  0  0  0  0  0  0  0
   -4.8842   -2.6126    0.6694 H   0  0  0  0  0  0  0  0  0  0  0  0
   -4.0433   -3.7186   -0.4486 H   0  0  0  0  0  0  0  0  0  0  0  0
   -2.7532   -2.5046    0.7444 C   0  0  0  0  0  0  0  0  0  0  0  0
   -1.9803   -2.8096    1.6434 O   0  0  0  0  0  0  0  0  0  0  0  0
   -2.5332   -1.4966   -0.0966 N   0  0  0  0  0  0  0  0  0  0  0  0
   -3.2312   -1.2816   -0.7936 H   0  0  0  0  0  0  0  0  0  0  0  0
   -1.3593   -0.6196   -0.0536 C   0  0  1  0  0  0  0  0  0  0  0  0
   -0.8788   -0.7266    0.9196 H   0  0  0  0  0  0  0  0  0  0  0  0
   -0.3559   -1.0533   -1.1339 C   0  0  0  0  0  0  0  0  0  0  0  0
   -0.3796   -0.3266   -1.9479 H   0  0  0  0  0  0  0  0  0  0  0  0
    0.6470   -1.0348   -0.7039 H   0  0  0  0  0  0  0  0  0  0  0  0
   -0.5970   -2.4120   -1.7185 C   0  0  0  0  0  0  0  0  0  0  0  0
   -1.8025   -3.0102   -1.8473 C   0  0  0  0  0  0  0  0  0  0  0  0
   -2.7432   -2.5796   -1.5219 H   0  0  0  0  0  0  0  0  0  0  0  0
   -1.6496   -4.2333   -2.4703 N   0  0  0  0  0  0  0  0  0  0  0  0
   -2.4178   -4.8580   -2.6674 H   0  0  0  0  0  0  0  0  0  0  0  0
   -0.3313   -4.4783   -2.7910 C   0  0  0  0  0  0  0  0  0  0  0  0
    0.3155   -5.5395   -3.4406 C   0  0  0  0  0  0  0  0  0  0  0  0
   -0.2487   -6.3893   -3.7957 H   0  0  0  0  0  0  0  0  0  0  0  0
    1.7080   -5.4824   -3.6212 C   0  0  0  0  0  0  0  0  0  0  0  0
    2.2241   -6.2921   -4.1191 H   0  0  0  0  0  0  0  0  0  0  0  0
    2.4314   -4.3727   -3.1473 C   0  0  0  0  0  0  0  0  0  0  0  0
    3.5037   -4.3367   -3.2811 H   0  0  0  0  0  0  0  0  0  0  0  0
    1.7711   -3.3127   -2.4941 C   0  0  0  0  0  0  0  0  0  0  0  0
    2.3405   -2.4723   -2.1231 H   0  0  0  0  0  0  0  0  0  0  0  0
    0.3726   -3.3371   -2.3026 C   0  0  0  0  0  0  0  0  0  0  0  0
   -1.7617    0.8549   -0.2106 C   0  0  0  0  0  0  0  0  0  0  0  0
   -2.5726    1.1871   -1.0741 O   0  0  0  0  0  0  0  0  0  0  0  0
   -1.1941    1.7377    0.6223 N   0  0  0  0  0  0  0  0  0  0  0  0
   -0.4976    1.3916    1.2669 H   0  0  0  0  0  0  0  0  0  0  0  0
   -1.4666    3.1722    0.6095 C   0  0  0  0  0  0  0  0  0  0  0  0
   -2.5439    3.3427    0.6539 H   0  0  0  0  0  0  0  0  0  0  0  0
   -0.9893    3.6529    1.4644 H   0  0  0  0  0  0  0  0  0  0  0  0
   -1.0808    3.6095   -0.3129 H   0  0  0  0  0  0  0  0  0  0  0  0
  5  6  2  0  0  0  0
  5  7  1  0  0  0  0
  2  3  1  0  0  0  0
  2  4  1  0  0  0  0
  2  5  1  0  0  0  0
  1  2  1  0  0  0  0
 29 30  2  0  0  0  0
 29 31  1  0  0  0  0
 26 27  1  0  0  0  0
 26 28  2  0  0  0  0
 24 25  1  0  0  0  0
 24 26  1  0  0  0  0
 22 23  1  0  0  0  0
 22 24  2  0  0  0  0
 20 21  1  0  0  0  0
 20 22  1  0  0  0  0
 19 20  2  0  0  0  0
 19 28  1  0  0  0  0
 17 18  1  0  0  0  0
 17 19  1  0  0  0  0
 15 16  1  0  0  0  0
 15 17  1  0  0  0  0
 14 15  2  0  0  0  0
 14 28  1  0  0  0  0
 11 12  1  0  0  0  0
 11 13  1  0  0  0  0
 11 14  1  0  0  0  0
  9 10  1  0  0  0  0
  9 11  1  0  0  0  0
  9 29  1  0  0  0  0
  7  8  1  0  0  0  0
  7  9  1  0  0  0  0
 33 34  1  0  0  0  0
 33 35  1  0  0  0  0
 33 36  1  0  0  0  0
 31 32  1  0  0  0  0
 31 33  1  0  0  0  0
M  END
$$$$
default_name
  -OEChem-02102213163D

 36 37  0     1  0  0  0  0  0999 V2000
   -4.0843   -4.0736    1.2944 H   0  0  0  0  0  0  0  0  0  0  0  0
   -4.0342   -3.2816    0.5484 C   0  0  0  0  0  0  0  0  0  0  0  0
   -4.8842   -2.6126    0.6694 H   0  0  0  0  0  0  0  0  0  0  0  0
   -4.0433   -3.7186   -0.4486 H   0  0  0  0  0  0  0  0  0  0  0  0
   -2.7532   -2.5046    0.7444 C   0  0  0  0  0  0  0  0  0  0  0  0
   -1.9803   -2.8096    1.6434 O   0  0  0  0  0  0  0  0  0  0  0  0
   -2.5332   -1.4966   -0.0966 N   0  0  0  0  0  0  0  0  0  0  0  0
   -3.2312   -1.2816   -0.7936 H   0  0  0  0  0  0  0  0  0  0  0  0
   -1.3593   -0.6196   -0.0536 C   0  0  1  0  0  0  0  0  0  0  0  0
   -0.8788   -0.7266    0.9196 H   0  0  0  0  0  0  0  0  0  0  0  0
   -0.3559   -1.0533   -1.1339 C   0  0  0  0  0  0  0  0  0  0  0  0
   -0.3796   -0.3266   -1.9479 H   0  0  0  0  0  0  0  0  0  0  0  0
    0.6470   -1.0348   -0.7039 H   0  0  0  0  0  0  0  0  0  0  0  0
   -0.5970   -2.4120   -1.7185 C   0  0  0  0  0  0  0  0  0  0  0  0
   -1.7959   -2.8978   -2.1113 C   0  0  0  0  0  0  0  0  0  0  0  0
   -2.7354   -2.3620   -2.0308 H   0  0  0  0  0  0  0  0  0  0  0  0
   -1.6328   -4.1616   -2.6439 N   0  0  0  0  0  0  0  0  0  0  0  0
   -2.3959   -4.7193   -2.9987 H   0  0  0  0  0  0  0  0  0  0  0  0
   -0.3096   -4.5489   -2.6359 C   0  0  0  0  0  0  0  0  0  0  0  0
    0.3543   -5.7006   -3.0822 C   0  0  0  0  0  0  0  0  0  0  0  0
   -0.1985   -6.5102   -3.5355 H   0  0  0  0  0  0  0  0  0  0  0  0
    1.7487   -5.7872   -2.9296 C   0  0  0  0  0  0  0  0  0  0  0  0
    2.2777   -6.6683   -3.2669 H   0  0  0  0  0  0  0  0  0  0  0  0
    2.4554   -4.7282   -2.3309 C   0  0  0  0  0  0  0  0  0  0  0  0
    3.5270   -4.8025   -2.2079 H   0  0  0  0  0  0  0  0  0  0  0  0
    1.7774   -3.5762   -1.8843 C   0  0  0  0  0  0  0  0  0  0  0  0
    2.3307   -2.7757   -1.4141 H   0  0  0  0  0  0  0  0  0  0  0  0
    0.3783   -3.4559   -2.0287 C   0  0  0  0  0  0  0  0  0  0  0  0
   -1.7617    0.8549   -0.2106 C   0  0  0  0  0  0  0  0  0  0  0  0
   -2.5726    1.1871   -1.0741 O   0  0  0  0  0  0  0  0  0  0  0  0
   -1.1941    1.7377    0.6223 N   0  0  0  0  0  0  0  0  0  0  0  0
   -0.4976    1.3916    1.2669 H   0  0  0  0  0  0  0  0  0  0  0  0
   -1.4666    3.1722    0.6095 C   0  0  0  0  0  0  0  0  0  0  0  0
   -2.5439    3.3427    0.6539 H   0  0  0  0  0  0  0  0  0  0  0  0
   -0.9893    3.6529    1.4644 H   0  0  0  0  0  0  0  0  0  0  0  0
   -1.0808    3.6095   -0.3129 H   0  0  0  0  0  0  0  0  0  0  0  0
  5  6  2  0  0  0  0
  5  7  1  0  0  0  0
  2  3  1  0  0  0  0
  2  4  1  0  0  0  0
  2  5  1  0  0  0  0
  1  2  1  0  0  0  0
 29 30  2  0  0  0  0
 29 31  1  0  0  0  0
 26 27  1  0  0  0  0
 26 28  2  0  0  0  0
 24 25  1  0  0  0  0
 24 26  1  0  0  0  0
 22 23  1  0  0  0  0
 22 24  2  0  0  0  0
 20 21  1  0  0  0  0
 20 22  1  0  0  0  0
 19 20  2  0  0  0  0
 19 28  1  0  0  0  0
 17 18  1  0  0  0  0
 17 19  1  0  0  0  0
 15 16  1  0  0  0  0
 15 17  1  0  0  0  0
 14 15  2  0  0  0  0
 14 28  1  0  0  0  0
 11 12  1  0  0  0  0
 11 13  1  0  0  0  0
 11 14  1  0  0  0  0
  9 10  1  0  0  0  0
  9 11  1  0  0  0  0
  9 29  1  0  0  0  0
  7  8  1  0  0  0  0
  7  9  1  0  0  0  0
 33 34  1  0  0  0  0
 33 35  1  0  0  0  0
 33 36  1  0  0  0  0
 31 32  1  0  0  0  0
 31 33  1  0  0  0  0
M  END
$$$$
default_name
  -OEChem-02102213163D

 36 37  0     1  0  0  0  0  0999 V2000
   -4.0843   -4.0736    1.2944 H   0  0  0  0  0  0  0  0  0  0  0  0
   -4.0342   -3.2816    0.5484 C   0  0  0  0  0  0  0  0  0  0  0  0
   -4.8842   -2.6126    0.6694 H   0  0  0  0  0  0  0  0  0  0  0  0
   -4.0433   -3.7186   -0.4486 H   0  0  0  0  0  0  0  0  0  0  0  0
   -2.7532   -2.5046    0.7444 C   0  0  0  0  0  0  0  0  0  0  0  0
   -1.9803   -2.8096    1.6434 O   0  0  0  0  0  0  0  0  0  0  0  0
   -2.5332   -1.4966   -0.0966 N   0  0  0  0  0  0  0  0  0  0  0  0
   -3.2312   -1.2816   -0.7936 H   0  0  0  0  0  0  0  0  0  0  0  0
   -1.3593   -0.6196   -0.0536 C   0  0  1  0  0  0  0  0  0  0  0  0
   -0.8788   -0.7266    0.9196 H   0  0  0  0  0  0  0  0  0  0  0  0
   -0.3559   -1.0533   -1.1339 C   0  0  0  0  0  0  0  0  0  0  0  0
   -0.3796   -0.3266   -1.9479 H   0  0  0  0  0  0  0  0  0  0  0  0
    0.6470   -1.0348   -0.7039 H   0  0  0  0  0  0  0  0  0  0  0  0
   -0.5970   -2.4120   -1.7185 C   0  0  0  0  0  0  0  0  0  0  0  0
   -1.7163   -2.8009   -2.3695 C   0  0  0  0  0  0  0  0  0  0  0  0
   -2.5865   -2.1738   -2.5296 H   0  0  0  0  0  0  0  0  0  0  0  0
   -1.5686   -4.1013   -2.8107 N   0  0  0  0  0  0  0  0  0  0  0  0
   -2.2829   -4.6014   -3.3194 H   0  0  0  0  0  0  0  0  0  0  0  0
   -0.3322   -4.6127   -2.4781 C   0  0  0  0  0  0  0  0  0  0  0  0
    0.2915   -5.8451   -2.7202 C   0  0  0  0  0  0  0  0  0  0  0  0
   -0.2234   -6.6211   -3.2673 H   0  0  0  0  0  0  0  0  0  0  0  0
    1.5949   -6.0569   -2.2393 C   0  0  0  0  0  0  0  0  0  0  0  0
    2.0914   -7.0015   -2.4155 H   0  0  0  0  0  0  0  0  0  0  0  0
    2.2512   -5.0400   -1.5219 C   0  0  0  0  0  0  0  0  0  0  0  0
    3.2508   -5.2102   -1.1465 H   0  0  0  0  0  0  0  0  0  0  0  0
    1.6139   -3.8059   -1.2828 C   0  0  0  0  0  0  0  0  0  0  0  0
    2.1242   -3.0381   -0.7188 H   0  0  0  0  0  0  0  0  0  0  0  0
    0.3075   -3.5598   -1.7579 C   0  0  0  0  0  0  0  0  0  0  0  0
   -1.7617    0.8549   -0.2106 C   0  0  0  0  0  0  0  0  0  0  0  0
   -2.5726    1.1871   -1.0741 O   0  0  0  0  0  0  0  0  0  0  0  0
   -1.1941    1.7377    0.6223 N   0  0  0  0  0  0  0  0  0  0  0  0
   -0.4976    1.3916    1.2669 H   0  0  0  0  0  0  0  0  0  0  0  0
   -1.4666    3.1722    0.6095 C   0  0  0  0  0  0  0  0  0  0  0  0
   -2.5439    3.3427    0.6539 H   0  0  0  0  0  0  0  0  0  0  0  0
   -0.9893    3.6529    1.4644 H   0  0  0  0  0  0  0  0  0  0  0  0
   -1.0808    3.6095   -0.3129 H   0  0  0  0  0  0  0  0  0  0  0  0
  5  6  2  0  0  0  0
  5  7  1  0  0  0  0
  2  3  1  0  0  0  0
  2  4  1  0  0  0  0
  2  5  1  0  0  0  0
  1  2  1  0  0  0  0
 29 30  2  0  0  0  0
 29 31  1  0  0  0  0
 26 27  1  0  0  0  0
 26 28  2  0  0  0  0
 24 25  1  0  0  0  0
 24 26  1  0  0  0  0
 22 23  1  0  0  0  0
 22 24  2  0  0  0  0
 20 21  1  0  0  0  0
 20 22  1  0  0  0  0
 19 20  2  0  0  0  0
 19 28  1  0  0  0  0
 17 18  1  0  0  0  0
 17 19  1  0  0  0  0
 15 16  1  0  0  0  0
 15 17  1  0  0  0  0
 14 15  2  0  0  0  0
 14 28  1  0  0  0  0
 11 12  1  0  0  0  0
 11 13  1  0  0  0  0
 11 14  1  0  0  0  0
  9 10  1  0  0  0  0
  9 11  1  0  0  0  0
  9 29  1  0  0  0  0
  7  8  1  0  0  0  0
  7  9  1  0  0  0  0
 33 34  1  0  0  0  0
 33 35  1  0  0  0  0
 33 36  1  0  0  0  0
 31 32  1  0  0  0  0
 31 33  1  0  0  0  0
M  END
$$$$
default_name
  -OEChem-02102213163D

 36 37  0     1  0  0  0  0  0999 V2000
   -4.0843   -4.0736    1.2944 H   0  0  0  0  0  0  0  0  0  0  0  0
   -4.0342   -3.2816    0.5484 C   0  0  0  0  0  0  0  0  0  0  0  0
   -4.8842   -2.6126    0.6694 H   0  0  0  0  0  0  0  0  0  0  0  0
   -4.0433   -3.7186   -0.4486 H   0  0  0  0  0  0  0  0  0  0  0  0
   -2.7532   -2.5046    0.7444 C   0  0  0  0  0  0  0  0  0  0  0  0
   -1.9803   -2.8096    1.6434 O   0  0  0  0  0  0  0  0  0  0  0  0
   -2.5332   -1.4966   -0.0966 N   0  0  0  0  0  0  0  0  0  0  0  0
   -3.2312   -1.2816   -0.7936 H   0  0  0  0  0  0  0  0  0  0  0  0
   -1.3593   -0.6196   -0.0536 C   0  0  1  0  0  0  0  0  0  0  0  0
   -0.8788   -0.7266    0.9196 H   0  0  0  0  0  0  0  0  0  0  0  0
   -0.3559   -1.0533   -1.1339 C   0  0  0  0  0  0  0  0  0  0  0  0
   -0.3796   -0.3266   -1.9479 H   0  0  0  0  0  0  0  0  0  0  0  0
    0.6470   -1.0348   -0.7039 H   0  0  0  0  0  0  0  0  0  0  0  0
   -0.5970   -2.4120   -1.7185 C   0  0  0  0  0  0  0  0  0  0  0  0
   -1.5689   -2.7261   -2.6042 C   0  0  0  0  0  0  0  0  0  0  0  0
   -2.3066   -2.0279   -2.9843 H   0  0  0  0  0  0  0  0  0  0  0  0
   -1.4613   -4.0564   -2.9591 N   0  0  0  0  0  0  0  0  0  0  0  0
   -2.0866   -4.5123   -3.6075 H   0  0  0  0  0  0  0  0  0  0  0  0
   -0.3975   -4.6656   -2.3283 C   0  0  0  0  0  0  0  0  0  0  0  0
    0.1313   -5.9634   -2.3792 C   0  0  0  0  0  0  0  0  0  0  0  0
   -0.3215   -6.7146   -3.0095 H   0  0  0  0  0  0  0  0  0  0  0  0
    1.2572   -6.2731   -1.5973 C   0  0  0  0  0  0  0  0  0  0  0  0
    1.6781   -7.2692   -1.6229 H   0  0  0  0  0  0  0  0  0  0  0  0
    1.8326   -5.2869   -0.7754 C   0  0  0  0  0  0  0  0  0  0  0  0
    2.6937   -5.5318   -0.1691 H   0  0  0  0  0  0  0  0  0  0  0  0
    1.2915   -3.9863   -0.7306 C   0  0  0  0  0  0  0  0  0  0  0  0
    1.7352   -3.2418   -0.0848 H   0  0  0  0  0  0  0  0  0  0  0  0
    0.1650   -3.6418   -1.5086 C   0  0  0  0  0  0  0  0  0  0  0  0
   -1.7617    0.8549   -0.2106 C   0  0  0  0  0  0  0  0  0  0  0  0
   -2.5726    1.1871   -1.0741 O   0  0  0  0  0  0  0  0  0  0  0  0
   -1.1941    1.7377    0.6223 N   0  0  0  0  0  0  0  0  0  0  0  0
   -0.4976    1.3916    1.2669 H   0  0  0  0  0  0  0  0  0  0  0  0
   -1.4666    3.1722    0.6095 C   0  0  0  0  0  0  0  0  0  0  0  0
   -2.5439    3.3427    0.6539 H   0  0  0  0  0  0  0  0  0  0  0  0
   -0.9893    3.6529    1.4644 H   0  0  0  0  0  0  0  0  0  0  0  0
   -1.0808    3.6095   -0.3129 H   0  0  0  0  0  0  0  0  0  0  0  0
  5  6  2  0  0  0  0
  5  7  1  0  0  0  0
  2  3  1  0  0  0  0
  2  4  1  0  0  0  0
  2  5  1  0  0  0  0
  1  2  1  0  0  0  0
 29 30  2  0  0  0  0
 29 31  1  0  0  0  0
 26 27  1  0  0  0  0
 26 28  2  0  0  0  0
 24 25  1  0  0  0  0
 24 26  1  0  0  0  0
 22 23  1  0  0  0  0
 22 24  2  0  0  0  0
 20 21  1  0  0  0  0
 20 22  1  0  0  0  0
 19 20  2  0  0  0  0
 19 28  1  0  0  0  0
 17 18  1  0  0  0  0
 17 19  1  0  0  0  0
 15 16  1  0  0  0  0
 15 17  1  0  0  0  0
 14 15  2  0  0  0  0
 14 28  1  0  0  0  0
 11 12  1  0  0  0  0
 11 13  1  0  0  0  0
 11 14  1  0  0  0  0
  9 10  1  0  0  0  0
  9 11  1  0  0  0  0
  9 29  1  0  0  0  0
  7  8  1  0  0  0  0
  7  9  1  0  0  0  0
 33 34  1  0  0  0  0
 33 35  1  0  0  0  0
 33 36  1  0  0  0  0
 31 32  1  0  0  0  0
 31 33  1  0  0  0  0
M  END
$$$$
default_name
  -OEChem-02102213163D

 36 37  0     1  0  0  0  0  0999 V2000
   -4.0843   -4.0736    1.2944 H   0  0  0  0  0  0  0  0  0  0  0  0
   -4.0342   -3.2816    0.5484 C   0  0  0  0  0  0  0  0  0  0  0  0
   -4.8842   -2.6126    0.6694 H   0  0  0  0  0  0  0  0  0  0  0  0
   -4.0433   -3.7186   -0.4486 H   0  0  0  0  0  0  0  0  0  0  0  0
   -2.7532   -2.5046    0.7444 C   0  0  0  0  0  0  0  0  0  0  0  0
   -1.9803   -2.8096    1.6434 O   0  0  0  0  0  0  0  0  0  0  0  0
   -2.5332   -1.4966   -0.0966 N   0  0  0  0  0  0  0  0  0  0  0  0
   -3.2312   -1.2816   -0.7936 H   0  0  0  0  0  0  0  0  0  0  0  0
   -1.3593   -0.6196   -0.0536 C   0  0  1  0  0  0  0  0  0  0  0  0
   -0.8788   -0.7266    0.9196 H   0  0  0  0  0  0  0  0  0  0  0  0
   -0.3559   -1.0533   -1.1339 C   0  0  0  0  0  0  0  0  0  0  0  0
   -0.3796   -0.3266   -1.9479 H   0  0  0  0  0  0  0  0  0  0  0  0
    0.6470   -1.0348   -0.7039 H   0  0  0  0  0  0  0  0  0  0  0  0
   -0.5970   -2.4120   -1.7185 C   0  0  0  0  0  0  0  0  0  0  0  0
   -1.3640   -2.6784   -2.7994 C   0  0  0  0  0  0  0  0  0  0  0  0
   -1.9149   -1.9341   -3.3639 H   0  0  0  0  0  0  0  0  0  0  0  0
   -1.3183   -4.0301   -3.0793 N   0  0  0  0  0  0  0  0  0  0  0  0
   -1.8204   -4.4580   -3.8435 H   0  0  0  0  0  0  0  0  0  0  0  0
   -0.5010   -4.7038   -2.1968 C   0  0  0  0  0  0  0  0  0  0  0  0
   -0.1155   -6.0472   -2.0826 C   0  0  0  0  0  0  0  0  0  0  0  0
   -0.4862   -6.7843   -2.7796 H   0  0  0  0  0  0  0  0  0  0  0  0
    0.7585   -6.4212   -1.0475 C   0  0  0  0  0  0  0  0  0  0  0  0
    1.0659   -7.4529   -0.9432 H   0  0  0  0  0  0  0  0  0  0  0  0
    1.2281   -5.4520   -0.1422 C   0  0  0  0  0  0  0  0  0  0  0  0
    1.8937   -5.7455    0.6577 H   0  0  0  0  0  0  0  0  0  0  0  0
    0.8324   -4.1049   -0.2654 C   0  0  0  0  0  0  0  0  0  0  0  0
    1.1900   -3.3729    0.4448 H   0  0  0  0  0  0  0  0  0  0  0  0
   -0.0393   -3.6962   -1.2978 C   0  0  0  0  0  0  0  0  0  0  0  0
   -1.7617    0.8549   -0.2106 C   0  0  0  0  0  0  0  0  0  0  0  0
   -2.5726    1.1871   -1.0741 O   0  0  0  0  0  0  0  0  0  0  0  0
   -1.1941    1.7377    0.6223 N   0  0  0  0  0  0  0  0  0  0  0  0
   -0.4976    1.3916    1.2669 H   0  0  0  0  0  0  0  0  0  0  0  0
   -1.4666    3.1722    0.6095 C   0  0  0  0  0  0  0  0  0  0  0  0
   -2.5439    3.3427    0.6539 H   0  0  0  0  0  0  0  0  0  0  0  0
   -0.9893    3.6529    1.4644 H   0  0  0  0  0  0  0  0  0  0  0  0
   -1.0808    3.6095   -0.3129 H   0  0  0  0  0  0  0  0  0  0  0  0
  5  6  2  0  0  0  0
  5  7  1  0  0  0  0
  2  3  1  0  0  0  0
  2  4  1  0  0  0  0
  2  5  1  0  0  0  0
  1  2  1  0  0  0  0
 29 30  2  0  0  0  0
 29 31  1  0  0  0  0
 26 27  1  0  0  0  0
 26 28  2  0  0  0  0
 24 25  1  0  0  0  0
 24 26  1  0  0  0  0
 22 23  1  0  0  0  0
 22 24  2  0  0  0  0
 20 21  1  0  0  0  0
 20 22  1  0  0  0  0
 19 20  2  0  0  0  0
 19 28  1  0  0  0  0
 17 18  1  0  0  0  0
 17 19  1  0  0  0  0
 15 16  1  0  0  0  0
 15 17  1  0  0  0  0
 14 15  2  0  0  0  0
 14 28  1  0  0  0  0
 11 12  1  0  0  0  0
 11 13  1  0  0  0  0
 11 14  1  0  0  0  0
  9 10  1  0  0  0  0
  9 11  1  0  0  0  0
  9 29  1  0  0  0  0
  7  8  1  0  0  0  0
  7  9  1  0  0  0  0
 33 34  1  0  0  0  0
 33 35  1  0  0  0  0
 33 36  1  0  0  0  0
 31 32  1  0  0  0  0
 31 33  1  0  0  0  0
M  END
$$$$
default_name
  -OEChem-02102213163D

 36 37  0     1  0  0  0  0  0999 V2000
   -4.0843   -4.0736    1.2944 H   0  0  0  0  0  0  0  0  0  0  0  0
   -4.0342   -3.2816    0.5484 C   0  0  0  0  0  0  0  0  0  0  0  0
   -4.8842   -2.6126    0.6694 H   0  0  0  0  0  0  0  0  0  0  0  0
   -4.0433   -3.7186   -0.4486 H   0  0  0  0  0  0  0  0  0  0  0  0
   -2.7532   -2.5046    0.7444 C   0  0  0  0  0  0  0  0  0  0  0  0
   -1.9803   -2.8096    1.6434 O   0  0  0  0  0  0  0  0  0  0  0  0
   -2.5332   -1.4966   -0.0966 N   0  0  0  0  0  0  0  0  0  0  0  0
   -3.2312   -1.2816   -0.7936 H   0  0  0  0  0  0  0  0  0  0  0  0
   -1.3593   -0.6196   -0.0536 C   0  0  1  0  0  0  0  0  0  0  0  0
   -0.8788   -0.7266    0.9196 H   0  0  0  0  0  0  0  0  0  0  0  0
   -0.3559   -1.0533   -1.1339 C   0  0  0  0  0  0  0  0  0  0  0  0
   -0.3796   -0.3266   -1.9479 H   0  0  0  0  0  0  0  0  0  0  0  0
    0.6470   -1.0348   -0.7039 H   0  0  0  0  0  0  0  0  0  0  0  0
   -0.5970   -2.4120   -1.7185 C   0  0  0  0  0  0  0  0  0  0  0  0
   -1.1154   -2.6612   -2.9419 C   0  0  0  0  0  0  0  0  0  0  0  0
   -1.4379   -1.8988   -3.6426 H   0  0  0  0  0  0  0  0  0  0  0  0
   -1.1494   -4.0241   -3.1629 N   0  0  0  0  0  0  0  0  0  0  0  0
   -1.5024   -4.4423   -4.0112 H   0  0  0  0  0  0  0  0  0  0  0  0
   -0.6357   -4.7248   -2.0924 C   0  0  0  0  0  0  0  0  0  0  0  0
   -0.4318   -6.0910   -1.8504 C   0  0  0  0  0  0  0  0  0  0  0  0
   -0.7063   -6.8254   -2.5933 H   0  0  0  0  0  0  0  0  0  0  0  0
    0.1328   -6.4909   -0.6272 C   0  0  0  0  0  0  0  0  0  0  0  0
    0.2965   -7.5403   -0.4226 H   0  0  0  0  0  0  0  0  0  0  0  0
    0.4790   -5.5241    0.3344 C   0  0  0  0  0  0  0  0  0  0  0  0
    0.9055   -5.8368    1.2775 H   0  0  0  0  0  0  0  0  0  0  0  0
    0.2678   -4.1539    0.0812 C   0  0  0  0  0  0  0  0  0  0  0  0
    0.5259   -3.4225    0.8339 H   0  0  0  0  0  0  0  0  0  0  0  0
   -0.2917   -3.7194   -1.1399 C   0  0  0  0  0  0  0  0  0  0  0  0
   -1.7617    0.8549   -0.2106 C   0  0  0  0  0  0  0  0  0  0  0  0
   -2.5726    1.1871   -1.0741 O   0  0  0  0  0  0  0  0  0  0  0  0
   -1.1941    1.7377    0.6223 N   0  0  0  0  0  0  0  0  0  0  0  0
   -0.4976    1.3916    1.2669 H   0  0  0  0  0  0  0  0  0  0  0  0
   -1.4666    3.1722    0.6095 C   0  0  0  0  0  0  0  0  0  0  0  0
   -2.5439    3.3427    0.6539 H   0  0  0  0  0  0  0  0  0  0  0  0
   -0.9893    3.6529    1.4644 H   0  0  0  0  0  0  0  0  0  0  0  0
   -1.0808    3.6095   -0.3129 H   0  0  0  0  0  0  0  0  0  0  0  0
  5  6  2  0  0  0  0
  5  7  1  0  0  0  0
  2  3  1  0  0  0  0
  2  4  1  0  0  0  0
  2  5  1  0  0  0  0
  1  2  1  0  0  0  0
 29 30  2  0  0  0  0
 29 31  1  0  0  0  0
 26 27  1  0  0  0  0
 26 28  2  0  0  0  0
 24 25  1  0  0  0  0
 24 26  1  0  0  0  0
 22 23  1  0  0  0  0
 22 24  2  0  0  0  0
 20 21  1  0  0  0  0
 20 22  1  0  0  0  0
 19 20  2  0  0  0  0
 19 28  1  0  0  0  0
 17 18  1  0  0  0  0
 17 19  1  0  0  0  0
 15 16  1  0  0  0  0
 15 17  1  0  0  0  0
 14 15  2  0  0  0  0
 14 28  1  0  0  0  0
 11 12  1  0  0  0  0
 11 13  1  0  0  0  0
 11 14  1  0  0  0  0
  9 10  1  0  0  0  0
  9 11  1  0  0  0  0
  9 29  1  0  0  0  0
  7  8  1  0  0  0  0
  7  9  1  0  0  0  0
 33 34  1  0  0  0  0
 33 35  1  0  0  0  0
 33 36  1  0  0  0  0
 31 32  1  0  0  0  0
 31 33  1  0  0  0  0
M  END
$$$$
default_name
  -OEChem-02102213163D

 36 37  0     1  0  0  0  0  0999 V2000
   -4.0843   -4.0736    1.2944 H   0  0  0  0  0  0  0  0  0  0  0  0
   -4.0342   -3.2816    0.5484 C   0  0  0  0  0  0  0  0  0  0  0  0
   -4.8842   -2.6126    0.6694 H   0  0  0  0  0  0  0  0  0  0  0  0
   -4.0433   -3.7186   -0.4486 H   0  0  0  0  0  0  0  0  0  0  0  0
   -2.7532   -2.5046    0.7444 C   0  0  0  0  0  0  0  0  0  0  0  0
   -1.9803   -2.8096    1.6434 O   0  0  0  0  0  0  0  0  0  0  0  0
   -2.5332   -1.4966   -0.0966 N   0  0  0  0  0  0  0  0  0  0  0  0
   -3.2312   -1.2816   -0.7936 H   0  0  0  0  0  0  0  0  0  0  0  0
   -1.3593   -0.6196   -0.0536 C   0  0  1  0  0  0  0  0  0  0  0  0
   -0.8788   -0.7266    0.9196 H   0  0  0  0  0  0  0  0  0  0  0  0
   -0.3559   -1.0533   -1.1339 C   0  0  0  0  0  0  0  0  0  0  0  0
   -0.3796   -0.3266   -1.9479 H   0  0  0  0  0  0  0  0  0  0  0  0
    0.6470   -1.0348   -0.7039 H   0  0  0  0  0  0  0  0  0  0  0  0
   -0.5970   -2.4120   -1.7185 C   0  0  0  0  0  0  0  0  0  0  0  0
   -0.8401   -2.6757   -3.0219 C   0  0  0  0  0  0  0  0  0  0  0  0
   -0.9083   -1.9246   -3.8013 H   0  0  0  0  0  0  0  0  0  0  0  0
   -0.9660   -4.0389   -3.2042 N   0  0  0  0  0  0  0  0  0  0  0  0
   -1.1543   -4.4662   -4.0993 H   0  0  0  0  0  0  0  0  0  0  0  0
   -0.7925   -4.7272   -2.0223 C   0  0  0  0  0  0  0  0  0  0  0  0
   -0.7963   -6.0916   -1.6986 C   0  0  0  0  0  0  0  0  0  0  0  0
   -0.9667   -6.8351   -2.4633 H   0  0  0  0  0  0  0  0  0  0  0  0
   -0.5772   -6.4776   -0.3652 C   0  0  0  0  0  0  0  0  0  0  0  0
   -0.5777   -7.5254   -0.0967 H   0  0  0  0  0  0  0  0  0  0  0  0
   -0.3636   -5.4983    0.6220 C   0  0  0  0  0  0  0  0  0  0  0  0
   -0.2038   -5.7994    1.6481 H   0  0  0  0  0  0  0  0  0  0  0  0
   -0.3639   -4.1297    0.2856 C   0  0  0  0  0  0  0  0  0  0  0  0
   -0.2118   -3.3871    1.0560 H   0  0  0  0  0  0  0  0  0  0  0  0
   -0.5748   -3.7097   -1.0456 C   0  0  0  0  0  0  0  0  0  0  0  0
   -1.7617    0.8549   -0.2106 C   0  0  0  0  0  0  0  0  0  0  0  0
   -2.5726    1.1871   -1.0741 O   0  0  0  0  0  0  0  0  0  0  0  0
   -1.1941    1.7377    0.6223 N   0  0  0  0  0  0  0  0  0  0  0  0
   -0.4976    1.3916    1.2669 H   0  0  0  0  0  0  0  0  0  0  0  0
   -1.4666    3.1722    0.6095 C   0  0  0  0  0  0  0  0  0  0  0  0
   -2.5439    3.3427    0.6539 H   0  0  0  0  0  0  0  0  0  0  0  0
   -0.9893    3.6529    1.4644 H   0  0  0  0  0  0  0  0  0  0  0  0
   -1.0808    3.6095   -0.3129 H   0  0  0  0  0  0  0  0  0  0  0  0
  5  6  2  0  0  0  0
  5  7  1  0  0  0  0
  2  3  1  0  0  0  0
  2  4  1  0  0  0  0
  2  5  1  0  0  0  0
  1  2  1  0  0  0  0
 29 30  2  0  0  0  0
 29 31  1  0  0  0  0
 26 27  1  0  0  0  0
 26 28  2  0  0  0  0
 24 25  1  0  0  0  0
 24 26  1  0  0  0  0
 22 23  1  0  0  0  0
 22 24  2  0  0  0  0
 20 21  1  0  0  0  0
 20 22  1  0  0  0  0
 19 20  2  0  0  0  0
 19 28  1  0  0  0  0
 17 18  1  0  0  0  0
 17 19  1  0  0  0  0
 15 16  1  0  0  0  0
 15 17  1  0  0  0  0
 14 15  2  0  0  0  0
 14 28  1  0  0  0  0
 11 12  1  0  0  0  0
 11 13  1  0  0  0  0
 11 14  1  0  0  0  0
  9 10  1  0  0  0  0
  9 11  1  0  0  0  0
  9 29  1  0  0  0  0
  7  8  1  0  0  0  0
  7  9  1  0  0  0  0
 33 34  1  0  0  0  0
 33 35  1  0  0  0  0
 33 36  1  0  0  0  0
 31 32  1  0  0  0  0
 31 33  1  0  0  0  0
M  END
$$$$
default_name
  -OEChem-02102213163D

 36 37  0     1  0  0  0  0  0999 V2000
   -4.0843   -4.0736    1.2944 H   0  0  0  0  0  0  0  0  0  0  0  0
   -4.0342   -3.2816    0.5484 C   0  0  0  0  0  0  0  0  0  0  0  0
   -4.8842   -2.6126    0.6694 H   0  0  0  0  0  0  0  0  0  0  0  0
   -4.0433   -3.7186   -0.4486 H   0  0  0  0  0  0  0  0  0  0  0  0
   -2.7532   -2.5046    0.7444 C   0  0  0  0  0  0  0  0  0  0  0  0
   -1.9803   -2.8096    1.6434 O   0  0  0  0  0  0  0  0  0  0  0  0
   -2.5332   -1.4966   -0.0966 N   0  0  0  0  0  0  0  0  0  0  0  0
   -3.2312   -1.2816   -0.7936 H   0  0  0  0  0  0  0  0  0  0  0  0
   -1.3593   -0.6196   -0.0536 C   0  0  1  0  0  0  0  0  0  0  0  0
   -0.8788   -0.7266    0.9196 H   0  0  0  0  0  0  0  0  0  0  0  0
   -0.3559   -1.0533   -1.1339 C   0  0  0  0  0  0  0  0  0  0  0  0
   -0.3796   -0.3266   -1.9479 H   0  0  0  0  0  0  0  0  0  0  0  0
    0.6470   -1.0348   -0.7039 H   0  0  0  0  0  0  0  0  0  0  0  0
   -0.5970   -2.4120   -1.7185 C   0  0  0  0  0  0  0  0  0  0  0  0
   -0.5569   -2.7207   -3.0340 C   0  0  0  0  0  0  0  0  0  0  0  0
   -0.3620   -2.0095   -3.8292 H   0  0  0  0  0  0  0  0  0  0  0  0
   -0.7806   -4.0734   -3.2005 N   0  0  0  0  0  0  0  0  0  0  0  0
   -0.7998   -4.5281   -4.1017 H   0  0  0  0  0  0  0  0  0  0  0  0
   -0.9606   -4.7107   -1.9913 C   0  0  0  0  0  0  0  0  0  0  0  0
   -1.1841   -6.0491   -1.6375 C   0  0  0  0  0  0  0  0  0  0  0  0
   -1.2498   -6.8128   -2.3984 H   0  0  0  0  0  0  0  0  0  0  0  0
   -1.3232   -6.3822   -0.2793 C   0  0  0  0  0  0  0  0  0  0  0  0
   -1.4971   -7.4091    0.0124 H   0  0  0  0  0  0  0  0  0  0  0  0
   -1.2425   -5.3763    0.7010 C   0  0  0  0  0  0  0  0  0  0  0  0
   -1.3584   -5.6358    1.7442 H   0  0  0  0  0  0  0  0  0  0  0  0
   -1.0195   -4.0340    0.3337 C   0  0  0  0  0  0  0  0  0  0  0  0
   -0.9730   -3.2692    1.0959 H   0  0  0  0  0  0  0  0  0  0  0  0
   -0.8694   -3.6678   -1.0214 C   0  0  0  0  0  0  0  0  0  0  0  0
   -1.7617    0.8549   -0.2106 C   0  0  0  0  0  0  0  0  0  0  0  0
   -2.5726    1.1871   -1.0741 O   0  0  0  0  0  0  0  0  0  0  0  0
   -1.1941    1.7377    0.6223 N   0  0  0  0  0  0  0  0  0  0  0  0
   -0.4976    1.3916    1.2669 H   0  0  0  0  0  0  0  0  0  0  0  0
   -1.4666    3.1722    0.6095 C   0  0  0  0  0  0  0  0  0  0  0  0
   -2.5439    3.3427    0.6539 H   0  0  0  0  0  0  0  0  0  0  0  0
   -0.9893    3.6529    1.4644 H   0  0  0  0  0  0  0  0  0  0  0  0
   -1.0808    3.6095   -0.3129 H   0  0  0  0  0  0  0  0  0  0  0  0
  5  6  2  0  0  0  0
  5  7  1  0  0  0  0
  2  3  1  0  0  0  0
  2  4  1  0  0  0  0
  2  5  1  0  0  0  0
  1  2  1  0  0  0  0
 29 30  2  0  0  0  0
 29 31  1  0  0  0  0
 26 27  1  0  0  0  0
 26 28  2  0  0  0  0
 24 25  1  0  0  0  0
 24 26  1  0  0  0  0
 22 23  1  0  0  0  0
 22 24  2  0  0  0  0
 20 21  1  0  0  0  0
 20 22  1  0  0  0  0
 19 20  2  0  0  0  0
 19 28  1  0  0  0  0
 17 18  1  0  0  0  0
 17 19  1  0  0  0  0
 15 16  1  0  0  0  0
 15 17  1  0  0  0  0
 14 15  2  0  0  0  0
 14 28  1  0  0  0  0
 11 12  1  0  0  0  0
 11 13  1  0  0  0  0
 11 14  1  0  0  0  0
  9 10  1  0  0  0  0
  9 11  1  0  0  0  0
  9 29  1  0  0  0  0
  7  8  1  0  0  0  0
  7  9  1  0  0  0  0
 33 34  1  0  0  0  0
 33 35  1  0  0  0  0
 33 36  1  0  0  0  0
 31 32  1  0  0  0  0
 31 33  1  0  0  0  0
M  END
$$$$
default_name
  -OEChem-02102213163D

 36 37  0     1  0  0  0  0  0999 V2000
   -4.0843   -4.0736    1.2944 H   0  0  0  0  0  0  0  0  0  0  0  0
   -4.0342   -3.2816    0.5484 C   0  0  0  0  0  0  0  0  0  0  0  0
   -4.8842   -2.6126    0.6694 H   0  0  0  0  0  0  0  0  0  0  0  0
   -4.0433   -3.7186   -0.4486 H   0  0  0  0  0  0  0  0  0  0  0  0
   -2.7532   -2.5046    0.7444 C   0  0  0  0  0  0  0  0  0  0  0  0
   -1.9803   -2.8096    1.6434 O   0  0  0  0  0  0  0  0  0  0  0  0
   -2.5332   -1.4966   -0.0966 N   0  0  0  0  0  0  0  0  0  0  0  0
   -3.2312   -1.2816   -0.7936 H   0  0  0  0  0  0  0  0  0  0  0  0
   -1.3593   -0.6196   -0.0536 C   0  0  1  0  0  0  0  0  0  0  0  0
   -0.8788   -0.7266    0.9196 H   0  0  0  0  0  0  0  0  0  0  0  0
   -0.3559   -1.0533   -1.1339 C   0  0  0  0  0  0  0  0  0  0  0  0
   -0.3796   -0.3266   -1.9479 H   0  0  0  0  0  0  0  0  0  0  0  0
    0.6470   -1.0348   -0.7039 H   0  0  0  0  0  0  0  0  0  0  0  0
   -0.5970   -2.4120   -1.7185 C   0  0  0  0  0  0  0  0  0  0  0  0
   -0.2851   -2.7933   -2.9774 C   0  0  0  0  0  0  0  0  0  0  0  0
    0.1636   -2.1478   -3.7245 H   0  0  0  0  0  0  0  0  0  0  0  0
   -0.6059   -4.1253   -3.1520 N   0  0  0  0  0  0  0  0  0  0  0  0
   -0.4631   -4.6237   -4.0182 H   0  0  0  0  0  0  0  0  0  0  0  0
   -1.1286   -4.6765   -2.0014 C   0  0  0  0  0  0  0  0  0  0  0  0
   -1.5687   -5.9663   -1.6712 C   0  0  0  0  0  0  0  0  0  0  0  0
   -1.5362   -6.7599   -2.4031 H   0  0  0  0  0  0  0  0  0  0  0  0
   -2.0542   -6.2111   -0.3753 C   0  0  0  0  0  0  0  0  0  0  0  0
   -2.3990   -7.1995   -0.1028 H   0  0  0  0  0  0  0  0  0  0  0  0
   -2.0976   -5.1664    0.5660 C   0  0  0  0  0  0  0  0  0  0  0  0
   -2.4797   -5.3572    1.5593 H   0  0  0  0  0  0  0  0  0  0  0  0
   -1.6544   -3.8734    0.2224 C   0  0  0  0  0  0  0  0  0  0  0  0
   -1.7057   -3.0768    0.9509 H   0  0  0  0  0  0  0  0  0  0  0  0
   -1.1555   -3.5966   -1.0689 C   0  0  0  0  0  0  0  0  0  0  0  0
   -1.7617    0.8549   -0.2106 C   0  0  0  0  0  0  0  0  0  0  0  0
   -2.5726    1.1871   -1.0741 O   0  0  0  0  0  0  0  0  0  0  0  0
   -1.1941    1.7377    0.6223 N   0  0  0  0  0  0  0  0  0  0  0  0
   -0.4976    1.3916    1.2669 H   0  0  0  0  0  0  0  0  0  0  0  0
   -1.4666    3.1722    0.6095 C   0  0  0  0  0  0  0  0  0  0  0  0
   -2.5439    3.3427    0.6539 H   0  0  0  0  0  0  0  0  0  0  0  0
   -0.9893    3.6529    1.4644 H   0  0  0  0  0  0  0  0  0  0  0  0
   -1.0808    3.6095   -0.3129 H   0  0  0  0  0  0  0  0  0  0  0  0
  5  6  2  0  0  0  0
  5  7  1  0  0  0  0
  2  3  1  0  0  0  0
  2  4  1  0  0  0  0
  2  5  1  0  0  0  0
  1  2  1  0  0  0  0
 29 30  2  0  0  0  0
 29 31  1  0  0  0  0
 26 27  1  0  0  0  0
 26 28  2  0  0  0  0
 24 25  1  0  0  0  0
 24 26  1  0  0  0  0
 22 23  1  0  0  0  0
 22 24  2  0  0  0  0
 20 21  1  0  0  0  0
 20 22  1  0  0  0  0
 19 20  2  0  0  0  0
 19 28  1  0  0  0  0
 17 18  1  0  0  0  0
 17 19  1  0  0  0  0
 15 16  1  0  0  0  0
 15 17  1  0  0  0  0
 14 15  2  0  0  0  0
 14 28  1  0  0  0  0
 11 12  1  0  0  0  0
 11 13  1  0  0  0  0
 11 14  1  0  0  0  0
  9 10  1  0  0  0  0
  9 11  1  0  0  0  0
  9 29  1  0  0  0  0
  7  8  1  0  0  0  0
  7  9  1  0  0  0  0
 33 34  1  0  0  0  0
 33 35  1  0  0  0  0
 33 36  1  0  0  0  0
 31 32  1  0  0  0  0
 31 33  1  0  0  0  0
M  END
$$$$
default_name
  -OEChem-02102213163D

 36 37  0     1  0  0  0  0  0999 V2000
   -4.0843   -4.0736    1.2944 H   0  0  0  0  0  0  0  0  0  0  0  0
   -4.0342   -3.2816    0.5484 C   0  0  0  0  0  0  0  0  0  0  0  0
   -4.8842   -2.6126    0.6694 H   0  0  0  0  0  0  0  0  0  0  0  0
   -4.0433   -3.7186   -0.4486 H   0  0  0  0  0  0  0  0  0  0  0  0
   -2.7532   -2.5046    0.7444 C   0  0  0  0  0  0  0  0  0  0  0  0
   -1.9803   -2.8096    1.6434 O   0  0  0  0  0  0  0  0  0  0  0  0
   -2.5332   -1.4966   -0.0966 N   0  0  0  0  0  0  0  0  0  0  0  0
   -3.2312   -1.2816   -0.7936 H   0  0  0  0  0  0  0  0  0  0  0  0
   -1.3593   -0.6196   -0.0536 C   0  0  1  0  0  0  0  0  0  0  0  0
   -0.8788   -0.7266    0.9196 H   0  0  0  0  0  0  0  0  0  0  0  0
   -0.3559   -1.0533   -1.1339 C   0  0  0  0  0  0  0  0  0  0  0  0
   -0.3796   -0.3266   -1.9479 H   0  0  0  0  0  0  0  0  0  0  0  0
    0.6470   -1.0348   -0.7039 H   0  0  0  0  0  0  0  0  0  0  0  0
   -0.5970   -2.4120   -1.7185 C   0  0  0  0  0  0  0  0  0  0  0  0
   -0.0431   -2.8886   -2.8559 C   0  0  0  0  0  0  0  0  0  0  0  0
    0.6328   -2.3302   -3.4943 H   0  0  0  0  0  0  0  0  0  0  0  0
   -0.4538   -4.1910   -3.0619 N   0  0  0  0  0  0  0  0  0  0  0  0
   -0.1671   -4.7466   -3.8546 H   0  0  0  0  0  0  0  0  0  0  0  0
   -1.2850   -4.6269   -2.0521 C   0  0  0  0  0  0  0  0  0  0  0  0
   -1.9239   -5.8489   -1.7974 C   0  0  0  0  0  0  0  0  0  0  0  0
   -1.8064   -6.6802   -2.4770 H   0  0  0  0  0  0  0  0  0  0  0  0
   -2.7206   -5.9761   -0.6467 C   0  0  0  0  0  0  0  0  0  0  0  0
   -3.2219   -6.9107   -0.4345 H   0  0  0  0  0  0  0  0  0  0  0  0
   -2.8707   -4.8830    0.2262 C   0  0  0  0  0  0  0  0  0  0  0  0
   -3.4913   -4.9826    1.1060 H   0  0  0  0  0  0  0  0  0  0  0  0
   -2.2254   -3.6588   -0.0408 C   0  0  0  0  0  0  0  0  0  0  0  0
   -2.3599   -2.8230    0.6310 H   0  0  0  0  0  0  0  0  0  0  0  0
   -1.4135   -3.5010   -1.1848 C   0  0  0  0  0  0  0  0  0  0  0  0
   -1.7617    0.8549   -0.2106 C   0  0  0  0  0  0  0  0  0  0  0  0
   -2.5726    1.1871   -1.0741 O   0  0  0  0  0  0  0  0  0  0  0  0
   -1.1941    1.7377    0.6223 N   0  0  0  0  0  0  0  0  0  0  0  0
   -0.4976    1.3916    1.2669 H   0  0  0  0  0  0  0  0  0  0  0  0
   -1.4666    3.1722    0.6095 C   0  0  0  0  0  0  0  0  0  0  0  0
   -2.5439    3.3427    0.6539 H   0  0  0  0  0  0  0  0  0  0  0  0
   -0.9893    3.6529    1.4644 H   0  0  0  0  0  0  0  0  0  0  0  0
   -1.0808    3.6095   -0.3129 H   0  0  0  0  0  0  0  0  0  0  0  0
  5  6  2  0  0  0  0
  5  7  1  0  0  0  0
  2  3  1  0  0  0  0
  2  4  1  0  0  0  0
  2  5  1  0  0  0  0
  1  2  1  0  0  0  0
 29 30  2  0  0  0  0
 29 31  1  0  0  0  0
 26 27  1  0  0  0  0
 26 28  2  0  0  0  0
 24 25  1  0  0  0  0
 24 26  1  0  0  0  0
 22 23  1  0  0  0  0
 22 24  2  0  0  0  0
 20 21  1  0  0  0  0
 20 22  1  0  0  0  0
 19 20  2  0  0  0  0
 19 28  1  0  0  0  0
 17 18  1  0  0  0  0
 17 19  1  0  0  0  0
 15 16  1  0  0  0  0
 15 17  1  0  0  0  0
 14 15  2  0  0  0  0
 14 28  1  0  0  0  0
 11 12  1  0  0  0  0
 11 13  1  0  0  0  0
 11 14  1  0  0  0  0
  9 10  1  0  0  0  0
  9 11  1  0  0  0  0
  9 29  1  0  0  0  0
  7  8  1  0  0  0  0
  7  9  1  0  0  0  0
 33 34  1  0  0  0  0
 33 35  1  0  0  0  0
 33 36  1  0  0  0  0
 31 32  1  0  0  0  0
 31 33  1  0  0  0  0
M  END
$$$$
default_name
  -OEChem-02102213163D

 36 37  0     1  0  0  0  0  0999 V2000
   -4.0843   -4.0736    1.2944 H   0  0  0  0  0  0  0  0  0  0  0  0
   -4.0342   -3.2816    0.5484 C   0  0  0  0  0  0  0  0  0  0  0  0
   -4.8842   -2.6126    0.6694 H   0  0  0  0  0  0  0  0  0  0  0  0
   -4.0433   -3.7186   -0.4486 H   0  0  0  0  0  0  0  0  0  0  0  0
   -2.7532   -2.5046    0.7444 C   0  0  0  0  0  0  0  0  0  0  0  0
   -1.9803   -2.8096    1.6434 O   0  0  0  0  0  0  0  0  0  0  0  0
   -2.5332   -1.4966   -0.0966 N   0  0  0  0  0  0  0  0  0  0  0  0
   -3.2312   -1.2816   -0.7936 H   0  0  0  0  0  0  0  0  0  0  0  0
   -1.3593   -0.6196   -0.0536 C   0  0  1  0  0  0  0  0  0  0  0  0
   -0.8788   -0.7266    0.9196 H   0  0  0  0  0  0  0  0  0  0  0  0
   -0.3559   -1.0533   -1.1339 C   0  0  0  0  0  0  0  0  0  0  0  0
   -0.1793   -0.2129   -1.8075 H   0  0  0  0  0  0  0  0  0  0  0  0
    0.5925   -1.2939   -0.6505 H   0  0  0  0  0  0  0  0  0  0  0  0
   -0.7791   -2.2292   -1.9610 C   0  0  0  0  0  0  0  0  0  0  0  0
   -0.0625   -2.7841   -2.9641 C   0  0  0  0  0  0  0  0  0  0  0  0
    0.9040   -2.4273   -3.3027 H   0  0  0  0  0  0  0  0  0  0  0  0
   -0.7395   -3.8770   -3.4689 N   0  0  0  0  0  0  0  0  0  0  0  0
   -0.3933   -4.4443   -4.2288 H   0  0  0  0  0  0  0  0  0  0  0  0
   -1.9261   -4.0919   -2.8007 C   0  0  0  0  0  0  0  0  0  0  0  0
   -2.9286   -5.0655   -2.9173 C   0  0  0  0  0  0  0  0  0  0  0  0
   -2.8483   -5.8480   -3.6574 H   0  0  0  0  0  0  0  0  0  0  0  0
   -4.0399   -5.0074   -2.0591 C   0  0  0  0  0  0  0  0  0  0  0  0
   -4.8235   -5.7491   -2.1352 H   0  0  0  0  0  0  0  0  0  0  0  0
   -4.1353   -3.9784   -1.1044 C   0  0  0  0  0  0  0  0  0  0  0  0
   -4.9960   -3.9327   -0.4517 H   0  0  0  0  0  0  0  0  0  0  0  0
   -3.1226   -3.0041   -0.9974 C   0  0  0  0  0  0  0  0  0  0  0  0
   -3.2147   -2.2113   -0.2686 H   0  0  0  0  0  0  0  0  0  0  0  0
   -1.9908   -3.0382   -1.8405 C   0  0  0  0  0  0  0  0  0  0  0  0
   -1.7617    0.8549   -0.2106 C   0  0  0  0  0  0  0  0  0  0  0  0
   -2.5726    1.1871   -1.0741 O   0  0  0  0  0  0  0  0  0  0  0  0
   -1.1941    1.7377    0.6223 N   0  0  0  0  0  0  0  0  0  0  0  0
   -0.4976    1.3916    1.2669 H   0  0  0  0  0  0  0  0  0  0  0  0
   -1.4666    3.1722    0.6095 C   0  0  0  0  0  0  0  0  0  0  0  0
   -2.5439    3.3427    0.6539 H   0  0  0  0  0  0  0  0  0  0  0  0
   -0.9893    3.6529    1.4644 H   0  0  0  0  0  0  0  0  0  0  0  0
   -1.0808    3.6095   -0.3129 H   0  0  0  0  0  0  0  0  0  0  0  0
  5  6  2  0  0  0  0
  5  7  1  0  0  0  0
  2  3  1  0  0  0  0
  2  4  1  0  0  0  0
  2  5  1  0  0  0  0
  1  2  1  0  0  0  0
 29 30  2  0  0  0  0
 29 31  1  0  0  0  0
 26 27  1  0  0  0  0
 26 28  2  0  0  0  0
 24 25  1  0  0  0  0
 24 26  1  0  0  0  0
 22 23  1  0  0  0  0
 22 24  2  0  0  0  0
 20 21  1  0  0  0  0
 20 22  1  0  0  0  0
 19 20  2  0  0  0  0
 19 28  1  0  0  0  0
 17 18  1  0  0  0  0
 17 19  1  0  0  0  0
 15 16  1  0  0  0  0
 15 17  1  0  0  0  0
 14 15  2  0  0  0  0
 14 28  1  0  0  0  0
 11 12  1  0  0  0  0
 11 13  1  0  0  0  0
 11 14  1  0  0  0  0
  9 10  1  0  0  0  0
  9 11  1  0  0  0  0
  9 29  1  0  0  0  0
  7  8  1  0  0  0  0
  7  9  1  0  0  0  0
 33 34  1  0  0  0  0
 33 35  1  0  0  0  0
 33 36  1  0  0  0  0
 31 32  1  0  0  0  0
 31 33  1  0  0  0  0
M  END
$$$$
default_name
  -OEChem-02102213163D

 36 37  0     1  0  0  0  0  0999 V2000
   -4.0843   -4.0736    1.2944 H   0  0  0  0  0  0  0  0  0  0  0  0
   -4.0342   -3.2816    0.5484 C   0  0  0  0  0  0  0  0  0  0  0  0
   -4.8842   -2.6126    0.6694 H   0  0  0  0  0  0  0  0  0  0  0  0
   -4.0433   -3.7186   -0.4486 H   0  0  0  0  0  0  0  0  0  0  0  0
   -2.7532   -2.5046    0.7444 C   0  0  0  0  0  0  0  0  0  0  0  0
   -1.9803   -2.8096    1.6434 O   0  0  0  0  0  0  0  0  0  0  0  0
   -2.5332   -1.4966   -0.0966 N   0  0  0  0  0  0  0  0  0  0  0  0
   -3.2312   -1.2816   -0.7936 H   0  0  0  0  0  0  0  0  0  0  0  0
   -1.3593   -0.6196   -0.0536 C   0  0  1  0  0  0  0  0  0  0  0  0
   -0.8788   -0.7266    0.9196 H   0  0  0  0  0  0  0  0  0  0  0  0
   -0.3559   -1.0533   -1.1339 C   0  0  0  0  0  0  0  0  0  0  0  0
   -0.1793   -0.2129   -1.8075 H   0  0  0  0  0  0  0  0  0  0  0  0
    0.5925   -1.2939   -0.6505 H   0  0  0  0  0  0  0  0  0  0  0  0
   -0.7791   -2.2292   -1.9610 C   0  0  0  0  0  0  0  0  0  0  0  0
    0.0300   -2.9619   -2.7586 C   0  0  0  0  0  0  0  0  0  0  0  0
    1.0868   -2.7703   -2.9086 H   0  0  0  0  0  0  0  0  0  0  0  0
   -0.6903   -3.9932   -3.3287 N   0  0  0  0  0  0  0  0  0  0  0  0
   -0.2901   -4.6668   -3.9654 H   0  0  0  0  0  0  0  0  0  0  0  0
   -2.0042   -3.9861   -2.9111 C   0  0  0  0  0  0  0  0  0  0  0  0
   -3.0986   -4.8215   -3.1771 C   0  0  0  0  0  0  0  0  0  0  0  0
   -2.9921   -5.6697   -3.8373 H   0  0  0  0  0  0  0  0  0  0  0  0
   -4.3361   -4.5385   -2.5742 C   0  0  0  0  0  0  0  0  0  0  0  0
   -5.1916   -5.1711   -2.7685 H   0  0  0  0  0  0  0  0  0  0  0  0
   -4.4625   -3.4262   -1.7220 C   0  0  0  0  0  0  0  0  0  0  0  0
   -5.4185   -3.2073   -1.2668 H   0  0  0  0  0  0  0  0  0  0  0  0
   -3.3562   -2.5922   -1.4634 C   0  0  0  0  0  0  0  0  0  0  0  0
   -3.4704   -1.7334   -0.8173 H   0  0  0  0  0  0  0  0  0  0  0  0
   -2.0983   -2.8531   -2.0486 C   0  0  0  0  0  0  0  0  0  0  0  0
   -1.7617    0.8549   -0.2106 C   0  0  0  0  0  0  0  0  0  0  0  0
   -2.5726    1.1871   -1.0741 O   0  0  0  0  0  0  0  0  0  0  0  0
   -1.1941    1.7377    0.6223 N   0  0  0  0  0  0  0  0  0  0  0  0
   -0.4976    1.3916    1.2669 H   0  0  0  0  0  0  0  0  0  0  0  0
   -1.4666    3.1722    0.6095 C   0  0  0  0  0  0  0  0  0  0  0  0
   -2.5439    3.3427    0.6539 H   0  0  0  0  0  0  0  0  0  0  0  0
   -0.9893    3.6529    1.4644 H   0  0  0  0  0  0  0  0  0  0  0  0
   -1.0808    3.6095   -0.3129 H   0  0  0  0  0  0  0  0  0  0  0  0
  5  6  2  0  0  0  0
  5  7  1  0  0  0  0
  2  3  1  0  0  0  0
  2  4  1  0  0  0  0
  2  5  1  0  0  0  0
  1  2  1  0  0  0  0
 29 30  2  0  0  0  0
 29 31  1  0  0  0  0
 26 27  1  0  0  0  0
 26 28  2  0  0  0  0
 24 25  1  0  0  0  0
 24 26  1  0  0  0  0
 22 23  1  0  0  0  0
 22 24  2  0  0  0  0
 20 21  1  0  0  0  0
 20 22  1  0  0  0  0
 19 20  2  0  0  0  0
 19 28  1  0  0  0  0
 17 18  1  0  0  0  0
 17 19  1  0  0  0  0
 15 16  1  0  0  0  0
 15 17  1  0  0  0  0
 14 15  2  0  0  0  0
 14 28  1  0  0  0  0
 11 12  1  0  0  0  0
 11 13  1  0  0  0  0
 11 14  1  0  0  0  0
  9 10  1  0  0  0  0
  9 11  1  0  0  0  0
  9 29  1  0  0  0  0
  7  8  1  0  0  0  0
  7  9  1  0  0  0  0
 33 34  1  0  0  0  0
 33 35  1  0  0  0  0
 33 36  1  0  0  0  0
 31 32  1  0  0  0  0
 31 33  1  0  0  0  0
M  END
$$$$
default_name
  -OEChem-02102213163D

 36 37  0     1  0  0  0  0  0999 V2000
   -4.0843   -4.0736    1.2944 H   0  0  0  0  0  0  0  0  0  0  0  0
   -4.0342   -3.2816    0.5484 C   0  0  0  0  0  0  0  0  0  0  0  0
   -4.8842   -2.6126    0.6694 H   0  0  0  0  0  0  0  0  0  0  0  0
   -4.0433   -3.7186   -0.4486 H   0  0  0  0  0  0  0  0  0  0  0  0
   -2.7532   -2.5046    0.7444 C   0  0  0  0  0  0  0  0  0  0  0  0
   -1.9803   -2.8096    1.6434 O   0  0  0  0  0  0  0  0  0  0  0  0
   -2.5332   -1.4966   -0.0966 N   0  0  0  0  0  0  0  0  0  0  0  0
   -3.2312   -1.2816   -0.7936 H   0  0  0  0  0  0  0  0  0  0  0  0
   -1.3593   -0.6196   -0.0536 C   0  0  1  0  0  0  0  0  0  0  0  0
   -0.8788   -0.7266    0.9196 H   0  0  0  0  0  0  0  0  0  0  0  0
   -0.3559   -1.0533   -1.1339 C   0  0  0  0  0  0  0  0  0  0  0  0
   -0.1793   -0.2129   -1.8075 H   0  0  0  0  0  0  0  0  0  0  0  0
    0.5925   -1.2939   -0.6505 H   0  0  0  0  0  0  0  0  0  0  0  0
   -0.7791   -2.2292   -1.9610 C   0  0  0  0  0  0  0  0  0  0  0  0
    0.0521   -3.1319   -2.5283 C   0  0  0  0  0  0  0  0  0  0  0  0
    1.1343   -3.0989   -2.4658 H   0  0  0  0  0  0  0  0  0  0  0  0
   -0.6879   -4.1023   -3.1749 N   0  0  0  0  0  0  0  0  0  0  0  0
   -0.2756   -4.8771   -3.6738 H   0  0  0  0  0  0  0  0  0  0  0  0
   -2.0421   -3.8808   -3.0414 C   0  0  0  0  0  0  0  0  0  0  0  0
   -3.1753   -4.5806   -3.4804 C   0  0  0  0  0  0  0  0  0  0  0  0
   -3.0691   -5.4901   -4.0532 H   0  0  0  0  0  0  0  0  0  0  0  0
   -4.4506   -4.0809   -3.1662 C   0  0  0  0  0  0  0  0  0  0  0  0
   -5.3360   -4.6066   -3.4972 H   0  0  0  0  0  0  0  0  0  0  0  0
   -4.5743   -2.8912   -2.4254 C   0  0  0  0  0  0  0  0  0  0  0  0
   -5.5574   -2.5058   -2.1930 H   0  0  0  0  0  0  0  0  0  0  0  0
   -3.4284   -2.1951   -1.9910 C   0  0  0  0  0  0  0  0  0  0  0  0
   -3.5376   -1.2753   -1.4342 H   0  0  0  0  0  0  0  0  0  0  0  0
   -2.1334   -2.6742   -2.2850 C   0  0  0  0  0  0  0  0  0  0  0  0
   -1.7617    0.8549   -0.2106 C   0  0  0  0  0  0  0  0  0  0  0  0
   -2.5726    1.1871   -1.0741 O   0  0  0  0  0  0  0  0  0  0  0  0
   -1.1941    1.7377    0.6223 N   0  0  0  0  0  0  0  0  0  0  0  0
   -0.4976    1.3916    1.2669 H   0  0  0  0  0  0  0  0  0  0  0  0
   -1.4666    3.1722    0.6095 C   0  0  0  0  0  0  0  0  0  0  0  0
   -2.5439    3.3427    0.6539 H   0  0  0  0  0  0  0  0  0  0  0  0
   -0.9893    3.6529    1.4644 H   0  0  0  0  0  0  0  0  0  0  0  0
   -1.0808    3.6095   -0.3129 H   0  0  0  0  0  0  0  0  0  0  0  0
  5  6  2  0  0  0  0
  5  7  1  0  0  0  0
  2  3  1  0  0  0  0
  2  4  1  0  0  0  0
  2  5  1  0  0  0  0
  1  2  1  0  0  0  0
 29 30  2  0  0  0  0
 29 31  1  0  0  0  0
 26 27  1  0  0  0  0
 26 28  2  0  0  0  0
 24 25  1  0  0  0  0
 24 26  1  0  0  0  0
 22 23  1  0  0  0  0
 22 24  2  0  0  0  0
 20 21  1  0  0  0  0
 20 22  1  0  0  0  0
 19 20  2  0  0  0  0
 19 28  1  0  0  0  0
 17 18  1  0  0  0  0
 17 19  1  0  0  0  0
 15 16  1  0  0  0  0
 15 17  1  0  0  0  0
 14 15  2  0  0  0  0
 14 28  1  0  0  0  0
 11 12  1  0  0  0  0
 11 13  1  0  0  0  0
 11 14  1  0  0  0  0
  9 10  1  0  0  0  0
  9 11  1  0  0  0  0
  9 29  1  0  0  0  0
  7  8  1  0  0  0  0
  7  9  1  0  0  0  0
 33 34  1  0  0  0  0
 33 35  1  0  0  0  0
 33 36  1  0  0  0  0
 31 32  1  0  0  0  0
 31 33  1  0  0  0  0
M  END
$$$$
default_name
  -OEChem-02102213163D

 36 37  0     1  0  0  0  0  0999 V2000
   -4.0843   -4.0736    1.2944 H   0  0  0  0  0  0  0  0  0  0  0  0
   -4.0342   -3.2816    0.5484 C   0  0  0  0  0  0  0  0  0  0  0  0
   -4.8842   -2.6126    0.6694 H   0  0  0  0  0  0  0  0  0  0  0  0
   -4.0433   -3.7186   -0.4486 H   0  0  0  0  0  0  0  0  0  0  0  0
   -2.7532   -2.5046    0.7444 C   0  0  0  0  0  0  0  0  0  0  0  0
   -1.9803   -2.8096    1.6434 O   0  0  0  0  0  0  0  0  0  0  0  0
   -2.5332   -1.4966   -0.0966 N   0  0  0  0  0  0  0  0  0  0  0  0
   -3.2312   -1.2816   -0.7936 H   0  0  0  0  0  0  0  0  0  0  0  0
   -1.3593   -0.6196   -0.0536 C   0  0  1  0  0  0  0  0  0  0  0  0
   -0.8788   -0.7266    0.9196 H   0  0  0  0  0  0  0  0  0  0  0  0
   -0.3559   -1.0533   -1.1339 C   0  0  0  0  0  0  0  0  0  0  0  0
   -0.1793   -0.2129   -1.8075 H   0  0  0  0  0  0  0  0  0  0  0  0
    0.5925   -1.2939   -0.6505 H   0  0  0  0  0  0  0  0  0  0  0  0
   -0.7791   -2.2292   -1.9610 C   0  0  0  0  0  0  0  0  0  0  0  0
    0.0025   -3.2824   -2.2890 C   0  0  0  0  0  0  0  0  0  0  0  0
    1.0434   -3.3907   -2.0043 H   0  0  0  0  0  0  0  0  0  0  0  0
   -0.7324   -4.1967   -3.0179 N   0  0  0  0  0  0  0  0  0  0  0  0
   -0.3509   -5.0610   -3.3738 H   0  0  0  0  0  0  0  0  0  0  0  0
   -2.0373   -3.7833   -3.1827 C   0  0  0  0  0  0  0  0  0  0  0  0
   -3.1533   -4.3591   -3.8066 C   0  0  0  0  0  0  0  0  0  0  0  0
   -3.0740   -5.3214   -4.2906 H   0  0  0  0  0  0  0  0  0  0  0  0
   -4.3756   -3.6658   -3.7947 C   0  0  0  0  0  0  0  0  0  0  0  0
   -5.2469   -4.0939   -4.2717 H   0  0  0  0  0  0  0  0  0  0  0  0
   -4.4630   -2.4099   -3.1666 C   0  0  0  0  0  0  0  0  0  0  0  0
   -5.4033   -1.8761   -3.1671 H   0  0  0  0  0  0  0  0  0  0  0  0
   -3.3343   -1.8398   -2.5444 C   0  0  0  0  0  0  0  0  0  0  0  0
   -3.4118   -0.8683   -2.0771 H   0  0  0  0  0  0  0  0  0  0  0  0
   -2.0938   -2.5136   -2.5336 C   0  0  0  0  0  0  0  0  0  0  0  0
   -1.7617    0.8549   -0.2106 C   0  0  0  0  0  0  0  0  0  0  0  0
   -2.5726    1.1871   -1.0741 O   0  0  0  0  0  0  0  0  0  0  0  0
   -1.1941    1.7377    0.6223 N   0  0  0  0  0  0  0  0  0  0  0  0
   -0.4976    1.3916    1.2669 H   0  0  0  0  0  0  0  0  0  0  0  0
   -1.4666    3.1722    0.6095 C   0  0  0  0  0  0  0  0  0  0  0  0
   -2.5439    3.3427    0.6539 H   0  0  0  0  0  0  0  0  0  0  0  0
   -0.9893    3.6529    1.4644 H   0  0  0  0  0  0  0  0  0  0  0  0
   -1.0808    3.6095   -0.3129 H   0  0  0  0  0  0  0  0  0  0  0  0
  5  6  2  0  0  0  0
  5  7  1  0  0  0  0
  2  3  1  0  0  0  0
  2  4  1  0  0  0  0
  2  5  1  0  0  0  0
  1  2  1  0  0  0  0
 29 30  2  0  0  0  0
 29 31  1  0  0  0  0
 26 27  1  0  0  0  0
 26 28  2  0  0  0  0
 24 25  1  0  0  0  0
 24 26  1  0  0  0  0
 22 23  1  0  0  0  0
 22 24  2  0  0  0  0
 20 21  1  0  0  0  0
 20 22  1  0  0  0  0
 19 20  2  0  0  0  0
 19 28  1  0  0  0  0
 17 18  1  0  0  0  0
 17 19  1  0  0  0  0
 15 16  1  0  0  0  0
 15 17  1  0  0  0  0
 14 15  2  0  0  0  0
 14 28  1  0  0  0  0
 11 12  1  0  0  0  0
 11 13  1  0  0  0  0
 11 14  1  0  0  0  0
  9 10  1  0  0  0  0
  9 11  1  0  0  0  0
  9 29  1  0  0  0  0
  7  8  1  0  0  0  0
  7  9  1  0  0  0  0
 33 34  1  0  0  0  0
 33 35  1  0  0  0  0
 33 36  1  0  0  0  0
 31 32  1  0  0  0  0
 31 33  1  0  0  0  0
M  END
$$$$
default_name
  -OEChem-02102213163D

 36 37  0     1  0  0  0  0  0999 V2000
   -4.0843   -4.0736    1.2944 H   0  0  0  0  0  0  0  0  0  0  0  0
   -4.0342   -3.2816    0.5484 C   0  0  0  0  0  0  0  0  0  0  0  0
   -4.8842   -2.6126    0.6694 H   0  0  0  0  0  0  0  0  0  0  0  0
   -4.0433   -3.7186   -0.4486 H   0  0  0  0  0  0  0  0  0  0  0  0
   -2.7532   -2.5046    0.7444 C   0  0  0  0  0  0  0  0  0  0  0  0
   -1.9803   -2.8096    1.6434 O   0  0  0  0  0  0  0  0  0  0  0  0
   -2.5332   -1.4966   -0.0966 N   0  0  0  0  0  0  0  0  0  0  0  0
   -3.2312   -1.2816   -0.7936 H   0  0  0  0  0  0  0  0  0  0  0  0
   -1.3593   -0.6196   -0.0536 C   0  0  1  0  0  0  0  0  0  0  0  0
   -0.8788   -0.7266    0.9196 H   0  0  0  0  0  0  0  0  0  0  0  0
   -0.3559   -1.0533   -1.1339 C   0  0  0  0  0  0  0  0  0  0  0  0
   -0.1793   -0.2129   -1.8075 H   0  0  0  0  0  0  0  0  0  0  0  0
    0.5925   -1.2939   -0.6505 H   0  0  0  0  0  0  0  0  0  0  0  0
   -0.7791   -2.2292   -1.9610 C   0  0  0  0  0  0  0  0  0  0  0  0
   -0.1155   -3.4031   -2.0569 C   0  0  0  0  0  0  0  0  0  0  0  0
    0.8201   -3.6259   -1.5557 H   0  0  0  0  0  0  0  0  0  0  0  0
   -0.8208   -4.2701   -2.8683 N   0  0  0  0  0  0  0  0  0  0  0  0
   -0.5108   -5.2060   -3.0858 H   0  0  0  0  0  0  0  0  0  0  0  0
   -1.9899   -3.7000   -3.3252 C   0  0  0  0  0  0  0  0  0  0  0  0
   -3.0342   -4.1722   -4.1333 C   0  0  0  0  0  0  0  0  0  0  0  0
   -3.0063   -5.1751   -4.5332 H   0  0  0  0  0  0  0  0  0  0  0  0
   -4.1163   -3.3215   -4.4169 C   0  0  0  0  0  0  0  0  0  0  0  0
   -4.9302   -3.6680   -5.0392 H   0  0  0  0  0  0  0  0  0  0  0  0
   -4.1362   -2.0150   -3.8952 C   0  0  0  0  0  0  0  0  0  0  0  0
   -4.9667   -1.3611   -4.1227 H   0  0  0  0  0  0  0  0  0  0  0  0
   -3.0802   -1.5504   -3.0857 C   0  0  0  0  0  0  0  0  0  0  0  0
   -3.1016   -0.5402   -2.7024 H   0  0  0  0  0  0  0  0  0  0  0  0
   -1.9821   -2.3823   -2.7774 C   0  0  0  0  0  0  0  0  0  0  0  0
   -1.7617    0.8549   -0.2106 C   0  0  0  0  0  0  0  0  0  0  0  0
   -2.5726    1.1871   -1.0741 O   0  0  0  0  0  0  0  0  0  0  0  0
   -1.1941    1.7377    0.6223 N   0  0  0  0  0  0  0  0  0  0  0  0
   -0.4976    1.3916    1.2669 H   0  0  0  0  0  0  0  0  0  0  0  0
   -1.4666    3.1722    0.6095 C   0  0  0  0  0  0  0  0  0  0  0  0
   -2.5439    3.3427    0.6539 H   0  0  0  0  0  0  0  0  0  0  0  0
   -0.9893    3.6529    1.4644 H   0  0  0  0  0  0  0  0  0  0  0  0
   -1.0808    3.6095   -0.3129 H   0  0  0  0  0  0  0  0  0  0  0  0
  5  6  2  0  0  0  0
  5  7  1  0  0  0  0
  2  3  1  0  0  0  0
  2  4  1  0  0  0  0
  2  5  1  0  0  0  0
  1  2  1  0  0  0  0
 29 30  2  0  0  0  0
 29 31  1  0  0  0  0
 26 27  1  0  0  0  0
 26 28  2  0  0  0  0
 24 25  1  0  0  0  0
 24 26  1  0  0  0  0
 22 23  1  0  0  0  0
 22 24  2  0  0  0  0
 20 21  1  0  0  0  0
 20 22  1  0  0  0  0
 19 20  2  0  0  0  0
 19 28  1  0  0  0  0
 17 18  1  0  0  0  0
 17 19  1  0  0  0  0
 15 16  1  0  0  0  0
 15 17  1  0  0  0  0
 14 15  2  0  0  0  0
 14 28  1  0  0  0  0
 11 12  1  0  0  0  0
 11 13  1  0  0  0  0
 11 14  1  0  0  0  0
  9 10  1  0  0  0  0
  9 11  1  0  0  0  0
  9 29  1  0  0  0  0
  7  8  1  0  0  0  0
  7  9  1  0  0  0  0
 33 34  1  0  0  0  0
 33 35  1  0  0  0  0
 33 36  1  0  0  0  0
 31 32  1  0  0  0  0
 31 33  1  0  0  0  0
M  END
$$$$
default_name
  -OEChem-02102213163D

 36 37  0     1  0  0  0  0  0999 V2000
   -4.0843   -4.0736    1.2944 H   0  0  0  0  0  0  0  0  0  0  0  0
   -4.0342   -3.2816    0.5484 C   0  0  0  0  0  0  0  0  0  0  0  0
   -4.8842   -2.6126    0.6694 H   0  0  0  0  0  0  0  0  0  0  0  0
   -4.0433   -3.7186   -0.4486 H   0  0  0  0  0  0  0  0  0  0  0  0
   -2.7532   -2.5046    0.7444 C   0  0  0  0  0  0  0  0  0  0  0  0
   -1.9803   -2.8096    1.6434 O   0  0  0  0  0  0  0  0  0  0  0  0
   -2.5332   -1.4966   -0.0966 N   0  0  0  0  0  0  0  0  0  0  0  0
   -3.2312   -1.2816   -0.7936 H   0  0  0  0  0  0  0  0  0  0  0  0
   -1.3593   -0.6196   -0.0536 C   0  0  1  0  0  0  0  0  0  0  0  0
   -0.8788   -0.7266    0.9196 H   0  0  0  0  0  0  0  0  0  0  0  0
   -0.3559   -1.0533   -1.1339 C   0  0  0  0  0  0  0  0  0  0  0  0
   -0.1793   -0.2129   -1.8075 H   0  0  0  0  0  0  0  0  0  0  0  0
    0.5925   -1.2939   -0.6505 H   0  0  0  0  0  0  0  0  0  0  0  0
   -0.7791   -2.2292   -1.9610 C   0  0  0  0  0  0  0  0  0  0  0  0
   -0.2939   -3.4860   -1.8478 C   0  0  0  0  0  0  0  0  0  0  0  0
    0.4797   -3.7884   -1.1506 H   0  0  0  0  0  0  0  0  0  0  0  0
   -0.9470   -4.3175   -2.7364 N   0  0  0  0  0  0  0  0  0  0  0  0
   -0.7445   -5.3021   -2.8296 H   0  0  0  0  0  0  0  0  0  0  0  0
   -1.9034   -3.6368   -3.4594 C   0  0  0  0  0  0  0  0  0  0  0  0
   -2.8261   -4.0325   -4.4384 C   0  0  0  0  0  0  0  0  0  0  0  0
   -2.8708   -5.0612   -4.7645 H   0  0  0  0  0  0  0  0  0  0  0  0
   -3.6902   -3.0714   -4.9904 C   0  0  0  0  0  0  0  0  0  0  0  0
   -4.4077   -3.3580   -5.7473 H   0  0  0  0  0  0  0  0  0  0  0  0
   -3.6163   -1.7336   -4.5614 C   0  0  0  0  0  0  0  0  0  0  0  0
   -4.2773   -0.9958   -4.9948 H   0  0  0  0  0  0  0  0  0  0  0  0
   -2.6836   -1.3468   -3.5782 C   0  0  0  0  0  0  0  0  0  0  0  0
   -2.6282   -0.3132   -3.2673 H   0  0  0  0  0  0  0  0  0  0  0  0
   -1.8060   -2.2893   -2.9998 C   0  0  0  0  0  0  0  0  0  0  0  0
   -1.7617    0.8549   -0.2106 C   0  0  0  0  0  0  0  0  0  0  0  0
   -2.5726    1.1871   -1.0741 O   0  0  0  0  0  0  0  0  0  0  0  0
   -1.1941    1.7377    0.6223 N   0  0  0  0  0  0  0  0  0  0  0  0
   -0.4976    1.3916    1.2669 H   0  0  0  0  0  0  0  0  0  0  0  0
   -1.4666    3.1722    0.6095 C   0  0  0  0  0  0  0  0  0  0  0  0
   -2.5439    3.3427    0.6539 H   0  0  0  0  0  0  0  0  0  0  0  0
   -0.9893    3.6529    1.4644 H   0  0  0  0  0  0  0  0  0  0  0  0
   -1.0808    3.6095   -0.3129 H   0  0  0  0  0  0  0  0  0  0  0  0
  5  6  2  0  0  0  0
  5  7  1  0  0  0  0
  2  3  1  0  0  0  0
  2  4  1  0  0  0  0
  2  5  1  0  0  0  0
  1  2  1  0  0  0  0
 29 30  2  0  0  0  0
 29 31  1  0  0  0  0
 26 27  1  0  0  0  0
 26 28  2  0  0  0  0
 24 25  1  0  0  0  0
 24 26  1  0  0  0  0
 22 23  1  0  0  0  0
 22 24  2  0  0  0  0
 20 21  1  0  0  0  0
 20 22  1  0  0  0  0
 19 20  2  0  0  0  0
 19 28  1  0  0  0  0
 17 18  1  0  0  0  0
 17 19  1  0  0  0  0
 15 16  1  0  0  0  0
 15 17  1  0  0  0  0
 14 15  2  0  0  0  0
 14 28  1  0  0  0  0
 11 12  1  0  0  0  0
 11 13  1  0  0  0  0
 11 14  1  0  0  0  0
  9 10  1  0  0  0  0
  9 11  1  0  0  0  0
  9 29  1  0  0  0  0
  7  8  1  0  0  0  0
  7  9  1  0  0  0  0
 33 34  1  0  0  0  0
 33 35  1  0  0  0  0
 33 36  1  0  0  0  0
 31 32  1  0  0  0  0
 31 33  1  0  0  0  0
M  END
$$$$
default_name
  -OEChem-02102213163D

 36 37  0     1  0  0  0  0  0999 V2000
   -4.0843   -4.0736    1.2944 H   0  0  0  0  0  0  0  0  0  0  0  0
   -4.0342   -3.2816    0.5484 C   0  0  0  0  0  0  0  0  0  0  0  0
   -4.8842   -2.6126    0.6694 H   0  0  0  0  0  0  0  0  0  0  0  0
   -4.0433   -3.7186   -0.4486 H   0  0  0  0  0  0  0  0  0  0  0  0
   -2.7532   -2.5046    0.7444 C   0  0  0  0  0  0  0  0  0  0  0  0
   -1.9803   -2.8096    1.6434 O   0  0  0  0  0  0  0  0  0  0  0  0
   -2.5332   -1.4966   -0.0966 N   0  0  0  0  0  0  0  0  0  0  0  0
   -3.2312   -1.2816   -0.7936 H   0  0  0  0  0  0  0  0  0  0  0  0
   -1.3593   -0.6196   -0.0536 C   0  0  1  0  0  0  0  0  0  0  0  0
   -0.8788   -0.7266    0.9196 H   0  0  0  0  0  0  0  0  0  0  0  0
   -0.3559   -1.0533   -1.1339 C   0  0  0  0  0  0  0  0  0  0  0  0
   -0.1793   -0.2129   -1.8075 H   0  0  0  0  0  0  0  0  0  0  0  0
    0.5925   -1.2939   -0.6505 H   0  0  0  0  0  0  0  0  0  0  0  0
   -0.7791   -2.2292   -1.9610 C   0  0  0  0  0  0  0  0  0  0  0  0
   -0.5205   -3.5252   -1.6761 C   0  0  0  0  0  0  0  0  0  0  0  0
    0.0455   -3.8671   -0.8165 H   0  0  0  0  0  0  0  0  0  0  0  0
   -1.1024   -4.3356   -2.6311 N   0  0  0  0  0  0  0  0  0  0  0  0
   -1.0359   -5.3429   -2.6225 H   0  0  0  0  0  0  0  0  0  0  0  0
   -1.7835   -3.5979   -3.5760 C   0  0  0  0  0  0  0  0  0  0  0  0
   -2.5431   -3.9496   -4.7010 C   0  0  0  0  0  0  0  0  0  0  0  0
   -2.6767   -4.9874   -4.9687 H   0  0  0  0  0  0  0  0  0  0  0  0
   -3.1265   -2.9327   -5.4761 C   0  0  0  0  0  0  0  0  0  0  0  0
   -3.7149   -3.1850   -6.3479 H   0  0  0  0  0  0  0  0  0  0  0  0
   -2.9385   -1.5847   -5.1199 C   0  0  0  0  0  0  0  0  0  0  0  0
   -3.3822   -0.8052   -5.7238 H   0  0  0  0  0  0  0  0  0  0  0  0
   -2.1713   -1.2428   -3.9882 C   0  0  0  0  0  0  0  0  0  0  0  0
   -2.0237   -0.2029   -3.7335 H   0  0  0  0  0  0  0  0  0  0  0  0
   -1.5774   -2.2408   -3.1857 C   0  0  0  0  0  0  0  0  0  0  0  0
   -1.7617    0.8549   -0.2106 C   0  0  0  0  0  0  0  0  0  0  0  0
   -2.5726    1.1871   -1.0741 O   0  0  0  0  0  0  0  0  0  0  0  0
   -1.1941    1.7377    0.6223 N   0  0  0  0  0  0  0  0  0  0  0  0
   -0.4976    1.3916    1.2669 H   0  0  0  0  0  0  0  0  0  0  0  0
   -1.4666    3.1722    0.6095 C   0  0  0  0  0  0  0  0  0  0  0  0
   -2.5439    3.3427    0.6539 H   0  0  0  0  0  0  0  0  0  0  0  0
   -0.9893    3.6529    1.4644 H   0  0  0  0  0  0  0  0  0  0  0  0
   -1.0808    3.6095   -0.3129 H   0  0  0  0  0  0  0  0  0  0  0  0
  5  6  2  0  0  0  0
  5  7  1  0  0  0  0
  2  3  1  0  0  0  0
  2  4  1  0  0  0  0
  2  5  1  0  0  0  0
  1  2  1  0  0  0  0
 29 30  2  0  0  0  0
 29 31  1  0  0  0  0
 26 27  1  0  0  0  0
 26 28  2  0  0  0  0
 24 25  1  0  0  0  0
 24 26  1  0  0  0  0
 22 23  1  0  0  0  0
 22 24  2  0  0  0  0
 20 21  1  0  0  0  0
 20 22  1  0  0  0  0
 19 20  2  0  0  0  0
 19 28  1  0  0  0  0
 17 18  1  0  0  0  0
 17 19  1  0  0  0  0
 15 16  1  0  0  0  0
 15 17  1  0  0  0  0
 14 15  2  0  0  0  0
 14 28  1  0  0  0  0
 11 12  1  0  0  0  0
 11 13  1  0  0  0  0
 11 14  1  0  0  0  0
  9 10  1  0  0  0  0
  9 11  1  0  0  0  0
  9 29  1  0  0  0  0
  7  8  1  0  0  0  0
  7  9  1  0  0  0  0
 33 34  1  0  0  0  0
 33 35  1  0  0  0  0
 33 36  1  0  0  0  0
 31 32  1  0  0  0  0
 31 33  1  0  0  0  0
M  END
$$$$
default_name
  -OEChem-02102213163D

 36 37  0     1  0  0  0  0  0999 V2000
   -4.0843   -4.0736    1.2944 H   0  0  0  0  0  0  0  0  0  0  0  0
   -4.0342   -3.2816    0.5484 C   0  0  0  0  0  0  0  0  0  0  0  0
   -4.8842   -2.6126    0.6694 H   0  0  0  0  0  0  0  0  0  0  0  0
   -4.0433   -3.7186   -0.4486 H   0  0  0  0  0  0  0  0  0  0  0  0
   -2.7532   -2.5046    0.7444 C   0  0  0  0  0  0  0  0  0  0  0  0
   -1.9803   -2.8096    1.6434 O   0  0  0  0  0  0  0  0  0  0  0  0
   -2.5332   -1.4966   -0.0966 N   0  0  0  0  0  0  0  0  0  0  0  0
   -3.2312   -1.2816   -0.7936 H   0  0  0  0  0  0  0  0  0  0  0  0
   -1.3593   -0.6196   -0.0536 C   0  0  1  0  0  0  0  0  0  0  0  0
   -0.8788   -0.7266    0.9196 H   0  0  0  0  0  0  0  0  0  0  0  0
   -0.3559   -1.0533   -1.1339 C   0  0  0  0  0  0  0  0  0  0  0  0
   -0.1793   -0.2129   -1.8075 H   0  0  0  0  0  0  0  0  0  0  0  0
    0.5925   -1.2939   -0.6505 H   0  0  0  0  0  0  0  0  0  0  0  0
   -0.7791   -2.2292   -1.9610 C   0  0  0  0  0  0  0  0  0  0  0  0
   -0.7799   -3.5182   -1.5533 C   0  0  0  0  0  0  0  0  0  0  0  0
   -0.4530   -3.8566   -0.5762 H   0  0  0  0  0  0  0  0  0  0  0  0
   -1.2765   -4.3231   -2.5597 N   0  0  0  0  0  0  0  0  0  0  0  0
   -1.3653   -5.3255   -2.4787 H   0  0  0  0  0  0  0  0  0  0  0  0
   -1.6384   -3.5860   -3.6672 C   0  0  0  0  0  0  0  0  0  0  0  0
   -2.2047   -3.9291   -4.9033 C   0  0  0  0  0  0  0  0  0  0  0  0
   -2.4372   -4.9588   -5.1320 H   0  0  0  0  0  0  0  0  0  0  0  0
   -2.4636   -2.9147   -5.8409 C   0  0  0  0  0  0  0  0  0  0  0  0
   -2.8990   -3.1607   -6.8000 H   0  0  0  0  0  0  0  0  0  0  0  0
   -2.1491   -1.5785   -5.5327 C   0  0  0  0  0  0  0  0  0  0  0  0
   -2.3422   -0.8023   -6.2602 H   0  0  0  0  0  0  0  0  0  0  0  0
   -1.5784   -1.2455   -4.2878 C   0  0  0  0  0  0  0  0  0  0  0  0
   -1.3294   -0.2168   -4.0690 H   0  0  0  0  0  0  0  0  0  0  0  0
   -1.3119   -2.2403   -3.3223 C   0  0  0  0  0  0  0  0  0  0  0  0
   -1.7617    0.8549   -0.2106 C   0  0  0  0  0  0  0  0  0  0  0  0
   -2.5726    1.1871   -1.0741 O   0  0  0  0  0  0  0  0  0  0  0  0
   -1.1941    1.7377    0.6223 N   0  0  0  0  0  0  0  0  0  0  0  0
   -0.4976    1.3916    1.2669 H   0  0  0  0  0  0  0  0  0  0  0  0
   -1.4666    3.1722    0.6095 C   0  0  0  0  0  0  0  0  0  0  0  0
   -2.5439    3.3427    0.6539 H   0  0  0  0  0  0  0  0  0  0  0  0
   -0.9893    3.6529    1.4644 H   0  0  0  0  0  0  0  0  0  0  0  0
   -1.0808    3.6095   -0.3129 H   0  0  0  0  0  0  0  0  0  0  0  0
  5  6  2  0  0  0  0
  5  7  1  0  0  0  0
  2  3  1  0  0  0  0
  2  4  1  0  0  0  0
  2  5  1  0  0  0  0
  1  2  1  0  0  0  0
 29 30  2  0  0  0  0
 29 31  1  0  0  0  0
 26 27  1  0  0  0  0
 26 28  2  0  0  0  0
 24 25  1  0  0  0  0
 24 26  1  0  0  0  0
 22 23  1  0  0  0  0
 22 24  2  0  0  0  0
 20 21  1  0  0  0  0
 20 22  1  0  0  0  0
 19 20  2  0  0  0  0
 19 28  1  0  0  0  0
 17 18  1  0  0  0  0
 17 19  1  0  0  0  0
 15 16  1  0  0  0  0
 15 17  1  0  0  0  0
 14 15  2  0  0  0  0
 14 28  1  0  0  0  0
 11 12  1  0  0  0  0
 11 13  1  0  0  0  0
 11 14  1  0  0  0  0
  9 10  1  0  0  0  0
  9 11  1  0  0  0  0
  9 29  1  0  0  0  0
  7  8  1  0  0  0  0
  7  9  1  0  0  0  0
 33 34  1  0  0  0  0
 33 35  1  0  0  0  0
 33 36  1  0  0  0  0
 31 32  1  0  0  0  0
 31 33  1  0  0  0  0
M  END
$$$$
default_name
  -OEChem-02102213163D

 36 37  0     1  0  0  0  0  0999 V2000
   -4.0843   -4.0736    1.2944 H   0  0  0  0  0  0  0  0  0  0  0  0
   -4.0342   -3.2816    0.5484 C   0  0  0  0  0  0  0  0  0  0  0  0
   -4.8842   -2.6126    0.6694 H   0  0  0  0  0  0  0  0  0  0  0  0
   -4.0433   -3.7186   -0.4486 H   0  0  0  0  0  0  0  0  0  0  0  0
   -2.7532   -2.5046    0.7444 C   0  0  0  0  0  0  0  0  0  0  0  0
   -1.9803   -2.8096    1.6434 O   0  0  0  0  0  0  0  0  0  0  0  0
   -2.5332   -1.4966   -0.0966 N   0  0  0  0  0  0  0  0  0  0  0  0
   -3.2312   -1.2816   -0.7936 H   0  0  0  0  0  0  0  0  0  0  0  0
   -1.3593   -0.6196   -0.0536 C   0  0  1  0  0  0  0  0  0  0  0  0
   -0.8788   -0.7266    0.9196 H   0  0  0  0  0  0  0  0  0  0  0  0
   -0.3559   -1.0533   -1.1339 C   0  0  0  0  0  0  0  0  0  0  0  0
   -0.1793   -0.2129   -1.8075 H   0  0  0  0  0  0  0  0  0  0  0  0
    0.5925   -1.2939   -0.6505 H   0  0  0  0  0  0  0  0  0  0  0  0
   -0.7791   -2.2292   -1.9610 C   0  0  0  0  0  0  0  0  0  0  0  0
   -1.0544   -3.4654   -1.4879 C   0  0  0  0  0  0  0  0  0  0  0  0
   -0.9819   -3.7578   -0.4461 H   0  0  0  0  0  0  0  0  0  0  0  0
   -1.4574   -4.2810   -2.5270 N   0  0  0  0  0  0  0  0  0  0  0  0
   -1.7102   -5.2511   -2.4079 H   0  0  0  0  0  0  0  0  0  0  0  0
   -1.4781   -3.6019   -3.7267 C   0  0  0  0  0  0  0  0  0  0  0  0
   -1.8337   -3.9725   -5.0315 C   0  0  0  0  0  0  0  0  0  0  0  0
   -2.1686   -4.9773   -5.2431 H   0  0  0  0  0  0  0  0  0  0  0  0
   -1.7465   -3.0187   -6.0600 C   0  0  0  0  0  0  0  0  0  0  0  0
   -2.0156   -3.2868   -7.0727 H   0  0  0  0  0  0  0  0  0  0  0  0
   -1.3019   -1.7155   -5.7715 C   0  0  0  0  0  0  0  0  0  0  0  0
   -1.2284   -0.9872   -6.5673 H   0  0  0  0  0  0  0  0  0  0  0  0
   -0.9452   -1.3546   -4.4566 C   0  0  0  0  0  0  0  0  0  0  0  0
   -0.5926   -0.3539   -4.2512 H   0  0  0  0  0  0  0  0  0  0  0  0
   -1.0276   -2.2877   -3.4004 C   0  0  0  0  0  0  0  0  0  0  0  0
   -1.7617    0.8549   -0.2106 C   0  0  0  0  0  0  0  0  0  0  0  0
   -2.5726    1.1871   -1.0741 O   0  0  0  0  0  0  0  0  0  0  0  0
   -1.1941    1.7377    0.6223 N   0  0  0  0  0  0  0  0  0  0  0  0
   -0.4976    1.3916    1.2669 H   0  0  0  0  0  0  0  0  0  0  0  0
   -1.4666    3.1722    0.6095 C   0  0  0  0  0  0  0  0  0  0  0  0
   -2.5439    3.3427    0.6539 H   0  0  0  0  0  0  0  0  0  0  0  0
   -0.9893    3.6529    1.4644 H   0  0  0  0  0  0  0  0  0  0  0  0
   -1.0808    3.6095   -0.3129 H   0  0  0  0  0  0  0  0  0  0  0  0
  5  6  2  0  0  0  0
  5  7  1  0  0  0  0
  2  3  1  0  0  0  0
  2  4  1  0  0  0  0
  2  5  1  0  0  0  0
  1  2  1  0  0  0  0
 29 30  2  0  0  0  0
 29 31  1  0  0  0  0
 26 27  1  0  0  0  0
 26 28  2  0  0  0  0
 24 25  1  0  0  0  0
 24 26  1  0  0  0  0
 22 23  1  0  0  0  0
 22 24  2  0  0  0  0
 20 21  1  0  0  0  0
 20 22  1  0  0  0  0
 19 20  2  0  0  0  0
 19 28  1  0  0  0  0
 17 18  1  0  0  0  0
 17 19  1  0  0  0  0
 15 16  1  0  0  0  0
 15 17  1  0  0  0  0
 14 15  2  0  0  0  0
 14 28  1  0  0  0  0
 11 12  1  0  0  0  0
 11 13  1  0  0  0  0
 11 14  1  0  0  0  0
  9 10  1  0  0  0  0
  9 11  1  0  0  0  0
  9 29  1  0  0  0  0
  7  8  1  0  0  0  0
  7  9  1  0  0  0  0
 33 34  1  0  0  0  0
 33 35  1  0  0  0  0
 33 36  1  0  0  0  0
 31 32  1  0  0  0  0
 31 33  1  0  0  0  0
M  END
$$$$
default_name
  -OEChem-02102213163D

 36 37  0     1  0  0  0  0  0999 V2000
   -4.0843   -4.0736    1.2944 H   0  0  0  0  0  0  0  0  0  0  0  0
   -4.0342   -3.2816    0.5484 C   0  0  0  0  0  0  0  0  0  0  0  0
   -4.8842   -2.6126    0.6694 H   0  0  0  0  0  0  0  0  0  0  0  0
   -4.0433   -3.7186   -0.4486 H   0  0  0  0  0  0  0  0  0  0  0  0
   -2.7532   -2.5046    0.7444 C   0  0  0  0  0  0  0  0  0  0  0  0
   -1.9803   -2.8096    1.6434 O   0  0  0  0  0  0  0  0  0  0  0  0
   -2.5332   -1.4966   -0.0966 N   0  0  0  0  0  0  0  0  0  0  0  0
   -3.2312   -1.2816   -0.7936 H   0  0  0  0  0  0  0  0  0  0  0  0
   -1.3593   -0.6196   -0.0536 C   0  0  1  0  0  0  0  0  0  0  0  0
   -0.8788   -0.7266    0.9196 H   0  0  0  0  0  0  0  0  0  0  0  0
   -0.3559   -1.0533   -1.1339 C   0  0  0  0  0  0  0  0  0  0  0  0
   -0.1793   -0.2129   -1.8075 H   0  0  0  0  0  0  0  0  0  0  0  0
    0.5925   -1.2939   -0.6505 H   0  0  0  0  0  0  0  0  0  0  0  0
   -0.7791   -2.2292   -1.9610 C   0  0  0  0  0  0  0  0  0  0  0  0
   -1.3252   -3.3704   -1.4844 C   0  0  0  0  0  0  0  0  0  0  0  0
   -1.5050   -3.5773   -0.4351 H   0  0  0  0  0  0  0  0  0  0  0  0
   -1.6328   -4.2121   -2.5353 N   0  0  0  0  0  0  0  0  0  0  0  0
   -2.0471   -5.1248   -2.4150 H   0  0  0  0  0  0  0  0  0  0  0  0
   -1.3134   -3.6444   -3.7504 C   0  0  0  0  0  0  0  0  0  0  0  0
   -1.4556   -4.0767   -5.0768 C   0  0  0  0  0  0  0  0  0  0  0  0
   -1.8893   -5.0417   -5.2946 H   0  0  0  0  0  0  0  0  0  0  0  0
   -1.0243   -3.2376   -6.1184 C   0  0  0  0  0  0  0  0  0  0  0  0
   -1.1250   -3.5547   -7.1476 H   0  0  0  0  0  0  0  0  0  0  0  0
   -0.4547   -1.9862   -5.8201 C   0  0  0  0  0  0  0  0  0  0  0  0
   -0.1166   -1.3474   -6.6242 H   0  0  0  0  0  0  0  0  0  0  0  0
   -0.3149   -1.5629   -4.4831 C   0  0  0  0  0  0  0  0  0  0  0  0
    0.1365   -0.6049   -4.2674 H   0  0  0  0  0  0  0  0  0  0  0  0
   -0.7440   -2.3797   -3.4147 C   0  0  0  0  0  0  0  0  0  0  0  0
   -1.7617    0.8549   -0.2106 C   0  0  0  0  0  0  0  0  0  0  0  0
   -2.5726    1.1871   -1.0741 O   0  0  0  0  0  0  0  0  0  0  0  0
   -1.1941    1.7377    0.6223 N   0  0  0  0  0  0  0  0  0  0  0  0
   -0.4976    1.3916    1.2669 H   0  0  0  0  0  0  0  0  0  0  0  0
   -1.4666    3.1722    0.6095 C   0  0  0  0  0  0  0  0  0  0  0  0
   -2.5439    3.3427    0.6539 H   0  0  0  0  0  0  0  0  0  0  0  0
   -0.9893    3.6529    1.4644 H   0  0  0  0  0  0  0  0  0  0  0  0
   -1.0808    3.6095   -0.3129 H   0  0  0  0  0  0  0  0  0  0  0  0
  5  6  2  0  0  0  0
  5  7  1  0  0  0  0
  2  3  1  0  0  0  0
  2  4  1  0  0  0  0
  2  5  1  0  0  0  0
  1  2  1  0  0  0  0
 29 30  2  0  0  0  0
 29 31  1  0  0  0  0
 26 27  1  0  0  0  0
 26 28  2  0  0  0  0
 24 25  1  0  0  0  0
 24 26  1  0  0  0  0
 22 23  1  0  0  0  0
 22 24  2  0  0  0  0
 20 21  1  0  0  0  0
 20 22  1  0  0  0  0
 19 20  2  0  0  0  0
 19 28  1  0  0  0  0
 17 18  1  0  0  0  0
 17 19  1  0  0  0  0
 15 16  1  0  0  0  0
 15 17  1  0  0  0  0
 14 15  2  0  0  0  0
 14 28  1  0  0  0  0
 11 12  1  0  0  0  0
 11 13  1  0  0  0  0
 11 14  1  0  0  0  0
  9 10  1  0  0  0  0
  9 11  1  0  0  0  0
  9 29  1  0  0  0  0
  7  8  1  0  0  0  0
  7  9  1  0  0  0  0
 33 34  1  0  0  0  0
 33 35  1  0  0  0  0
 33 36  1  0  0  0  0
 31 32  1  0  0  0  0
 31 33  1  0  0  0  0
M  END
$$$$
default_name
  -OEChem-02102213163D

 36 37  0     1  0  0  0  0  0999 V2000
   -4.0843   -4.0736    1.2944 H   0  0  0  0  0  0  0  0  0  0  0  0
   -4.0342   -3.2816    0.5484 C   0  0  0  0  0  0  0  0  0  0  0  0
   -4.8842   -2.6126    0.6694 H   0  0  0  0  0  0  0  0  0  0  0  0
   -4.0433   -3.7186   -0.4486 H   0  0  0  0  0  0  0  0  0  0  0  0
   -2.7532   -2.5046    0.7444 C   0  0  0  0  0  0  0  0  0  0  0  0
   -1.9803   -2.8096    1.6434 O   0  0  0  0  0  0  0  0  0  0  0  0
   -2.5332   -1.4966   -0.0966 N   0  0  0  0  0  0  0  0  0  0  0  0
   -3.2312   -1.2816   -0.7936 H   0  0  0  0  0  0  0  0  0  0  0  0
   -1.3593   -0.6196   -0.0536 C   0  0  1  0  0  0  0  0  0  0  0  0
   -0.8788   -0.7266    0.9196 H   0  0  0  0  0  0  0  0  0  0  0  0
   -0.3559   -1.0533   -1.1339 C   0  0  0  0  0  0  0  0  0  0  0  0
   -0.1793   -0.2129   -1.8075 H   0  0  0  0  0  0  0  0  0  0  0  0
    0.5925   -1.2939   -0.6505 H   0  0  0  0  0  0  0  0  0  0  0  0
   -0.7791   -2.2292   -1.9610 C   0  0  0  0  0  0  0  0  0  0  0  0
   -1.5740   -3.2397   -1.5429 C   0  0  0  0  0  0  0  0  0  0  0  0
   -1.9867   -3.3273   -0.5438 H   0  0  0  0  0  0  0  0  0  0  0  0
   -1.7907   -4.1211   -2.5839 N   0  0  0  0  0  0  0  0  0  0  0  0
   -2.3530   -4.9552   -2.4996 H   0  0  0  0  0  0  0  0  0  0  0  0
   -1.1557   -3.7108   -3.7368 C   0  0  0  0  0  0  0  0  0  0  0  0
   -1.0961   -4.2347   -5.0361 C   0  0  0  0  0  0  0  0  0  0  0  0
   -1.6182   -5.1475   -5.2828 H   0  0  0  0  0  0  0  0  0  0  0  0
   -0.3461   -3.5565   -6.0121 C   0  0  0  0  0  0  0  0  0  0  0  0
   -0.2878   -3.9462   -7.0194 H   0  0  0  0  0  0  0  0  0  0  0  0
    0.3349   -2.3723   -5.6752 C   0  0  0  0  0  0  0  0  0  0  0  0
    0.9175   -1.8582   -6.4271 H   0  0  0  0  0  0  0  0  0  0  0  0
    0.2695   -1.8560   -4.3655 C   0  0  0  0  0  0  0  0  0  0  0  0
    0.8082   -0.9527   -4.1167 H   0  0  0  0  0  0  0  0  0  0  0  0
   -0.4802   -2.5102   -3.3641 C   0  0  0  0  0  0  0  0  0  0  0  0
   -1.7617    0.8549   -0.2106 C   0  0  0  0  0  0  0  0  0  0  0  0
   -2.5726    1.1871   -1.0741 O   0  0  0  0  0  0  0  0  0  0  0  0
   -1.1941    1.7377    0.6223 N   0  0  0  0  0  0  0  0  0  0  0  0
   -0.4976    1.3916    1.2669 H   0  0  0  0  0  0  0  0  0  0  0  0
   -1.4666    3.1722    0.6095 C   0  0  0  0  0  0  0  0  0  0  0  0
   -2.5439    3.3427    0.6539 H   0  0  0  0  0  0  0  0  0  0  0  0
   -0.9893    3.6529    1.4644 H   0  0  0  0  0  0  0  0  0  0  0  0
   -1.0808    3.6095   -0.3129 H   0  0  0  0  0  0  0  0  0  0  0  0
  5  6  2  0  0  0  0
  5  7  1  0  0  0  0
  2  3  1  0  0  0  0
  2  4  1  0  0  0  0
  2  5  1  0  0  0  0
  1  2  1  0  0  0  0
 29 30  2  0  0  0  0
 29 31  1  0  0  0  0
 26 27  1  0  0  0  0
 26 28  2  0  0  0  0
 24 25  1  0  0  0  0
 24 26  1  0  0  0  0
 22 23  1  0  0  0  0
 22 24  2  0  0  0  0
 20 21  1  0  0  0  0
 20 22  1  0  0  0  0
 19 20  2  0  0  0  0
 19 28  1  0  0  0  0
 17 18  1  0  0  0  0
 17 19  1  0  0  0  0
 15 16  1  0  0  0  0
 15 17  1  0  0  0  0
 14 15  2  0  0  0  0
 14 28  1  0  0  0  0
 11 12  1  0  0  0  0
 11 13  1  0  0  0  0
 11 14  1  0  0  0  0
  9 10  1  0  0  0  0
  9 11  1  0  0  0  0
  9 29  1  0  0  0  0
  7  8  1  0  0  0  0
  7  9  1  0  0  0  0
 33 34  1  0  0  0  0
 33 35  1  0  0  0  0
 33 36  1  0  0  0  0
 31 32  1  0  0  0  0
 31 33  1  0  0  0  0
M  END
$$$$
default_name
  -OEChem-02102213163D

 36 37  0     1  0  0  0  0  0999 V2000
   -4.0843   -4.0736    1.2944 H   0  0  0  0  0  0  0  0  0  0  0  0
   -4.0342   -3.2816    0.5484 C   0  0  0  0  0  0  0  0  0  0  0  0
   -4.8842   -2.6126    0.6694 H   0  0  0  0  0  0  0  0  0  0  0  0
   -4.0433   -3.7186   -0.4486 H   0  0  0  0  0  0  0  0  0  0  0  0
   -2.7532   -2.5046    0.7444 C   0  0  0  0  0  0  0  0  0  0  0  0
   -1.9803   -2.8096    1.6434 O   0  0  0  0  0  0  0  0  0  0  0  0
   -2.5332   -1.4966   -0.0966 N   0  0  0  0  0  0  0  0  0  0  0  0
   -3.2312   -1.2816   -0.7936 H   0  0  0  0  0  0  0  0  0  0  0  0
   -1.3593   -0.6196   -0.0536 C   0  0  1  0  0  0  0  0  0  0  0  0
   -0.8788   -0.7266    0.9196 H   0  0  0  0  0  0  0  0  0  0  0  0
   -0.3559   -1.0533   -1.1339 C   0  0  0  0  0  0  0  0  0  0  0  0
   -0.1793   -0.2129   -1.8075 H   0  0  0  0  0  0  0  0  0  0  0  0
    0.5925   -1.2939   -0.6505 H   0  0  0  0  0  0  0  0  0  0  0  0
   -0.7791   -2.2292   -1.9610 C   0  0  0  0  0  0  0  0  0  0  0  0
   -1.7837   -3.0822   -1.6594 C   0  0  0  0  0  0  0  0  0  0  0  0
   -2.3943   -3.0251   -0.7650 H   0  0  0  0  0  0  0  0  0  0  0  0
   -1.9203   -4.0142   -2.6695 N   0  0  0  0  0  0  0  0  0  0  0  0
   -2.6072   -4.7539   -2.6557 H   0  0  0  0  0  0  0  0  0  0  0  0
   -1.0155   -3.7965   -3.6867 C   0  0  0  0  0  0  0  0  0  0  0  0
   -0.7796   -4.4358   -4.9123 C   0  0  0  0  0  0  0  0  0  0  0  0
   -1.3738   -5.2876   -5.2087 H   0  0  0  0  0  0  0  0  0  0  0  0
    0.2419   -3.9536   -5.7484 C   0  0  0  0  0  0  0  0  0  0  0  0
    0.4389   -4.4346   -6.6970 H   0  0  0  0  0  0  0  0  0  0  0  0
    1.0129   -2.8475   -5.3467 C   0  0  0  0  0  0  0  0  0  0  0  0
    1.8033   -2.4850   -5.9894 H   0  0  0  0  0  0  0  0  0  0  0  0
    0.7683   -2.2140   -4.1118 C   0  0  0  0  0  0  0  0  0  0  0  0
    1.3768   -1.3735   -3.8093 H   0  0  0  0  0  0  0  0  0  0  0  0
   -0.2544   -2.6703   -3.2522 C   0  0  0  0  0  0  0  0  0  0  0  0
   -1.7617    0.8549   -0.2106 C   0  0  0  0  0  0  0  0  0  0  0  0
   -2.5726    1.1871   -1.0741 O   0  0  0  0  0  0  0  0  0  0  0  0
   -1.1941    1.7377    0.6223 N   0  0  0  0  0  0  0  0  0  0  0  0
   -0.4976    1.3916    1.2669 H   0  0  0  0  0  0  0  0  0  0  0  0
   -1.4666    3.1722    0.6095 C   0  0  0  0  0  0  0  0  0  0  0  0
   -2.5439    3.3427    0.6539 H   0  0  0  0  0  0  0  0  0  0  0  0
   -0.9893    3.6529    1.4644 H   0  0  0  0  0  0  0  0  0  0  0  0
   -1.0808    3.6095   -0.3129 H   0  0  0  0  0  0  0  0  0  0  0  0
  5  6  2  0  0  0  0
  5  7  1  0  0  0  0
  2  3  1  0  0  0  0
  2  4  1  0  0  0  0
  2  5  1  0  0  0  0
  1  2  1  0  0  0  0
 29 30  2  0  0  0  0
 29 31  1  0  0  0  0
 26 27  1  0  0  0  0
 26 28  2  0  0  0  0
 24 25  1  0  0  0  0
 24 26  1  0  0  0  0
 22 23  1  0  0  0  0
 22 24  2  0  0  0  0
 20 21  1  0  0  0  0
 20 22  1  0  0  0  0
 19 20  2  0  0  0  0
 19 28  1  0  0  0  0
 17 18  1  0  0  0  0
 17 19  1  0  0  0  0
 15 16  1  0  0  0  0
 15 17  1  0  0  0  0
 14 15  2  0  0  0  0
 14 28  1  0  0  0  0
 11 12  1  0  0  0  0
 11 13  1  0  0  0  0
 11 14  1  0  0  0  0
  9 10  1  0  0  0  0
  9 11  1  0  0  0  0
  9 29  1  0  0  0  0
  7  8  1  0  0  0  0
  7  9  1  0  0  0  0
 33 34  1  0  0  0  0
 33 35  1  0  0  0  0
 33 36  1  0  0  0  0
 31 32  1  0  0  0  0
 31 33  1  0  0  0  0
M  END
$$$$
default_name
  -OEChem-02102213163D

 36 37  0     1  0  0  0  0  0999 V2000
   -4.0843   -4.0736    1.2944 H   0  0  0  0  0  0  0  0  0  0  0  0
   -4.0342   -3.2816    0.5484 C   0  0  0  0  0  0  0  0  0  0  0  0
   -4.8842   -2.6126    0.6694 H   0  0  0  0  0  0  0  0  0  0  0  0
   -4.0433   -3.7186   -0.4486 H   0  0  0  0  0  0  0  0  0  0  0  0
   -2.7532   -2.5046    0.7444 C   0  0  0  0  0  0  0  0  0  0  0  0
   -1.9803   -2.8096    1.6434 O   0  0  0  0  0  0  0  0  0  0  0  0
   -2.5332   -1.4966   -0.0966 N   0  0  0  0  0  0  0  0  0  0  0  0
   -3.2312   -1.2816   -0.7936 H   0  0  0  0  0  0  0  0  0  0  0  0
   -1.3593   -0.6196   -0.0536 C   0  0  1  0  0  0  0  0  0  0  0  0
   -0.8788   -0.7266    0.9196 H   0  0  0  0  0  0  0  0  0  0  0  0
   -0.3559   -1.0533   -1.1339 C   0  0  0  0  0  0  0  0  0  0  0  0
   -0.1793   -0.2129   -1.8075 H   0  0  0  0  0  0  0  0  0  0  0  0
    0.5925   -1.2939   -0.6505 H   0  0  0  0  0  0  0  0  0  0  0  0
   -0.7791   -2.2292   -1.9610 C   0  0  0  0  0  0  0  0  0  0  0  0
   -1.9401   -2.9086   -1.8262 C   0  0  0  0  0  0  0  0  0  0  0  0
   -2.6999   -2.6911   -1.0835 H   0  0  0  0  0  0  0  0  0  0  0  0
   -2.0128   -3.8986   -2.7864 N   0  0  0  0  0  0  0  0  0  0  0  0
   -2.7921   -4.5346   -2.8729 H   0  0  0  0  0  0  0  0  0  0  0  0
   -0.9025   -3.8956   -3.6036 C   0  0  0  0  0  0  0  0  0  0  0  0
   -0.5278   -4.6661   -4.7137 C   0  0  0  0  0  0  0  0  0  0  0  0
   -1.1729   -5.4524   -5.0772 H   0  0  0  0  0  0  0  0  0  0  0  0
    0.6996   -4.4019   -5.3453 C   0  0  0  0  0  0  0  0  0  0  0  0
    1.0057   -4.9866   -6.2022 H   0  0  0  0  0  0  0  0  0  0  0  0
    1.5333   -3.3793   -4.8570 C   0  0  0  0  0  0  0  0  0  0  0  0
    2.4805   -3.1849   -5.3408 H   0  0  0  0  0  0  0  0  0  0  0  0
    1.1474   -2.6125   -3.7392 C   0  0  0  0  0  0  0  0  0  0  0  0
    1.8034   -1.8388   -3.3662 H   0  0  0  0  0  0  0  0  0  0  0  0
   -0.0818   -2.8489   -3.0865 C   0  0  0  0  0  0  0  0  0  0  0  0
   -1.7617    0.8549   -0.2106 C   0  0  0  0  0  0  0  0  0  0  0  0
   -2.5726    1.1871   -1.0741 O   0  0  0  0  0  0  0  0  0  0  0  0
   -1.1941    1.7377    0.6223 N   0  0  0  0  0  0  0  0  0  0  0  0
   -0.4976    1.3916    1.2669 H   0  0  0  0  0  0  0  0  0  0  0  0
   -1.4666    3.1722    0.6095 C   0  0  0  0  0  0  0  0  0  0  0  0
   -2.5439    3.3427    0.6539 H   0  0  0  0  0  0  0  0  0  0  0  0
   -0.9893    3.6529    1.4644 H   0  0  0  0  0  0  0  0  0  0  0  0
   -1.0808    3.6095   -0.3129 H   0  0  0  0  0  0  0  0  0  0  0  0
  5  6  2  0  0  0  0
  5  7  1  0  0  0  0
  2  3  1  0  0  0  0
  2  4  1  0  0  0  0
  2  5  1  0  0  0  0
  1  2  1  0  0  0  0
 29 30  2  0  0  0  0
 29 31  1  0  0  0  0
 26 27  1  0  0  0  0
 26 28  2  0  0  0  0
 24 25  1  0  0  0  0
 24 26  1  0  0  0  0
 22 23  1  0  0  0  0
 22 24  2  0  0  0  0
 20 21  1  0  0  0  0
 20 22  1  0  0  0  0
 19 20  2  0  0  0  0
 19 28  1  0  0  0  0
 17 18  1  0  0  0  0
 17 19  1  0  0  0  0
 15 16  1  0  0  0  0
 15 17  1  0  0  0  0
 14 15  2  0  0  0  0
 14 28  1  0  0  0  0
 11 12  1  0  0  0  0
 11 13  1  0  0  0  0
 11 14  1  0  0  0  0
  9 10  1  0  0  0  0
  9 11  1  0  0  0  0
  9 29  1  0  0  0  0
  7  8  1  0  0  0  0
  7  9  1  0  0  0  0
 33 34  1  0  0  0  0
 33 35  1  0  0  0  0
 33 36  1  0  0  0  0
 31 32  1  0  0  0  0
 31 33  1  0  0  0  0
M  END
$$$$
default_name
  -OEChem-02102213163D

 36 37  0     1  0  0  0  0  0999 V2000
   -4.0843   -4.0736    1.2944 H   0  0  0  0  0  0  0  0  0  0  0  0
   -4.0342   -3.2816    0.5484 C   0  0  0  0  0  0  0  0  0  0  0  0
   -4.8842   -2.6126    0.6694 H   0  0  0  0  0  0  0  0  0  0  0  0
   -4.0433   -3.7186   -0.4486 H   0  0  0  0  0  0  0  0  0  0  0  0
   -2.7532   -2.5046    0.7444 C   0  0  0  0  0  0  0  0  0  0  0  0
   -1.9803   -2.8096    1.6434 O   0  0  0  0  0  0  0  0  0  0  0  0
   -2.5332   -1.4966   -0.0966 N   0  0  0  0  0  0  0  0  0  0  0  0
   -3.2312   -1.2816   -0.7936 H   0  0  0  0  0  0  0  0  0  0  0  0
   -1.3593   -0.6196   -0.0536 C   0  0  1  0  0  0  0  0  0  0  0  0
   -0.8788   -0.7266    0.9196 H   0  0  0  0  0  0  0  0  0  0  0  0
   -0.3559   -1.0533   -1.1339 C   0  0  0  0  0  0  0  0  0  0  0  0
   -0.1793   -0.2129   -1.8075 H   0  0  0  0  0  0  0  0  0  0  0  0
    0.5925   -1.2939   -0.6505 H   0  0  0  0  0  0  0  0  0  0  0  0
   -0.7791   -2.2292   -1.9610 C   0  0  0  0  0  0  0  0  0  0  0  0
   -2.0326   -2.7308   -2.0317 C   0  0  0  0  0  0  0  0  0  0  0  0
   -2.8827   -2.3481   -1.4776 H   0  0  0  0  0  0  0  0  0  0  0  0
   -2.0620   -3.7824   -2.9265 N   0  0  0  0  0  0  0  0  0  0  0  0
   -2.8954   -4.3121   -3.1363 H   0  0  0  0  0  0  0  0  0  0  0  0
   -0.8244   -4.0014   -3.4932 C   0  0  0  0  0  0  0  0  0  0  0  0
   -0.3577   -4.9100   -4.4539 C   0  0  0  0  0  0  0  0  0  0  0  0
   -1.0290   -5.6307   -4.8974 H   0  0  0  0  0  0  0  0  0  0  0  0
    0.9957   -4.8708   -4.8302 C   0  0  0  0  0  0  0  0  0  0  0  0
    1.3738   -5.5646   -5.5689 H   0  0  0  0  0  0  0  0  0  0  0  0
    1.8606   -3.9315   -4.2394 C   0  0  0  0  0  0  0  0  0  0  0  0
    2.9030   -3.9104   -4.5257 H   0  0  0  0  0  0  0  0  0  0  0  0
    1.3810   -3.0243   -3.2733 C   0  0  0  0  0  0  0  0  0  0  0  0
    2.0590   -2.3168   -2.8175 H   0  0  0  0  0  0  0  0  0  0  0  0
    0.0257   -3.0340   -2.8784 C   0  0  0  0  0  0  0  0  0  0  0  0
   -1.7617    0.8549   -0.2106 C   0  0  0  0  0  0  0  0  0  0  0  0
   -2.5726    1.1871   -1.0741 O   0  0  0  0  0  0  0  0  0  0  0  0
   -1.1941    1.7377    0.6223 N   0  0  0  0  0  0  0  0  0  0  0  0
   -0.4976    1.3916    1.2669 H   0  0  0  0  0  0  0  0  0  0  0  0
   -1.4666    3.1722    0.6095 C   0  0  0  0  0  0  0  0  0  0  0  0
   -2.5439    3.3427    0.6539 H   0  0  0  0  0  0  0  0  0  0  0  0
   -0.9893    3.6529    1.4644 H   0  0  0  0  0  0  0  0  0  0  0  0
   -1.0808    3.6095   -0.3129 H   0  0  0  0  0  0  0  0  0  0  0  0
  5  6  2  0  0  0  0
  5  7  1  0  0  0  0
  2  3  1  0  0  0  0
  2  4  1  0  0  0  0
  2  5  1  0  0  0  0
  1  2  1  0  0  0  0
 29 30  2  0  0  0  0
 29 31  1  0  0  0  0
 26 27  1  0  0  0  0
 26 28  2  0  0  0  0
 24 25  1  0  0  0  0
 24 26  1  0  0  0  0
 22 23  1  0  0  0  0
 22 24  2  0  0  0  0
 20 21  1  0  0  0  0
 20 22  1  0  0  0  0
 19 20  2  0  0  0  0
 19 28  1  0  0  0  0
 17 18  1  0  0  0  0
 17 19  1  0  0  0  0
 15 16  1  0  0  0  0
 15 17  1  0  0  0  0
 14 15  2  0  0  0  0
 14 28  1  0  0  0  0
 11 12  1  0  0  0  0
 11 13  1  0  0  0  0
 11 14  1  0  0  0  0
  9 10  1  0  0  0  0
  9 11  1  0  0  0  0
  9 29  1  0  0  0  0
  7  8  1  0  0  0  0
  7  9  1  0  0  0  0
 33 34  1  0  0  0  0
 33 35  1  0  0  0  0
 33 36  1  0  0  0  0
 31 32  1  0  0  0  0
 31 33  1  0  0  0  0
M  END
$$$$
default_name
  -OEChem-02102213163D

 36 37  0     1  0  0  0  0  0999 V2000
   -4.0843   -4.0736    1.2944 H   0  0  0  0  0  0  0  0  0  0  0  0
   -4.0342   -3.2816    0.5484 C   0  0  0  0  0  0  0  0  0  0  0  0
   -4.8842   -2.6126    0.6694 H   0  0  0  0  0  0  0  0  0  0  0  0
   -4.0433   -3.7186   -0.4486 H   0  0  0  0  0  0  0  0  0  0  0  0
   -2.7532   -2.5046    0.7444 C   0  0  0  0  0  0  0  0  0  0  0  0
   -1.9803   -2.8096    1.6434 O   0  0  0  0  0  0  0  0  0  0  0  0
   -2.5332   -1.4966   -0.0966 N   0  0  0  0  0  0  0  0  0  0  0  0
   -3.2312   -1.2816   -0.7936 H   0  0  0  0  0  0  0  0  0  0  0  0
   -1.3593   -0.6196   -0.0536 C   0  0  1  0  0  0  0  0  0  0  0  0
   -0.8788   -0.7266    0.9196 H   0  0  0  0  0  0  0  0  0  0  0  0
   -0.3559   -1.0533   -1.1339 C   0  0  0  0  0  0  0  0  0  0  0  0
   -0.1793   -0.2129   -1.8075 H   0  0  0  0  0  0  0  0  0  0  0  0
    0.5925   -1.2939   -0.6505 H   0  0  0  0  0  0  0  0  0  0  0  0
   -0.7791   -2.2292   -1.9610 C   0  0  0  0  0  0  0  0  0  0  0  0
   -2.0547   -2.5609   -2.2619 C   0  0  0  0  0  0  0  0  0  0  0  0
   -2.9302   -2.0194   -1.9204 H   0  0  0  0  0  0  0  0  0  0  0  0
   -2.0644   -3.6733   -3.0804 N   0  0  0  0  0  0  0  0  0  0  0  0
   -2.9099   -4.1018   -3.4279 H   0  0  0  0  0  0  0  0  0  0  0  0
   -0.7865   -4.1067   -3.3629 C   0  0  0  0  0  0  0  0  0  0  0  0
   -0.2811   -5.1509   -4.1507 C   0  0  0  0  0  0  0  0  0  0  0  0
   -0.9520   -5.8103   -4.6814 H   0  0  0  0  0  0  0  0  0  0  0  0
    1.1102   -5.3284   -4.2383 C   0  0  0  0  0  0  0  0  0  0  0  0
    1.5182   -6.1291   -4.8402 H   0  0  0  0  0  0  0  0  0  0  0  0
    1.9724   -4.4665   -3.5360 C   0  0  0  0  0  0  0  0  0  0  0  0
    3.0419   -4.6118   -3.5995 H   0  0  0  0  0  0  0  0  0  0  0  0
    1.4532   -3.4215   -2.7456 C   0  0  0  0  0  0  0  0  0  0  0  0
    2.1262   -2.7749   -2.2007 H   0  0  0  0  0  0  0  0  0  0  0  0
    0.0609   -3.2130   -2.6420 C   0  0  0  0  0  0  0  0  0  0  0  0
   -1.7617    0.8549   -0.2106 C   0  0  0  0  0  0  0  0  0  0  0  0
   -2.5726    1.1871   -1.0741 O   0  0  0  0  0  0  0  0  0  0  0  0
   -1.1941    1.7377    0.6223 N   0  0  0  0  0  0  0  0  0  0  0  0
   -0.4976    1.3916    1.2669 H   0  0  0  0  0  0  0  0  0  0  0  0
   -1.4666    3.1722    0.6095 C   0  0  0  0  0  0  0  0  0  0  0  0
   -2.5439    3.3427    0.6539 H   0  0  0  0  0  0  0  0  0  0  0  0
   -0.9893    3.6529    1.4644 H   0  0  0  0  0  0  0  0  0  0  0  0
   -1.0808    3.6095   -0.3129 H   0  0  0  0  0  0  0  0  0  0  0  0
  5  6  2  0  0  0  0
  5  7  1  0  0  0  0
  2  3  1  0  0  0  0
  2  4  1  0  0  0  0
  2  5  1  0  0  0  0
  1  2  1  0  0  0  0
 29 30  2  0  0  0  0
 29 31  1  0  0  0  0
 26 27  1  0  0  0  0
 26 28  2  0  0  0  0
 24 25  1  0  0  0  0
 24 26  1  0  0  0  0
 22 23  1  0  0  0  0
 22 24  2  0  0  0  0
 20 21  1  0  0  0  0
 20 22  1  0  0  0  0
 19 20  2  0  0  0  0
 19 28  1  0  0  0  0
 17 18  1  0  0  0  0
 17 19  1  0  0  0  0
 15 16  1  0  0  0  0
 15 17  1  0  0  0  0
 14 15  2  0  0  0  0
 14 28  1  0  0  0  0
 11 12  1  0  0  0  0
 11 13  1  0  0  0  0
 11 14  1  0  0  0  0
  9 10  1  0  0  0  0
  9 11  1  0  0  0  0
  9 29  1  0  0  0  0
  7  8  1  0  0  0  0
  7  9  1  0  0  0  0
 33 34  1  0  0  0  0
 33 35  1  0  0  0  0
 33 36  1  0  0  0  0
 31 32  1  0  0  0  0
 31 33  1  0  0  0  0
M  END
$$$$
default_name
  -OEChem-02102213163D

 36 37  0     1  0  0  0  0  0999 V2000
   -4.0843   -4.0736    1.2944 H   0  0  0  0  0  0  0  0  0  0  0  0
   -4.0342   -3.2816    0.5484 C   0  0  0  0  0  0  0  0  0  0  0  0
   -4.8842   -2.6126    0.6694 H   0  0  0  0  0  0  0  0  0  0  0  0
   -4.0433   -3.7186   -0.4486 H   0  0  0  0  0  0  0  0  0  0  0  0
   -2.7532   -2.5046    0.7444 C   0  0  0  0  0  0  0  0  0  0  0  0
   -1.9803   -2.8096    1.6434 O   0  0  0  0  0  0  0  0  0  0  0  0
   -2.5332   -1.4966   -0.0966 N   0  0  0  0  0  0  0  0  0  0  0  0
   -3.2312   -1.2816   -0.7936 H   0  0  0  0  0  0  0  0  0  0  0  0
   -1.3593   -0.6196   -0.0536 C   0  0  1  0  0  0  0  0  0  0  0  0
   -0.8788   -0.7266    0.9196 H   0  0  0  0  0  0  0  0  0  0  0  0
   -0.3559   -1.0533   -1.1339 C   0  0  0  0  0  0  0  0  0  0  0  0
   -0.1793   -0.2129   -1.8075 H   0  0  0  0  0  0  0  0  0  0  0  0
    0.5925   -1.2939   -0.6505 H   0  0  0  0  0  0  0  0  0  0  0  0
   -0.7791   -2.2292   -1.9610 C   0  0  0  0  0  0  0  0  0  0  0  0
   -2.0051   -2.4104   -2.5013 C   0  0  0  0  0  0  0  0  0  0  0  0
   -2.8392   -1.7276   -2.3819 H   0  0  0  0  0  0  0  0  0  0  0  0
   -2.0199   -3.5789   -3.2374 N   0  0  0  0  0  0  0  0  0  0  0  0
   -2.8346   -3.9179   -3.7279 H   0  0  0  0  0  0  0  0  0  0  0  0
   -0.7914   -4.2043   -3.2217 C   0  0  0  0  0  0  0  0  0  0  0  0
   -0.3031   -5.3724   -3.8245 C   0  0  0  0  0  0  0  0  0  0  0  0
   -0.9472   -5.9791   -4.4440 H   0  0  0  0  0  0  0  0  0  0  0  0
    1.0353   -5.7435   -3.6098 C   0  0  0  0  0  0  0  0  0  0  0  0
    1.4290   -6.6418   -4.0657 H   0  0  0  0  0  0  0  0  0  0  0  0
    1.8611   -4.9478   -2.7947 C   0  0  0  0  0  0  0  0  0  0  0  0
    2.8878   -5.2415   -2.6254 H   0  0  0  0  0  0  0  0  0  0  0  0
    1.3591   -3.7768   -2.1923 C   0  0  0  0  0  0  0  0  0  0  0  0
    2.0005   -3.1818   -1.5577 H   0  0  0  0  0  0  0  0  0  0  0  0
    0.0212   -3.3736   -2.3934 C   0  0  0  0  0  0  0  0  0  0  0  0
   -1.7617    0.8549   -0.2106 C   0  0  0  0  0  0  0  0  0  0  0  0
   -2.5726    1.1871   -1.0741 O   0  0  0  0  0  0  0  0  0  0  0  0
   -1.1941    1.7377    0.6223 N   0  0  0  0  0  0  0  0  0  0  0  0
   -0.4976    1.3916    1.2669 H   0  0  0  0  0  0  0  0  0  0  0  0
   -1.4666    3.1722    0.6095 C   0  0  0  0  0  0  0  0  0  0  0  0
   -2.5439    3.3427    0.6539 H   0  0  0  0  0  0  0  0  0  0  0  0
   -0.9893    3.6529    1.4644 H   0  0  0  0  0  0  0  0  0  0  0  0
   -1.0808    3.6095   -0.3129 H   0  0  0  0  0  0  0  0  0  0  0  0
  5  6  2  0  0  0  0
  5  7  1  0  0  0  0
  2  3  1  0  0  0  0
  2  4  1  0  0  0  0
  2  5  1  0  0  0  0
  1  2  1  0  0  0  0
 29 30  2  0  0  0  0
 29 31  1  0  0  0  0
 26 27  1  0  0  0  0
 26 28  2  0  0  0  0
 24 25  1  0  0  0  0
 24 26  1  0  0  0  0
 22 23  1  0  0  0  0
 22 24  2  0  0  0  0
 20 21  1  0  0  0  0
 20 22  1  0  0  0  0
 19 20  2  0  0  0  0
 19 28  1  0  0  0  0
 17 18  1  0  0  0  0
 17 19  1  0  0  0  0
 15 16  1  0  0  0  0
 15 17  1  0  0  0  0
 14 15  2  0  0  0  0
 14 28  1  0  0  0  0
 11 12  1  0  0  0  0
 11 13  1  0  0  0  0
 11 14  1  0  0  0  0
  9 10  1  0  0  0  0
  9 11  1  0  0  0  0
  9 29  1  0  0  0  0
  7  8  1  0  0  0  0
  7  9  1  0  0  0  0
 33 34  1  0  0  0  0
 33 35  1  0  0  0  0
 33 36  1  0  0  0  0
 31 32  1  0  0  0  0
 31 33  1  0  0  0  0
M  END
$$$$
default_name
  -OEChem-02102213163D

 36 37  0     1  0  0  0  0  0999 V2000
   -4.0843   -4.0736    1.2944 H   0  0  0  0  0  0  0  0  0  0  0  0
   -4.0342   -3.2816    0.5484 C   0  0  0  0  0  0  0  0  0  0  0  0
   -4.8842   -2.6126    0.6694 H   0  0  0  0  0  0  0  0  0  0  0  0
   -4.0433   -3.7186   -0.4486 H   0  0  0  0  0  0  0  0  0  0  0  0
   -2.7532   -2.5046    0.7444 C   0  0  0  0  0  0  0  0  0  0  0  0
   -1.9803   -2.8096    1.6434 O   0  0  0  0  0  0  0  0  0  0  0  0
   -2.5332   -1.4966   -0.0966 N   0  0  0  0  0  0  0  0  0  0  0  0
   -3.2312   -1.2816   -0.7936 H   0  0  0  0  0  0  0  0  0  0  0  0
   -1.3593   -0.6196   -0.0536 C   0  0  1  0  0  0  0  0  0  0  0  0
   -0.8788   -0.7266    0.9196 H   0  0  0  0  0  0  0  0  0  0  0  0
   -0.3559   -1.0533   -1.1339 C   0  0  0  0  0  0  0  0  0  0  0  0
   -0.1793   -0.2129   -1.8075 H   0  0  0  0  0  0  0  0  0  0  0  0
    0.5925   -1.2939   -0.6505 H   0  0  0  0  0  0  0  0  0  0  0  0
   -0.7791   -2.2292   -1.9610 C   0  0  0  0  0  0  0  0  0  0  0  0
   -1.8871   -2.2896   -2.7334 C   0  0  0  0  0  0  0  0  0  0  0  0
   -2.6159   -1.4925   -2.8305 H   0  0  0  0  0  0  0  0  0  0  0  0
   -1.9316   -3.5054   -3.3870 N   0  0  0  0  0  0  0  0  0  0  0  0
   -2.6746   -3.7729   -4.0158 H   0  0  0  0  0  0  0  0  0  0  0  0
   -0.8387   -4.2875   -3.0791 C   0  0  0  0  0  0  0  0  0  0  0  0
   -0.4222   -5.5594   -3.4978 C   0  0  0  0  0  0  0  0  0  0  0  0
   -1.0148   -6.1254   -4.2014 H   0  0  0  0  0  0  0  0  0  0  0  0
    0.7759   -6.0878   -2.9875 C   0  0  0  0  0  0  0  0  0  0  0  0
    1.1124   -7.0677   -3.2982 H   0  0  0  0  0  0  0  0  0  0  0  0
    1.5343   -5.3427   -2.0662 C   0  0  0  0  0  0  0  0  0  0  0  0
    2.4512   -5.7566   -1.6698 H   0  0  0  0  0  0  0  0  0  0  0  0
    1.1050   -4.0661   -1.6509 C   0  0  0  0  0  0  0  0  0  0  0  0
    1.6903   -3.5100   -0.9324 H   0  0  0  0  0  0  0  0  0  0  0  0
   -0.0905   -3.5048   -2.1496 C   0  0  0  0  0  0  0  0  0  0  0  0
   -1.7617    0.8549   -0.2106 C   0  0  0  0  0  0  0  0  0  0  0  0
   -2.5726    1.1871   -1.0741 O   0  0  0  0  0  0  0  0  0  0  0  0
   -1.1941    1.7377    0.6223 N   0  0  0  0  0  0  0  0  0  0  0  0
   -0.4976    1.3916    1.2669 H   0  0  0  0  0  0  0  0  0  0  0  0
   -1.4666    3.1722    0.6095 C   0  0  0  0  0  0  0  0  0  0  0  0
   -2.5439    3.3427    0.6539 H   0  0  0  0  0  0  0  0  0  0  0  0
   -0.9893    3.6529    1.4644 H   0  0  0  0  0  0  0  0  0  0  0  0
   -1.0808    3.6095   -0.3129 H   0  0  0  0  0  0  0  0  0  0  0  0
  5  6  2  0  0  0  0
  5  7  1  0  0  0  0
  2  3  1  0  0  0  0
  2  4  1  0  0  0  0
  2  5  1  0  0  0  0
  1  2  1  0  0  0  0
 29 30  2  0  0  0  0
 29 31  1  0  0  0  0
 26 27  1  0  0  0  0
 26 28  2  0  0  0  0
 24 25  1  0  0  0  0
 24 26  1  0  0  0  0
 22 23  1  0  0  0  0
 22 24  2  0  0  0  0
 20 21  1  0  0  0  0
 20 22  1  0  0  0  0
 19 20  2  0  0  0  0
 19 28  1  0  0  0  0
 17 18  1  0  0  0  0
 17 19  1  0  0  0  0
 15 16  1  0  0  0  0
 15 17  1  0  0  0  0
 14 15  2  0  0  0  0
 14 28  1  0  0  0  0
 11 12  1  0  0  0  0
 11 13  1  0  0  0  0
 11 14  1  0  0  0  0
  9 10  1  0  0  0  0
  9 11  1  0  0  0  0
  9 29  1  0  0  0  0
  7  8  1  0  0  0  0
  7  9  1  0  0  0  0
 33 34  1  0  0  0  0
 33 35  1  0  0  0  0
 33 36  1  0  0  0  0
 31 32  1  0  0  0  0
 31 33  1  0  0  0  0
M  END
$$$$
default_name
  -OEChem-02102213163D

 36 37  0     1  0  0  0  0  0999 V2000
   -4.0843   -4.0736    1.2944 H   0  0  0  0  0  0  0  0  0  0  0  0
   -4.0342   -3.2816    0.5484 C   0  0  0  0  0  0  0  0  0  0  0  0
   -4.8842   -2.6126    0.6694 H   0  0  0  0  0  0  0  0  0  0  0  0
   -4.0433   -3.7186   -0.4486 H   0  0  0  0  0  0  0  0  0  0  0  0
   -2.7532   -2.5046    0.7444 C   0  0  0  0  0  0  0  0  0  0  0  0
   -1.9803   -2.8096    1.6434 O   0  0  0  0  0  0  0  0  0  0  0  0
   -2.5332   -1.4966   -0.0966 N   0  0  0  0  0  0  0  0  0  0  0  0
   -3.2312   -1.2816   -0.7936 H   0  0  0  0  0  0  0  0  0  0  0  0
   -1.3593   -0.6196   -0.0536 C   0  0  1  0  0  0  0  0  0  0  0  0
   -0.8788   -0.7266    0.9196 H   0  0  0  0  0  0  0  0  0  0  0  0
   -0.3559   -1.0533   -1.1339 C   0  0  0  0  0  0  0  0  0  0  0  0
   -0.1793   -0.2129   -1.8075 H   0  0  0  0  0  0  0  0  0  0  0  0
    0.5925   -1.2939   -0.6505 H   0  0  0  0  0  0  0  0  0  0  0  0
   -0.7791   -2.2292   -1.9610 C   0  0  0  0  0  0  0  0  0  0  0  0
   -1.7087   -2.2068   -2.9424 C   0  0  0  0  0  0  0  0  0  0  0  0
   -2.2756   -1.3300   -3.2356 H   0  0  0  0  0  0  0  0  0  0  0  0
   -1.8053   -3.4581   -3.5189 N   0  0  0  0  0  0  0  0  0  0  0  0
   -2.4410   -3.6768   -4.2721 H   0  0  0  0  0  0  0  0  0  0  0  0
   -0.9252   -4.3507   -2.9450 C   0  0  0  0  0  0  0  0  0  0  0  0
   -0.6303   -5.6991   -3.1927 C   0  0  0  0  0  0  0  0  0  0  0  0
   -1.1503   -6.2393   -3.9701 H   0  0  0  0  0  0  0  0  0  0  0  0
    0.3498   -6.3378   -2.4140 C   0  0  0  0  0  0  0  0  0  0  0  0
    0.5899   -7.3777   -2.5901 H   0  0  0  0  0  0  0  0  0  0  0  0
    1.0143   -5.6241   -1.3999 C   0  0  0  0  0  0  0  0  0  0  0  0
    1.7618   -6.1218   -0.7977 H   0  0  0  0  0  0  0  0  0  0  0  0
    0.7084   -4.2698   -1.1585 C   0  0  0  0  0  0  0  0  0  0  0  0
    1.2168   -3.7369   -0.3675 H   0  0  0  0  0  0  0  0  0  0  0  0
   -0.2666   -3.5979   -1.9272 C   0  0  0  0  0  0  0  0  0  0  0  0
   -1.7617    0.8549   -0.2106 C   0  0  0  0  0  0  0  0  0  0  0  0
   -2.5726    1.1871   -1.0741 O   0  0  0  0  0  0  0  0  0  0  0  0
   -1.1941    1.7377    0.6223 N   0  0  0  0  0  0  0  0  0  0  0  0
   -0.4976    1.3916    1.2669 H   0  0  0  0  0  0  0  0  0  0  0  0
   -1.4666    3.1722    0.6095 C   0  0  0  0  0  0  0  0  0  0  0  0
   -2.5439    3.3427    0.6539 H   0  0  0  0  0  0  0  0  0  0  0  0
   -0.9893    3.6529    1.4644 H   0  0  0  0  0  0  0  0  0  0  0  0
   -1.0808    3.6095   -0.3129 H   0  0  0  0  0  0  0  0  0  0  0  0
  5  6  2  0  0  0  0
  5  7  1  0  0  0  0
  2  3  1  0  0  0  0
  2  4  1  0  0  0  0
  2  5  1  0  0  0  0
  1  2  1  0  0  0  0
 29 30  2  0  0  0  0
 29 31  1  0  0  0  0
 26 27  1  0  0  0  0
 26 28  2  0  0  0  0
 24 25  1  0  0  0  0
 24 26  1  0  0  0  0
 22 23  1  0  0  0  0
 22 24  2  0  0  0  0
 20 21  1  0  0  0  0
 20 22  1  0  0  0  0
 19 20  2  0  0  0  0
 19 28  1  0  0  0  0
 17 18  1  0  0  0  0
 17 19  1  0  0  0  0
 15 16  1  0  0  0  0
 15 17  1  0  0  0  0
 14 15  2  0  0  0  0
 14 28  1  0  0  0  0
 11 12  1  0  0  0  0
 11 13  1  0  0  0  0
 11 14  1  0  0  0  0
  9 10  1  0  0  0  0
  9 11  1  0  0  0  0
  9 29  1  0  0  0  0
  7  8  1  0  0  0  0
  7  9  1  0  0  0  0
 33 34  1  0  0  0  0
 33 35  1  0  0  0  0
 33 36  1  0  0  0  0
 31 32  1  0  0  0  0
 31 33  1  0  0  0  0
M  END
$$$$
default_name
  -OEChem-02102213163D

 36 37  0     1  0  0  0  0  0999 V2000
   -4.0843   -4.0736    1.2944 H   0  0  0  0  0  0  0  0  0  0  0  0
   -4.0342   -3.2816    0.5484 C   0  0  0  0  0  0  0  0  0  0  0  0
   -4.8842   -2.6126    0.6694 H   0  0  0  0  0  0  0  0  0  0  0  0
   -4.0433   -3.7186   -0.4486 H   0  0  0  0  0  0  0  0  0  0  0  0
   -2.7532   -2.5046    0.7444 C   0  0  0  0  0  0  0  0  0  0  0  0
   -1.9803   -2.8096    1.6434 O   0  0  0  0  0  0  0  0  0  0  0  0
   -2.5332   -1.4966   -0.0966 N   0  0  0  0  0  0  0  0  0  0  0  0
   -3.2312   -1.2816   -0.7936 H   0  0  0  0  0  0  0  0  0  0  0  0
   -1.3593   -0.6196   -0.0536 C   0  0  1  0  0  0  0  0  0  0  0  0
   -0.8788   -0.7266    0.9196 H   0  0  0  0  0  0  0  0  0  0  0  0
   -0.3559   -1.0533   -1.1339 C   0  0  0  0  0  0  0  0  0  0  0  0
   -0.1793   -0.2129   -1.8075 H   0  0  0  0  0  0  0  0  0  0  0  0
    0.5925   -1.2939   -0.6505 H   0  0  0  0  0  0  0  0  0  0  0  0
   -0.7791   -2.2292   -1.9610 C   0  0  0  0  0  0  0  0  0  0  0  0
   -1.4821   -2.1675   -3.1142 C   0  0  0  0  0  0  0  0  0  0  0  0
   -1.8413   -1.2513   -3.5697 H   0  0  0  0  0  0  0  0  0  0  0  0
   -1.6499   -3.4400   -3.6241 N   0  0  0  0  0  0  0  0  0  0  0  0
   -2.1495   -3.6360   -4.4792 H   0  0  0  0  0  0  0  0  0  0  0  0
   -1.0451   -4.3896   -2.8283 C   0  0  0  0  0  0  0  0  0  0  0  0
   -0.9132   -5.7820   -2.9300 C   0  0  0  0  0  0  0  0  0  0  0  0
   -1.3444   -6.3131   -3.7659 H   0  0  0  0  0  0  0  0  0  0  0  0
   -0.2139   -6.4766   -1.9283 C   0  0  0  0  0  0  0  0  0  0  0  0
   -0.1029   -7.5508   -1.9895 H   0  0  0  0  0  0  0  0  0  0  0  0
    0.3366   -5.7730   -0.8414 C   0  0  0  0  0  0  0  0  0  0  0  0
    0.8667   -6.3124   -0.0687 H   0  0  0  0  0  0  0  0  0  0  0  0
    0.1961   -4.3738   -0.7484 C   0  0  0  0  0  0  0  0  0  0  0  0
    0.6124   -3.8472    0.0987 H   0  0  0  0  0  0  0  0  0  0  0  0
   -0.4952   -3.6463   -1.7413 C   0  0  0  0  0  0  0  0  0  0  0  0
   -1.7617    0.8549   -0.2106 C   0  0  0  0  0  0  0  0  0  0  0  0
   -2.5726    1.1871   -1.0741 O   0  0  0  0  0  0  0  0  0  0  0  0
   -1.1941    1.7377    0.6223 N   0  0  0  0  0  0  0  0  0  0  0  0
   -0.4976    1.3916    1.2669 H   0  0  0  0  0  0  0  0  0  0  0  0
   -1.4666    3.1722    0.6095 C   0  0  0  0  0  0  0  0  0  0  0  0
   -2.5439    3.3427    0.6539 H   0  0  0  0  0  0  0  0  0  0  0  0
   -0.9893    3.6529    1.4644 H   0  0  0  0  0  0  0  0  0  0  0  0
   -1.0808    3.6095   -0.3129 H   0  0  0  0  0  0  0  0  0  0  0  0
  5  6  2  0  0  0  0
  5  7  1  0  0  0  0
  2  3  1  0  0  0  0
  2  4  1  0  0  0  0
  2  5  1  0  0  0  0
  1  2  1  0  0  0  0
 29 30  2  0  0  0  0
 29 31  1  0  0  0  0
 26 27  1  0  0  0  0
 26 28  2  0  0  0  0
 24 25  1  0  0  0  0
 24 26  1  0  0  0  0
 22 23  1  0  0  0  0
 22 24  2  0  0  0  0
 20 21  1  0  0  0  0
 20 22  1  0  0  0  0
 19 20  2  0  0  0  0
 19 28  1  0  0  0  0
 17 18  1  0  0  0  0
 17 19  1  0  0  0  0
 15 16  1  0  0  0  0
 15 17  1  0  0  0  0
 14 15  2  0  0  0  0
 14 28  1  0  0  0  0
 11 12  1  0  0  0  0
 11 13  1  0  0  0  0
 11 14  1  0  0  0  0
  9 10  1  0  0  0  0
  9 11  1  0  0  0  0
  9 29  1  0  0  0  0
  7  8  1  0  0  0  0
  7  9  1  0  0  0  0
 33 34  1  0  0  0  0
 33 35  1  0  0  0  0
 33 36  1  0  0  0  0
 31 32  1  0  0  0  0
 31 33  1  0  0  0  0
M  END
$$$$
default_name
  -OEChem-02102213163D

 36 37  0     1  0  0  0  0  0999 V2000
   -4.0843   -4.0736    1.2944 H   0  0  0  0  0  0  0  0  0  0  0  0
   -4.0342   -3.2816    0.5484 C   0  0  0  0  0  0  0  0  0  0  0  0
   -4.8842   -2.6126    0.6694 H   0  0  0  0  0  0  0  0  0  0  0  0
   -4.0433   -3.7186   -0.4486 H   0  0  0  0  0  0  0  0  0  0  0  0
   -2.7532   -2.5046    0.7444 C   0  0  0  0  0  0  0  0  0  0  0  0
   -1.9803   -2.8096    1.6434 O   0  0  0  0  0  0  0  0  0  0  0  0
   -2.5332   -1.4966   -0.0966 N   0  0  0  0  0  0  0  0  0  0  0  0
   -3.2312   -1.2816   -0.7936 H   0  0  0  0  0  0  0  0  0  0  0  0
   -1.3593   -0.6196   -0.0536 C   0  0  1  0  0  0  0  0  0  0  0  0
   -0.8788   -0.7266    0.9196 H   0  0  0  0  0  0  0  0  0  0  0  0
   -0.3559   -1.0533   -1.1339 C   0  0  0  0  0  0  0  0  0  0  0  0
   -0.1793   -0.2129   -1.8075 H   0  0  0  0  0  0  0  0  0  0  0  0
    0.5925   -1.2939   -0.6505 H   0  0  0  0  0  0  0  0  0  0  0  0
   -0.7791   -2.2292   -1.9610 C   0  0  0  0  0  0  0  0  0  0  0  0
   -1.2227   -2.1746   -3.2369 C   0  0  0  0  0  0  0  0  0  0  0  0
   -1.3428   -1.2617   -3.8100 H   0  0  0  0  0  0  0  0  0  0  0  0
   -1.4758   -3.4525   -3.6955 N   0  0  0  0  0  0  0  0  0  0  0  0
   -1.8201   -3.6534   -4.6230 H   0  0  0  0  0  0  0  0  0  0  0  0
   -1.1902   -4.4015   -2.7372 C   0  0  0  0  0  0  0  0  0  0  0  0
   -1.2517   -5.8024   -2.7277 C   0  0  0  0  0  0  0  0  0  0  0  0
   -1.5839   -6.3417   -3.6027 H   0  0  0  0  0  0  0  0  0  0  0  0
   -0.8768   -6.4946   -1.5635 C   0  0  0  0  0  0  0  0  0  0  0  0
   -0.9188   -7.5751   -1.5374 H   0  0  0  0  0  0  0  0  0  0  0  0
   -0.4528   -5.7792   -0.4287 C   0  0  0  0  0  0  0  0  0  0  0  0
   -0.1733   -6.3154    0.4677 H   0  0  0  0  0  0  0  0  0  0  0  0
   -0.3968   -4.3711   -0.4488 C   0  0  0  0  0  0  0  0  0  0  0  0
   -0.0819   -3.8334    0.4342 H   0  0  0  0  0  0  0  0  0  0  0  0
   -0.7607   -3.6469   -1.6047 C   0  0  0  0  0  0  0  0  0  0  0  0
   -1.7617    0.8549   -0.2106 C   0  0  0  0  0  0  0  0  0  0  0  0
   -2.5726    1.1871   -1.0741 O   0  0  0  0  0  0  0  0  0  0  0  0
   -1.1941    1.7377    0.6223 N   0  0  0  0  0  0  0  0  0  0  0  0
   -0.4976    1.3916    1.2669 H   0  0  0  0  0  0  0  0  0  0  0  0
   -1.4666    3.1722    0.6095 C   0  0  0  0  0  0  0  0  0  0  0  0
   -2.5439    3.3427    0.6539 H   0  0  0  0  0  0  0  0  0  0  0  0
   -0.9893    3.6529    1.4644 H   0  0  0  0  0  0  0  0  0  0  0  0
   -1.0808    3.6095   -0.3129 H   0  0  0  0  0  0  0  0  0  0  0  0
  5  6  2  0  0  0  0
  5  7  1  0  0  0  0
  2  3  1  0  0  0  0
  2  4  1  0  0  0  0
  2  5  1  0  0  0  0
  1  2  1  0  0  0  0
 29 30  2  0  0  0  0
 29 31  1  0  0  0  0
 26 27  1  0  0  0  0
 26 28  2  0  0  0  0
 24 25  1  0  0  0  0
 24 26  1  0  0  0  0
 22 23  1  0  0  0  0
 22 24  2  0  0  0  0
 20 21  1  0  0  0  0
 20 22  1  0  0  0  0
 19 20  2  0  0  0  0
 19 28  1  0  0  0  0
 17 18  1  0  0  0  0
 17 19  1  0  0  0  0
 15 16  1  0  0  0  0
 15 17  1  0  0  0  0
 14 15  2  0  0  0  0
 14 28  1  0  0  0  0
 11 12  1  0  0  0  0
 11 13  1  0  0  0  0
 11 14  1  0  0  0  0
  9 10  1  0  0  0  0
  9 11  1  0  0  0  0
  9 29  1  0  0  0  0
  7  8  1  0  0  0  0
  7  9  1  0  0  0  0
 33 34  1  0  0  0  0
 33 35  1  0  0  0  0
 33 36  1  0  0  0  0
 31 32  1  0  0  0  0
 31 33  1  0  0  0  0
M  END
$$$$
default_name
  -OEChem-02102213163D

 36 37  0     1  0  0  0  0  0999 V2000
   -4.0843   -4.0736    1.2944 H   0  0  0  0  0  0  0  0  0  0  0  0
   -4.0342   -3.2816    0.5484 C   0  0  0  0  0  0  0  0  0  0  0  0
   -4.8842   -2.6126    0.6694 H   0  0  0  0  0  0  0  0  0  0  0  0
   -4.0433   -3.7186   -0.4486 H   0  0  0  0  0  0  0  0  0  0  0  0
   -2.7532   -2.5046    0.7444 C   0  0  0  0  0  0  0  0  0  0  0  0
   -1.9803   -2.8096    1.6434 O   0  0  0  0  0  0  0  0  0  0  0  0
   -2.5332   -1.4966   -0.0966 N   0  0  0  0  0  0  0  0  0  0  0  0
   -3.2312   -1.2816   -0.7936 H   0  0  0  0  0  0  0  0  0  0  0  0
   -1.3593   -0.6196   -0.0536 C   0  0  1  0  0  0  0  0  0  0  0  0
   -0.8788   -0.7266    0.9196 H   0  0  0  0  0  0  0  0  0  0  0  0
   -0.3559   -1.0533   -1.1339 C   0  0  0  0  0  0  0  0  0  0  0  0
   -0.1793   -0.2129   -1.8075 H   0  0  0  0  0  0  0  0  0  0  0  0
    0.5925   -1.2939   -0.6505 H   0  0  0  0  0  0  0  0  0  0  0  0
   -0.7791   -2.2292   -1.9610 C   0  0  0  0  0  0  0  0  0  0  0  0
   -0.9482   -2.2274   -3.3023 C   0  0  0  0  0  0  0  0  0  0  0  0
   -0.8140   -1.3606   -3.9401 H   0  0  0  0  0  0  0  0  0  0  0  0
   -1.2949   -3.4946   -3.7282 N   0  0  0  0  0  0  0  0  0  0  0  0
   -1.4752   -3.7278   -4.6938 H   0  0  0  0  0  0  0  0  0  0  0  0
   -1.3505   -4.3857   -2.6777 C   0  0  0  0  0  0  0  0  0  0  0  0
   -1.6226   -5.7591   -2.5996 C   0  0  0  0  0  0  0  0  0  0  0  0
   -1.8525   -6.3231   -3.4915 H   0  0  0  0  0  0  0  0  0  0  0  0
   -1.5939   -6.3906   -1.3444 C   0  0  0  0  0  0  0  0  0  0  0  0
   -1.8022   -7.4489   -1.2647 H   0  0  0  0  0  0  0  0  0  0  0  0
   -1.3000   -5.6422   -0.1899 C   0  0  0  0  0  0  0  0  0  0  0  0
   -1.2871   -6.1304    0.7748 H   0  0  0  0  0  0  0  0  0  0  0  0
   -1.0299   -4.2619   -0.2800 C   0  0  0  0  0  0  0  0  0  0  0  0
   -0.8188   -3.6962    0.6163 H   0  0  0  0  0  0  0  0  0  0  0  0
   -1.0449   -3.5995   -1.5266 C   0  0  0  0  0  0  0  0  0  0  0  0
   -1.7617    0.8549   -0.2106 C   0  0  0  0  0  0  0  0  0  0  0  0
   -2.5726    1.1871   -1.0741 O   0  0  0  0  0  0  0  0  0  0  0  0
   -1.1941    1.7377    0.6223 N   0  0  0  0  0  0  0  0  0  0  0  0
   -0.4976    1.3916    1.2669 H   0  0  0  0  0  0  0  0  0  0  0  0
   -1.4666    3.1722    0.6095 C   0  0  0  0  0  0  0  0  0  0  0  0
   -2.5439    3.3427    0.6539 H   0  0  0  0  0  0  0  0  0  0  0  0
   -0.9893    3.6529    1.4644 H   0  0  0  0  0  0  0  0  0  0  0  0
   -1.0808    3.6095   -0.3129 H   0  0  0  0  0  0  0  0  0  0  0  0
  5  6  2  0  0  0  0
  5  7  1  0  0  0  0
  2  3  1  0  0  0  0
  2  4  1  0  0  0  0
  2  5  1  0  0  0  0
  1  2  1  0  0  0  0
 29 30  2  0  0  0  0
 29 31  1  0  0  0  0
 26 27  1  0  0  0  0
 26 28  2  0  0  0  0
 24 25  1  0  0  0  0
 24 26  1  0  0  0  0
 22 23  1  0  0  0  0
 22 24  2  0  0  0  0
 20 21  1  0  0  0  0
 20 22  1  0  0  0  0
 19 20  2  0  0  0  0
 19 28  1  0  0  0  0
 17 18  1  0  0  0  0
 17 19  1  0  0  0  0
 15 16  1  0  0  0  0
 15 17  1  0  0  0  0
 14 15  2  0  0  0  0
 14 28  1  0  0  0  0
 11 12  1  0  0  0  0
 11 13  1  0  0  0  0
 11 14  1  0  0  0  0
  9 10  1  0  0  0  0
  9 11  1  0  0  0  0
  9 29  1  0  0  0  0
  7  8  1  0  0  0  0
  7  9  1  0  0  0  0
 33 34  1  0  0  0  0
 33 35  1  0  0  0  0
 33 36  1  0  0  0  0
 31 32  1  0  0  0  0
 31 33  1  0  0  0  0
M  END
$$$$
default_name
  -OEChem-02102213163D

 36 37  0     1  0  0  0  0  0999 V2000
   -4.0843   -4.0736    1.2944 H   0  0  0  0  0  0  0  0  0  0  0  0
   -4.0342   -3.2816    0.5484 C   0  0  0  0  0  0  0  0  0  0  0  0
   -4.8842   -2.6126    0.6694 H   0  0  0  0  0  0  0  0  0  0  0  0
   -4.0433   -3.7186   -0.4486 H   0  0  0  0  0  0  0  0  0  0  0  0
   -2.7532   -2.5046    0.7444 C   0  0  0  0  0  0  0  0  0  0  0  0
   -1.9803   -2.8096    1.6434 O   0  0  0  0  0  0  0  0  0  0  0  0
   -2.5332   -1.4966   -0.0966 N   0  0  0  0  0  0  0  0  0  0  0  0
   -3.2312   -1.2816   -0.7936 H   0  0  0  0  0  0  0  0  0  0  0  0
   -1.3593   -0.6196   -0.0536 C   0  0  1  0  0  0  0  0  0  0  0  0
   -0.8788   -0.7266    0.9196 H   0  0  0  0  0  0  0  0  0  0  0  0
   -0.3559   -1.0533   -1.1339 C   0  0  0  0  0  0  0  0  0  0  0  0
   -0.1793   -0.2129   -1.8075 H   0  0  0  0  0  0  0  0  0  0  0  0
    0.5925   -1.2939   -0.6505 H   0  0  0  0  0  0  0  0  0  0  0  0
   -0.7791   -2.2292   -1.9610 C   0  0  0  0  0  0  0  0  0  0  0  0
   -0.6774   -2.3223   -3.3059 C   0  0  0  0  0  0  0  0  0  0  0  0
   -0.2908   -1.5411   -3.9511 H   0  0  0  0  0  0  0  0  0  0  0  0
   -1.1195   -3.5635   -3.7200 N   0  0  0  0  0  0  0  0  0  0  0  0
   -1.1383   -3.8541   -4.6866 H   0  0  0  0  0  0  0  0  0  0  0  0
   -1.5152   -4.3431   -2.6539 C   0  0  0  0  0  0  0  0  0  0  0  0
   -2.0008   -5.6548   -2.5543 C   0  0  0  0  0  0  0  0  0  0  0  0
   -2.1319   -6.2588   -3.4401 H   0  0  0  0  0  0  0  0  0  0  0  0
   -2.3161   -6.1717   -1.2860 C   0  0  0  0  0  0  0  0  0  0  0  0
   -2.6928   -7.1810   -1.1899 H   0  0  0  0  0  0  0  0  0  0  0  0
   -2.1472   -5.3715   -0.1412 C   0  0  0  0  0  0  0  0  0  0  0  0
   -2.3989   -5.7703    0.8317 H   0  0  0  0  0  0  0  0  0  0  0  0
   -1.6602   -4.0537   -0.2535 C   0  0  0  0  0  0  0  0  0  0  0  0
   -1.5479   -3.4452    0.6326 H   0  0  0  0  0  0  0  0  0  0  0  0
   -1.3286   -3.5074   -1.5123 C   0  0  0  0  0  0  0  0  0  0  0  0
   -1.7617    0.8549   -0.2106 C   0  0  0  0  0  0  0  0  0  0  0  0
   -2.5726    1.1871   -1.0741 O   0  0  0  0  0  0  0  0  0  0  0  0
   -1.1941    1.7377    0.6223 N   0  0  0  0  0  0  0  0  0  0  0  0
   -0.4976    1.3916    1.2669 H   0  0  0  0  0  0  0  0  0  0  0  0
   -1.4666    3.1722    0.6095 C   0  0  0  0  0  0  0  0  0  0  0  0
   -2.5439    3.3427    0.6539 H   0  0  0  0  0  0  0  0  0  0  0  0
   -0.9893    3.6529    1.4644 H   0  0  0  0  0  0  0  0  0  0  0  0
   -1.0808    3.6095   -0.3129 H   0  0  0  0  0  0  0  0  0  0  0  0
  5  6  2  0  0  0  0
  5  7  1  0  0  0  0
  2  3  1  0  0  0  0
  2  4  1  0  0  0  0
  2  5  1  0  0  0  0
  1  2  1  0  0  0  0
 29 30  2  0  0  0  0
 29 31  1  0  0  0  0
 26 27  1  0  0  0  0
 26 28  2  0  0  0  0
 24 25  1  0  0  0  0
 24 26  1  0  0  0  0
 22 23  1  0  0  0  0
 22 24  2  0  0  0  0
 20 21  1  0  0  0  0
 20 22  1  0  0  0  0
 19 20  2  0  0  0  0
 19 28  1  0  0  0  0
 17 18  1  0  0  0  0
 17 19  1  0  0  0  0
 15 16  1  0  0  0  0
 15 17  1  0  0  0  0
 14 15  2  0  0  0  0
 14 28  1  0  0  0  0
 11 12  1  0  0  0  0
 11 13  1  0  0  0  0
 11 14  1  0  0  0  0
  9 10  1  0  0  0  0
  9 11  1  0  0  0  0
  9 29  1  0  0  0  0
  7  8  1  0  0  0  0
  7  9  1  0  0  0  0
 33 34  1  0  0  0  0
 33 35  1  0  0  0  0
 33 36  1  0  0  0  0
 31 32  1  0  0  0  0
 31 33  1  0  0  0  0
M  END
$$$$
default_name
  -OEChem-02102213163D

 36 37  0     1  0  0  0  0  0999 V2000
   -4.0843   -4.0736    1.2944 H   0  0  0  0  0  0  0  0  0  0  0  0
   -4.0342   -3.2816    0.5484 C   0  0  0  0  0  0  0  0  0  0  0  0
   -4.8842   -2.6126    0.6694 H   0  0  0  0  0  0  0  0  0  0  0  0
   -4.0433   -3.7186   -0.4486 H   0  0  0  0  0  0  0  0  0  0  0  0
   -2.7532   -2.5046    0.7444 C   0  0  0  0  0  0  0  0  0  0  0  0
   -1.9803   -2.8096    1.6434 O   0  0  0  0  0  0  0  0  0  0  0  0
   -2.5332   -1.4966   -0.0966 N   0  0  0  0  0  0  0  0  0  0  0  0
   -3.2312   -1.2816   -0.7936 H   0  0  0  0  0  0  0  0  0  0  0  0
   -1.3593   -0.6196   -0.0536 C   0  0  1  0  0  0  0  0  0  0  0  0
   -0.8788   -0.7266    0.9196 H   0  0  0  0  0  0  0  0  0  0  0  0
   -0.3559   -1.0533   -1.1339 C   0  0  0  0  0  0  0  0  0  0  0  0
   -0.1793   -0.2129   -1.8075 H   0  0  0  0  0  0  0  0  0  0  0  0
    0.5925   -1.2939   -0.6505 H   0  0  0  0  0  0  0  0  0  0  0  0
   -0.7791   -2.2292   -1.9610 C   0  0  0  0  0  0  0  0  0  0  0  0
   -0.4286   -2.4530   -3.2474 C   0  0  0  0  0  0  0  0  0  0  0  0
    0.1909   -1.7910   -3.8424 H   0  0  0  0  0  0  0  0  0  0  0  0
   -0.9616   -3.6545   -3.6714 N   0  0  0  0  0  0  0  0  0  0  0  0
   -0.8324   -4.0237   -4.6021 H   0  0  0  0  0  0  0  0  0  0  0  0
   -1.6730   -4.2767   -2.6676 C   0  0  0  0  0  0  0  0  0  0  0  0
   -2.3603   -5.4968   -2.5949 C   0  0  0  0  0  0  0  0  0  0  0  0
   -2.4029   -6.1529   -3.4518 H   0  0  0  0  0  0  0  0  0  0  0  0
   -2.9943   -5.8528   -1.3923 C   0  0  0  0  0  0  0  0  0  0  0  0
   -3.5300   -6.7895   -1.3180 H   0  0  0  0  0  0  0  0  0  0  0  0
   -2.9368   -4.9854   -0.2861 C   0  0  0  0  0  0  0  0  0  0  0  0
   -3.4330   -5.2594    0.6346 H   0  0  0  0  0  0  0  0  0  0  0  0
   -2.2447   -3.7606   -0.3711 C   0  0  0  0  0  0  0  0  0  0  0  0
   -2.2196   -3.0975    0.4819 H   0  0  0  0  0  0  0  0  0  0  0  0
   -1.5924   -3.3769   -1.5628 C   0  0  0  0  0  0  0  0  0  0  0  0
   -1.7617    0.8549   -0.2106 C   0  0  0  0  0  0  0  0  0  0  0  0
   -2.5726    1.1871   -1.0741 O   0  0  0  0  0  0  0  0  0  0  0  0
   -1.1941    1.7377    0.6223 N   0  0  0  0  0  0  0  0  0  0  0  0
   -0.4976    1.3916    1.2669 H   0  0  0  0  0  0  0  0  0  0  0  0
   -1.4666    3.1722    0.6095 C   0  0  0  0  0  0  0  0  0  0  0  0
   -2.5439    3.3427    0.6539 H   0  0  0  0  0  0  0  0  0  0  0  0
   -0.9893    3.6529    1.4644 H   0  0  0  0  0  0  0  0  0  0  0  0
   -1.0808    3.6095   -0.3129 H   0  0  0  0  0  0  0  0  0  0  0  0
  5  6  2  0  0  0  0
  5  7  1  0  0  0  0
  2  3  1  0  0  0  0
  2  4  1  0  0  0  0
  2  5  1  0  0  0  0
  1  2  1  0  0  0  0
 29 30  2  0  0  0  0
 29 31  1  0  0  0  0
 26 27  1  0  0  0  0
 26 28  2  0  0  0  0
 24 25  1  0  0  0  0
 24 26  1  0  0  0  0
 22 23  1  0  0  0  0
 22 24  2  0  0  0  0
 20 21  1  0  0  0  0
 20 22  1  0  0  0  0
 19 20  2  0  0  0  0
 19 28  1  0  0  0  0
 17 18  1  0  0  0  0
 17 19  1  0  0  0  0
 15 16  1  0  0  0  0
 15 17  1  0  0  0  0
 14 15  2  0  0  0  0
 14 28  1  0  0  0  0
 11 12  1  0  0  0  0
 11 13  1  0  0  0  0
 11 14  1  0  0  0  0
  9 10  1  0  0  0  0
  9 11  1  0  0  0  0
  9 29  1  0  0  0  0
  7  8  1  0  0  0  0
  7  9  1  0  0  0  0
 33 34  1  0  0  0  0
 33 35  1  0  0  0  0
 33 36  1  0  0  0  0
 31 32  1  0  0  0  0
 31 33  1  0  0  0  0
M  END
$$$$
default_name
  -OEChem-02102213163D

 36 37  0     1  0  0  0  0  0999 V2000
   -4.0843   -4.0736    1.2944 H   0  0  0  0  0  0  0  0  0  0  0  0
   -4.0342   -3.2816    0.5484 C   0  0  0  0  0  0  0  0  0  0  0  0
   -4.8842   -2.6126    0.6694 H   0  0  0  0  0  0  0  0  0  0  0  0
   -4.0433   -3.7186   -0.4486 H   0  0  0  0  0  0  0  0  0  0  0  0
   -2.7532   -2.5046    0.7444 C   0  0  0  0  0  0  0  0  0  0  0  0
   -1.9803   -2.8096    1.6434 O   0  0  0  0  0  0  0  0  0  0  0  0
   -2.5332   -1.4966   -0.0966 N   0  0  0  0  0  0  0  0  0  0  0  0
   -3.2312   -1.2816   -0.7936 H   0  0  0  0  0  0  0  0  0  0  0  0
   -1.3593   -0.6196   -0.0536 C   0  0  1  0  0  0  0  0  0  0  0  0
   -0.8788   -0.7266    0.9196 H   0  0  0  0  0  0  0  0  0  0  0  0
   -0.3559   -1.0533   -1.1339 C   0  0  0  0  0  0  0  0  0  0  0  0
   -0.1793   -0.2129   -1.8075 H   0  0  0  0  0  0  0  0  0  0  0  0
    0.5925   -1.2939   -0.6505 H   0  0  0  0  0  0  0  0  0  0  0  0
   -0.7791   -2.2292   -1.9610 C   0  0  0  0  0  0  0  0  0  0  0  0
   -0.2189   -2.6105   -3.1308 C   0  0  0  0  0  0  0  0  0  0  0  0
    0.5985   -2.0933   -3.6212 H   0  0  0  0  0  0  0  0  0  0  0  0
   -0.8320   -3.7614   -3.5857 N   0  0  0  0  0  0  0  0  0  0  0  0
   -0.5783   -4.2250   -4.4459 H   0  0  0  0  0  0  0  0  0  0  0  0
   -1.8131   -4.1910   -2.7176 C   0  0  0  0  0  0  0  0  0  0  0  0
   -2.6768   -5.2958   -2.7188 C   0  0  0  0  0  0  0  0  0  0  0  0
   -2.6473   -6.0128   -3.5260 H   0  0  0  0  0  0  0  0  0  0  0  0
   -3.5823   -5.4557   -1.6560 C   0  0  0  0  0  0  0  0  0  0  0  0
   -4.2568   -6.3011   -1.6404 H   0  0  0  0  0  0  0  0  0  0  0  0
   -3.6149   -4.5102   -0.6146 C   0  0  0  0  0  0  0  0  0  0  0  0
   -4.3188   -4.6326    0.1969 H   0  0  0  0  0  0  0  0  0  0  0  0
   -2.7435   -3.4026   -0.6249 C   0  0  0  0  0  0  0  0  0  0  0  0
   -2.7881   -2.6766    0.1745 H   0  0  0  0  0  0  0  0  0  0  0  0
   -1.8182   -3.2169   -1.6748 C   0  0  0  0  0  0  0  0  0  0  0  0
   -1.7617    0.8549   -0.2106 C   0  0  0  0  0  0  0  0  0  0  0  0
   -2.5726    1.1871   -1.0741 O   0  0  0  0  0  0  0  0  0  0  0  0
   -1.1941    1.7377    0.6223 N   0  0  0  0  0  0  0  0  0  0  0  0
   -0.4976    1.3916    1.2669 H   0  0  0  0  0  0  0  0  0  0  0  0
   -1.4666    3.1722    0.6095 C   0  0  0  0  0  0  0  0  0  0  0  0
   -2.5439    3.3427    0.6539 H   0  0  0  0  0  0  0  0  0  0  0  0
   -0.9893    3.6529    1.4644 H   0  0  0  0  0  0  0  0  0  0  0  0
   -1.0808    3.6095   -0.3129 H   0  0  0  0  0  0  0  0  0  0  0  0
  5  6  2  0  0  0  0
  5  7  1  0  0  0  0
  2  3  1  0  0  0  0
  2  4  1  0  0  0  0
  2  5  1  0  0  0  0
  1  2  1  0  0  0  0
 29 30  2  0  0  0  0
 29 31  1  0  0  0  0
 26 27  1  0  0  0  0
 26 28  2  0  0  0  0
 24 25  1  0  0  0  0
 24 26  1  0  0  0  0
 22 23  1  0  0  0  0
 22 24  2  0  0  0  0
 20 21  1  0  0  0  0
 20 22  1  0  0  0  0
 19 20  2  0  0  0  0
 19 28  1  0  0  0  0
 17 18  1  0  0  0  0
 17 19  1  0  0  0  0
 15 16  1  0  0  0  0
 15 17  1  0  0  0  0
 14 15  2  0  0  0  0
 14 28  1  0  0  0  0
 11 12  1  0  0  0  0
 11 13  1  0  0  0  0
 11 14  1  0  0  0  0
  9 10  1  0  0  0  0
  9 11  1  0  0  0  0
  9 29  1  0  0  0  0
  7  8  1  0  0  0  0
  7  9  1  0  0  0  0
 33 34  1  0  0  0  0
 33 35  1  0  0  0  0
 33 36  1  0  0  0  0
 31 32  1  0  0  0  0
 31 33  1  0  0  0  0
M  END
$$$$
default_name
  -OEChem-02102213163D

 36 37  0     1  0  0  0  0  0999 V2000
   -4.0843   -4.0736    1.2944 H   0  0  0  0  0  0  0  0  0  0  0  0
   -4.0342   -3.2816    0.5484 C   0  0  0  0  0  0  0  0  0  0  0  0
   -4.8842   -2.6126    0.6694 H   0  0  0  0  0  0  0  0  0  0  0  0
   -4.0433   -3.7186   -0.4486 H   0  0  0  0  0  0  0  0  0  0  0  0
   -2.7532   -2.5046    0.7444 C   0  0  0  0  0  0  0  0  0  0  0  0
   -1.9803   -2.8096    1.6434 O   0  0  0  0  0  0  0  0  0  0  0  0
   -2.5332   -1.4966   -0.0966 N   0  0  0  0  0  0  0  0  0  0  0  0
   -3.2312   -1.2816   -0.7936 H   0  0  0  0  0  0  0  0  0  0  0  0
   -1.3593   -0.6196   -0.0536 C   0  0  1  0  0  0  0  0  0  0  0  0
   -0.8788   -0.7266    0.9196 H   0  0  0  0  0  0  0  0  0  0  0  0
   -0.3559   -1.0533   -1.1339 C   0  0  0  0  0  0  0  0  0  0  0  0
    0.0246   -0.1632   -1.6381 H   0  0  0  0  0  0  0  0  0  0  0  0
    0.4888   -1.5433   -0.6466 H   0  0  0  0  0  0  0  0  0  0  0  0
   -0.9041   -1.9785   -2.1777 C   0  0  0  0  0  0  0  0  0  0  0  0
   -0.2099   -2.4882   -3.2198 C   0  0  0  0  0  0  0  0  0  0  0  0
    0.8304   -2.2695   -3.4345 H   0  0  0  0  0  0  0  0  0  0  0  0
   -1.0209   -3.3374   -3.9469 N   0  0  0  0  0  0  0  0  0  0  0  0
   -0.7138   -3.8289   -4.7735 H   0  0  0  0  0  0  0  0  0  0  0  0
   -2.2814   -3.4307   -3.3961 C   0  0  0  0  0  0  0  0  0  0  0  0
   -3.4249   -4.1661   -3.7394 C   0  0  0  0  0  0  0  0  0  0  0  0
   -3.4180   -4.8192   -4.5996 H   0  0  0  0  0  0  0  0  0  0  0  0
   -4.5804   -4.0399   -2.9495 C   0  0  0  0  0  0  0  0  0  0  0  0
   -5.4722   -4.5986   -3.1996 H   0  0  0  0  0  0  0  0  0  0  0  0
   -4.5778   -3.1802   -1.8359 C   0  0  0  0  0  0  0  0  0  0  0  0
   -5.4716   -3.0798   -1.2358 H   0  0  0  0  0  0  0  0  0  0  0  0
   -3.4233   -2.4443   -1.5014 C   0  0  0  0  0  0  0  0  0  0  0  0
   -3.4390   -1.7773   -0.6511 H   0  0  0  0  0  0  0  0  0  0  0  0
   -2.2448   -2.5537   -2.2710 C   0  0  0  0  0  0  0  0  0  0  0  0
   -1.7617    0.8549   -0.2106 C   0  0  0  0  0  0  0  0  0  0  0  0
   -2.5726    1.1871   -1.0741 O   0  0  0  0  0  0  0  0  0  0  0  0
   -1.1941    1.7377    0.6223 N   0  0  0  0  0  0  0  0  0  0  0  0
   -0.4976    1.3916    1.2669 H   0  0  0  0  0  0  0  0  0  0  0  0
   -1.4666    3.1722    0.6095 C   0  0  0  0  0  0  0  0  0  0  0  0
   -2.5439    3.3427    0.6539 H   0  0  0  0  0  0  0  0  0  0  0  0
   -0.9893    3.6529    1.4644 H   0  0  0  0  0  0  0  0  0  0  0  0
   -1.0808    3.6095   -0.3129 H   0  0  0  0  0  0  0  0  0  0  0  0
  5  6  2  0  0  0  0
  5  7  1  0  0  0  0
  2  3  1  0  0  0  0
  2  4  1  0  0  0  0
  2  5  1  0  0  0  0
  1  2  1  0  0  0  0
 29 30  2  0  0  0  0
 29 31  1  0  0  0  0
 26 27  1  0  0  0  0
 26 28  2  0  0  0  0
 24 25  1  0  0  0  0
 24 26  1  0  0  0  0
 22 23  1  0  0  0  0
 22 24  2  0  0  0  0
 20 21  1  0  0  0  0
 20 22  1  0  0  0  0
 19 20  2  0  0  0  0
 19 28  1  0  0  0  0
 17 18  1  0  0  0  0
 17 19  1  0  0  0  0
 15 16  1  0  0  0  0
 15 17  1  0  0  0  0
 14 15  2  0  0  0  0
 14 28  1  0  0  0  0
 11 12  1  0  0  0  0
 11 13  1  0  0  0  0
 11 14  1  0  0  0  0
  9 10  1  0  0  0  0
  9 11  1  0  0  0  0
  9 29  1  0  0  0  0
  7  8  1  0  0  0  0
  7  9  1  0  0  0  0
 33 34  1  0  0  0  0
 33 35  1  0  0  0  0
 33 36  1  0  0  0  0
 31 32  1  0  0  0  0
 31 33  1  0  0  0  0
M  END
$$$$
default_name
  -OEChem-02102213163D

 36 37  0     1  0  0  0  0  0999 V2000
   -4.0843   -4.0736    1.2944 H   0  0  0  0  0  0  0  0  0  0  0  0
   -4.0342   -3.2816    0.5484 C   0  0  0  0  0  0  0  0  0  0  0  0
   -4.8842   -2.6126    0.6694 H   0  0  0  0  0  0  0  0  0  0  0  0
   -4.0433   -3.7186   -0.4486 H   0  0  0  0  0  0  0  0  0  0  0  0
   -2.7532   -2.5046    0.7444 C   0  0  0  0  0  0  0  0  0  0  0  0
   -1.9803   -2.8096    1.6434 O   0  0  0  0  0  0  0  0  0  0  0  0
   -2.5332   -1.4966   -0.0966 N   0  0  0  0  0  0  0  0  0  0  0  0
   -3.2312   -1.2816   -0.7936 H   0  0  0  0  0  0  0  0  0  0  0  0
   -1.3593   -0.6196   -0.0536 C   0  0  1  0  0  0  0  0  0  0  0  0
   -0.8788   -0.7266    0.9196 H   0  0  0  0  0  0  0  0  0  0  0  0
   -0.3559   -1.0533   -1.1339 C   0  0  0  0  0  0  0  0  0  0  0  0
    0.0246   -0.1632   -1.6381 H   0  0  0  0  0  0  0  0  0  0  0  0
    0.4888   -1.5433   -0.6466 H   0  0  0  0  0  0  0  0  0  0  0  0
   -0.9041   -1.9785   -2.1777 C   0  0  0  0  0  0  0  0  0  0  0  0
   -0.1688   -2.7111   -3.0438 C   0  0  0  0  0  0  0  0  0  0  0  0
    0.9144   -2.7001   -3.0970 H   0  0  0  0  0  0  0  0  0  0  0  0
   -1.0056   -3.4820   -3.8268 N   0  0  0  0  0  0  0  0  0  0  0  0
   -0.6750   -4.1065   -4.5478 H   0  0  0  0  0  0  0  0  0  0  0  0
   -2.3296   -3.2956   -3.4905 C   0  0  0  0  0  0  0  0  0  0  0  0
   -3.5257   -3.8557   -3.9616 C   0  0  0  0  0  0  0  0  0  0  0  0
   -3.5118   -4.5903   -4.7533 H   0  0  0  0  0  0  0  0  0  0  0  0
   -4.7428   -3.4464   -3.3903 C   0  0  0  0  0  0  0  0  0  0  0  0
   -5.6755   -3.8667   -3.7415 H   0  0  0  0  0  0  0  0  0  0  0  0
   -4.7469   -2.4835   -2.3646 C   0  0  0  0  0  0  0  0  0  0  0  0
   -5.6861   -2.1653   -1.9336 H   0  0  0  0  0  0  0  0  0  0  0  0
   -3.5387   -1.9258   -1.9003 C   0  0  0  0  0  0  0  0  0  0  0  0
   -3.5570   -1.1772   -1.1210 H   0  0  0  0  0  0  0  0  0  0  0  0
   -2.2993   -2.3204   -2.4492 C   0  0  0  0  0  0  0  0  0  0  0  0
   -1.7617    0.8549   -0.2106 C   0  0  0  0  0  0  0  0  0  0  0  0
   -2.5726    1.1871   -1.0741 O   0  0  0  0  0  0  0  0  0  0  0  0
   -1.1941    1.7377    0.6223 N   0  0  0  0  0  0  0  0  0  0  0  0
   -0.4976    1.3916    1.2669 H   0  0  0  0  0  0  0  0  0  0  0  0
   -1.4666    3.1722    0.6095 C   0  0  0  0  0  0  0  0  0  0  0  0
   -2.5439    3.3427    0.6539 H   0  0  0  0  0  0  0  0  0  0  0  0
   -0.9893    3.6529    1.4644 H   0  0  0  0  0  0  0  0  0  0  0  0
   -1.0808    3.6095   -0.3129 H   0  0  0  0  0  0  0  0  0  0  0  0
  5  6  2  0  0  0  0
  5  7  1  0  0  0  0
  2  3  1  0  0  0  0
  2  4  1  0  0  0  0
  2  5  1  0  0  0  0
  1  2  1  0  0  0  0
 29 30  2  0  0  0  0
 29 31  1  0  0  0  0
 26 27  1  0  0  0  0
 26 28  2  0  0  0  0
 24 25  1  0  0  0  0
 24 26  1  0  0  0  0
 22 23  1  0  0  0  0
 22 24  2  0  0  0  0
 20 21  1  0  0  0  0
 20 22  1  0  0  0  0
 19 20  2  0  0  0  0
 19 28  1  0  0  0  0
 17 18  1  0  0  0  0
 17 19  1  0  0  0  0
 15 16  1  0  0  0  0
 15 17  1  0  0  0  0
 14 15  2  0  0  0  0
 14 28  1  0  0  0  0
 11 12  1  0  0  0  0
 11 13  1  0  0  0  0
 11 14  1  0  0  0  0
  9 10  1  0  0  0  0
  9 11  1  0  0  0  0
  9 29  1  0  0  0  0
  7  8  1  0  0  0  0
  7  9  1  0  0  0  0
 33 34  1  0  0  0  0
 33 35  1  0  0  0  0
 33 36  1  0  0  0  0
 31 32  1  0  0  0  0
 31 33  1  0  0  0  0
M  END
$$$$
default_name
  -OEChem-02102213163D

 36 37  0     1  0  0  0  0  0999 V2000
   -4.0843   -4.0736    1.2944 H   0  0  0  0  0  0  0  0  0  0  0  0
   -4.0342   -3.2816    0.5484 C   0  0  0  0  0  0  0  0  0  0  0  0
   -4.8842   -2.6126    0.6694 H   0  0  0  0  0  0  0  0  0  0  0  0
   -4.0433   -3.7186   -0.4486 H   0  0  0  0  0  0  0  0  0  0  0  0
   -2.7532   -2.5046    0.7444 C   0  0  0  0  0  0  0  0  0  0  0  0
   -1.9803   -2.8096    1.6434 O   0  0  0  0  0  0  0  0  0  0  0  0
   -2.5332   -1.4966   -0.0966 N   0  0  0  0  0  0  0  0  0  0  0  0
   -3.2312   -1.2816   -0.7936 H   0  0  0  0  0  0  0  0  0  0  0  0
   -1.3593   -0.6196   -0.0536 C   0  0  1  0  0  0  0  0  0  0  0  0
   -0.8788   -0.7266    0.9196 H   0  0  0  0  0  0  0  0  0  0  0  0
   -0.3559   -1.0533   -1.1339 C   0  0  0  0  0  0  0  0  0  0  0  0
    0.0246   -0.1632   -1.6381 H   0  0  0  0  0  0  0  0  0  0  0  0
    0.4888   -1.5433   -0.6466 H   0  0  0  0  0  0  0  0  0  0  0  0
   -0.9041   -1.9785   -2.1777 C   0  0  0  0  0  0  0  0  0  0  0  0
   -0.1973   -2.9173   -2.8461 C   0  0  0  0  0  0  0  0  0  0  0  0
    0.8640   -3.0992   -2.7168 H   0  0  0  0  0  0  0  0  0  0  0  0
   -1.0360   -3.6131   -3.6946 N   0  0  0  0  0  0  0  0  0  0  0  0
   -0.7236   -4.3603   -4.2974 H   0  0  0  0  0  0  0  0  0  0  0  0
   -2.3367   -3.1654   -3.6022 C   0  0  0  0  0  0  0  0  0  0  0  0
   -3.5317   -3.5587   -4.2217 C   0  0  0  0  0  0  0  0  0  0  0  0
   -3.5365   -4.3667   -4.9384 H   0  0  0  0  0  0  0  0  0  0  0  0
   -4.7222   -2.8856   -3.8982 C   0  0  0  0  0  0  0  0  0  0  0  0
   -5.6532   -3.1745   -4.3668 H   0  0  0  0  0  0  0  0  0  0  0  0
   -4.7001   -1.8301   -2.9682 C   0  0  0  0  0  0  0  0  0  0  0  0
   -5.6170   -1.3095   -2.7285 H   0  0  0  0  0  0  0  0  0  0  0  0
   -3.4929   -1.4420   -2.3532 C   0  0  0  0  0  0  0  0  0  0  0  0
   -3.4877   -0.6208   -1.6506 H   0  0  0  0  0  0  0  0  0  0  0  0
   -2.2813   -2.1021   -2.6521 C   0  0  0  0  0  0  0  0  0  0  0  0
   -1.7617    0.8549   -0.2106 C   0  0  0  0  0  0  0  0  0  0  0  0
   -2.5726    1.1871   -1.0741 O   0  0  0  0  0  0  0  0  0  0  0  0
   -1.1941    1.7377    0.6223 N   0  0  0  0  0  0  0  0  0  0  0  0
   -0.4976    1.3916    1.2669 H   0  0  0  0  0  0  0  0  0  0  0  0
   -1.4666    3.1722    0.6095 C   0  0  0  0  0  0  0  0  0  0  0  0
   -2.5439    3.3427    0.6539 H   0  0  0  0  0  0  0  0  0  0  0  0
   -0.9893    3.6529    1.4644 H   0  0  0  0  0  0  0  0  0  0  0  0
   -1.0808    3.6095   -0.3129 H   0  0  0  0  0  0  0  0  0  0  0  0
  5  6  2  0  0  0  0
  5  7  1  0  0  0  0
  2  3  1  0  0  0  0
  2  4  1  0  0  0  0
  2  5  1  0  0  0  0
  1  2  1  0  0  0  0
 29 30  2  0  0  0  0
 29 31  1  0  0  0  0
 26 27  1  0  0  0  0
 26 28  2  0  0  0  0
 24 25  1  0  0  0  0
 24 26  1  0  0  0  0
 22 23  1  0  0  0  0
 22 24  2  0  0  0  0
 20 21  1  0  0  0  0
 20 22  1  0  0  0  0
 19 20  2  0  0  0  0
 19 28  1  0  0  0  0
 17 18  1  0  0  0  0
 17 19  1  0  0  0  0
 15 16  1  0  0  0  0
 15 17  1  0  0  0  0
 14 15  2  0  0  0  0
 14 28  1  0  0  0  0
 11 12  1  0  0  0  0
 11 13  1  0  0  0  0
 11 14  1  0  0  0  0
  9 10  1  0  0  0  0
  9 11  1  0  0  0  0
  9 29  1  0  0  0  0
  7  8  1  0  0  0  0
  7  9  1  0  0  0  0
 33 34  1  0  0  0  0
 33 35  1  0  0  0  0
 33 36  1  0  0  0  0
 31 32  1  0  0  0  0
 31 33  1  0  0  0  0
M  END
$$$$
default_name
  -OEChem-02102213163D

 36 37  0     1  0  0  0  0  0999 V2000
   -4.0843   -4.0736    1.2944 H   0  0  0  0  0  0  0  0  0  0  0  0
   -4.0342   -3.2816    0.5484 C   0  0  0  0  0  0  0  0  0  0  0  0
   -4.8842   -2.6126    0.6694 H   0  0  0  0  0  0  0  0  0  0  0  0
   -4.0433   -3.7186   -0.4486 H   0  0  0  0  0  0  0  0  0  0  0  0
   -2.7532   -2.5046    0.7444 C   0  0  0  0  0  0  0  0  0  0  0  0
   -1.9803   -2.8096    1.6434 O   0  0  0  0  0  0  0  0  0  0  0  0
   -2.5332   -1.4966   -0.0966 N   0  0  0  0  0  0  0  0  0  0  0  0
   -3.2312   -1.2816   -0.7936 H   0  0  0  0  0  0  0  0  0  0  0  0
   -1.3593   -0.6196   -0.0536 C   0  0  1  0  0  0  0  0  0  0  0  0
   -0.8788   -0.7266    0.9196 H   0  0  0  0  0  0  0  0  0  0  0  0
   -0.3559   -1.0533   -1.1339 C   0  0  0  0  0  0  0  0  0  0  0  0
    0.0246   -0.1632   -1.6381 H   0  0  0  0  0  0  0  0  0  0  0  0
    0.4888   -1.5433   -0.6466 H   0  0  0  0  0  0  0  0  0  0  0  0
   -0.9041   -1.9785   -2.1777 C   0  0  0  0  0  0  0  0  0  0  0  0
   -0.2936   -3.0925   -2.6402 C   0  0  0  0  0  0  0  0  0  0  0  0
    0.6826   -3.4396   -2.3198 H   0  0  0  0  0  0  0  0  0  0  0  0
   -1.1101   -3.7217   -3.5594 N   0  0  0  0  0  0  0  0  0  0  0  0
   -0.8563   -4.5729   -4.0392 H   0  0  0  0  0  0  0  0  0  0  0  0
   -2.3022   -3.0488   -3.7236 C   0  0  0  0  0  0  0  0  0  0  0  0
   -3.4423   -3.2954   -4.5020 C   0  0  0  0  0  0  0  0  0  0  0  0
   -3.4906   -4.1639   -5.1423 H   0  0  0  0  0  0  0  0  0  0  0  0
   -4.5200   -2.3957   -4.4386 C   0  0  0  0  0  0  0  0  0  0  0  0
   -5.4071   -2.5690   -5.0327 H   0  0  0  0  0  0  0  0  0  0  0  0
   -4.4408   -1.2646   -3.6057 C   0  0  0  0  0  0  0  0  0  0  0  0
   -5.2689   -0.5705   -3.5663 H   0  0  0  0  0  0  0  0  0  0  0  0
   -3.2891   -1.0257   -2.8292 C   0  0  0  0  0  0  0  0  0  0  0  0
   -3.2359   -0.1459   -2.2037 H   0  0  0  0  0  0  0  0  0  0  0  0
   -2.1922   -1.9137   -2.8659 C   0  0  0  0  0  0  0  0  0  0  0  0
   -1.7617    0.8549   -0.2106 C   0  0  0  0  0  0  0  0  0  0  0  0
   -2.5726    1.1871   -1.0741 O   0  0  0  0  0  0  0  0  0  0  0  0
   -1.1941    1.7377    0.6223 N   0  0  0  0  0  0  0  0  0  0  0  0
   -0.4976    1.3916    1.2669 H   0  0  0  0  0  0  0  0  0  0  0  0
   -1.4666    3.1722    0.6095 C   0  0  0  0  0  0  0  0  0  0  0  0
   -2.5439    3.3427    0.6539 H   0  0  0  0  0  0  0  0  0  0  0  0
   -0.9893    3.6529    1.4644 H   0  0  0  0  0  0  0  0  0  0  0  0
   -1.0808    3.6095   -0.3129 H   0  0  0  0  0  0  0  0  0  0  0  0
  5  6  2  0  0  0  0
  5  7  1  0  0  0  0
  2  3  1  0  0  0  0
  2  4  1  0  0  0  0
  2  5  1  0  0  0  0
  1  2  1  0  0  0  0
 29 30  2  0  0  0  0
 29 31  1  0  0  0  0
 26 27  1  0  0  0  0
 26 28  2  0  0  0  0
 24 25  1  0  0  0  0
 24 26  1  0  0  0  0
 22 23  1  0  0  0  0
 22 24  2  0  0  0  0
 20 21  1  0  0  0  0
 20 22  1  0  0  0  0
 19 20  2  0  0  0  0
 19 28  1  0  0  0  0
 17 18  1  0  0  0  0
 17 19  1  0  0  0  0
 15 16  1  0  0  0  0
 15 17  1  0  0  0  0
 14 15  2  0  0  0  0
 14 28  1  0  0  0  0
 11 12  1  0  0  0  0
 11 13  1  0  0  0  0
 11 14  1  0  0  0  0
  9 10  1  0  0  0  0
  9 11  1  0  0  0  0
  9 29  1  0  0  0  0
  7  8  1  0  0  0  0
  7  9  1  0  0  0  0
 33 34  1  0  0  0  0
 33 35  1  0  0  0  0
 33 36  1  0  0  0  0
 31 32  1  0  0  0  0
 31 33  1  0  0  0  0
M  END
$$$$
default_name
  -OEChem-02102213163D

 36 37  0     1  0  0  0  0  0999 V2000
   -4.0843   -4.0736    1.2944 H   0  0  0  0  0  0  0  0  0  0  0  0
   -4.0342   -3.2816    0.5484 C   0  0  0  0  0  0  0  0  0  0  0  0
   -4.8842   -2.6126    0.6694 H   0  0  0  0  0  0  0  0  0  0  0  0
   -4.0433   -3.7186   -0.4486 H   0  0  0  0  0  0  0  0  0  0  0  0
   -2.7532   -2.5046    0.7444 C   0  0  0  0  0  0  0  0  0  0  0  0
   -1.9803   -2.8096    1.6434 O   0  0  0  0  0  0  0  0  0  0  0  0
   -2.5332   -1.4966   -0.0966 N   0  0  0  0  0  0  0  0  0  0  0  0
   -3.2312   -1.2816   -0.7936 H   0  0  0  0  0  0  0  0  0  0  0  0
   -1.3593   -0.6196   -0.0536 C   0  0  1  0  0  0  0  0  0  0  0  0
   -0.8788   -0.7266    0.9196 H   0  0  0  0  0  0  0  0  0  0  0  0
   -0.3559   -1.0533   -1.1339 C   0  0  0  0  0  0  0  0  0  0  0  0
    0.0246   -0.1632   -1.6381 H   0  0  0  0  0  0  0  0  0  0  0  0
    0.4888   -1.5433   -0.6466 H   0  0  0  0  0  0  0  0  0  0  0  0
   -0.9041   -1.9785   -2.1777 C   0  0  0  0  0  0  0  0  0  0  0  0
   -0.4511   -3.2249   -2.4401 C   0  0  0  0  0  0  0  0  0  0  0  0
    0.3826   -3.6981   -1.9331 H   0  0  0  0  0  0  0  0  0  0  0  0
   -1.2229   -3.8004   -3.4304 N   0  0  0  0  0  0  0  0  0  0  0  0
   -1.0641   -4.7299   -3.7908 H   0  0  0  0  0  0  0  0  0  0  0  0
   -2.2286   -2.9540   -3.8464 C   0  0  0  0  0  0  0  0  0  0  0  0
   -3.2637   -3.0837   -4.7834 C   0  0  0  0  0  0  0  0  0  0  0  0
   -3.3771   -3.9956   -5.3511 H   0  0  0  0  0  0  0  0  0  0  0  0
   -4.1501   -2.0100   -4.9747 C   0  0  0  0  0  0  0  0  0  0  0  0
   -4.9538   -2.0916   -5.6939 H   0  0  0  0  0  0  0  0  0  0  0  0
   -3.9864   -0.8254   -4.2336 C   0  0  0  0  0  0  0  0  0  0  0  0
   -4.6656    0.0012   -4.3899 H   0  0  0  0  0  0  0  0  0  0  0  0
   -2.9412   -0.7055   -3.2958 C   0  0  0  0  0  0  0  0  0  0  0  0
   -2.8187    0.2150   -2.7428 H   0  0  0  0  0  0  0  0  0  0  0  0
   -2.0380   -1.7680   -3.0760 C   0  0  0  0  0  0  0  0  0  0  0  0
   -1.7617    0.8549   -0.2106 C   0  0  0  0  0  0  0  0  0  0  0  0
   -2.5726    1.1871   -1.0741 O   0  0  0  0  0  0  0  0  0  0  0  0
   -1.1941    1.7377    0.6223 N   0  0  0  0  0  0  0  0  0  0  0  0
   -0.4976    1.3916    1.2669 H   0  0  0  0  0  0  0  0  0  0  0  0
   -1.4666    3.1722    0.6095 C   0  0  0  0  0  0  0  0  0  0  0  0
   -2.5439    3.3427    0.6539 H   0  0  0  0  0  0  0  0  0  0  0  0
   -0.9893    3.6529    1.4644 H   0  0  0  0  0  0  0  0  0  0  0  0
   -1.0808    3.6095   -0.3129 H   0  0  0  0  0  0  0  0  0  0  0  0
  5  6  2  0  0  0  0
  5  7  1  0  0  0  0
  2  3  1  0  0  0  0
  2  4  1  0  0  0  0
  2  5  1  0  0  0  0
  1  2  1  0  0  0  0
 29 30  2  0  0  0  0
 29 31  1  0  0  0  0
 26 27  1  0  0  0  0
 26 28  2  0  0  0  0
 24 25  1  0  0  0  0
 24 26  1  0  0  0  0
 22 23  1  0  0  0  0
 22 24  2  0  0  0  0
 20 21  1  0  0  0  0
 20 22  1  0  0  0  0
 19 20  2  0  0  0  0
 19 28  1  0  0  0  0
 17 18  1  0  0  0  0
 17 19  1  0  0  0  0
 15 16  1  0  0  0  0
 15 17  1  0  0  0  0
 14 15  2  0  0  0  0
 14 28  1  0  0  0  0
 11 12  1  0  0  0  0
 11 13  1  0  0  0  0
 11 14  1  0  0  0  0
  9 10  1  0  0  0  0
  9 11  1  0  0  0  0
  9 29  1  0  0  0  0
  7  8  1  0  0  0  0
  7  9  1  0  0  0  0
 33 34  1  0  0  0  0
 33 35  1  0  0  0  0
 33 36  1  0  0  0  0
 31 32  1  0  0  0  0
 31 33  1  0  0  0  0
M  END
$$$$
default_name
  -OEChem-02102213163D

 36 37  0     1  0  0  0  0  0999 V2000
   -4.0843   -4.0736    1.2944 H   0  0  0  0  0  0  0  0  0  0  0  0
   -4.0342   -3.2816    0.5484 C   0  0  0  0  0  0  0  0  0  0  0  0
   -4.8842   -2.6126    0.6694 H   0  0  0  0  0  0  0  0  0  0  0  0
   -4.0433   -3.7186   -0.4486 H   0  0  0  0  0  0  0  0  0  0  0  0
   -2.7532   -2.5046    0.7444 C   0  0  0  0  0  0  0  0  0  0  0  0
   -1.9803   -2.8096    1.6434 O   0  0  0  0  0  0  0  0  0  0  0  0
   -2.5332   -1.4966   -0.0966 N   0  0  0  0  0  0  0  0  0  0  0  0
   -3.2312   -1.2816   -0.7936 H   0  0  0  0  0  0  0  0  0  0  0  0
   -1.3593   -0.6196   -0.0536 C   0  0  1  0  0  0  0  0  0  0  0  0
   -0.8788   -0.7266    0.9196 H   0  0  0  0  0  0  0  0  0  0  0  0
   -0.3559   -1.0533   -1.1339 C   0  0  0  0  0  0  0  0  0  0  0  0
    0.0246   -0.1632   -1.6381 H   0  0  0  0  0  0  0  0  0  0  0  0
    0.4888   -1.5433   -0.6466 H   0  0  0  0  0  0  0  0  0  0  0  0
   -0.9041   -1.9785   -2.1777 C   0  0  0  0  0  0  0  0  0  0  0  0
   -0.6591   -3.3055   -2.2595 C   0  0  0  0  0  0  0  0  0  0  0  0
   -0.0155   -3.8572   -1.5830 H   0  0  0  0  0  0  0  0  0  0  0  0
   -1.3667   -3.8439   -3.3163 N   0  0  0  0  0  0  0  0  0  0  0  0
   -1.3328   -4.8206   -3.5693 H   0  0  0  0  0  0  0  0  0  0  0  0
   -2.1207   -2.8873   -3.9621 C   0  0  0  0  0  0  0  0  0  0  0  0
   -3.0081   -2.9381   -5.0468 C   0  0  0  0  0  0  0  0  0  0  0  0
   -3.2037   -3.8732   -5.5506 H   0  0  0  0  0  0  0  0  0  0  0  0
   -3.6376   -1.7550   -5.4699 C   0  0  0  0  0  0  0  0  0  0  0  0
   -4.3242   -1.7747   -6.3054 H   0  0  0  0  0  0  0  0  0  0  0  0
   -3.3681   -0.5426   -4.8090 C   0  0  0  0  0  0  0  0  0  0  0  0
   -3.8482    0.3667   -5.1432 H   0  0  0  0  0  0  0  0  0  0  0  0
   -2.4729   -0.5030   -3.7212 C   0  0  0  0  0  0  0  0  0  0  0  0
   -2.2646    0.4374   -3.2309 H   0  0  0  0  0  0  0  0  0  0  0  0
   -1.8293   -1.6749   -3.2681 C   0  0  0  0  0  0  0  0  0  0  0  0
   -1.7617    0.8549   -0.2106 C   0  0  0  0  0  0  0  0  0  0  0  0
   -2.5726    1.1871   -1.0741 O   0  0  0  0  0  0  0  0  0  0  0  0
   -1.1941    1.7377    0.6223 N   0  0  0  0  0  0  0  0  0  0  0  0
   -0.4976    1.3916    1.2669 H   0  0  0  0  0  0  0  0  0  0  0  0
   -1.4666    3.1722    0.6095 C   0  0  0  0  0  0  0  0  0  0  0  0
   -2.5439    3.3427    0.6539 H   0  0  0  0  0  0  0  0  0  0  0  0
   -0.9893    3.6529    1.4644 H   0  0  0  0  0  0  0  0  0  0  0  0
   -1.0808    3.6095   -0.3129 H   0  0  0  0  0  0  0  0  0  0  0  0
  5  6  2  0  0  0  0
  5  7  1  0  0  0  0
  2  3  1  0  0  0  0
  2  4  1  0  0  0  0
  2  5  1  0  0  0  0
  1  2  1  0  0  0  0
 29 30  2  0  0  0  0
 29 31  1  0  0  0  0
 26 27  1  0  0  0  0
 26 28  2  0  0  0  0
 24 25  1  0  0  0  0
 24 26  1  0  0  0  0
 22 23  1  0  0  0  0
 22 24  2  0  0  0  0
 20 21  1  0  0  0  0
 20 22  1  0  0  0  0
 19 20  2  0  0  0  0
 19 28  1  0  0  0  0
 17 18  1  0  0  0  0
 17 19  1  0  0  0  0
 15 16  1  0  0  0  0
 15 17  1  0  0  0  0
 14 15  2  0  0  0  0
 14 28  1  0  0  0  0
 11 12  1  0  0  0  0
 11 13  1  0  0  0  0
 11 14  1  0  0  0  0
  9 10  1  0  0  0  0
  9 11  1  0  0  0  0
  9 29  1  0  0  0  0
  7  8  1  0  0  0  0
  7  9  1  0  0  0  0
 33 34  1  0  0  0  0
 33 35  1  0  0  0  0
 33 36  1  0  0  0  0
 31 32  1  0  0  0  0
 31 33  1  0  0  0  0
M  END
$$$$
default_name
  -OEChem-02102213163D

 36 37  0     1  0  0  0  0  0999 V2000
   -4.0843   -4.0736    1.2944 H   0  0  0  0  0  0  0  0  0  0  0  0
   -4.0342   -3.2816    0.5484 C   0  0  0  0  0  0  0  0  0  0  0  0
   -4.8842   -2.6126    0.6694 H   0  0  0  0  0  0  0  0  0  0  0  0
   -4.0433   -3.7186   -0.4486 H   0  0  0  0  0  0  0  0  0  0  0  0
   -2.7532   -2.5046    0.7444 C   0  0  0  0  0  0  0  0  0  0  0  0
   -1.9803   -2.8096    1.6434 O   0  0  0  0  0  0  0  0  0  0  0  0
   -2.5332   -1.4966   -0.0966 N   0  0  0  0  0  0  0  0  0  0  0  0
   -3.2312   -1.2816   -0.7936 H   0  0  0  0  0  0  0  0  0  0  0  0
   -1.3593   -0.6196   -0.0536 C   0  0  1  0  0  0  0  0  0  0  0  0
   -0.8788   -0.7266    0.9196 H   0  0  0  0  0  0  0  0  0  0  0  0
   -0.3559   -1.0533   -1.1339 C   0  0  0  0  0  0  0  0  0  0  0  0
    0.0246   -0.1632   -1.6381 H   0  0  0  0  0  0  0  0  0  0  0  0
    0.4888   -1.5433   -0.6466 H   0  0  0  0  0  0  0  0  0  0  0  0
   -0.9041   -1.9785   -2.1777 C   0  0  0  0  0  0  0  0  0  0  0  0
   -0.9034   -3.3287   -2.1106 C   0  0  0  0  0  0  0  0  0  0  0  0
   -0.4847   -3.9059   -1.2934 H   0  0  0  0  0  0  0  0  0  0  0  0
   -1.5316   -3.8492   -3.2250 N   0  0  0  0  0  0  0  0  0  0  0  0
   -1.6441   -4.8389   -3.3897 H   0  0  0  0  0  0  0  0  0  0  0  0
   -1.9860   -2.8532   -4.0631 C   0  0  0  0  0  0  0  0  0  0  0  0
   -2.6928   -2.8684   -5.2741 C   0  0  0  0  0  0  0  0  0  0  0  0
   -2.9823   -3.8051   -5.7272 H   0  0  0  0  0  0  0  0  0  0  0  0
   -3.0174   -1.6479   -5.8905 C   0  0  0  0  0  0  0  0  0  0  0  0
   -3.5613   -1.6401   -6.8254 H   0  0  0  0  0  0  0  0  0  0  0  0
   -2.6279   -0.4353   -5.2928 C   0  0  0  0  0  0  0  0  0  0  0  0
   -2.8724    0.5011   -5.7748 H   0  0  0  0  0  0  0  0  0  0  0  0
   -1.9160   -0.4321   -4.0765 C   0  0  0  0  0  0  0  0  0  0  0  0
   -1.6112    0.5060   -3.6349 H   0  0  0  0  0  0  0  0  0  0  0  0
   -1.5802   -1.6409   -3.4291 C   0  0  0  0  0  0  0  0  0  0  0  0
   -1.7617    0.8549   -0.2106 C   0  0  0  0  0  0  0  0  0  0  0  0
   -2.5726    1.1871   -1.0741 O   0  0  0  0  0  0  0  0  0  0  0  0
   -1.1941    1.7377    0.6223 N   0  0  0  0  0  0  0  0  0  0  0  0
   -0.4976    1.3916    1.2669 H   0  0  0  0  0  0  0  0  0  0  0  0
   -1.4666    3.1722    0.6095 C   0  0  0  0  0  0  0  0  0  0  0  0
   -2.5439    3.3427    0.6539 H   0  0  0  0  0  0  0  0  0  0  0  0
   -0.9893    3.6529    1.4644 H   0  0  0  0  0  0  0  0  0  0  0  0
   -1.0808    3.6095   -0.3129 H   0  0  0  0  0  0  0  0  0  0  0  0
  5  6  2  0  0  0  0
  5  7  1  0  0  0  0
  2  3  1  0  0  0  0
  2  4  1  0  0  0  0
  2  5  1  0  0  0  0
  1  2  1  0  0  0  0
 29 30  2  0  0  0  0
 29 31  1  0  0  0  0
 26 27  1  0  0  0  0
 26 28  2  0  0  0  0
 24 25  1  0  0  0  0
 24 26  1  0  0  0  0
 22 23  1  0  0  0  0
 22 24  2  0  0  0  0
 20 21  1  0  0  0  0
 20 22  1  0  0  0  0
 19 20  2  0  0  0  0
 19 28  1  0  0  0  0
 17 18  1  0  0  0  0
 17 19  1  0  0  0  0
 15 16  1  0  0  0  0
 15 17  1  0  0  0  0
 14 15  2  0  0  0  0
 14 28  1  0  0  0  0
 11 12  1  0  0  0  0
 11 13  1  0  0  0  0
 11 14  1  0  0  0  0
  9 10  1  0  0  0  0
  9 11  1  0  0  0  0
  9 29  1  0  0  0  0
  7  8  1  0  0  0  0
  7  9  1  0  0  0  0
 33 34  1  0  0  0  0
 33 35  1  0  0  0  0
 33 36  1  0  0  0  0
 31 32  1  0  0  0  0
 31 33  1  0  0  0  0
M  END
$$$$
default_name
  -OEChem-02102213163D

 36 37  0     1  0  0  0  0  0999 V2000
   -4.0843   -4.0736    1.2944 H   0  0  0  0  0  0  0  0  0  0  0  0
   -4.0342   -3.2816    0.5484 C   0  0  0  0  0  0  0  0  0  0  0  0
   -4.8842   -2.6126    0.6694 H   0  0  0  0  0  0  0  0  0  0  0  0
   -4.0433   -3.7186   -0.4486 H   0  0  0  0  0  0  0  0  0  0  0  0
   -2.7532   -2.5046    0.7444 C   0  0  0  0  0  0  0  0  0  0  0  0
   -1.9803   -2.8096    1.6434 O   0  0  0  0  0  0  0  0  0  0  0  0
   -2.5332   -1.4966   -0.0966 N   0  0  0  0  0  0  0  0  0  0  0  0
   -3.2312   -1.2816   -0.7936 H   0  0  0  0  0  0  0  0  0  0  0  0
   -1.3593   -0.6196   -0.0536 C   0  0  1  0  0  0  0  0  0  0  0  0
   -0.8788   -0.7266    0.9196 H   0  0  0  0  0  0  0  0  0  0  0  0
   -0.3559   -1.0533   -1.1339 C   0  0  0  0  0  0  0  0  0  0  0  0
    0.0246   -0.1632   -1.6381 H   0  0  0  0  0  0  0  0  0  0  0  0
    0.4888   -1.5433   -0.6466 H   0  0  0  0  0  0  0  0  0  0  0  0
   -0.9041   -1.9785   -2.1777 C   0  0  0  0  0  0  0  0  0  0  0  0
   -1.1674   -3.2930   -2.0036 C   0  0  0  0  0  0  0  0  0  0  0  0
   -0.9930   -3.8409   -1.0840 H   0  0  0  0  0  0  0  0  0  0  0  0
   -1.7065   -3.8160   -3.1626 N   0  0  0  0  0  0  0  0  0  0  0  0
   -1.9768   -4.7833   -3.2642 H   0  0  0  0  0  0  0  0  0  0  0  0
   -1.8336   -2.8542   -4.1422 C   0  0  0  0  0  0  0  0  0  0  0  0
   -2.3394   -2.8795   -5.4499 C   0  0  0  0  0  0  0  0  0  0  0  0
   -2.7280   -3.7960   -5.8689 H   0  0  0  0  0  0  0  0  0  0  0  0
   -2.3319   -1.6961   -6.2079 C   0  0  0  0  0  0  0  0  0  0  0  0
   -2.7170   -1.6968   -7.2186 H   0  0  0  0  0  0  0  0  0  0  0  0
   -1.8163   -0.5110   -5.6521 C   0  0  0  0  0  0  0  0  0  0  0  0
   -1.8048    0.3953   -6.2417 H   0  0  0  0  0  0  0  0  0  0  0  0
   -1.3086   -0.4977   -4.3374 C   0  0  0  0  0  0  0  0  0  0  0  0
   -0.9031    0.4164   -3.9273 H   0  0  0  0  0  0  0  0  0  0  0  0
   -1.3077   -1.6681   -3.5481 C   0  0  0  0  0  0  0  0  0  0  0  0
   -1.7617    0.8549   -0.2106 C   0  0  0  0  0  0  0  0  0  0  0  0
   -2.5726    1.1871   -1.0741 O   0  0  0  0  0  0  0  0  0  0  0  0
   -1.1941    1.7377    0.6223 N   0  0  0  0  0  0  0  0  0  0  0  0
   -0.4976    1.3916    1.2669 H   0  0  0  0  0  0  0  0  0  0  0  0
   -1.4666    3.1722    0.6095 C   0  0  0  0  0  0  0  0  0  0  0  0
   -2.5439    3.3427    0.6539 H   0  0  0  0  0  0  0  0  0  0  0  0
   -0.9893    3.6529    1.4644 H   0  0  0  0  0  0  0  0  0  0  0  0
   -1.0808    3.6095   -0.3129 H   0  0  0  0  0  0  0  0  0  0  0  0
  5  6  2  0  0  0  0
  5  7  1  0  0  0  0
  2  3  1  0  0  0  0
  2  4  1  0  0  0  0
  2  5  1  0  0  0  0
  1  2  1  0  0  0  0
 29 30  2  0  0  0  0
 29 31  1  0  0  0  0
 26 27  1  0  0  0  0
 26 28  2  0  0  0  0
 24 25  1  0  0  0  0
 24 26  1  0  0  0  0
 22 23  1  0  0  0  0
 22 24  2  0  0  0  0
 20 21  1  0  0  0  0
 20 22  1  0  0  0  0
 19 20  2  0  0  0  0
 19 28  1  0  0  0  0
 17 18  1  0  0  0  0
 17 19  1  0  0  0  0
 15 16  1  0  0  0  0
 15 17  1  0  0  0  0
 14 15  2  0  0  0  0
 14 28  1  0  0  0  0
 11 12  1  0  0  0  0
 11 13  1  0  0  0  0
 11 14  1  0  0  0  0
  9 10  1  0  0  0  0
  9 11  1  0  0  0  0
  9 29  1  0  0  0  0
  7  8  1  0  0  0  0
  7  9  1  0  0  0  0
 33 34  1  0  0  0  0
 33 35  1  0  0  0  0
 33 36  1  0  0  0  0
 31 32  1  0  0  0  0
 31 33  1  0  0  0  0
M  END
$$$$
default_name
  -OEChem-02102213163D

 36 37  0     1  0  0  0  0  0999 V2000
   -4.0843   -4.0736    1.2944 H   0  0  0  0  0  0  0  0  0  0  0  0
   -4.0342   -3.2816    0.5484 C   0  0  0  0  0  0  0  0  0  0  0  0
   -4.8842   -2.6126    0.6694 H   0  0  0  0  0  0  0  0  0  0  0  0
   -4.0433   -3.7186   -0.4486 H   0  0  0  0  0  0  0  0  0  0  0  0
   -2.7532   -2.5046    0.7444 C   0  0  0  0  0  0  0  0  0  0  0  0
   -1.9803   -2.8096    1.6434 O   0  0  0  0  0  0  0  0  0  0  0  0
   -2.5332   -1.4966   -0.0966 N   0  0  0  0  0  0  0  0  0  0  0  0
   -3.2312   -1.2816   -0.7936 H   0  0  0  0  0  0  0  0  0  0  0  0
   -1.3593   -0.6196   -0.0536 C   0  0  1  0  0  0  0  0  0  0  0  0
   -0.8788   -0.7266    0.9196 H   0  0  0  0  0  0  0  0  0  0  0  0
   -0.3559   -1.0533   -1.1339 C   0  0  0  0  0  0  0  0  0  0  0  0
    0.0246   -0.1632   -1.6381 H   0  0  0  0  0  0  0  0  0  0  0  0
    0.4888   -1.5433   -0.6466 H   0  0  0  0  0  0  0  0  0  0  0  0
   -0.9041   -1.9785   -2.1777 C   0  0  0  0  0  0  0  0  0  0  0  0
   -1.4330   -3.2008   -1.9458 C   0  0  0  0  0  0  0  0  0  0  0  0
   -1.5057   -3.6667   -0.9692 H   0  0  0  0  0  0  0  0  0  0  0  0
   -1.8793   -3.7464   -3.1335 N   0  0  0  0  0  0  0  0  0  0  0  0
   -2.3081   -4.6579   -3.2014 H   0  0  0  0  0  0  0  0  0  0  0  0
   -1.6739   -2.8901   -4.1943 C   0  0  0  0  0  0  0  0  0  0  0  0
   -1.9720   -2.9705   -5.5622 C   0  0  0  0  0  0  0  0  0  0  0  0
   -2.4581   -3.8465   -5.9659 H   0  0  0  0  0  0  0  0  0  0  0  0
   -1.6278   -1.8962   -6.4003 C   0  0  0  0  0  0  0  0  0  0  0  0
   -1.8489   -1.9410   -7.4581 H   0  0  0  0  0  0  0  0  0  0  0  0
   -0.9885   -0.7643   -5.8622 C   0  0  0  0  0  0  0  0  0  0  0  0
   -0.7179    0.0563   -6.5121 H   0  0  0  0  0  0  0  0  0  0  0  0
   -0.6920   -0.6952   -4.4861 C   0  0  0  0  0  0  0  0  0  0  0  0
   -0.1887    0.1744   -4.0881 H   0  0  0  0  0  0  0  0  0  0  0  0
   -1.0303   -1.7548   -3.6168 C   0  0  0  0  0  0  0  0  0  0  0  0
   -1.7617    0.8549   -0.2106 C   0  0  0  0  0  0  0  0  0  0  0  0
   -2.5726    1.1871   -1.0741 O   0  0  0  0  0  0  0  0  0  0  0  0
   -1.1941    1.7377    0.6223 N   0  0  0  0  0  0  0  0  0  0  0  0
   -0.4976    1.3916    1.2669 H   0  0  0  0  0  0  0  0  0  0  0  0
   -1.4666    3.1722    0.6095 C   0  0  0  0  0  0  0  0  0  0  0  0
   -2.5439    3.3427    0.6539 H   0  0  0  0  0  0  0  0  0  0  0  0
   -0.9893    3.6529    1.4644 H   0  0  0  0  0  0  0  0  0  0  0  0
   -1.0808    3.6095   -0.3129 H   0  0  0  0  0  0  0  0  0  0  0  0
  5  6  2  0  0  0  0
  5  7  1  0  0  0  0
  2  3  1  0  0  0  0
  2  4  1  0  0  0  0
  2  5  1  0  0  0  0
  1  2  1  0  0  0  0
 29 30  2  0  0  0  0
 29 31  1  0  0  0  0
 26 27  1  0  0  0  0
 26 28  2  0  0  0  0
 24 25  1  0  0  0  0
 24 26  1  0  0  0  0
 22 23  1  0  0  0  0
 22 24  2  0  0  0  0
 20 21  1  0  0  0  0
 20 22  1  0  0  0  0
 19 20  2  0  0  0  0
 19 28  1  0  0  0  0
 17 18  1  0  0  0  0
 17 19  1  0  0  0  0
 15 16  1  0  0  0  0
 15 17  1  0  0  0  0
 14 15  2  0  0  0  0
 14 28  1  0  0  0  0
 11 12  1  0  0  0  0
 11 13  1  0  0  0  0
 11 14  1  0  0  0  0
  9 10  1  0  0  0  0
  9 11  1  0  0  0  0
  9 29  1  0  0  0  0
  7  8  1  0  0  0  0
  7  9  1  0  0  0  0
 33 34  1  0  0  0  0
 33 35  1  0  0  0  0
 33 36  1  0  0  0  0
 31 32  1  0  0  0  0
 31 33  1  0  0  0  0
M  END
$$$$
default_name
  -OEChem-02102213163D

 36 37  0     1  0  0  0  0  0999 V2000
   -4.0843   -4.0736    1.2944 H   0  0  0  0  0  0  0  0  0  0  0  0
   -4.0342   -3.2816    0.5484 C   0  0  0  0  0  0  0  0  0  0  0  0
   -4.8842   -2.6126    0.6694 H   0  0  0  0  0  0  0  0  0  0  0  0
   -4.0433   -3.7186   -0.4486 H   0  0  0  0  0  0  0  0  0  0  0  0
   -2.7532   -2.5046    0.7444 C   0  0  0  0  0  0  0  0  0  0  0  0
   -1.9803   -2.8096    1.6434 O   0  0  0  0  0  0  0  0  0  0  0  0
   -2.5332   -1.4966   -0.0966 N   0  0  0  0  0  0  0  0  0  0  0  0
   -3.2312   -1.2816   -0.7936 H   0  0  0  0  0  0  0  0  0  0  0  0
   -1.3593   -0.6196   -0.0536 C   0  0  1  0  0  0  0  0  0  0  0  0
   -0.8788   -0.7266    0.9196 H   0  0  0  0  0  0  0  0  0  0  0  0
   -0.3559   -1.0533   -1.1339 C   0  0  0  0  0  0  0  0  0  0  0  0
    0.0246   -0.1632   -1.6381 H   0  0  0  0  0  0  0  0  0  0  0  0
    0.4888   -1.5433   -0.6466 H   0  0  0  0  0  0  0  0  0  0  0  0
   -0.9041   -1.9785   -2.1777 C   0  0  0  0  0  0  0  0  0  0  0  0
   -1.6822   -3.0584   -1.9412 C   0  0  0  0  0  0  0  0  0  0  0  0
   -1.9878   -3.3952   -0.9566 H   0  0  0  0  0  0  0  0  0  0  0  0
   -2.0384   -3.6453   -3.1395 N   0  0  0  0  0  0  0  0  0  0  0  0
   -2.6156   -4.4710   -3.2055 H   0  0  0  0  0  0  0  0  0  0  0  0
   -1.5179   -2.9585   -4.2156 C   0  0  0  0  0  0  0  0  0  0  0  0
   -1.6156   -3.1353   -5.6033 C   0  0  0  0  0  0  0  0  0  0  0  0
   -2.1909   -3.9531   -6.0118 H   0  0  0  0  0  0  0  0  0  0  0  0
   -0.9529   -2.2347   -6.4547 C   0  0  0  0  0  0  0  0  0  0  0  0
   -1.0161   -2.3560   -7.5276 H   0  0  0  0  0  0  0  0  0  0  0  0
   -0.2011   -1.1782   -5.9090 C   0  0  0  0  0  0  0  0  0  0  0  0
    0.3139   -0.4925   -6.5675 H   0  0  0  0  0  0  0  0  0  0  0  0
   -0.1082   -1.0113   -4.5126 C   0  0  0  0  0  0  0  0  0  0  0  0
    0.4835   -0.2033   -4.1064 H   0  0  0  0  0  0  0  0  0  0  0  0
   -0.7671   -1.8951   -3.6308 C   0  0  0  0  0  0  0  0  0  0  0  0
   -1.7617    0.8549   -0.2106 C   0  0  0  0  0  0  0  0  0  0  0  0
   -2.5726    1.1871   -1.0741 O   0  0  0  0  0  0  0  0  0  0  0  0
   -1.1941    1.7377    0.6223 N   0  0  0  0  0  0  0  0  0  0  0  0
   -0.4976    1.3916    1.2669 H   0  0  0  0  0  0  0  0  0  0  0  0
   -1.4666    3.1722    0.6095 C   0  0  0  0  0  0  0  0  0  0  0  0
   -2.5439    3.3427    0.6539 H   0  0  0  0  0  0  0  0  0  0  0  0
   -0.9893    3.6529    1.4644 H   0  0  0  0  0  0  0  0  0  0  0  0
   -1.0808    3.6095   -0.3129 H   0  0  0  0  0  0  0  0  0  0  0  0
  5  6  2  0  0  0  0
  5  7  1  0  0  0  0
  2  3  1  0  0  0  0
  2  4  1  0  0  0  0
  2  5  1  0  0  0  0
  1  2  1  0  0  0  0
 29 30  2  0  0  0  0
 29 31  1  0  0  0  0
 26 27  1  0  0  0  0
 26 28  2  0  0  0  0
 24 25  1  0  0  0  0
 24 26  1  0  0  0  0
 22 23  1  0  0  0  0
 22 24  2  0  0  0  0
 20 21  1  0  0  0  0
 20 22  1  0  0  0  0
 19 20  2  0  0  0  0
 19 28  1  0  0  0  0
 17 18  1  0  0  0  0
 17 19  1  0  0  0  0
 15 16  1  0  0  0  0
 15 17  1  0  0  0  0
 14 15  2  0  0  0  0
 14 28  1  0  0  0  0
 11 12  1  0  0  0  0
 11 13  1  0  0  0  0
 11 14  1  0  0  0  0
  9 10  1  0  0  0  0
  9 11  1  0  0  0  0
  9 29  1  0  0  0  0
  7  8  1  0  0  0  0
  7  9  1  0  0  0  0
 33 34  1  0  0  0  0
 33 35  1  0  0  0  0
 33 36  1  0  0  0  0
 31 32  1  0  0  0  0
 31 33  1  0  0  0  0
M  END
$$$$
default_name
  -OEChem-02102213163D

 36 37  0     1  0  0  0  0  0999 V2000
   -4.0843   -4.0736    1.2944 H   0  0  0  0  0  0  0  0  0  0  0  0
   -4.0342   -3.2816    0.5484 C   0  0  0  0  0  0  0  0  0  0  0  0
   -4.8842   -2.6126    0.6694 H   0  0  0  0  0  0  0  0  0  0  0  0
   -4.0433   -3.7186   -0.4486 H   0  0  0  0  0  0  0  0  0  0  0  0
   -2.7532   -2.5046    0.7444 C   0  0  0  0  0  0  0  0  0  0  0  0
   -1.9803   -2.8096    1.6434 O   0  0  0  0  0  0  0  0  0  0  0  0
   -2.5332   -1.4966   -0.0966 N   0  0  0  0  0  0  0  0  0  0  0  0
   -3.2312   -1.2816   -0.7936 H   0  0  0  0  0  0  0  0  0  0  0  0
   -1.3593   -0.6196   -0.0536 C   0  0  1  0  0  0  0  0  0  0  0  0
   -0.8788   -0.7266    0.9196 H   0  0  0  0  0  0  0  0  0  0  0  0
   -0.3559   -1.0533   -1.1339 C   0  0  0  0  0  0  0  0  0  0  0  0
    0.0246   -0.1632   -1.6381 H   0  0  0  0  0  0  0  0  0  0  0  0
    0.4888   -1.5433   -0.6466 H   0  0  0  0  0  0  0  0  0  0  0  0
   -0.9041   -1.9785   -2.1777 C   0  0  0  0  0  0  0  0  0  0  0  0
   -1.8979   -2.8755   -1.9900 C   0  0  0  0  0  0  0  0  0  0  0  0
   -2.4066   -3.0448   -1.0472 H   0  0  0  0  0  0  0  0  0  0  0  0
   -2.1729   -3.5196   -3.1804 N   0  0  0  0  0  0  0  0  0  0  0  0
   -2.8783   -4.2354   -3.2764 H   0  0  0  0  0  0  0  0  0  0  0  0
   -1.3760   -3.0547   -4.2049 C   0  0  0  0  0  0  0  0  0  0  0  0
   -1.2944   -3.3626   -5.5705 C   0  0  0  0  0  0  0  0  0  0  0  0
   -1.9448   -4.1085   -6.0033 H   0  0  0  0  0  0  0  0  0  0  0  0
   -0.3534   -2.6885   -6.3674 C   0  0  0  0  0  0  0  0  0  0  0  0
   -0.2754   -2.9136   -7.4224 H   0  0  0  0  0  0  0  0  0  0  0  0
    0.4924   -1.7243   -5.7891 C   0  0  0  0  0  0  0  0  0  0  0  0
    1.2206   -1.2140   -6.4042 H   0  0  0  0  0  0  0  0  0  0  0  0
    0.4029   -1.4243   -4.4150 C   0  0  0  0  0  0  0  0  0  0  0  0
    1.0676   -0.6910   -3.9808 H   0  0  0  0  0  0  0  0  0  0  0  0
   -0.5359   -2.0794   -3.5889 C   0  0  0  0  0  0  0  0  0  0  0  0
   -1.7617    0.8549   -0.2106 C   0  0  0  0  0  0  0  0  0  0  0  0
   -2.5726    1.1871   -1.0741 O   0  0  0  0  0  0  0  0  0  0  0  0
   -1.1941    1.7377    0.6223 N   0  0  0  0  0  0  0  0  0  0  0  0
   -0.4976    1.3916    1.2669 H   0  0  0  0  0  0  0  0  0  0  0  0
   -1.4666    3.1722    0.6095 C   0  0  0  0  0  0  0  0  0  0  0  0
   -2.5439    3.3427    0.6539 H   0  0  0  0  0  0  0  0  0  0  0  0
   -0.9893    3.6529    1.4644 H   0  0  0  0  0  0  0  0  0  0  0  0
   -1.0808    3.6095   -0.3129 H   0  0  0  0  0  0  0  0  0  0  0  0
  5  6  2  0  0  0  0
  5  7  1  0  0  0  0
  2  3  1  0  0  0  0
  2  4  1  0  0  0  0
  2  5  1  0  0  0  0
  1  2  1  0  0  0  0
 29 30  2  0  0  0  0
 29 31  1  0  0  0  0
 26 27  1  0  0  0  0
 26 28  2  0  0  0  0
 24 25  1  0  0  0  0
 24 26  1  0  0  0  0
 22 23  1  0  0  0  0
 22 24  2  0  0  0  0
 20 21  1  0  0  0  0
 20 22  1  0  0  0  0
 19 20  2  0  0  0  0
 19 28  1  0  0  0  0
 17 18  1  0  0  0  0
 17 19  1  0  0  0  0
 15 16  1  0  0  0  0
 15 17  1  0  0  0  0
 14 15  2  0  0  0  0
 14 28  1  0  0  0  0
 11 12  1  0  0  0  0
 11 13  1  0  0  0  0
 11 14  1  0  0  0  0
  9 10  1  0  0  0  0
  9 11  1  0  0  0  0
  9 29  1  0  0  0  0
  7  8  1  0  0  0  0
  7  9  1  0  0  0  0
 33 34  1  0  0  0  0
 33 35  1  0  0  0  0
 33 36  1  0  0  0  0
 31 32  1  0  0  0  0
 31 33  1  0  0  0  0
M  END
$$$$
default_name
  -OEChem-02102213163D

 36 37  0     1  0  0  0  0  0999 V2000
   -4.0843   -4.0736    1.2944 H   0  0  0  0  0  0  0  0  0  0  0  0
   -4.0342   -3.2816    0.5484 C   0  0  0  0  0  0  0  0  0  0  0  0
   -4.8842   -2.6126    0.6694 H   0  0  0  0  0  0  0  0  0  0  0  0
   -4.0433   -3.7186   -0.4486 H   0  0  0  0  0  0  0  0  0  0  0  0
   -2.7532   -2.5046    0.7444 C   0  0  0  0  0  0  0  0  0  0  0  0
   -1.9803   -2.8096    1.6434 O   0  0  0  0  0  0  0  0  0  0  0  0
   -2.5332   -1.4966   -0.0966 N   0  0  0  0  0  0  0  0  0  0  0  0
   -3.2312   -1.2816   -0.7936 H   0  0  0  0  0  0  0  0  0  0  0  0
   -1.3593   -0.6196   -0.0536 C   0  0  1  0  0  0  0  0  0  0  0  0
   -0.8788   -0.7266    0.9196 H   0  0  0  0  0  0  0  0  0  0  0  0
   -0.3559   -1.0533   -1.1339 C   0  0  0  0  0  0  0  0  0  0  0  0
    0.0246   -0.1632   -1.6381 H   0  0  0  0  0  0  0  0  0  0  0  0
    0.4888   -1.5433   -0.6466 H   0  0  0  0  0  0  0  0  0  0  0  0
   -0.9041   -1.9785   -2.1777 C   0  0  0  0  0  0  0  0  0  0  0  0
   -2.0656   -2.6646   -2.0889 C   0  0  0  0  0  0  0  0  0  0  0  0
   -2.7335   -2.6394   -1.2349 H   0  0  0  0  0  0  0  0  0  0  0  0
   -2.2736   -3.3778   -3.2532 N   0  0  0  0  0  0  0  0  0  0  0  0
   -3.0782   -3.9673   -3.4091 H   0  0  0  0  0  0  0  0  0  0  0  0
   -1.2581   -3.1722   -4.1627 C   0  0  0  0  0  0  0  0  0  0  0  0
   -1.0304   -3.6370   -5.4659 C   0  0  0  0  0  0  0  0  0  0  0  0
   -1.7364   -4.3022   -5.9410 H   0  0  0  0  0  0  0  0  0  0  0  0
    0.1300   -3.2266   -6.1443 C   0  0  0  0  0  0  0  0  0  0  0  0
    0.3228   -3.5757   -7.1497 H   0  0  0  0  0  0  0  0  0  0  0  0
    1.0446   -2.3654   -5.5109 C   0  0  0  0  0  0  0  0  0  0  0  0
    1.9402   -2.0588   -6.0333 H   0  0  0  0  0  0  0  0  0  0  0  0
    0.8065   -1.9061   -4.1999 C   0  0  0  0  0  0  0  0  0  0  0  0
    1.5239   -1.2556   -3.7201 H   0  0  0  0  0  0  0  0  0  0  0  0
   -0.3525   -2.2950   -3.4940 C   0  0  0  0  0  0  0  0  0  0  0  0
   -1.7617    0.8549   -0.2106 C   0  0  0  0  0  0  0  0  0  0  0  0
   -2.5726    1.1871   -1.0741 O   0  0  0  0  0  0  0  0  0  0  0  0
   -1.1941    1.7377    0.6223 N   0  0  0  0  0  0  0  0  0  0  0  0
   -0.4976    1.3916    1.2669 H   0  0  0  0  0  0  0  0  0  0  0  0
   -1.4666    3.1722    0.6095 C   0  0  0  0  0  0  0  0  0  0  0  0
   -2.5439    3.3427    0.6539 H   0  0  0  0  0  0  0  0  0  0  0  0
   -0.9893    3.6529    1.4644 H   0  0  0  0  0  0  0  0  0  0  0  0
   -1.0808    3.6095   -0.3129 H   0  0  0  0  0  0  0  0  0  0  0  0
  5  6  2  0  0  0  0
  5  7  1  0  0  0  0
  2  3  1  0  0  0  0
  2  4  1  0  0  0  0
  2  5  1  0  0  0  0
  1  2  1  0  0  0  0
 29 30  2  0  0  0  0
 29 31  1  0  0  0  0
 26 27  1  0  0  0  0
 26 28  2  0  0  0  0
 24 25  1  0  0  0  0
 24 26  1  0  0  0  0
 22 23  1  0  0  0  0
 22 24  2  0  0  0  0
 20 21  1  0  0  0  0
 20 22  1  0  0  0  0
 19 20  2  0  0  0  0
 19 28  1  0  0  0  0
 17 18  1  0  0  0  0
 17 19  1  0  0  0  0
 15 16  1  0  0  0  0
 15 17  1  0  0  0  0
 14 15  2  0  0  0  0
 14 28  1  0  0  0  0
 11 12  1  0  0  0  0
 11 13  1  0  0  0  0
 11 14  1  0  0  0  0
  9 10  1  0  0  0  0
  9 11  1  0  0  0  0
  9 29  1  0  0  0  0
  7  8  1  0  0  0  0
  7  9  1  0  0  0  0
 33 34  1  0  0  0  0
 33 35  1  0  0  0  0
 33 36  1  0  0  0  0
 31 32  1  0  0  0  0
 31 33  1  0  0  0  0
M  END
$$$$
default_name
  -OEChem-02102213163D

 36 37  0     1  0  0  0  0  0999 V2000
   -4.0843   -4.0736    1.2944 H   0  0  0  0  0  0  0  0  0  0  0  0
   -4.0342   -3.2816    0.5484 C   0  0  0  0  0  0  0  0  0  0  0  0
   -4.8842   -2.6126    0.6694 H   0  0  0  0  0  0  0  0  0  0  0  0
   -4.0433   -3.7186   -0.4486 H   0  0  0  0  0  0  0  0  0  0  0  0
   -2.7532   -2.5046    0.7444 C   0  0  0  0  0  0  0  0  0  0  0  0
   -1.9803   -2.8096    1.6434 O   0  0  0  0  0  0  0  0  0  0  0  0
   -2.5332   -1.4966   -0.0966 N   0  0  0  0  0  0  0  0  0  0  0  0
   -3.2312   -1.2816   -0.7936 H   0  0  0  0  0  0  0  0  0  0  0  0
   -1.3593   -0.6196   -0.0536 C   0  0  1  0  0  0  0  0  0  0  0  0
   -0.8788   -0.7266    0.9196 H   0  0  0  0  0  0  0  0  0  0  0  0
   -0.3559   -1.0533   -1.1339 C   0  0  0  0  0  0  0  0  0  0  0  0
    0.0246   -0.1632   -1.6381 H   0  0  0  0  0  0  0  0  0  0  0  0
    0.4888   -1.5433   -0.6466 H   0  0  0  0  0  0  0  0  0  0  0  0
   -0.9041   -1.9785   -2.1777 C   0  0  0  0  0  0  0  0  0  0  0  0
   -2.1737   -2.4400   -2.2312 C   0  0  0  0  0  0  0  0  0  0  0  0
   -2.9462   -2.2067   -1.5067 H   0  0  0  0  0  0  0  0  0  0  0  0
   -2.3337   -3.2295   -3.3531 N   0  0  0  0  0  0  0  0  0  0  0  0
   -3.2018   -3.6847   -3.5946 H   0  0  0  0  0  0  0  0  0  0  0  0
   -1.1721   -3.3029   -4.0920 C   0  0  0  0  0  0  0  0  0  0  0  0
   -0.8416   -3.9397   -5.2968 C   0  0  0  0  0  0  0  0  0  0  0  0
   -1.5799   -4.5210   -5.8292 H   0  0  0  0  0  0  0  0  0  0  0  0
    0.4642   -3.8123   -5.8006 C   0  0  0  0  0  0  0  0  0  0  0  0
    0.7376   -4.2973   -6.7280 H   0  0  0  0  0  0  0  0  0  0  0  0
    1.4180   -3.0580   -5.0931 C   0  0  0  0  0  0  0  0  0  0  0  0
    2.4237   -2.9695   -5.4801 H   0  0  0  0  0  0  0  0  0  0  0  0
    1.0752   -2.4239   -3.8821 C   0  0  0  0  0  0  0  0  0  0  0  0
    1.8211   -1.8584   -3.3418 H   0  0  0  0  0  0  0  0  0  0  0  0
   -0.2294   -2.5274   -3.3527 C   0  0  0  0  0  0  0  0  0  0  0  0
   -1.7617    0.8549   -0.2106 C   0  0  0  0  0  0  0  0  0  0  0  0
   -2.5726    1.1871   -1.0741 O   0  0  0  0  0  0  0  0  0  0  0  0
   -1.1941    1.7377    0.6223 N   0  0  0  0  0  0  0  0  0  0  0  0
   -0.4976    1.3916    1.2669 H   0  0  0  0  0  0  0  0  0  0  0  0
   -1.4666    3.1722    0.6095 C   0  0  0  0  0  0  0  0  0  0  0  0
   -2.5439    3.3427    0.6539 H   0  0  0  0  0  0  0  0  0  0  0  0
   -0.9893    3.6529    1.4644 H   0  0  0  0  0  0  0  0  0  0  0  0
   -1.0808    3.6095   -0.3129 H   0  0  0  0  0  0  0  0  0  0  0  0
  5  6  2  0  0  0  0
  5  7  1  0  0  0  0
  2  3  1  0  0  0  0
  2  4  1  0  0  0  0
  2  5  1  0  0  0  0
  1  2  1  0  0  0  0
 29 30  2  0  0  0  0
 29 31  1  0  0  0  0
 26 27  1  0  0  0  0
 26 28  2  0  0  0  0
 24 25  1  0  0  0  0
 24 26  1  0  0  0  0
 22 23  1  0  0  0  0
 22 24  2  0  0  0  0
 20 21  1  0  0  0  0
 20 22  1  0  0  0  0
 19 20  2  0  0  0  0
 19 28  1  0  0  0  0
 17 18  1  0  0  0  0
 17 19  1  0  0  0  0
 15 16  1  0  0  0  0
 15 17  1  0  0  0  0
 14 15  2  0  0  0  0
 14 28  1  0  0  0  0
 11 12  1  0  0  0  0
 11 13  1  0  0  0  0
 11 14  1  0  0  0  0
  9 10  1  0  0  0  0
  9 11  1  0  0  0  0
  9 29  1  0  0  0  0
  7  8  1  0  0  0  0
  7  9  1  0  0  0  0
 33 34  1  0  0  0  0
 33 35  1  0  0  0  0
 33 36  1  0  0  0  0
 31 32  1  0  0  0  0
 31 33  1  0  0  0  0
M  END
$$$$
default_name
  -OEChem-02102213163D

 36 37  0     1  0  0  0  0  0999 V2000
   -4.0843   -4.0736    1.2944 H   0  0  0  0  0  0  0  0  0  0  0  0
   -4.0342   -3.2816    0.5484 C   0  0  0  0  0  0  0  0  0  0  0  0
   -4.8842   -2.6126    0.6694 H   0  0  0  0  0  0  0  0  0  0  0  0
   -4.0433   -3.7186   -0.4486 H   0  0  0  0  0  0  0  0  0  0  0  0
   -2.7532   -2.5046    0.7444 C   0  0  0  0  0  0  0  0  0  0  0  0
   -1.9803   -2.8096    1.6434 O   0  0  0  0  0  0  0  0  0  0  0  0
   -2.5332   -1.4966   -0.0966 N   0  0  0  0  0  0  0  0  0  0  0  0
   -3.2312   -1.2816   -0.7936 H   0  0  0  0  0  0  0  0  0  0  0  0
   -1.3593   -0.6196   -0.0536 C   0  0  1  0  0  0  0  0  0  0  0  0
   -0.8788   -0.7266    0.9196 H   0  0  0  0  0  0  0  0  0  0  0  0
   -0.3559   -1.0533   -1.1339 C   0  0  0  0  0  0  0  0  0  0  0  0
    0.0246   -0.1632   -1.6381 H   0  0  0  0  0  0  0  0  0  0  0  0
    0.4888   -1.5433   -0.6466 H   0  0  0  0  0  0  0  0  0  0  0  0
   -0.9041   -1.9785   -2.1777 C   0  0  0  0  0  0  0  0  0  0  0  0
   -2.2148   -2.2170   -2.4072 C   0  0  0  0  0  0  0  0  0  0  0  0
   -3.0302   -1.7761   -1.8442 H   0  0  0  0  0  0  0  0  0  0  0  0
   -2.3490   -3.0849   -3.4732 N   0  0  0  0  0  0  0  0  0  0  0  0
   -3.2406   -3.4071   -3.8202 H   0  0  0  0  0  0  0  0  0  0  0  0
   -1.1239   -3.4380   -3.9975 C   0  0  0  0  0  0  0  0  0  0  0  0
   -0.7407   -4.2501   -5.0746 C   0  0  0  0  0  0  0  0  0  0  0  0
   -1.4861   -4.7500   -5.6756 H   0  0  0  0  0  0  0  0  0  0  0  0
    0.6265   -4.4059   -5.3598 C   0  0  0  0  0  0  0  0  0  0  0  0
    0.9408   -5.0292   -6.1860 H   0  0  0  0  0  0  0  0  0  0  0  0
    1.5871   -3.7546   -4.5644 C   0  0  0  0  0  0  0  0  0  0  0  0
    2.6382   -3.8839   -4.7823 H   0  0  0  0  0  0  0  0  0  0  0  0
    1.1906   -2.9424   -3.4831 C   0  0  0  0  0  0  0  0  0  0  0  0
    1.9392   -2.4585   -2.8719 H   0  0  0  0  0  0  0  0  0  0  0  0
   -0.1750   -2.7607   -3.1745 C   0  0  0  0  0  0  0  0  0  0  0  0
   -1.7617    0.8549   -0.2106 C   0  0  0  0  0  0  0  0  0  0  0  0
   -2.5726    1.1871   -1.0741 O   0  0  0  0  0  0  0  0  0  0  0  0
   -1.1941    1.7377    0.6223 N   0  0  0  0  0  0  0  0  0  0  0  0
   -0.4976    1.3916    1.2669 H   0  0  0  0  0  0  0  0  0  0  0  0
   -1.4666    3.1722    0.6095 C   0  0  0  0  0  0  0  0  0  0  0  0
   -2.5439    3.3427    0.6539 H   0  0  0  0  0  0  0  0  0  0  0  0
   -0.9893    3.6529    1.4644 H   0  0  0  0  0  0  0  0  0  0  0  0
   -1.0808    3.6095   -0.3129 H   0  0  0  0  0  0  0  0  0  0  0  0
  5  6  2  0  0  0  0
  5  7  1  0  0  0  0
  2  3  1  0  0  0  0
  2  4  1  0  0  0  0
  2  5  1  0  0  0  0
  1  2  1  0  0  0  0
 29 30  2  0  0  0  0
 29 31  1  0  0  0  0
 26 27  1  0  0  0  0
 26 28  2  0  0  0  0
 24 25  1  0  0  0  0
 24 26  1  0  0  0  0
 22 23  1  0  0  0  0
 22 24  2  0  0  0  0
 20 21  1  0  0  0  0
 20 22  1  0  0  0  0
 19 20  2  0  0  0  0
 19 28  1  0  0  0  0
 17 18  1  0  0  0  0
 17 19  1  0  0  0  0
 15 16  1  0  0  0  0
 15 17  1  0  0  0  0
 14 15  2  0  0  0  0
 14 28  1  0  0  0  0
 11 12  1  0  0  0  0
 11 13  1  0  0  0  0
 11 14  1  0  0  0  0
  9 10  1  0  0  0  0
  9 11  1  0  0  0  0
  9 29  1  0  0  0  0
  7  8  1  0  0  0  0
  7  9  1  0  0  0  0
 33 34  1  0  0  0  0
 33 35  1  0  0  0  0
 33 36  1  0  0  0  0
 31 32  1  0  0  0  0
 31 33  1  0  0  0  0
M  END
$$$$
default_name
  -OEChem-02102213163D

 36 37  0     1  0  0  0  0  0999 V2000
   -4.0843   -4.0736    1.2944 H   0  0  0  0  0  0  0  0  0  0  0  0
   -4.0342   -3.2816    0.5484 C   0  0  0  0  0  0  0  0  0  0  0  0
   -4.8842   -2.6126    0.6694 H   0  0  0  0  0  0  0  0  0  0  0  0
   -4.0433   -3.7186   -0.4486 H   0  0  0  0  0  0  0  0  0  0  0  0
   -2.7532   -2.5046    0.7444 C   0  0  0  0  0  0  0  0  0  0  0  0
   -1.9803   -2.8096    1.6434 O   0  0  0  0  0  0  0  0  0  0  0  0
   -2.5332   -1.4966   -0.0966 N   0  0  0  0  0  0  0  0  0  0  0  0
   -3.2312   -1.2816   -0.7936 H   0  0  0  0  0  0  0  0  0  0  0  0
   -1.3593   -0.6196   -0.0536 C   0  0  1  0  0  0  0  0  0  0  0  0
   -0.8788   -0.7266    0.9196 H   0  0  0  0  0  0  0  0  0  0  0  0
   -0.3559   -1.0533   -1.1339 C   0  0  0  0  0  0  0  0  0  0  0  0
    0.0246   -0.1632   -1.6381 H   0  0  0  0  0  0  0  0  0  0  0  0
    0.4888   -1.5433   -0.6466 H   0  0  0  0  0  0  0  0  0  0  0  0
   -0.9041   -1.9785   -2.1777 C   0  0  0  0  0  0  0  0  0  0  0  0
   -2.1863   -2.0109   -2.6049 C   0  0  0  0  0  0  0  0  0  0  0  0
   -2.9798   -1.3770   -2.2244 H   0  0  0  0  0  0  0  0  0  0  0  0
   -2.3186   -2.9538   -3.6053 N   0  0  0  0  0  0  0  0  0  0  0  0
   -3.1920   -3.1534   -4.0707 H   0  0  0  0  0  0  0  0  0  0  0  0
   -1.1167   -3.5683   -3.8858 C   0  0  0  0  0  0  0  0  0  0  0  0
   -0.7348   -4.5471   -4.8145 C   0  0  0  0  0  0  0  0  0  0  0  0
   -1.4614   -4.9735   -5.4905 H   0  0  0  0  0  0  0  0  0  0  0  0
    0.6059   -4.9667   -4.8519 C   0  0  0  0  0  0  0  0  0  0  0  0
    0.9186   -5.7214   -5.5608 H   0  0  0  0  0  0  0  0  0  0  0  0
    1.5403   -4.4080   -3.9608 C   0  0  0  0  0  0  0  0  0  0  0  0
    2.5691   -4.7397   -3.9874 H   0  0  0  0  0  0  0  0  0  0  0  0
    1.1448   -3.4262   -3.0302 C   0  0  0  0  0  0  0  0  0  0  0  0
    1.8699   -3.0150   -2.3424 H   0  0  0  0  0  0  0  0  0  0  0  0
   -0.1929   -2.9790   -2.9716 C   0  0  0  0  0  0  0  0  0  0  0  0
   -1.7617    0.8549   -0.2106 C   0  0  0  0  0  0  0  0  0  0  0  0
   -2.5726    1.1871   -1.0741 O   0  0  0  0  0  0  0  0  0  0  0  0
   -1.1941    1.7377    0.6223 N   0  0  0  0  0  0  0  0  0  0  0  0
   -0.4976    1.3916    1.2669 H   0  0  0  0  0  0  0  0  0  0  0  0
   -1.4666    3.1722    0.6095 C   0  0  0  0  0  0  0  0  0  0  0  0
   -2.5439    3.3427    0.6539 H   0  0  0  0  0  0  0  0  0  0  0  0
   -0.9893    3.6529    1.4644 H   0  0  0  0  0  0  0  0  0  0  0  0
   -1.0808    3.6095   -0.3129 H   0  0  0  0  0  0  0  0  0  0  0  0
  5  6  2  0  0  0  0
  5  7  1  0  0  0  0
  2  3  1  0  0  0  0
  2  4  1  0  0  0  0
  2  5  1  0  0  0  0
  1  2  1  0  0  0  0
 29 30  2  0  0  0  0
 29 31  1  0  0  0  0
 26 27  1  0  0  0  0
 26 28  2  0  0  0  0
 24 25  1  0  0  0  0
 24 26  1  0  0  0  0
 22 23  1  0  0  0  0
 22 24  2  0  0  0  0
 20 21  1  0  0  0  0
 20 22  1  0  0  0  0
 19 20  2  0  0  0  0
 19 28  1  0  0  0  0
 17 18  1  0  0  0  0
 17 19  1  0  0  0  0
 15 16  1  0  0  0  0
 15 17  1  0  0  0  0
 14 15  2  0  0  0  0
 14 28  1  0  0  0  0
 11 12  1  0  0  0  0
 11 13  1  0  0  0  0
 11 14  1  0  0  0  0
  9 10  1  0  0  0  0
  9 11  1  0  0  0  0
  9 29  1  0  0  0  0
  7  8  1  0  0  0  0
  7  9  1  0  0  0  0
 33 34  1  0  0  0  0
 33 35  1  0  0  0  0
 33 36  1  0  0  0  0
 31 32  1  0  0  0  0
 31 33  1  0  0  0  0
M  END
$$$$
default_name
  -OEChem-02102213163D

 36 37  0     1  0  0  0  0  0999 V2000
   -4.0843   -4.0736    1.2944 H   0  0  0  0  0  0  0  0  0  0  0  0
   -4.0342   -3.2816    0.5484 C   0  0  0  0  0  0  0  0  0  0  0  0
   -4.8842   -2.6126    0.6694 H   0  0  0  0  0  0  0  0  0  0  0  0
   -4.0433   -3.7186   -0.4486 H   0  0  0  0  0  0  0  0  0  0  0  0
   -2.7532   -2.5046    0.7444 C   0  0  0  0  0  0  0  0  0  0  0  0
   -1.9803   -2.8096    1.6434 O   0  0  0  0  0  0  0  0  0  0  0  0
   -2.5332   -1.4966   -0.0966 N   0  0  0  0  0  0  0  0  0  0  0  0
   -3.2312   -1.2816   -0.7936 H   0  0  0  0  0  0  0  0  0  0  0  0
   -1.3593   -0.6196   -0.0536 C   0  0  1  0  0  0  0  0  0  0  0  0
   -0.8788   -0.7266    0.9196 H   0  0  0  0  0  0  0  0  0  0  0  0
   -0.3559   -1.0533   -1.1339 C   0  0  0  0  0  0  0  0  0  0  0  0
    0.0246   -0.1632   -1.6381 H   0  0  0  0  0  0  0  0  0  0  0  0
    0.4888   -1.5433   -0.6466 H   0  0  0  0  0  0  0  0  0  0  0  0
   -0.9041   -1.9785   -2.1777 C   0  0  0  0  0  0  0  0  0  0  0  0
   -2.0900   -1.8356   -2.8108 C   0  0  0  0  0  0  0  0  0  0  0  0
   -2.7984   -1.0366   -2.6214 H   0  0  0  0  0  0  0  0  0  0  0  0
   -2.2445   -2.8452   -3.7405 N   0  0  0  0  0  0  0  0  0  0  0  0
   -3.0593   -2.9407   -4.3289 H   0  0  0  0  0  0  0  0  0  0  0  0
   -1.1512   -3.6848   -3.7645 C   0  0  0  0  0  0  0  0  0  0  0  0
   -0.8242   -4.8104   -4.5341 C   0  0  0  0  0  0  0  0  0  0  0  0
   -1.5073   -5.1763   -5.2866 H   0  0  0  0  0  0  0  0  0  0  0  0
    0.4038   -5.4566   -4.3115 C   0  0  0  0  0  0  0  0  0  0  0  0
    0.6725   -6.3269   -4.8948 H   0  0  0  0  0  0  0  0  0  0  0  0
    1.2809   -4.9735   -3.3233 C   0  0  0  0  0  0  0  0  0  0  0  0
    2.2210   -5.4787   -3.1496 H   0  0  0  0  0  0  0  0  0  0  0  0
    0.9410   -3.8425   -2.5542 C   0  0  0  0  0  0  0  0  0  0  0  0
    1.6181   -3.4898   -1.7892 H   0  0  0  0  0  0  0  0  0  0  0  0
   -0.2820   -3.1675   -2.7578 C   0  0  0  0  0  0  0  0  0  0  0  0
   -1.7617    0.8549   -0.2106 C   0  0  0  0  0  0  0  0  0  0  0  0
   -2.5726    1.1871   -1.0741 O   0  0  0  0  0  0  0  0  0  0  0  0
   -1.1941    1.7377    0.6223 N   0  0  0  0  0  0  0  0  0  0  0  0
   -0.4976    1.3916    1.2669 H   0  0  0  0  0  0  0  0  0  0  0  0
   -1.4666    3.1722    0.6095 C   0  0  0  0  0  0  0  0  0  0  0  0
   -2.5439    3.3427    0.6539 H   0  0  0  0  0  0  0  0  0  0  0  0
   -0.9893    3.6529    1.4644 H   0  0  0  0  0  0  0  0  0  0  0  0
   -1.0808    3.6095   -0.3129 H   0  0  0  0  0  0  0  0  0  0  0  0
  5  6  2  0  0  0  0
  5  7  1  0  0  0  0
  2  3  1  0  0  0  0
  2  4  1  0  0  0  0
  2  5  1  0  0  0  0
  1  2  1  0  0  0  0
 29 30  2  0  0  0  0
 29 31  1  0  0  0  0
 26 27  1  0  0  0  0
 26 28  2  0  0  0  0
 24 25  1  0  0  0  0
 24 26  1  0  0  0  0
 22 23  1  0  0  0  0
 22 24  2  0  0  0  0
 20 21  1  0  0  0  0
 20 22  1  0  0  0  0
 19 20  2  0  0  0  0
 19 28  1  0  0  0  0
 17 18  1  0  0  0  0
 17 19  1  0  0  0  0
 15 16  1  0  0  0  0
 15 17  1  0  0  0  0
 14 15  2  0  0  0  0
 14 28  1  0  0  0  0
 11 12  1  0  0  0  0
 11 13  1  0  0  0  0
 11 14  1  0  0  0  0
  9 10  1  0  0  0  0
  9 11  1  0  0  0  0
  9 29  1  0  0  0  0
  7  8  1  0  0  0  0
  7  9  1  0  0  0  0
 33 34  1  0  0  0  0
 33 35  1  0  0  0  0
 33 36  1  0  0  0  0
 31 32  1  0  0  0  0
 31 33  1  0  0  0  0
M  END
$$$$
default_name
  -OEChem-02102213163D

 36 37  0     1  0  0  0  0  0999 V2000
   -4.0843   -4.0736    1.2944 H   0  0  0  0  0  0  0  0  0  0  0  0
   -4.0342   -3.2816    0.5484 C   0  0  0  0  0  0  0  0  0  0  0  0
   -4.8842   -2.6126    0.6694 H   0  0  0  0  0  0  0  0  0  0  0  0
   -4.0433   -3.7186   -0.4486 H   0  0  0  0  0  0  0  0  0  0  0  0
   -2.7532   -2.5046    0.7444 C   0  0  0  0  0  0  0  0  0  0  0  0
   -1.9803   -2.8096    1.6434 O   0  0  0  0  0  0  0  0  0  0  0  0
   -2.5332   -1.4966   -0.0966 N   0  0  0  0  0  0  0  0  0  0  0  0
   -3.2312   -1.2816   -0.7936 H   0  0  0  0  0  0  0  0  0  0  0  0
   -1.3593   -0.6196   -0.0536 C   0  0  1  0  0  0  0  0  0  0  0  0
   -0.8788   -0.7266    0.9196 H   0  0  0  0  0  0  0  0  0  0  0  0
   -0.3559   -1.0533   -1.1339 C   0  0  0  0  0  0  0  0  0  0  0  0
    0.0246   -0.1632   -1.6381 H   0  0  0  0  0  0  0  0  0  0  0  0
    0.4888   -1.5433   -0.6466 H   0  0  0  0  0  0  0  0  0  0  0  0
   -0.9041   -1.9785   -2.1777 C   0  0  0  0  0  0  0  0  0  0  0  0
   -1.9325   -1.7032   -3.0109 C   0  0  0  0  0  0  0  0  0  0  0  0
   -2.4984   -0.7781   -3.0081 H   0  0  0  0  0  0  0  0  0  0  0  0
   -2.1317   -2.7665   -3.8695 N   0  0  0  0  0  0  0  0  0  0  0  0
   -2.8515   -2.7837   -4.5772 H   0  0  0  0  0  0  0  0  0  0  0  0
   -1.2248   -3.7796   -3.6417 C   0  0  0  0  0  0  0  0  0  0  0  0
   -1.0028   -5.0221   -4.2527 C   0  0  0  0  0  0  0  0  0  0  0  0
   -1.6208   -5.3447   -5.0777 H   0  0  0  0  0  0  0  0  0  0  0  0
    0.0338   -5.8422   -3.7754 C   0  0  0  0  0  0  0  0  0  0  0  0
    0.2192   -6.8043   -4.2336 H   0  0  0  0  0  0  0  0  0  0  0  0
    0.8266   -5.4127   -2.6954 C   0  0  0  0  0  0  0  0  0  0  0  0
    1.6177   -6.0504   -2.3260 H   0  0  0  0  0  0  0  0  0  0  0  0
    0.5931   -4.1627   -2.0876 C   0  0  0  0  0  0  0  0  0  0  0  0
    1.2009   -3.8507   -1.2502 H   0  0  0  0  0  0  0  0  0  0  0  0
   -0.4362   -3.3132   -2.5477 C   0  0  0  0  0  0  0  0  0  0  0  0
   -1.7617    0.8549   -0.2106 C   0  0  0  0  0  0  0  0  0  0  0  0
   -2.5726    1.1871   -1.0741 O   0  0  0  0  0  0  0  0  0  0  0  0
   -1.1941    1.7377    0.6223 N   0  0  0  0  0  0  0  0  0  0  0  0
   -0.4976    1.3916    1.2669 H   0  0  0  0  0  0  0  0  0  0  0  0
   -1.4666    3.1722    0.6095 C   0  0  0  0  0  0  0  0  0  0  0  0
   -2.5439    3.3427    0.6539 H   0  0  0  0  0  0  0  0  0  0  0  0
   -0.9893    3.6529    1.4644 H   0  0  0  0  0  0  0  0  0  0  0  0
   -1.0808    3.6095   -0.3129 H   0  0  0  0  0  0  0  0  0  0  0  0
  5  6  2  0  0  0  0
  5  7  1  0  0  0  0
  2  3  1  0  0  0  0
  2  4  1  0  0  0  0
  2  5  1  0  0  0  0
  1  2  1  0  0  0  0
 29 30  2  0  0  0  0
 29 31  1  0  0  0  0
 26 27  1  0  0  0  0
 26 28  2  0  0  0  0
 24 25  1  0  0  0  0
 24 26  1  0  0  0  0
 22 23  1  0  0  0  0
 22 24  2  0  0  0  0
 20 21  1  0  0  0  0
 20 22  1  0  0  0  0
 19 20  2  0  0  0  0
 19 28  1  0  0  0  0
 17 18  1  0  0  0  0
 17 19  1  0  0  0  0
 15 16  1  0  0  0  0
 15 17  1  0  0  0  0
 14 15  2  0  0  0  0
 14 28  1  0  0  0  0
 11 12  1  0  0  0  0
 11 13  1  0  0  0  0
 11 14  1  0  0  0  0
  9 10  1  0  0  0  0
  9 11  1  0  0  0  0
  9 29  1  0  0  0  0
  7  8  1  0  0  0  0
  7  9  1  0  0  0  0
 33 34  1  0  0  0  0
 33 35  1  0  0  0  0
 33 36  1  0  0  0  0
 31 32  1  0  0  0  0
 31 33  1  0  0  0  0
M  END
$$$$
default_name
  -OEChem-02102213163D

 36 37  0     1  0  0  0  0  0999 V2000
   -4.0843   -4.0736    1.2944 H   0  0  0  0  0  0  0  0  0  0  0  0
   -4.0342   -3.2816    0.5484 C   0  0  0  0  0  0  0  0  0  0  0  0
   -4.8842   -2.6126    0.6694 H   0  0  0  0  0  0  0  0  0  0  0  0
   -4.0433   -3.7186   -0.4486 H   0  0  0  0  0  0  0  0  0  0  0  0
   -2.7532   -2.5046    0.7444 C   0  0  0  0  0  0  0  0  0  0  0  0
   -1.9803   -2.8096    1.6434 O   0  0  0  0  0  0  0  0  0  0  0  0
   -2.5332   -1.4966   -0.0966 N   0  0  0  0  0  0  0  0  0  0  0  0
   -3.2312   -1.2816   -0.7936 H   0  0  0  0  0  0  0  0  0  0  0  0
   -1.3593   -0.6196   -0.0536 C   0  0  1  0  0  0  0  0  0  0  0  0
   -0.8788   -0.7266    0.9196 H   0  0  0  0  0  0  0  0  0  0  0  0
   -0.3559   -1.0533   -1.1339 C   0  0  0  0  0  0  0  0  0  0  0  0
    0.0246   -0.1632   -1.6381 H   0  0  0  0  0  0  0  0  0  0  0  0
    0.4888   -1.5433   -0.6466 H   0  0  0  0  0  0  0  0  0  0  0  0
   -0.9041   -1.9785   -2.1777 C   0  0  0  0  0  0  0  0  0  0  0  0
   -1.7245   -1.6226   -3.1916 C   0  0  0  0  0  0  0  0  0  0  0  0
   -2.1003   -0.6191   -3.3582 H   0  0  0  0  0  0  0  0  0  0  0  0
   -1.9879   -2.7230   -3.9836 N   0  0  0  0  0  0  0  0  0  0  0  0
   -2.5828   -2.6930   -4.7987 H   0  0  0  0  0  0  0  0  0  0  0  0
   -1.3327   -3.8464   -3.5259 C   0  0  0  0  0  0  0  0  0  0  0  0
   -1.2584   -5.1677   -3.9894 C   0  0  0  0  0  0  0  0  0  0  0  0
   -1.7942   -5.4670   -4.8782 H   0  0  0  0  0  0  0  0  0  0  0  0
   -0.4787   -6.0973   -3.2802 C   0  0  0  0  0  0  0  0  0  0  0  0
   -0.4104   -7.1211   -3.6221 H   0  0  0  0  0  0  0  0  0  0  0  0
    0.2083   -5.6955   -2.1200 C   0  0  0  0  0  0  0  0  0  0  0  0
    0.8003   -6.4160   -1.5727 H   0  0  0  0  0  0  0  0  0  0  0  0
    0.1248   -4.3652   -1.6622 C   0  0  0  0  0  0  0  0  0  0  0  0
    0.6467   -4.0731   -0.7621 H   0  0  0  0  0  0  0  0  0  0  0  0
   -0.6450   -3.4062   -2.3556 C   0  0  0  0  0  0  0  0  0  0  0  0
   -1.7617    0.8549   -0.2106 C   0  0  0  0  0  0  0  0  0  0  0  0
   -2.5726    1.1871   -1.0741 O   0  0  0  0  0  0  0  0  0  0  0  0
   -1.1941    1.7377    0.6223 N   0  0  0  0  0  0  0  0  0  0  0  0
   -0.4976    1.3916    1.2669 H   0  0  0  0  0  0  0  0  0  0  0  0
   -1.4666    3.1722    0.6095 C   0  0  0  0  0  0  0  0  0  0  0  0
   -2.5439    3.3427    0.6539 H   0  0  0  0  0  0  0  0  0  0  0  0
   -0.9893    3.6529    1.4644 H   0  0  0  0  0  0  0  0  0  0  0  0
   -1.0808    3.6095   -0.3129 H   0  0  0  0  0  0  0  0  0  0  0  0
  5  6  2  0  0  0  0
  5  7  1  0  0  0  0
  2  3  1  0  0  0  0
  2  4  1  0  0  0  0
  2  5  1  0  0  0  0
  1  2  1  0  0  0  0
 29 30  2  0  0  0  0
 29 31  1  0  0  0  0
 26 27  1  0  0  0  0
 26 28  2  0  0  0  0
 24 25  1  0  0  0  0
 24 26  1  0  0  0  0
 22 23  1  0  0  0  0
 22 24  2  0  0  0  0
 20 21  1  0  0  0  0
 20 22  1  0  0  0  0
 19 20  2  0  0  0  0
 19 28  1  0  0  0  0
 17 18  1  0  0  0  0
 17 19  1  0  0  0  0
 15 16  1  0  0  0  0
 15 17  1  0  0  0  0
 14 15  2  0  0  0  0
 14 28  1  0  0  0  0
 11 12  1  0  0  0  0
 11 13  1  0  0  0  0
 11 14  1  0  0  0  0
  9 10  1  0  0  0  0
  9 11  1  0  0  0  0
  9 29  1  0  0  0  0
  7  8  1  0  0  0  0
  7  9  1  0  0  0  0
 33 34  1  0  0  0  0
 33 35  1  0  0  0  0
 33 36  1  0  0  0  0
 31 32  1  0  0  0  0
 31 33  1  0  0  0  0
M  END
$$$$
default_name
  -OEChem-02102213163D

 36 37  0     1  0  0  0  0  0999 V2000
   -4.0843   -4.0736    1.2944 H   0  0  0  0  0  0  0  0  0  0  0  0
   -4.0342   -3.2816    0.5484 C   0  0  0  0  0  0  0  0  0  0  0  0
   -4.8842   -2.6126    0.6694 H   0  0  0  0  0  0  0  0  0  0  0  0
   -4.0433   -3.7186   -0.4486 H   0  0  0  0  0  0  0  0  0  0  0  0
   -2.7532   -2.5046    0.7444 C   0  0  0  0  0  0  0  0  0  0  0  0
   -1.9803   -2.8096    1.6434 O   0  0  0  0  0  0  0  0  0  0  0  0
   -2.5332   -1.4966   -0.0966 N   0  0  0  0  0  0  0  0  0  0  0  0
   -3.2312   -1.2816   -0.7936 H   0  0  0  0  0  0  0  0  0  0  0  0
   -1.3593   -0.6196   -0.0536 C   0  0  1  0  0  0  0  0  0  0  0  0
   -0.8788   -0.7266    0.9196 H   0  0  0  0  0  0  0  0  0  0  0  0
   -0.3559   -1.0533   -1.1339 C   0  0  0  0  0  0  0  0  0  0  0  0
    0.0246   -0.1632   -1.6381 H   0  0  0  0  0  0  0  0  0  0  0  0
    0.4888   -1.5433   -0.6466 H   0  0  0  0  0  0  0  0  0  0  0  0
   -0.9041   -1.9785   -2.1777 C   0  0  0  0  0  0  0  0  0  0  0  0
   -1.4802   -1.5994   -3.3405 C   0  0  0  0  0  0  0  0  0  0  0  0
   -1.6311   -0.5704   -3.6478 H   0  0  0  0  0  0  0  0  0  0  0  0
   -1.8230   -2.7177   -4.0749 N   0  0  0  0  0  0  0  0  0  0  0  0
   -2.2715   -2.6748   -4.9784 H   0  0  0  0  0  0  0  0  0  0  0  0
   -1.4674   -3.8804   -3.4250 C   0  0  0  0  0  0  0  0  0  0  0  0
   -1.5737   -5.2374   -3.7621 C   0  0  0  0  0  0  0  0  0  0  0  0
   -2.0156   -5.5351   -4.7016 H   0  0  0  0  0  0  0  0  0  0  0  0
   -1.0988   -6.2044   -2.8596 C   0  0  0  0  0  0  0  0  0  0  0  0
   -1.1733   -7.2558   -3.1021 H   0  0  0  0  0  0  0  0  0  0  0  0
   -0.5319   -5.8028   -1.6362 C   0  0  0  0  0  0  0  0  0  0  0  0
   -0.1755   -6.5504   -0.9411 H   0  0  0  0  0  0  0  0  0  0  0  0
   -0.4321   -4.4361   -1.3069 C   0  0  0  0  0  0  0  0  0  0  0  0
   -0.0066   -4.1418   -0.3580 H   0  0  0  0  0  0  0  0  0  0  0  0
   -0.8941   -3.4402   -2.1945 C   0  0  0  0  0  0  0  0  0  0  0  0
   -1.7617    0.8549   -0.2106 C   0  0  0  0  0  0  0  0  0  0  0  0
   -2.5726    1.1871   -1.0741 O   0  0  0  0  0  0  0  0  0  0  0  0
   -1.1941    1.7377    0.6223 N   0  0  0  0  0  0  0  0  0  0  0  0
   -0.4976    1.3916    1.2669 H   0  0  0  0  0  0  0  0  0  0  0  0
   -1.4666    3.1722    0.6095 C   0  0  0  0  0  0  0  0  0  0  0  0
   -2.5439    3.3427    0.6539 H   0  0  0  0  0  0  0  0  0  0  0  0
   -0.9893    3.6529    1.4644 H   0  0  0  0  0  0  0  0  0  0  0  0
   -1.0808    3.6095   -0.3129 H   0  0  0  0  0  0  0  0  0  0  0  0
  5  6  2  0  0  0  0
  5  7  1  0  0  0  0
  2  3  1  0  0  0  0
  2  4  1  0  0  0  0
  2  5  1  0  0  0  0
  1  2  1  0  0  0  0
 29 30  2  0  0  0  0
 29 31  1  0  0  0  0
 26 27  1  0  0  0  0
 26 28  2  0  0  0  0
 24 25  1  0  0  0  0
 24 26  1  0  0  0  0
 22 23  1  0  0  0  0
 22 24  2  0  0  0  0
 20 21  1  0  0  0  0
 20 22  1  0  0  0  0
 19 20  2  0  0  0  0
 19 28  1  0  0  0  0
 17 18  1  0  0  0  0
 17 19  1  0  0  0  0
 15 16  1  0  0  0  0
 15 17  1  0  0  0  0
 14 15  2  0  0  0  0
 14 28  1  0  0  0  0
 11 12  1  0  0  0  0
 11 13  1  0  0  0  0
 11 14  1  0  0  0  0
  9 10  1  0  0  0  0
  9 11  1  0  0  0  0
  9 29  1  0  0  0  0
  7  8  1  0  0  0  0
  7  9  1  0  0  0  0
 33 34  1  0  0  0  0
 33 35  1  0  0  0  0
 33 36  1  0  0  0  0
 31 32  1  0  0  0  0
 31 33  1  0  0  0  0
M  END
$$$$
default_name
  -OEChem-02102213163D

 36 37  0     1  0  0  0  0  0999 V2000
   -4.0843   -4.0736    1.2944 H   0  0  0  0  0  0  0  0  0  0  0  0
   -4.0342   -3.2816    0.5484 C   0  0  0  0  0  0  0  0  0  0  0  0
   -4.8842   -2.6126    0.6694 H   0  0  0  0  0  0  0  0  0  0  0  0
   -4.0433   -3.7186   -0.4486 H   0  0  0  0  0  0  0  0  0  0  0  0
   -2.7532   -2.5046    0.7444 C   0  0  0  0  0  0  0  0  0  0  0  0
   -1.9803   -2.8096    1.6434 O   0  0  0  0  0  0  0  0  0  0  0  0
   -2.5332   -1.4966   -0.0966 N   0  0  0  0  0  0  0  0  0  0  0  0
   -3.2312   -1.2816   -0.7936 H   0  0  0  0  0  0  0  0  0  0  0  0
   -1.3593   -0.6196   -0.0536 C   0  0  1  0  0  0  0  0  0  0  0  0
   -0.8788   -0.7266    0.9196 H   0  0  0  0  0  0  0  0  0  0  0  0
   -0.3559   -1.0533   -1.1339 C   0  0  0  0  0  0  0  0  0  0  0  0
    0.0246   -0.1632   -1.6381 H   0  0  0  0  0  0  0  0  0  0  0  0
    0.4888   -1.5433   -0.6466 H   0  0  0  0  0  0  0  0  0  0  0  0
   -0.9041   -1.9785   -2.1777 C   0  0  0  0  0  0  0  0  0  0  0  0
   -1.2162   -1.6351   -3.4475 C   0  0  0  0  0  0  0  0  0  0  0  0
   -1.1228   -0.6353   -3.8572 H   0  0  0  0  0  0  0  0  0  0  0  0
   -1.6482   -2.7509   -4.1373 N   0  0  0  0  0  0  0  0  0  0  0  0
   -1.9388   -2.7303   -5.1038 H   0  0  0  0  0  0  0  0  0  0  0  0
   -1.6198   -3.8794   -3.3458 C   0  0  0  0  0  0  0  0  0  0  0  0
   -1.9271   -5.2263   -3.5863 C   0  0  0  0  0  0  0  0  0  0  0  0
   -2.2699   -5.5442   -4.5600 H   0  0  0  0  0  0  0  0  0  0  0  0
   -1.7843   -6.1562   -2.5422 C   0  0  0  0  0  0  0  0  0  0  0  0
   -2.0176   -7.1991   -2.7089 H   0  0  0  0  0  0  0  0  0  0  0  0
   -1.3436   -5.7272   -1.2769 C   0  0  0  0  0  0  0  0  0  0  0  0
   -1.2431   -6.4445   -0.4742 H   0  0  0  0  0  0  0  0  0  0  0  0
   -1.0395   -4.3705   -1.0460 C   0  0  0  0  0  0  0  0  0  0  0  0
   -0.7147   -4.0521   -0.0657 H   0  0  0  0  0  0  0  0  0  0  0  0
   -1.1666   -3.4130   -2.0756 C   0  0  0  0  0  0  0  0  0  0  0  0
   -1.7617    0.8549   -0.2106 C   0  0  0  0  0  0  0  0  0  0  0  0
   -2.5726    1.1871   -1.0741 O   0  0  0  0  0  0  0  0  0  0  0  0
   -1.1941    1.7377    0.6223 N   0  0  0  0  0  0  0  0  0  0  0  0
   -0.4976    1.3916    1.2669 H   0  0  0  0  0  0  0  0  0  0  0  0
   -1.4666    3.1722    0.6095 C   0  0  0  0  0  0  0  0  0  0  0  0
   -2.5439    3.3427    0.6539 H   0  0  0  0  0  0  0  0  0  0  0  0
   -0.9893    3.6529    1.4644 H   0  0  0  0  0  0  0  0  0  0  0  0
   -1.0808    3.6095   -0.3129 H   0  0  0  0  0  0  0  0  0  0  0  0
  5  6  2  0  0  0  0
  5  7  1  0  0  0  0
  2  3  1  0  0  0  0
  2  4  1  0  0  0  0
  2  5  1  0  0  0  0
  1  2  1  0  0  0  0
 29 30  2  0  0  0  0
 29 31  1  0  0  0  0
 26 27  1  0  0  0  0
 26 28  2  0  0  0  0
 24 25  1  0  0  0  0
 24 26  1  0  0  0  0
 22 23  1  0  0  0  0
 22 24  2  0  0  0  0
 20 21  1  0  0  0  0
 20 22  1  0  0  0  0
 19 20  2  0  0  0  0
 19 28  1  0  0  0  0
 17 18  1  0  0  0  0
 17 19  1  0  0  0  0
 15 16  1  0  0  0  0
 15 17  1  0  0  0  0
 14 15  2  0  0  0  0
 14 28  1  0  0  0  0
 11 12  1  0  0  0  0
 11 13  1  0  0  0  0
 11 14  1  0  0  0  0
  9 10  1  0  0  0  0
  9 11  1  0  0  0  0
  9 29  1  0  0  0  0
  7  8  1  0  0  0  0
  7  9  1  0  0  0  0
 33 34  1  0  0  0  0
 33 35  1  0  0  0  0
 33 36  1  0  0  0  0
 31 32  1  0  0  0  0
 31 33  1  0  0  0  0
M  END
$$$$
default_name
  -OEChem-02102213163D

 36 37  0     1  0  0  0  0  0999 V2000
   -4.0843   -4.0736    1.2944 H   0  0  0  0  0  0  0  0  0  0  0  0
   -4.0342   -3.2816    0.5484 C   0  0  0  0  0  0  0  0  0  0  0  0
   -4.8842   -2.6126    0.6694 H   0  0  0  0  0  0  0  0  0  0  0  0
   -4.0433   -3.7186   -0.4486 H   0  0  0  0  0  0  0  0  0  0  0  0
   -2.7532   -2.5046    0.7444 C   0  0  0  0  0  0  0  0  0  0  0  0
   -1.9803   -2.8096    1.6434 O   0  0  0  0  0  0  0  0  0  0  0  0
   -2.5332   -1.4966   -0.0966 N   0  0  0  0  0  0  0  0  0  0  0  0
   -3.2312   -1.2816   -0.7936 H   0  0  0  0  0  0  0  0  0  0  0  0
   -1.3593   -0.6196   -0.0536 C   0  0  1  0  0  0  0  0  0  0  0  0
   -0.8788   -0.7266    0.9196 H   0  0  0  0  0  0  0  0  0  0  0  0
   -0.3559   -1.0533   -1.1339 C   0  0  0  0  0  0  0  0  0  0  0  0
    0.0246   -0.1632   -1.6381 H   0  0  0  0  0  0  0  0  0  0  0  0
    0.4888   -1.5433   -0.6466 H   0  0  0  0  0  0  0  0  0  0  0  0
   -0.9041   -1.9785   -2.1777 C   0  0  0  0  0  0  0  0  0  0  0  0
   -0.9506   -1.7273   -3.5052 C   0  0  0  0  0  0  0  0  0  0  0  0
   -0.6102   -0.8095   -3.9720 H   0  0  0  0  0  0  0  0  0  0  0  0
   -1.4753   -2.8205   -4.1664 N   0  0  0  0  0  0  0  0  0  0  0  0
   -1.6075   -2.8558   -5.1667 H   0  0  0  0  0  0  0  0  0  0  0  0
   -1.7795   -3.8435   -3.2938 C   0  0  0  0  0  0  0  0  0  0  0  0
   -2.2945   -5.1353   -3.4740 C   0  0  0  0  0  0  0  0  0  0  0  0
   -2.5398   -5.4937   -4.4629 H   0  0  0  0  0  0  0  0  0  0  0  0
   -2.4885   -5.9560   -2.3498 C   0  0  0  0  0  0  0  0  0  0  0  0
   -2.8857   -6.9549   -2.4694 H   0  0  0  0  0  0  0  0  0  0  0  0
   -2.1713   -5.4738   -1.0668 C   0  0  0  0  0  0  0  0  0  0  0  0
   -2.3299   -6.1056   -0.2038 H   0  0  0  0  0  0  0  0  0  0  0  0
   -1.6561   -4.1730   -0.8973 C   0  0  0  0  0  0  0  0  0  0  0  0
   -1.4291   -3.8102    0.0951 H   0  0  0  0  0  0  0  0  0  0  0  0
   -1.4439   -3.3263   -2.0068 C   0  0  0  0  0  0  0  0  0  0  0  0
   -1.7617    0.8549   -0.2106 C   0  0  0  0  0  0  0  0  0  0  0  0
   -2.5726    1.1871   -1.0741 O   0  0  0  0  0  0  0  0  0  0  0  0
   -1.1941    1.7377    0.6223 N   0  0  0  0  0  0  0  0  0  0  0  0
   -0.4976    1.3916    1.2669 H   0  0  0  0  0  0  0  0  0  0  0  0
   -1.4666    3.1722    0.6095 C   0  0  0  0  0  0  0  0  0  0  0  0
   -2.5439    3.3427    0.6539 H   0  0  0  0  0  0  0  0  0  0  0  0
   -0.9893    3.6529    1.4644 H   0  0  0  0  0  0  0  0  0  0  0  0
   -1.0808    3.6095   -0.3129 H   0  0  0  0  0  0  0  0  0  0  0  0
  5  6  2  0  0  0  0
  5  7  1  0  0  0  0
  2  3  1  0  0  0  0
  2  4  1  0  0  0  0
  2  5  1  0  0  0  0
  1  2  1  0  0  0  0
 29 30  2  0  0  0  0
 29 31  1  0  0  0  0
 26 27  1  0  0  0  0
 26 28  2  0  0  0  0
 24 25  1  0  0  0  0
 24 26  1  0  0  0  0
 22 23  1  0  0  0  0
 22 24  2  0  0  0  0
 20 21  1  0  0  0  0
 20 22  1  0  0  0  0
 19 20  2  0  0  0  0
 19 28  1  0  0  0  0
 17 18  1  0  0  0  0
 17 19  1  0  0  0  0
 15 16  1  0  0  0  0
 15 17  1  0  0  0  0
 14 15  2  0  0  0  0
 14 28  1  0  0  0  0
 11 12  1  0  0  0  0
 11 13  1  0  0  0  0
 11 14  1  0  0  0  0
  9 10  1  0  0  0  0
  9 11  1  0  0  0  0
  9 29  1  0  0  0  0
  7  8  1  0  0  0  0
  7  9  1  0  0  0  0
 33 34  1  0  0  0  0
 33 35  1  0  0  0  0
 33 36  1  0  0  0  0
 31 32  1  0  0  0  0
 31 33  1  0  0  0  0
M  END
$$$$
default_name
  -OEChem-02102213163D

 36 37  0     1  0  0  0  0  0999 V2000
   -4.0843   -4.0736    1.2944 H   0  0  0  0  0  0  0  0  0  0  0  0
   -4.0342   -3.2816    0.5484 C   0  0  0  0  0  0  0  0  0  0  0  0
   -4.8842   -2.6126    0.6694 H   0  0  0  0  0  0  0  0  0  0  0  0
   -4.0433   -3.7186   -0.4486 H   0  0  0  0  0  0  0  0  0  0  0  0
   -2.7532   -2.5046    0.7444 C   0  0  0  0  0  0  0  0  0  0  0  0
   -1.9803   -2.8096    1.6434 O   0  0  0  0  0  0  0  0  0  0  0  0
   -2.5332   -1.4966   -0.0966 N   0  0  0  0  0  0  0  0  0  0  0  0
   -3.2312   -1.2816   -0.7936 H   0  0  0  0  0  0  0  0  0  0  0  0
   -1.3593   -0.6196   -0.0536 C   0  0  1  0  0  0  0  0  0  0  0  0
   -0.8788   -0.7266    0.9196 H   0  0  0  0  0  0  0  0  0  0  0  0
   -0.3559   -1.0533   -1.1339 C   0  0  0  0  0  0  0  0  0  0  0  0
    0.0246   -0.1632   -1.6381 H   0  0  0  0  0  0  0  0  0  0  0  0
    0.4888   -1.5433   -0.6466 H   0  0  0  0  0  0  0  0  0  0  0  0
   -0.9041   -1.9785   -2.1777 C   0  0  0  0  0  0  0  0  0  0  0  0
   -0.7014   -1.8697   -3.5099 C   0  0  0  0  0  0  0  0  0  0  0  0
   -0.1280   -1.0810   -3.9846 H   0  0  0  0  0  0  0  0  0  0  0  0
   -1.3162   -2.9215   -4.1604 N   0  0  0  0  0  0  0  0  0  0  0  0
   -1.3000   -3.0427   -5.1625 H   0  0  0  0  0  0  0  0  0  0  0  0
   -1.9356   -3.7751   -3.2724 C   0  0  0  0  0  0  0  0  0  0  0  0
   -2.6509   -4.9705   -3.4329 C   0  0  0  0  0  0  0  0  0  0  0  0
   -2.8070   -5.3872   -4.4171 H   0  0  0  0  0  0  0  0  0  0  0  0
   -3.1633   -5.6175   -2.2954 C   0  0  0  0  0  0  0  0  0  0  0  0
   -3.7185   -6.5399   -2.3999 H   0  0  0  0  0  0  0  0  0  0  0  0
   -2.9587   -5.0599   -1.0200 C   0  0  0  0  0  0  0  0  0  0  0  0
   -3.3618   -5.5567   -0.1484 H   0  0  0  0  0  0  0  0  0  0  0  0
   -2.2398   -3.8569   -0.8708 C   0  0  0  0  0  0  0  0  0  0  0  0
   -2.1013   -3.4325    0.1134 H   0  0  0  0  0  0  0  0  0  0  0  0
   -1.7071   -3.1860   -1.9929 C   0  0  0  0  0  0  0  0  0  0  0  0
   -1.7617    0.8549   -0.2106 C   0  0  0  0  0  0  0  0  0  0  0  0
   -2.5726    1.1871   -1.0741 O   0  0  0  0  0  0  0  0  0  0  0  0
   -1.1941    1.7377    0.6223 N   0  0  0  0  0  0  0  0  0  0  0  0
   -0.4976    1.3916    1.2669 H   0  0  0  0  0  0  0  0  0  0  0  0
   -1.4666    3.1722    0.6095 C   0  0  0  0  0  0  0  0  0  0  0  0
   -2.5439    3.3427    0.6539 H   0  0  0  0  0  0  0  0  0  0  0  0
   -0.9893    3.6529    1.4644 H   0  0  0  0  0  0  0  0  0  0  0  0
   -1.0808    3.6095   -0.3129 H   0  0  0  0  0  0  0  0  0  0  0  0
  5  6  2  0  0  0  0
  5  7  1  0  0  0  0
  2  3  1  0  0  0  0
  2  4  1  0  0  0  0
  2  5  1  0  0  0  0
  1  2  1  0  0  0  0
 29 30  2  0  0  0  0
 29 31  1  0  0  0  0
 26 27  1  0  0  0  0
 26 28  2  0  0  0  0
 24 25  1  0  0  0  0
 24 26  1  0  0  0  0
 22 23  1  0  0  0  0
 22 24  2  0  0  0  0
 20 21  1  0  0  0  0
 20 22  1  0  0  0  0
 19 20  2  0  0  0  0
 19 28  1  0  0  0  0
 17 18  1  0  0  0  0
 17 19  1  0  0  0  0
 15 16  1  0  0  0  0
 15 17  1  0  0  0  0
 14 15  2  0  0  0  0
 14 28  1  0  0  0  0
 11 12  1  0  0  0  0
 11 13  1  0  0  0  0
 11 14  1  0  0  0  0
  9 10  1  0  0  0  0
  9 11  1  0  0  0  0
  9 29  1  0  0  0  0
  7  8  1  0  0  0  0
  7  9  1  0  0  0  0
 33 34  1  0  0  0  0
 33 35  1  0  0  0  0
 33 36  1  0  0  0  0
 31 32  1  0  0  0  0
 31 33  1  0  0  0  0
M  END
$$$$
default_name
  -OEChem-02102213163D

 36 37  0     1  0  0  0  0  0999 V2000
   -4.0843   -4.0736    1.2944 H   0  0  0  0  0  0  0  0  0  0  0  0
   -4.0342   -3.2816    0.5484 C   0  0  0  0  0  0  0  0  0  0  0  0
   -4.8842   -2.6126    0.6694 H   0  0  0  0  0  0  0  0  0  0  0  0
   -4.0433   -3.7186   -0.4486 H   0  0  0  0  0  0  0  0  0  0  0  0
   -2.7532   -2.5046    0.7444 C   0  0  0  0  0  0  0  0  0  0  0  0
   -1.9803   -2.8096    1.6434 O   0  0  0  0  0  0  0  0  0  0  0  0
   -2.5332   -1.4966   -0.0966 N   0  0  0  0  0  0  0  0  0  0  0  0
   -3.2312   -1.2816   -0.7936 H   0  0  0  0  0  0  0  0  0  0  0  0
   -1.3593   -0.6196   -0.0536 C   0  0  1  0  0  0  0  0  0  0  0  0
   -0.8788   -0.7266    0.9196 H   0  0  0  0  0  0  0  0  0  0  0  0
   -0.3559   -1.0533   -1.1339 C   0  0  0  0  0  0  0  0  0  0  0  0
    0.0246   -0.1632   -1.6381 H   0  0  0  0  0  0  0  0  0  0  0  0
    0.4888   -1.5433   -0.6466 H   0  0  0  0  0  0  0  0  0  0  0  0
   -0.9041   -1.9785   -2.1777 C   0  0  0  0  0  0  0  0  0  0  0  0
   -0.4857   -2.0526   -3.4611 C   0  0  0  0  0  0  0  0  0  0  0  0
    0.2908   -1.4314   -3.8940 H   0  0  0  0  0  0  0  0  0  0  0  0
   -1.1817   -3.0473   -4.1196 N   0  0  0  0  0  0  0  0  0  0  0  0
   -1.0373   -3.2782   -5.0917 H   0  0  0  0  0  0  0  0  0  0  0  0
   -2.0774   -3.6789   -3.2832 C   0  0  0  0  0  0  0  0  0  0  0  0
   -2.9721   -4.7432   -3.4657 C   0  0  0  0  0  0  0  0  0  0  0  0
   -3.0531   -5.2317   -4.4256 H   0  0  0  0  0  0  0  0  0  0  0  0
   -3.7629   -5.1638   -2.3827 C   0  0  0  0  0  0  0  0  0  0  0  0
   -4.4592   -5.9823   -2.5051 H   0  0  0  0  0  0  0  0  0  0  0  0
   -3.6522   -4.5138   -1.1399 C   0  0  0  0  0  0  0  0  0  0  0  0
   -4.2685   -4.8353   -0.3117 H   0  0  0  0  0  0  0  0  0  0  0  0
   -2.7509   -3.4439   -0.9685 C   0  0  0  0  0  0  0  0  0  0  0  0
   -2.6855   -2.9447   -0.0122 H   0  0  0  0  0  0  0  0  0  0  0  0
   -1.9383   -3.0018   -2.0348 C   0  0  0  0  0  0  0  0  0  0  0  0
   -1.7617    0.8549   -0.2106 C   0  0  0  0  0  0  0  0  0  0  0  0
   -2.5726    1.1871   -1.0741 O   0  0  0  0  0  0  0  0  0  0  0  0
   -1.1941    1.7377    0.6223 N   0  0  0  0  0  0  0  0  0  0  0  0
   -0.4976    1.3916    1.2669 H   0  0  0  0  0  0  0  0  0  0  0  0
   -1.4666    3.1722    0.6095 C   0  0  0  0  0  0  0  0  0  0  0  0
   -2.5439    3.3427    0.6539 H   0  0  0  0  0  0  0  0  0  0  0  0
   -0.9893    3.6529    1.4644 H   0  0  0  0  0  0  0  0  0  0  0  0
   -1.0808    3.6095   -0.3129 H   0  0  0  0  0  0  0  0  0  0  0  0
  5  6  2  0  0  0  0
  5  7  1  0  0  0  0
  2  3  1  0  0  0  0
  2  4  1  0  0  0  0
  2  5  1  0  0  0  0
  1  2  1  0  0  0  0
 29 30  2  0  0  0  0
 29 31  1  0  0  0  0
 26 27  1  0  0  0  0
 26 28  2  0  0  0  0
 24 25  1  0  0  0  0
 24 26  1  0  0  0  0
 22 23  1  0  0  0  0
 22 24  2  0  0  0  0
 20 21  1  0  0  0  0
 20 22  1  0  0  0  0
 19 20  2  0  0  0  0
 19 28  1  0  0  0  0
 17 18  1  0  0  0  0
 17 19  1  0  0  0  0
 15 16  1  0  0  0  0
 15 17  1  0  0  0  0
 14 15  2  0  0  0  0
 14 28  1  0  0  0  0
 11 12  1  0  0  0  0
 11 13  1  0  0  0  0
 11 14  1  0  0  0  0
  9 10  1  0  0  0  0
  9 11  1  0  0  0  0
  9 29  1  0  0  0  0
  7  8  1  0  0  0  0
  7  9  1  0  0  0  0
 33 34  1  0  0  0  0
 33 35  1  0  0  0  0
 33 36  1  0  0  0  0
 31 32  1  0  0  0  0
 31 33  1  0  0  0  0
M  END
$$$$
default_name
  -OEChem-02102213163D

 36 37  0     1  0  0  0  0  0999 V2000
   -4.0843   -4.0736    1.2944 H   0  0  0  0  0  0  0  0  0  0  0  0
   -4.0342   -3.2816    0.5484 C   0  0  0  0  0  0  0  0  0  0  0  0
   -4.8842   -2.6126    0.6694 H   0  0  0  0  0  0  0  0  0  0  0  0
   -4.0433   -3.7186   -0.4486 H   0  0  0  0  0  0  0  0  0  0  0  0
   -2.7532   -2.5046    0.7444 C   0  0  0  0  0  0  0  0  0  0  0  0
   -1.9803   -2.8096    1.6434 O   0  0  0  0  0  0  0  0  0  0  0  0
   -2.5332   -1.4966   -0.0966 N   0  0  0  0  0  0  0  0  0  0  0  0
   -3.2312   -1.2816   -0.7936 H   0  0  0  0  0  0  0  0  0  0  0  0
   -1.3593   -0.6196   -0.0536 C   0  0  1  0  0  0  0  0  0  0  0  0
   -0.8788   -0.7266    0.9196 H   0  0  0  0  0  0  0  0  0  0  0  0
   -0.3559   -1.0533   -1.1339 C   0  0  0  0  0  0  0  0  0  0  0  0
    0.0246   -0.1632   -1.6381 H   0  0  0  0  0  0  0  0  0  0  0  0
    0.4888   -1.5433   -0.6466 H   0  0  0  0  0  0  0  0  0  0  0  0
   -0.9041   -1.9785   -2.1777 C   0  0  0  0  0  0  0  0  0  0  0  0
   -0.3180   -2.2636   -3.3622 C   0  0  0  0  0  0  0  0  0  0  0  0
    0.6177   -1.8368   -3.7063 H   0  0  0  0  0  0  0  0  0  0  0  0
   -1.0810   -3.1891   -4.0467 N   0  0  0  0  0  0  0  0  0  0  0  0
   -0.8374   -3.5464   -4.9590 H   0  0  0  0  0  0  0  0  0  0  0  0
   -2.1954   -3.5615   -3.3254 C   0  0  0  0  0  0  0  0  0  0  0  0
   -3.2361   -4.4688   -3.5702 C   0  0  0  0  0  0  0  0  0  0  0  0
   -3.2615   -5.0380   -4.4878 H   0  0  0  0  0  0  0  0  0  0  0  0
   -4.2462   -4.6257   -2.6058 C   0  0  0  0  0  0  0  0  0  0  0  0
   -5.0574   -5.3202   -2.7779 H   0  0  0  0  0  0  0  0  0  0  0  0
   -4.2044   -3.8727   -1.4181 C   0  0  0  0  0  0  0  0  0  0  0  0
   -4.9881   -3.9904   -0.6826 H   0  0  0  0  0  0  0  0  0  0  0  0
   -3.1546   -2.9621   -1.1835 C   0  0  0  0  0  0  0  0  0  0  0  0
   -3.1417   -2.3802   -0.2729 H   0  0  0  0  0  0  0  0  0  0  0  0
   -2.1217   -2.7861   -2.1296 C   0  0  0  0  0  0  0  0  0  0  0  0
   -1.7617    0.8549   -0.2106 C   0  0  0  0  0  0  0  0  0  0  0  0
   -2.5726    1.1871   -1.0741 O   0  0  0  0  0  0  0  0  0  0  0  0
   -1.1941    1.7377    0.6223 N   0  0  0  0  0  0  0  0  0  0  0  0
   -0.4976    1.3916    1.2669 H   0  0  0  0  0  0  0  0  0  0  0  0
   -1.4666    3.1722    0.6095 C   0  0  0  0  0  0  0  0  0  0  0  0
   -2.5439    3.3427    0.6539 H   0  0  0  0  0  0  0  0  0  0  0  0
   -0.9893    3.6529    1.4644 H   0  0  0  0  0  0  0  0  0  0  0  0
   -1.0808    3.6095   -0.3129 H   0  0  0  0  0  0  0  0  0  0  0  0
  5  6  2  0  0  0  0
  5  7  1  0  0  0  0
  2  3  1  0  0  0  0
  2  4  1  0  0  0  0
  2  5  1  0  0  0  0
  1  2  1  0  0  0  0
 29 30  2  0  0  0  0
 29 31  1  0  0  0  0
 26 27  1  0  0  0  0
 26 28  2  0  0  0  0
 24 25  1  0  0  0  0
 24 26  1  0  0  0  0
 22 23  1  0  0  0  0
 22 24  2  0  0  0  0
 20 21  1  0  0  0  0
 20 22  1  0  0  0  0
 19 20  2  0  0  0  0
 19 28  1  0  0  0  0
 17 18  1  0  0  0  0
 17 19  1  0  0  0  0
 15 16  1  0  0  0  0
 15 17  1  0  0  0  0
 14 15  2  0  0  0  0
 14 28  1  0  0  0  0
 11 12  1  0  0  0  0
 11 13  1  0  0  0  0
 11 14  1  0  0  0  0
  9 10  1  0  0  0  0
  9 11  1  0  0  0  0
  9 29  1  0  0  0  0
  7  8  1  0  0  0  0
  7  9  1  0  0  0  0
 33 34  1  0  0  0  0
 33 35  1  0  0  0  0
 33 36  1  0  0  0  0
 31 32  1  0  0  0  0
 31 33  1  0  0  0  0
M  END
$$$$
default_name
  -OEChem-02102213163D

 36 37  0     1  0  0  0  0  0999 V2000
   -4.0843   -4.0736    1.2944 H   0  0  0  0  0  0  0  0  0  0  0  0
   -4.0342   -3.2816    0.5484 C   0  0  0  0  0  0  0  0  0  0  0  0
   -4.8842   -2.6126    0.6694 H   0  0  0  0  0  0  0  0  0  0  0  0
   -4.0433   -3.7186   -0.4486 H   0  0  0  0  0  0  0  0  0  0  0  0
   -2.7532   -2.5046    0.7444 C   0  0  0  0  0  0  0  0  0  0  0  0
   -1.9803   -2.8096    1.6434 O   0  0  0  0  0  0  0  0  0  0  0  0
   -2.5332   -1.4966   -0.0966 N   0  0  0  0  0  0  0  0  0  0  0  0
   -3.2312   -1.2816   -0.7936 H   0  0  0  0  0  0  0  0  0  0  0  0
   -1.3593   -0.6196   -0.0536 C   0  0  1  0  0  0  0  0  0  0  0  0
   -0.8788   -0.7266    0.9196 H   0  0  0  0  0  0  0  0  0  0  0  0
   -0.3559   -1.0533   -1.1339 C   0  0  0  0  0  0  0  0  0  0  0  0
    0.2182   -0.1809   -1.4511 H   0  0  0  0  0  0  0  0  0  0  0  0
    0.3431   -1.7659   -0.6926 H   0  0  0  0  0  0  0  0  0  0  0  0
   -0.9633   -1.6770   -2.3538 C   0  0  0  0  0  0  0  0  0  0  0  0
   -0.2799   -2.1323   -3.4277 C   0  0  0  0  0  0  0  0  0  0  0  0
    0.7976   -2.0814   -3.5405 H   0  0  0  0  0  0  0  0  0  0  0  0
   -1.1597   -2.6843   -4.3380 N   0  0  0  0  0  0  0  0  0  0  0  0
   -0.8716   -3.0841   -5.2191 H   0  0  0  0  0  0  0  0  0  0  0  0
   -2.4607   -2.6268   -3.8854 C   0  0  0  0  0  0  0  0  0  0  0  0
   -3.6807   -3.0682   -4.4176 C   0  0  0  0  0  0  0  0  0  0  0  0
   -3.7123   -3.5626   -5.3774 H   0  0  0  0  0  0  0  0  0  0  0  0
   -4.8615   -2.8566   -3.6855 C   0  0  0  0  0  0  0  0  0  0  0  0
   -5.8118   -3.1893   -4.0807 H   0  0  0  0  0  0  0  0  0  0  0  0
   -4.8066   -2.2050   -2.4399 C   0  0  0  0  0  0  0  0  0  0  0  0
   -5.7185   -2.0369   -1.8838 H   0  0  0  0  0  0  0  0  0  0  0  0
   -3.5750   -1.7638   -1.9156 C   0  0  0  0  0  0  0  0  0  0  0  0
   -3.5487   -1.2527   -0.9637 H   0  0  0  0  0  0  0  0  0  0  0  0
   -2.3706   -1.9666   -2.6235 C   0  0  0  0  0  0  0  0  0  0  0  0
   -1.7617    0.8549   -0.2106 C   0  0  0  0  0  0  0  0  0  0  0  0
   -2.5726    1.1871   -1.0741 O   0  0  0  0  0  0  0  0  0  0  0  0
   -1.1941    1.7377    0.6223 N   0  0  0  0  0  0  0  0  0  0  0  0
   -0.4976    1.3916    1.2669 H   0  0  0  0  0  0  0  0  0  0  0  0
   -1.4666    3.1722    0.6095 C   0  0  0  0  0  0  0  0  0  0  0  0
   -2.5439    3.3427    0.6539 H   0  0  0  0  0  0  0  0  0  0  0  0
   -0.9893    3.6529    1.4644 H   0  0  0  0  0  0  0  0  0  0  0  0
   -1.0808    3.6095   -0.3129 H   0  0  0  0  0  0  0  0  0  0  0  0
  5  6  2  0  0  0  0
  5  7  1  0  0  0  0
  2  3  1  0  0  0  0
  2  4  1  0  0  0  0
  2  5  1  0  0  0  0
  1  2  1  0  0  0  0
 29 30  2  0  0  0  0
 29 31  1  0  0  0  0
 26 27  1  0  0  0  0
 26 28  2  0  0  0  0
 24 25  1  0  0  0  0
 24 26  1  0  0  0  0
 22 23  1  0  0  0  0
 22 24  2  0  0  0  0
 20 21  1  0  0  0  0
 20 22  1  0  0  0  0
 19 20  2  0  0  0  0
 19 28  1  0  0  0  0
 17 18  1  0  0  0  0
 17 19  1  0  0  0  0
 15 16  1  0  0  0  0
 15 17  1  0  0  0  0
 14 15  2  0  0  0  0
 14 28  1  0  0  0  0
 11 12  1  0  0  0  0
 11 13  1  0  0  0  0
 11 14  1  0  0  0  0
  9 10  1  0  0  0  0
  9 11  1  0  0  0  0
  9 29  1  0  0  0  0
  7  8  1  0  0  0  0
  7  9  1  0  0  0  0
 33 34  1  0  0  0  0
 33 35  1  0  0  0  0
 33 36  1  0  0  0  0
 31 32  1  0  0  0  0
 31 33  1  0  0  0  0
M  END
$$$$
default_name
  -OEChem-02102213163D

 36 37  0     1  0  0  0  0  0999 V2000
   -4.0843   -4.0736    1.2944 H   0  0  0  0  0  0  0  0  0  0  0  0
   -4.0342   -3.2816    0.5484 C   0  0  0  0  0  0  0  0  0  0  0  0
   -4.8842   -2.6126    0.6694 H   0  0  0  0  0  0  0  0  0  0  0  0
   -4.0433   -3.7186   -0.4486 H   0  0  0  0  0  0  0  0  0  0  0  0
   -2.7532   -2.5046    0.7444 C   0  0  0  0  0  0  0  0  0  0  0  0
   -1.9803   -2.8096    1.6434 O   0  0  0  0  0  0  0  0  0  0  0  0
   -2.5332   -1.4966   -0.0966 N   0  0  0  0  0  0  0  0  0  0  0  0
   -3.2312   -1.2816   -0.7936 H   0  0  0  0  0  0  0  0  0  0  0  0
   -1.3593   -0.6196   -0.0536 C   0  0  1  0  0  0  0  0  0  0  0  0
   -0.8788   -0.7266    0.9196 H   0  0  0  0  0  0  0  0  0  0  0  0
   -0.3559   -1.0533   -1.1339 C   0  0  0  0  0  0  0  0  0  0  0  0
    0.2182   -0.1809   -1.4511 H   0  0  0  0  0  0  0  0  0  0  0  0
    0.3431   -1.7659   -0.6926 H   0  0  0  0  0  0  0  0  0  0  0  0
   -0.9633   -1.6770   -2.3538 C   0  0  0  0  0  0  0  0  0  0  0  0
   -0.2943   -2.3845   -3.2915 C   0  0  0  0  0  0  0  0  0  0  0  0
    0.7744   -2.5691   -3.2796 H   0  0  0  0  0  0  0  0  0  0  0  0
   -1.1807   -2.8467   -4.2444 N   0  0  0  0  0  0  0  0  0  0  0  0
   -0.9023   -3.3969   -5.0438 H   0  0  0  0  0  0  0  0  0  0  0  0
   -2.4759   -2.4715   -3.9573 C   0  0  0  0  0  0  0  0  0  0  0  0
   -3.7053   -2.7125   -4.5872 C   0  0  0  0  0  0  0  0  0  0  0  0
   -3.7504   -3.2982   -5.4936 H   0  0  0  0  0  0  0  0  0  0  0  0
   -4.8773   -2.1797   -4.0238 C   0  0  0  0  0  0  0  0  0  0  0  0
   -5.8344   -2.3543   -4.4963 H   0  0  0  0  0  0  0  0  0  0  0  0
   -4.8031   -1.4126   -2.8467 C   0  0  0  0  0  0  0  0  0  0  0  0
   -5.7063   -0.9975   -2.4212 H   0  0  0  0  0  0  0  0  0  0  0  0
   -3.5617   -1.1751   -2.2232 C   0  0  0  0  0  0  0  0  0  0  0  0
   -3.5173   -0.5729   -1.3268 H   0  0  0  0  0  0  0  0  0  0  0  0
   -2.3672   -1.7015   -2.7607 C   0  0  0  0  0  0  0  0  0  0  0  0
   -1.7617    0.8549   -0.2106 C   0  0  0  0  0  0  0  0  0  0  0  0
   -2.5726    1.1871   -1.0741 O   0  0  0  0  0  0  0  0  0  0  0  0
   -1.1941    1.7377    0.6223 N   0  0  0  0  0  0  0  0  0  0  0  0
   -0.4976    1.3916    1.2669 H   0  0  0  0  0  0  0  0  0  0  0  0
   -1.4666    3.1722    0.6095 C   0  0  0  0  0  0  0  0  0  0  0  0
   -2.5439    3.3427    0.6539 H   0  0  0  0  0  0  0  0  0  0  0  0
   -0.9893    3.6529    1.4644 H   0  0  0  0  0  0  0  0  0  0  0  0
   -1.0808    3.6095   -0.3129 H   0  0  0  0  0  0  0  0  0  0  0  0
  5  6  2  0  0  0  0
  5  7  1  0  0  0  0
  2  3  1  0  0  0  0
  2  4  1  0  0  0  0
  2  5  1  0  0  0  0
  1  2  1  0  0  0  0
 29 30  2  0  0  0  0
 29 31  1  0  0  0  0
 26 27  1  0  0  0  0
 26 28  2  0  0  0  0
 24 25  1  0  0  0  0
 24 26  1  0  0  0  0
 22 23  1  0  0  0  0
 22 24  2  0  0  0  0
 20 21  1  0  0  0  0
 20 22  1  0  0  0  0
 19 20  2  0  0  0  0
 19 28  1  0  0  0  0
 17 18  1  0  0  0  0
 17 19  1  0  0  0  0
 15 16  1  0  0  0  0
 15 17  1  0  0  0  0
 14 15  2  0  0  0  0
 14 28  1  0  0  0  0
 11 12  1  0  0  0  0
 11 13  1  0  0  0  0
 11 14  1  0  0  0  0
  9 10  1  0  0  0  0
  9 11  1  0  0  0  0
  9 29  1  0  0  0  0
  7  8  1  0  0  0  0
  7  9  1  0  0  0  0
 33 34  1  0  0  0  0
 33 35  1  0  0  0  0
 33 36  1  0  0  0  0
 31 32  1  0  0  0  0
 31 33  1  0  0  0  0
M  END
$$$$
default_name
  -OEChem-02102213163D

 36 37  0     1  0  0  0  0  0999 V2000
   -4.0843   -4.0736    1.2944 H   0  0  0  0  0  0  0  0  0  0  0  0
   -4.0342   -3.2816    0.5484 C   0  0  0  0  0  0  0  0  0  0  0  0
   -4.8842   -2.6126    0.6694 H   0  0  0  0  0  0  0  0  0  0  0  0
   -4.0433   -3.7186   -0.4486 H   0  0  0  0  0  0  0  0  0  0  0  0
   -2.7532   -2.5046    0.7444 C   0  0  0  0  0  0  0  0  0  0  0  0
   -1.9803   -2.8096    1.6434 O   0  0  0  0  0  0  0  0  0  0  0  0
   -2.5332   -1.4966   -0.0966 N   0  0  0  0  0  0  0  0  0  0  0  0
   -3.2312   -1.2816   -0.7936 H   0  0  0  0  0  0  0  0  0  0  0  0
   -1.3593   -0.6196   -0.0536 C   0  0  1  0  0  0  0  0  0  0  0  0
   -0.8788   -0.7266    0.9196 H   0  0  0  0  0  0  0  0  0  0  0  0
   -0.3559   -1.0533   -1.1339 C   0  0  0  0  0  0  0  0  0  0  0  0
    0.2182   -0.1809   -1.4511 H   0  0  0  0  0  0  0  0  0  0  0  0
    0.3431   -1.7659   -0.6926 H   0  0  0  0  0  0  0  0  0  0  0  0
   -0.9633   -1.6770   -2.3538 C   0  0  0  0  0  0  0  0  0  0  0  0
   -0.3760   -2.6109   -3.1351 C   0  0  0  0  0  0  0  0  0  0  0  0
    0.6211   -3.0078   -2.9790 H   0  0  0  0  0  0  0  0  0  0  0  0
   -1.2453   -2.9894   -4.1394 N   0  0  0  0  0  0  0  0  0  0  0  0
   -1.0168   -3.6742   -4.8451 H   0  0  0  0  0  0  0  0  0  0  0  0
   -2.4501   -2.3259   -4.0446 C   0  0  0  0  0  0  0  0  0  0  0  0
   -3.6358   -2.3815   -4.7910 C   0  0  0  0  0  0  0  0  0  0  0  0
   -3.7190   -3.0470   -5.6377 H   0  0  0  0  0  0  0  0  0  0  0  0
   -4.7135   -1.5579   -4.4232 C   0  0  0  0  0  0  0  0  0  0  0  0
   -5.6356   -1.5865   -4.9879 H   0  0  0  0  0  0  0  0  0  0  0  0
   -4.5890   -0.6906   -3.3225 C   0  0  0  0  0  0  0  0  0  0  0  0
   -5.4177   -0.0526   -3.0480 H   0  0  0  0  0  0  0  0  0  0  0  0
   -3.3917   -0.6416   -2.5806 C   0  0  0  0  0  0  0  0  0  0  0  0
   -3.3047    0.0389   -1.7455 H   0  0  0  0  0  0  0  0  0  0  0  0
   -2.2933   -1.4605   -2.9207 C   0  0  0  0  0  0  0  0  0  0  0  0
   -1.7617    0.8549   -0.2106 C   0  0  0  0  0  0  0  0  0  0  0  0
   -2.5726    1.1871   -1.0741 O   0  0  0  0  0  0  0  0  0  0  0  0
   -1.1941    1.7377    0.6223 N   0  0  0  0  0  0  0  0  0  0  0  0
   -0.4976    1.3916    1.2669 H   0  0  0  0  0  0  0  0  0  0  0  0
   -1.4666    3.1722    0.6095 C   0  0  0  0  0  0  0  0  0  0  0  0
   -2.5439    3.3427    0.6539 H   0  0  0  0  0  0  0  0  0  0  0  0
   -0.9893    3.6529    1.4644 H   0  0  0  0  0  0  0  0  0  0  0  0
   -1.0808    3.6095   -0.3129 H   0  0  0  0  0  0  0  0  0  0  0  0
  5  6  2  0  0  0  0
  5  7  1  0  0  0  0
  2  3  1  0  0  0  0
  2  4  1  0  0  0  0
  2  5  1  0  0  0  0
  1  2  1  0  0  0  0
 29 30  2  0  0  0  0
 29 31  1  0  0  0  0
 26 27  1  0  0  0  0
 26 28  2  0  0  0  0
 24 25  1  0  0  0  0
 24 26  1  0  0  0  0
 22 23  1  0  0  0  0
 22 24  2  0  0  0  0
 20 21  1  0  0  0  0
 20 22  1  0  0  0  0
 19 20  2  0  0  0  0
 19 28  1  0  0  0  0
 17 18  1  0  0  0  0
 17 19  1  0  0  0  0
 15 16  1  0  0  0  0
 15 17  1  0  0  0  0
 14 15  2  0  0  0  0
 14 28  1  0  0  0  0
 11 12  1  0  0  0  0
 11 13  1  0  0  0  0
 11 14  1  0  0  0  0
  9 10  1  0  0  0  0
  9 11  1  0  0  0  0
  9 29  1  0  0  0  0
  7  8  1  0  0  0  0
  7  9  1  0  0  0  0
 33 34  1  0  0  0  0
 33 35  1  0  0  0  0
 33 36  1  0  0  0  0
 31 32  1  0  0  0  0
 31 33  1  0  0  0  0
M  END
$$$$
default_name
  -OEChem-02102213163D

 36 37  0     1  0  0  0  0  0999 V2000
   -4.0843   -4.0736    1.2944 H   0  0  0  0  0  0  0  0  0  0  0  0
   -4.0342   -3.2816    0.5484 C   0  0  0  0  0  0  0  0  0  0  0  0
   -4.8842   -2.6126    0.6694 H   0  0  0  0  0  0  0  0  0  0  0  0
   -4.0433   -3.7186   -0.4486 H   0  0  0  0  0  0  0  0  0  0  0  0
   -2.7532   -2.5046    0.7444 C   0  0  0  0  0  0  0  0  0  0  0  0
   -1.9803   -2.8096    1.6434 O   0  0  0  0  0  0  0  0  0  0  0  0
   -2.5332   -1.4966   -0.0966 N   0  0  0  0  0  0  0  0  0  0  0  0
   -3.2312   -1.2816   -0.7936 H   0  0  0  0  0  0  0  0  0  0  0  0
   -1.3593   -0.6196   -0.0536 C   0  0  1  0  0  0  0  0  0  0  0  0
   -0.8788   -0.7266    0.9196 H   0  0  0  0  0  0  0  0  0  0  0  0
   -0.3559   -1.0533   -1.1339 C   0  0  0  0  0  0  0  0  0  0  0  0
    0.2182   -0.1809   -1.4511 H   0  0  0  0  0  0  0  0  0  0  0  0
    0.3431   -1.7659   -0.6926 H   0  0  0  0  0  0  0  0  0  0  0  0
   -0.9633   -1.6770   -2.3538 C   0  0  0  0  0  0  0  0  0  0  0  0
   -0.5194   -2.7959   -2.9690 C   0  0  0  0  0  0  0  0  0  0  0  0
    0.3483   -3.3678   -2.6591 H   0  0  0  0  0  0  0  0  0  0  0  0
   -1.3490   -3.1026   -4.0298 N   0  0  0  0  0  0  0  0  0  0  0  0
   -1.2072   -3.8970   -4.6363 H   0  0  0  0  0  0  0  0  0  0  0  0
   -2.3851   -2.1998   -4.1414 C   0  0  0  0  0  0  0  0  0  0  0  0
   -3.4771   -2.0978   -5.0151 C   0  0  0  0  0  0  0  0  0  0  0  0
   -3.6203   -2.8261   -5.7998 H   0  0  0  0  0  0  0  0  0  0  0  0
   -4.3813   -1.0337   -4.8566 C   0  0  0  0  0  0  0  0  0  0  0  0
   -5.2289   -0.9383   -5.5218 H   0  0  0  0  0  0  0  0  0  0  0  0
   -4.1788   -0.0882   -3.8347 C   0  0  0  0  0  0  0  0  0  0  0  0
   -4.8723    0.7336   -3.7215 H   0  0  0  0  0  0  0  0  0  0  0  0
   -3.0766   -0.1995   -2.9635 C   0  0  0  0  0  0  0  0  0  0  0  0
   -2.9254    0.5412   -2.1912 H   0  0  0  0  0  0  0  0  0  0  0  0
   -2.1539   -1.2601   -3.0926 C   0  0  0  0  0  0  0  0  0  0  0  0
   -1.7617    0.8549   -0.2106 C   0  0  0  0  0  0  0  0  0  0  0  0
   -2.5726    1.1871   -1.0741 O   0  0  0  0  0  0  0  0  0  0  0  0
   -1.1941    1.7377    0.6223 N   0  0  0  0  0  0  0  0  0  0  0  0
   -0.4976    1.3916    1.2669 H   0  0  0  0  0  0  0  0  0  0  0  0
   -1.4666    3.1722    0.6095 C   0  0  0  0  0  0  0  0  0  0  0  0
   -2.5439    3.3427    0.6539 H   0  0  0  0  0  0  0  0  0  0  0  0
   -0.9893    3.6529    1.4644 H   0  0  0  0  0  0  0  0  0  0  0  0
   -1.0808    3.6095   -0.3129 H   0  0  0  0  0  0  0  0  0  0  0  0
  5  6  2  0  0  0  0
  5  7  1  0  0  0  0
  2  3  1  0  0  0  0
  2  4  1  0  0  0  0
  2  5  1  0  0  0  0
  1  2  1  0  0  0  0
 29 30  2  0  0  0  0
 29 31  1  0  0  0  0
 26 27  1  0  0  0  0
 26 28  2  0  0  0  0
 24 25  1  0  0  0  0
 24 26  1  0  0  0  0
 22 23  1  0  0  0  0
 22 24  2  0  0  0  0
 20 21  1  0  0  0  0
 20 22  1  0  0  0  0
 19 20  2  0  0  0  0
 19 28  1  0  0  0  0
 17 18  1  0  0  0  0
 17 19  1  0  0  0  0
 15 16  1  0  0  0  0
 15 17  1  0  0  0  0
 14 15  2  0  0  0  0
 14 28  1  0  0  0  0
 11 12  1  0  0  0  0
 11 13  1  0  0  0  0
 11 14  1  0  0  0  0
  9 10  1  0  0  0  0
  9 11  1  0  0  0  0
  9 29  1  0  0  0  0
  7  8  1  0  0  0  0
  7  9  1  0  0  0  0
 33 34  1  0  0  0  0
 33 35  1  0  0  0  0
 33 36  1  0  0  0  0
 31 32  1  0  0  0  0
 31 33  1  0  0  0  0
M  END
$$$$
default_name
  -OEChem-02102213163D

 36 37  0     1  0  0  0  0  0999 V2000
   -4.0843   -4.0736    1.2944 H   0  0  0  0  0  0  0  0  0  0  0  0
   -4.0342   -3.2816    0.5484 C   0  0  0  0  0  0  0  0  0  0  0  0
   -4.8842   -2.6126    0.6694 H   0  0  0  0  0  0  0  0  0  0  0  0
   -4.0433   -3.7186   -0.4486 H   0  0  0  0  0  0  0  0  0  0  0  0
   -2.7532   -2.5046    0.7444 C   0  0  0  0  0  0  0  0  0  0  0  0
   -1.9803   -2.8096    1.6434 O   0  0  0  0  0  0  0  0  0  0  0  0
   -2.5332   -1.4966   -0.0966 N   0  0  0  0  0  0  0  0  0  0  0  0
   -3.2312   -1.2816   -0.7936 H   0  0  0  0  0  0  0  0  0  0  0  0
   -1.3593   -0.6196   -0.0536 C   0  0  1  0  0  0  0  0  0  0  0  0
   -0.8788   -0.7266    0.9196 H   0  0  0  0  0  0  0  0  0  0  0  0
   -0.3559   -1.0533   -1.1339 C   0  0  0  0  0  0  0  0  0  0  0  0
    0.2182   -0.1809   -1.4511 H   0  0  0  0  0  0  0  0  0  0  0  0
    0.3431   -1.7659   -0.6926 H   0  0  0  0  0  0  0  0  0  0  0  0
   -0.9633   -1.6770   -2.3538 C   0  0  0  0  0  0  0  0  0  0  0  0
   -0.7149   -2.9270   -2.8047 C   0  0  0  0  0  0  0  0  0  0  0  0
   -0.0255   -3.6245   -2.3417 H   0  0  0  0  0  0  0  0  0  0  0  0
   -1.4849   -3.1785   -3.9233 N   0  0  0  0  0  0  0  0  0  0  0  0
   -1.4605   -4.0503   -4.4318 H   0  0  0  0  0  0  0  0  0  0  0  0
   -2.2853   -2.1019   -4.2411 C   0  0  0  0  0  0  0  0  0  0  0  0
   -3.2399   -1.8807   -5.2442 C   0  0  0  0  0  0  0  0  0  0  0  0
   -3.4609   -2.6506   -5.9689 H   0  0  0  0  0  0  0  0  0  0  0  0
   -3.9034   -0.6429   -5.2944 C   0  0  0  0  0  0  0  0  0  0  0  0
   -4.6419   -0.4539   -6.0617 H   0  0  0  0  0  0  0  0  0  0  0  0
   -3.6006    0.3536   -4.3485 C   0  0  0  0  0  0  0  0  0  0  0  0
   -4.1074    1.3075   -4.3958 H   0  0  0  0  0  0  0  0  0  0  0  0
   -2.6379    0.1209   -3.3458 C   0  0  0  0  0  0  0  0  0  0  0  0
   -2.4051    0.8997   -2.6335 H   0  0  0  0  0  0  0  0  0  0  0  0
   -1.9585   -1.1139   -3.2646 C   0  0  0  0  0  0  0  0  0  0  0  0
   -1.7617    0.8549   -0.2106 C   0  0  0  0  0  0  0  0  0  0  0  0
   -2.5726    1.1871   -1.0741 O   0  0  0  0  0  0  0  0  0  0  0  0
   -1.1941    1.7377    0.6223 N   0  0  0  0  0  0  0  0  0  0  0  0
   -0.4976    1.3916    1.2669 H   0  0  0  0  0  0  0  0  0  0  0  0
   -1.4666    3.1722    0.6095 C   0  0  0  0  0  0  0  0  0  0  0  0
   -2.5439    3.3427    0.6539 H   0  0  0  0  0  0  0  0  0  0  0  0
   -0.9893    3.6529    1.4644 H   0  0  0  0  0  0  0  0  0  0  0  0
   -1.0808    3.6095   -0.3129 H   0  0  0  0  0  0  0  0  0  0  0  0
  5  6  2  0  0  0  0
  5  7  1  0  0  0  0
  2  3  1  0  0  0  0
  2  4  1  0  0  0  0
  2  5  1  0  0  0  0
  1  2  1  0  0  0  0
 29 30  2  0  0  0  0
 29 31  1  0  0  0  0
 26 27  1  0  0  0  0
 26 28  2  0  0  0  0
 24 25  1  0  0  0  0
 24 26  1  0  0  0  0
 22 23  1  0  0  0  0
 22 24  2  0  0  0  0
 20 21  1  0  0  0  0
 20 22  1  0  0  0  0
 19 20  2  0  0  0  0
 19 28  1  0  0  0  0
 17 18  1  0  0  0  0
 17 19  1  0  0  0  0
 15 16  1  0  0  0  0
 15 17  1  0  0  0  0
 14 15  2  0  0  0  0
 14 28  1  0  0  0  0
 11 12  1  0  0  0  0
 11 13  1  0  0  0  0
 11 14  1  0  0  0  0
  9 10  1  0  0  0  0
  9 11  1  0  0  0  0
  9 29  1  0  0  0  0
  7  8  1  0  0  0  0
  7  9  1  0  0  0  0
 33 34  1  0  0  0  0
 33 35  1  0  0  0  0
 33 36  1  0  0  0  0
 31 32  1  0  0  0  0
 31 33  1  0  0  0  0
M  END
$$$$
default_name
  -OEChem-02102213163D

 36 37  0     1  0  0  0  0  0999 V2000
   -4.0843   -4.0736    1.2944 H   0  0  0  0  0  0  0  0  0  0  0  0
   -4.0342   -3.2816    0.5484 C   0  0  0  0  0  0  0  0  0  0  0  0
   -4.8842   -2.6126    0.6694 H   0  0  0  0  0  0  0  0  0  0  0  0
   -4.0433   -3.7186   -0.4486 H   0  0  0  0  0  0  0  0  0  0  0  0
   -2.7532   -2.5046    0.7444 C   0  0  0  0  0  0  0  0  0  0  0  0
   -1.9803   -2.8096    1.6434 O   0  0  0  0  0  0  0  0  0  0  0  0
   -2.5332   -1.4966   -0.0966 N   0  0  0  0  0  0  0  0  0  0  0  0
   -3.2312   -1.2816   -0.7936 H   0  0  0  0  0  0  0  0  0  0  0  0
   -1.3593   -0.6196   -0.0536 C   0  0  1  0  0  0  0  0  0  0  0  0
   -0.8788   -0.7266    0.9196 H   0  0  0  0  0  0  0  0  0  0  0  0
   -0.3559   -1.0533   -1.1339 C   0  0  0  0  0  0  0  0  0  0  0  0
    0.2182   -0.1809   -1.4511 H   0  0  0  0  0  0  0  0  0  0  0  0
    0.3431   -1.7659   -0.6926 H   0  0  0  0  0  0  0  0  0  0  0  0
   -0.9633   -1.6770   -2.3538 C   0  0  0  0  0  0  0  0  0  0  0  0
   -0.9490   -2.9952   -2.6533 C   0  0  0  0  0  0  0  0  0  0  0  0
   -0.4749   -3.7604   -2.0485 H   0  0  0  0  0  0  0  0  0  0  0  0
   -1.6436   -3.2121   -3.8271 N   0  0  0  0  0  0  0  0  0  0  0  0
   -1.7595   -4.1236   -4.2455 H   0  0  0  0  0  0  0  0  0  0  0  0
   -2.1576   -2.0388   -4.3370 C   0  0  0  0  0  0  0  0  0  0  0  0
   -2.9403   -1.7450   -5.4628 C   0  0  0  0  0  0  0  0  0  0  0  0
   -3.2517   -2.5323   -6.1335 H   0  0  0  0  0  0  0  0  0  0  0  0
   -3.3122   -0.4119   -5.7069 C   0  0  0  0  0  0  0  0  0  0  0  0
   -3.9148   -0.1663   -6.5708 H   0  0  0  0  0  0  0  0  0  0  0  0
   -2.8936    0.6045   -4.8288 C   0  0  0  0  0  0  0  0  0  0  0  0
   -3.1750    1.6299   -5.0250 H   0  0  0  0  0  0  0  0  0  0  0  0
   -2.1054    0.2979   -3.7014 C   0  0  0  0  0  0  0  0  0  0  0  0
   -1.7795    1.0900   -3.0424 H   0  0  0  0  0  0  0  0  0  0  0  0
   -1.7204   -1.0319   -3.4251 C   0  0  0  0  0  0  0  0  0  0  0  0
   -1.7617    0.8549   -0.2106 C   0  0  0  0  0  0  0  0  0  0  0  0
   -2.5726    1.1871   -1.0741 O   0  0  0  0  0  0  0  0  0  0  0  0
   -1.1941    1.7377    0.6223 N   0  0  0  0  0  0  0  0  0  0  0  0
   -0.4976    1.3916    1.2669 H   0  0  0  0  0  0  0  0  0  0  0  0
   -1.4666    3.1722    0.6095 C   0  0  0  0  0  0  0  0  0  0  0  0
   -2.5439    3.3427    0.6539 H   0  0  0  0  0  0  0  0  0  0  0  0
   -0.9893    3.6529    1.4644 H   0  0  0  0  0  0  0  0  0  0  0  0
   -1.0808    3.6095   -0.3129 H   0  0  0  0  0  0  0  0  0  0  0  0
  5  6  2  0  0  0  0
  5  7  1  0  0  0  0
  2  3  1  0  0  0  0
  2  4  1  0  0  0  0
  2  5  1  0  0  0  0
  1  2  1  0  0  0  0
 29 30  2  0  0  0  0
 29 31  1  0  0  0  0
 26 27  1  0  0  0  0
 26 28  2  0  0  0  0
 24 25  1  0  0  0  0
 24 26  1  0  0  0  0
 22 23  1  0  0  0  0
 22 24  2  0  0  0  0
 20 21  1  0  0  0  0
 20 22  1  0  0  0  0
 19 20  2  0  0  0  0
 19 28  1  0  0  0  0
 17 18  1  0  0  0  0
 17 19  1  0  0  0  0
 15 16  1  0  0  0  0
 15 17  1  0  0  0  0
 14 15  2  0  0  0  0
 14 28  1  0  0  0  0
 11 12  1  0  0  0  0
 11 13  1  0  0  0  0
 11 14  1  0  0  0  0
  9 10  1  0  0  0  0
  9 11  1  0  0  0  0
  9 29  1  0  0  0  0
  7  8  1  0  0  0  0
  7  9  1  0  0  0  0
 33 34  1  0  0  0  0
 33 35  1  0  0  0  0
 33 36  1  0  0  0  0
 31 32  1  0  0  0  0
 31 33  1  0  0  0  0
M  END
$$$$
default_name
  -OEChem-02102213163D

 36 37  0     1  0  0  0  0  0999 V2000
   -4.0843   -4.0736    1.2944 H   0  0  0  0  0  0  0  0  0  0  0  0
   -4.0342   -3.2816    0.5484 C   0  0  0  0  0  0  0  0  0  0  0  0
   -4.8842   -2.6126    0.6694 H   0  0  0  0  0  0  0  0  0  0  0  0
   -4.0433   -3.7186   -0.4486 H   0  0  0  0  0  0  0  0  0  0  0  0
   -2.7532   -2.5046    0.7444 C   0  0  0  0  0  0  0  0  0  0  0  0
   -1.9803   -2.8096    1.6434 O   0  0  0  0  0  0  0  0  0  0  0  0
   -2.5332   -1.4966   -0.0966 N   0  0  0  0  0  0  0  0  0  0  0  0
   -3.2312   -1.2816   -0.7936 H   0  0  0  0  0  0  0  0  0  0  0  0
   -1.3593   -0.6196   -0.0536 C   0  0  1  0  0  0  0  0  0  0  0  0
   -0.8788   -0.7266    0.9196 H   0  0  0  0  0  0  0  0  0  0  0  0
   -0.3559   -1.0533   -1.1339 C   0  0  0  0  0  0  0  0  0  0  0  0
    0.2182   -0.1809   -1.4511 H   0  0  0  0  0  0  0  0  0  0  0  0
    0.3431   -1.7659   -0.6926 H   0  0  0  0  0  0  0  0  0  0  0  0
   -0.9633   -1.6770   -2.3538 C   0  0  0  0  0  0  0  0  0  0  0  0
   -1.2058   -2.9959   -2.5250 C   0  0  0  0  0  0  0  0  0  0  0  0
   -0.9691   -3.7663   -1.7994 H   0  0  0  0  0  0  0  0  0  0  0  0
   -1.8143   -3.2010   -3.7478 N   0  0  0  0  0  0  0  0  0  0  0  0
   -2.0838   -4.1118   -4.0900 H   0  0  0  0  0  0  0  0  0  0  0  0
   -2.0105   -2.0148   -4.4225 C   0  0  0  0  0  0  0  0  0  0  0  0
   -2.5988   -1.7000   -5.6558 C   0  0  0  0  0  0  0  0  0  0  0  0
   -3.0071   -2.4794   -6.2824 H   0  0  0  0  0  0  0  0  0  0  0  0
   -2.6481   -0.3567   -6.0658 C   0  0  0  0  0  0  0  0  0  0  0  0
   -3.0970   -0.0951   -7.0144 H   0  0  0  0  0  0  0  0  0  0  0  0
   -2.1061    0.6476   -5.2430 C   0  0  0  0  0  0  0  0  0  0  0  0
   -2.1387    1.6789   -5.5661 H   0  0  0  0  0  0  0  0  0  0  0  0
   -1.5155    0.3194   -4.0062 C   0  0  0  0  0  0  0  0  0  0  0  0
   -1.0910    1.0991   -3.3898 H   0  0  0  0  0  0  0  0  0  0  0  0
   -1.4559   -1.0197   -3.5631 C   0  0  0  0  0  0  0  0  0  0  0  0
   -1.7617    0.8549   -0.2106 C   0  0  0  0  0  0  0  0  0  0  0  0
   -2.5726    1.1871   -1.0741 O   0  0  0  0  0  0  0  0  0  0  0  0
   -1.1941    1.7377    0.6223 N   0  0  0  0  0  0  0  0  0  0  0  0
   -0.4976    1.3916    1.2669 H   0  0  0  0  0  0  0  0  0  0  0  0
   -1.4666    3.1722    0.6095 C   0  0  0  0  0  0  0  0  0  0  0  0
   -2.5439    3.3427    0.6539 H   0  0  0  0  0  0  0  0  0  0  0  0
   -0.9893    3.6529    1.4644 H   0  0  0  0  0  0  0  0  0  0  0  0
   -1.0808    3.6095   -0.3129 H   0  0  0  0  0  0  0  0  0  0  0  0
  5  6  2  0  0  0  0
  5  7  1  0  0  0  0
  2  3  1  0  0  0  0
  2  4  1  0  0  0  0
  2  5  1  0  0  0  0
  1  2  1  0  0  0  0
 29 30  2  0  0  0  0
 29 31  1  0  0  0  0
 26 27  1  0  0  0  0
 26 28  2  0  0  0  0
 24 25  1  0  0  0  0
 24 26  1  0  0  0  0
 22 23  1  0  0  0  0
 22 24  2  0  0  0  0
 20 21  1  0  0  0  0
 20 22  1  0  0  0  0
 19 20  2  0  0  0  0
 19 28  1  0  0  0  0
 17 18  1  0  0  0  0
 17 19  1  0  0  0  0
 15 16  1  0  0  0  0
 15 17  1  0  0  0  0
 14 15  2  0  0  0  0
 14 28  1  0  0  0  0
 11 12  1  0  0  0  0
 11 13  1  0  0  0  0
 11 14  1  0  0  0  0
  9 10  1  0  0  0  0
  9 11  1  0  0  0  0
  9 29  1  0  0  0  0
  7  8  1  0  0  0  0
  7  9  1  0  0  0  0
 33 34  1  0  0  0  0
 33 35  1  0  0  0  0
 33 36  1  0  0  0  0
 31 32  1  0  0  0  0
 31 33  1  0  0  0  0
M  END
$$$$
default_name
  -OEChem-02102213163D

 36 37  0     1  0  0  0  0  0999 V2000
   -4.0843   -4.0736    1.2944 H   0  0  0  0  0  0  0  0  0  0  0  0
   -4.0342   -3.2816    0.5484 C   0  0  0  0  0  0  0  0  0  0  0  0
   -4.8842   -2.6126    0.6694 H   0  0  0  0  0  0  0  0  0  0  0  0
   -4.0433   -3.7186   -0.4486 H   0  0  0  0  0  0  0  0  0  0  0  0
   -2.7532   -2.5046    0.7444 C   0  0  0  0  0  0  0  0  0  0  0  0
   -1.9803   -2.8096    1.6434 O   0  0  0  0  0  0  0  0  0  0  0  0
   -2.5332   -1.4966   -0.0966 N   0  0  0  0  0  0  0  0  0  0  0  0
   -3.2312   -1.2816   -0.7936 H   0  0  0  0  0  0  0  0  0  0  0  0
   -1.3593   -0.6196   -0.0536 C   0  0  1  0  0  0  0  0  0  0  0  0
   -0.8788   -0.7266    0.9196 H   0  0  0  0  0  0  0  0  0  0  0  0
   -0.3559   -1.0533   -1.1339 C   0  0  0  0  0  0  0  0  0  0  0  0
    0.2182   -0.1809   -1.4511 H   0  0  0  0  0  0  0  0  0  0  0  0
    0.3431   -1.7659   -0.6926 H   0  0  0  0  0  0  0  0  0  0  0  0
   -0.9633   -1.6770   -2.3538 C   0  0  0  0  0  0  0  0  0  0  0  0
   -1.4678   -2.9290   -2.4288 C   0  0  0  0  0  0  0  0  0  0  0  0
   -1.4746   -3.6417   -1.6114 H   0  0  0  0  0  0  0  0  0  0  0  0
   -1.9854   -3.1460   -3.6907 N   0  0  0  0  0  0  0  0  0  0  0  0
   -2.4114   -4.0157   -3.9760 H   0  0  0  0  0  0  0  0  0  0  0  0
   -1.8543   -2.0316   -4.4917 C   0  0  0  0  0  0  0  0  0  0  0  0
   -2.2387   -1.7487   -5.8102 C   0  0  0  0  0  0  0  0  0  0  0  0
   -2.7435   -2.4954   -6.4054 H   0  0  0  0  0  0  0  0  0  0  0  0
   -1.9563   -0.4809   -6.3468 C   0  0  0  0  0  0  0  0  0  0  0  0
   -2.2443   -0.2451   -7.3623 H   0  0  0  0  0  0  0  0  0  0  0  0
   -1.2918    0.4798   -5.5627 C   0  0  0  0  0  0  0  0  0  0  0  0
   -1.0691    1.4511   -5.9822 H   0  0  0  0  0  0  0  0  0  0  0  0
   -0.9083    0.1839   -4.2392 C   0  0  0  0  0  0  0  0  0  0  0  0
   -0.3866    0.9264   -3.6523 H   0  0  0  0  0  0  0  0  0  0  0  0
   -1.1830   -1.0781   -3.6691 C   0  0  0  0  0  0  0  0  0  0  0  0
   -1.7617    0.8549   -0.2106 C   0  0  0  0  0  0  0  0  0  0  0  0
   -2.5726    1.1871   -1.0741 O   0  0  0  0  0  0  0  0  0  0  0  0
   -1.1941    1.7377    0.6223 N   0  0  0  0  0  0  0  0  0  0  0  0
   -0.4976    1.3916    1.2669 H   0  0  0  0  0  0  0  0  0  0  0  0
   -1.4666    3.1722    0.6095 C   0  0  0  0  0  0  0  0  0  0  0  0
   -2.5439    3.3427    0.6539 H   0  0  0  0  0  0  0  0  0  0  0  0
   -0.9893    3.6529    1.4644 H   0  0  0  0  0  0  0  0  0  0  0  0
   -1.0808    3.6095   -0.3129 H   0  0  0  0  0  0  0  0  0  0  0  0
  5  6  2  0  0  0  0
  5  7  1  0  0  0  0
  2  3  1  0  0  0  0
  2  4  1  0  0  0  0
  2  5  1  0  0  0  0
  1  2  1  0  0  0  0
 29 30  2  0  0  0  0
 29 31  1  0  0  0  0
 26 27  1  0  0  0  0
 26 28  2  0  0  0  0
 24 25  1  0  0  0  0
 24 26  1  0  0  0  0
 22 23  1  0  0  0  0
 22 24  2  0  0  0  0
 20 21  1  0  0  0  0
 20 22  1  0  0  0  0
 19 20  2  0  0  0  0
 19 28  1  0  0  0  0
 17 18  1  0  0  0  0
 17 19  1  0  0  0  0
 15 16  1  0  0  0  0
 15 17  1  0  0  0  0
 14 15  2  0  0  0  0
 14 28  1  0  0  0  0
 11 12  1  0  0  0  0
 11 13  1  0  0  0  0
 11 14  1  0  0  0  0
  9 10  1  0  0  0  0
  9 11  1  0  0  0  0
  9 29  1  0  0  0  0
  7  8  1  0  0  0  0
  7  9  1  0  0  0  0
 33 34  1  0  0  0  0
 33 35  1  0  0  0  0
 33 36  1  0  0  0  0
 31 32  1  0  0  0  0
 31 33  1  0  0  0  0
M  END
$$$$
default_name
  -OEChem-02102213163D

 36 37  0     1  0  0  0  0  0999 V2000
   -4.0843   -4.0736    1.2944 H   0  0  0  0  0  0  0  0  0  0  0  0
   -4.0342   -3.2816    0.5484 C   0  0  0  0  0  0  0  0  0  0  0  0
   -4.8842   -2.6126    0.6694 H   0  0  0  0  0  0  0  0  0  0  0  0
   -4.0433   -3.7186   -0.4486 H   0  0  0  0  0  0  0  0  0  0  0  0
   -2.7532   -2.5046    0.7444 C   0  0  0  0  0  0  0  0  0  0  0  0
   -1.9803   -2.8096    1.6434 O   0  0  0  0  0  0  0  0  0  0  0  0
   -2.5332   -1.4966   -0.0966 N   0  0  0  0  0  0  0  0  0  0  0  0
   -3.2312   -1.2816   -0.7936 H   0  0  0  0  0  0  0  0  0  0  0  0
   -1.3593   -0.6196   -0.0536 C   0  0  1  0  0  0  0  0  0  0  0  0
   -0.8788   -0.7266    0.9196 H   0  0  0  0  0  0  0  0  0  0  0  0
   -0.3559   -1.0533   -1.1339 C   0  0  0  0  0  0  0  0  0  0  0  0
    0.2182   -0.1809   -1.4511 H   0  0  0  0  0  0  0  0  0  0  0  0
    0.3431   -1.7659   -0.6926 H   0  0  0  0  0  0  0  0  0  0  0  0
   -0.9633   -1.6770   -2.3538 C   0  0  0  0  0  0  0  0  0  0  0  0
   -1.7172   -2.7991   -2.3710 C   0  0  0  0  0  0  0  0  0  0  0  0
   -1.9569   -3.3951   -1.4973 H   0  0  0  0  0  0  0  0  0  0  0  0
   -2.1453   -3.0509   -3.6598 N   0  0  0  0  0  0  0  0  0  0  0  0
   -2.7198   -3.8420   -3.9113 H   0  0  0  0  0  0  0  0  0  0  0  0
   -1.6994   -2.0880   -4.5400 C   0  0  0  0  0  0  0  0  0  0  0  0
   -1.8845   -1.8879   -5.9155 C   0  0  0  0  0  0  0  0  0  0  0  0
   -2.4791   -2.5794   -6.4942 H   0  0  0  0  0  0  0  0  0  0  0  0
   -1.2840   -0.7761   -6.5306 C   0  0  0  0  0  0  0  0  0  0  0  0
   -1.4148   -0.6062   -7.5908 H   0  0  0  0  0  0  0  0  0  0  0  0
   -0.5061    0.1127   -5.7662 C   0  0  0  0  0  0  0  0  0  0  0  0
   -0.0391    0.9621   -6.2451 H   0  0  0  0  0  0  0  0  0  0  0  0
   -0.3253   -0.0994   -4.3847 C   0  0  0  0  0  0  0  0  0  0  0  0
    0.2857    0.5837   -3.8118 H   0  0  0  0  0  0  0  0  0  0  0  0
   -0.9202   -1.2031   -3.7360 C   0  0  0  0  0  0  0  0  0  0  0  0
   -1.7617    0.8549   -0.2106 C   0  0  0  0  0  0  0  0  0  0  0  0
   -2.5726    1.1871   -1.0741 O   0  0  0  0  0  0  0  0  0  0  0  0
   -1.1941    1.7377    0.6223 N   0  0  0  0  0  0  0  0  0  0  0  0
   -0.4976    1.3916    1.2669 H   0  0  0  0  0  0  0  0  0  0  0  0
   -1.4666    3.1722    0.6095 C   0  0  0  0  0  0  0  0  0  0  0  0
   -2.5439    3.3427    0.6539 H   0  0  0  0  0  0  0  0  0  0  0  0
   -0.9893    3.6529    1.4644 H   0  0  0  0  0  0  0  0  0  0  0  0
   -1.0808    3.6095   -0.3129 H   0  0  0  0  0  0  0  0  0  0  0  0
  5  6  2  0  0  0  0
  5  7  1  0  0  0  0
  2  3  1  0  0  0  0
  2  4  1  0  0  0  0
  2  5  1  0  0  0  0
  1  2  1  0  0  0  0
 29 30  2  0  0  0  0
 29 31  1  0  0  0  0
 26 27  1  0  0  0  0
 26 28  2  0  0  0  0
 24 25  1  0  0  0  0
 24 26  1  0  0  0  0
 22 23  1  0  0  0  0
 22 24  2  0  0  0  0
 20 21  1  0  0  0  0
 20 22  1  0  0  0  0
 19 20  2  0  0  0  0
 19 28  1  0  0  0  0
 17 18  1  0  0  0  0
 17 19  1  0  0  0  0
 15 16  1  0  0  0  0
 15 17  1  0  0  0  0
 14 15  2  0  0  0  0
 14 28  1  0  0  0  0
 11 12  1  0  0  0  0
 11 13  1  0  0  0  0
 11 14  1  0  0  0  0
  9 10  1  0  0  0  0
  9 11  1  0  0  0  0
  9 29  1  0  0  0  0
  7  8  1  0  0  0  0
  7  9  1  0  0  0  0
 33 34  1  0  0  0  0
 33 35  1  0  0  0  0
 33 36  1  0  0  0  0
 31 32  1  0  0  0  0
 31 33  1  0  0  0  0
M  END
$$$$
default_name
  -OEChem-02102213163D

 36 37  0     1  0  0  0  0  0999 V2000
   -4.0843   -4.0736    1.2944 H   0  0  0  0  0  0  0  0  0  0  0  0
   -4.0342   -3.2816    0.5484 C   0  0  0  0  0  0  0  0  0  0  0  0
   -4.8842   -2.6126    0.6694 H   0  0  0  0  0  0  0  0  0  0  0  0
   -4.0433   -3.7186   -0.4486 H   0  0  0  0  0  0  0  0  0  0  0  0
   -2.7532   -2.5046    0.7444 C   0  0  0  0  0  0  0  0  0  0  0  0
   -1.9803   -2.8096    1.6434 O   0  0  0  0  0  0  0  0  0  0  0  0
   -2.5332   -1.4966   -0.0966 N   0  0  0  0  0  0  0  0  0  0  0  0
   -3.2312   -1.2816   -0.7936 H   0  0  0  0  0  0  0  0  0  0  0  0
   -1.3593   -0.6196   -0.0536 C   0  0  1  0  0  0  0  0  0  0  0  0
   -0.8788   -0.7266    0.9196 H   0  0  0  0  0  0  0  0  0  0  0  0
   -0.3559   -1.0533   -1.1339 C   0  0  0  0  0  0  0  0  0  0  0  0
    0.2182   -0.1809   -1.4511 H   0  0  0  0  0  0  0  0  0  0  0  0
    0.3431   -1.7659   -0.6926 H   0  0  0  0  0  0  0  0  0  0  0  0
   -0.9633   -1.6770   -2.3538 C   0  0  0  0  0  0  0  0  0  0  0  0
   -1.9369   -2.6150   -2.3557 C   0  0  0  0  0  0  0  0  0  0  0  0
   -2.3830   -3.0434   -1.4649 H   0  0  0  0  0  0  0  0  0  0  0  0
   -2.2830   -2.9220   -3.6571 N   0  0  0  0  0  0  0  0  0  0  0  0
   -2.9881   -3.6024   -3.9002 H   0  0  0  0  0  0  0  0  0  0  0  0
   -1.5565   -2.1801   -4.5640 C   0  0  0  0  0  0  0  0  0  0  0  0
   -1.5603   -2.1079   -5.9644 C   0  0  0  0  0  0  0  0  0  0  0  0
   -2.2319   -2.7255   -6.5426 H   0  0  0  0  0  0  0  0  0  0  0  0
   -0.6769   -1.2222   -6.6049 C   0  0  0  0  0  0  0  0  0  0  0  0
   -0.6651   -1.1537   -7.6843 H   0  0  0  0  0  0  0  0  0  0  0  0
    0.1974   -0.4288   -5.8397 C   0  0  0  0  0  0  0  0  0  0  0  0
    0.8812    0.2453   -6.3369 H   0  0  0  0  0  0  0  0  0  0  0  0
    0.1939   -0.5111   -4.4328 C   0  0  0  0  0  0  0  0  0  0  0  0
    0.8800    0.0943   -3.8576 H   0  0  0  0  0  0  0  0  0  0  0  0
   -0.6855   -1.3863   -3.7593 C   0  0  0  0  0  0  0  0  0  0  0  0
   -1.7617    0.8549   -0.2106 C   0  0  0  0  0  0  0  0  0  0  0  0
   -2.5726    1.1871   -1.0741 O   0  0  0  0  0  0  0  0  0  0  0  0
   -1.1941    1.7377    0.6223 N   0  0  0  0  0  0  0  0  0  0  0  0
   -0.4976    1.3916    1.2669 H   0  0  0  0  0  0  0  0  0  0  0  0
   -1.4666    3.1722    0.6095 C   0  0  0  0  0  0  0  0  0  0  0  0
   -2.5439    3.3427    0.6539 H   0  0  0  0  0  0  0  0  0  0  0  0
   -0.9893    3.6529    1.4644 H   0  0  0  0  0  0  0  0  0  0  0  0
   -1.0808    3.6095   -0.3129 H   0  0  0  0  0  0  0  0  0  0  0  0
  5  6  2  0  0  0  0
  5  7  1  0  0  0  0
  2  3  1  0  0  0  0
  2  4  1  0  0  0  0
  2  5  1  0  0  0  0
  1  2  1  0  0  0  0
 29 30  2  0  0  0  0
 29 31  1  0  0  0  0
 26 27  1  0  0  0  0
 26 28  2  0  0  0  0
 24 25  1  0  0  0  0
 24 26  1  0  0  0  0
 22 23  1  0  0  0  0
 22 24  2  0  0  0  0
 20 21  1  0  0  0  0
 20 22  1  0  0  0  0
 19 20  2  0  0  0  0
 19 28  1  0  0  0  0
 17 18  1  0  0  0  0
 17 19  1  0  0  0  0
 15 16  1  0  0  0  0
 15 17  1  0  0  0  0
 14 15  2  0  0  0  0
 14 28  1  0  0  0  0
 11 12  1  0  0  0  0
 11 13  1  0  0  0  0
 11 14  1  0  0  0  0
  9 10  1  0  0  0  0
  9 11  1  0  0  0  0
  9 29  1  0  0  0  0
  7  8  1  0  0  0  0
  7  9  1  0  0  0  0
 33 34  1  0  0  0  0
 33 35  1  0  0  0  0
 33 36  1  0  0  0  0
 31 32  1  0  0  0  0
 31 33  1  0  0  0  0
M  END
$$$$
default_name
  -OEChem-02102213163D

 36 37  0     1  0  0  0  0  0999 V2000
   -4.0843   -4.0736    1.2944 H   0  0  0  0  0  0  0  0  0  0  0  0
   -4.0342   -3.2816    0.5484 C   0  0  0  0  0  0  0  0  0  0  0  0
   -4.8842   -2.6126    0.6694 H   0  0  0  0  0  0  0  0  0  0  0  0
   -4.0433   -3.7186   -0.4486 H   0  0  0  0  0  0  0  0  0  0  0  0
   -2.7532   -2.5046    0.7444 C   0  0  0  0  0  0  0  0  0  0  0  0
   -1.9803   -2.8096    1.6434 O   0  0  0  0  0  0  0  0  0  0  0  0
   -2.5332   -1.4966   -0.0966 N   0  0  0  0  0  0  0  0  0  0  0  0
   -3.2312   -1.2816   -0.7936 H   0  0  0  0  0  0  0  0  0  0  0  0
   -1.3593   -0.6196   -0.0536 C   0  0  1  0  0  0  0  0  0  0  0  0
   -0.8788   -0.7266    0.9196 H   0  0  0  0  0  0  0  0  0  0  0  0
   -0.3559   -1.0533   -1.1339 C   0  0  0  0  0  0  0  0  0  0  0  0
    0.2182   -0.1809   -1.4511 H   0  0  0  0  0  0  0  0  0  0  0  0
    0.3431   -1.7659   -0.6926 H   0  0  0  0  0  0  0  0  0  0  0  0
   -0.9633   -1.6770   -2.3538 C   0  0  0  0  0  0  0  0  0  0  0  0
   -2.1120   -2.3893   -2.3839 C   0  0  0  0  0  0  0  0  0  0  0  0
   -2.7240   -2.6104   -1.5164 H   0  0  0  0  0  0  0  0  0  0  0  0
   -2.3891   -2.7683   -3.6828 N   0  0  0  0  0  0  0  0  0  0  0  0
   -3.1979   -3.3133   -3.9434 H   0  0  0  0  0  0  0  0  0  0  0  0
   -1.4353   -2.3018   -4.5622 C   0  0  0  0  0  0  0  0  0  0  0  0
   -1.2883   -2.3939   -5.9537 C   0  0  0  0  0  0  0  0  0  0  0  0
   -2.0186   -2.9237   -6.5474 H   0  0  0  0  0  0  0  0  0  0  0  0
   -0.1766   -1.7887   -6.5644 C   0  0  0  0  0  0  0  0  0  0  0  0
   -0.0461   -1.8502   -7.6363 H   0  0  0  0  0  0  0  0  0  0  0  0
    0.7707   -1.1077   -5.7781 C   0  0  0  0  0  0  0  0  0  0  0  0
    1.6289   -0.6507   -6.2511 H   0  0  0  0  0  0  0  0  0  0  0  0
    0.6138   -1.0232   -4.3801 C   0  0  0  0  0  0  0  0  0  0  0  0
    1.3559   -0.5085   -3.7864 H   0  0  0  0  0  0  0  0  0  0  0  0
   -0.4950   -1.6150   -3.7372 C   0  0  0  0  0  0  0  0  0  0  0  0
   -1.7617    0.8549   -0.2106 C   0  0  0  0  0  0  0  0  0  0  0  0
   -2.5726    1.1871   -1.0741 O   0  0  0  0  0  0  0  0  0  0  0  0
   -1.1941    1.7377    0.6223 N   0  0  0  0  0  0  0  0  0  0  0  0
   -0.4976    1.3916    1.2669 H   0  0  0  0  0  0  0  0  0  0  0  0
   -1.4666    3.1722    0.6095 C   0  0  0  0  0  0  0  0  0  0  0  0
   -2.5439    3.3427    0.6539 H   0  0  0  0  0  0  0  0  0  0  0  0
   -0.9893    3.6529    1.4644 H   0  0  0  0  0  0  0  0  0  0  0  0
   -1.0808    3.6095   -0.3129 H   0  0  0  0  0  0  0  0  0  0  0  0
  5  6  2  0  0  0  0
  5  7  1  0  0  0  0
  2  3  1  0  0  0  0
  2  4  1  0  0  0  0
  2  5  1  0  0  0  0
  1  2  1  0  0  0  0
 29 30  2  0  0  0  0
 29 31  1  0  0  0  0
 26 27  1  0  0  0  0
 26 28  2  0  0  0  0
 24 25  1  0  0  0  0
 24 26  1  0  0  0  0
 22 23  1  0  0  0  0
 22 24  2  0  0  0  0
 20 21  1  0  0  0  0
 20 22  1  0  0  0  0
 19 20  2  0  0  0  0
 19 28  1  0  0  0  0
 17 18  1  0  0  0  0
 17 19  1  0  0  0  0
 15 16  1  0  0  0  0
 15 17  1  0  0  0  0
 14 15  2  0  0  0  0
 14 28  1  0  0  0  0
 11 12  1  0  0  0  0
 11 13  1  0  0  0  0
 11 14  1  0  0  0  0
  9 10  1  0  0  0  0
  9 11  1  0  0  0  0
  9 29  1  0  0  0  0
  7  8  1  0  0  0  0
  7  9  1  0  0  0  0
 33 34  1  0  0  0  0
 33 35  1  0  0  0  0
 33 36  1  0  0  0  0
 31 32  1  0  0  0  0
 31 33  1  0  0  0  0
M  END
$$$$
default_name
  -OEChem-02102213163D

 36 37  0     1  0  0  0  0  0999 V2000
   -4.0843   -4.0736    1.2944 H   0  0  0  0  0  0  0  0  0  0  0  0
   -4.0342   -3.2816    0.5484 C   0  0  0  0  0  0  0  0  0  0  0  0
   -4.8842   -2.6126    0.6694 H   0  0  0  0  0  0  0  0  0  0  0  0
   -4.0433   -3.7186   -0.4486 H   0  0  0  0  0  0  0  0  0  0  0  0
   -2.7532   -2.5046    0.7444 C   0  0  0  0  0  0  0  0  0  0  0  0
   -1.9803   -2.8096    1.6434 O   0  0  0  0  0  0  0  0  0  0  0  0
   -2.5332   -1.4966   -0.0966 N   0  0  0  0  0  0  0  0  0  0  0  0
   -3.2312   -1.2816   -0.7936 H   0  0  0  0  0  0  0  0  0  0  0  0
   -1.3593   -0.6196   -0.0536 C   0  0  1  0  0  0  0  0  0  0  0  0
   -0.8788   -0.7266    0.9196 H   0  0  0  0  0  0  0  0  0  0  0  0
   -0.3559   -1.0533   -1.1339 C   0  0  0  0  0  0  0  0  0  0  0  0
    0.2182   -0.1809   -1.4511 H   0  0  0  0  0  0  0  0  0  0  0  0
    0.3431   -1.7659   -0.6926 H   0  0  0  0  0  0  0  0  0  0  0  0
   -0.9633   -1.6770   -2.3538 C   0  0  0  0  0  0  0  0  0  0  0  0
   -2.2305   -2.1373   -2.4537 C   0  0  0  0  0  0  0  0  0  0  0  0
   -2.9567   -2.1258   -1.6483 H   0  0  0  0  0  0  0  0  0  0  0  0
   -2.4565   -2.6001   -3.7352 N   0  0  0  0  0  0  0  0  0  0  0  0
   -3.3351   -2.9944   -4.0382 H   0  0  0  0  0  0  0  0  0  0  0  0
   -1.3440   -2.4446   -4.5346 C   0  0  0  0  0  0  0  0  0  0  0  0
   -1.0869   -2.7263   -5.8840 C   0  0  0  0  0  0  0  0  0  0  0  0
   -1.8538   -3.1607   -6.5083 H   0  0  0  0  0  0  0  0  0  0  0  0
    0.1830   -2.4371   -6.4120 C   0  0  0  0  0  0  0  0  0  0  0  0
    0.3999   -2.6485   -7.4503 H   0  0  0  0  0  0  0  0  0  0  0  0
    1.1749   -1.8778   -5.5856 C   0  0  0  0  0  0  0  0  0  0  0  0
    2.1531   -1.6646   -5.9938 H   0  0  0  0  0  0  0  0  0  0  0  0
    0.9059   -1.6007   -4.2302 C   0  0  0  0  0  0  0  0  0  0  0  0
    1.6809   -1.1835   -3.6031 H   0  0  0  0  0  0  0  0  0  0  0  0
   -0.3614   -1.8739   -3.6714 C   0  0  0  0  0  0  0  0  0  0  0  0
   -1.7617    0.8549   -0.2106 C   0  0  0  0  0  0  0  0  0  0  0  0
   -2.5726    1.1871   -1.0741 O   0  0  0  0  0  0  0  0  0  0  0  0
   -1.1941    1.7377    0.6223 N   0  0  0  0  0  0  0  0  0  0  0  0
   -0.4976    1.3916    1.2669 H   0  0  0  0  0  0  0  0  0  0  0  0
   -1.4666    3.1722    0.6095 C   0  0  0  0  0  0  0  0  0  0  0  0
   -2.5439    3.3427    0.6539 H   0  0  0  0  0  0  0  0  0  0  0  0
   -0.9893    3.6529    1.4644 H   0  0  0  0  0  0  0  0  0  0  0  0
   -1.0808    3.6095   -0.3129 H   0  0  0  0  0  0  0  0  0  0  0  0
  5  6  2  0  0  0  0
  5  7  1  0  0  0  0
  2  3  1  0  0  0  0
  2  4  1  0  0  0  0
  2  5  1  0  0  0  0
  1  2  1  0  0  0  0
 29 30  2  0  0  0  0
 29 31  1  0  0  0  0
 26 27  1  0  0  0  0
 26 28  2  0  0  0  0
 24 25  1  0  0  0  0
 24 26  1  0  0  0  0
 22 23  1  0  0  0  0
 22 24  2  0  0  0  0
 20 21  1  0  0  0  0
 20 22  1  0  0  0  0
 19 20  2  0  0  0  0
 19 28  1  0  0  0  0
 17 18  1  0  0  0  0
 17 19  1  0  0  0  0
 15 16  1  0  0  0  0
 15 17  1  0  0  0  0
 14 15  2  0  0  0  0
 14 28  1  0  0  0  0
 11 12  1  0  0  0  0
 11 13  1  0  0  0  0
 11 14  1  0  0  0  0
  9 10  1  0  0  0  0
  9 11  1  0  0  0  0
  9 29  1  0  0  0  0
  7  8  1  0  0  0  0
  7  9  1  0  0  0  0
 33 34  1  0  0  0  0
 33 35  1  0  0  0  0
 33 36  1  0  0  0  0
 31 32  1  0  0  0  0
 31 33  1  0  0  0  0
M  END
$$$$
default_name
  -OEChem-02102213163D

 36 37  0     1  0  0  0  0  0999 V2000
   -4.0843   -4.0736    1.2944 H   0  0  0  0  0  0  0  0  0  0  0  0
   -4.0342   -3.2816    0.5484 C   0  0  0  0  0  0  0  0  0  0  0  0
   -4.8842   -2.6126    0.6694 H   0  0  0  0  0  0  0  0  0  0  0  0
   -4.0433   -3.7186   -0.4486 H   0  0  0  0  0  0  0  0  0  0  0  0
   -2.7532   -2.5046    0.7444 C   0  0  0  0  0  0  0  0  0  0  0  0
   -1.9803   -2.8096    1.6434 O   0  0  0  0  0  0  0  0  0  0  0  0
   -2.5332   -1.4966   -0.0966 N   0  0  0  0  0  0  0  0  0  0  0  0
   -3.2312   -1.2816   -0.7936 H   0  0  0  0  0  0  0  0  0  0  0  0
   -1.3593   -0.6196   -0.0536 C   0  0  1  0  0  0  0  0  0  0  0  0
   -0.8788   -0.7266    0.9196 H   0  0  0  0  0  0  0  0  0  0  0  0
   -0.3559   -1.0533   -1.1339 C   0  0  0  0  0  0  0  0  0  0  0  0
    0.2182   -0.1809   -1.4511 H   0  0  0  0  0  0  0  0  0  0  0  0
    0.3431   -1.7659   -0.6926 H   0  0  0  0  0  0  0  0  0  0  0  0
   -0.9633   -1.6770   -2.3538 C   0  0  0  0  0  0  0  0  0  0  0  0
   -2.2844   -1.8763   -2.5603 C   0  0  0  0  0  0  0  0  0  0  0  0
   -3.0651   -1.6225   -1.8517 H   0  0  0  0  0  0  0  0  0  0  0  0
   -2.4805   -2.4290   -3.8108 N   0  0  0  0  0  0  0  0  0  0  0  0
   -3.3902   -2.6674   -4.1779 H   0  0  0  0  0  0  0  0  0  0  0  0
   -1.2890   -2.5989   -4.4832 C   0  0  0  0  0  0  0  0  0  0  0  0
   -0.9699   -3.0825   -5.7602 C   0  0  0  0  0  0  0  0  0  0  0  0
   -1.7488   -3.4202   -6.4280 H   0  0  0  0  0  0  0  0  0  0  0  0
    0.3773   -3.1231   -6.1580 C   0  0  0  0  0  0  0  0  0  0  0  0
    0.6424   -3.4939   -7.1389 H   0  0  0  0  0  0  0  0  0  0  0  0
    1.3823   -2.6867   -5.2754 C   0  0  0  0  0  0  0  0  0  0  0  0
    2.4182   -2.7275   -5.5824 H   0  0  0  0  0  0  0  0  0  0  0  0
    1.0501   -2.2044   -3.9934 C   0  0  0  0  0  0  0  0  0  0  0  0
    1.8330   -1.8847   -3.3203 H   0  0  0  0  0  0  0  0  0  0  0  0
   -0.2941   -2.1451   -3.5662 C   0  0  0  0  0  0  0  0  0  0  0  0
   -1.7617    0.8549   -0.2106 C   0  0  0  0  0  0  0  0  0  0  0  0
   -2.5726    1.1871   -1.0741 O   0  0  0  0  0  0  0  0  0  0  0  0
   -1.1941    1.7377    0.6223 N   0  0  0  0  0  0  0  0  0  0  0  0
   -0.4976    1.3916    1.2669 H   0  0  0  0  0  0  0  0  0  0  0  0
   -1.4666    3.1722    0.6095 C   0  0  0  0  0  0  0  0  0  0  0  0
   -2.5439    3.3427    0.6539 H   0  0  0  0  0  0  0  0  0  0  0  0
   -0.9893    3.6529    1.4644 H   0  0  0  0  0  0  0  0  0  0  0  0
   -1.0808    3.6095   -0.3129 H   0  0  0  0  0  0  0  0  0  0  0  0
  5  6  2  0  0  0  0
  5  7  1  0  0  0  0
  2  3  1  0  0  0  0
  2  4  1  0  0  0  0
  2  5  1  0  0  0  0
  1  2  1  0  0  0  0
 29 30  2  0  0  0  0
 29 31  1  0  0  0  0
 26 27  1  0  0  0  0
 26 28  2  0  0  0  0
 24 25  1  0  0  0  0
 24 26  1  0  0  0  0
 22 23  1  0  0  0  0
 22 24  2  0  0  0  0
 20 21  1  0  0  0  0
 20 22  1  0  0  0  0
 19 20  2  0  0  0  0
 19 28  1  0  0  0  0
 17 18  1  0  0  0  0
 17 19  1  0  0  0  0
 15 16  1  0  0  0  0
 15 17  1  0  0  0  0
 14 15  2  0  0  0  0
 14 28  1  0  0  0  0
 11 12  1  0  0  0  0
 11 13  1  0  0  0  0
 11 14  1  0  0  0  0
  9 10  1  0  0  0  0
  9 11  1  0  0  0  0
  9 29  1  0  0  0  0
  7  8  1  0  0  0  0
  7  9  1  0  0  0  0
 33 34  1  0  0  0  0
 33 35  1  0  0  0  0
 33 36  1  0  0  0  0
 31 32  1  0  0  0  0
 31 33  1  0  0  0  0
M  END
$$$$
default_name
  -OEChem-02102213163D

 36 37  0     1  0  0  0  0  0999 V2000
   -4.0843   -4.0736    1.2944 H   0  0  0  0  0  0  0  0  0  0  0  0
   -4.0342   -3.2816    0.5484 C   0  0  0  0  0  0  0  0  0  0  0  0
   -4.8842   -2.6126    0.6694 H   0  0  0  0  0  0  0  0  0  0  0  0
   -4.0433   -3.7186   -0.4486 H   0  0  0  0  0  0  0  0  0  0  0  0
   -2.7532   -2.5046    0.7444 C   0  0  0  0  0  0  0  0  0  0  0  0
   -1.9803   -2.8096    1.6434 O   0  0  0  0  0  0  0  0  0  0  0  0
   -2.5332   -1.4966   -0.0966 N   0  0  0  0  0  0  0  0  0  0  0  0
   -3.2312   -1.2816   -0.7936 H   0  0  0  0  0  0  0  0  0  0  0  0
   -1.3593   -0.6196   -0.0536 C   0  0  1  0  0  0  0  0  0  0  0  0
   -0.8788   -0.7266    0.9196 H   0  0  0  0  0  0  0  0  0  0  0  0
   -0.3559   -1.0533   -1.1339 C   0  0  0  0  0  0  0  0  0  0  0  0
    0.2182   -0.1809   -1.4511 H   0  0  0  0  0  0  0  0  0  0  0  0
    0.3431   -1.7659   -0.6926 H   0  0  0  0  0  0  0  0  0  0  0  0
   -0.9633   -1.6770   -2.3538 C   0  0  0  0  0  0  0  0  0  0  0  0
   -2.2700   -1.6241   -2.6965 C   0  0  0  0  0  0  0  0  0  0  0  0
   -3.0419   -1.1349   -2.1125 H   0  0  0  0  0  0  0  0  0  0  0  0
   -2.4595   -2.2666   -3.9043 N   0  0  0  0  0  0  0  0  0  0  0  0
   -3.3595   -2.3546   -4.3532 H   0  0  0  0  0  0  0  0  0  0  0  0
   -1.2738   -2.7542   -4.4113 C   0  0  0  0  0  0  0  0  0  0  0  0
   -0.9453   -3.4382   -5.5906 C   0  0  0  0  0  0  0  0  0  0  0  0
   -1.7107   -3.6846   -6.3118 H   0  0  0  0  0  0  0  0  0  0  0  0
    0.3932   -3.8001   -5.8198 C   0  0  0  0  0  0  0  0  0  0  0  0
    0.6651   -4.3290   -6.7232 H   0  0  0  0  0  0  0  0  0  0  0  0
    1.3788   -3.4791   -4.8685 C   0  0  0  0  0  0  0  0  0  0  0  0
    2.4060   -3.7668   -5.0450 H   0  0  0  0  0  0  0  0  0  0  0  0
    1.0368   -2.7931   -3.6858 C   0  0  0  0  0  0  0  0  0  0  0  0
    1.8016   -2.5645   -2.9572 H   0  0  0  0  0  0  0  0  0  0  0  0
   -0.2975   -2.4102   -3.4290 C   0  0  0  0  0  0  0  0  0  0  0  0
   -1.7617    0.8549   -0.2106 C   0  0  0  0  0  0  0  0  0  0  0  0
   -2.5726    1.1871   -1.0741 O   0  0  0  0  0  0  0  0  0  0  0  0
   -1.1941    1.7377    0.6223 N   0  0  0  0  0  0  0  0  0  0  0  0
   -0.4976    1.3916    1.2669 H   0  0  0  0  0  0  0  0  0  0  0  0
   -1.4666    3.1722    0.6095 C   0  0  0  0  0  0  0  0  0  0  0  0
   -2.5439    3.3427    0.6539 H   0  0  0  0  0  0  0  0  0  0  0  0
   -0.9893    3.6529    1.4644 H   0  0  0  0  0  0  0  0  0  0  0  0
   -1.0808    3.6095   -0.3129 H   0  0  0  0  0  0  0  0  0  0  0  0
  5  6  2  0  0  0  0
  5  7  1  0  0  0  0
  2  3  1  0  0  0  0
  2  4  1  0  0  0  0
  2  5  1  0  0  0  0
  1  2  1  0  0  0  0
 29 30  2  0  0  0  0
 29 31  1  0  0  0  0
 26 27  1  0  0  0  0
 26 28  2  0  0  0  0
 24 25  1  0  0  0  0
 24 26  1  0  0  0  0
 22 23  1  0  0  0  0
 22 24  2  0  0  0  0
 20 21  1  0  0  0  0
 20 22  1  0  0  0  0
 19 20  2  0  0  0  0
 19 28  1  0  0  0  0
 17 18  1  0  0  0  0
 17 19  1  0  0  0  0
 15 16  1  0  0  0  0
 15 17  1  0  0  0  0
 14 15  2  0  0  0  0
 14 28  1  0  0  0  0
 11 12  1  0  0  0  0
 11 13  1  0  0  0  0
 11 14  1  0  0  0  0
  9 10  1  0  0  0  0
  9 11  1  0  0  0  0
  9 29  1  0  0  0  0
  7  8  1  0  0  0  0
  7  9  1  0  0  0  0
 33 34  1  0  0  0  0
 33 35  1  0  0  0  0
 33 36  1  0  0  0  0
 31 32  1  0  0  0  0
 31 33  1  0  0  0  0
M  END
$$$$
default_name
  -OEChem-02102213163D

 36 37  0     1  0  0  0  0  0999 V2000
   -4.0843   -4.0736    1.2944 H   0  0  0  0  0  0  0  0  0  0  0  0
   -4.0342   -3.2816    0.5484 C   0  0  0  0  0  0  0  0  0  0  0  0
   -4.8842   -2.6126    0.6694 H   0  0  0  0  0  0  0  0  0  0  0  0
   -4.0433   -3.7186   -0.4486 H   0  0  0  0  0  0  0  0  0  0  0  0
   -2.7532   -2.5046    0.7444 C   0  0  0  0  0  0  0  0  0  0  0  0
   -1.9803   -2.8096    1.6434 O   0  0  0  0  0  0  0  0  0  0  0  0
   -2.5332   -1.4966   -0.0966 N   0  0  0  0  0  0  0  0  0  0  0  0
   -3.2312   -1.2816   -0.7936 H   0  0  0  0  0  0  0  0  0  0  0  0
   -1.3593   -0.6196   -0.0536 C   0  0  1  0  0  0  0  0  0  0  0  0
   -0.8788   -0.7266    0.9196 H   0  0  0  0  0  0  0  0  0  0  0  0
   -0.3559   -1.0533   -1.1339 C   0  0  0  0  0  0  0  0  0  0  0  0
    0.2182   -0.1809   -1.4511 H   0  0  0  0  0  0  0  0  0  0  0  0
    0.3431   -1.7659   -0.6926 H   0  0  0  0  0  0  0  0  0  0  0  0
   -0.9633   -1.6770   -2.3538 C   0  0  0  0  0  0  0  0  0  0  0  0
   -2.1883   -1.3977   -2.8529 C   0  0  0  0  0  0  0  0  0  0  0  0
   -2.8887   -0.6961   -2.4131 H   0  0  0  0  0  0  0  0  0  0  0  0
   -2.3949   -2.1239   -4.0094 N   0  0  0  0  0  0  0  0  0  0  0  0
   -3.2450   -2.0773   -4.5519 H   0  0  0  0  0  0  0  0  0  0  0  0
   -1.2996   -2.8998   -4.3240 C   0  0  0  0  0  0  0  0  0  0  0  0
   -1.0147   -3.7692   -5.3868 C   0  0  0  0  0  0  0  0  0  0  0  0
   -1.7420   -3.9357   -6.1677 H   0  0  0  0  0  0  0  0  0  0  0  0
    0.2294   -4.4218   -5.4203 C   0  0  0  0  0  0  0  0  0  0  0  0
    0.4663   -5.0968   -6.2317 H   0  0  0  0  0  0  0  0  0  0  0  0
    1.1647   -4.2011   -4.3928 C   0  0  0  0  0  0  0  0  0  0  0  0
    2.1174   -4.7117   -4.4181 H   0  0  0  0  0  0  0  0  0  0  0  0
    0.8668   -3.3266   -3.3284 C   0  0  0  0  0  0  0  0  0  0  0  0
    1.5890   -3.1763   -2.5385 H   0  0  0  0  0  0  0  0  0  0  0  0
   -0.3714   -2.6512   -3.2690 C   0  0  0  0  0  0  0  0  0  0  0  0
   -1.7617    0.8549   -0.2106 C   0  0  0  0  0  0  0  0  0  0  0  0
   -2.5726    1.1871   -1.0741 O   0  0  0  0  0  0  0  0  0  0  0  0
   -1.1941    1.7377    0.6223 N   0  0  0  0  0  0  0  0  0  0  0  0
   -0.4976    1.3916    1.2669 H   0  0  0  0  0  0  0  0  0  0  0  0
   -1.4666    3.1722    0.6095 C   0  0  0  0  0  0  0  0  0  0  0  0
   -2.5439    3.3427    0.6539 H   0  0  0  0  0  0  0  0  0  0  0  0
   -0.9893    3.6529    1.4644 H   0  0  0  0  0  0  0  0  0  0  0  0
   -1.0808    3.6095   -0.3129 H   0  0  0  0  0  0  0  0  0  0  0  0
  5  6  2  0  0  0  0
  5  7  1  0  0  0  0
  2  3  1  0  0  0  0
  2  4  1  0  0  0  0
  2  5  1  0  0  0  0
  1  2  1  0  0  0  0
 29 30  2  0  0  0  0
 29 31  1  0  0  0  0
 26 27  1  0  0  0  0
 26 28  2  0  0  0  0
 24 25  1  0  0  0  0
 24 26  1  0  0  0  0
 22 23  1  0  0  0  0
 22 24  2  0  0  0  0
 20 21  1  0  0  0  0
 20 22  1  0  0  0  0
 19 20  2  0  0  0  0
 19 28  1  0  0  0  0
 17 18  1  0  0  0  0
 17 19  1  0  0  0  0
 15 16  1  0  0  0  0
 15 17  1  0  0  0  0
 14 15  2  0  0  0  0
 14 28  1  0  0  0  0
 11 12  1  0  0  0  0
 11 13  1  0  0  0  0
 11 14  1  0  0  0  0
  9 10  1  0  0  0  0
  9 11  1  0  0  0  0
  9 29  1  0  0  0  0
  7  8  1  0  0  0  0
  7  9  1  0  0  0  0
 33 34  1  0  0  0  0
 33 35  1  0  0  0  0
 33 36  1  0  0  0  0
 31 32  1  0  0  0  0
 31 33  1  0  0  0  0
M  END
$$$$
default_name
  -OEChem-02102213163D

 36 37  0     1  0  0  0  0  0999 V2000
   -4.0843   -4.0736    1.2944 H   0  0  0  0  0  0  0  0  0  0  0  0
   -4.0342   -3.2816    0.5484 C   0  0  0  0  0  0  0  0  0  0  0  0
   -4.8842   -2.6126    0.6694 H   0  0  0  0  0  0  0  0  0  0  0  0
   -4.0433   -3.7186   -0.4486 H   0  0  0  0  0  0  0  0  0  0  0  0
   -2.7532   -2.5046    0.7444 C   0  0  0  0  0  0  0  0  0  0  0  0
   -1.9803   -2.8096    1.6434 O   0  0  0  0  0  0  0  0  0  0  0  0
   -2.5332   -1.4966   -0.0966 N   0  0  0  0  0  0  0  0  0  0  0  0
   -3.2312   -1.2816   -0.7936 H   0  0  0  0  0  0  0  0  0  0  0  0
   -1.3593   -0.6196   -0.0536 C   0  0  1  0  0  0  0  0  0  0  0  0
   -0.8788   -0.7266    0.9196 H   0  0  0  0  0  0  0  0  0  0  0  0
   -0.3559   -1.0533   -1.1339 C   0  0  0  0  0  0  0  0  0  0  0  0
    0.2182   -0.1809   -1.4511 H   0  0  0  0  0  0  0  0  0  0  0  0
    0.3431   -1.7659   -0.6926 H   0  0  0  0  0  0  0  0  0  0  0  0
   -0.9633   -1.6770   -2.3538 C   0  0  0  0  0  0  0  0  0  0  0  0
   -2.0448   -1.2127   -3.0189 C   0  0  0  0  0  0  0  0  0  0  0  0
   -2.6158   -0.3361   -2.7330 H   0  0  0  0  0  0  0  0  0  0  0  0
   -2.2912   -2.0107   -4.1189 N   0  0  0  0  0  0  0  0  0  0  0  0
   -3.0546   -1.8544   -4.7607 H   0  0  0  0  0  0  0  0  0  0  0  0
   -1.3646   -3.0259   -4.2272 C   0  0  0  0  0  0  0  0  0  0  0  0
   -1.1735   -4.0529   -5.1627 C   0  0  0  0  0  0  0  0  0  0  0  0
   -1.8408   -4.1567   -6.0056 H   0  0  0  0  0  0  0  0  0  0  0  0
   -0.1028   -4.9460   -4.9869 C   0  0  0  0  0  0  0  0  0  0  0  0
    0.0595   -5.7449   -5.6978 H   0  0  0  0  0  0  0  0  0  0  0  0
    0.7545   -4.8035   -3.8805 C   0  0  0  0  0  0  0  0  0  0  0  0
    1.5720   -5.4979   -3.7446 H   0  0  0  0  0  0  0  0  0  0  0  0
    0.5517   -3.7687   -2.9455 C   0  0  0  0  0  0  0  0  0  0  0  0
    1.2097   -3.6786   -2.0928 H   0  0  0  0  0  0  0  0  0  0  0  0
   -0.5108   -2.8516   -3.0971 C   0  0  0  0  0  0  0  0  0  0  0  0
   -1.7617    0.8549   -0.2106 C   0  0  0  0  0  0  0  0  0  0  0  0
   -2.5726    1.1871   -1.0741 O   0  0  0  0  0  0  0  0  0  0  0  0
   -1.1941    1.7377    0.6223 N   0  0  0  0  0  0  0  0  0  0  0  0
   -0.4976    1.3916    1.2669 H   0  0  0  0  0  0  0  0  0  0  0  0
   -1.4666    3.1722    0.6095 C   0  0  0  0  0  0  0  0  0  0  0  0
   -2.5439    3.3427    0.6539 H   0  0  0  0  0  0  0  0  0  0  0  0
   -0.9893    3.6529    1.4644 H   0  0  0  0  0  0  0  0  0  0  0  0
   -1.0808    3.6095   -0.3129 H   0  0  0  0  0  0  0  0  0  0  0  0
  5  6  2  0  0  0  0
  5  7  1  0  0  0  0
  2  3  1  0  0  0  0
  2  4  1  0  0  0  0
  2  5  1  0  0  0  0
  1  2  1  0  0  0  0
 29 30  2  0  0  0  0
 29 31  1  0  0  0  0
 26 27  1  0  0  0  0
 26 28  2  0  0  0  0
 24 25  1  0  0  0  0
 24 26  1  0  0  0  0
 22 23  1  0  0  0  0
 22 24  2  0  0  0  0
 20 21  1  0  0  0  0
 20 22  1  0  0  0  0
 19 20  2  0  0  0  0
 19 28  1  0  0  0  0
 17 18  1  0  0  0  0
 17 19  1  0  0  0  0
 15 16  1  0  0  0  0
 15 17  1  0  0  0  0
 14 15  2  0  0  0  0
 14 28  1  0  0  0  0
 11 12  1  0  0  0  0
 11 13  1  0  0  0  0
 11 14  1  0  0  0  0
  9 10  1  0  0  0  0
  9 11  1  0  0  0  0
  9 29  1  0  0  0  0
  7  8  1  0  0  0  0
  7  9  1  0  0  0  0
 33 34  1  0  0  0  0
 33 35  1  0  0  0  0
 33 36  1  0  0  0  0
 31 32  1  0  0  0  0
 31 33  1  0  0  0  0
M  END
$$$$
default_name
  -OEChem-02102213163D

 36 37  0     1  0  0  0  0  0999 V2000
   -4.0843   -4.0736    1.2944 H   0  0  0  0  0  0  0  0  0  0  0  0
   -4.0342   -3.2816    0.5484 C   0  0  0  0  0  0  0  0  0  0  0  0
   -4.8842   -2.6126    0.6694 H   0  0  0  0  0  0  0  0  0  0  0  0
   -4.0433   -3.7186   -0.4486 H   0  0  0  0  0  0  0  0  0  0  0  0
   -2.7532   -2.5046    0.7444 C   0  0  0  0  0  0  0  0  0  0  0  0
   -1.9803   -2.8096    1.6434 O   0  0  0  0  0  0  0  0  0  0  0  0
   -2.5332   -1.4966   -0.0966 N   0  0  0  0  0  0  0  0  0  0  0  0
   -3.2312   -1.2816   -0.7936 H   0  0  0  0  0  0  0  0  0  0  0  0
   -1.3593   -0.6196   -0.0536 C   0  0  1  0  0  0  0  0  0  0  0  0
   -0.8788   -0.7266    0.9196 H   0  0  0  0  0  0  0  0  0  0  0  0
   -0.3559   -1.0533   -1.1339 C   0  0  0  0  0  0  0  0  0  0  0  0
    0.2182   -0.1809   -1.4511 H   0  0  0  0  0  0  0  0  0  0  0  0
    0.3431   -1.7659   -0.6926 H   0  0  0  0  0  0  0  0  0  0  0  0
   -0.9633   -1.6770   -2.3538 C   0  0  0  0  0  0  0  0  0  0  0  0
   -1.8493   -1.0816   -3.1833 C   0  0  0  0  0  0  0  0  0  0  0  0
   -2.2420   -0.0794   -3.0504 H   0  0  0  0  0  0  0  0  0  0  0  0
   -2.1553   -1.9348   -4.2254 N   0  0  0  0  0  0  0  0  0  0  0  0
   -2.8013   -1.7012   -4.9652 H   0  0  0  0  0  0  0  0  0  0  0  0
   -1.4644   -3.1238   -4.1275 C   0  0  0  0  0  0  0  0  0  0  0  0
   -1.4107   -4.2699   -4.9336 C   0  0  0  0  0  0  0  0  0  0  0  0
   -2.0002   -4.3322   -5.8365 H   0  0  0  0  0  0  0  0  0  0  0  0
   -0.5808   -5.3369   -4.5491 C   0  0  0  0  0  0  0  0  0  0  0  0
   -0.5274   -6.2293   -5.1578 H   0  0  0  0  0  0  0  0  0  0  0  0
    0.1762   -5.2452   -3.3667 C   0  0  0  0  0  0  0  0  0  0  0  0
    0.8071   -6.0718   -3.0703 H   0  0  0  0  0  0  0  0  0  0  0  0
    0.1130   -4.0891   -2.5632 C   0  0  0  0  0  0  0  0  0  0  0  0
    0.6894   -4.0371   -1.6505 H   0  0  0  0  0  0  0  0  0  0  0  0
   -0.7062   -2.9978   -2.9251 C   0  0  0  0  0  0  0  0  0  0  0  0
   -1.7617    0.8549   -0.2106 C   0  0  0  0  0  0  0  0  0  0  0  0
   -2.5726    1.1871   -1.0741 O   0  0  0  0  0  0  0  0  0  0  0  0
   -1.1941    1.7377    0.6223 N   0  0  0  0  0  0  0  0  0  0  0  0
   -0.4976    1.3916    1.2669 H   0  0  0  0  0  0  0  0  0  0  0  0
   -1.4666    3.1722    0.6095 C   0  0  0  0  0  0  0  0  0  0  0  0
   -2.5439    3.3427    0.6539 H   0  0  0  0  0  0  0  0  0  0  0  0
   -0.9893    3.6529    1.4644 H   0  0  0  0  0  0  0  0  0  0  0  0
   -1.0808    3.6095   -0.3129 H   0  0  0  0  0  0  0  0  0  0  0  0
  5  6  2  0  0  0  0
  5  7  1  0  0  0  0
  2  3  1  0  0  0  0
  2  4  1  0  0  0  0
  2  5  1  0  0  0  0
  1  2  1  0  0  0  0
 29 30  2  0  0  0  0
 29 31  1  0  0  0  0
 26 27  1  0  0  0  0
 26 28  2  0  0  0  0
 24 25  1  0  0  0  0
 24 26  1  0  0  0  0
 22 23  1  0  0  0  0
 22 24  2  0  0  0  0
 20 21  1  0  0  0  0
 20 22  1  0  0  0  0
 19 20  2  0  0  0  0
 19 28  1  0  0  0  0
 17 18  1  0  0  0  0
 17 19  1  0  0  0  0
 15 16  1  0  0  0  0
 15 17  1  0  0  0  0
 14 15  2  0  0  0  0
 14 28  1  0  0  0  0
 11 12  1  0  0  0  0
 11 13  1  0  0  0  0
 11 14  1  0  0  0  0
  9 10  1  0  0  0  0
  9 11  1  0  0  0  0
  9 29  1  0  0  0  0
  7  8  1  0  0  0  0
  7  9  1  0  0  0  0
 33 34  1  0  0  0  0
 33 35  1  0  0  0  0
 33 36  1  0  0  0  0
 31 32  1  0  0  0  0
 31 33  1  0  0  0  0
M  END
$$$$
default_name
  -OEChem-02102213163D

 36 37  0     1  0  0  0  0  0999 V2000
   -4.0843   -4.0736    1.2944 H   0  0  0  0  0  0  0  0  0  0  0  0
   -4.0342   -3.2816    0.5484 C   0  0  0  0  0  0  0  0  0  0  0  0
   -4.8842   -2.6126    0.6694 H   0  0  0  0  0  0  0  0  0  0  0  0
   -4.0433   -3.7186   -0.4486 H   0  0  0  0  0  0  0  0  0  0  0  0
   -2.7532   -2.5046    0.7444 C   0  0  0  0  0  0  0  0  0  0  0  0
   -1.9803   -2.8096    1.6434 O   0  0  0  0  0  0  0  0  0  0  0  0
   -2.5332   -1.4966   -0.0966 N   0  0  0  0  0  0  0  0  0  0  0  0
   -3.2312   -1.2816   -0.7936 H   0  0  0  0  0  0  0  0  0  0  0  0
   -1.3593   -0.6196   -0.0536 C   0  0  1  0  0  0  0  0  0  0  0  0
   -0.8788   -0.7266    0.9196 H   0  0  0  0  0  0  0  0  0  0  0  0
   -0.3559   -1.0533   -1.1339 C   0  0  0  0  0  0  0  0  0  0  0  0
    0.2182   -0.1809   -1.4511 H   0  0  0  0  0  0  0  0  0  0  0  0
    0.3431   -1.7659   -0.6926 H   0  0  0  0  0  0  0  0  0  0  0  0
   -0.9633   -1.6770   -2.3538 C   0  0  0  0  0  0  0  0  0  0  0  0
   -1.6152   -1.0134   -3.3347 C   0  0  0  0  0  0  0  0  0  0  0  0
   -1.7927    0.0565   -3.3437 H   0  0  0  0  0  0  0  0  0  0  0  0
   -1.9966   -1.9012   -4.3216 N   0  0  0  0  0  0  0  0  0  0  0  0
   -2.5023   -1.6279   -5.1515 H   0  0  0  0  0  0  0  0  0  0  0  0
   -1.5921   -3.1869   -4.0316 C   0  0  0  0  0  0  0  0  0  0  0  0
   -1.7103   -4.4056   -4.7150 C   0  0  0  0  0  0  0  0  0  0  0  0
   -2.2093   -4.4505   -5.6719 H   0  0  0  0  0  0  0  0  0  0  0  0
   -1.1719   -5.5678   -4.1366 C   0  0  0  0  0  0  0  0  0  0  0  0
   -1.2545   -6.5169   -4.6487 H   0  0  0  0  0  0  0  0  0  0  0  0
   -0.5307   -5.4962   -2.8864 C   0  0  0  0  0  0  0  0  0  0  0  0
   -0.1253   -6.3942   -2.4412 H   0  0  0  0  0  0  0  0  0  0  0  0
   -0.4195   -4.2661   -2.2075 C   0  0  0  0  0  0  0  0  0  0  0  0
    0.0637   -4.2274   -1.2416 H   0  0  0  0  0  0  0  0  0  0  0  0
   -0.9443   -3.0798   -2.7646 C   0  0  0  0  0  0  0  0  0  0  0  0
   -1.7617    0.8549   -0.2106 C   0  0  0  0  0  0  0  0  0  0  0  0
   -2.5726    1.1871   -1.0741 O   0  0  0  0  0  0  0  0  0  0  0  0
   -1.1941    1.7377    0.6223 N   0  0  0  0  0  0  0  0  0  0  0  0
   -0.4976    1.3916    1.2669 H   0  0  0  0  0  0  0  0  0  0  0  0
   -1.4666    3.1722    0.6095 C   0  0  0  0  0  0  0  0  0  0  0  0
   -2.5439    3.3427    0.6539 H   0  0  0  0  0  0  0  0  0  0  0  0
   -0.9893    3.6529    1.4644 H   0  0  0  0  0  0  0  0  0  0  0  0
   -1.0808    3.6095   -0.3129 H   0  0  0  0  0  0  0  0  0  0  0  0
  5  6  2  0  0  0  0
  5  7  1  0  0  0  0
  2  3  1  0  0  0  0
  2  4  1  0  0  0  0
  2  5  1  0  0  0  0
  1  2  1  0  0  0  0
 29 30  2  0  0  0  0
 29 31  1  0  0  0  0
 26 27  1  0  0  0  0
 26 28  2  0  0  0  0
 24 25  1  0  0  0  0
 24 26  1  0  0  0  0
 22 23  1  0  0  0  0
 22 24  2  0  0  0  0
 20 21  1  0  0  0  0
 20 22  1  0  0  0  0
 19 20  2  0  0  0  0
 19 28  1  0  0  0  0
 17 18  1  0  0  0  0
 17 19  1  0  0  0  0
 15 16  1  0  0  0  0
 15 17  1  0  0  0  0
 14 15  2  0  0  0  0
 14 28  1  0  0  0  0
 11 12  1  0  0  0  0
 11 13  1  0  0  0  0
 11 14  1  0  0  0  0
  9 10  1  0  0  0  0
  9 11  1  0  0  0  0
  9 29  1  0  0  0  0
  7  8  1  0  0  0  0
  7  9  1  0  0  0  0
 33 34  1  0  0  0  0
 33 35  1  0  0  0  0
 33 36  1  0  0  0  0
 31 32  1  0  0  0  0
 31 33  1  0  0  0  0
M  END
$$$$
default_name
  -OEChem-02102213163D

 36 37  0     1  0  0  0  0  0999 V2000
   -4.0843   -4.0736    1.2944 H   0  0  0  0  0  0  0  0  0  0  0  0
   -4.0342   -3.2816    0.5484 C   0  0  0  0  0  0  0  0  0  0  0  0
   -4.8842   -2.6126    0.6694 H   0  0  0  0  0  0  0  0  0  0  0  0
   -4.0433   -3.7186   -0.4486 H   0  0  0  0  0  0  0  0  0  0  0  0
   -2.7532   -2.5046    0.7444 C   0  0  0  0  0  0  0  0  0  0  0  0
   -1.9803   -2.8096    1.6434 O   0  0  0  0  0  0  0  0  0  0  0  0
   -2.5332   -1.4966   -0.0966 N   0  0  0  0  0  0  0  0  0  0  0  0
   -3.2312   -1.2816   -0.7936 H   0  0  0  0  0  0  0  0  0  0  0  0
   -1.3593   -0.6196   -0.0536 C   0  0  1  0  0  0  0  0  0  0  0  0
   -0.8788   -0.7266    0.9196 H   0  0  0  0  0  0  0  0  0  0  0  0
   -0.3559   -1.0533   -1.1339 C   0  0  0  0  0  0  0  0  0  0  0  0
    0.2182   -0.1809   -1.4511 H   0  0  0  0  0  0  0  0  0  0  0  0
    0.3431   -1.7659   -0.6926 H   0  0  0  0  0  0  0  0  0  0  0  0
   -0.9633   -1.6770   -2.3538 C   0  0  0  0  0  0  0  0  0  0  0  0
   -1.3584   -1.0127   -3.4629 C   0  0  0  0  0  0  0  0  0  0  0  0
   -1.2984    0.0623   -3.5928 H   0  0  0  0  0  0  0  0  0  0  0  0
   -1.8259   -1.9123   -4.4009 N   0  0  0  0  0  0  0  0  0  0  0  0
   -2.1780   -1.6397   -5.3070 H   0  0  0  0  0  0  0  0  0  0  0  0
   -1.7391   -3.2109   -3.9461 C   0  0  0  0  0  0  0  0  0  0  0  0
   -2.0518   -4.4506   -4.5220 C   0  0  0  0  0  0  0  0  0  0  0  0
   -2.4540   -4.5034   -5.5230 H   0  0  0  0  0  0  0  0  0  0  0  0
   -1.8361   -5.6230   -3.7777 C   0  0  0  0  0  0  0  0  0  0  0  0
   -2.0723   -6.5882   -4.2051 H   0  0  0  0  0  0  0  0  0  0  0  0
   -1.3182   -5.5392   -2.4723 C   0  0  0  0  0  0  0  0  0  0  0  0
   -1.1617   -6.4432   -1.9001 H   0  0  0  0  0  0  0  0  0  0  0  0
   -1.0094   -4.2876   -1.9028 C   0  0  0  0  0  0  0  0  0  0  0  0
   -0.6248   -4.2365   -0.8941 H   0  0  0  0  0  0  0  0  0  0  0  0
   -1.2088   -3.0920   -2.6266 C   0  0  0  0  0  0  0  0  0  0  0  0
   -1.7617    0.8549   -0.2106 C   0  0  0  0  0  0  0  0  0  0  0  0
   -2.5726    1.1871   -1.0741 O   0  0  0  0  0  0  0  0  0  0  0  0
   -1.1941    1.7377    0.6223 N   0  0  0  0  0  0  0  0  0  0  0  0
   -0.4976    1.3916    1.2669 H   0  0  0  0  0  0  0  0  0  0  0  0
   -1.4666    3.1722    0.6095 C   0  0  0  0  0  0  0  0  0  0  0  0
   -2.5439    3.3427    0.6539 H   0  0  0  0  0  0  0  0  0  0  0  0
   -0.9893    3.6529    1.4644 H   0  0  0  0  0  0  0  0  0  0  0  0
   -1.0808    3.6095   -0.3129 H   0  0  0  0  0  0  0  0  0  0  0  0
  5  6  2  0  0  0  0
  5  7  1  0  0  0  0
  2  3  1  0  0  0  0
  2  4  1  0  0  0  0
  2  5  1  0  0  0  0
  1  2  1  0  0  0  0
 29 30  2  0  0  0  0
 29 31  1  0  0  0  0
 26 27  1  0  0  0  0
 26 28  2  0  0  0  0
 24 25  1  0  0  0  0
 24 26  1  0  0  0  0
 22 23  1  0  0  0  0
 22 24  2  0  0  0  0
 20 21  1  0  0  0  0
 20 22  1  0  0  0  0
 19 20  2  0  0  0  0
 19 28  1  0  0  0  0
 17 18  1  0  0  0  0
 17 19  1  0  0  0  0
 15 16  1  0  0  0  0
 15 17  1  0  0  0  0
 14 15  2  0  0  0  0
 14 28  1  0  0  0  0
 11 12  1  0  0  0  0
 11 13  1  0  0  0  0
 11 14  1  0  0  0  0
  9 10  1  0  0  0  0
  9 11  1  0  0  0  0
  9 29  1  0  0  0  0
  7  8  1  0  0  0  0
  7  9  1  0  0  0  0
 33 34  1  0  0  0  0
 33 35  1  0  0  0  0
 33 36  1  0  0  0  0
 31 32  1  0  0  0  0
 31 33  1  0  0  0  0
M  END
$$$$
default_name
  -OEChem-02102213163D

 36 37  0     1  0  0  0  0  0999 V2000
   -4.0843   -4.0736    1.2944 H   0  0  0  0  0  0  0  0  0  0  0  0
   -4.0342   -3.2816    0.5484 C   0  0  0  0  0  0  0  0  0  0  0  0
   -4.8842   -2.6126    0.6694 H   0  0  0  0  0  0  0  0  0  0  0  0
   -4.0433   -3.7186   -0.4486 H   0  0  0  0  0  0  0  0  0  0  0  0
   -2.7532   -2.5046    0.7444 C   0  0  0  0  0  0  0  0  0  0  0  0
   -1.9803   -2.8096    1.6434 O   0  0  0  0  0  0  0  0  0  0  0  0
   -2.5332   -1.4966   -0.0966 N   0  0  0  0  0  0  0  0  0  0  0  0
   -3.2312   -1.2816   -0.7936 H   0  0  0  0  0  0  0  0  0  0  0  0
   -1.3593   -0.6196   -0.0536 C   0  0  1  0  0  0  0  0  0  0  0  0
   -0.8788   -0.7266    0.9196 H   0  0  0  0  0  0  0  0  0  0  0  0
   -0.3559   -1.0533   -1.1339 C   0  0  0  0  0  0  0  0  0  0  0  0
    0.2182   -0.1809   -1.4511 H   0  0  0  0  0  0  0  0  0  0  0  0
    0.3431   -1.7659   -0.6926 H   0  0  0  0  0  0  0  0  0  0  0  0
   -0.9633   -1.6770   -2.3538 C   0  0  0  0  0  0  0  0  0  0  0  0
   -1.0964   -1.0796   -3.5592 C   0  0  0  0  0  0  0  0  0  0  0  0
   -0.7929   -0.0623   -3.7808 H   0  0  0  0  0  0  0  0  0  0  0  0
   -1.6548   -1.9672   -4.4580 N   0  0  0  0  0  0  0  0  0  0  0  0
   -1.8504   -1.7358   -5.4210 H   0  0  0  0  0  0  0  0  0  0  0  0
   -1.8954   -3.1941   -3.8769 C   0  0  0  0  0  0  0  0  0  0  0  0
   -2.4119   -4.4019   -4.3676 C   0  0  0  0  0  0  0  0  0  0  0  0
   -2.7175   -4.4873   -5.4000 H   0  0  0  0  0  0  0  0  0  0  0  0
   -2.5278   -5.4988   -3.4967 C   0  0  0  0  0  0  0  0  0  0  0  0
   -2.9250   -6.4381   -3.8572 H   0  0  0  0  0  0  0  0  0  0  0  0
   -2.1325   -5.3715   -2.1525 C   0  0  0  0  0  0  0  0  0  0  0  0
   -2.2313   -6.2155   -1.4839 H   0  0  0  0  0  0  0  0  0  0  0  0
   -1.6166   -4.1521   -1.6698 C   0  0  0  0  0  0  0  0  0  0  0  0
   -1.3291   -4.0638   -0.6317 H   0  0  0  0  0  0  0  0  0  0  0  0
   -1.4817   -3.0336   -2.5206 C   0  0  0  0  0  0  0  0  0  0  0  0
   -1.7617    0.8549   -0.2106 C   0  0  0  0  0  0  0  0  0  0  0  0
   -2.5726    1.1871   -1.0741 O   0  0  0  0  0  0  0  0  0  0  0  0
   -1.1941    1.7377    0.6223 N   0  0  0  0  0  0  0  0  0  0  0  0
   -0.4976    1.3916    1.2669 H   0  0  0  0  0  0  0  0  0  0  0  0
   -1.4666    3.1722    0.6095 C   0  0  0  0  0  0  0  0  0  0  0  0
   -2.5439    3.3427    0.6539 H   0  0  0  0  0  0  0  0  0  0  0  0
   -0.9893    3.6529    1.4644 H   0  0  0  0  0  0  0  0  0  0  0  0
   -1.0808    3.6095   -0.3129 H   0  0  0  0  0  0  0  0  0  0  0  0
  5  6  2  0  0  0  0
  5  7  1  0  0  0  0
  2  3  1  0  0  0  0
  2  4  1  0  0  0  0
  2  5  1  0  0  0  0
  1  2  1  0  0  0  0
 29 30  2  0  0  0  0
 29 31  1  0  0  0  0
 26 27  1  0  0  0  0
 26 28  2  0  0  0  0
 24 25  1  0  0  0  0
 24 26  1  0  0  0  0
 22 23  1  0  0  0  0
 22 24  2  0  0  0  0
 20 21  1  0  0  0  0
 20 22  1  0  0  0  0
 19 20  2  0  0  0  0
 19 28  1  0  0  0  0
 17 18  1  0  0  0  0
 17 19  1  0  0  0  0
 15 16  1  0  0  0  0
 15 17  1  0  0  0  0
 14 15  2  0  0  0  0
 14 28  1  0  0  0  0
 11 12  1  0  0  0  0
 11 13  1  0  0  0  0
 11 14  1  0  0  0  0
  9 10  1  0  0  0  0
  9 11  1  0  0  0  0
  9 29  1  0  0  0  0
  7  8  1  0  0  0  0
  7  9  1  0  0  0  0
 33 34  1  0  0  0  0
 33 35  1  0  0  0  0
 33 36  1  0  0  0  0
 31 32  1  0  0  0  0
 31 33  1  0  0  0  0
M  END
$$$$
default_name
  -OEChem-02102213163D

 36 37  0     1  0  0  0  0  0999 V2000
   -4.0843   -4.0736    1.2944 H   0  0  0  0  0  0  0  0  0  0  0  0
   -4.0342   -3.2816    0.5484 C   0  0  0  0  0  0  0  0  0  0  0  0
   -4.8842   -2.6126    0.6694 H   0  0  0  0  0  0  0  0  0  0  0  0
   -4.0433   -3.7186   -0.4486 H   0  0  0  0  0  0  0  0  0  0  0  0
   -2.7532   -2.5046    0.7444 C   0  0  0  0  0  0  0  0  0  0  0  0
   -1.9803   -2.8096    1.6434 O   0  0  0  0  0  0  0  0  0  0  0  0
   -2.5332   -1.4966   -0.0966 N   0  0  0  0  0  0  0  0  0  0  0  0
   -3.2312   -1.2816   -0.7936 H   0  0  0  0  0  0  0  0  0  0  0  0
   -1.3593   -0.6196   -0.0536 C   0  0  1  0  0  0  0  0  0  0  0  0
   -0.8788   -0.7266    0.9196 H   0  0  0  0  0  0  0  0  0  0  0  0
   -0.3559   -1.0533   -1.1339 C   0  0  0  0  0  0  0  0  0  0  0  0
    0.2182   -0.1809   -1.4511 H   0  0  0  0  0  0  0  0  0  0  0  0
    0.3431   -1.7659   -0.6926 H   0  0  0  0  0  0  0  0  0  0  0  0
   -0.9633   -1.6770   -2.3538 C   0  0  0  0  0  0  0  0  0  0  0  0
   -0.8471   -1.2095   -3.6170 C   0  0  0  0  0  0  0  0  0  0  0  0
   -0.3107   -0.3089   -3.8948 H   0  0  0  0  0  0  0  0  0  0  0  0
   -1.4949   -2.0624   -4.4890 N   0  0  0  0  0  0  0  0  0  0  0  0
   -1.5420   -1.9095   -5.4857 H   0  0  0  0  0  0  0  0  0  0  0  0
   -2.0503   -3.1377   -3.8286 C   0  0  0  0  0  0  0  0  0  0  0  0
   -2.7661   -4.2628   -4.2623 C   0  0  0  0  0  0  0  0  0  0  0  0
   -2.9819   -4.4034   -5.3112 H   0  0  0  0  0  0  0  0  0  0  0  0
   -3.2002   -5.2036   -3.3129 C   0  0  0  0  0  0  0  0  0  0  0  0
   -3.7545   -6.0771   -3.6288 H   0  0  0  0  0  0  0  0  0  0  0  0
   -2.9182   -5.0044   -1.9490 C   0  0  0  0  0  0  0  0  0  0  0  0
   -3.2613   -5.7265   -1.2210 H   0  0  0  0  0  0  0  0  0  0  0  0
   -2.1996   -3.8688   -1.5242 C   0  0  0  0  0  0  0  0  0  0  0  0
   -2.0014   -3.7211   -0.4721 H   0  0  0  0  0  0  0  0  0  0  0  0
   -1.7445   -2.9086   -2.4537 C   0  0  0  0  0  0  0  0  0  0  0  0
   -1.7617    0.8549   -0.2106 C   0  0  0  0  0  0  0  0  0  0  0  0
   -2.5726    1.1871   -1.0741 O   0  0  0  0  0  0  0  0  0  0  0  0
   -1.1941    1.7377    0.6223 N   0  0  0  0  0  0  0  0  0  0  0  0
   -0.4976    1.3916    1.2669 H   0  0  0  0  0  0  0  0  0  0  0  0
   -1.4666    3.1722    0.6095 C   0  0  0  0  0  0  0  0  0  0  0  0
   -2.5439    3.3427    0.6539 H   0  0  0  0  0  0  0  0  0  0  0  0
   -0.9893    3.6529    1.4644 H   0  0  0  0  0  0  0  0  0  0  0  0
   -1.0808    3.6095   -0.3129 H   0  0  0  0  0  0  0  0  0  0  0  0
  5  6  2  0  0  0  0
  5  7  1  0  0  0  0
  2  3  1  0  0  0  0
  2  4  1  0  0  0  0
  2  5  1  0  0  0  0
  1  2  1  0  0  0  0
 29 30  2  0  0  0  0
 29 31  1  0  0  0  0
 26 27  1  0  0  0  0
 26 28  2  0  0  0  0
 24 25  1  0  0  0  0
 24 26  1  0  0  0  0
 22 23  1  0  0  0  0
 22 24  2  0  0  0  0
 20 21  1  0  0  0  0
 20 22  1  0  0  0  0
 19 20  2  0  0  0  0
 19 28  1  0  0  0  0
 17 18  1  0  0  0  0
 17 19  1  0  0  0  0
 15 16  1  0  0  0  0
 15 17  1  0  0  0  0
 14 15  2  0  0  0  0
 14 28  1  0  0  0  0
 11 12  1  0  0  0  0
 11 13  1  0  0  0  0
 11 14  1  0  0  0  0
  9 10  1  0  0  0  0
  9 11  1  0  0  0  0
  9 29  1  0  0  0  0
  7  8  1  0  0  0  0
  7  9  1  0  0  0  0
 33 34  1  0  0  0  0
 33 35  1  0  0  0  0
 33 36  1  0  0  0  0
 31 32  1  0  0  0  0
 31 33  1  0  0  0  0
M  END
$$$$
default_name
  -OEChem-02102213163D

 36 37  0     1  0  0  0  0  0999 V2000
   -4.0843   -4.0736    1.2944 H   0  0  0  0  0  0  0  0  0  0  0  0
   -4.0342   -3.2816    0.5484 C   0  0  0  0  0  0  0  0  0  0  0  0
   -4.8842   -2.6126    0.6694 H   0  0  0  0  0  0  0  0  0  0  0  0
   -4.0433   -3.7186   -0.4486 H   0  0  0  0  0  0  0  0  0  0  0  0
   -2.7532   -2.5046    0.7444 C   0  0  0  0  0  0  0  0  0  0  0  0
   -1.9803   -2.8096    1.6434 O   0  0  0  0  0  0  0  0  0  0  0  0
   -2.5332   -1.4966   -0.0966 N   0  0  0  0  0  0  0  0  0  0  0  0
   -3.2312   -1.2816   -0.7936 H   0  0  0  0  0  0  0  0  0  0  0  0
   -1.3593   -0.6196   -0.0536 C   0  0  1  0  0  0  0  0  0  0  0  0
   -0.8788   -0.7266    0.9196 H   0  0  0  0  0  0  0  0  0  0  0  0
   -0.3559   -1.0533   -1.1339 C   0  0  0  0  0  0  0  0  0  0  0  0
    0.2182   -0.1809   -1.4511 H   0  0  0  0  0  0  0  0  0  0  0  0
    0.3431   -1.7659   -0.6926 H   0  0  0  0  0  0  0  0  0  0  0  0
   -0.9633   -1.6770   -2.3538 C   0  0  0  0  0  0  0  0  0  0  0  0
   -0.6274   -1.3936   -3.6322 C   0  0  0  0  0  0  0  0  0  0  0  0
    0.1155   -0.6606   -3.9272 H   0  0  0  0  0  0  0  0  0  0  0  0
   -1.3572   -2.1913   -4.4917 N   0  0  0  0  0  0  0  0  0  0  0  0
   -1.2737   -2.1491   -5.4969 H   0  0  0  0  0  0  0  0  0  0  0  0
   -2.1932   -3.0456   -3.8046 C   0  0  0  0  0  0  0  0  0  0  0  0
   -3.0903   -4.0428   -4.2134 C   0  0  0  0  0  0  0  0  0  0  0  0
   -3.2292   -4.2573   -5.2628 H   0  0  0  0  0  0  0  0  0  0  0  0
   -3.8072   -4.7576   -3.2386 C   0  0  0  0  0  0  0  0  0  0  0  0
   -4.5043   -5.5296   -3.5353 H   0  0  0  0  0  0  0  0  0  0  0  0
   -3.6217   -4.4629   -1.8755 C   0  0  0  0  0  0  0  0  0  0  0  0
   -4.1815   -5.0096   -1.1293 H   0  0  0  0  0  0  0  0  0  0  0  0
   -2.7188   -3.4571   -1.4762 C   0  0  0  0  0  0  0  0  0  0  0  0
   -2.5957   -3.2317   -0.4264 H   0  0  0  0  0  0  0  0  0  0  0  0
   -1.9791   -2.7255   -2.4304 C   0  0  0  0  0  0  0  0  0  0  0  0
   -1.7617    0.8549   -0.2106 C   0  0  0  0  0  0  0  0  0  0  0  0
   -2.5726    1.1871   -1.0741 O   0  0  0  0  0  0  0  0  0  0  0  0
   -1.1941    1.7377    0.6223 N   0  0  0  0  0  0  0  0  0  0  0  0
   -0.4976    1.3916    1.2669 H   0  0  0  0  0  0  0  0  0  0  0  0
   -1.4666    3.1722    0.6095 C   0  0  0  0  0  0  0  0  0  0  0  0
   -2.5439    3.3427    0.6539 H   0  0  0  0  0  0  0  0  0  0  0  0
   -0.9893    3.6529    1.4644 H   0  0  0  0  0  0  0  0  0  0  0  0
   -1.0808    3.6095   -0.3129 H   0  0  0  0  0  0  0  0  0  0  0  0
  5  6  2  0  0  0  0
  5  7  1  0  0  0  0
  2  3  1  0  0  0  0
  2  4  1  0  0  0  0
  2  5  1  0  0  0  0
  1  2  1  0  0  0  0
 29 30  2  0  0  0  0
 29 31  1  0  0  0  0
 26 27  1  0  0  0  0
 26 28  2  0  0  0  0
 24 25  1  0  0  0  0
 24 26  1  0  0  0  0
 22 23  1  0  0  0  0
 22 24  2  0  0  0  0
 20 21  1  0  0  0  0
 20 22  1  0  0  0  0
 19 20  2  0  0  0  0
 19 28  1  0  0  0  0
 17 18  1  0  0  0  0
 17 19  1  0  0  0  0
 15 16  1  0  0  0  0
 15 17  1  0  0  0  0
 14 15  2  0  0  0  0
 14 28  1  0  0  0  0
 11 12  1  0  0  0  0
 11 13  1  0  0  0  0
 11 14  1  0  0  0  0
  9 10  1  0  0  0  0
  9 11  1  0  0  0  0
  9 29  1  0  0  0  0
  7  8  1  0  0  0  0
  7  9  1  0  0  0  0
 33 34  1  0  0  0  0
 33 35  1  0  0  0  0
 33 36  1  0  0  0  0
 31 32  1  0  0  0  0
 31 33  1  0  0  0  0
M  END
$$$$
default_name
  -OEChem-02102213163D

 36 37  0     1  0  0  0  0  0999 V2000
   -4.0843   -4.0736    1.2944 H   0  0  0  0  0  0  0  0  0  0  0  0
   -4.0342   -3.2816    0.5484 C   0  0  0  0  0  0  0  0  0  0  0  0
   -4.8842   -2.6126    0.6694 H   0  0  0  0  0  0  0  0  0  0  0  0
   -4.0433   -3.7186   -0.4486 H   0  0  0  0  0  0  0  0  0  0  0  0
   -2.7532   -2.5046    0.7444 C   0  0  0  0  0  0  0  0  0  0  0  0
   -1.9803   -2.8096    1.6434 O   0  0  0  0  0  0  0  0  0  0  0  0
   -2.5332   -1.4966   -0.0966 N   0  0  0  0  0  0  0  0  0  0  0  0
   -3.2312   -1.2816   -0.7936 H   0  0  0  0  0  0  0  0  0  0  0  0
   -1.3593   -0.6196   -0.0536 C   0  0  1  0  0  0  0  0  0  0  0  0
   -0.8788   -0.7266    0.9196 H   0  0  0  0  0  0  0  0  0  0  0  0
   -0.3559   -1.0533   -1.1339 C   0  0  0  0  0  0  0  0  0  0  0  0
    0.2182   -0.1809   -1.4511 H   0  0  0  0  0  0  0  0  0  0  0  0
    0.3431   -1.7659   -0.6926 H   0  0  0  0  0  0  0  0  0  0  0  0
   -0.9633   -1.6770   -2.3538 C   0  0  0  0  0  0  0  0  0  0  0  0
   -0.4523   -1.6193   -3.6040 C   0  0  0  0  0  0  0  0  0  0  0  0
    0.4565   -1.0935   -3.8757 H   0  0  0  0  0  0  0  0  0  0  0  0
   -1.2511   -2.3450   -4.4659 N   0  0  0  0  0  0  0  0  0  0  0  0
   -1.0638   -2.4381   -5.4536 H   0  0  0  0  0  0  0  0  0  0  0  0
   -2.3144   -2.9239   -3.8064 C   0  0  0  0  0  0  0  0  0  0  0  0
   -3.3623   -3.7568   -4.2241 C   0  0  0  0  0  0  0  0  0  0  0  0
   -3.4425   -4.0590   -5.2580 H   0  0  0  0  0  0  0  0  0  0  0  0
   -4.3075   -4.1911   -3.2791 C   0  0  0  0  0  0  0  0  0  0  0  0
   -5.1232   -4.8330   -3.5832 H   0  0  0  0  0  0  0  0  0  0  0  0
   -4.1950   -3.7840   -1.9371 C   0  0  0  0  0  0  0  0  0  0  0  0
   -4.9292   -4.1136   -1.2151 H   0  0  0  0  0  0  0  0  0  0  0  0
   -3.1387   -2.9450   -1.5289 C   0  0  0  0  0  0  0  0  0  0  0  0
   -3.0716   -2.6289   -0.4976 H   0  0  0  0  0  0  0  0  0  0  0  0
   -2.1697   -2.4967   -2.4525 C   0  0  0  0  0  0  0  0  0  0  0  0
   -1.7617    0.8549   -0.2106 C   0  0  0  0  0  0  0  0  0  0  0  0
   -2.5726    1.1871   -1.0741 O   0  0  0  0  0  0  0  0  0  0  0  0
   -1.1941    1.7377    0.6223 N   0  0  0  0  0  0  0  0  0  0  0  0
   -0.4976    1.3916    1.2669 H   0  0  0  0  0  0  0  0  0  0  0  0
   -1.4666    3.1722    0.6095 C   0  0  0  0  0  0  0  0  0  0  0  0
   -2.5439    3.3427    0.6539 H   0  0  0  0  0  0  0  0  0  0  0  0
   -0.9893    3.6529    1.4644 H   0  0  0  0  0  0  0  0  0  0  0  0
   -1.0808    3.6095   -0.3129 H   0  0  0  0  0  0  0  0  0  0  0  0
  5  6  2  0  0  0  0
  5  7  1  0  0  0  0
  2  3  1  0  0  0  0
  2  4  1  0  0  0  0
  2  5  1  0  0  0  0
  1  2  1  0  0  0  0
 29 30  2  0  0  0  0
 29 31  1  0  0  0  0
 26 27  1  0  0  0  0
 26 28  2  0  0  0  0
 24 25  1  0  0  0  0
 24 26  1  0  0  0  0
 22 23  1  0  0  0  0
 22 24  2  0  0  0  0
 20 21  1  0  0  0  0
 20 22  1  0  0  0  0
 19 20  2  0  0  0  0
 19 28  1  0  0  0  0
 17 18  1  0  0  0  0
 17 19  1  0  0  0  0
 15 16  1  0  0  0  0
 15 17  1  0  0  0  0
 14 15  2  0  0  0  0
 14 28  1  0  0  0  0
 11 12  1  0  0  0  0
 11 13  1  0  0  0  0
 11 14  1  0  0  0  0
  9 10  1  0  0  0  0
  9 11  1  0  0  0  0
  9 29  1  0  0  0  0
  7  8  1  0  0  0  0
  7  9  1  0  0  0  0
 33 34  1  0  0  0  0
 33 35  1  0  0  0  0
 33 36  1  0  0  0  0
 31 32  1  0  0  0  0
 31 33  1  0  0  0  0
M  END
$$$$
default_name
  -OEChem-02102213163D

 36 37  0     1  0  0  0  0  0999 V2000
   -4.0843   -4.0736    1.2944 H   0  0  0  0  0  0  0  0  0  0  0  0
   -4.0342   -3.2816    0.5484 C   0  0  0  0  0  0  0  0  0  0  0  0
   -4.8842   -2.6126    0.6694 H   0  0  0  0  0  0  0  0  0  0  0  0
   -4.0433   -3.7186   -0.4486 H   0  0  0  0  0  0  0  0  0  0  0  0
   -2.7532   -2.5046    0.7444 C   0  0  0  0  0  0  0  0  0  0  0  0
   -1.9803   -2.8096    1.6434 O   0  0  0  0  0  0  0  0  0  0  0  0
   -2.5332   -1.4966   -0.0966 N   0  0  0  0  0  0  0  0  0  0  0  0
   -3.2312   -1.2816   -0.7936 H   0  0  0  0  0  0  0  0  0  0  0  0
   -1.3593   -0.6196   -0.0536 C   0  0  1  0  0  0  0  0  0  0  0  0
   -0.8788   -0.7266    0.9196 H   0  0  0  0  0  0  0  0  0  0  0  0
   -0.3559   -1.0533   -1.1339 C   0  0  0  0  0  0  0  0  0  0  0  0
    0.2182   -0.1809   -1.4511 H   0  0  0  0  0  0  0  0  0  0  0  0
    0.3431   -1.7659   -0.6926 H   0  0  0  0  0  0  0  0  0  0  0  0
   -0.9633   -1.6770   -2.3538 C   0  0  0  0  0  0  0  0  0  0  0  0
   -0.3338   -1.8713   -3.5343 C   0  0  0  0  0  0  0  0  0  0  0  0
    0.6891   -1.5781   -3.7438 H   0  0  0  0  0  0  0  0  0  0  0  0
   -1.1837   -2.5132   -4.4135 N   0  0  0  0  0  0  0  0  0  0  0  0
   -0.9267   -2.7571   -5.3588 H   0  0  0  0  0  0  0  0  0  0  0  0
   -2.4056   -2.7811   -3.8340 C   0  0  0  0  0  0  0  0  0  0  0  0
   -3.5637   -3.4244   -4.2938 C   0  0  0  0  0  0  0  0  0  0  0  0
   -3.6073   -3.8221   -5.2971 H   0  0  0  0  0  0  0  0  0  0  0  0
   -4.6671   -3.5427   -3.4316 C   0  0  0  0  0  0  0  0  0  0  0  0
   -5.5692   -4.0348   -3.7692 H   0  0  0  0  0  0  0  0  0  0  0  0
   -4.5992   -3.0138   -2.1296 C   0  0  0  0  0  0  0  0  0  0  0  0
   -5.4534   -3.0997   -1.4724 H   0  0  0  0  0  0  0  0  0  0  0  0
   -3.4308   -2.3675   -1.6788 C   0  0  0  0  0  0  0  0  0  0  0  0
   -3.3967   -1.9539   -0.6808 H   0  0  0  0  0  0  0  0  0  0  0  0
   -2.3032   -2.2379   -2.5183 C   0  0  0  0  0  0  0  0  0  0  0  0
   -1.7617    0.8549   -0.2106 C   0  0  0  0  0  0  0  0  0  0  0  0
   -2.5726    1.1871   -1.0741 O   0  0  0  0  0  0  0  0  0  0  0  0
   -1.1941    1.7377    0.6223 N   0  0  0  0  0  0  0  0  0  0  0  0
   -0.4976    1.3916    1.2669 H   0  0  0  0  0  0  0  0  0  0  0  0
   -1.4666    3.1722    0.6095 C   0  0  0  0  0  0  0  0  0  0  0  0
   -2.5439    3.3427    0.6539 H   0  0  0  0  0  0  0  0  0  0  0  0
   -0.9893    3.6529    1.4644 H   0  0  0  0  0  0  0  0  0  0  0  0
   -1.0808    3.6095   -0.3129 H   0  0  0  0  0  0  0  0  0  0  0  0
  5  6  2  0  0  0  0
  5  7  1  0  0  0  0
  2  3  1  0  0  0  0
  2  4  1  0  0  0  0
  2  5  1  0  0  0  0
  1  2  1  0  0  0  0
 29 30  2  0  0  0  0
 29 31  1  0  0  0  0
 26 27  1  0  0  0  0
 26 28  2  0  0  0  0
 24 25  1  0  0  0  0
 24 26  1  0  0  0  0
 22 23  1  0  0  0  0
 22 24  2  0  0  0  0
 20 21  1  0  0  0  0
 20 22  1  0  0  0  0
 19 20  2  0  0  0  0
 19 28  1  0  0  0  0
 17 18  1  0  0  0  0
 17 19  1  0  0  0  0
 15 16  1  0  0  0  0
 15 17  1  0  0  0  0
 14 15  2  0  0  0  0
 14 28  1  0  0  0  0
 11 12  1  0  0  0  0
 11 13  1  0  0  0  0
 11 14  1  0  0  0  0
  9 10  1  0  0  0  0
  9 11  1  0  0  0  0
  9 29  1  0  0  0  0
  7  8  1  0  0  0  0
  7  9  1  0  0  0  0
 33 34  1  0  0  0  0
 33 35  1  0  0  0  0
 33 36  1  0  0  0  0
 31 32  1  0  0  0  0
 31 33  1  0  0  0  0
M  END
$$$$
default_name
  -OEChem-02102213163D

 36 37  0     1  0  0  0  0  0999 V2000
   -4.0843   -4.0736    1.2944 H   0  0  0  0  0  0  0  0  0  0  0  0
   -4.0342   -3.2816    0.5484 C   0  0  0  0  0  0  0  0  0  0  0  0
   -4.8842   -2.6126    0.6694 H   0  0  0  0  0  0  0  0  0  0  0  0
   -4.0433   -3.7186   -0.4486 H   0  0  0  0  0  0  0  0  0  0  0  0
   -2.7532   -2.5046    0.7444 C   0  0  0  0  0  0  0  0  0  0  0  0
   -1.9803   -2.8096    1.6434 O   0  0  0  0  0  0  0  0  0  0  0  0
   -2.5332   -1.4966   -0.0966 N   0  0  0  0  0  0  0  0  0  0  0  0
   -3.2312   -1.2816   -0.7936 H   0  0  0  0  0  0  0  0  0  0  0  0
   -1.3593   -0.6196   -0.0536 C   0  0  1  0  0  0  0  0  0  0  0  0
   -0.8788   -0.7266    0.9196 H   0  0  0  0  0  0  0  0  0  0  0  0
   -0.3559   -1.0533   -1.1339 C   0  0  0  0  0  0  0  0  0  0  0  0
    0.3884   -0.2649   -1.2594 H   0  0  0  0  0  0  0  0  0  0  0  0
    0.1651   -1.9467   -0.7854 H   0  0  0  0  0  0  0  0  0  0  0  0
   -0.9528   -1.3452   -2.4772 C   0  0  0  0  0  0  0  0  0  0  0  0
   -0.2675   -1.7406   -3.5734 C   0  0  0  0  0  0  0  0  0  0  0  0
    0.8078   -1.8759   -3.6135 H   0  0  0  0  0  0  0  0  0  0  0  0
   -1.1463   -1.9621   -4.6155 N   0  0  0  0  0  0  0  0  0  0  0  0
   -0.8560   -2.2606   -5.5351 H   0  0  0  0  0  0  0  0  0  0  0  0
   -2.4520   -1.7349   -4.2353 C   0  0  0  0  0  0  0  0  0  0  0  0
   -3.6784   -1.8466   -4.9060 C   0  0  0  0  0  0  0  0  0  0  0  0
   -3.7111   -2.1638   -5.9379 H   0  0  0  0  0  0  0  0  0  0  0  0
   -4.8639   -1.5382   -4.2171 C   0  0  0  0  0  0  0  0  0  0  0  0
   -5.8190   -1.6175   -4.7184 H   0  0  0  0  0  0  0  0  0  0  0  0
   -4.8061   -1.1193   -2.8752 C   0  0  0  0  0  0  0  0  0  0  0  0
   -5.7199   -0.8751   -2.3515 H   0  0  0  0  0  0  0  0  0  0  0  0
   -3.5676   -1.0088   -2.2117 C   0  0  0  0  0  0  0  0  0  0  0  0
   -3.5364   -0.6731   -1.1849 H   0  0  0  0  0  0  0  0  0  0  0  0
   -2.3596   -1.3172   -2.8739 C   0  0  0  0  0  0  0  0  0  0  0  0
   -1.7617    0.8549   -0.2106 C   0  0  0  0  0  0  0  0  0  0  0  0
   -2.5726    1.1871   -1.0741 O   0  0  0  0  0  0  0  0  0  0  0  0
   -1.1941    1.7377    0.6223 N   0  0  0  0  0  0  0  0  0  0  0  0
   -0.4976    1.3916    1.2669 H   0  0  0  0  0  0  0  0  0  0  0  0
   -1.4666    3.1722    0.6095 C   0  0  0  0  0  0  0  0  0  0  0  0
   -2.5439    3.3427    0.6539 H   0  0  0  0  0  0  0  0  0  0  0  0
   -0.9893    3.6529    1.4644 H   0  0  0  0  0  0  0  0  0  0  0  0
   -1.0808    3.6095   -0.3129 H   0  0  0  0  0  0  0  0  0  0  0  0
  5  6  2  0  0  0  0
  5  7  1  0  0  0  0
  2  3  1  0  0  0  0
  2  4  1  0  0  0  0
  2  5  1  0  0  0  0
  1  2  1  0  0  0  0
 29 30  2  0  0  0  0
 29 31  1  0  0  0  0
 26 27  1  0  0  0  0
 26 28  2  0  0  0  0
 24 25  1  0  0  0  0
 24 26  1  0  0  0  0
 22 23  1  0  0  0  0
 22 24  2  0  0  0  0
 20 21  1  0  0  0  0
 20 22  1  0  0  0  0
 19 20  2  0  0  0  0
 19 28  1  0  0  0  0
 17 18  1  0  0  0  0
 17 19  1  0  0  0  0
 15 16  1  0  0  0  0
 15 17  1  0  0  0  0
 14 15  2  0  0  0  0
 14 28  1  0  0  0  0
 11 12  1  0  0  0  0
 11 13  1  0  0  0  0
 11 14  1  0  0  0  0
  9 10  1  0  0  0  0
  9 11  1  0  0  0  0
  9 29  1  0  0  0  0
  7  8  1  0  0  0  0
  7  9  1  0  0  0  0
 33 34  1  0  0  0  0
 33 35  1  0  0  0  0
 33 36  1  0  0  0  0
 31 32  1  0  0  0  0
 31 33  1  0  0  0  0
M  END
$$$$
default_name
  -OEChem-02102213163D

 36 37  0     1  0  0  0  0  0999 V2000
   -4.0843   -4.0736    1.2944 H   0  0  0  0  0  0  0  0  0  0  0  0
   -4.0342   -3.2816    0.5484 C   0  0  0  0  0  0  0  0  0  0  0  0
   -4.8842   -2.6126    0.6694 H   0  0  0  0  0  0  0  0  0  0  0  0
   -4.0433   -3.7186   -0.4486 H   0  0  0  0  0  0  0  0  0  0  0  0
   -2.7532   -2.5046    0.7444 C   0  0  0  0  0  0  0  0  0  0  0  0
   -1.9803   -2.8096    1.6434 O   0  0  0  0  0  0  0  0  0  0  0  0
   -2.5332   -1.4966   -0.0966 N   0  0  0  0  0  0  0  0  0  0  0  0
   -3.2312   -1.2816   -0.7936 H   0  0  0  0  0  0  0  0  0  0  0  0
   -1.3593   -0.6196   -0.0536 C   0  0  1  0  0  0  0  0  0  0  0  0
   -0.8788   -0.7266    0.9196 H   0  0  0  0  0  0  0  0  0  0  0  0
   -0.3559   -1.0533   -1.1339 C   0  0  0  0  0  0  0  0  0  0  0  0
    0.3884   -0.2649   -1.2594 H   0  0  0  0  0  0  0  0  0  0  0  0
    0.1651   -1.9467   -0.7854 H   0  0  0  0  0  0  0  0  0  0  0  0
   -0.9528   -1.3452   -2.4772 C   0  0  0  0  0  0  0  0  0  0  0  0
   -0.3380   -2.0044   -3.4847 C   0  0  0  0  0  0  0  0  0  0  0  0
    0.6763   -2.3862   -3.4441 H   0  0  0  0  0  0  0  0  0  0  0  0
   -1.2038   -2.1306   -4.5533 N   0  0  0  0  0  0  0  0  0  0  0  0
   -0.9566   -2.5862   -5.4197 H   0  0  0  0  0  0  0  0  0  0  0  0
   -2.4332   -1.5700   -4.2795 C   0  0  0  0  0  0  0  0  0  0  0  0
   -3.6250   -1.4699   -5.0115 C   0  0  0  0  0  0  0  0  0  0  0  0
   -3.6918   -1.8817   -6.0078 H   0  0  0  0  0  0  0  0  0  0  0  0
   -4.7305   -0.8246   -4.4314 C   0  0  0  0  0  0  0  0  0  0  0  0
   -5.6577   -0.7369   -4.9815 H   0  0  0  0  0  0  0  0  0  0  0  0
   -4.6274   -0.2864   -3.1356 C   0  0  0  0  0  0  0  0  0  0  0  0
   -5.4778    0.2165   -2.6963 H   0  0  0  0  0  0  0  0  0  0  0  0
   -3.4239   -0.3912   -2.4098 C   0  0  0  0  0  0  0  0  0  0  0  0
   -3.3540    0.0383   -1.4205 H   0  0  0  0  0  0  0  0  0  0  0  0
   -2.2975   -1.0387   -2.9620 C   0  0  0  0  0  0  0  0  0  0  0  0
   -1.7617    0.8549   -0.2106 C   0  0  0  0  0  0  0  0  0  0  0  0
   -2.5726    1.1871   -1.0741 O   0  0  0  0  0  0  0  0  0  0  0  0
   -1.1941    1.7377    0.6223 N   0  0  0  0  0  0  0  0  0  0  0  0
   -0.4976    1.3916    1.2669 H   0  0  0  0  0  0  0  0  0  0  0  0
   -1.4666    3.1722    0.6095 C   0  0  0  0  0  0  0  0  0  0  0  0
   -2.5439    3.3427    0.6539 H   0  0  0  0  0  0  0  0  0  0  0  0
   -0.9893    3.6529    1.4644 H   0  0  0  0  0  0  0  0  0  0  0  0
   -1.0808    3.6095   -0.3129 H   0  0  0  0  0  0  0  0  0  0  0  0
  5  6  2  0  0  0  0
  5  7  1  0  0  0  0
  2  3  1  0  0  0  0
  2  4  1  0  0  0  0
  2  5  1  0  0  0  0
  1  2  1  0  0  0  0
 29 30  2  0  0  0  0
 29 31  1  0  0  0  0
 26 27  1  0  0  0  0
 26 28  2  0  0  0  0
 24 25  1  0  0  0  0
 24 26  1  0  0  0  0
 22 23  1  0  0  0  0
 22 24  2  0  0  0  0
 20 21  1  0  0  0  0
 20 22  1  0  0  0  0
 19 20  2  0  0  0  0
 19 28  1  0  0  0  0
 17 18  1  0  0  0  0
 17 19  1  0  0  0  0
 15 16  1  0  0  0  0
 15 17  1  0  0  0  0
 14 15  2  0  0  0  0
 14 28  1  0  0  0  0
 11 12  1  0  0  0  0
 11 13  1  0  0  0  0
 11 14  1  0  0  0  0
  9 10  1  0  0  0  0
  9 11  1  0  0  0  0
  9 29  1  0  0  0  0
  7  8  1  0  0  0  0
  7  9  1  0  0  0  0
 33 34  1  0  0  0  0
 33 35  1  0  0  0  0
 33 36  1  0  0  0  0
 31 32  1  0  0  0  0
 31 33  1  0  0  0  0
M  END
$$$$
default_name
  -OEChem-02102213163D

 36 37  0     1  0  0  0  0  0999 V2000
   -4.0843   -4.0736    1.2944 H   0  0  0  0  0  0  0  0  0  0  0  0
   -4.0342   -3.2816    0.5484 C   0  0  0  0  0  0  0  0  0  0  0  0
   -4.8842   -2.6126    0.6694 H   0  0  0  0  0  0  0  0  0  0  0  0
   -4.0433   -3.7186   -0.4486 H   0  0  0  0  0  0  0  0  0  0  0  0
   -2.7532   -2.5046    0.7444 C   0  0  0  0  0  0  0  0  0  0  0  0
   -1.9803   -2.8096    1.6434 O   0  0  0  0  0  0  0  0  0  0  0  0
   -2.5332   -1.4966   -0.0966 N   0  0  0  0  0  0  0  0  0  0  0  0
   -3.2312   -1.2816   -0.7936 H   0  0  0  0  0  0  0  0  0  0  0  0
   -1.3593   -0.6196   -0.0536 C   0  0  1  0  0  0  0  0  0  0  0  0
   -0.8788   -0.7266    0.9196 H   0  0  0  0  0  0  0  0  0  0  0  0
   -0.3559   -1.0533   -1.1339 C   0  0  0  0  0  0  0  0  0  0  0  0
    0.3884   -0.2649   -1.2594 H   0  0  0  0  0  0  0  0  0  0  0  0
    0.1651   -1.9467   -0.7854 H   0  0  0  0  0  0  0  0  0  0  0  0
   -0.9528   -1.3452   -2.4772 C   0  0  0  0  0  0  0  0  0  0  0  0
   -0.4717   -2.2336   -3.3755 C   0  0  0  0  0  0  0  0  0  0  0  0
    0.4223   -2.8311   -3.2346 H   0  0  0  0  0  0  0  0  0  0  0  0
   -1.3015   -2.2737   -4.4788 N   0  0  0  0  0  0  0  0  0  0  0  0
   -1.1351   -2.8655   -5.2796 H   0  0  0  0  0  0  0  0  0  0  0  0
   -2.3746   -1.4197   -4.3382 C   0  0  0  0  0  0  0  0  0  0  0  0
   -3.4807   -1.1293   -5.1497 C   0  0  0  0  0  0  0  0  0  0  0  0
   -3.6041   -1.6209   -6.1034 H   0  0  0  0  0  0  0  0  0  0  0  0
   -4.4253   -0.1883   -4.7053 C   0  0  0  0  0  0  0  0  0  0  0  0
   -5.2843    0.0491   -5.3182 H   0  0  0  0  0  0  0  0  0  0  0  0
   -4.2484    0.4498   -3.4640 C   0  0  0  0  0  0  0  0  0  0  0  0
   -4.9732    1.1792   -3.1297 H   0  0  0  0  0  0  0  0  0  0  0  0
   -3.1318    0.1516   -2.6575 C   0  0  0  0  0  0  0  0  0  0  0  0
   -3.0010    0.6589   -1.7122 H   0  0  0  0  0  0  0  0  0  0  0  0
   -2.1685   -0.7932   -3.0727 C   0  0  0  0  0  0  0  0  0  0  0  0
   -1.7617    0.8549   -0.2106 C   0  0  0  0  0  0  0  0  0  0  0  0
   -2.5726    1.1871   -1.0741 O   0  0  0  0  0  0  0  0  0  0  0  0
   -1.1941    1.7377    0.6223 N   0  0  0  0  0  0  0  0  0  0  0  0
   -0.4976    1.3916    1.2669 H   0  0  0  0  0  0  0  0  0  0  0  0
   -1.4666    3.1722    0.6095 C   0  0  0  0  0  0  0  0  0  0  0  0
   -2.5439    3.3427    0.6539 H   0  0  0  0  0  0  0  0  0  0  0  0
   -0.9893    3.6529    1.4644 H   0  0  0  0  0  0  0  0  0  0  0  0
   -1.0808    3.6095   -0.3129 H   0  0  0  0  0  0  0  0  0  0  0  0
  5  6  2  0  0  0  0
  5  7  1  0  0  0  0
  2  3  1  0  0  0  0
  2  4  1  0  0  0  0
  2  5  1  0  0  0  0
  1  2  1  0  0  0  0
 29 30  2  0  0  0  0
 29 31  1  0  0  0  0
 26 27  1  0  0  0  0
 26 28  2  0  0  0  0
 24 25  1  0  0  0  0
 24 26  1  0  0  0  0
 22 23  1  0  0  0  0
 22 24  2  0  0  0  0
 20 21  1  0  0  0  0
 20 22  1  0  0  0  0
 19 20  2  0  0  0  0
 19 28  1  0  0  0  0
 17 18  1  0  0  0  0
 17 19  1  0  0  0  0
 15 16  1  0  0  0  0
 15 17  1  0  0  0  0
 14 15  2  0  0  0  0
 14 28  1  0  0  0  0
 11 12  1  0  0  0  0
 11 13  1  0  0  0  0
 11 14  1  0  0  0  0
  9 10  1  0  0  0  0
  9 11  1  0  0  0  0
  9 29  1  0  0  0  0
  7  8  1  0  0  0  0
  7  9  1  0  0  0  0
 33 34  1  0  0  0  0
 33 35  1  0  0  0  0
 33 36  1  0  0  0  0
 31 32  1  0  0  0  0
 31 33  1  0  0  0  0
M  END
$$$$
default_name
  -OEChem-02102213163D

 36 37  0     1  0  0  0  0  0999 V2000
   -4.0843   -4.0736    1.2944 H   0  0  0  0  0  0  0  0  0  0  0  0
   -4.0342   -3.2816    0.5484 C   0  0  0  0  0  0  0  0  0  0  0  0
   -4.8842   -2.6126    0.6694 H   0  0  0  0  0  0  0  0  0  0  0  0
   -4.0433   -3.7186   -0.4486 H   0  0  0  0  0  0  0  0  0  0  0  0
   -2.7532   -2.5046    0.7444 C   0  0  0  0  0  0  0  0  0  0  0  0
   -1.9803   -2.8096    1.6434 O   0  0  0  0  0  0  0  0  0  0  0  0
   -2.5332   -1.4966   -0.0966 N   0  0  0  0  0  0  0  0  0  0  0  0
   -3.2312   -1.2816   -0.7936 H   0  0  0  0  0  0  0  0  0  0  0  0
   -1.3593   -0.6196   -0.0536 C   0  0  1  0  0  0  0  0  0  0  0  0
   -0.8788   -0.7266    0.9196 H   0  0  0  0  0  0  0  0  0  0  0  0
   -0.3559   -1.0533   -1.1339 C   0  0  0  0  0  0  0  0  0  0  0  0
    0.3884   -0.2649   -1.2594 H   0  0  0  0  0  0  0  0  0  0  0  0
    0.1651   -1.9467   -0.7854 H   0  0  0  0  0  0  0  0  0  0  0  0
   -0.9528   -1.3452   -2.4772 C   0  0  0  0  0  0  0  0  0  0  0  0
   -0.6596   -2.4128   -3.2530 C   0  0  0  0  0  0  0  0  0  0  0  0
    0.0632   -3.1804   -2.9991 H   0  0  0  0  0  0  0  0  0  0  0  0
   -1.4328   -2.3816   -4.3970 N   0  0  0  0  0  0  0  0  0  0  0  0
   -1.3795   -3.0795   -5.1246 H   0  0  0  0  0  0  0  0  0  0  0  0
   -2.2801   -1.2941   -4.4075 C   0  0  0  0  0  0  0  0  0  0  0  0
   -3.2554   -0.8480   -5.3109 C   0  0  0  0  0  0  0  0  0  0  0  0
   -3.4541   -1.3992   -6.2183 H   0  0  0  0  0  0  0  0  0  0  0  0
   -3.9691    0.3272   -5.0200 C   0  0  0  0  0  0  0  0  0  0  0  0
   -4.7243    0.6870   -5.7056 H   0  0  0  0  0  0  0  0  0  0  0  0
   -3.6951    1.0392   -3.8380 C   0  0  0  0  0  0  0  0  0  0  0  0
   -4.2407    1.9474   -3.6221 H   0  0  0  0  0  0  0  0  0  0  0  0
   -2.7112    0.5826   -2.9381 C   0  0  0  0  0  0  0  0  0  0  0  0
   -2.5013    1.1463   -2.0402 H   0  0  0  0  0  0  0  0  0  0  0  0
   -1.9814   -0.5975   -3.1984 C   0  0  0  0  0  0  0  0  0  0  0  0
   -1.7617    0.8549   -0.2106 C   0  0  0  0  0  0  0  0  0  0  0  0
   -2.5726    1.1871   -1.0741 O   0  0  0  0  0  0  0  0  0  0  0  0
   -1.1941    1.7377    0.6223 N   0  0  0  0  0  0  0  0  0  0  0  0
   -0.4976    1.3916    1.2669 H   0  0  0  0  0  0  0  0  0  0  0  0
   -1.4666    3.1722    0.6095 C   0  0  0  0  0  0  0  0  0  0  0  0
   -2.5439    3.3427    0.6539 H   0  0  0  0  0  0  0  0  0  0  0  0
   -0.9893    3.6529    1.4644 H   0  0  0  0  0  0  0  0  0  0  0  0
   -1.0808    3.6095   -0.3129 H   0  0  0  0  0  0  0  0  0  0  0  0
  5  6  2  0  0  0  0
  5  7  1  0  0  0  0
  2  3  1  0  0  0  0
  2  4  1  0  0  0  0
  2  5  1  0  0  0  0
  1  2  1  0  0  0  0
 29 30  2  0  0  0  0
 29 31  1  0  0  0  0
 26 27  1  0  0  0  0
 26 28  2  0  0  0  0
 24 25  1  0  0  0  0
 24 26  1  0  0  0  0
 22 23  1  0  0  0  0
 22 24  2  0  0  0  0
 20 21  1  0  0  0  0
 20 22  1  0  0  0  0
 19 20  2  0  0  0  0
 19 28  1  0  0  0  0
 17 18  1  0  0  0  0
 17 19  1  0  0  0  0
 15 16  1  0  0  0  0
 15 17  1  0  0  0  0
 14 15  2  0  0  0  0
 14 28  1  0  0  0  0
 11 12  1  0  0  0  0
 11 13  1  0  0  0  0
 11 14  1  0  0  0  0
  9 10  1  0  0  0  0
  9 11  1  0  0  0  0
  9 29  1  0  0  0  0
  7  8  1  0  0  0  0
  7  9  1  0  0  0  0
 33 34  1  0  0  0  0
 33 35  1  0  0  0  0
 33 36  1  0  0  0  0
 31 32  1  0  0  0  0
 31 33  1  0  0  0  0
M  END
$$$$
default_name
  -OEChem-02102213163D

 36 37  0     1  0  0  0  0  0999 V2000
   -4.0843   -4.0736    1.2944 H   0  0  0  0  0  0  0  0  0  0  0  0
   -4.0342   -3.2816    0.5484 C   0  0  0  0  0  0  0  0  0  0  0  0
   -4.8842   -2.6126    0.6694 H   0  0  0  0  0  0  0  0  0  0  0  0
   -4.0433   -3.7186   -0.4486 H   0  0  0  0  0  0  0  0  0  0  0  0
   -2.7532   -2.5046    0.7444 C   0  0  0  0  0  0  0  0  0  0  0  0
   -1.9803   -2.8096    1.6434 O   0  0  0  0  0  0  0  0  0  0  0  0
   -2.5332   -1.4966   -0.0966 N   0  0  0  0  0  0  0  0  0  0  0  0
   -3.2312   -1.2816   -0.7936 H   0  0  0  0  0  0  0  0  0  0  0  0
   -1.3593   -0.6196   -0.0536 C   0  0  1  0  0  0  0  0  0  0  0  0
   -0.8788   -0.7266    0.9196 H   0  0  0  0  0  0  0  0  0  0  0  0
   -0.3559   -1.0533   -1.1339 C   0  0  0  0  0  0  0  0  0  0  0  0
    0.3884   -0.2649   -1.2594 H   0  0  0  0  0  0  0  0  0  0  0  0
    0.1651   -1.9467   -0.7854 H   0  0  0  0  0  0  0  0  0  0  0  0
   -0.9528   -1.3452   -2.4772 C   0  0  0  0  0  0  0  0  0  0  0  0
   -0.8888   -2.5296   -3.1258 C   0  0  0  0  0  0  0  0  0  0  0  0
   -0.3765   -3.4101   -2.7538 H   0  0  0  0  0  0  0  0  0  0  0  0
   -1.5888   -2.4469   -4.3135 N   0  0  0  0  0  0  0  0  0  0  0  0
   -1.6729   -3.2134   -4.9651 H   0  0  0  0  0  0  0  0  0  0  0  0
   -2.1562   -1.2018   -4.4826 C   0  0  0  0  0  0  0  0  0  0  0  0
   -2.9643   -0.6452   -5.4843 C   0  0  0  0  0  0  0  0  0  0  0  0
   -3.2520   -1.2317   -6.3445 H   0  0  0  0  0  0  0  0  0  0  0  0
   -3.3930    0.6869   -5.3542 C   0  0  0  0  0  0  0  0  0  0  0  0
   -4.0159    1.1334   -6.1174 H   0  0  0  0  0  0  0  0  0  0  0  0
   -3.0050    1.4416   -4.2321 C   0  0  0  0  0  0  0  0  0  0  0  0
   -3.3301    2.4686   -4.1401 H   0  0  0  0  0  0  0  0  0  0  0  0
   -2.1909    0.8724   -3.2323 C   0  0  0  0  0  0  0  0  0  0  0  0
   -1.8890    1.4674   -2.3821 H   0  0  0  0  0  0  0  0  0  0  0  0
   -1.7488   -0.4647   -3.3305 C   0  0  0  0  0  0  0  0  0  0  0  0
   -1.7617    0.8549   -0.2106 C   0  0  0  0  0  0  0  0  0  0  0  0
   -2.5726    1.1871   -1.0741 O   0  0  0  0  0  0  0  0  0  0  0  0
   -1.1941    1.7377    0.6223 N   0  0  0  0  0  0  0  0  0  0  0  0
   -0.4976    1.3916    1.2669 H   0  0  0  0  0  0  0  0  0  0  0  0
   -1.4666    3.1722    0.6095 C   0  0  0  0  0  0  0  0  0  0  0  0
   -2.5439    3.3427    0.6539 H   0  0  0  0  0  0  0  0  0  0  0  0
   -0.9893    3.6529    1.4644 H   0  0  0  0  0  0  0  0  0  0  0  0
   -1.0808    3.6095   -0.3129 H   0  0  0  0  0  0  0  0  0  0  0  0
  5  6  2  0  0  0  0
  5  7  1  0  0  0  0
  2  3  1  0  0  0  0
  2  4  1  0  0  0  0
  2  5  1  0  0  0  0
  1  2  1  0  0  0  0
 29 30  2  0  0  0  0
 29 31  1  0  0  0  0
 26 27  1  0  0  0  0
 26 28  2  0  0  0  0
 24 25  1  0  0  0  0
 24 26  1  0  0  0  0
 22 23  1  0  0  0  0
 22 24  2  0  0  0  0
 20 21  1  0  0  0  0
 20 22  1  0  0  0  0
 19 20  2  0  0  0  0
 19 28  1  0  0  0  0
 17 18  1  0  0  0  0
 17 19  1  0  0  0  0
 15 16  1  0  0  0  0
 15 17  1  0  0  0  0
 14 15  2  0  0  0  0
 14 28  1  0  0  0  0
 11 12  1  0  0  0  0
 11 13  1  0  0  0  0
 11 14  1  0  0  0  0
  9 10  1  0  0  0  0
  9 11  1  0  0  0  0
  9 29  1  0  0  0  0
  7  8  1  0  0  0  0
  7  9  1  0  0  0  0
 33 34  1  0  0  0  0
 33 35  1  0  0  0  0
 33 36  1  0  0  0  0
 31 32  1  0  0  0  0
 31 33  1  0  0  0  0
M  END
$$$$
default_name
  -OEChem-02102213163D

 36 37  0     1  0  0  0  0  0999 V2000
   -4.0843   -4.0736    1.2944 H   0  0  0  0  0  0  0  0  0  0  0  0
   -4.0342   -3.2816    0.5484 C   0  0  0  0  0  0  0  0  0  0  0  0
   -4.8842   -2.6126    0.6694 H   0  0  0  0  0  0  0  0  0  0  0  0
   -4.0433   -3.7186   -0.4486 H   0  0  0  0  0  0  0  0  0  0  0  0
   -2.7532   -2.5046    0.7444 C   0  0  0  0  0  0  0  0  0  0  0  0
   -1.9803   -2.8096    1.6434 O   0  0  0  0  0  0  0  0  0  0  0  0
   -2.5332   -1.4966   -0.0966 N   0  0  0  0  0  0  0  0  0  0  0  0
   -3.2312   -1.2816   -0.7936 H   0  0  0  0  0  0  0  0  0  0  0  0
   -1.3593   -0.6196   -0.0536 C   0  0  1  0  0  0  0  0  0  0  0  0
   -0.8788   -0.7266    0.9196 H   0  0  0  0  0  0  0  0  0  0  0  0
   -0.3559   -1.0533   -1.1339 C   0  0  0  0  0  0  0  0  0  0  0  0
    0.3884   -0.2649   -1.2594 H   0  0  0  0  0  0  0  0  0  0  0  0
    0.1651   -1.9467   -0.7854 H   0  0  0  0  0  0  0  0  0  0  0  0
   -0.9528   -1.3452   -2.4772 C   0  0  0  0  0  0  0  0  0  0  0  0
   -1.1438   -2.5762   -3.0024 C   0  0  0  0  0  0  0  0  0  0  0  0
   -0.8670   -3.5048   -2.5153 H   0  0  0  0  0  0  0  0  0  0  0  0
   -1.7588   -2.4652   -4.2340 N   0  0  0  0  0  0  0  0  0  0  0  0
   -1.9954   -3.2583   -4.8120 H   0  0  0  0  0  0  0  0  0  0  0  0
   -2.0114   -1.1492   -4.5584 C   0  0  0  0  0  0  0  0  0  0  0  0
   -2.6274   -0.5347   -5.6581 C   0  0  0  0  0  0  0  0  0  0  0  0
   -3.0116   -1.1298   -6.4735 H   0  0  0  0  0  0  0  0  0  0  0  0
   -2.7362    0.8662   -5.6850 C   0  0  0  0  0  0  0  0  0  0  0  0
   -3.2073    1.3577   -6.5255 H   0  0  0  0  0  0  0  0  0  0  0  0
   -2.2251    1.6295   -4.6194 C   0  0  0  0  0  0  0  0  0  0  0  0
   -2.3035    2.7075   -4.6482 H   0  0  0  0  0  0  0  0  0  0  0  0
   -1.6062    1.0013   -3.5201 C   0  0  0  0  0  0  0  0  0  0  0  0
   -1.2059    1.6003   -2.7145 H   0  0  0  0  0  0  0  0  0  0  0  0
   -1.4868   -0.4041   -3.4602 C   0  0  0  0  0  0  0  0  0  0  0  0
   -1.7617    0.8549   -0.2106 C   0  0  0  0  0  0  0  0  0  0  0  0
   -2.5726    1.1871   -1.0741 O   0  0  0  0  0  0  0  0  0  0  0  0
   -1.1941    1.7377    0.6223 N   0  0  0  0  0  0  0  0  0  0  0  0
   -0.4976    1.3916    1.2669 H   0  0  0  0  0  0  0  0  0  0  0  0
   -1.4666    3.1722    0.6095 C   0  0  0  0  0  0  0  0  0  0  0  0
   -2.5439    3.3427    0.6539 H   0  0  0  0  0  0  0  0  0  0  0  0
   -0.9893    3.6529    1.4644 H   0  0  0  0  0  0  0  0  0  0  0  0
   -1.0808    3.6095   -0.3129 H   0  0  0  0  0  0  0  0  0  0  0  0
  5  6  2  0  0  0  0
  5  7  1  0  0  0  0
  2  3  1  0  0  0  0
  2  4  1  0  0  0  0
  2  5  1  0  0  0  0
  1  2  1  0  0  0  0
 29 30  2  0  0  0  0
 29 31  1  0  0  0  0
 26 27  1  0  0  0  0
 26 28  2  0  0  0  0
 24 25  1  0  0  0  0
 24 26  1  0  0  0  0
 22 23  1  0  0  0  0
 22 24  2  0  0  0  0
 20 21  1  0  0  0  0
 20 22  1  0  0  0  0
 19 20  2  0  0  0  0
 19 28  1  0  0  0  0
 17 18  1  0  0  0  0
 17 19  1  0  0  0  0
 15 16  1  0  0  0  0
 15 17  1  0  0  0  0
 14 15  2  0  0  0  0
 14 28  1  0  0  0  0
 11 12  1  0  0  0  0
 11 13  1  0  0  0  0
 11 14  1  0  0  0  0
  9 10  1  0  0  0  0
  9 11  1  0  0  0  0
  9 29  1  0  0  0  0
  7  8  1  0  0  0  0
  7  9  1  0  0  0  0
 33 34  1  0  0  0  0
 33 35  1  0  0  0  0
 33 36  1  0  0  0  0
 31 32  1  0  0  0  0
 31 33  1  0  0  0  0
M  END
$$$$
default_name
  -OEChem-02102213163D

 36 37  0     1  0  0  0  0  0999 V2000
   -4.0843   -4.0736    1.2944 H   0  0  0  0  0  0  0  0  0  0  0  0
   -4.0342   -3.2816    0.5484 C   0  0  0  0  0  0  0  0  0  0  0  0
   -4.8842   -2.6126    0.6694 H   0  0  0  0  0  0  0  0  0  0  0  0
   -4.0433   -3.7186   -0.4486 H   0  0  0  0  0  0  0  0  0  0  0  0
   -2.7532   -2.5046    0.7444 C   0  0  0  0  0  0  0  0  0  0  0  0
   -1.9803   -2.8096    1.6434 O   0  0  0  0  0  0  0  0  0  0  0  0
   -2.5332   -1.4966   -0.0966 N   0  0  0  0  0  0  0  0  0  0  0  0
   -3.2312   -1.2816   -0.7936 H   0  0  0  0  0  0  0  0  0  0  0  0
   -1.3593   -0.6196   -0.0536 C   0  0  1  0  0  0  0  0  0  0  0  0
   -0.8788   -0.7266    0.9196 H   0  0  0  0  0  0  0  0  0  0  0  0
   -0.3559   -1.0533   -1.1339 C   0  0  0  0  0  0  0  0  0  0  0  0
    0.3884   -0.2649   -1.2594 H   0  0  0  0  0  0  0  0  0  0  0  0
    0.1651   -1.9467   -0.7854 H   0  0  0  0  0  0  0  0  0  0  0  0
   -0.9528   -1.3452   -2.4772 C   0  0  0  0  0  0  0  0  0  0  0  0
   -1.4071   -2.5493   -2.8912 C   0  0  0  0  0  0  0  0  0  0  0  0
   -1.3747   -3.4578   -2.2999 H   0  0  0  0  0  0  0  0  0  0  0  0
   -1.9313   -2.4352   -4.1639 N   0  0  0  0  0  0  0  0  0  0  0  0
   -2.3251   -3.2111   -4.6757 H   0  0  0  0  0  0  0  0  0  0  0  0
   -1.8555   -1.1398   -4.6297 C   0  0  0  0  0  0  0  0  0  0  0  0
   -2.2676   -0.5241   -5.8203 C   0  0  0  0  0  0  0  0  0  0  0  0
   -2.7492   -1.1005   -6.5964 H   0  0  0  0  0  0  0  0  0  0  0  0
   -2.0436    0.8529   -5.9899 C   0  0  0  0  0  0  0  0  0  0  0  0
   -2.3537    1.3447   -6.9020 H   0  0  0  0  0  0  0  0  0  0  0  0
   -1.4088    1.5902   -4.9737 C   0  0  0  0  0  0  0  0  0  0  0  0
   -1.2309    2.6477   -5.1118 H   0  0  0  0  0  0  0  0  0  0  0  0
   -0.9970    0.9605   -3.7820 C   0  0  0  0  0  0  0  0  0  0  0  0
   -0.4985    1.5359   -3.0149 H   0  0  0  0  0  0  0  0  0  0  0  0
   -1.2131   -0.4196   -3.5784 C   0  0  0  0  0  0  0  0  0  0  0  0
   -1.7617    0.8549   -0.2106 C   0  0  0  0  0  0  0  0  0  0  0  0
   -2.5726    1.1871   -1.0741 O   0  0  0  0  0  0  0  0  0  0  0  0
   -1.1941    1.7377    0.6223 N   0  0  0  0  0  0  0  0  0  0  0  0
   -0.4976    1.3916    1.2669 H   0  0  0  0  0  0  0  0  0  0  0  0
   -1.4666    3.1722    0.6095 C   0  0  0  0  0  0  0  0  0  0  0  0
   -2.5439    3.3427    0.6539 H   0  0  0  0  0  0  0  0  0  0  0  0
   -0.9893    3.6529    1.4644 H   0  0  0  0  0  0  0  0  0  0  0  0
   -1.0808    3.6095   -0.3129 H   0  0  0  0  0  0  0  0  0  0  0  0
  5  6  2  0  0  0  0
  5  7  1  0  0  0  0
  2  3  1  0  0  0  0
  2  4  1  0  0  0  0
  2  5  1  0  0  0  0
  1  2  1  0  0  0  0
 29 30  2  0  0  0  0
 29 31  1  0  0  0  0
 26 27  1  0  0  0  0
 26 28  2  0  0  0  0
 24 25  1  0  0  0  0
 24 26  1  0  0  0  0
 22 23  1  0  0  0  0
 22 24  2  0  0  0  0
 20 21  1  0  0  0  0
 20 22  1  0  0  0  0
 19 20  2  0  0  0  0
 19 28  1  0  0  0  0
 17 18  1  0  0  0  0
 17 19  1  0  0  0  0
 15 16  1  0  0  0  0
 15 17  1  0  0  0  0
 14 15  2  0  0  0  0
 14 28  1  0  0  0  0
 11 12  1  0  0  0  0
 11 13  1  0  0  0  0
 11 14  1  0  0  0  0
  9 10  1  0  0  0  0
  9 11  1  0  0  0  0
  9 29  1  0  0  0  0
  7  8  1  0  0  0  0
  7  9  1  0  0  0  0
 33 34  1  0  0  0  0
 33 35  1  0  0  0  0
 33 36  1  0  0  0  0
 31 32  1  0  0  0  0
 31 33  1  0  0  0  0
M  END
$$$$
default_name
  -OEChem-02102213163D

 36 37  0     1  0  0  0  0  0999 V2000
   -4.0843   -4.0736    1.2944 H   0  0  0  0  0  0  0  0  0  0  0  0
   -4.0342   -3.2816    0.5484 C   0  0  0  0  0  0  0  0  0  0  0  0
   -4.8842   -2.6126    0.6694 H   0  0  0  0  0  0  0  0  0  0  0  0
   -4.0433   -3.7186   -0.4486 H   0  0  0  0  0  0  0  0  0  0  0  0
   -2.7532   -2.5046    0.7444 C   0  0  0  0  0  0  0  0  0  0  0  0
   -1.9803   -2.8096    1.6434 O   0  0  0  0  0  0  0  0  0  0  0  0
   -2.5332   -1.4966   -0.0966 N   0  0  0  0  0  0  0  0  0  0  0  0
   -3.2312   -1.2816   -0.7936 H   0  0  0  0  0  0  0  0  0  0  0  0
   -1.3593   -0.6196   -0.0536 C   0  0  1  0  0  0  0  0  0  0  0  0
   -0.8788   -0.7266    0.9196 H   0  0  0  0  0  0  0  0  0  0  0  0
   -0.3559   -1.0533   -1.1339 C   0  0  0  0  0  0  0  0  0  0  0  0
    0.3884   -0.2649   -1.2594 H   0  0  0  0  0  0  0  0  0  0  0  0
    0.1651   -1.9467   -0.7854 H   0  0  0  0  0  0  0  0  0  0  0  0
   -0.9528   -1.3452   -2.4772 C   0  0  0  0  0  0  0  0  0  0  0  0
   -1.6607   -2.4508   -2.7999 C   0  0  0  0  0  0  0  0  0  0  0  0
   -1.8650   -3.2725   -2.1222 H   0  0  0  0  0  0  0  0  0  0  0  0
   -2.0944   -2.3589   -4.1079 N   0  0  0  0  0  0  0  0  0  0  0  0
   -2.6395   -3.0749   -4.5656 H   0  0  0  0  0  0  0  0  0  0  0  0
   -1.6991   -1.1742   -4.6917 C   0  0  0  0  0  0  0  0  0  0  0  0
   -1.9094   -0.6140   -5.9599 C   0  0  0  0  0  0  0  0  0  0  0  0
   -2.4827   -1.1457   -6.7050 H   0  0  0  0  0  0  0  0  0  0  0  0
   -1.3622    0.6480   -6.2482 C   0  0  0  0  0  0  0  0  0  0  0  0
   -1.5132    1.0953   -7.2213 H   0  0  0  0  0  0  0  0  0  0  0  0
   -0.6115    1.3263   -5.2706 C   0  0  0  0  0  0  0  0  0  0  0  0
   -0.1853    2.2933   -5.4995 H   0  0  0  0  0  0  0  0  0  0  0  0
   -0.4048    0.7528   -4.0000 C   0  0  0  0  0  0  0  0  0  0  0  0
    0.1851    1.2787   -3.2627 H   0  0  0  0  0  0  0  0  0  0  0  0
   -0.9463   -0.5104   -3.6772 C   0  0  0  0  0  0  0  0  0  0  0  0
   -1.7617    0.8549   -0.2106 C   0  0  0  0  0  0  0  0  0  0  0  0
   -2.5726    1.1871   -1.0741 O   0  0  0  0  0  0  0  0  0  0  0  0
   -1.1941    1.7377    0.6223 N   0  0  0  0  0  0  0  0  0  0  0  0
   -0.4976    1.3916    1.2669 H   0  0  0  0  0  0  0  0  0  0  0  0
   -1.4666    3.1722    0.6095 C   0  0  0  0  0  0  0  0  0  0  0  0
   -2.5439    3.3427    0.6539 H   0  0  0  0  0  0  0  0  0  0  0  0
   -0.9893    3.6529    1.4644 H   0  0  0  0  0  0  0  0  0  0  0  0
   -1.0808    3.6095   -0.3129 H   0  0  0  0  0  0  0  0  0  0  0  0
  5  6  2  0  0  0  0
  5  7  1  0  0  0  0
  2  3  1  0  0  0  0
  2  4  1  0  0  0  0
  2  5  1  0  0  0  0
  1  2  1  0  0  0  0
 29 30  2  0  0  0  0
 29 31  1  0  0  0  0
 26 27  1  0  0  0  0
 26 28  2  0  0  0  0
 24 25  1  0  0  0  0
 24 26  1  0  0  0  0
 22 23  1  0  0  0  0
 22 24  2  0  0  0  0
 20 21  1  0  0  0  0
 20 22  1  0  0  0  0
 19 20  2  0  0  0  0
 19 28  1  0  0  0  0
 17 18  1  0  0  0  0
 17 19  1  0  0  0  0
 15 16  1  0  0  0  0
 15 17  1  0  0  0  0
 14 15  2  0  0  0  0
 14 28  1  0  0  0  0
 11 12  1  0  0  0  0
 11 13  1  0  0  0  0
 11 14  1  0  0  0  0
  9 10  1  0  0  0  0
  9 11  1  0  0  0  0
  9 29  1  0  0  0  0
  7  8  1  0  0  0  0
  7  9  1  0  0  0  0
 33 34  1  0  0  0  0
 33 35  1  0  0  0  0
 33 36  1  0  0  0  0
 31 32  1  0  0  0  0
 31 33  1  0  0  0  0
M  END
$$$$
default_name
  -OEChem-02102213163D

 36 37  0     1  0  0  0  0  0999 V2000
   -4.0843   -4.0736    1.2944 H   0  0  0  0  0  0  0  0  0  0  0  0
   -4.0342   -3.2816    0.5484 C   0  0  0  0  0  0  0  0  0  0  0  0
   -4.8842   -2.6126    0.6694 H   0  0  0  0  0  0  0  0  0  0  0  0
   -4.0433   -3.7186   -0.4486 H   0  0  0  0  0  0  0  0  0  0  0  0
   -2.7532   -2.5046    0.7444 C   0  0  0  0  0  0  0  0  0  0  0  0
   -1.9803   -2.8096    1.6434 O   0  0  0  0  0  0  0  0  0  0  0  0
   -2.5332   -1.4966   -0.0966 N   0  0  0  0  0  0  0  0  0  0  0  0
   -3.2312   -1.2816   -0.7936 H   0  0  0  0  0  0  0  0  0  0  0  0
   -1.3593   -0.6196   -0.0536 C   0  0  1  0  0  0  0  0  0  0  0  0
   -0.8788   -0.7266    0.9196 H   0  0  0  0  0  0  0  0  0  0  0  0
   -0.3559   -1.0533   -1.1339 C   0  0  0  0  0  0  0  0  0  0  0  0
    0.3884   -0.2649   -1.2594 H   0  0  0  0  0  0  0  0  0  0  0  0
    0.1651   -1.9467   -0.7854 H   0  0  0  0  0  0  0  0  0  0  0  0
   -0.9528   -1.3452   -2.4772 C   0  0  0  0  0  0  0  0  0  0  0  0
   -1.8875   -2.2874   -2.7346 C   0  0  0  0  0  0  0  0  0  0  0  0
   -2.3047   -2.9614   -1.9945 H   0  0  0  0  0  0  0  0  0  0  0  0
   -2.2372   -2.2417   -4.0700 N   0  0  0  0  0  0  0  0  0  0  0  0
   -2.9171   -2.8591   -4.4892 H   0  0  0  0  0  0  0  0  0  0  0  0
   -1.5529   -1.2501   -4.7402 C   0  0  0  0  0  0  0  0  0  0  0  0
   -1.5772   -0.7983   -6.0675 C   0  0  0  0  0  0  0  0  0  0  0  0
   -2.2304   -1.2623   -6.7918 H   0  0  0  0  0  0  0  0  0  0  0  0
   -0.7386    0.2653   -6.4422 C   0  0  0  0  0  0  0  0  0  0  0  0
   -0.7430    0.6265   -7.4617 H   0  0  0  0  0  0  0  0  0  0  0  0
    0.1124    0.8559   -5.4901 C   0  0  0  0  0  0  0  0  0  0  0  0
    0.7620    1.6685   -5.7847 H   0  0  0  0  0  0  0  0  0  0  0  0
    0.1300    0.3923   -4.1593 C   0  0  0  0  0  0  0  0  0  0  0  0
    0.7981    0.8460   -3.4412 H   0  0  0  0  0  0  0  0  0  0  0  0
   -0.7048   -0.6701   -3.7499 C   0  0  0  0  0  0  0  0  0  0  0  0
   -1.7617    0.8549   -0.2106 C   0  0  0  0  0  0  0  0  0  0  0  0
   -2.5726    1.1871   -1.0741 O   0  0  0  0  0  0  0  0  0  0  0  0
   -1.1941    1.7377    0.6223 N   0  0  0  0  0  0  0  0  0  0  0  0
   -0.4976    1.3916    1.2669 H   0  0  0  0  0  0  0  0  0  0  0  0
   -1.4666    3.1722    0.6095 C   0  0  0  0  0  0  0  0  0  0  0  0
   -2.5439    3.3427    0.6539 H   0  0  0  0  0  0  0  0  0  0  0  0
   -0.9893    3.6529    1.4644 H   0  0  0  0  0  0  0  0  0  0  0  0
   -1.0808    3.6095   -0.3129 H   0  0  0  0  0  0  0  0  0  0  0  0
  5  6  2  0  0  0  0
  5  7  1  0  0  0  0
  2  3  1  0  0  0  0
  2  4  1  0  0  0  0
  2  5  1  0  0  0  0
  1  2  1  0  0  0  0
 29 30  2  0  0  0  0
 29 31  1  0  0  0  0
 26 27  1  0  0  0  0
 26 28  2  0  0  0  0
 24 25  1  0  0  0  0
 24 26  1  0  0  0  0
 22 23  1  0  0  0  0
 22 24  2  0  0  0  0
 20 21  1  0  0  0  0
 20 22  1  0  0  0  0
 19 20  2  0  0  0  0
 19 28  1  0  0  0  0
 17 18  1  0  0  0  0
 17 19  1  0  0  0  0
 15 16  1  0  0  0  0
 15 17  1  0  0  0  0
 14 15  2  0  0  0  0
 14 28  1  0  0  0  0
 11 12  1  0  0  0  0
 11 13  1  0  0  0  0
 11 14  1  0  0  0  0
  9 10  1  0  0  0  0
  9 11  1  0  0  0  0
  9 29  1  0  0  0  0
  7  8  1  0  0  0  0
  7  9  1  0  0  0  0
 33 34  1  0  0  0  0
 33 35  1  0  0  0  0
 33 36  1  0  0  0  0
 31 32  1  0  0  0  0
 31 33  1  0  0  0  0
M  END
$$$$
default_name
  -OEChem-02102213163D

 36 37  0     1  0  0  0  0  0999 V2000
   -4.0843   -4.0736    1.2944 H   0  0  0  0  0  0  0  0  0  0  0  0
   -4.0342   -3.2816    0.5484 C   0  0  0  0  0  0  0  0  0  0  0  0
   -4.8842   -2.6126    0.6694 H   0  0  0  0  0  0  0  0  0  0  0  0
   -4.0433   -3.7186   -0.4486 H   0  0  0  0  0  0  0  0  0  0  0  0
   -2.7532   -2.5046    0.7444 C   0  0  0  0  0  0  0  0  0  0  0  0
   -1.9803   -2.8096    1.6434 O   0  0  0  0  0  0  0  0  0  0  0  0
   -2.5332   -1.4966   -0.0966 N   0  0  0  0  0  0  0  0  0  0  0  0
   -3.2312   -1.2816   -0.7936 H   0  0  0  0  0  0  0  0  0  0  0  0
   -1.3593   -0.6196   -0.0536 C   0  0  1  0  0  0  0  0  0  0  0  0
   -0.8788   -0.7266    0.9196 H   0  0  0  0  0  0  0  0  0  0  0  0
   -0.3559   -1.0533   -1.1339 C   0  0  0  0  0  0  0  0  0  0  0  0
    0.3884   -0.2649   -1.2594 H   0  0  0  0  0  0  0  0  0  0  0  0
    0.1651   -1.9467   -0.7854 H   0  0  0  0  0  0  0  0  0  0  0  0
   -0.9528   -1.3452   -2.4772 C   0  0  0  0  0  0  0  0  0  0  0  0
   -2.0719   -2.0702   -2.6999 C   0  0  0  0  0  0  0  0  0  0  0  0
   -2.6636   -2.5457   -1.9253 H   0  0  0  0  0  0  0  0  0  0  0  0
   -2.3498   -2.0914   -4.0526 N   0  0  0  0  0  0  0  0  0  0  0  0
   -3.1391   -2.5783   -4.4515 H   0  0  0  0  0  0  0  0  0  0  0  0
   -1.4268   -1.3624   -4.7718 C   0  0  0  0  0  0  0  0  0  0  0  0
   -1.2937   -1.0645   -6.1356 C   0  0  0  0  0  0  0  0  0  0  0  0
   -2.0093   -1.4425   -6.8509 H   0  0  0  0  0  0  0  0  0  0  0  0
   -0.2152   -0.2689   -6.5587 C   0  0  0  0  0  0  0  0  0  0  0  0
   -0.0958   -0.0297   -7.6067 H   0  0  0  0  0  0  0  0  0  0  0  0
    0.7135    0.2109   -5.6171 C   0  0  0  0  0  0  0  0  0  0  0  0
    1.5464    0.8157   -5.9480 H   0  0  0  0  0  0  0  0  0  0  0  0
    0.5709   -0.0964   -4.2491 C   0  0  0  0  0  0  0  0  0  0  0  0
    1.2989    0.2675   -3.5380 H   0  0  0  0  0  0  0  0  0  0  0  0
   -0.5048   -0.8879   -3.7914 C   0  0  0  0  0  0  0  0  0  0  0  0
   -1.7617    0.8549   -0.2106 C   0  0  0  0  0  0  0  0  0  0  0  0
   -2.5726    1.1871   -1.0741 O   0  0  0  0  0  0  0  0  0  0  0  0
   -1.1941    1.7377    0.6223 N   0  0  0  0  0  0  0  0  0  0  0  0
   -0.4976    1.3916    1.2669 H   0  0  0  0  0  0  0  0  0  0  0  0
   -1.4666    3.1722    0.6095 C   0  0  0  0  0  0  0  0  0  0  0  0
   -2.5439    3.3427    0.6539 H   0  0  0  0  0  0  0  0  0  0  0  0
   -0.9893    3.6529    1.4644 H   0  0  0  0  0  0  0  0  0  0  0  0
   -1.0808    3.6095   -0.3129 H   0  0  0  0  0  0  0  0  0  0  0  0
  5  6  2  0  0  0  0
  5  7  1  0  0  0  0
  2  3  1  0  0  0  0
  2  4  1  0  0  0  0
  2  5  1  0  0  0  0
  1  2  1  0  0  0  0
 29 30  2  0  0  0  0
 29 31  1  0  0  0  0
 26 27  1  0  0  0  0
 26 28  2  0  0  0  0
 24 25  1  0  0  0  0
 24 26  1  0  0  0  0
 22 23  1  0  0  0  0
 22 24  2  0  0  0  0
 20 21  1  0  0  0  0
 20 22  1  0  0  0  0
 19 20  2  0  0  0  0
 19 28  1  0  0  0  0
 17 18  1  0  0  0  0
 17 19  1  0  0  0  0
 15 16  1  0  0  0  0
 15 17  1  0  0  0  0
 14 15  2  0  0  0  0
 14 28  1  0  0  0  0
 11 12  1  0  0  0  0
 11 13  1  0  0  0  0
 11 14  1  0  0  0  0
  9 10  1  0  0  0  0
  9 11  1  0  0  0  0
  9 29  1  0  0  0  0
  7  8  1  0  0  0  0
  7  9  1  0  0  0  0
 33 34  1  0  0  0  0
 33 35  1  0  0  0  0
 33 36  1  0  0  0  0
 31 32  1  0  0  0  0
 31 33  1  0  0  0  0
M  END
$$$$
default_name
  -OEChem-02102213163D

 36 37  0     1  0  0  0  0  0999 V2000
   -4.0843   -4.0736    1.2944 H   0  0  0  0  0  0  0  0  0  0  0  0
   -4.0342   -3.2816    0.5484 C   0  0  0  0  0  0  0  0  0  0  0  0
   -4.8842   -2.6126    0.6694 H   0  0  0  0  0  0  0  0  0  0  0  0
   -4.0433   -3.7186   -0.4486 H   0  0  0  0  0  0  0  0  0  0  0  0
   -2.7532   -2.5046    0.7444 C   0  0  0  0  0  0  0  0  0  0  0  0
   -1.9803   -2.8096    1.6434 O   0  0  0  0  0  0  0  0  0  0  0  0
   -2.5332   -1.4966   -0.0966 N   0  0  0  0  0  0  0  0  0  0  0  0
   -3.2312   -1.2816   -0.7936 H   0  0  0  0  0  0  0  0  0  0  0  0
   -1.3593   -0.6196   -0.0536 C   0  0  1  0  0  0  0  0  0  0  0  0
   -0.8788   -0.7266    0.9196 H   0  0  0  0  0  0  0  0  0  0  0  0
   -0.3559   -1.0533   -1.1339 C   0  0  0  0  0  0  0  0  0  0  0  0
    0.3884   -0.2649   -1.2594 H   0  0  0  0  0  0  0  0  0  0  0  0
    0.1651   -1.9467   -0.7854 H   0  0  0  0  0  0  0  0  0  0  0  0
   -0.9528   -1.3452   -2.4772 C   0  0  0  0  0  0  0  0  0  0  0  0
   -2.2014   -1.8141   -2.6980 C   0  0  0  0  0  0  0  0  0  0  0  0
   -2.9173   -2.0538   -1.9194 H   0  0  0  0  0  0  0  0  0  0  0  0
   -2.4246   -1.9183   -4.0570 N   0  0  0  0  0  0  0  0  0  0  0  0
   -3.2902   -2.2518   -4.4553 H   0  0  0  0  0  0  0  0  0  0  0  0
   -1.3295   -1.5033   -4.7845 C   0  0  0  0  0  0  0  0  0  0  0  0
   -1.0781   -1.3945   -6.1597 C   0  0  0  0  0  0  0  0  0  0  0  0
   -1.8346   -1.6739   -6.8783 H   0  0  0  0  0  0  0  0  0  0  0  0
    0.1723   -0.9184   -6.5897 C   0  0  0  0  0  0  0  0  0  0  0  0
    0.3845   -0.8287   -7.6465 H   0  0  0  0  0  0  0  0  0  0  0  0
    1.1509   -0.5646   -5.6429 C   0  0  0  0  0  0  0  0  0  0  0  0
    2.1146   -0.2067   -5.9782 H   0  0  0  0  0  0  0  0  0  0  0  0
    0.8880   -0.6800   -4.2631 C   0  0  0  0  0  0  0  0  0  0  0  0
    1.6533   -0.4175   -3.5467 H   0  0  0  0  0  0  0  0  0  0  0  0
   -0.3601   -1.1489   -3.7990 C   0  0  0  0  0  0  0  0  0  0  0  0
   -1.7617    0.8549   -0.2106 C   0  0  0  0  0  0  0  0  0  0  0  0
   -2.5726    1.1871   -1.0741 O   0  0  0  0  0  0  0  0  0  0  0  0
   -1.1941    1.7377    0.6223 N   0  0  0  0  0  0  0  0  0  0  0  0
   -0.4976    1.3916    1.2669 H   0  0  0  0  0  0  0  0  0  0  0  0
   -1.4666    3.1722    0.6095 C   0  0  0  0  0  0  0  0  0  0  0  0
   -2.5439    3.3427    0.6539 H   0  0  0  0  0  0  0  0  0  0  0  0
   -0.9893    3.6529    1.4644 H   0  0  0  0  0  0  0  0  0  0  0  0
   -1.0808    3.6095   -0.3129 H   0  0  0  0  0  0  0  0  0  0  0  0
  5  6  2  0  0  0  0
  5  7  1  0  0  0  0
  2  3  1  0  0  0  0
  2  4  1  0  0  0  0
  2  5  1  0  0  0  0
  1  2  1  0  0  0  0
 29 30  2  0  0  0  0
 29 31  1  0  0  0  0
 26 27  1  0  0  0  0
 26 28  2  0  0  0  0
 24 25  1  0  0  0  0
 24 26  1  0  0  0  0
 22 23  1  0  0  0  0
 22 24  2  0  0  0  0
 20 21  1  0  0  0  0
 20 22  1  0  0  0  0
 19 20  2  0  0  0  0
 19 28  1  0  0  0  0
 17 18  1  0  0  0  0
 17 19  1  0  0  0  0
 15 16  1  0  0  0  0
 15 17  1  0  0  0  0
 14 15  2  0  0  0  0
 14 28  1  0  0  0  0
 11 12  1  0  0  0  0
 11 13  1  0  0  0  0
 11 14  1  0  0  0  0
  9 10  1  0  0  0  0
  9 11  1  0  0  0  0
  9 29  1  0  0  0  0
  7  8  1  0  0  0  0
  7  9  1  0  0  0  0
 33 34  1  0  0  0  0
 33 35  1  0  0  0  0
 33 36  1  0  0  0  0
 31 32  1  0  0  0  0
 31 33  1  0  0  0  0
M  END
$$$$
default_name
  -OEChem-02102213163D

 36 37  0     1  0  0  0  0  0999 V2000
   -4.0843   -4.0736    1.2944 H   0  0  0  0  0  0  0  0  0  0  0  0
   -4.0342   -3.2816    0.5484 C   0  0  0  0  0  0  0  0  0  0  0  0
   -4.8842   -2.6126    0.6694 H   0  0  0  0  0  0  0  0  0  0  0  0
   -4.0433   -3.7186   -0.4486 H   0  0  0  0  0  0  0  0  0  0  0  0
   -2.7532   -2.5046    0.7444 C   0  0  0  0  0  0  0  0  0  0  0  0
   -1.9803   -2.8096    1.6434 O   0  0  0  0  0  0  0  0  0  0  0  0
   -2.5332   -1.4966   -0.0966 N   0  0  0  0  0  0  0  0  0  0  0  0
   -3.2312   -1.2816   -0.7936 H   0  0  0  0  0  0  0  0  0  0  0  0
   -1.3593   -0.6196   -0.0536 C   0  0  1  0  0  0  0  0  0  0  0  0
   -0.8788   -0.7266    0.9196 H   0  0  0  0  0  0  0  0  0  0  0  0
   -0.3559   -1.0533   -1.1339 C   0  0  0  0  0  0  0  0  0  0  0  0
    0.3884   -0.2649   -1.2594 H   0  0  0  0  0  0  0  0  0  0  0  0
    0.1651   -1.9467   -0.7854 H   0  0  0  0  0  0  0  0  0  0  0  0
   -0.9528   -1.3452   -2.4772 C   0  0  0  0  0  0  0  0  0  0  0  0
   -2.2672   -1.5364   -2.7291 C   0  0  0  0  0  0  0  0  0  0  0  0
   -3.0486   -1.5192   -1.9772 H   0  0  0  0  0  0  0  0  0  0  0  0
   -2.4565   -1.7343   -4.0828 N   0  0  0  0  0  0  0  0  0  0  0  0
   -3.3603   -1.9017   -4.5003 H   0  0  0  0  0  0  0  0  0  0  0  0
   -1.2676   -1.6633   -4.7772 C   0  0  0  0  0  0  0  0  0  0  0  0
   -0.9453   -1.7657   -6.1381 C   0  0  0  0  0  0  0  0  0  0  0  0
   -1.7181   -1.9408   -6.8720 H   0  0  0  0  0  0  0  0  0  0  0  0
    0.3974   -1.6389   -6.5332 C   0  0  0  0  0  0  0  0  0  0  0  0
    0.6650   -1.7160   -7.5784 H   0  0  0  0  0  0  0  0  0  0  0  0
    1.3948   -1.4179   -5.5659 C   0  0  0  0  0  0  0  0  0  0  0  0
    2.4276   -1.3293   -5.8734 H   0  0  0  0  0  0  0  0  0  0  0  0
    1.0596   -1.3187   -4.2006 C   0  0  0  0  0  0  0  0  0  0  0  0
    1.8372   -1.1622   -3.4665 H   0  0  0  0  0  0  0  0  0  0  0  0
   -0.2805   -1.4354   -3.7721 C   0  0  0  0  0  0  0  0  0  0  0  0
   -1.7617    0.8549   -0.2106 C   0  0  0  0  0  0  0  0  0  0  0  0
   -2.5726    1.1871   -1.0741 O   0  0  0  0  0  0  0  0  0  0  0  0
   -1.1941    1.7377    0.6223 N   0  0  0  0  0  0  0  0  0  0  0  0
   -0.4976    1.3916    1.2669 H   0  0  0  0  0  0  0  0  0  0  0  0
   -1.4666    3.1722    0.6095 C   0  0  0  0  0  0  0  0  0  0  0  0
   -2.5439    3.3427    0.6539 H   0  0  0  0  0  0  0  0  0  0  0  0
   -0.9893    3.6529    1.4644 H   0  0  0  0  0  0  0  0  0  0  0  0
   -1.0808    3.6095   -0.3129 H   0  0  0  0  0  0  0  0  0  0  0  0
  5  6  2  0  0  0  0
  5  7  1  0  0  0  0
  2  3  1  0  0  0  0
  2  4  1  0  0  0  0
  2  5  1  0  0  0  0
  1  2  1  0  0  0  0
 29 30  2  0  0  0  0
 29 31  1  0  0  0  0
 26 27  1  0  0  0  0
 26 28  2  0  0  0  0
 24 25  1  0  0  0  0
 24 26  1  0  0  0  0
 22 23  1  0  0  0  0
 22 24  2  0  0  0  0
 20 21  1  0  0  0  0
 20 22  1  0  0  0  0
 19 20  2  0  0  0  0
 19 28  1  0  0  0  0
 17 18  1  0  0  0  0
 17 19  1  0  0  0  0
 15 16  1  0  0  0  0
 15 17  1  0  0  0  0
 14 15  2  0  0  0  0
 14 28  1  0  0  0  0
 11 12  1  0  0  0  0
 11 13  1  0  0  0  0
 11 14  1  0  0  0  0
  9 10  1  0  0  0  0
  9 11  1  0  0  0  0
  9 29  1  0  0  0  0
  7  8  1  0  0  0  0
  7  9  1  0  0  0  0
 33 34  1  0  0  0  0
 33 35  1  0  0  0  0
 33 36  1  0  0  0  0
 31 32  1  0  0  0  0
 31 33  1  0  0  0  0
M  END
$$$$
default_name
  -OEChem-02102213163D

 36 37  0     1  0  0  0  0  0999 V2000
   -4.0843   -4.0736    1.2944 H   0  0  0  0  0  0  0  0  0  0  0  0
   -4.0342   -3.2816    0.5484 C   0  0  0  0  0  0  0  0  0  0  0  0
   -4.8842   -2.6126    0.6694 H   0  0  0  0  0  0  0  0  0  0  0  0
   -4.0433   -3.7186   -0.4486 H   0  0  0  0  0  0  0  0  0  0  0  0
   -2.7532   -2.5046    0.7444 C   0  0  0  0  0  0  0  0  0  0  0  0
   -1.9803   -2.8096    1.6434 O   0  0  0  0  0  0  0  0  0  0  0  0
   -2.5332   -1.4966   -0.0966 N   0  0  0  0  0  0  0  0  0  0  0  0
   -3.2312   -1.2816   -0.7936 H   0  0  0  0  0  0  0  0  0  0  0  0
   -1.3593   -0.6196   -0.0536 C   0  0  1  0  0  0  0  0  0  0  0  0
   -0.8788   -0.7266    0.9196 H   0  0  0  0  0  0  0  0  0  0  0  0
   -0.3559   -1.0533   -1.1339 C   0  0  0  0  0  0  0  0  0  0  0  0
    0.3884   -0.2649   -1.2594 H   0  0  0  0  0  0  0  0  0  0  0  0
    0.1651   -1.9467   -0.7854 H   0  0  0  0  0  0  0  0  0  0  0  0
   -0.9528   -1.3452   -2.4772 C   0  0  0  0  0  0  0  0  0  0  0  0
   -2.2648   -1.2562   -2.7911 C   0  0  0  0  0  0  0  0  0  0  0  0
   -3.0485   -0.9784   -2.0948 H   0  0  0  0  0  0  0  0  0  0  0  0
   -2.4432   -1.5517   -4.1283 N   0  0  0  0  0  0  0  0  0  0  0  0
   -3.3445   -1.5519   -4.5833 H   0  0  0  0  0  0  0  0  0  0  0  0
   -1.2452   -1.8315   -4.7506 C   0  0  0  0  0  0  0  0  0  0  0  0
   -0.9041   -2.1528   -6.0723 C   0  0  0  0  0  0  0  0  0  0  0  0
   -1.6679   -2.2250   -6.8326 H   0  0  0  0  0  0  0  0  0  0  0  0
    0.4449   -2.3812   -6.3930 C   0  0  0  0  0  0  0  0  0  0  0  0
    0.7267   -2.6311   -7.4070 H   0  0  0  0  0  0  0  0  0  0  0  0
    1.4286   -2.2907   -5.3913 C   0  0  0  0  0  0  0  0  0  0  0  0
    2.4643   -2.4754   -5.6407 H   0  0  0  0  0  0  0  0  0  0  0  0
    1.0740   -1.9691   -4.0657 C   0  0  0  0  0  0  0  0  0  0  0  0
    1.8380   -1.9159   -3.3031 H   0  0  0  0  0  0  0  0  0  0  0  0
   -0.2714   -1.7279   -3.7126 C   0  0  0  0  0  0  0  0  0  0  0  0
   -1.7617    0.8549   -0.2106 C   0  0  0  0  0  0  0  0  0  0  0  0
   -2.5726    1.1871   -1.0741 O   0  0  0  0  0  0  0  0  0  0  0  0
   -1.1941    1.7377    0.6223 N   0  0  0  0  0  0  0  0  0  0  0  0
   -0.4976    1.3916    1.2669 H   0  0  0  0  0  0  0  0  0  0  0  0
   -1.4666    3.1722    0.6095 C   0  0  0  0  0  0  0  0  0  0  0  0
   -2.5439    3.3427    0.6539 H   0  0  0  0  0  0  0  0  0  0  0  0
   -0.9893    3.6529    1.4644 H   0  0  0  0  0  0  0  0  0  0  0  0
   -1.0808    3.6095   -0.3129 H   0  0  0  0  0  0  0  0  0  0  0  0
  5  6  2  0  0  0  0
  5  7  1  0  0  0  0
  2  3  1  0  0  0  0
  2  4  1  0  0  0  0
  2  5  1  0  0  0  0
  1  2  1  0  0  0  0
 29 30  2  0  0  0  0
 29 31  1  0  0  0  0
 26 27  1  0  0  0  0
 26 28  2  0  0  0  0
 24 25  1  0  0  0  0
 24 26  1  0  0  0  0
 22 23  1  0  0  0  0
 22 24  2  0  0  0  0
 20 21  1  0  0  0  0
 20 22  1  0  0  0  0
 19 20  2  0  0  0  0
 19 28  1  0  0  0  0
 17 18  1  0  0  0  0
 17 19  1  0  0  0  0
 15 16  1  0  0  0  0
 15 17  1  0  0  0  0
 14 15  2  0  0  0  0
 14 28  1  0  0  0  0
 11 12  1  0  0  0  0
 11 13  1  0  0  0  0
 11 14  1  0  0  0  0
  9 10  1  0  0  0  0
  9 11  1  0  0  0  0
  9 29  1  0  0  0  0
  7  8  1  0  0  0  0
  7  9  1  0  0  0  0
 33 34  1  0  0  0  0
 33 35  1  0  0  0  0
 33 36  1  0  0  0  0
 31 32  1  0  0  0  0
 31 33  1  0  0  0  0
M  END
$$$$
default_name
  -OEChem-02102213163D

 36 37  0     1  0  0  0  0  0999 V2000
   -4.0843   -4.0736    1.2944 H   0  0  0  0  0  0  0  0  0  0  0  0
   -4.0342   -3.2816    0.5484 C   0  0  0  0  0  0  0  0  0  0  0  0
   -4.8842   -2.6126    0.6694 H   0  0  0  0  0  0  0  0  0  0  0  0
   -4.0433   -3.7186   -0.4486 H   0  0  0  0  0  0  0  0  0  0  0  0
   -2.7532   -2.5046    0.7444 C   0  0  0  0  0  0  0  0  0  0  0  0
   -1.9803   -2.8096    1.6434 O   0  0  0  0  0  0  0  0  0  0  0  0
   -2.5332   -1.4966   -0.0966 N   0  0  0  0  0  0  0  0  0  0  0  0
   -3.2312   -1.2816   -0.7936 H   0  0  0  0  0  0  0  0  0  0  0  0
   -1.3593   -0.6196   -0.0536 C   0  0  1  0  0  0  0  0  0  0  0  0
   -0.8788   -0.7266    0.9196 H   0  0  0  0  0  0  0  0  0  0  0  0
   -0.3559   -1.0533   -1.1339 C   0  0  0  0  0  0  0  0  0  0  0  0
    0.3884   -0.2649   -1.2594 H   0  0  0  0  0  0  0  0  0  0  0  0
    0.1651   -1.9467   -0.7854 H   0  0  0  0  0  0  0  0  0  0  0  0
   -0.9528   -1.3452   -2.4772 C   0  0  0  0  0  0  0  0  0  0  0  0
   -2.1943   -0.9924   -2.8797 C   0  0  0  0  0  0  0  0  0  0  0  0
   -2.9169   -0.4681   -2.2642 H   0  0  0  0  0  0  0  0  0  0  0  0
   -2.3858   -1.3832   -4.1905 N   0  0  0  0  0  0  0  0  0  0  0  0
   -3.2438   -1.2263   -4.6988 H   0  0  0  0  0  0  0  0  0  0  0  0
   -1.2640   -1.9964   -4.7064 C   0  0  0  0  0  0  0  0  0  0  0  0
   -0.9575   -2.5295   -5.9667 C   0  0  0  0  0  0  0  0  0  0  0  0
   -1.6872   -2.5071   -6.7627 H   0  0  0  0  0  0  0  0  0  0  0  0
    0.3116   -3.0948   -6.1787 C   0  0  0  0  0  0  0  0  0  0  0  0
    0.5654   -3.5117   -7.1439 H   0  0  0  0  0  0  0  0  0  0  0  0
    1.2499   -3.1237   -5.1309 C   0  0  0  0  0  0  0  0  0  0  0  0
    2.2222   -3.5670   -5.2959 H   0  0  0  0  0  0  0  0  0  0  0  0
    0.9303   -2.5867   -3.8676 C   0  0  0  0  0  0  0  0  0  0  0  0
    1.6557   -2.6274   -3.0675 H   0  0  0  0  0  0  0  0  0  0  0  0
   -0.3335   -2.0063   -3.6245 C   0  0  0  0  0  0  0  0  0  0  0  0
   -1.7617    0.8549   -0.2106 C   0  0  0  0  0  0  0  0  0  0  0  0
   -2.5726    1.1871   -1.0741 O   0  0  0  0  0  0  0  0  0  0  0  0
   -1.1941    1.7377    0.6223 N   0  0  0  0  0  0  0  0  0  0  0  0
   -0.4976    1.3916    1.2669 H   0  0  0  0  0  0  0  0  0  0  0  0
   -1.4666    3.1722    0.6095 C   0  0  0  0  0  0  0  0  0  0  0  0
   -2.5439    3.3427    0.6539 H   0  0  0  0  0  0  0  0  0  0  0  0
   -0.9893    3.6529    1.4644 H   0  0  0  0  0  0  0  0  0  0  0  0
   -1.0808    3.6095   -0.3129 H   0  0  0  0  0  0  0  0  0  0  0  0
  5  6  2  0  0  0  0
  5  7  1  0  0  0  0
  2  3  1  0  0  0  0
  2  4  1  0  0  0  0
  2  5  1  0  0  0  0
  1  2  1  0  0  0  0
 29 30  2  0  0  0  0
 29 31  1  0  0  0  0
 26 27  1  0  0  0  0
 26 28  2  0  0  0  0
 24 25  1  0  0  0  0
 24 26  1  0  0  0  0
 22 23  1  0  0  0  0
 22 24  2  0  0  0  0
 20 21  1  0  0  0  0
 20 22  1  0  0  0  0
 19 20  2  0  0  0  0
 19 28  1  0  0  0  0
 17 18  1  0  0  0  0
 17 19  1  0  0  0  0
 15 16  1  0  0  0  0
 15 17  1  0  0  0  0
 14 15  2  0  0  0  0
 14 28  1  0  0  0  0
 11 12  1  0  0  0  0
 11 13  1  0  0  0  0
 11 14  1  0  0  0  0
  9 10  1  0  0  0  0
  9 11  1  0  0  0  0
  9 29  1  0  0  0  0
  7  8  1  0  0  0  0
  7  9  1  0  0  0  0
 33 34  1  0  0  0  0
 33 35  1  0  0  0  0
 33 36  1  0  0  0  0
 31 32  1  0  0  0  0
 31 33  1  0  0  0  0
M  END
$$$$
default_name
  -OEChem-02102213163D

 36 37  0     1  0  0  0  0  0999 V2000
   -4.0843   -4.0736    1.2944 H   0  0  0  0  0  0  0  0  0  0  0  0
   -4.0342   -3.2816    0.5484 C   0  0  0  0  0  0  0  0  0  0  0  0
   -4.8842   -2.6126    0.6694 H   0  0  0  0  0  0  0  0  0  0  0  0
   -4.0433   -3.7186   -0.4486 H   0  0  0  0  0  0  0  0  0  0  0  0
   -2.7532   -2.5046    0.7444 C   0  0  0  0  0  0  0  0  0  0  0  0
   -1.9803   -2.8096    1.6434 O   0  0  0  0  0  0  0  0  0  0  0  0
   -2.5332   -1.4966   -0.0966 N   0  0  0  0  0  0  0  0  0  0  0  0
   -3.2312   -1.2816   -0.7936 H   0  0  0  0  0  0  0  0  0  0  0  0
   -1.3593   -0.6196   -0.0536 C   0  0  1  0  0  0  0  0  0  0  0  0
   -0.8788   -0.7266    0.9196 H   0  0  0  0  0  0  0  0  0  0  0  0
   -0.3559   -1.0533   -1.1339 C   0  0  0  0  0  0  0  0  0  0  0  0
    0.3884   -0.2649   -1.2594 H   0  0  0  0  0  0  0  0  0  0  0  0
    0.1651   -1.9467   -0.7854 H   0  0  0  0  0  0  0  0  0  0  0  0
   -0.9528   -1.3452   -2.4772 C   0  0  0  0  0  0  0  0  0  0  0  0
   -2.0605   -0.7632   -2.9890 C   0  0  0  0  0  0  0  0  0  0  0  0
   -2.6630   -0.0231   -2.4737 H   0  0  0  0  0  0  0  0  0  0  0  0
   -2.2881   -1.2401   -4.2650 N   0  0  0  0  0  0  0  0  0  0  0  0
   -3.0653   -0.9470   -4.8388 H   0  0  0  0  0  0  0  0  0  0  0  0
   -1.3226   -2.1468   -4.6477 C   0  0  0  0  0  0  0  0  0  0  0  0
   -1.1018   -2.8701   -5.8286 C   0  0  0  0  0  0  0  0  0  0  0  0
   -1.7749   -2.7679   -6.6671 H   0  0  0  0  0  0  0  0  0  0  0  0
    0.0064   -3.7310   -5.9048 C   0  0  0  0  0  0  0  0  0  0  0  0
    0.1920   -4.2977   -6.8072 H   0  0  0  0  0  0  0  0  0  0  0  0
    0.8710   -3.8599   -4.8025 C   0  0  0  0  0  0  0  0  0  0  0  0
    1.7176   -4.5297   -4.8625 H   0  0  0  0  0  0  0  0  0  0  0  0
    0.6382   -3.1295   -3.6199 C   0  0  0  0  0  0  0  0  0  0  0  0
    1.3026   -3.2479   -2.7758 H   0  0  0  0  0  0  0  0  0  0  0  0
   -0.4625   -2.2518   -3.5139 C   0  0  0  0  0  0  0  0  0  0  0  0
   -1.7617    0.8549   -0.2106 C   0  0  0  0  0  0  0  0  0  0  0  0
   -2.5726    1.1871   -1.0741 O   0  0  0  0  0  0  0  0  0  0  0  0
   -1.1941    1.7377    0.6223 N   0  0  0  0  0  0  0  0  0  0  0  0
   -0.4976    1.3916    1.2669 H   0  0  0  0  0  0  0  0  0  0  0  0
   -1.4666    3.1722    0.6095 C   0  0  0  0  0  0  0  0  0  0  0  0
   -2.5439    3.3427    0.6539 H   0  0  0  0  0  0  0  0  0  0  0  0
   -0.9893    3.6529    1.4644 H   0  0  0  0  0  0  0  0  0  0  0  0
   -1.0808    3.6095   -0.3129 H   0  0  0  0  0  0  0  0  0  0  0  0
  5  6  2  0  0  0  0
  5  7  1  0  0  0  0
  2  3  1  0  0  0  0
  2  4  1  0  0  0  0
  2  5  1  0  0  0  0
  1  2  1  0  0  0  0
 29 30  2  0  0  0  0
 29 31  1  0  0  0  0
 26 27  1  0  0  0  0
 26 28  2  0  0  0  0
 24 25  1  0  0  0  0
 24 26  1  0  0  0  0
 22 23  1  0  0  0  0
 22 24  2  0  0  0  0
 20 21  1  0  0  0  0
 20 22  1  0  0  0  0
 19 20  2  0  0  0  0
 19 28  1  0  0  0  0
 17 18  1  0  0  0  0
 17 19  1  0  0  0  0
 15 16  1  0  0  0  0
 15 17  1  0  0  0  0
 14 15  2  0  0  0  0
 14 28  1  0  0  0  0
 11 12  1  0  0  0  0
 11 13  1  0  0  0  0
 11 14  1  0  0  0  0
  9 10  1  0  0  0  0
  9 11  1  0  0  0  0
  9 29  1  0  0  0  0
  7  8  1  0  0  0  0
  7  9  1  0  0  0  0
 33 34  1  0  0  0  0
 33 35  1  0  0  0  0
 33 36  1  0  0  0  0
 31 32  1  0  0  0  0
 31 33  1  0  0  0  0
M  END
$$$$
default_name
  -OEChem-02102213163D

 36 37  0     1  0  0  0  0  0999 V2000
   -4.0843   -4.0736    1.2944 H   0  0  0  0  0  0  0  0  0  0  0  0
   -4.0342   -3.2816    0.5484 C   0  0  0  0  0  0  0  0  0  0  0  0
   -4.8842   -2.6126    0.6694 H   0  0  0  0  0  0  0  0  0  0  0  0
   -4.0433   -3.7186   -0.4486 H   0  0  0  0  0  0  0  0  0  0  0  0
   -2.7532   -2.5046    0.7444 C   0  0  0  0  0  0  0  0  0  0  0  0
   -1.9803   -2.8096    1.6434 O   0  0  0  0  0  0  0  0  0  0  0  0
   -2.5332   -1.4966   -0.0966 N   0  0  0  0  0  0  0  0  0  0  0  0
   -3.2312   -1.2816   -0.7936 H   0  0  0  0  0  0  0  0  0  0  0  0
   -1.3593   -0.6196   -0.0536 C   0  0  1  0  0  0  0  0  0  0  0  0
   -0.8788   -0.7266    0.9196 H   0  0  0  0  0  0  0  0  0  0  0  0
   -0.3559   -1.0533   -1.1339 C   0  0  0  0  0  0  0  0  0  0  0  0
    0.3884   -0.2649   -1.2594 H   0  0  0  0  0  0  0  0  0  0  0  0
    0.1651   -1.9467   -0.7854 H   0  0  0  0  0  0  0  0  0  0  0  0
   -0.9528   -1.3452   -2.4772 C   0  0  0  0  0  0  0  0  0  0  0  0
   -1.8726   -0.5840   -3.1114 C   0  0  0  0  0  0  0  0  0  0  0  0
   -2.3039    0.3261   -2.7092 H   0  0  0  0  0  0  0  0  0  0  0  0
   -2.1568   -1.1322   -4.3468 N   0  0  0  0  0  0  0  0  0  0  0  0
   -2.8210   -0.7330   -4.9938 H   0  0  0  0  0  0  0  0  0  0  0  0
   -1.4171   -2.2723   -4.5784 C   0  0  0  0  0  0  0  0  0  0  0  0
   -1.3271   -3.1514   -5.6673 C   0  0  0  0  0  0  0  0  0  0  0  0
   -1.9249   -2.9896   -6.5523 H   0  0  0  0  0  0  0  0  0  0  0  0
   -0.4498   -4.2465   -5.5901 C   0  0  0  0  0  0  0  0  0  0  0  0
   -0.3680   -4.9356   -6.4197 H   0  0  0  0  0  0  0  0  0  0  0  0
    0.3176   -4.4493   -4.4285 C   0  0  0  0  0  0  0  0  0  0  0  0
    0.9851   -5.2979   -4.3701 H   0  0  0  0  0  0  0  0  0  0  0  0
    0.2176   -3.5605   -3.3393 C   0  0  0  0  0  0  0  0  0  0  0  0
    0.8029   -3.7354   -2.4478 H   0  0  0  0  0  0  0  0  0  0  0  0
   -0.6496   -2.4476   -3.3882 C   0  0  0  0  0  0  0  0  0  0  0  0
   -1.7617    0.8549   -0.2106 C   0  0  0  0  0  0  0  0  0  0  0  0
   -2.5726    1.1871   -1.0741 O   0  0  0  0  0  0  0  0  0  0  0  0
   -1.1941    1.7377    0.6223 N   0  0  0  0  0  0  0  0  0  0  0  0
   -0.4976    1.3916    1.2669 H   0  0  0  0  0  0  0  0  0  0  0  0
   -1.4666    3.1722    0.6095 C   0  0  0  0  0  0  0  0  0  0  0  0
   -2.5439    3.3427    0.6539 H   0  0  0  0  0  0  0  0  0  0  0  0
   -0.9893    3.6529    1.4644 H   0  0  0  0  0  0  0  0  0  0  0  0
   -1.0808    3.6095   -0.3129 H   0  0  0  0  0  0  0  0  0  0  0  0
  5  6  2  0  0  0  0
  5  7  1  0  0  0  0
  2  3  1  0  0  0  0
  2  4  1  0  0  0  0
  2  5  1  0  0  0  0
  1  2  1  0  0  0  0
 29 30  2  0  0  0  0
 29 31  1  0  0  0  0
 26 27  1  0  0  0  0
 26 28  2  0  0  0  0
 24 25  1  0  0  0  0
 24 26  1  0  0  0  0
 22 23  1  0  0  0  0
 22 24  2  0  0  0  0
 20 21  1  0  0  0  0
 20 22  1  0  0  0  0
 19 20  2  0  0  0  0
 19 28  1  0  0  0  0
 17 18  1  0  0  0  0
 17 19  1  0  0  0  0
 15 16  1  0  0  0  0
 15 17  1  0  0  0  0
 14 15  2  0  0  0  0
 14 28  1  0  0  0  0
 11 12  1  0  0  0  0
 11 13  1  0  0  0  0
 11 14  1  0  0  0  0
  9 10  1  0  0  0  0
  9 11  1  0  0  0  0
  9 29  1  0  0  0  0
  7  8  1  0  0  0  0
  7  9  1  0  0  0  0
 33 34  1  0  0  0  0
 33 35  1  0  0  0  0
 33 36  1  0  0  0  0
 31 32  1  0  0  0  0
 31 33  1  0  0  0  0
M  END
$$$$
default_name
  -OEChem-02102213163D

 36 37  0     1  0  0  0  0  0999 V2000
   -4.0843   -4.0736    1.2944 H   0  0  0  0  0  0  0  0  0  0  0  0
   -4.0342   -3.2816    0.5484 C   0  0  0  0  0  0  0  0  0  0  0  0
   -4.8842   -2.6126    0.6694 H   0  0  0  0  0  0  0  0  0  0  0  0
   -4.0433   -3.7186   -0.4486 H   0  0  0  0  0  0  0  0  0  0  0  0
   -2.7532   -2.5046    0.7444 C   0  0  0  0  0  0  0  0  0  0  0  0
   -1.9803   -2.8096    1.6434 O   0  0  0  0  0  0  0  0  0  0  0  0
   -2.5332   -1.4966   -0.0966 N   0  0  0  0  0  0  0  0  0  0  0  0
   -3.2312   -1.2816   -0.7936 H   0  0  0  0  0  0  0  0  0  0  0  0
   -1.3593   -0.6196   -0.0536 C   0  0  1  0  0  0  0  0  0  0  0  0
   -0.8788   -0.7266    0.9196 H   0  0  0  0  0  0  0  0  0  0  0  0
   -0.3559   -1.0533   -1.1339 C   0  0  0  0  0  0  0  0  0  0  0  0
    0.3884   -0.2649   -1.2594 H   0  0  0  0  0  0  0  0  0  0  0  0
    0.1651   -1.9467   -0.7854 H   0  0  0  0  0  0  0  0  0  0  0  0
   -0.9528   -1.3452   -2.4772 C   0  0  0  0  0  0  0  0  0  0  0  0
   -1.6434   -0.4672   -3.2386 C   0  0  0  0  0  0  0  0  0  0  0  0
   -1.8641    0.5559   -2.9545 H   0  0  0  0  0  0  0  0  0  0  0  0
   -2.0008   -1.0669   -4.4303 N   0  0  0  0  0  0  0  0  0  0  0  0
   -2.5276   -0.5991   -5.1534 H   0  0  0  0  0  0  0  0  0  0  0  0
   -1.5409   -2.3646   -4.5034 C   0  0  0  0  0  0  0  0  0  0  0  0
   -1.6182   -3.3541   -5.4939 C   0  0  0  0  0  0  0  0  0  0  0  0
   -2.1270   -3.1571   -6.4261 H   0  0  0  0  0  0  0  0  0  0  0  0
   -1.0259   -4.6062   -5.2559 C   0  0  0  0  0  0  0  0  0  0  0  0
   -1.0764   -5.3820   -6.0080 H   0  0  0  0  0  0  0  0  0  0  0  0
   -0.3725   -4.8517   -4.0344 C   0  0  0  0  0  0  0  0  0  0  0  0
    0.0745   -5.8191   -3.8522 H   0  0  0  0  0  0  0  0  0  0  0  0
   -0.3027   -3.8503   -3.0451 C   0  0  0  0  0  0  0  0  0  0  0  0
    0.1907   -4.0565   -2.1059 H   0  0  0  0  0  0  0  0  0  0  0  0
   -0.8821   -2.5803   -3.2560 C   0  0  0  0  0  0  0  0  0  0  0  0
   -1.7617    0.8549   -0.2106 C   0  0  0  0  0  0  0  0  0  0  0  0
   -2.5726    1.1871   -1.0741 O   0  0  0  0  0  0  0  0  0  0  0  0
   -1.1941    1.7377    0.6223 N   0  0  0  0  0  0  0  0  0  0  0  0
   -0.4976    1.3916    1.2669 H   0  0  0  0  0  0  0  0  0  0  0  0
   -1.4666    3.1722    0.6095 C   0  0  0  0  0  0  0  0  0  0  0  0
   -2.5439    3.3427    0.6539 H   0  0  0  0  0  0  0  0  0  0  0  0
   -0.9893    3.6529    1.4644 H   0  0  0  0  0  0  0  0  0  0  0  0
   -1.0808    3.6095   -0.3129 H   0  0  0  0  0  0  0  0  0  0  0  0
  5  6  2  0  0  0  0
  5  7  1  0  0  0  0
  2  3  1  0  0  0  0
  2  4  1  0  0  0  0
  2  5  1  0  0  0  0
  1  2  1  0  0  0  0
 29 30  2  0  0  0  0
 29 31  1  0  0  0  0
 26 27  1  0  0  0  0
 26 28  2  0  0  0  0
 24 25  1  0  0  0  0
 24 26  1  0  0  0  0
 22 23  1  0  0  0  0
 22 24  2  0  0  0  0
 20 21  1  0  0  0  0
 20 22  1  0  0  0  0
 19 20  2  0  0  0  0
 19 28  1  0  0  0  0
 17 18  1  0  0  0  0
 17 19  1  0  0  0  0
 15 16  1  0  0  0  0
 15 17  1  0  0  0  0
 14 15  2  0  0  0  0
 14 28  1  0  0  0  0
 11 12  1  0  0  0  0
 11 13  1  0  0  0  0
 11 14  1  0  0  0  0
  9 10  1  0  0  0  0
  9 11  1  0  0  0  0
  9 29  1  0  0  0  0
  7  8  1  0  0  0  0
  7  9  1  0  0  0  0
 33 34  1  0  0  0  0
 33 35  1  0  0  0  0
 33 36  1  0  0  0  0
 31 32  1  0  0  0  0
 31 33  1  0  0  0  0
M  END
$$$$
default_name
  -OEChem-02102213163D

 36 37  0     1  0  0  0  0  0999 V2000
   -4.0843   -4.0736    1.2944 H   0  0  0  0  0  0  0  0  0  0  0  0
   -4.0342   -3.2816    0.5484 C   0  0  0  0  0  0  0  0  0  0  0  0
   -4.8842   -2.6126    0.6694 H   0  0  0  0  0  0  0  0  0  0  0  0
   -4.0433   -3.7186   -0.4486 H   0  0  0  0  0  0  0  0  0  0  0  0
   -2.7532   -2.5046    0.7444 C   0  0  0  0  0  0  0  0  0  0  0  0
   -1.9803   -2.8096    1.6434 O   0  0  0  0  0  0  0  0  0  0  0  0
   -2.5332   -1.4966   -0.0966 N   0  0  0  0  0  0  0  0  0  0  0  0
   -3.2312   -1.2816   -0.7936 H   0  0  0  0  0  0  0  0  0  0  0  0
   -1.3593   -0.6196   -0.0536 C   0  0  1  0  0  0  0  0  0  0  0  0
   -0.8788   -0.7266    0.9196 H   0  0  0  0  0  0  0  0  0  0  0  0
   -0.3559   -1.0533   -1.1339 C   0  0  0  0  0  0  0  0  0  0  0  0
    0.3884   -0.2649   -1.2594 H   0  0  0  0  0  0  0  0  0  0  0  0
    0.1651   -1.9467   -0.7854 H   0  0  0  0  0  0  0  0  0  0  0  0
   -0.9528   -1.3452   -2.4772 C   0  0  0  0  0  0  0  0  0  0  0  0
   -1.3885   -0.4206   -3.3621 C   0  0  0  0  0  0  0  0  0  0  0  0
   -1.3737    0.6506   -3.1930 H   0  0  0  0  0  0  0  0  0  0  0  0
   -1.8308   -1.0487   -4.5098 N   0  0  0  0  0  0  0  0  0  0  0  0
   -2.2050   -0.5542   -5.3064 H   0  0  0  0  0  0  0  0  0  0  0  0
   -1.6858   -2.4172   -4.4276 C   0  0  0  0  0  0  0  0  0  0  0  0
   -1.9551   -3.4646   -5.3202 C   0  0  0  0  0  0  0  0  0  0  0  0
   -2.3674   -3.2590   -6.2971 H   0  0  0  0  0  0  0  0  0  0  0  0
   -1.6827   -4.7855   -4.9251 C   0  0  0  0  0  0  0  0  0  0  0  0
   -1.8850   -5.6063   -5.5999 H   0  0  0  0  0  0  0  0  0  0  0  0
   -1.1523   -5.0396   -3.6470 C   0  0  0  0  0  0  0  0  0  0  0  0
   -0.9521   -6.0580   -3.3440 H   0  0  0  0  0  0  0  0  0  0  0  0
   -0.8874   -3.9792   -2.7573 C   0  0  0  0  0  0  0  0  0  0  0  0
   -0.4925   -4.1894   -1.7735 H   0  0  0  0  0  0  0  0  0  0  0  0
   -1.1441   -2.6410   -3.1264 C   0  0  0  0  0  0  0  0  0  0  0  0
   -1.7617    0.8549   -0.2106 C   0  0  0  0  0  0  0  0  0  0  0  0
   -2.5726    1.1871   -1.0741 O   0  0  0  0  0  0  0  0  0  0  0  0
   -1.1941    1.7377    0.6223 N   0  0  0  0  0  0  0  0  0  0  0  0
   -0.4976    1.3916    1.2669 H   0  0  0  0  0  0  0  0  0  0  0  0
   -1.4666    3.1722    0.6095 C   0  0  0  0  0  0  0  0  0  0  0  0
   -2.5439    3.3427    0.6539 H   0  0  0  0  0  0  0  0  0  0  0  0
   -0.9893    3.6529    1.4644 H   0  0  0  0  0  0  0  0  0  0  0  0
   -1.0808    3.6095   -0.3129 H   0  0  0  0  0  0  0  0  0  0  0  0
  5  6  2  0  0  0  0
  5  7  1  0  0  0  0
  2  3  1  0  0  0  0
  2  4  1  0  0  0  0
  2  5  1  0  0  0  0
  1  2  1  0  0  0  0
 29 30  2  0  0  0  0
 29 31  1  0  0  0  0
 26 27  1  0  0  0  0
 26 28  2  0  0  0  0
 24 25  1  0  0  0  0
 24 26  1  0  0  0  0
 22 23  1  0  0  0  0
 22 24  2  0  0  0  0
 20 21  1  0  0  0  0
 20 22  1  0  0  0  0
 19 20  2  0  0  0  0
 19 28  1  0  0  0  0
 17 18  1  0  0  0  0
 17 19  1  0  0  0  0
 15 16  1  0  0  0  0
 15 17  1  0  0  0  0
 14 15  2  0  0  0  0
 14 28  1  0  0  0  0
 11 12  1  0  0  0  0
 11 13  1  0  0  0  0
 11 14  1  0  0  0  0
  9 10  1  0  0  0  0
  9 11  1  0  0  0  0
  9 29  1  0  0  0  0
  7  8  1  0  0  0  0
  7  9  1  0  0  0  0
 33 34  1  0  0  0  0
 33 35  1  0  0  0  0
 33 36  1  0  0  0  0
 31 32  1  0  0  0  0
 31 33  1  0  0  0  0
M  END
$$$$
default_name
  -OEChem-02102213163D

 36 37  0     1  0  0  0  0  0999 V2000
   -4.0843   -4.0736    1.2944 H   0  0  0  0  0  0  0  0  0  0  0  0
   -4.0342   -3.2816    0.5484 C   0  0  0  0  0  0  0  0  0  0  0  0
   -4.8842   -2.6126    0.6694 H   0  0  0  0  0  0  0  0  0  0  0  0
   -4.0433   -3.7186   -0.4486 H   0  0  0  0  0  0  0  0  0  0  0  0
   -2.7532   -2.5046    0.7444 C   0  0  0  0  0  0  0  0  0  0  0  0
   -1.9803   -2.8096    1.6434 O   0  0  0  0  0  0  0  0  0  0  0  0
   -2.5332   -1.4966   -0.0966 N   0  0  0  0  0  0  0  0  0  0  0  0
   -3.2312   -1.2816   -0.7936 H   0  0  0  0  0  0  0  0  0  0  0  0
   -1.3593   -0.6196   -0.0536 C   0  0  1  0  0  0  0  0  0  0  0  0
   -0.8788   -0.7266    0.9196 H   0  0  0  0  0  0  0  0  0  0  0  0
   -0.3559   -1.0533   -1.1339 C   0  0  0  0  0  0  0  0  0  0  0  0
    0.3884   -0.2649   -1.2594 H   0  0  0  0  0  0  0  0  0  0  0  0
    0.1651   -1.9467   -0.7854 H   0  0  0  0  0  0  0  0  0  0  0  0
   -0.9528   -1.3452   -2.4772 C   0  0  0  0  0  0  0  0  0  0  0  0
   -1.1252   -0.4475   -3.4732 C   0  0  0  0  0  0  0  0  0  0  0  0
   -0.8660    0.6036   -3.4084 H   0  0  0  0  0  0  0  0  0  0  0  0
   -1.6583   -1.0787   -4.5799 N   0  0  0  0  0  0  0  0  0  0  0  0
   -1.8753   -0.6014   -5.4427 H   0  0  0  0  0  0  0  0  0  0  0  0
   -1.8417   -2.4267   -4.3562 C   0  0  0  0  0  0  0  0  0  0  0  0
   -2.3149   -3.4753   -5.1580 C   0  0  0  0  0  0  0  0  0  0  0  0
   -2.6298   -3.2883   -6.1741 H   0  0  0  0  0  0  0  0  0  0  0  0
   -2.3754   -4.7723   -4.6202 C   0  0  0  0  0  0  0  0  0  0  0  0
   -2.7386   -5.5933   -5.2234 H   0  0  0  0  0  0  0  0  0  0  0  0
   -1.9687   -5.0003   -3.2928 C   0  0  0  0  0  0  0  0  0  0  0  0
   -2.0247   -5.9982   -2.8804 H   0  0  0  0  0  0  0  0  0  0  0  0
   -1.4966   -3.9384   -2.4955 C   0  0  0  0  0  0  0  0  0  0  0  0
   -1.1999   -4.1250   -1.4731 H   0  0  0  0  0  0  0  0  0  0  0  0
   -1.4179   -2.6254   -3.0081 C   0  0  0  0  0  0  0  0  0  0  0  0
   -1.7617    0.8549   -0.2106 C   0  0  0  0  0  0  0  0  0  0  0  0
   -2.5726    1.1871   -1.0741 O   0  0  0  0  0  0  0  0  0  0  0  0
   -1.1941    1.7377    0.6223 N   0  0  0  0  0  0  0  0  0  0  0  0
   -0.4976    1.3916    1.2669 H   0  0  0  0  0  0  0  0  0  0  0  0
   -1.4666    3.1722    0.6095 C   0  0  0  0  0  0  0  0  0  0  0  0
   -2.5439    3.3427    0.6539 H   0  0  0  0  0  0  0  0  0  0  0  0
   -0.9893    3.6529    1.4644 H   0  0  0  0  0  0  0  0  0  0  0  0
   -1.0808    3.6095   -0.3129 H   0  0  0  0  0  0  0  0  0  0  0  0
  5  6  2  0  0  0  0
  5  7  1  0  0  0  0
  2  3  1  0  0  0  0
  2  4  1  0  0  0  0
  2  5  1  0  0  0  0
  1  2  1  0  0  0  0
 29 30  2  0  0  0  0
 29 31  1  0  0  0  0
 26 27  1  0  0  0  0
 26 28  2  0  0  0  0
 24 25  1  0  0  0  0
 24 26  1  0  0  0  0
 22 23  1  0  0  0  0
 22 24  2  0  0  0  0
 20 21  1  0  0  0  0
 20 22  1  0  0  0  0
 19 20  2  0  0  0  0
 19 28  1  0  0  0  0
 17 18  1  0  0  0  0
 17 19  1  0  0  0  0
 15 16  1  0  0  0  0
 15 17  1  0  0  0  0
 14 15  2  0  0  0  0
 14 28  1  0  0  0  0
 11 12  1  0  0  0  0
 11 13  1  0  0  0  0
 11 14  1  0  0  0  0
  9 10  1  0  0  0  0
  9 11  1  0  0  0  0
  9 29  1  0  0  0  0
  7  8  1  0  0  0  0
  7  9  1  0  0  0  0
 33 34  1  0  0  0  0
 33 35  1  0  0  0  0
 33 36  1  0  0  0  0
 31 32  1  0  0  0  0
 31 33  1  0  0  0  0
M  END
$$$$
default_name
  -OEChem-02102213163D

 36 37  0     1  0  0  0  0  0999 V2000
   -4.0843   -4.0736    1.2944 H   0  0  0  0  0  0  0  0  0  0  0  0
   -4.0342   -3.2816    0.5484 C   0  0  0  0  0  0  0  0  0  0  0  0
   -4.8842   -2.6126    0.6694 H   0  0  0  0  0  0  0  0  0  0  0  0
   -4.0433   -3.7186   -0.4486 H   0  0  0  0  0  0  0  0  0  0  0  0
   -2.7532   -2.5046    0.7444 C   0  0  0  0  0  0  0  0  0  0  0  0
   -1.9803   -2.8096    1.6434 O   0  0  0  0  0  0  0  0  0  0  0  0
   -2.5332   -1.4966   -0.0966 N   0  0  0  0  0  0  0  0  0  0  0  0
   -3.2312   -1.2816   -0.7936 H   0  0  0  0  0  0  0  0  0  0  0  0
   -1.3593   -0.6196   -0.0536 C   0  0  1  0  0  0  0  0  0  0  0  0
   -0.8788   -0.7266    0.9196 H   0  0  0  0  0  0  0  0  0  0  0  0
   -0.3559   -1.0533   -1.1339 C   0  0  0  0  0  0  0  0  0  0  0  0
    0.3884   -0.2649   -1.2594 H   0  0  0  0  0  0  0  0  0  0  0  0
    0.1651   -1.9467   -0.7854 H   0  0  0  0  0  0  0  0  0  0  0  0
   -0.9528   -1.3452   -2.4772 C   0  0  0  0  0  0  0  0  0  0  0  0
   -0.8715   -0.5460   -3.5645 C   0  0  0  0  0  0  0  0  0  0  0  0
   -0.3756    0.4183   -3.5861 H   0  0  0  0  0  0  0  0  0  0  0  0
   -1.4951   -1.1549   -4.6359 N   0  0  0  0  0  0  0  0  0  0  0  0
   -1.5609   -0.7376   -5.5528 H   0  0  0  0  0  0  0  0  0  0  0  0
   -1.9981   -2.3922   -4.2942 C   0  0  0  0  0  0  0  0  0  0  0  0
   -2.6731   -3.3854   -5.0183 C   0  0  0  0  0  0  0  0  0  0  0  0
   -2.8963   -3.2431   -6.0655 H   0  0  0  0  0  0  0  0  0  0  0  0
   -3.0567   -4.5673   -4.3619 C   0  0  0  0  0  0  0  0  0  0  0  0
   -3.5791   -5.3439   -4.9041 H   0  0  0  0  0  0  0  0  0  0  0  0
   -2.7660   -4.7364   -2.9958 C   0  0  0  0  0  0  0  0  0  0  0  0
   -3.0703   -5.6438   -2.4927 H   0  0  0  0  0  0  0  0  0  0  0  0
   -2.0887   -3.7307   -2.2774 C   0  0  0  0  0  0  0  0  0  0  0  0
   -1.8834   -3.8677   -1.2253 H   0  0  0  0  0  0  0  0  0  0  0  0
   -1.6846   -2.5347   -2.9093 C   0  0  0  0  0  0  0  0  0  0  0  0
   -1.7617    0.8549   -0.2106 C   0  0  0  0  0  0  0  0  0  0  0  0
   -2.5726    1.1871   -1.0741 O   0  0  0  0  0  0  0  0  0  0  0  0
   -1.1941    1.7377    0.6223 N   0  0  0  0  0  0  0  0  0  0  0  0
   -0.4976    1.3916    1.2669 H   0  0  0  0  0  0  0  0  0  0  0  0
   -1.4666    3.1722    0.6095 C   0  0  0  0  0  0  0  0  0  0  0  0
   -2.5439    3.3427    0.6539 H   0  0  0  0  0  0  0  0  0  0  0  0
   -0.9893    3.6529    1.4644 H   0  0  0  0  0  0  0  0  0  0  0  0
   -1.0808    3.6095   -0.3129 H   0  0  0  0  0  0  0  0  0  0  0  0
  5  6  2  0  0  0  0
  5  7  1  0  0  0  0
  2  3  1  0  0  0  0
  2  4  1  0  0  0  0
  2  5  1  0  0  0  0
  1  2  1  0  0  0  0
 29 30  2  0  0  0  0
 29 31  1  0  0  0  0
 26 27  1  0  0  0  0
 26 28  2  0  0  0  0
 24 25  1  0  0  0  0
 24 26  1  0  0  0  0
 22 23  1  0  0  0  0
 22 24  2  0  0  0  0
 20 21  1  0  0  0  0
 20 22  1  0  0  0  0
 19 20  2  0  0  0  0
 19 28  1  0  0  0  0
 17 18  1  0  0  0  0
 17 19  1  0  0  0  0
 15 16  1  0  0  0  0
 15 17  1  0  0  0  0
 14 15  2  0  0  0  0
 14 28  1  0  0  0  0
 11 12  1  0  0  0  0
 11 13  1  0  0  0  0
 11 14  1  0  0  0  0
  9 10  1  0  0  0  0
  9 11  1  0  0  0  0
  9 29  1  0  0  0  0
  7  8  1  0  0  0  0
  7  9  1  0  0  0  0
 33 34  1  0  0  0  0
 33 35  1  0  0  0  0
 33 36  1  0  0  0  0
 31 32  1  0  0  0  0
 31 33  1  0  0  0  0
M  END
$$$$
default_name
  -OEChem-02102213163D

 36 37  0     1  0  0  0  0  0999 V2000
   -4.0843   -4.0736    1.2944 H   0  0  0  0  0  0  0  0  0  0  0  0
   -4.0342   -3.2816    0.5484 C   0  0  0  0  0  0  0  0  0  0  0  0
   -4.8842   -2.6126    0.6694 H   0  0  0  0  0  0  0  0  0  0  0  0
   -4.0433   -3.7186   -0.4486 H   0  0  0  0  0  0  0  0  0  0  0  0
   -2.7532   -2.5046    0.7444 C   0  0  0  0  0  0  0  0  0  0  0  0
   -1.9803   -2.8096    1.6434 O   0  0  0  0  0  0  0  0  0  0  0  0
   -2.5332   -1.4966   -0.0966 N   0  0  0  0  0  0  0  0  0  0  0  0
   -3.2312   -1.2816   -0.7936 H   0  0  0  0  0  0  0  0  0  0  0  0
   -1.3593   -0.6196   -0.0536 C   0  0  1  0  0  0  0  0  0  0  0  0
   -0.8788   -0.7266    0.9196 H   0  0  0  0  0  0  0  0  0  0  0  0
   -0.3559   -1.0533   -1.1339 C   0  0  0  0  0  0  0  0  0  0  0  0
    0.3884   -0.2649   -1.2594 H   0  0  0  0  0  0  0  0  0  0  0  0
    0.1651   -1.9467   -0.7854 H   0  0  0  0  0  0  0  0  0  0  0  0
   -0.9528   -1.3452   -2.4772 C   0  0  0  0  0  0  0  0  0  0  0  0
   -0.6447   -0.7094   -3.6298 C   0  0  0  0  0  0  0  0  0  0  0  0
    0.0640    0.1072   -3.7138 H   0  0  0  0  0  0  0  0  0  0  0  0
   -1.3524   -1.2721   -4.6739 N   0  0  0  0  0  0  0  0  0  0  0  0
   -1.2833   -0.9534   -5.6293 H   0  0  0  0  0  0  0  0  0  0  0  0
   -2.1443   -2.3163   -4.2457 C   0  0  0  0  0  0  0  0  0  0  0  0
   -3.0053   -3.2010   -4.9108 C   0  0  0  0  0  0  0  0  0  0  0  0
   -3.1486   -3.1264   -5.9787 H   0  0  0  0  0  0  0  0  0  0  0  0
   -3.6804   -4.1847   -4.1679 C   0  0  0  0  0  0  0  0  0  0  0  0
   -4.3493   -4.8751   -4.6637 H   0  0  0  0  0  0  0  0  0  0  0  0
   -3.4899   -4.2660   -2.7764 C   0  0  0  0  0  0  0  0  0  0  0  0
   -4.0176   -5.0190   -2.2076 H   0  0  0  0  0  0  0  0  0  0  0  0
   -2.6235   -3.3702   -2.1181 C   0  0  0  0  0  0  0  0  0  0  0  0
   -2.4965   -3.4351   -1.0468 H   0  0  0  0  0  0  0  0  0  0  0  0
   -1.9262   -2.3750   -2.8367 C   0  0  0  0  0  0  0  0  0  0  0  0
   -1.7617    0.8549   -0.2106 C   0  0  0  0  0  0  0  0  0  0  0  0
   -2.5726    1.1871   -1.0741 O   0  0  0  0  0  0  0  0  0  0  0  0
   -1.1941    1.7377    0.6223 N   0  0  0  0  0  0  0  0  0  0  0  0
   -0.4976    1.3916    1.2669 H   0  0  0  0  0  0  0  0  0  0  0  0
   -1.4666    3.1722    0.6095 C   0  0  0  0  0  0  0  0  0  0  0  0
   -2.5439    3.3427    0.6539 H   0  0  0  0  0  0  0  0  0  0  0  0
   -0.9893    3.6529    1.4644 H   0  0  0  0  0  0  0  0  0  0  0  0
   -1.0808    3.6095   -0.3129 H   0  0  0  0  0  0  0  0  0  0  0  0
  5  6  2  0  0  0  0
  5  7  1  0  0  0  0
  2  3  1  0  0  0  0
  2  4  1  0  0  0  0
  2  5  1  0  0  0  0
  1  2  1  0  0  0  0
 29 30  2  0  0  0  0
 29 31  1  0  0  0  0
 26 27  1  0  0  0  0
 26 28  2  0  0  0  0
 24 25  1  0  0  0  0
 24 26  1  0  0  0  0
 22 23  1  0  0  0  0
 22 24  2  0  0  0  0
 20 21  1  0  0  0  0
 20 22  1  0  0  0  0
 19 20  2  0  0  0  0
 19 28  1  0  0  0  0
 17 18  1  0  0  0  0
 17 19  1  0  0  0  0
 15 16  1  0  0  0  0
 15 17  1  0  0  0  0
 14 15  2  0  0  0  0
 14 28  1  0  0  0  0
 11 12  1  0  0  0  0
 11 13  1  0  0  0  0
 11 14  1  0  0  0  0
  9 10  1  0  0  0  0
  9 11  1  0  0  0  0
  9 29  1  0  0  0  0
  7  8  1  0  0  0  0
  7  9  1  0  0  0  0
 33 34  1  0  0  0  0
 33 35  1  0  0  0  0
 33 36  1  0  0  0  0
 31 32  1  0  0  0  0
 31 33  1  0  0  0  0
M  END
$$$$
default_name
  -OEChem-02102213163D

 36 37  0     1  0  0  0  0  0999 V2000
   -4.0843   -4.0736    1.2944 H   0  0  0  0  0  0  0  0  0  0  0  0
   -4.0342   -3.2816    0.5484 C   0  0  0  0  0  0  0  0  0  0  0  0
   -4.8842   -2.6126    0.6694 H   0  0  0  0  0  0  0  0  0  0  0  0
   -4.0433   -3.7186   -0.4486 H   0  0  0  0  0  0  0  0  0  0  0  0
   -2.7532   -2.5046    0.7444 C   0  0  0  0  0  0  0  0  0  0  0  0
   -1.9803   -2.8096    1.6434 O   0  0  0  0  0  0  0  0  0  0  0  0
   -2.5332   -1.4966   -0.0966 N   0  0  0  0  0  0  0  0  0  0  0  0
   -3.2312   -1.2816   -0.7936 H   0  0  0  0  0  0  0  0  0  0  0  0
   -1.3593   -0.6196   -0.0536 C   0  0  1  0  0  0  0  0  0  0  0  0
   -0.8788   -0.7266    0.9196 H   0  0  0  0  0  0  0  0  0  0  0  0
   -0.3559   -1.0533   -1.1339 C   0  0  0  0  0  0  0  0  0  0  0  0
    0.3884   -0.2649   -1.2594 H   0  0  0  0  0  0  0  0  0  0  0  0
    0.1651   -1.9467   -0.7854 H   0  0  0  0  0  0  0  0  0  0  0  0
   -0.9528   -1.3452   -2.4772 C   0  0  0  0  0  0  0  0  0  0  0  0
   -0.4603   -0.9266   -3.6646 C   0  0  0  0  0  0  0  0  0  0  0  0
    0.4229   -0.3085   -3.7830 H   0  0  0  0  0  0  0  0  0  0  0  0
   -1.2398   -1.4224   -4.6912 N   0  0  0  0  0  0  0  0  0  0  0  0
   -1.0614   -1.2342   -5.6669 H   0  0  0  0  0  0  0  0  0  0  0  0
   -2.2704   -2.2040   -4.2141 C   0  0  0  0  0  0  0  0  0  0  0  0
   -3.2889   -2.9348   -4.8426 C   0  0  0  0  0  0  0  0  0  0  0  0
   -3.3697   -2.9463   -5.9196 H   0  0  0  0  0  0  0  0  0  0  0  0
   -4.2037   -3.6504   -4.0514 C   0  0  0  0  0  0  0  0  0  0  0  0
   -4.9965   -4.2189   -4.5187 H   0  0  0  0  0  0  0  0  0  0  0  0
   -4.0910   -3.6210   -2.6494 C   0  0  0  0  0  0  0  0  0  0  0  0
   -4.8020   -4.1662   -2.0443 H   0  0  0  0  0  0  0  0  0  0  0  0
   -3.0645   -2.8815   -2.0284 C   0  0  0  0  0  0  0  0  0  0  0  0
   -2.9973   -2.8566   -0.9500 H   0  0  0  0  0  0  0  0  0  0  0  0
   -2.1262   -2.1572   -2.7951 C   0  0  0  0  0  0  0  0  0  0  0  0
   -1.7617    0.8549   -0.2106 C   0  0  0  0  0  0  0  0  0  0  0  0
   -2.5726    1.1871   -1.0741 O   0  0  0  0  0  0  0  0  0  0  0  0
   -1.1941    1.7377    0.6223 N   0  0  0  0  0  0  0  0  0  0  0  0
   -0.4976    1.3916    1.2669 H   0  0  0  0  0  0  0  0  0  0  0  0
   -1.4666    3.1722    0.6095 C   0  0  0  0  0  0  0  0  0  0  0  0
   -2.5439    3.3427    0.6539 H   0  0  0  0  0  0  0  0  0  0  0  0
   -0.9893    3.6529    1.4644 H   0  0  0  0  0  0  0  0  0  0  0  0
   -1.0808    3.6095   -0.3129 H   0  0  0  0  0  0  0  0  0  0  0  0
  5  6  2  0  0  0  0
  5  7  1  0  0  0  0
  2  3  1  0  0  0  0
  2  4  1  0  0  0  0
  2  5  1  0  0  0  0
  1  2  1  0  0  0  0
 29 30  2  0  0  0  0
 29 31  1  0  0  0  0
 26 27  1  0  0  0  0
 26 28  2  0  0  0  0
 24 25  1  0  0  0  0
 24 26  1  0  0  0  0
 22 23  1  0  0  0  0
 22 24  2  0  0  0  0
 20 21  1  0  0  0  0
 20 22  1  0  0  0  0
 19 20  2  0  0  0  0
 19 28  1  0  0  0  0
 17 18  1  0  0  0  0
 17 19  1  0  0  0  0
 15 16  1  0  0  0  0
 15 17  1  0  0  0  0
 14 15  2  0  0  0  0
 14 28  1  0  0  0  0
 11 12  1  0  0  0  0
 11 13  1  0  0  0  0
 11 14  1  0  0  0  0
  9 10  1  0  0  0  0
  9 11  1  0  0  0  0
  9 29  1  0  0  0  0
  7  8  1  0  0  0  0
  7  9  1  0  0  0  0
 33 34  1  0  0  0  0
 33 35  1  0  0  0  0
 33 36  1  0  0  0  0
 31 32  1  0  0  0  0
 31 33  1  0  0  0  0
M  END
$$$$
default_name
  -OEChem-02102213163D

 36 37  0     1  0  0  0  0  0999 V2000
   -4.0843   -4.0736    1.2944 H   0  0  0  0  0  0  0  0  0  0  0  0
   -4.0342   -3.2816    0.5484 C   0  0  0  0  0  0  0  0  0  0  0  0
   -4.8842   -2.6126    0.6694 H   0  0  0  0  0  0  0  0  0  0  0  0
   -4.0433   -3.7186   -0.4486 H   0  0  0  0  0  0  0  0  0  0  0  0
   -2.7532   -2.5046    0.7444 C   0  0  0  0  0  0  0  0  0  0  0  0
   -1.9803   -2.8096    1.6434 O   0  0  0  0  0  0  0  0  0  0  0  0
   -2.5332   -1.4966   -0.0966 N   0  0  0  0  0  0  0  0  0  0  0  0
   -3.2312   -1.2816   -0.7936 H   0  0  0  0  0  0  0  0  0  0  0  0
   -1.3593   -0.6196   -0.0536 C   0  0  1  0  0  0  0  0  0  0  0  0
   -0.8788   -0.7266    0.9196 H   0  0  0  0  0  0  0  0  0  0  0  0
   -0.3559   -1.0533   -1.1339 C   0  0  0  0  0  0  0  0  0  0  0  0
    0.3884   -0.2649   -1.2594 H   0  0  0  0  0  0  0  0  0  0  0  0
    0.1651   -1.9467   -0.7854 H   0  0  0  0  0  0  0  0  0  0  0  0
   -0.9528   -1.3452   -2.4772 C   0  0  0  0  0  0  0  0  0  0  0  0
   -0.3308   -1.1827   -3.6665 C   0  0  0  0  0  0  0  0  0  0  0  0
    0.6767   -0.8004   -3.7889 H   0  0  0  0  0  0  0  0  0  0  0  0
   -1.1650   -1.5955   -4.6869 N   0  0  0  0  0  0  0  0  0  0  0  0
   -0.9102   -1.5607   -5.6631 H   0  0  0  0  0  0  0  0  0  0  0  0
   -2.3677   -2.0631   -4.2015 C   0  0  0  0  0  0  0  0  0  0  0  0
   -3.5044   -2.6049   -4.8185 C   0  0  0  0  0  0  0  0  0  0  0  0
   -3.5444   -2.7148   -5.8923 H   0  0  0  0  0  0  0  0  0  0  0  0
   -4.5912   -3.0009   -4.0204 C   0  0  0  0  0  0  0  0  0  0  0  0
   -5.4768   -3.4199   -4.4789 H   0  0  0  0  0  0  0  0  0  0  0  0
   -4.5284   -2.8454   -2.6235 C   0  0  0  0  0  0  0  0  0  0  0  0
   -5.3701   -3.1438   -2.0140 H   0  0  0  0  0  0  0  0  0  0  0  0
   -3.3816   -2.2979   -2.0143 C   0  0  0  0  0  0  0  0  0  0  0  0
   -3.3517   -2.1716   -0.9413 H   0  0  0  0  0  0  0  0  0  0  0  0
   -2.2709   -1.8961   -2.7875 C   0  0  0  0  0  0  0  0  0  0  0  0
   -1.7617    0.8549   -0.2106 C   0  0  0  0  0  0  0  0  0  0  0  0
   -2.5726    1.1871   -1.0741 O   0  0  0  0  0  0  0  0  0  0  0  0
   -1.1941    1.7377    0.6223 N   0  0  0  0  0  0  0  0  0  0  0  0
   -0.4976    1.3916    1.2669 H   0  0  0  0  0  0  0  0  0  0  0  0
   -1.4666    3.1722    0.6095 C   0  0  0  0  0  0  0  0  0  0  0  0
   -2.5439    3.3427    0.6539 H   0  0  0  0  0  0  0  0  0  0  0  0
   -0.9893    3.6529    1.4644 H   0  0  0  0  0  0  0  0  0  0  0  0
   -1.0808    3.6095   -0.3129 H   0  0  0  0  0  0  0  0  0  0  0  0
  5  6  2  0  0  0  0
  5  7  1  0  0  0  0
  2  3  1  0  0  0  0
  2  4  1  0  0  0  0
  2  5  1  0  0  0  0
  1  2  1  0  0  0  0
 29 30  2  0  0  0  0
 29 31  1  0  0  0  0
 26 27  1  0  0  0  0
 26 28  2  0  0  0  0
 24 25  1  0  0  0  0
 24 26  1  0  0  0  0
 22 23  1  0  0  0  0
 22 24  2  0  0  0  0
 20 21  1  0  0  0  0
 20 22  1  0  0  0  0
 19 20  2  0  0  0  0
 19 28  1  0  0  0  0
 17 18  1  0  0  0  0
 17 19  1  0  0  0  0
 15 16  1  0  0  0  0
 15 17  1  0  0  0  0
 14 15  2  0  0  0  0
 14 28  1  0  0  0  0
 11 12  1  0  0  0  0
 11 13  1  0  0  0  0
 11 14  1  0  0  0  0
  9 10  1  0  0  0  0
  9 11  1  0  0  0  0
  9 29  1  0  0  0  0
  7  8  1  0  0  0  0
  7  9  1  0  0  0  0
 33 34  1  0  0  0  0
 33 35  1  0  0  0  0
 33 36  1  0  0  0  0
 31 32  1  0  0  0  0
 31 33  1  0  0  0  0
M  END
$$$$
default_name
  -OEChem-02102213163D

 36 37  0     1  0  0  0  0  0999 V2000
   -4.0843   -4.0736    1.2944 H   0  0  0  0  0  0  0  0  0  0  0  0
   -4.0342   -3.2816    0.5484 C   0  0  0  0  0  0  0  0  0  0  0  0
   -4.8842   -2.6126    0.6694 H   0  0  0  0  0  0  0  0  0  0  0  0
   -4.0433   -3.7186   -0.4486 H   0  0  0  0  0  0  0  0  0  0  0  0
   -2.7532   -2.5046    0.7444 C   0  0  0  0  0  0  0  0  0  0  0  0
   -1.9803   -2.8096    1.6434 O   0  0  0  0  0  0  0  0  0  0  0  0
   -2.5332   -1.4966   -0.0966 N   0  0  0  0  0  0  0  0  0  0  0  0
   -3.2312   -1.2816   -0.7936 H   0  0  0  0  0  0  0  0  0  0  0  0
   -1.3593   -0.6196   -0.0536 C   0  0  1  0  0  0  0  0  0  0  0  0
   -0.8788   -0.7266    0.9196 H   0  0  0  0  0  0  0  0  0  0  0  0
   -0.3559   -1.0533   -1.1339 C   0  0  0  0  0  0  0  0  0  0  0  0
    0.3884   -0.2649   -1.2594 H   0  0  0  0  0  0  0  0  0  0  0  0
    0.1651   -1.9467   -0.7854 H   0  0  0  0  0  0  0  0  0  0  0  0
   -0.9528   -1.3452   -2.4772 C   0  0  0  0  0  0  0  0  0  0  0  0
   -0.2650   -1.4604   -3.6354 C   0  0  0  0  0  0  0  0  0  0  0  0
    0.8080   -1.3350   -3.7311 H   0  0  0  0  0  0  0  0  0  0  0  0
   -1.1331   -1.7796   -4.6610 N   0  0  0  0  0  0  0  0  0  0  0  0
   -0.8402   -1.9108   -5.6182 H   0  0  0  0  0  0  0  0  0  0  0  0
   -2.4296   -1.9031   -4.2087 C   0  0  0  0  0  0  0  0  0  0  0  0
   -3.6373   -2.2337   -4.8401 C   0  0  0  0  0  0  0  0  0  0  0  0
   -3.6609   -2.4480   -5.8985 H   0  0  0  0  0  0  0  0  0  0  0  0
   -4.8164   -2.2805   -4.0769 C   0  0  0  0  0  0  0  0  0  0  0  0
   -5.7573   -2.5326   -4.5470 H   0  0  0  0  0  0  0  0  0  0  0  0
   -4.7723   -1.9922   -2.7006 C   0  0  0  0  0  0  0  0  0  0  0  0
   -5.6832   -2.0212   -2.1188 H   0  0  0  0  0  0  0  0  0  0  0  0
   -3.5532   -1.6591   -2.0768 C   0  0  0  0  0  0  0  0  0  0  0  0
   -3.5356   -1.4269   -1.0215 H   0  0  0  0  0  0  0  0  0  0  0  0
   -2.3505   -1.6096   -2.8144 C   0  0  0  0  0  0  0  0  0  0  0  0
   -1.7617    0.8549   -0.2106 C   0  0  0  0  0  0  0  0  0  0  0  0
   -2.5726    1.1871   -1.0741 O   0  0  0  0  0  0  0  0  0  0  0  0
   -1.1941    1.7377    0.6223 N   0  0  0  0  0  0  0  0  0  0  0  0
   -0.4976    1.3916    1.2669 H   0  0  0  0  0  0  0  0  0  0  0  0
   -1.4666    3.1722    0.6095 C   0  0  0  0  0  0  0  0  0  0  0  0
   -2.5439    3.3427    0.6539 H   0  0  0  0  0  0  0  0  0  0  0  0
   -0.9893    3.6529    1.4644 H   0  0  0  0  0  0  0  0  0  0  0  0
   -1.0808    3.6095   -0.3129 H   0  0  0  0  0  0  0  0  0  0  0  0
  5  6  2  0  0  0  0
  5  7  1  0  0  0  0
  2  3  1  0  0  0  0
  2  4  1  0  0  0  0
  2  5  1  0  0  0  0
  1  2  1  0  0  0  0
 29 30  2  0  0  0  0
 29 31  1  0  0  0  0
 26 27  1  0  0  0  0
 26 28  2  0  0  0  0
 24 25  1  0  0  0  0
 24 26  1  0  0  0  0
 22 23  1  0  0  0  0
 22 24  2  0  0  0  0
 20 21  1  0  0  0  0
 20 22  1  0  0  0  0
 19 20  2  0  0  0  0
 19 28  1  0  0  0  0
 17 18  1  0  0  0  0
 17 19  1  0  0  0  0
 15 16  1  0  0  0  0
 15 17  1  0  0  0  0
 14 15  2  0  0  0  0
 14 28  1  0  0  0  0
 11 12  1  0  0  0  0
 11 13  1  0  0  0  0
 11 14  1  0  0  0  0
  9 10  1  0  0  0  0
  9 11  1  0  0  0  0
  9 29  1  0  0  0  0
  7  8  1  0  0  0  0
  7  9  1  0  0  0  0
 33 34  1  0  0  0  0
 33 35  1  0  0  0  0
 33 36  1  0  0  0  0
 31 32  1  0  0  0  0
 31 33  1  0  0  0  0
M  END
$$$$
default_name
  -OEChem-02102213163D

 36 37  0     1  0  0  0  0  0999 V2000
   -4.0843   -4.0736    1.2944 H   0  0  0  0  0  0  0  0  0  0  0  0
   -4.0342   -3.2816    0.5484 C   0  0  0  0  0  0  0  0  0  0  0  0
   -4.8842   -2.6126    0.6694 H   0  0  0  0  0  0  0  0  0  0  0  0
   -4.0433   -3.7186   -0.4486 H   0  0  0  0  0  0  0  0  0  0  0  0
   -2.7532   -2.5046    0.7444 C   0  0  0  0  0  0  0  0  0  0  0  0
   -1.9803   -2.8096    1.6434 O   0  0  0  0  0  0  0  0  0  0  0  0
   -2.5332   -1.4966   -0.0966 N   0  0  0  0  0  0  0  0  0  0  0  0
   -3.2312   -1.2816   -0.7936 H   0  0  0  0  0  0  0  0  0  0  0  0
   -1.3593   -0.6196   -0.0536 C   0  0  1  0  0  0  0  0  0  0  0  0
   -0.8788   -0.7266    0.9196 H   0  0  0  0  0  0  0  0  0  0  0  0
   -0.3559   -1.0533   -1.1339 C   0  0  0  0  0  0  0  0  0  0  0  0
    0.5234   -0.4093   -1.0760 H   0  0  0  0  0  0  0  0  0  0  0  0
   -0.0329   -2.0733   -0.9185 H   0  0  0  0  0  0  0  0  0  0  0  0
   -0.8733   -1.0058   -2.5396 C   0  0  0  0  0  0  0  0  0  0  0  0
   -0.1736   -1.3400   -3.6470 C   0  0  0  0  0  0  0  0  0  0  0  0
    0.8605   -1.6668   -3.6485 H   0  0  0  0  0  0  0  0  0  0  0  0
   -0.9818   -1.2200   -4.7605 N   0  0  0  0  0  0  0  0  0  0  0  0
   -0.6680   -1.4146   -5.7001 H   0  0  0  0  0  0  0  0  0  0  0  0
   -2.2557   -0.8159   -4.4220 C   0  0  0  0  0  0  0  0  0  0  0  0
   -3.4183   -0.5844   -5.1711 C   0  0  0  0  0  0  0  0  0  0  0  0
   -3.4146   -0.7182   -6.2428 H   0  0  0  0  0  0  0  0  0  0  0  0
   -4.5875   -0.1744   -4.5079 C   0  0  0  0  0  0  0  0  0  0  0  0
   -5.4934    0.0099   -5.0694 H   0  0  0  0  0  0  0  0  0  0  0  0
   -4.5763    0.0028   -3.1122 C   0  0  0  0  0  0  0  0  0  0  0  0
   -5.4758    0.3264   -2.6071 H   0  0  0  0  0  0  0  0  0  0  0  0
   -3.4014   -0.2309   -2.3697 C   0  0  0  0  0  0  0  0  0  0  0  0
   -3.4029   -0.0782   -1.2997 H   0  0  0  0  0  0  0  0  0  0  0  0
   -2.2124   -0.6495   -3.0053 C   0  0  0  0  0  0  0  0  0  0  0  0
   -1.7617    0.8549   -0.2106 C   0  0  0  0  0  0  0  0  0  0  0  0
   -2.5726    1.1871   -1.0741 O   0  0  0  0  0  0  0  0  0  0  0  0
   -1.1941    1.7377    0.6223 N   0  0  0  0  0  0  0  0  0  0  0  0
   -0.4976    1.3916    1.2669 H   0  0  0  0  0  0  0  0  0  0  0  0
   -1.4666    3.1722    0.6095 C   0  0  0  0  0  0  0  0  0  0  0  0
   -2.5439    3.3427    0.6539 H   0  0  0  0  0  0  0  0  0  0  0  0
   -0.9893    3.6529    1.4644 H   0  0  0  0  0  0  0  0  0  0  0  0
   -1.0808    3.6095   -0.3129 H   0  0  0  0  0  0  0  0  0  0  0  0
  5  6  2  0  0  0  0
  5  7  1  0  0  0  0
  2  3  1  0  0  0  0
  2  4  1  0  0  0  0
  2  5  1  0  0  0  0
  1  2  1  0  0  0  0
 29 30  2  0  0  0  0
 29 31  1  0  0  0  0
 26 27  1  0  0  0  0
 26 28  2  0  0  0  0
 24 25  1  0  0  0  0
 24 26  1  0  0  0  0
 22 23  1  0  0  0  0
 22 24  2  0  0  0  0
 20 21  1  0  0  0  0
 20 22  1  0  0  0  0
 19 20  2  0  0  0  0
 19 28  1  0  0  0  0
 17 18  1  0  0  0  0
 17 19  1  0  0  0  0
 15 16  1  0  0  0  0
 15 17  1  0  0  0  0
 14 15  2  0  0  0  0
 14 28  1  0  0  0  0
 11 12  1  0  0  0  0
 11 13  1  0  0  0  0
 11 14  1  0  0  0  0
  9 10  1  0  0  0  0
  9 11  1  0  0  0  0
  9 29  1  0  0  0  0
  7  8  1  0  0  0  0
  7  9  1  0  0  0  0
 33 34  1  0  0  0  0
 33 35  1  0  0  0  0
 33 36  1  0  0  0  0
 31 32  1  0  0  0  0
 31 33  1  0  0  0  0
M  END
$$$$
default_name
  -OEChem-02102213163D

 36 37  0     1  0  0  0  0  0999 V2000
   -4.0843   -4.0736    1.2944 H   0  0  0  0  0  0  0  0  0  0  0  0
   -4.0342   -3.2816    0.5484 C   0  0  0  0  0  0  0  0  0  0  0  0
   -4.8842   -2.6126    0.6694 H   0  0  0  0  0  0  0  0  0  0  0  0
   -4.0433   -3.7186   -0.4486 H   0  0  0  0  0  0  0  0  0  0  0  0
   -2.7532   -2.5046    0.7444 C   0  0  0  0  0  0  0  0  0  0  0  0
   -1.9803   -2.8096    1.6434 O   0  0  0  0  0  0  0  0  0  0  0  0
   -2.5332   -1.4966   -0.0966 N   0  0  0  0  0  0  0  0  0  0  0  0
   -3.2312   -1.2816   -0.7936 H   0  0  0  0  0  0  0  0  0  0  0  0
   -1.3593   -0.6196   -0.0536 C   0  0  1  0  0  0  0  0  0  0  0  0
   -0.8788   -0.7266    0.9196 H   0  0  0  0  0  0  0  0  0  0  0  0
   -0.3559   -1.0533   -1.1339 C   0  0  0  0  0  0  0  0  0  0  0  0
    0.5234   -0.4093   -1.0760 H   0  0  0  0  0  0  0  0  0  0  0  0
   -0.0329   -2.0733   -0.9185 H   0  0  0  0  0  0  0  0  0  0  0  0
   -0.8733   -1.0058   -2.5396 C   0  0  0  0  0  0  0  0  0  0  0  0
   -0.2969   -1.5966   -3.6103 C   0  0  0  0  0  0  0  0  0  0  0  0
    0.6269   -2.1639   -3.5793 H   0  0  0  0  0  0  0  0  0  0  0  0
   -1.0732   -1.3826   -4.7324 N   0  0  0  0  0  0  0  0  0  0  0  0
   -0.8341   -1.7299   -5.6497 H   0  0  0  0  0  0  0  0  0  0  0  0
   -2.2044   -0.6526   -4.4353 C   0  0  0  0  0  0  0  0  0  0  0  0
   -3.2904   -0.2125   -5.2055 C   0  0  0  0  0  0  0  0  0  0  0  0
   -3.3399   -0.4372   -6.2609 H   0  0  0  0  0  0  0  0  0  0  0  0
   -4.3124    0.5265   -4.5855 C   0  0  0  0  0  0  0  0  0  0  0  0
   -5.1573    0.8752   -5.1638 H   0  0  0  0  0  0  0  0  0  0  0  0
   -4.2317    0.8182   -3.2115 C   0  0  0  0  0  0  0  0  0  0  0  0
   -5.0160    1.3942   -2.7402 H   0  0  0  0  0  0  0  0  0  0  0  0
   -3.1344    0.3724   -2.4475 C   0  0  0  0  0  0  0  0  0  0  0  0
   -3.0783    0.6148   -1.3958 H   0  0  0  0  0  0  0  0  0  0  0  0
   -2.0949   -0.3772   -3.0394 C   0  0  0  0  0  0  0  0  0  0  0  0
   -1.7617    0.8549   -0.2106 C   0  0  0  0  0  0  0  0  0  0  0  0
   -2.5726    1.1871   -1.0741 O   0  0  0  0  0  0  0  0  0  0  0  0
   -1.1941    1.7377    0.6223 N   0  0  0  0  0  0  0  0  0  0  0  0
   -0.4976    1.3916    1.2669 H   0  0  0  0  0  0  0  0  0  0  0  0
   -1.4666    3.1722    0.6095 C   0  0  0  0  0  0  0  0  0  0  0  0
   -2.5439    3.3427    0.6539 H   0  0  0  0  0  0  0  0  0  0  0  0
   -0.9893    3.6529    1.4644 H   0  0  0  0  0  0  0  0  0  0  0  0
   -1.0808    3.6095   -0.3129 H   0  0  0  0  0  0  0  0  0  0  0  0
  5  6  2  0  0  0  0
  5  7  1  0  0  0  0
  2  3  1  0  0  0  0
  2  4  1  0  0  0  0
  2  5  1  0  0  0  0
  1  2  1  0  0  0  0
 29 30  2  0  0  0  0
 29 31  1  0  0  0  0
 26 27  1  0  0  0  0
 26 28  2  0  0  0  0
 24 25  1  0  0  0  0
 24 26  1  0  0  0  0
 22 23  1  0  0  0  0
 22 24  2  0  0  0  0
 20 21  1  0  0  0  0
 20 22  1  0  0  0  0
 19 20  2  0  0  0  0
 19 28  1  0  0  0  0
 17 18  1  0  0  0  0
 17 19  1  0  0  0  0
 15 16  1  0  0  0  0
 15 17  1  0  0  0  0
 14 15  2  0  0  0  0
 14 28  1  0  0  0  0
 11 12  1  0  0  0  0
 11 13  1  0  0  0  0
 11 14  1  0  0  0  0
  9 10  1  0  0  0  0
  9 11  1  0  0  0  0
  9 29  1  0  0  0  0
  7  8  1  0  0  0  0
  7  9  1  0  0  0  0
 33 34  1  0  0  0  0
 33 35  1  0  0  0  0
 33 36  1  0  0  0  0
 31 32  1  0  0  0  0
 31 33  1  0  0  0  0
M  END
$$$$
default_name
  -OEChem-02102213163D

 36 37  0     1  0  0  0  0  0999 V2000
   -4.0843   -4.0736    1.2944 H   0  0  0  0  0  0  0  0  0  0  0  0
   -4.0342   -3.2816    0.5484 C   0  0  0  0  0  0  0  0  0  0  0  0
   -4.8842   -2.6126    0.6694 H   0  0  0  0  0  0  0  0  0  0  0  0
   -4.0433   -3.7186   -0.4486 H   0  0  0  0  0  0  0  0  0  0  0  0
   -2.7532   -2.5046    0.7444 C   0  0  0  0  0  0  0  0  0  0  0  0
   -1.9803   -2.8096    1.6434 O   0  0  0  0  0  0  0  0  0  0  0  0
   -2.5332   -1.4966   -0.0966 N   0  0  0  0  0  0  0  0  0  0  0  0
   -3.2312   -1.2816   -0.7936 H   0  0  0  0  0  0  0  0  0  0  0  0
   -1.3593   -0.6196   -0.0536 C   0  0  1  0  0  0  0  0  0  0  0  0
   -0.8788   -0.7266    0.9196 H   0  0  0  0  0  0  0  0  0  0  0  0
   -0.3559   -1.0533   -1.1339 C   0  0  0  0  0  0  0  0  0  0  0  0
    0.5234   -0.4093   -1.0760 H   0  0  0  0  0  0  0  0  0  0  0  0
   -0.0329   -2.0733   -0.9185 H   0  0  0  0  0  0  0  0  0  0  0  0
   -0.8733   -1.0058   -2.5396 C   0  0  0  0  0  0  0  0  0  0  0  0
   -0.4780   -1.8112   -3.5509 C   0  0  0  0  0  0  0  0  0  0  0  0
    0.2811   -2.5810   -3.4661 H   0  0  0  0  0  0  0  0  0  0  0  0
   -1.2007   -1.5149   -4.6899 N   0  0  0  0  0  0  0  0  0  0  0  0
   -1.0706   -1.9895   -5.5714 H   0  0  0  0  0  0  0  0  0  0  0  0
   -2.1153   -0.5084   -4.4632 C   0  0  0  0  0  0  0  0  0  0  0  0
   -3.0769    0.1127   -5.2732 C   0  0  0  0  0  0  0  0  0  0  0  0
   -3.1996   -0.1856   -6.3040 H   0  0  0  0  0  0  0  0  0  0  0  0
   -3.8771    1.1298   -4.7253 C   0  0  0  0  0  0  0  0  0  0  0  0
   -4.6233    1.6209   -5.3352 H   0  0  0  0  0  0  0  0  0  0  0  0
   -3.7017    1.5133   -3.3831 C   0  0  0  0  0  0  0  0  0  0  0  0
   -4.3138    2.3020   -2.9680 H   0  0  0  0  0  0  0  0  0  0  0  0
   -2.7307    0.8834   -2.5789 C   0  0  0  0  0  0  0  0  0  0  0  0
   -2.5972    1.1968   -1.5532 H   0  0  0  0  0  0  0  0  0  0  0  0
   -1.9155   -0.1457   -3.0976 C   0  0  0  0  0  0  0  0  0  0  0  0
   -1.7617    0.8549   -0.2106 C   0  0  0  0  0  0  0  0  0  0  0  0
   -2.5726    1.1871   -1.0741 O   0  0  0  0  0  0  0  0  0  0  0  0
   -1.1941    1.7377    0.6223 N   0  0  0  0  0  0  0  0  0  0  0  0
   -0.4976    1.3916    1.2669 H   0  0  0  0  0  0  0  0  0  0  0  0
   -1.4666    3.1722    0.6095 C   0  0  0  0  0  0  0  0  0  0  0  0
   -2.5439    3.3427    0.6539 H   0  0  0  0  0  0  0  0  0  0  0  0
   -0.9893    3.6529    1.4644 H   0  0  0  0  0  0  0  0  0  0  0  0
   -1.0808    3.6095   -0.3129 H   0  0  0  0  0  0  0  0  0  0  0  0
  5  6  2  0  0  0  0
  5  7  1  0  0  0  0
  2  3  1  0  0  0  0
  2  4  1  0  0  0  0
  2  5  1  0  0  0  0
  1  2  1  0  0  0  0
 29 30  2  0  0  0  0
 29 31  1  0  0  0  0
 26 27  1  0  0  0  0
 26 28  2  0  0  0  0
 24 25  1  0  0  0  0
 24 26  1  0  0  0  0
 22 23  1  0  0  0  0
 22 24  2  0  0  0  0
 20 21  1  0  0  0  0
 20 22  1  0  0  0  0
 19 20  2  0  0  0  0
 19 28  1  0  0  0  0
 17 18  1  0  0  0  0
 17 19  1  0  0  0  0
 15 16  1  0  0  0  0
 15 17  1  0  0  0  0
 14 15  2  0  0  0  0
 14 28  1  0  0  0  0
 11 12  1  0  0  0  0
 11 13  1  0  0  0  0
 11 14  1  0  0  0  0
  9 10  1  0  0  0  0
  9 11  1  0  0  0  0
  9 29  1  0  0  0  0
  7  8  1  0  0  0  0
  7  9  1  0  0  0  0
 33 34  1  0  0  0  0
 33 35  1  0  0  0  0
 33 36  1  0  0  0  0
 31 32  1  0  0  0  0
 31 33  1  0  0  0  0
M  END
$$$$
default_name
  -OEChem-02102213163D

 36 37  0     1  0  0  0  0  0999 V2000
   -4.0843   -4.0736    1.2944 H   0  0  0  0  0  0  0  0  0  0  0  0
   -4.0342   -3.2816    0.5484 C   0  0  0  0  0  0  0  0  0  0  0  0
   -4.8842   -2.6126    0.6694 H   0  0  0  0  0  0  0  0  0  0  0  0
   -4.0433   -3.7186   -0.4486 H   0  0  0  0  0  0  0  0  0  0  0  0
   -2.7532   -2.5046    0.7444 C   0  0  0  0  0  0  0  0  0  0  0  0
   -1.9803   -2.8096    1.6434 O   0  0  0  0  0  0  0  0  0  0  0  0
   -2.5332   -1.4966   -0.0966 N   0  0  0  0  0  0  0  0  0  0  0  0
   -3.2312   -1.2816   -0.7936 H   0  0  0  0  0  0  0  0  0  0  0  0
   -1.3593   -0.6196   -0.0536 C   0  0  1  0  0  0  0  0  0  0  0  0
   -0.8788   -0.7266    0.9196 H   0  0  0  0  0  0  0  0  0  0  0  0
   -0.3559   -1.0533   -1.1339 C   0  0  0  0  0  0  0  0  0  0  0  0
    0.5234   -0.4093   -1.0760 H   0  0  0  0  0  0  0  0  0  0  0  0
   -0.0329   -2.0733   -0.9185 H   0  0  0  0  0  0  0  0  0  0  0  0
   -0.8733   -1.0058   -2.5396 C   0  0  0  0  0  0  0  0  0  0  0  0
   -0.7046   -1.9692   -3.4729 C   0  0  0  0  0  0  0  0  0  0  0  0
   -0.1532   -2.8900   -3.3167 H   0  0  0  0  0  0  0  0  0  0  0  0
   -1.3557   -1.6079   -4.6360 N   0  0  0  0  0  0  0  0  0  0  0  0
   -1.3615   -2.1759   -5.4706 H   0  0  0  0  0  0  0  0  0  0  0  0
   -1.9945   -0.3933   -4.5038 C   0  0  0  0  0  0  0  0  0  0  0  0
   -2.7922    0.3689   -5.3693 C   0  0  0  0  0  0  0  0  0  0  0  0
   -3.0035    0.0195   -6.3692 H   0  0  0  0  0  0  0  0  0  0  0  0
   -3.3114    1.5943   -4.9178 C   0  0  0  0  0  0  0  0  0  0  0  0
   -3.9278    2.1963   -5.5717 H   0  0  0  0  0  0  0  0  0  0  0  0
   -3.0224    2.0407   -3.6153 C   0  0  0  0  0  0  0  0  0  0  0  0
   -3.4170    2.9881   -3.2749 H   0  0  0  0  0  0  0  0  0  0  0  0
   -2.2178    1.2672   -2.7547 C   0  0  0  0  0  0  0  0  0  0  0  0
   -1.9926    1.6282   -1.7612 H   0  0  0  0  0  0  0  0  0  0  0  0
   -1.6864    0.0291   -3.1760 C   0  0  0  0  0  0  0  0  0  0  0  0
   -1.7617    0.8549   -0.2106 C   0  0  0  0  0  0  0  0  0  0  0  0
   -2.5726    1.1871   -1.0741 O   0  0  0  0  0  0  0  0  0  0  0  0
   -1.1941    1.7377    0.6223 N   0  0  0  0  0  0  0  0  0  0  0  0
   -0.4976    1.3916    1.2669 H   0  0  0  0  0  0  0  0  0  0  0  0
   -1.4666    3.1722    0.6095 C   0  0  0  0  0  0  0  0  0  0  0  0
   -2.5439    3.3427    0.6539 H   0  0  0  0  0  0  0  0  0  0  0  0
   -0.9893    3.6529    1.4644 H   0  0  0  0  0  0  0  0  0  0  0  0
   -1.0808    3.6095   -0.3129 H   0  0  0  0  0  0  0  0  0  0  0  0
  5  6  2  0  0  0  0
  5  7  1  0  0  0  0
  2  3  1  0  0  0  0
  2  4  1  0  0  0  0
  2  5  1  0  0  0  0
  1  2  1  0  0  0  0
 29 30  2  0  0  0  0
 29 31  1  0  0  0  0
 26 27  1  0  0  0  0
 26 28  2  0  0  0  0
 24 25  1  0  0  0  0
 24 26  1  0  0  0  0
 22 23  1  0  0  0  0
 22 24  2  0  0  0  0
 20 21  1  0  0  0  0
 20 22  1  0  0  0  0
 19 20  2  0  0  0  0
 19 28  1  0  0  0  0
 17 18  1  0  0  0  0
 17 19  1  0  0  0  0
 15 16  1  0  0  0  0
 15 17  1  0  0  0  0
 14 15  2  0  0  0  0
 14 28  1  0  0  0  0
 11 12  1  0  0  0  0
 11 13  1  0  0  0  0
 11 14  1  0  0  0  0
  9 10  1  0  0  0  0
  9 11  1  0  0  0  0
  9 29  1  0  0  0  0
  7  8  1  0  0  0  0
  7  9  1  0  0  0  0
 33 34  1  0  0  0  0
 33 35  1  0  0  0  0
 33 36  1  0  0  0  0
 31 32  1  0  0  0  0
 31 33  1  0  0  0  0
M  END
$$$$
default_name
  -OEChem-02102213163D

 36 37  0     1  0  0  0  0  0999 V2000
   -4.0843   -4.0736    1.2944 H   0  0  0  0  0  0  0  0  0  0  0  0
   -4.0342   -3.2816    0.5484 C   0  0  0  0  0  0  0  0  0  0  0  0
   -4.8842   -2.6126    0.6694 H   0  0  0  0  0  0  0  0  0  0  0  0
   -4.0433   -3.7186   -0.4486 H   0  0  0  0  0  0  0  0  0  0  0  0
   -2.7532   -2.5046    0.7444 C   0  0  0  0  0  0  0  0  0  0  0  0
   -1.9803   -2.8096    1.6434 O   0  0  0  0  0  0  0  0  0  0  0  0
   -2.5332   -1.4966   -0.0966 N   0  0  0  0  0  0  0  0  0  0  0  0
   -3.2312   -1.2816   -0.7936 H   0  0  0  0  0  0  0  0  0  0  0  0
   -1.3593   -0.6196   -0.0536 C   0  0  1  0  0  0  0  0  0  0  0  0
   -0.8788   -0.7266    0.9196 H   0  0  0  0  0  0  0  0  0  0  0  0
   -0.3559   -1.0533   -1.1339 C   0  0  0  0  0  0  0  0  0  0  0  0
    0.5234   -0.4093   -1.0760 H   0  0  0  0  0  0  0  0  0  0  0  0
   -0.0329   -2.0733   -0.9185 H   0  0  0  0  0  0  0  0  0  0  0  0
   -0.8733   -1.0058   -2.5396 C   0  0  0  0  0  0  0  0  0  0  0  0
   -0.9611   -2.0599   -3.3815 C   0  0  0  0  0  0  0  0  0  0  0  0
   -0.6465   -3.0696   -3.1412 H   0  0  0  0  0  0  0  0  0  0  0  0
   -1.5275   -1.6553   -4.5744 N   0  0  0  0  0  0  0  0  0  0  0  0
   -1.6869   -2.2763   -5.3542 H   0  0  0  0  0  0  0  0  0  0  0  0
   -1.8502   -0.3151   -4.5543 C   0  0  0  0  0  0  0  0  0  0  0  0
   -2.4559    0.5387   -5.4873 C   0  0  0  0  0  0  0  0  0  0  0  0
   -2.7647    0.1642   -6.4522 H   0  0  0  0  0  0  0  0  0  0  0  0
   -2.6537    1.8885   -5.1499 C   0  0  0  0  0  0  0  0  0  0  0  0
   -3.1183    2.5621   -5.8573 H   0  0  0  0  0  0  0  0  0  0  0  0
   -2.2402    2.3645   -3.8923 C   0  0  0  0  0  0  0  0  0  0  0  0
   -2.3868    3.4056   -3.6400 H   0  0  0  0  0  0  0  0  0  0  0  0
   -1.6306    1.4978   -2.9630 C   0  0  0  0  0  0  0  0  0  0  0  0
   -1.3056    1.8794   -2.0055 H   0  0  0  0  0  0  0  0  0  0  0  0
   -1.4234    0.1353   -3.2692 C   0  0  0  0  0  0  0  0  0  0  0  0
   -1.7617    0.8549   -0.2106 C   0  0  0  0  0  0  0  0  0  0  0  0
   -2.5726    1.1871   -1.0741 O   0  0  0  0  0  0  0  0  0  0  0  0
   -1.1941    1.7377    0.6223 N   0  0  0  0  0  0  0  0  0  0  0  0
   -0.4976    1.3916    1.2669 H   0  0  0  0  0  0  0  0  0  0  0  0
   -1.4666    3.1722    0.6095 C   0  0  0  0  0  0  0  0  0  0  0  0
   -2.5439    3.3427    0.6539 H   0  0  0  0  0  0  0  0  0  0  0  0
   -0.9893    3.6529    1.4644 H   0  0  0  0  0  0  0  0  0  0  0  0
   -1.0808    3.6095   -0.3129 H   0  0  0  0  0  0  0  0  0  0  0  0
  5  6  2  0  0  0  0
  5  7  1  0  0  0  0
  2  3  1  0  0  0  0
  2  4  1  0  0  0  0
  2  5  1  0  0  0  0
  1  2  1  0  0  0  0
 29 30  2  0  0  0  0
 29 31  1  0  0  0  0
 26 27  1  0  0  0  0
 26 28  2  0  0  0  0
 24 25  1  0  0  0  0
 24 26  1  0  0  0  0
 22 23  1  0  0  0  0
 22 24  2  0  0  0  0
 20 21  1  0  0  0  0
 20 22  1  0  0  0  0
 19 20  2  0  0  0  0
 19 28  1  0  0  0  0
 17 18  1  0  0  0  0
 17 19  1  0  0  0  0
 15 16  1  0  0  0  0
 15 17  1  0  0  0  0
 14 15  2  0  0  0  0
 14 28  1  0  0  0  0
 11 12  1  0  0  0  0
 11 13  1  0  0  0  0
 11 14  1  0  0  0  0
  9 10  1  0  0  0  0
  9 11  1  0  0  0  0
  9 29  1  0  0  0  0
  7  8  1  0  0  0  0
  7  9  1  0  0  0  0
 33 34  1  0  0  0  0
 33 35  1  0  0  0  0
 33 36  1  0  0  0  0
 31 32  1  0  0  0  0
 31 33  1  0  0  0  0
M  END
$$$$
default_name
  -OEChem-02102213163D

 36 37  0     1  0  0  0  0  0999 V2000
   -4.0843   -4.0736    1.2944 H   0  0  0  0  0  0  0  0  0  0  0  0
   -4.0342   -3.2816    0.5484 C   0  0  0  0  0  0  0  0  0  0  0  0
   -4.8842   -2.6126    0.6694 H   0  0  0  0  0  0  0  0  0  0  0  0
   -4.0433   -3.7186   -0.4486 H   0  0  0  0  0  0  0  0  0  0  0  0
   -2.7532   -2.5046    0.7444 C   0  0  0  0  0  0  0  0  0  0  0  0
   -1.9803   -2.8096    1.6434 O   0  0  0  0  0  0  0  0  0  0  0  0
   -2.5332   -1.4966   -0.0966 N   0  0  0  0  0  0  0  0  0  0  0  0
   -3.2312   -1.2816   -0.7936 H   0  0  0  0  0  0  0  0  0  0  0  0
   -1.3593   -0.6196   -0.0536 C   0  0  1  0  0  0  0  0  0  0  0  0
   -0.8788   -0.7266    0.9196 H   0  0  0  0  0  0  0  0  0  0  0  0
   -0.3559   -1.0533   -1.1339 C   0  0  0  0  0  0  0  0  0  0  0  0
    0.5234   -0.4093   -1.0760 H   0  0  0  0  0  0  0  0  0  0  0  0
   -0.0329   -2.0733   -0.9185 H   0  0  0  0  0  0  0  0  0  0  0  0
   -0.8733   -1.0058   -2.5396 C   0  0  0  0  0  0  0  0  0  0  0  0
   -1.2302   -2.0771   -3.2830 C   0  0  0  0  0  0  0  0  0  0  0  0
   -1.1651   -3.1076   -2.9516 H   0  0  0  0  0  0  0  0  0  0  0  0
   -1.7045   -1.6539   -4.5092 N   0  0  0  0  0  0  0  0  0  0  0  0
   -2.0246   -2.2839   -5.2302 H   0  0  0  0  0  0  0  0  0  0  0  0
   -1.6922   -0.2791   -4.6112 C   0  0  0  0  0  0  0  0  0  0  0  0
   -2.0907    0.6105   -5.6193 C   0  0  0  0  0  0  0  0  0  0  0  0
   -2.4996    0.2386   -6.5473 H   0  0  0  0  0  0  0  0  0  0  0  0
   -1.9490    1.9923   -5.4059 C   0  0  0  0  0  0  0  0  0  0  0  0
   -2.2500    2.6934   -6.1725 H   0  0  0  0  0  0  0  0  0  0  0  0
   -1.4083    2.4626   -4.1952 C   0  0  0  0  0  0  0  0  0  0  0  0
   -1.2932    3.5262   -4.0385 H   0  0  0  0  0  0  0  0  0  0  0  0
   -1.0092    1.5593   -3.1897 C   0  0  0  0  0  0  0  0  0  0  0  0
   -0.5830    1.9335   -2.2697 H   0  0  0  0  0  0  0  0  0  0  0  0
   -1.1444    0.1658   -3.3709 C   0  0  0  0  0  0  0  0  0  0  0  0
   -1.7617    0.8549   -0.2106 C   0  0  0  0  0  0  0  0  0  0  0  0
   -2.5726    1.1871   -1.0741 O   0  0  0  0  0  0  0  0  0  0  0  0
   -1.1941    1.7377    0.6223 N   0  0  0  0  0  0  0  0  0  0  0  0
   -0.4976    1.3916    1.2669 H   0  0  0  0  0  0  0  0  0  0  0  0
   -1.4666    3.1722    0.6095 C   0  0  0  0  0  0  0  0  0  0  0  0
   -2.5439    3.3427    0.6539 H   0  0  0  0  0  0  0  0  0  0  0  0
   -0.9893    3.6529    1.4644 H   0  0  0  0  0  0  0  0  0  0  0  0
   -1.0808    3.6095   -0.3129 H   0  0  0  0  0  0  0  0  0  0  0  0
  5  6  2  0  0  0  0
  5  7  1  0  0  0  0
  2  3  1  0  0  0  0
  2  4  1  0  0  0  0
  2  5  1  0  0  0  0
  1  2  1  0  0  0  0
 29 30  2  0  0  0  0
 29 31  1  0  0  0  0
 26 27  1  0  0  0  0
 26 28  2  0  0  0  0
 24 25  1  0  0  0  0
 24 26  1  0  0  0  0
 22 23  1  0  0  0  0
 22 24  2  0  0  0  0
 20 21  1  0  0  0  0
 20 22  1  0  0  0  0
 19 20  2  0  0  0  0
 19 28  1  0  0  0  0
 17 18  1  0  0  0  0
 17 19  1  0  0  0  0
 15 16  1  0  0  0  0
 15 17  1  0  0  0  0
 14 15  2  0  0  0  0
 14 28  1  0  0  0  0
 11 12  1  0  0  0  0
 11 13  1  0  0  0  0
 11 14  1  0  0  0  0
  9 10  1  0  0  0  0
  9 11  1  0  0  0  0
  9 29  1  0  0  0  0
  7  8  1  0  0  0  0
  7  9  1  0  0  0  0
 33 34  1  0  0  0  0
 33 35  1  0  0  0  0
 33 36  1  0  0  0  0
 31 32  1  0  0  0  0
 31 33  1  0  0  0  0
M  END
$$$$
default_name
  -OEChem-02102213163D

 36 37  0     1  0  0  0  0  0999 V2000
   -4.0843   -4.0736    1.2944 H   0  0  0  0  0  0  0  0  0  0  0  0
   -4.0342   -3.2816    0.5484 C   0  0  0  0  0  0  0  0  0  0  0  0
   -4.8842   -2.6126    0.6694 H   0  0  0  0  0  0  0  0  0  0  0  0
   -4.0433   -3.7186   -0.4486 H   0  0  0  0  0  0  0  0  0  0  0  0
   -2.7532   -2.5046    0.7444 C   0  0  0  0  0  0  0  0  0  0  0  0
   -1.9803   -2.8096    1.6434 O   0  0  0  0  0  0  0  0  0  0  0  0
   -2.5332   -1.4966   -0.0966 N   0  0  0  0  0  0  0  0  0  0  0  0
   -3.2312   -1.2816   -0.7936 H   0  0  0  0  0  0  0  0  0  0  0  0
   -1.3593   -0.6196   -0.0536 C   0  0  1  0  0  0  0  0  0  0  0  0
   -0.8788   -0.7266    0.9196 H   0  0  0  0  0  0  0  0  0  0  0  0
   -0.3559   -1.0533   -1.1339 C   0  0  0  0  0  0  0  0  0  0  0  0
    0.5234   -0.4093   -1.0760 H   0  0  0  0  0  0  0  0  0  0  0  0
   -0.0329   -2.0733   -0.9185 H   0  0  0  0  0  0  0  0  0  0  0  0
   -0.8733   -1.0058   -2.5396 C   0  0  0  0  0  0  0  0  0  0  0  0
   -1.4935   -2.0195   -3.1842 C   0  0  0  0  0  0  0  0  0  0  0  0
   -1.6737   -3.0015   -2.7608 H   0  0  0  0  0  0  0  0  0  0  0  0
   -1.8745   -1.6038   -4.4449 N   0  0  0  0  0  0  0  0  0  0  0  0
   -2.3516   -2.1982   -5.1069 H   0  0  0  0  0  0  0  0  0  0  0  0
   -1.5314   -0.2877   -4.6707 C   0  0  0  0  0  0  0  0  0  0  0  0
   -1.7217    0.5794   -5.7562 C   0  0  0  0  0  0  0  0  0  0  0  0
   -2.2263    0.2376   -6.6479 H   0  0  0  0  0  0  0  0  0  0  0  0
   -1.2451    1.8985   -5.6681 C   0  0  0  0  0  0  0  0  0  0  0  0
   -1.3819    2.5812   -6.4958 H   0  0  0  0  0  0  0  0  0  0  0  0
   -0.5834    2.3284   -4.5033 C   0  0  0  0  0  0  0  0  0  0  0  0
   -0.2109    3.3417   -4.4431 H   0  0  0  0  0  0  0  0  0  0  0  0
   -0.3959    1.4476   -3.4192 C   0  0  0  0  0  0  0  0  0  0  0  0
    0.1259    1.7867   -2.5356 H   0  0  0  0  0  0  0  0  0  0  0  0
   -0.8683    0.1184   -3.4741 C   0  0  0  0  0  0  0  0  0  0  0  0
   -1.7617    0.8549   -0.2106 C   0  0  0  0  0  0  0  0  0  0  0  0
   -2.5726    1.1871   -1.0741 O   0  0  0  0  0  0  0  0  0  0  0  0
   -1.1941    1.7377    0.6223 N   0  0  0  0  0  0  0  0  0  0  0  0
   -0.4976    1.3916    1.2669 H   0  0  0  0  0  0  0  0  0  0  0  0
   -1.4666    3.1722    0.6095 C   0  0  0  0  0  0  0  0  0  0  0  0
   -2.5439    3.3427    0.6539 H   0  0  0  0  0  0  0  0  0  0  0  0
   -0.9893    3.6529    1.4644 H   0  0  0  0  0  0  0  0  0  0  0  0
   -1.0808    3.6095   -0.3129 H   0  0  0  0  0  0  0  0  0  0  0  0
  5  6  2  0  0  0  0
  5  7  1  0  0  0  0
  2  3  1  0  0  0  0
  2  4  1  0  0  0  0
  2  5  1  0  0  0  0
  1  2  1  0  0  0  0
 29 30  2  0  0  0  0
 29 31  1  0  0  0  0
 26 27  1  0  0  0  0
 26 28  2  0  0  0  0
 24 25  1  0  0  0  0
 24 26  1  0  0  0  0
 22 23  1  0  0  0  0
 22 24  2  0  0  0  0
 20 21  1  0  0  0  0
 20 22  1  0  0  0  0
 19 20  2  0  0  0  0
 19 28  1  0  0  0  0
 17 18  1  0  0  0  0
 17 19  1  0  0  0  0
 15 16  1  0  0  0  0
 15 17  1  0  0  0  0
 14 15  2  0  0  0  0
 14 28  1  0  0  0  0
 11 12  1  0  0  0  0
 11 13  1  0  0  0  0
 11 14  1  0  0  0  0
  9 10  1  0  0  0  0
  9 11  1  0  0  0  0
  9 29  1  0  0  0  0
  7  8  1  0  0  0  0
  7  9  1  0  0  0  0
 33 34  1  0  0  0  0
 33 35  1  0  0  0  0
 33 36  1  0  0  0  0
 31 32  1  0  0  0  0
 31 33  1  0  0  0  0
M  END
$$$$
default_name
  -OEChem-02102213163D

 36 37  0     1  0  0  0  0  0999 V2000
   -4.0843   -4.0736    1.2944 H   0  0  0  0  0  0  0  0  0  0  0  0
   -4.0342   -3.2816    0.5484 C   0  0  0  0  0  0  0  0  0  0  0  0
   -4.8842   -2.6126    0.6694 H   0  0  0  0  0  0  0  0  0  0  0  0
   -4.0433   -3.7186   -0.4486 H   0  0  0  0  0  0  0  0  0  0  0  0
   -2.7532   -2.5046    0.7444 C   0  0  0  0  0  0  0  0  0  0  0  0
   -1.9803   -2.8096    1.6434 O   0  0  0  0  0  0  0  0  0  0  0  0
   -2.5332   -1.4966   -0.0966 N   0  0  0  0  0  0  0  0  0  0  0  0
   -3.2312   -1.2816   -0.7936 H   0  0  0  0  0  0  0  0  0  0  0  0
   -1.3593   -0.6196   -0.0536 C   0  0  1  0  0  0  0  0  0  0  0  0
   -0.8788   -0.7266    0.9196 H   0  0  0  0  0  0  0  0  0  0  0  0
   -0.3559   -1.0533   -1.1339 C   0  0  0  0  0  0  0  0  0  0  0  0
    0.5234   -0.4093   -1.0760 H   0  0  0  0  0  0  0  0  0  0  0  0
   -0.0329   -2.0733   -0.9185 H   0  0  0  0  0  0  0  0  0  0  0  0
   -0.8733   -1.0058   -2.5396 C   0  0  0  0  0  0  0  0  0  0  0  0
   -1.7330   -1.8911   -3.0917 C   0  0  0  0  0  0  0  0  0  0  0  0
   -2.1377   -2.7585   -2.5818 H   0  0  0  0  0  0  0  0  0  0  0  0
   -2.0261   -1.5083   -4.3859 N   0  0  0  0  0  0  0  0  0  0  0  0
   -2.6457   -2.0250   -4.9928 H   0  0  0  0  0  0  0  0  0  0  0  0
   -1.3786   -0.3404   -4.7288 C   0  0  0  0  0  0  0  0  0  0  0  0
   -1.3739    0.4475   -5.8887 C   0  0  0  0  0  0  0  0  0  0  0  0
   -1.9634    0.1613   -6.7473 H   0  0  0  0  0  0  0  0  0  0  0  0
   -0.5902    1.6137   -5.9188 C   0  0  0  0  0  0  0  0  0  0  0  0
   -0.5733    2.2333   -6.8052 H   0  0  0  0  0  0  0  0  0  0  0  0
    0.1783    1.9709   -4.7958 C   0  0  0  0  0  0  0  0  0  0  0  0
    0.7863    2.8645   -4.8263 H   0  0  0  0  0  0  0  0  0  0  0  0
    0.1675    1.1703   -3.6360 C   0  0  0  0  0  0  0  0  0  0  0  0
    0.7729    1.4491   -2.7852 H   0  0  0  0  0  0  0  0  0  0  0  0
   -0.6139   -0.0037   -3.5719 C   0  0  0  0  0  0  0  0  0  0  0  0
   -1.7617    0.8549   -0.2106 C   0  0  0  0  0  0  0  0  0  0  0  0
   -2.5726    1.1871   -1.0741 O   0  0  0  0  0  0  0  0  0  0  0  0
   -1.1941    1.7377    0.6223 N   0  0  0  0  0  0  0  0  0  0  0  0
   -0.4976    1.3916    1.2669 H   0  0  0  0  0  0  0  0  0  0  0  0
   -1.4666    3.1722    0.6095 C   0  0  0  0  0  0  0  0  0  0  0  0
   -2.5439    3.3427    0.6539 H   0  0  0  0  0  0  0  0  0  0  0  0
   -0.9893    3.6529    1.4644 H   0  0  0  0  0  0  0  0  0  0  0  0
   -1.0808    3.6095   -0.3129 H   0  0  0  0  0  0  0  0  0  0  0  0
  5  6  2  0  0  0  0
  5  7  1  0  0  0  0
  2  3  1  0  0  0  0
  2  4  1  0  0  0  0
  2  5  1  0  0  0  0
  1  2  1  0  0  0  0
 29 30  2  0  0  0  0
 29 31  1  0  0  0  0
 26 27  1  0  0  0  0
 26 28  2  0  0  0  0
 24 25  1  0  0  0  0
 24 26  1  0  0  0  0
 22 23  1  0  0  0  0
 22 24  2  0  0  0  0
 20 21  1  0  0  0  0
 20 22  1  0  0  0  0
 19 20  2  0  0  0  0
 19 28  1  0  0  0  0
 17 18  1  0  0  0  0
 17 19  1  0  0  0  0
 15 16  1  0  0  0  0
 15 17  1  0  0  0  0
 14 15  2  0  0  0  0
 14 28  1  0  0  0  0
 11 12  1  0  0  0  0
 11 13  1  0  0  0  0
 11 14  1  0  0  0  0
  9 10  1  0  0  0  0
  9 11  1  0  0  0  0
  9 29  1  0  0  0  0
  7  8  1  0  0  0  0
  7  9  1  0  0  0  0
 33 34  1  0  0  0  0
 33 35  1  0  0  0  0
 33 36  1  0  0  0  0
 31 32  1  0  0  0  0
 31 33  1  0  0  0  0
M  END
$$$$
default_name
  -OEChem-02102213163D

 36 37  0     1  0  0  0  0  0999 V2000
   -4.0843   -4.0736    1.2944 H   0  0  0  0  0  0  0  0  0  0  0  0
   -4.0342   -3.2816    0.5484 C   0  0  0  0  0  0  0  0  0  0  0  0
   -4.8842   -2.6126    0.6694 H   0  0  0  0  0  0  0  0  0  0  0  0
   -4.0433   -3.7186   -0.4486 H   0  0  0  0  0  0  0  0  0  0  0  0
   -2.7532   -2.5046    0.7444 C   0  0  0  0  0  0  0  0  0  0  0  0
   -1.9803   -2.8096    1.6434 O   0  0  0  0  0  0  0  0  0  0  0  0
   -2.5332   -1.4966   -0.0966 N   0  0  0  0  0  0  0  0  0  0  0  0
   -3.2312   -1.2816   -0.7936 H   0  0  0  0  0  0  0  0  0  0  0  0
   -1.3593   -0.6196   -0.0536 C   0  0  1  0  0  0  0  0  0  0  0  0
   -0.8788   -0.7266    0.9196 H   0  0  0  0  0  0  0  0  0  0  0  0
   -0.3559   -1.0533   -1.1339 C   0  0  0  0  0  0  0  0  0  0  0  0
    0.5234   -0.4093   -1.0760 H   0  0  0  0  0  0  0  0  0  0  0  0
   -0.0329   -2.0733   -0.9185 H   0  0  0  0  0  0  0  0  0  0  0  0
   -0.8733   -1.0058   -2.5396 C   0  0  0  0  0  0  0  0  0  0  0  0
   -1.9324   -1.7008   -3.0118 C   0  0  0  0  0  0  0  0  0  0  0  0
   -2.5254   -2.3952   -2.4268 H   0  0  0  0  0  0  0  0  0  0  0  0
   -2.1488   -1.3740   -4.3362 N   0  0  0  0  0  0  0  0  0  0  0  0
   -2.8867   -1.7761   -4.8957 H   0  0  0  0  0  0  0  0  0  0  0  0
   -1.2443   -0.4336   -4.7813 C   0  0  0  0  0  0  0  0  0  0  0  0
   -1.0711    0.2239   -6.0077 C   0  0  0  0  0  0  0  0  0  0  0  0
   -1.7287    0.0148   -6.8386 H   0  0  0  0  0  0  0  0  0  0  0  0
   -0.0288    1.1571   -6.1409 C   0  0  0  0  0  0  0  0  0  0  0  0
    0.1207    1.6732   -7.0796 H   0  0  0  0  0  0  0  0  0  0  0  0
    0.8249    1.4145   -5.0526 C   0  0  0  0  0  0  0  0  0  0  0  0
    1.6306    2.1272   -5.1620 H   0  0  0  0  0  0  0  0  0  0  0  0
    0.6427    0.7463   -3.8252 C   0  0  0  0  0  0  0  0  0  0  0  0
    1.3138    0.9435   -3.0014 H   0  0  0  0  0  0  0  0  0  0  0  0
   -0.3986   -0.1921   -3.6575 C   0  0  0  0  0  0  0  0  0  0  0  0
   -1.7617    0.8549   -0.2106 C   0  0  0  0  0  0  0  0  0  0  0  0
   -2.5726    1.1871   -1.0741 O   0  0  0  0  0  0  0  0  0  0  0  0
   -1.1941    1.7377    0.6223 N   0  0  0  0  0  0  0  0  0  0  0  0
   -0.4976    1.3916    1.2669 H   0  0  0  0  0  0  0  0  0  0  0  0
   -1.4666    3.1722    0.6095 C   0  0  0  0  0  0  0  0  0  0  0  0
   -2.5439    3.3427    0.6539 H   0  0  0  0  0  0  0  0  0  0  0  0
   -0.9893    3.6529    1.4644 H   0  0  0  0  0  0  0  0  0  0  0  0
   -1.0808    3.6095   -0.3129 H   0  0  0  0  0  0  0  0  0  0  0  0
  5  6  2  0  0  0  0
  5  7  1  0  0  0  0
  2  3  1  0  0  0  0
  2  4  1  0  0  0  0
  2  5  1  0  0  0  0
  1  2  1  0  0  0  0
 29 30  2  0  0  0  0
 29 31  1  0  0  0  0
 26 27  1  0  0  0  0
 26 28  2  0  0  0  0
 24 25  1  0  0  0  0
 24 26  1  0  0  0  0
 22 23  1  0  0  0  0
 22 24  2  0  0  0  0
 20 21  1  0  0  0  0
 20 22  1  0  0  0  0
 19 20  2  0  0  0  0
 19 28  1  0  0  0  0
 17 18  1  0  0  0  0
 17 19  1  0  0  0  0
 15 16  1  0  0  0  0
 15 17  1  0  0  0  0
 14 15  2  0  0  0  0
 14 28  1  0  0  0  0
 11 12  1  0  0  0  0
 11 13  1  0  0  0  0
 11 14  1  0  0  0  0
  9 10  1  0  0  0  0
  9 11  1  0  0  0  0
  9 29  1  0  0  0  0
  7  8  1  0  0  0  0
  7  9  1  0  0  0  0
 33 34  1  0  0  0  0
 33 35  1  0  0  0  0
 33 36  1  0  0  0  0
 31 32  1  0  0  0  0
 31 33  1  0  0  0  0
M  END
$$$$
default_name
  -OEChem-02102213163D

 36 37  0     1  0  0  0  0  0999 V2000
   -4.0843   -4.0736    1.2944 H   0  0  0  0  0  0  0  0  0  0  0  0
   -4.0342   -3.2816    0.5484 C   0  0  0  0  0  0  0  0  0  0  0  0
   -4.8842   -2.6126    0.6694 H   0  0  0  0  0  0  0  0  0  0  0  0
   -4.0433   -3.7186   -0.4486 H   0  0  0  0  0  0  0  0  0  0  0  0
   -2.7532   -2.5046    0.7444 C   0  0  0  0  0  0  0  0  0  0  0  0
   -1.9803   -2.8096    1.6434 O   0  0  0  0  0  0  0  0  0  0  0  0
   -2.5332   -1.4966   -0.0966 N   0  0  0  0  0  0  0  0  0  0  0  0
   -3.2312   -1.2816   -0.7936 H   0  0  0  0  0  0  0  0  0  0  0  0
   -1.3593   -0.6196   -0.0536 C   0  0  1  0  0  0  0  0  0  0  0  0
   -0.8788   -0.7266    0.9196 H   0  0  0  0  0  0  0  0  0  0  0  0
   -0.3559   -1.0533   -1.1339 C   0  0  0  0  0  0  0  0  0  0  0  0
    0.5234   -0.4093   -1.0760 H   0  0  0  0  0  0  0  0  0  0  0  0
   -0.0329   -2.0733   -0.9185 H   0  0  0  0  0  0  0  0  0  0  0  0
   -0.8733   -1.0058   -2.5396 C   0  0  0  0  0  0  0  0  0  0  0  0
   -2.0781   -1.4613   -2.9501 C   0  0  0  0  0  0  0  0  0  0  0  0
   -2.8104   -1.9362   -2.3064 H   0  0  0  0  0  0  0  0  0  0  0  0
   -2.2344   -1.2101   -4.2992 N   0  0  0  0  0  0  0  0  0  0  0  0
   -3.0584   -1.4685   -4.8221 H   0  0  0  0  0  0  0  0  0  0  0  0
   -1.1376   -0.5610   -4.8249 C   0  0  0  0  0  0  0  0  0  0  0  0
   -0.8338   -0.0763   -6.1052 C   0  0  0  0  0  0  0  0  0  0  0  0
   -1.5384   -0.1917   -6.9157 H   0  0  0  0  0  0  0  0  0  0  0  0
    0.4009    0.5600   -6.3192 C   0  0  0  0  0  0  0  0  0  0  0  0
    0.6529    0.9393   -7.3003 H   0  0  0  0  0  0  0  0  0  0  0  0
    1.3122    0.6973   -5.2562 C   0  0  0  0  0  0  0  0  0  0  0  0
    2.2644    1.1800   -5.4273 H   0  0  0  0  0  0  0  0  0  0  0  0
    0.9971    0.2045   -3.9740 C   0  0  0  0  0  0  0  0  0  0  0  0
    1.7118    0.3046   -3.1695 H   0  0  0  0  0  0  0  0  0  0  0  0
   -0.2372   -0.4339   -3.7251 C   0  0  0  0  0  0  0  0  0  0  0  0
   -1.7617    0.8549   -0.2106 C   0  0  0  0  0  0  0  0  0  0  0  0
   -2.5726    1.1871   -1.0741 O   0  0  0  0  0  0  0  0  0  0  0  0
   -1.1941    1.7377    0.6223 N   0  0  0  0  0  0  0  0  0  0  0  0
   -0.4976    1.3916    1.2669 H   0  0  0  0  0  0  0  0  0  0  0  0
   -1.4666    3.1722    0.6095 C   0  0  0  0  0  0  0  0  0  0  0  0
   -2.5439    3.3427    0.6539 H   0  0  0  0  0  0  0  0  0  0  0  0
   -0.9893    3.6529    1.4644 H   0  0  0  0  0  0  0  0  0  0  0  0
   -1.0808    3.6095   -0.3129 H   0  0  0  0  0  0  0  0  0  0  0  0
  5  6  2  0  0  0  0
  5  7  1  0  0  0  0
  2  3  1  0  0  0  0
  2  4  1  0  0  0  0
  2  5  1  0  0  0  0
  1  2  1  0  0  0  0
 29 30  2  0  0  0  0
 29 31  1  0  0  0  0
 26 27  1  0  0  0  0
 26 28  2  0  0  0  0
 24 25  1  0  0  0  0
 24 26  1  0  0  0  0
 22 23  1  0  0  0  0
 22 24  2  0  0  0  0
 20 21  1  0  0  0  0
 20 22  1  0  0  0  0
 19 20  2  0  0  0  0
 19 28  1  0  0  0  0
 17 18  1  0  0  0  0
 17 19  1  0  0  0  0
 15 16  1  0  0  0  0
 15 17  1  0  0  0  0
 14 15  2  0  0  0  0
 14 28  1  0  0  0  0
 11 12  1  0  0  0  0
 11 13  1  0  0  0  0
 11 14  1  0  0  0  0
  9 10  1  0  0  0  0
  9 11  1  0  0  0  0
  9 29  1  0  0  0  0
  7  8  1  0  0  0  0
  7  9  1  0  0  0  0
 33 34  1  0  0  0  0
 33 35  1  0  0  0  0
 33 36  1  0  0  0  0
 31 32  1  0  0  0  0
 31 33  1  0  0  0  0
M  END
$$$$
default_name
  -OEChem-02102213163D

 36 37  0     1  0  0  0  0  0999 V2000
   -4.0843   -4.0736    1.2944 H   0  0  0  0  0  0  0  0  0  0  0  0
   -4.0342   -3.2816    0.5484 C   0  0  0  0  0  0  0  0  0  0  0  0
   -4.8842   -2.6126    0.6694 H   0  0  0  0  0  0  0  0  0  0  0  0
   -4.0433   -3.7186   -0.4486 H   0  0  0  0  0  0  0  0  0  0  0  0
   -2.7532   -2.5046    0.7444 C   0  0  0  0  0  0  0  0  0  0  0  0
   -1.9803   -2.8096    1.6434 O   0  0  0  0  0  0  0  0  0  0  0  0
   -2.5332   -1.4966   -0.0966 N   0  0  0  0  0  0  0  0  0  0  0  0
   -3.2312   -1.2816   -0.7936 H   0  0  0  0  0  0  0  0  0  0  0  0
   -1.3593   -0.6196   -0.0536 C   0  0  1  0  0  0  0  0  0  0  0  0
   -0.8788   -0.7266    0.9196 H   0  0  0  0  0  0  0  0  0  0  0  0
   -0.3559   -1.0533   -1.1339 C   0  0  0  0  0  0  0  0  0  0  0  0
    0.5234   -0.4093   -1.0760 H   0  0  0  0  0  0  0  0  0  0  0  0
   -0.0329   -2.0733   -0.9185 H   0  0  0  0  0  0  0  0  0  0  0  0
   -0.8733   -1.0058   -2.5396 C   0  0  0  0  0  0  0  0  0  0  0  0
   -2.1603   -1.1891   -2.9106 C   0  0  0  0  0  0  0  0  0  0  0  0
   -2.9733   -1.4129   -2.2287 H   0  0  0  0  0  0  0  0  0  0  0  0
   -2.2769   -1.0277   -4.2773 N   0  0  0  0  0  0  0  0  0  0  0  0
   -3.1489   -1.1231   -4.7771 H   0  0  0  0  0  0  0  0  0  0  0  0
   -1.0658   -0.7138   -4.8565 C   0  0  0  0  0  0  0  0  0  0  0  0
   -0.6783   -0.4325   -6.1745 C   0  0  0  0  0  0  0  0  0  0  0  0
   -1.4053   -0.4443   -6.9732 H   0  0  0  0  0  0  0  0  0  0  0  0
    0.6694   -0.1370   -6.4416 C   0  0  0  0  0  0  0  0  0  0  0  0
    0.9869    0.0814   -7.4523 H   0  0  0  0  0  0  0  0  0  0  0  0
    1.6072   -0.1321   -5.3928 C   0  0  0  0  0  0  0  0  0  0  0  0
    2.6445    0.0876   -5.6042 H   0  0  0  0  0  0  0  0  0  0  0  0
    1.2067   -0.4182   -4.0722 C   0  0  0  0  0  0  0  0  0  0  0  0
    1.9397   -0.4242   -3.2780 H   0  0  0  0  0  0  0  0  0  0  0  0
   -0.1405   -0.7128   -3.7701 C   0  0  0  0  0  0  0  0  0  0  0  0
   -1.7617    0.8549   -0.2106 C   0  0  0  0  0  0  0  0  0  0  0  0
   -2.5726    1.1871   -1.0741 O   0  0  0  0  0  0  0  0  0  0  0  0
   -1.1941    1.7377    0.6223 N   0  0  0  0  0  0  0  0  0  0  0  0
   -0.4976    1.3916    1.2669 H   0  0  0  0  0  0  0  0  0  0  0  0
   -1.4666    3.1722    0.6095 C   0  0  0  0  0  0  0  0  0  0  0  0
   -2.5439    3.3427    0.6539 H   0  0  0  0  0  0  0  0  0  0  0  0
   -0.9893    3.6529    1.4644 H   0  0  0  0  0  0  0  0  0  0  0  0
   -1.0808    3.6095   -0.3129 H   0  0  0  0  0  0  0  0  0  0  0  0
  5  6  2  0  0  0  0
  5  7  1  0  0  0  0
  2  3  1  0  0  0  0
  2  4  1  0  0  0  0
  2  5  1  0  0  0  0
  1  2  1  0  0  0  0
 29 30  2  0  0  0  0
 29 31  1  0  0  0  0
 26 27  1  0  0  0  0
 26 28  2  0  0  0  0
 24 25  1  0  0  0  0
 24 26  1  0  0  0  0
 22 23  1  0  0  0  0
 22 24  2  0  0  0  0
 20 21  1  0  0  0  0
 20 22  1  0  0  0  0
 19 20  2  0  0  0  0
 19 28  1  0  0  0  0
 17 18  1  0  0  0  0
 17 19  1  0  0  0  0
 15 16  1  0  0  0  0
 15 17  1  0  0  0  0
 14 15  2  0  0  0  0
 14 28  1  0  0  0  0
 11 12  1  0  0  0  0
 11 13  1  0  0  0  0
 11 14  1  0  0  0  0
  9 10  1  0  0  0  0
  9 11  1  0  0  0  0
  9 29  1  0  0  0  0
  7  8  1  0  0  0  0
  7  9  1  0  0  0  0
 33 34  1  0  0  0  0
 33 35  1  0  0  0  0
 33 36  1  0  0  0  0
 31 32  1  0  0  0  0
 31 33  1  0  0  0  0
M  END
$$$$
default_name
  -OEChem-02102213163D

 36 37  0     1  0  0  0  0  0999 V2000
   -4.0843   -4.0736    1.2944 H   0  0  0  0  0  0  0  0  0  0  0  0
   -4.0342   -3.2816    0.5484 C   0  0  0  0  0  0  0  0  0  0  0  0
   -4.8842   -2.6126    0.6694 H   0  0  0  0  0  0  0  0  0  0  0  0
   -4.0433   -3.7186   -0.4486 H   0  0  0  0  0  0  0  0  0  0  0  0
   -2.7532   -2.5046    0.7444 C   0  0  0  0  0  0  0  0  0  0  0  0
   -1.9803   -2.8096    1.6434 O   0  0  0  0  0  0  0  0  0  0  0  0
   -2.5332   -1.4966   -0.0966 N   0  0  0  0  0  0  0  0  0  0  0  0
   -3.2312   -1.2816   -0.7936 H   0  0  0  0  0  0  0  0  0  0  0  0
   -1.3593   -0.6196   -0.0536 C   0  0  1  0  0  0  0  0  0  0  0  0
   -0.8788   -0.7266    0.9196 H   0  0  0  0  0  0  0  0  0  0  0  0
   -0.3559   -1.0533   -1.1339 C   0  0  0  0  0  0  0  0  0  0  0  0
    0.5234   -0.4093   -1.0760 H   0  0  0  0  0  0  0  0  0  0  0  0
   -0.0329   -2.0733   -0.9185 H   0  0  0  0  0  0  0  0  0  0  0  0
   -0.8733   -1.0058   -2.5396 C   0  0  0  0  0  0  0  0  0  0  0  0
   -2.1733   -0.9028   -2.8962 C   0  0  0  0  0  0  0  0  0  0  0  0
   -3.0030   -0.8610   -2.1991 H   0  0  0  0  0  0  0  0  0  0  0  0
   -2.2735   -0.8392   -4.2722 N   0  0  0  0  0  0  0  0  0  0  0  0
   -3.1521   -0.7635   -4.7638 H   0  0  0  0  0  0  0  0  0  0  0  0
   -1.0338   -0.8816   -4.8739 C   0  0  0  0  0  0  0  0  0  0  0  0
   -0.6151   -0.8206   -6.2109 C   0  0  0  0  0  0  0  0  0  0  0  0
   -1.3386   -0.7258   -7.0073 H   0  0  0  0  0  0  0  0  0  0  0  0
    0.7586   -0.8864   -6.4998 C   0  0  0  0  0  0  0  0  0  0  0  0
    1.1001   -0.8419   -7.5252 H   0  0  0  0  0  0  0  0  0  0  0  0
    1.6896   -1.0170   -5.4531 C   0  0  0  0  0  0  0  0  0  0  0  0
    2.7450   -1.0757   -5.6805 H   0  0  0  0  0  0  0  0  0  0  0  0
    1.2572   -1.0793   -4.1131 C   0  0  0  0  0  0  0  0  0  0  0  0
    1.9820   -1.1931   -3.3196 H   0  0  0  0  0  0  0  0  0  0  0  0
   -0.1151   -1.0097   -3.7895 C   0  0  0  0  0  0  0  0  0  0  0  0
   -1.7617    0.8549   -0.2106 C   0  0  0  0  0  0  0  0  0  0  0  0
   -2.5726    1.1871   -1.0741 O   0  0  0  0  0  0  0  0  0  0  0  0
   -1.1941    1.7377    0.6223 N   0  0  0  0  0  0  0  0  0  0  0  0
   -0.4976    1.3916    1.2669 H   0  0  0  0  0  0  0  0  0  0  0  0
   -1.4666    3.1722    0.6095 C   0  0  0  0  0  0  0  0  0  0  0  0
   -2.5439    3.3427    0.6539 H   0  0  0  0  0  0  0  0  0  0  0  0
   -0.9893    3.6529    1.4644 H   0  0  0  0  0  0  0  0  0  0  0  0
   -1.0808    3.6095   -0.3129 H   0  0  0  0  0  0  0  0  0  0  0  0
  5  6  2  0  0  0  0
  5  7  1  0  0  0  0
  2  3  1  0  0  0  0
  2  4  1  0  0  0  0
  2  5  1  0  0  0  0
  1  2  1  0  0  0  0
 29 30  2  0  0  0  0
 29 31  1  0  0  0  0
 26 27  1  0  0  0  0
 26 28  2  0  0  0  0
 24 25  1  0  0  0  0
 24 26  1  0  0  0  0
 22 23  1  0  0  0  0
 22 24  2  0  0  0  0
 20 21  1  0  0  0  0
 20 22  1  0  0  0  0
 19 20  2  0  0  0  0
 19 28  1  0  0  0  0
 17 18  1  0  0  0  0
 17 19  1  0  0  0  0
 15 16  1  0  0  0  0
 15 17  1  0  0  0  0
 14 15  2  0  0  0  0
 14 28  1  0  0  0  0
 11 12  1  0  0  0  0
 11 13  1  0  0  0  0
 11 14  1  0  0  0  0
  9 10  1  0  0  0  0
  9 11  1  0  0  0  0
  9 29  1  0  0  0  0
  7  8  1  0  0  0  0
  7  9  1  0  0  0  0
 33 34  1  0  0  0  0
 33 35  1  0  0  0  0
 33 36  1  0  0  0  0
 31 32  1  0  0  0  0
 31 33  1  0  0  0  0
M  END
$$$$
default_name
  -OEChem-02102213163D

 36 37  0     1  0  0  0  0  0999 V2000
   -4.0843   -4.0736    1.2944 H   0  0  0  0  0  0  0  0  0  0  0  0
   -4.0342   -3.2816    0.5484 C   0  0  0  0  0  0  0  0  0  0  0  0
   -4.8842   -2.6126    0.6694 H   0  0  0  0  0  0  0  0  0  0  0  0
   -4.0433   -3.7186   -0.4486 H   0  0  0  0  0  0  0  0  0  0  0  0
   -2.7532   -2.5046    0.7444 C   0  0  0  0  0  0  0  0  0  0  0  0
   -1.9803   -2.8096    1.6434 O   0  0  0  0  0  0  0  0  0  0  0  0
   -2.5332   -1.4966   -0.0966 N   0  0  0  0  0  0  0  0  0  0  0  0
   -3.2312   -1.2816   -0.7936 H   0  0  0  0  0  0  0  0  0  0  0  0
   -1.3593   -0.6196   -0.0536 C   0  0  1  0  0  0  0  0  0  0  0  0
   -0.8788   -0.7266    0.9196 H   0  0  0  0  0  0  0  0  0  0  0  0
   -0.3559   -1.0533   -1.1339 C   0  0  0  0  0  0  0  0  0  0  0  0
    0.5234   -0.4093   -1.0760 H   0  0  0  0  0  0  0  0  0  0  0  0
   -0.0329   -2.0733   -0.9185 H   0  0  0  0  0  0  0  0  0  0  0  0
   -0.8733   -1.0058   -2.5396 C   0  0  0  0  0  0  0  0  0  0  0  0
   -2.1161   -0.6217   -2.9077 C   0  0  0  0  0  0  0  0  0  0  0  0
   -2.8975   -0.3181   -2.2196 H   0  0  0  0  0  0  0  0  0  0  0  0
   -2.2245   -0.6575   -4.2841 N   0  0  0  0  0  0  0  0  0  0  0  0
   -3.0677   -0.4142   -4.7830 H   0  0  0  0  0  0  0  0  0  0  0  0
   -1.0438   -1.0530   -4.8761 C   0  0  0  0  0  0  0  0  0  0  0  0
   -0.6486   -1.2140   -6.2118 C   0  0  0  0  0  0  0  0  0  0  0  0
   -1.3427   -1.0169   -7.0156 H   0  0  0  0  0  0  0  0  0  0  0  0
    0.6624   -1.6371   -6.4898 C   0  0  0  0  0  0  0  0  0  0  0  0
    0.9846   -1.7678   -7.5140 H   0  0  0  0  0  0  0  0  0  0  0  0
    1.5539   -1.8972   -5.4329 C   0  0  0  0  0  0  0  0  0  0  0  0
    2.5590   -2.2305   -5.6511 H   0  0  0  0  0  0  0  0  0  0  0  0
    1.1452   -1.7339   -4.0940 C   0  0  0  0  0  0  0  0  0  0  0  0
    1.8359   -1.9499   -3.2914 H   0  0  0  0  0  0  0  0  0  0  0  0
   -0.1629   -1.3043   -3.7819 C   0  0  0  0  0  0  0  0  0  0  0  0
   -1.7617    0.8549   -0.2106 C   0  0  0  0  0  0  0  0  0  0  0  0
   -2.5726    1.1871   -1.0741 O   0  0  0  0  0  0  0  0  0  0  0  0
   -1.1941    1.7377    0.6223 N   0  0  0  0  0  0  0  0  0  0  0  0
   -0.4976    1.3916    1.2669 H   0  0  0  0  0  0  0  0  0  0  0  0
   -1.4666    3.1722    0.6095 C   0  0  0  0  0  0  0  0  0  0  0  0
   -2.5439    3.3427    0.6539 H   0  0  0  0  0  0  0  0  0  0  0  0
   -0.9893    3.6529    1.4644 H   0  0  0  0  0  0  0  0  0  0  0  0
   -1.0808    3.6095   -0.3129 H   0  0  0  0  0  0  0  0  0  0  0  0
  5  6  2  0  0  0  0
  5  7  1  0  0  0  0
  2  3  1  0  0  0  0
  2  4  1  0  0  0  0
  2  5  1  0  0  0  0
  1  2  1  0  0  0  0
 29 30  2  0  0  0  0
 29 31  1  0  0  0  0
 26 27  1  0  0  0  0
 26 28  2  0  0  0  0
 24 25  1  0  0  0  0
 24 26  1  0  0  0  0
 22 23  1  0  0  0  0
 22 24  2  0  0  0  0
 20 21  1  0  0  0  0
 20 22  1  0  0  0  0
 19 20  2  0  0  0  0
 19 28  1  0  0  0  0
 17 18  1  0  0  0  0
 17 19  1  0  0  0  0
 15 16  1  0  0  0  0
 15 17  1  0  0  0  0
 14 15  2  0  0  0  0
 14 28  1  0  0  0  0
 11 12  1  0  0  0  0
 11 13  1  0  0  0  0
 11 14  1  0  0  0  0
  9 10  1  0  0  0  0
  9 11  1  0  0  0  0
  9 29  1  0  0  0  0
  7  8  1  0  0  0  0
  7  9  1  0  0  0  0
 33 34  1  0  0  0  0
 33 35  1  0  0  0  0
 33 36  1  0  0  0  0
 31 32  1  0  0  0  0
 31 33  1  0  0  0  0
M  END
$$$$
default_name
  -OEChem-02102213163D

 36 37  0     1  0  0  0  0  0999 V2000
   -4.0843   -4.0736    1.2944 H   0  0  0  0  0  0  0  0  0  0  0  0
   -4.0342   -3.2816    0.5484 C   0  0  0  0  0  0  0  0  0  0  0  0
   -4.8842   -2.6126    0.6694 H   0  0  0  0  0  0  0  0  0  0  0  0
   -4.0433   -3.7186   -0.4486 H   0  0  0  0  0  0  0  0  0  0  0  0
   -2.7532   -2.5046    0.7444 C   0  0  0  0  0  0  0  0  0  0  0  0
   -1.9803   -2.8096    1.6434 O   0  0  0  0  0  0  0  0  0  0  0  0
   -2.5332   -1.4966   -0.0966 N   0  0  0  0  0  0  0  0  0  0  0  0
   -3.2312   -1.2816   -0.7936 H   0  0  0  0  0  0  0  0  0  0  0  0
   -1.3593   -0.6196   -0.0536 C   0  0  1  0  0  0  0  0  0  0  0  0
   -0.8788   -0.7266    0.9196 H   0  0  0  0  0  0  0  0  0  0  0  0
   -0.3559   -1.0533   -1.1339 C   0  0  0  0  0  0  0  0  0  0  0  0
    0.5234   -0.4093   -1.0760 H   0  0  0  0  0  0  0  0  0  0  0  0
   -0.0329   -2.0733   -0.9185 H   0  0  0  0  0  0  0  0  0  0  0  0
   -0.8733   -1.0058   -2.5396 C   0  0  0  0  0  0  0  0  0  0  0  0
   -1.9928   -0.3651   -2.9444 C   0  0  0  0  0  0  0  0  0  0  0  0
   -2.6639    0.1790   -2.2888 H   0  0  0  0  0  0  0  0  0  0  0  0
   -2.1330   -0.4949   -4.3123 N   0  0  0  0  0  0  0  0  0  0  0  0
   -2.9017   -0.0990   -4.8335 H   0  0  0  0  0  0  0  0  0  0  0  0
   -1.0951   -1.2164   -4.8627 C   0  0  0  0  0  0  0  0  0  0  0  0
   -0.7765   -1.5860   -6.1773 C   0  0  0  0  0  0  0  0  0  0  0  0
   -1.4174   -1.2978   -6.9976 H   0  0  0  0  0  0  0  0  0  0  0  0
    0.3873   -2.3380   -6.4122 C   0  0  0  0  0  0  0  0  0  0  0  0
    0.6485   -2.6330   -7.4195 H   0  0  0  0  0  0  0  0  0  0  0  0
    1.2093   -2.7126   -5.3336 C   0  0  0  0  0  0  0  0  0  0  0  0
    2.0993   -3.2982   -5.5179 H   0  0  0  0  0  0  0  0  0  0  0  0
    0.8782   -2.3372   -4.0162 C   0  0  0  0  0  0  0  0  0  0  0  0
    1.5113   -2.6429   -3.1953 H   0  0  0  0  0  0  0  0  0  0  0  0
   -0.2804   -1.5766   -3.7478 C   0  0  0  0  0  0  0  0  0  0  0  0
   -1.7617    0.8549   -0.2106 C   0  0  0  0  0  0  0  0  0  0  0  0
   -2.5726    1.1871   -1.0741 O   0  0  0  0  0  0  0  0  0  0  0  0
   -1.1941    1.7377    0.6223 N   0  0  0  0  0  0  0  0  0  0  0  0
   -0.4976    1.3916    1.2669 H   0  0  0  0  0  0  0  0  0  0  0  0
   -1.4666    3.1722    0.6095 C   0  0  0  0  0  0  0  0  0  0  0  0
   -2.5439    3.3427    0.6539 H   0  0  0  0  0  0  0  0  0  0  0  0
   -0.9893    3.6529    1.4644 H   0  0  0  0  0  0  0  0  0  0  0  0
   -1.0808    3.6095   -0.3129 H   0  0  0  0  0  0  0  0  0  0  0  0
  5  6  2  0  0  0  0
  5  7  1  0  0  0  0
  2  3  1  0  0  0  0
  2  4  1  0  0  0  0
  2  5  1  0  0  0  0
  1  2  1  0  0  0  0
 29 30  2  0  0  0  0
 29 31  1  0  0  0  0
 26 27  1  0  0  0  0
 26 28  2  0  0  0  0
 24 25  1  0  0  0  0
 24 26  1  0  0  0  0
 22 23  1  0  0  0  0
 22 24  2  0  0  0  0
 20 21  1  0  0  0  0
 20 22  1  0  0  0  0
 19 20  2  0  0  0  0
 19 28  1  0  0  0  0
 17 18  1  0  0  0  0
 17 19  1  0  0  0  0
 15 16  1  0  0  0  0
 15 17  1  0  0  0  0
 14 15  2  0  0  0  0
 14 28  1  0  0  0  0
 11 12  1  0  0  0  0
 11 13  1  0  0  0  0
 11 14  1  0  0  0  0
  9 10  1  0  0  0  0
  9 11  1  0  0  0  0
  9 29  1  0  0  0  0
  7  8  1  0  0  0  0
  7  9  1  0  0  0  0
 33 34  1  0  0  0  0
 33 35  1  0  0  0  0
 33 36  1  0  0  0  0
 31 32  1  0  0  0  0
 31 33  1  0  0  0  0
M  END
$$$$
default_name
  -OEChem-02102213163D

 36 37  0     1  0  0  0  0  0999 V2000
   -4.0843   -4.0736    1.2944 H   0  0  0  0  0  0  0  0  0  0  0  0
   -4.0342   -3.2816    0.5484 C   0  0  0  0  0  0  0  0  0  0  0  0
   -4.8842   -2.6126    0.6694 H   0  0  0  0  0  0  0  0  0  0  0  0
   -4.0433   -3.7186   -0.4486 H   0  0  0  0  0  0  0  0  0  0  0  0
   -2.7532   -2.5046    0.7444 C   0  0  0  0  0  0  0  0  0  0  0  0
   -1.9803   -2.8096    1.6434 O   0  0  0  0  0  0  0  0  0  0  0  0
   -2.5332   -1.4966   -0.0966 N   0  0  0  0  0  0  0  0  0  0  0  0
   -3.2312   -1.2816   -0.7936 H   0  0  0  0  0  0  0  0  0  0  0  0
   -1.3593   -0.6196   -0.0536 C   0  0  1  0  0  0  0  0  0  0  0  0
   -0.8788   -0.7266    0.9196 H   0  0  0  0  0  0  0  0  0  0  0  0
   -0.3559   -1.0533   -1.1339 C   0  0  0  0  0  0  0  0  0  0  0  0
    0.5234   -0.4093   -1.0760 H   0  0  0  0  0  0  0  0  0  0  0  0
   -0.0329   -2.0733   -0.9185 H   0  0  0  0  0  0  0  0  0  0  0  0
   -0.8733   -1.0058   -2.5396 C   0  0  0  0  0  0  0  0  0  0  0  0
   -1.8117   -0.1505   -3.0038 C   0  0  0  0  0  0  0  0  0  0  0  0
   -2.3181    0.5961   -2.4020 H   0  0  0  0  0  0  0  0  0  0  0  0
   -2.0055   -0.3626   -4.3547 N   0  0  0  0  0  0  0  0  0  0  0  0
   -2.6651    0.1606   -4.9118 H   0  0  0  0  0  0  0  0  0  0  0  0
   -1.1842   -1.3605   -4.8348 C   0  0  0  0  0  0  0  0  0  0  0  0
   -0.9900   -1.9111   -6.1097 C   0  0  0  0  0  0  0  0  0  0  0  0
   -1.5577   -1.5494   -6.9545 H   0  0  0  0  0  0  0  0  0  0  0  0
   -0.0480   -2.9413   -6.2724 C   0  0  0  0  0  0  0  0  0  0  0  0
    0.1145   -3.3788   -7.2481 H   0  0  0  0  0  0  0  0  0  0  0  0
    0.6793   -3.4077   -5.1621 C   0  0  0  0  0  0  0  0  0  0  0  0
    1.3971   -4.2061   -5.2902 H   0  0  0  0  0  0  0  0  0  0  0  0
    0.4745   -2.8482   -3.8848 C   0  0  0  0  0  0  0  0  0  0  0  0
    1.0303   -3.2249   -3.0379 H   0  0  0  0  0  0  0  0  0  0  0  0
   -0.4599   -1.8081   -3.6896 C   0  0  0  0  0  0  0  0  0  0  0  0
   -1.7617    0.8549   -0.2106 C   0  0  0  0  0  0  0  0  0  0  0  0
   -2.5726    1.1871   -1.0741 O   0  0  0  0  0  0  0  0  0  0  0  0
   -1.1941    1.7377    0.6223 N   0  0  0  0  0  0  0  0  0  0  0  0
   -0.4976    1.3916    1.2669 H   0  0  0  0  0  0  0  0  0  0  0  0
   -1.4666    3.1722    0.6095 C   0  0  0  0  0  0  0  0  0  0  0  0
   -2.5439    3.3427    0.6539 H   0  0  0  0  0  0  0  0  0  0  0  0
   -0.9893    3.6529    1.4644 H   0  0  0  0  0  0  0  0  0  0  0  0
   -1.0808    3.6095   -0.3129 H   0  0  0  0  0  0  0  0  0  0  0  0
  5  6  2  0  0  0  0
  5  7  1  0  0  0  0
  2  3  1  0  0  0  0
  2  4  1  0  0  0  0
  2  5  1  0  0  0  0
  1  2  1  0  0  0  0
 29 30  2  0  0  0  0
 29 31  1  0  0  0  0
 26 27  1  0  0  0  0
 26 28  2  0  0  0  0
 24 25  1  0  0  0  0
 24 26  1  0  0  0  0
 22 23  1  0  0  0  0
 22 24  2  0  0  0  0
 20 21  1  0  0  0  0
 20 22  1  0  0  0  0
 19 20  2  0  0  0  0
 19 28  1  0  0  0  0
 17 18  1  0  0  0  0
 17 19  1  0  0  0  0
 15 16  1  0  0  0  0
 15 17  1  0  0  0  0
 14 15  2  0  0  0  0
 14 28  1  0  0  0  0
 11 12  1  0  0  0  0
 11 13  1  0  0  0  0
 11 14  1  0  0  0  0
  9 10  1  0  0  0  0
  9 11  1  0  0  0  0
  9 29  1  0  0  0  0
  7  8  1  0  0  0  0
  7  9  1  0  0  0  0
 33 34  1  0  0  0  0
 33 35  1  0  0  0  0
 33 36  1  0  0  0  0
 31 32  1  0  0  0  0
 31 33  1  0  0  0  0
M  END
$$$$
default_name
  -OEChem-02102213163D

 36 37  0     1  0  0  0  0  0999 V2000
   -4.0843   -4.0736    1.2944 H   0  0  0  0  0  0  0  0  0  0  0  0
   -4.0342   -3.2816    0.5484 C   0  0  0  0  0  0  0  0  0  0  0  0
   -4.8842   -2.6126    0.6694 H   0  0  0  0  0  0  0  0  0  0  0  0
   -4.0433   -3.7186   -0.4486 H   0  0  0  0  0  0  0  0  0  0  0  0
   -2.7532   -2.5046    0.7444 C   0  0  0  0  0  0  0  0  0  0  0  0
   -1.9803   -2.8096    1.6434 O   0  0  0  0  0  0  0  0  0  0  0  0
   -2.5332   -1.4966   -0.0966 N   0  0  0  0  0  0  0  0  0  0  0  0
   -3.2312   -1.2816   -0.7936 H   0  0  0  0  0  0  0  0  0  0  0  0
   -1.3593   -0.6196   -0.0536 C   0  0  1  0  0  0  0  0  0  0  0  0
   -0.8788   -0.7266    0.9196 H   0  0  0  0  0  0  0  0  0  0  0  0
   -0.3559   -1.0533   -1.1339 C   0  0  0  0  0  0  0  0  0  0  0  0
    0.5234   -0.4093   -1.0760 H   0  0  0  0  0  0  0  0  0  0  0  0
   -0.0329   -2.0733   -0.9185 H   0  0  0  0  0  0  0  0  0  0  0  0
   -0.8733   -1.0058   -2.5396 C   0  0  0  0  0  0  0  0  0  0  0  0
   -1.5852    0.0075   -3.0819 C   0  0  0  0  0  0  0  0  0  0  0  0
   -1.8838    0.9051   -2.5514 H   0  0  0  0  0  0  0  0  0  0  0  0
   -1.8506   -0.2696   -4.4086 N   0  0  0  0  0  0  0  0  0  0  0  0
   -2.3743    0.3470   -5.0125 H   0  0  0  0  0  0  0  0  0  0  0  0
   -1.3050   -1.4756   -4.7942 C   0  0  0  0  0  0  0  0  0  0  0  0
   -1.2747   -2.1673   -6.0136 C   0  0  0  0  0  0  0  0  0  0  0  0
   -1.7538   -1.7546   -6.8892 H   0  0  0  0  0  0  0  0  0  0  0  0
   -0.6137   -3.4058   -6.0798 C   0  0  0  0  0  0  0  0  0  0  0  0
   -0.5810   -3.9541   -7.0116 H   0  0  0  0  0  0  0  0  0  0  0  0
    0.0001   -3.9351   -4.9299 C   0  0  0  0  0  0  0  0  0  0  0  0
    0.5003   -4.8922   -4.9832 H   0  0  0  0  0  0  0  0  0  0  0  0
   -0.0384   -3.2320   -3.7090 C   0  0  0  0  0  0  0  0  0  0  0  0
    0.4257   -3.6562   -2.8300 H   0  0  0  0  0  0  0  0  0  0  0  0
   -0.6889   -1.9829   -3.6112 C   0  0  0  0  0  0  0  0  0  0  0  0
   -1.7617    0.8549   -0.2106 C   0  0  0  0  0  0  0  0  0  0  0  0
   -2.5726    1.1871   -1.0741 O   0  0  0  0  0  0  0  0  0  0  0  0
   -1.1941    1.7377    0.6223 N   0  0  0  0  0  0  0  0  0  0  0  0
   -0.4976    1.3916    1.2669 H   0  0  0  0  0  0  0  0  0  0  0  0
   -1.4666    3.1722    0.6095 C   0  0  0  0  0  0  0  0  0  0  0  0
   -2.5439    3.3427    0.6539 H   0  0  0  0  0  0  0  0  0  0  0  0
   -0.9893    3.6529    1.4644 H   0  0  0  0  0  0  0  0  0  0  0  0
   -1.0808    3.6095   -0.3129 H   0  0  0  0  0  0  0  0  0  0  0  0
  5  6  2  0  0  0  0
  5  7  1  0  0  0  0
  2  3  1  0  0  0  0
  2  4  1  0  0  0  0
  2  5  1  0  0  0  0
  1  2  1  0  0  0  0
 29 30  2  0  0  0  0
 29 31  1  0  0  0  0
 26 27  1  0  0  0  0
 26 28  2  0  0  0  0
 24 25  1  0  0  0  0
 24 26  1  0  0  0  0
 22 23  1  0  0  0  0
 22 24  2  0  0  0  0
 20 21  1  0  0  0  0
 20 22  1  0  0  0  0
 19 20  2  0  0  0  0
 19 28  1  0  0  0  0
 17 18  1  0  0  0  0
 17 19  1  0  0  0  0
 15 16  1  0  0  0  0
 15 17  1  0  0  0  0
 14 15  2  0  0  0  0
 14 28  1  0  0  0  0
 11 12  1  0  0  0  0
 11 13  1  0  0  0  0
 11 14  1  0  0  0  0
  9 10  1  0  0  0  0
  9 11  1  0  0  0  0
  9 29  1  0  0  0  0
  7  8  1  0  0  0  0
  7  9  1  0  0  0  0
 33 34  1  0  0  0  0
 33 35  1  0  0  0  0
 33 36  1  0  0  0  0
 31 32  1  0  0  0  0
 31 33  1  0  0  0  0
M  END
$$$$
default_name
  -OEChem-02102213163D

 36 37  0     1  0  0  0  0  0999 V2000
   -4.0843   -4.0736    1.2944 H   0  0  0  0  0  0  0  0  0  0  0  0
   -4.0342   -3.2816    0.5484 C   0  0  0  0  0  0  0  0  0  0  0  0
   -4.8842   -2.6126    0.6694 H   0  0  0  0  0  0  0  0  0  0  0  0
   -4.0433   -3.7186   -0.4486 H   0  0  0  0  0  0  0  0  0  0  0  0
   -2.7532   -2.5046    0.7444 C   0  0  0  0  0  0  0  0  0  0  0  0
   -1.9803   -2.8096    1.6434 O   0  0  0  0  0  0  0  0  0  0  0  0
   -2.5332   -1.4966   -0.0966 N   0  0  0  0  0  0  0  0  0  0  0  0
   -3.2312   -1.2816   -0.7936 H   0  0  0  0  0  0  0  0  0  0  0  0
   -1.3593   -0.6196   -0.0536 C   0  0  1  0  0  0  0  0  0  0  0  0
   -0.8788   -0.7266    0.9196 H   0  0  0  0  0  0  0  0  0  0  0  0
   -0.3559   -1.0533   -1.1339 C   0  0  0  0  0  0  0  0  0  0  0  0
    0.5234   -0.4093   -1.0760 H   0  0  0  0  0  0  0  0  0  0  0  0
   -0.0329   -2.0733   -0.9185 H   0  0  0  0  0  0  0  0  0  0  0  0
   -0.8733   -1.0058   -2.5396 C   0  0  0  0  0  0  0  0  0  0  0  0
   -1.3286    0.0982   -3.1733 C   0  0  0  0  0  0  0  0  0  0  0  0
   -1.3905    1.0847   -2.7269 H   0  0  0  0  0  0  0  0  0  0  0  0
   -1.6788   -0.2222   -4.4703 N   0  0  0  0  0  0  0  0  0  0  0  0
   -2.0489    0.4474   -5.1289 H   0  0  0  0  0  0  0  0  0  0  0  0
   -1.4493   -1.5538   -4.7437 C   0  0  0  0  0  0  0  0  0  0  0  0
   -1.6110   -2.3371   -5.8955 C   0  0  0  0  0  0  0  0  0  0  0  0
   -1.9926   -1.8992   -6.8062 H   0  0  0  0  0  0  0  0  0  0  0  0
   -1.2714   -3.7000   -5.8477 C   0  0  0  0  0  0  0  0  0  0  0  0
   -1.3905   -4.3199   -6.7260 H   0  0  0  0  0  0  0  0  0  0  0  0
   -0.7822   -4.2589   -4.6529 C   0  0  0  0  0  0  0  0  0  0  0  0
   -0.5300   -5.3097   -4.6181 H   0  0  0  0  0  0  0  0  0  0  0  0
   -0.6256   -3.4625   -3.5007 C   0  0  0  0  0  0  0  0  0  0  0  0
   -0.2613   -3.9075   -2.5856 H   0  0  0  0  0  0  0  0  0  0  0  0
   -0.9519   -2.0892   -3.5180 C   0  0  0  0  0  0  0  0  0  0  0  0
   -1.7617    0.8549   -0.2106 C   0  0  0  0  0  0  0  0  0  0  0  0
   -2.5726    1.1871   -1.0741 O   0  0  0  0  0  0  0  0  0  0  0  0
   -1.1941    1.7377    0.6223 N   0  0  0  0  0  0  0  0  0  0  0  0
   -0.4976    1.3916    1.2669 H   0  0  0  0  0  0  0  0  0  0  0  0
   -1.4666    3.1722    0.6095 C   0  0  0  0  0  0  0  0  0  0  0  0
   -2.5439    3.3427    0.6539 H   0  0  0  0  0  0  0  0  0  0  0  0
   -0.9893    3.6529    1.4644 H   0  0  0  0  0  0  0  0  0  0  0  0
   -1.0808    3.6095   -0.3129 H   0  0  0  0  0  0  0  0  0  0  0  0
  5  6  2  0  0  0  0
  5  7  1  0  0  0  0
  2  3  1  0  0  0  0
  2  4  1  0  0  0  0
  2  5  1  0  0  0  0
  1  2  1  0  0  0  0
 29 30  2  0  0  0  0
 29 31  1  0  0  0  0
 26 27  1  0  0  0  0
 26 28  2  0  0  0  0
 24 25  1  0  0  0  0
 24 26  1  0  0  0  0
 22 23  1  0  0  0  0
 22 24  2  0  0  0  0
 20 21  1  0  0  0  0
 20 22  1  0  0  0  0
 19 20  2  0  0  0  0
 19 28  1  0  0  0  0
 17 18  1  0  0  0  0
 17 19  1  0  0  0  0
 15 16  1  0  0  0  0
 15 17  1  0  0  0  0
 14 15  2  0  0  0  0
 14 28  1  0  0  0  0
 11 12  1  0  0  0  0
 11 13  1  0  0  0  0
 11 14  1  0  0  0  0
  9 10  1  0  0  0  0
  9 11  1  0  0  0  0
  9 29  1  0  0  0  0
  7  8  1  0  0  0  0
  7  9  1  0  0  0  0
 33 34  1  0  0  0  0
 33 35  1  0  0  0  0
 33 36  1  0  0  0  0
 31 32  1  0  0  0  0
 31 33  1  0  0  0  0
M  END
$$$$
default_name
  -OEChem-02102213163D

 36 37  0     1  0  0  0  0  0999 V2000
   -4.0843   -4.0736    1.2944 H   0  0  0  0  0  0  0  0  0  0  0  0
   -4.0342   -3.2816    0.5484 C   0  0  0  0  0  0  0  0  0  0  0  0
   -4.8842   -2.6126    0.6694 H   0  0  0  0  0  0  0  0  0  0  0  0
   -4.0433   -3.7186   -0.4486 H   0  0  0  0  0  0  0  0  0  0  0  0
   -2.7532   -2.5046    0.7444 C   0  0  0  0  0  0  0  0  0  0  0  0
   -1.9803   -2.8096    1.6434 O   0  0  0  0  0  0  0  0  0  0  0  0
   -2.5332   -1.4966   -0.0966 N   0  0  0  0  0  0  0  0  0  0  0  0
   -3.2312   -1.2816   -0.7936 H   0  0  0  0  0  0  0  0  0  0  0  0
   -1.3593   -0.6196   -0.0536 C   0  0  1  0  0  0  0  0  0  0  0  0
   -0.8788   -0.7266    0.9196 H   0  0  0  0  0  0  0  0  0  0  0  0
   -0.3559   -1.0533   -1.1339 C   0  0  0  0  0  0  0  0  0  0  0  0
    0.5234   -0.4093   -1.0760 H   0  0  0  0  0  0  0  0  0  0  0  0
   -0.0329   -2.0733   -0.9185 H   0  0  0  0  0  0  0  0  0  0  0  0
   -0.8733   -1.0058   -2.5396 C   0  0  0  0  0  0  0  0  0  0  0  0
   -1.0595    0.1154   -3.2717 C   0  0  0  0  0  0  0  0  0  0  0  0
   -0.8719    1.1227   -2.9165 H   0  0  0  0  0  0  0  0  0  0  0  0
   -1.5018   -0.2236   -4.5355 N   0  0  0  0  0  0  0  0  0  0  0  0
   -1.7112    0.4551   -5.2529 H   0  0  0  0  0  0  0  0  0  0  0  0
   -1.6073   -1.5899   -4.6868 C   0  0  0  0  0  0  0  0  0  0  0  0
   -1.9762   -2.4089   -5.7636 C   0  0  0  0  0  0  0  0  0  0  0  0
   -2.2577   -1.9736   -6.7111 H   0  0  0  0  0  0  0  0  0  0  0  0
   -1.9762   -3.8037   -5.5918 C   0  0  0  0  0  0  0  0  0  0  0  0
   -2.2588   -4.4512   -6.4108 H   0  0  0  0  0  0  0  0  0  0  0  0
   -1.6141   -4.3570   -4.3500 C   0  0  0  0  0  0  0  0  0  0  0  0
   -1.6235   -5.4303   -4.2197 H   0  0  0  0  0  0  0  0  0  0  0  0
   -1.2470   -3.5241   -3.2740 C   0  0  0  0  0  0  0  0  0  0  0  0
   -0.9839   -3.9616   -2.3214 H   0  0  0  0  0  0  0  0  0  0  0  0
   -1.2309   -2.1196   -3.4163 C   0  0  0  0  0  0  0  0  0  0  0  0
   -1.7617    0.8549   -0.2106 C   0  0  0  0  0  0  0  0  0  0  0  0
   -2.5726    1.1871   -1.0741 O   0  0  0  0  0  0  0  0  0  0  0  0
   -1.1941    1.7377    0.6223 N   0  0  0  0  0  0  0  0  0  0  0  0
   -0.4976    1.3916    1.2669 H   0  0  0  0  0  0  0  0  0  0  0  0
   -1.4666    3.1722    0.6095 C   0  0  0  0  0  0  0  0  0  0  0  0
   -2.5439    3.3427    0.6539 H   0  0  0  0  0  0  0  0  0  0  0  0
   -0.9893    3.6529    1.4644 H   0  0  0  0  0  0  0  0  0  0  0  0
   -1.0808    3.6095   -0.3129 H   0  0  0  0  0  0  0  0  0  0  0  0
  5  6  2  0  0  0  0
  5  7  1  0  0  0  0
  2  3  1  0  0  0  0
  2  4  1  0  0  0  0
  2  5  1  0  0  0  0
  1  2  1  0  0  0  0
 29 30  2  0  0  0  0
 29 31  1  0  0  0  0
 26 27  1  0  0  0  0
 26 28  2  0  0  0  0
 24 25  1  0  0  0  0
 24 26  1  0  0  0  0
 22 23  1  0  0  0  0
 22 24  2  0  0  0  0
 20 21  1  0  0  0  0
 20 22  1  0  0  0  0
 19 20  2  0  0  0  0
 19 28  1  0  0  0  0
 17 18  1  0  0  0  0
 17 19  1  0  0  0  0
 15 16  1  0  0  0  0
 15 17  1  0  0  0  0
 14 15  2  0  0  0  0
 14 28  1  0  0  0  0
 11 12  1  0  0  0  0
 11 13  1  0  0  0  0
 11 14  1  0  0  0  0
  9 10  1  0  0  0  0
  9 11  1  0  0  0  0
  9 29  1  0  0  0  0
  7  8  1  0  0  0  0
  7  9  1  0  0  0  0
 33 34  1  0  0  0  0
 33 35  1  0  0  0  0
 33 36  1  0  0  0  0
 31 32  1  0  0  0  0
 31 33  1  0  0  0  0
M  END
$$$$
default_name
  -OEChem-02102213163D

 36 37  0     1  0  0  0  0  0999 V2000
   -4.0843   -4.0736    1.2944 H   0  0  0  0  0  0  0  0  0  0  0  0
   -4.0342   -3.2816    0.5484 C   0  0  0  0  0  0  0  0  0  0  0  0
   -4.8842   -2.6126    0.6694 H   0  0  0  0  0  0  0  0  0  0  0  0
   -4.0433   -3.7186   -0.4486 H   0  0  0  0  0  0  0  0  0  0  0  0
   -2.7532   -2.5046    0.7444 C   0  0  0  0  0  0  0  0  0  0  0  0
   -1.9803   -2.8096    1.6434 O   0  0  0  0  0  0  0  0  0  0  0  0
   -2.5332   -1.4966   -0.0966 N   0  0  0  0  0  0  0  0  0  0  0  0
   -3.2312   -1.2816   -0.7936 H   0  0  0  0  0  0  0  0  0  0  0  0
   -1.3593   -0.6196   -0.0536 C   0  0  1  0  0  0  0  0  0  0  0  0
   -0.8788   -0.7266    0.9196 H   0  0  0  0  0  0  0  0  0  0  0  0
   -0.3559   -1.0533   -1.1339 C   0  0  0  0  0  0  0  0  0  0  0  0
    0.5234   -0.4093   -1.0760 H   0  0  0  0  0  0  0  0  0  0  0  0
   -0.0329   -2.0733   -0.9185 H   0  0  0  0  0  0  0  0  0  0  0  0
   -0.8733   -1.0058   -2.5396 C   0  0  0  0  0  0  0  0  0  0  0  0
   -0.7963    0.0578   -3.3706 C   0  0  0  0  0  0  0  0  0  0  0  0
   -0.3633    1.0166   -3.1073 H   0  0  0  0  0  0  0  0  0  0  0  0
   -1.3317   -0.2737   -4.5997 N   0  0  0  0  0  0  0  0  0  0  0  0
   -1.3841    0.3693   -5.3762 H   0  0  0  0  0  0  0  0  0  0  0  0
   -1.7681   -1.5812   -4.6273 C   0  0  0  0  0  0  0  0  0  0  0  0
   -2.3452   -2.3778   -5.6267 C   0  0  0  0  0  0  0  0  0  0  0  0
   -2.5310   -1.9726   -6.6105 H   0  0  0  0  0  0  0  0  0  0  0  0
   -2.6800   -3.7100   -5.3296 C   0  0  0  0  0  0  0  0  0  0  0  0
   -3.1269   -4.3391   -6.0875 H   0  0  0  0  0  0  0  0  0  0  0  0
   -2.4390   -4.2228   -4.0418 C   0  0  0  0  0  0  0  0  0  0  0  0
   -2.7058   -5.2457   -3.8151 H   0  0  0  0  0  0  0  0  0  0  0  0
   -1.8603   -3.4124   -3.0445 C   0  0  0  0  0  0  0  0  0  0  0  0
   -1.6929   -3.8148   -2.0555 H   0  0  0  0  0  0  0  0  0  0  0  0
   -1.5070   -2.0722   -3.3131 C   0  0  0  0  0  0  0  0  0  0  0  0
   -1.7617    0.8549   -0.2106 C   0  0  0  0  0  0  0  0  0  0  0  0
   -2.5726    1.1871   -1.0741 O   0  0  0  0  0  0  0  0  0  0  0  0
   -1.1941    1.7377    0.6223 N   0  0  0  0  0  0  0  0  0  0  0  0
   -0.4976    1.3916    1.2669 H   0  0  0  0  0  0  0  0  0  0  0  0
   -1.4666    3.1722    0.6095 C   0  0  0  0  0  0  0  0  0  0  0  0
   -2.5439    3.3427    0.6539 H   0  0  0  0  0  0  0  0  0  0  0  0
   -0.9893    3.6529    1.4644 H   0  0  0  0  0  0  0  0  0  0  0  0
   -1.0808    3.6095   -0.3129 H   0  0  0  0  0  0  0  0  0  0  0  0
  5  6  2  0  0  0  0
  5  7  1  0  0  0  0
  2  3  1  0  0  0  0
  2  4  1  0  0  0  0
  2  5  1  0  0  0  0
  1  2  1  0  0  0  0
 29 30  2  0  0  0  0
 29 31  1  0  0  0  0
 26 27  1  0  0  0  0
 26 28  2  0  0  0  0
 24 25  1  0  0  0  0
 24 26  1  0  0  0  0
 22 23  1  0  0  0  0
 22 24  2  0  0  0  0
 20 21  1  0  0  0  0
 20 22  1  0  0  0  0
 19 20  2  0  0  0  0
 19 28  1  0  0  0  0
 17 18  1  0  0  0  0
 17 19  1  0  0  0  0
 15 16  1  0  0  0  0
 15 17  1  0  0  0  0
 14 15  2  0  0  0  0
 14 28  1  0  0  0  0
 11 12  1  0  0  0  0
 11 13  1  0  0  0  0
 11 14  1  0  0  0  0
  9 10  1  0  0  0  0
  9 11  1  0  0  0  0
  9 29  1  0  0  0  0
  7  8  1  0  0  0  0
  7  9  1  0  0  0  0
 33 34  1  0  0  0  0
 33 35  1  0  0  0  0
 33 36  1  0  0  0  0
 31 32  1  0  0  0  0
 31 33  1  0  0  0  0
M  END
$$$$
default_name
  -OEChem-02102213163D

 36 37  0     1  0  0  0  0  0999 V2000
   -4.0843   -4.0736    1.2944 H   0  0  0  0  0  0  0  0  0  0  0  0
   -4.0342   -3.2816    0.5484 C   0  0  0  0  0  0  0  0  0  0  0  0
   -4.8842   -2.6126    0.6694 H   0  0  0  0  0  0  0  0  0  0  0  0
   -4.0433   -3.7186   -0.4486 H   0  0  0  0  0  0  0  0  0  0  0  0
   -2.7532   -2.5046    0.7444 C   0  0  0  0  0  0  0  0  0  0  0  0
   -1.9803   -2.8096    1.6434 O   0  0  0  0  0  0  0  0  0  0  0  0
   -2.5332   -1.4966   -0.0966 N   0  0  0  0  0  0  0  0  0  0  0  0
   -3.2312   -1.2816   -0.7936 H   0  0  0  0  0  0  0  0  0  0  0  0
   -1.3593   -0.6196   -0.0536 C   0  0  1  0  0  0  0  0  0  0  0  0
   -0.8788   -0.7266    0.9196 H   0  0  0  0  0  0  0  0  0  0  0  0
   -0.3559   -1.0533   -1.1339 C   0  0  0  0  0  0  0  0  0  0  0  0
    0.5234   -0.4093   -1.0760 H   0  0  0  0  0  0  0  0  0  0  0  0
   -0.0329   -2.0733   -0.9185 H   0  0  0  0  0  0  0  0  0  0  0  0
   -0.8733   -1.0058   -2.5396 C   0  0  0  0  0  0  0  0  0  0  0  0
   -0.5568   -0.0705   -3.4631 C   0  0  0  0  0  0  0  0  0  0  0  0
    0.1007    0.7736   -3.2863 H   0  0  0  0  0  0  0  0  0  0  0  0
   -1.1802   -0.3692   -4.6588 N   0  0  0  0  0  0  0  0  0  0  0  0
   -1.0901    0.1961   -5.4903 H   0  0  0  0  0  0  0  0  0  0  0  0
   -1.9209   -1.5285   -4.5693 C   0  0  0  0  0  0  0  0  0  0  0  0
   -2.6930   -2.2460   -5.4942 C   0  0  0  0  0  0  0  0  0  0  0  0
   -2.7939   -1.8963   -6.5111 H   0  0  0  0  0  0  0  0  0  0  0  0
   -3.3349   -3.4252   -5.0788 C   0  0  0  0  0  0  0  0  0  0  0  0
   -3.9355   -3.9911   -5.7781 H   0  0  0  0  0  0  0  0  0  0  0  0
   -3.2007   -3.8653   -3.7493 C   0  0  0  0  0  0  0  0  0  0  0  0
   -3.7031   -4.7685   -3.4318 H   0  0  0  0  0  0  0  0  0  0  0  0
   -2.4238   -3.1351   -2.8277 C   0  0  0  0  0  0  0  0  0  0  0  0
   -2.3398   -3.4771   -1.8060 H   0  0  0  0  0  0  0  0  0  0  0  0
   -1.7614   -1.9501   -3.2153 C   0  0  0  0  0  0  0  0  0  0  0  0
   -1.7617    0.8549   -0.2106 C   0  0  0  0  0  0  0  0  0  0  0  0
   -2.5726    1.1871   -1.0741 O   0  0  0  0  0  0  0  0  0  0  0  0
   -1.1941    1.7377    0.6223 N   0  0  0  0  0  0  0  0  0  0  0  0
   -0.4976    1.3916    1.2669 H   0  0  0  0  0  0  0  0  0  0  0  0
   -1.4666    3.1722    0.6095 C   0  0  0  0  0  0  0  0  0  0  0  0
   -2.5439    3.3427    0.6539 H   0  0  0  0  0  0  0  0  0  0  0  0
   -0.9893    3.6529    1.4644 H   0  0  0  0  0  0  0  0  0  0  0  0
   -1.0808    3.6095   -0.3129 H   0  0  0  0  0  0  0  0  0  0  0  0
  5  6  2  0  0  0  0
  5  7  1  0  0  0  0
  2  3  1  0  0  0  0
  2  4  1  0  0  0  0
  2  5  1  0  0  0  0
  1  2  1  0  0  0  0
 29 30  2  0  0  0  0
 29 31  1  0  0  0  0
 26 27  1  0  0  0  0
 26 28  2  0  0  0  0
 24 25  1  0  0  0  0
 24 26  1  0  0  0  0
 22 23  1  0  0  0  0
 22 24  2  0  0  0  0
 20 21  1  0  0  0  0
 20 22  1  0  0  0  0
 19 20  2  0  0  0  0
 19 28  1  0  0  0  0
 17 18  1  0  0  0  0
 17 19  1  0  0  0  0
 15 16  1  0  0  0  0
 15 17  1  0  0  0  0
 14 15  2  0  0  0  0
 14 28  1  0  0  0  0
 11 12  1  0  0  0  0
 11 13  1  0  0  0  0
 11 14  1  0  0  0  0
  9 10  1  0  0  0  0
  9 11  1  0  0  0  0
  9 29  1  0  0  0  0
  7  8  1  0  0  0  0
  7  9  1  0  0  0  0
 33 34  1  0  0  0  0
 33 35  1  0  0  0  0
 33 36  1  0  0  0  0
 31 32  1  0  0  0  0
 31 33  1  0  0  0  0
M  END
$$$$
default_name
  -OEChem-02102213163D

 36 37  0     1  0  0  0  0  0999 V2000
   -4.0843   -4.0736    1.2944 H   0  0  0  0  0  0  0  0  0  0  0  0
   -4.0342   -3.2816    0.5484 C   0  0  0  0  0  0  0  0  0  0  0  0
   -4.8842   -2.6126    0.6694 H   0  0  0  0  0  0  0  0  0  0  0  0
   -4.0433   -3.7186   -0.4486 H   0  0  0  0  0  0  0  0  0  0  0  0
   -2.7532   -2.5046    0.7444 C   0  0  0  0  0  0  0  0  0  0  0  0
   -1.9803   -2.8096    1.6434 O   0  0  0  0  0  0  0  0  0  0  0  0
   -2.5332   -1.4966   -0.0966 N   0  0  0  0  0  0  0  0  0  0  0  0
   -3.2312   -1.2816   -0.7936 H   0  0  0  0  0  0  0  0  0  0  0  0
   -1.3593   -0.6196   -0.0536 C   0  0  1  0  0  0  0  0  0  0  0  0
   -0.8788   -0.7266    0.9196 H   0  0  0  0  0  0  0  0  0  0  0  0
   -0.3559   -1.0533   -1.1339 C   0  0  0  0  0  0  0  0  0  0  0  0
    0.5234   -0.4093   -1.0760 H   0  0  0  0  0  0  0  0  0  0  0  0
   -0.0329   -2.0733   -0.9185 H   0  0  0  0  0  0  0  0  0  0  0  0
   -0.8733   -1.0058   -2.5396 C   0  0  0  0  0  0  0  0  0  0  0  0
   -0.3574   -0.2609   -3.5429 C   0  0  0  0  0  0  0  0  0  0  0  0
    0.4884    0.4103   -3.4413 H   0  0  0  0  0  0  0  0  0  0  0  0
   -1.0574   -0.5035   -4.7085 N   0  0  0  0  0  0  0  0  0  0  0  0
   -0.8490   -0.0528   -5.5875 H   0  0  0  0  0  0  0  0  0  0  0  0
   -2.0553   -1.4353   -4.5167 C   0  0  0  0  0  0  0  0  0  0  0  0
   -2.9959   -2.0223   -5.3752 C   0  0  0  0  0  0  0  0  0  0  0  0
   -3.0286   -1.7499   -6.4198 H   0  0  0  0  0  0  0  0  0  0  0  0
   -3.8964   -2.9686   -4.8568 C   0  0  0  0  0  0  0  0  0  0  0  0
   -4.6295   -3.4311   -5.5037 H   0  0  0  0  0  0  0  0  0  0  0  0
   -3.8473   -3.3089   -3.4925 C   0  0  0  0  0  0  0  0  0  0  0  0
   -4.5474   -4.0313   -3.0961 H   0  0  0  0  0  0  0  0  0  0  0  0
   -2.8989   -2.7111   -2.6385 C   0  0  0  0  0  0  0  0  0  0  0  0
   -2.8807   -2.9716   -1.5898 H   0  0  0  0  0  0  0  0  0  0  0  0
   -1.9767   -1.7618   -3.1297 C   0  0  0  0  0  0  0  0  0  0  0  0
   -1.7617    0.8549   -0.2106 C   0  0  0  0  0  0  0  0  0  0  0  0
   -2.5726    1.1871   -1.0741 O   0  0  0  0  0  0  0  0  0  0  0  0
   -1.1941    1.7377    0.6223 N   0  0  0  0  0  0  0  0  0  0  0  0
   -0.4976    1.3916    1.2669 H   0  0  0  0  0  0  0  0  0  0  0  0
   -1.4666    3.1722    0.6095 C   0  0  0  0  0  0  0  0  0  0  0  0
   -2.5439    3.3427    0.6539 H   0  0  0  0  0  0  0  0  0  0  0  0
   -0.9893    3.6529    1.4644 H   0  0  0  0  0  0  0  0  0  0  0  0
   -1.0808    3.6095   -0.3129 H   0  0  0  0  0  0  0  0  0  0  0  0
  5  6  2  0  0  0  0
  5  7  1  0  0  0  0
  2  3  1  0  0  0  0
  2  4  1  0  0  0  0
  2  5  1  0  0  0  0
  1  2  1  0  0  0  0
 29 30  2  0  0  0  0
 29 31  1  0  0  0  0
 26 27  1  0  0  0  0
 26 28  2  0  0  0  0
 24 25  1  0  0  0  0
 24 26  1  0  0  0  0
 22 23  1  0  0  0  0
 22 24  2  0  0  0  0
 20 21  1  0  0  0  0
 20 22  1  0  0  0  0
 19 20  2  0  0  0  0
 19 28  1  0  0  0  0
 17 18  1  0  0  0  0
 17 19  1  0  0  0  0
 15 16  1  0  0  0  0
 15 17  1  0  0  0  0
 14 15  2  0  0  0  0
 14 28  1  0  0  0  0
 11 12  1  0  0  0  0
 11 13  1  0  0  0  0
 11 14  1  0  0  0  0
  9 10  1  0  0  0  0
  9 11  1  0  0  0  0
  9 29  1  0  0  0  0
  7  8  1  0  0  0  0
  7  9  1  0  0  0  0
 33 34  1  0  0  0  0
 33 35  1  0  0  0  0
 33 36  1  0  0  0  0
 31 32  1  0  0  0  0
 31 33  1  0  0  0  0
M  END
$$$$
default_name
  -OEChem-02102213163D

 36 37  0     1  0  0  0  0  0999 V2000
   -4.0843   -4.0736    1.2944 H   0  0  0  0  0  0  0  0  0  0  0  0
   -4.0342   -3.2816    0.5484 C   0  0  0  0  0  0  0  0  0  0  0  0
   -4.8842   -2.6126    0.6694 H   0  0  0  0  0  0  0  0  0  0  0  0
   -4.0433   -3.7186   -0.4486 H   0  0  0  0  0  0  0  0  0  0  0  0
   -2.7532   -2.5046    0.7444 C   0  0  0  0  0  0  0  0  0  0  0  0
   -1.9803   -2.8096    1.6434 O   0  0  0  0  0  0  0  0  0  0  0  0
   -2.5332   -1.4966   -0.0966 N   0  0  0  0  0  0  0  0  0  0  0  0
   -3.2312   -1.2816   -0.7936 H   0  0  0  0  0  0  0  0  0  0  0  0
   -1.3593   -0.6196   -0.0536 C   0  0  1  0  0  0  0  0  0  0  0  0
   -0.8788   -0.7266    0.9196 H   0  0  0  0  0  0  0  0  0  0  0  0
   -0.3559   -1.0533   -1.1339 C   0  0  0  0  0  0  0  0  0  0  0  0
    0.5234   -0.4093   -1.0760 H   0  0  0  0  0  0  0  0  0  0  0  0
   -0.0329   -2.0733   -0.9185 H   0  0  0  0  0  0  0  0  0  0  0  0
   -0.8733   -1.0058   -2.5396 C   0  0  0  0  0  0  0  0  0  0  0  0
   -0.2116   -0.5004   -3.6047 C   0  0  0  0  0  0  0  0  0  0  0  0
    0.7734   -0.0487   -3.5617 H   0  0  0  0  0  0  0  0  0  0  0  0
   -0.9719   -0.6674   -4.7455 N   0  0  0  0  0  0  0  0  0  0  0  0
   -0.6774   -0.3604   -5.6610 H   0  0  0  0  0  0  0  0  0  0  0  0
   -2.1619   -1.3080   -4.4731 C   0  0  0  0  0  0  0  0  0  0  0  0
   -3.2331   -1.7222   -5.2777 C   0  0  0  0  0  0  0  0  0  0  0  0
   -3.2189   -1.5433   -6.3428 H   0  0  0  0  0  0  0  0  0  0  0  0
   -4.3260   -2.3715   -4.6784 C   0  0  0  0  0  0  0  0  0  0  0  0
   -5.1617   -2.6971   -5.2830 H   0  0  0  0  0  0  0  0  0  0  0  0
   -4.3346   -2.5916   -3.2889 C   0  0  0  0  0  0  0  0  0  0  0  0
   -5.1812   -3.0841   -2.8308 H   0  0  0  0  0  0  0  0  0  0  0  0
   -3.2533   -2.1692   -2.4897 C   0  0  0  0  0  0  0  0  0  0  0  0
   -3.2787   -2.3327   -1.4217 H   0  0  0  0  0  0  0  0  0  0  0  0
   -2.1381   -1.5199   -3.0621 C   0  0  0  0  0  0  0  0  0  0  0  0
   -1.7617    0.8549   -0.2106 C   0  0  0  0  0  0  0  0  0  0  0  0
   -2.5726    1.1871   -1.0741 O   0  0  0  0  0  0  0  0  0  0  0  0
   -1.1941    1.7377    0.6223 N   0  0  0  0  0  0  0  0  0  0  0  0
   -0.4976    1.3916    1.2669 H   0  0  0  0  0  0  0  0  0  0  0  0
   -1.4666    3.1722    0.6095 C   0  0  0  0  0  0  0  0  0  0  0  0
   -2.5439    3.3427    0.6539 H   0  0  0  0  0  0  0  0  0  0  0  0
   -0.9893    3.6529    1.4644 H   0  0  0  0  0  0  0  0  0  0  0  0
   -1.0808    3.6095   -0.3129 H   0  0  0  0  0  0  0  0  0  0  0  0
  5  6  2  0  0  0  0
  5  7  1  0  0  0  0
  2  3  1  0  0  0  0
  2  4  1  0  0  0  0
  2  5  1  0  0  0  0
  1  2  1  0  0  0  0
 29 30  2  0  0  0  0
 29 31  1  0  0  0  0
 26 27  1  0  0  0  0
 26 28  2  0  0  0  0
 24 25  1  0  0  0  0
 24 26  1  0  0  0  0
 22 23  1  0  0  0  0
 22 24  2  0  0  0  0
 20 21  1  0  0  0  0
 20 22  1  0  0  0  0
 19 20  2  0  0  0  0
 19 28  1  0  0  0  0
 17 18  1  0  0  0  0
 17 19  1  0  0  0  0
 15 16  1  0  0  0  0
 15 17  1  0  0  0  0
 14 15  2  0  0  0  0
 14 28  1  0  0  0  0
 11 12  1  0  0  0  0
 11 13  1  0  0  0  0
 11 14  1  0  0  0  0
  9 10  1  0  0  0  0
  9 11  1  0  0  0  0
  9 29  1  0  0  0  0
  7  8  1  0  0  0  0
  7  9  1  0  0  0  0
 33 34  1  0  0  0  0
 33 35  1  0  0  0  0
 33 36  1  0  0  0  0
 31 32  1  0  0  0  0
 31 33  1  0  0  0  0
M  END
$$$$
default_name
  -OEChem-02102213163D

 36 37  0     1  0  0  0  0  0999 V2000
   -4.0843   -4.0736    1.2944 H   0  0  0  0  0  0  0  0  0  0  0  0
   -4.0342   -3.2816    0.5484 C   0  0  0  0  0  0  0  0  0  0  0  0
   -4.8842   -2.6126    0.6694 H   0  0  0  0  0  0  0  0  0  0  0  0
   -4.0433   -3.7186   -0.4486 H   0  0  0  0  0  0  0  0  0  0  0  0
   -2.7532   -2.5046    0.7444 C   0  0  0  0  0  0  0  0  0  0  0  0
   -1.9803   -2.8096    1.6434 O   0  0  0  0  0  0  0  0  0  0  0  0
   -2.5332   -1.4966   -0.0966 N   0  0  0  0  0  0  0  0  0  0  0  0
   -3.2312   -1.2816   -0.7936 H   0  0  0  0  0  0  0  0  0  0  0  0
   -1.3593   -0.6196   -0.0536 C   0  0  1  0  0  0  0  0  0  0  0  0
   -0.8788   -0.7266    0.9196 H   0  0  0  0  0  0  0  0  0  0  0  0
   -0.3559   -1.0533   -1.1339 C   0  0  0  0  0  0  0  0  0  0  0  0
    0.5234   -0.4093   -1.0760 H   0  0  0  0  0  0  0  0  0  0  0  0
   -0.0329   -2.0733   -0.9185 H   0  0  0  0  0  0  0  0  0  0  0  0
   -0.8733   -1.0058   -2.5396 C   0  0  0  0  0  0  0  0  0  0  0  0
   -0.1294   -0.7725   -3.6441 C   0  0  0  0  0  0  0  0  0  0  0  0
    0.9363   -0.5720   -3.6394 H   0  0  0  0  0  0  0  0  0  0  0  0
   -0.9293   -0.8498   -4.7673 N   0  0  0  0  0  0  0  0  0  0  0  0
   -0.5869   -0.7057   -5.7060 H   0  0  0  0  0  0  0  0  0  0  0  0
   -2.2337   -1.1552   -4.4415 C   0  0  0  0  0  0  0  0  0  0  0  0
   -3.3886   -1.3659   -5.2084 C   0  0  0  0  0  0  0  0  0  0  0  0
   -3.3520   -1.2907   -6.2852 H   0  0  0  0  0  0  0  0  0  0  0  0
   -4.5946   -1.6745   -4.5560 C   0  0  0  0  0  0  0  0  0  0  0  0
   -5.4957   -1.8392   -5.1310 H   0  0  0  0  0  0  0  0  0  0  0  0
   -4.6295   -1.7623   -3.1523 C   0  0  0  0  0  0  0  0  0  0  0  0
   -5.5613   -1.9917   -2.6540 H   0  0  0  0  0  0  0  0  0  0  0  0
   -3.4630   -1.5466   -2.3915 C   0  0  0  0  0  0  0  0  0  0  0  0
   -3.5067   -1.6039   -1.3131 H   0  0  0  0  0  0  0  0  0  0  0  0
   -2.2348   -1.2410   -3.0171 C   0  0  0  0  0  0  0  0  0  0  0  0
   -1.7617    0.8549   -0.2106 C   0  0  0  0  0  0  0  0  0  0  0  0
   -2.5726    1.1871   -1.0741 O   0  0  0  0  0  0  0  0  0  0  0  0
   -1.1941    1.7377    0.6223 N   0  0  0  0  0  0  0  0  0  0  0  0
   -0.4976    1.3916    1.2669 H   0  0  0  0  0  0  0  0  0  0  0  0
   -1.4666    3.1722    0.6095 C   0  0  0  0  0  0  0  0  0  0  0  0
   -2.5439    3.3427    0.6539 H   0  0  0  0  0  0  0  0  0  0  0  0
   -0.9893    3.6529    1.4644 H   0  0  0  0  0  0  0  0  0  0  0  0
   -1.0808    3.6095   -0.3129 H   0  0  0  0  0  0  0  0  0  0  0  0
  5  6  2  0  0  0  0
  5  7  1  0  0  0  0
  2  3  1  0  0  0  0
  2  4  1  0  0  0  0
  2  5  1  0  0  0  0
  1  2  1  0  0  0  0
 29 30  2  0  0  0  0
 29 31  1  0  0  0  0
 26 27  1  0  0  0  0
 26 28  2  0  0  0  0
 24 25  1  0  0  0  0
 24 26  1  0  0  0  0
 22 23  1  0  0  0  0
 22 24  2  0  0  0  0
 20 21  1  0  0  0  0
 20 22  1  0  0  0  0
 19 20  2  0  0  0  0
 19 28  1  0  0  0  0
 17 18  1  0  0  0  0
 17 19  1  0  0  0  0
 15 16  1  0  0  0  0
 15 17  1  0  0  0  0
 14 15  2  0  0  0  0
 14 28  1  0  0  0  0
 11 12  1  0  0  0  0
 11 13  1  0  0  0  0
 11 14  1  0  0  0  0
  9 10  1  0  0  0  0
  9 11  1  0  0  0  0
  9 29  1  0  0  0  0
  7  8  1  0  0  0  0
  7  9  1  0  0  0  0
 33 34  1  0  0  0  0
 33 35  1  0  0  0  0
 33 36  1  0  0  0  0
 31 32  1  0  0  0  0
 31 33  1  0  0  0  0
M  END
$$$$
default_name
  -OEChem-02102213163D

 36 37  0     1  0  0  0  0  0999 V2000
   -4.0843   -4.0736    1.2944 H   0  0  0  0  0  0  0  0  0  0  0  0
   -4.0342   -3.2816    0.5484 C   0  0  0  0  0  0  0  0  0  0  0  0
   -4.8842   -2.6126    0.6694 H   0  0  0  0  0  0  0  0  0  0  0  0
   -4.0433   -3.7186   -0.4486 H   0  0  0  0  0  0  0  0  0  0  0  0
   -2.7532   -2.5046    0.7444 C   0  0  0  0  0  0  0  0  0  0  0  0
   -1.9803   -2.8096    1.6434 O   0  0  0  0  0  0  0  0  0  0  0  0
   -2.5332   -1.4966   -0.0966 N   0  0  0  0  0  0  0  0  0  0  0  0
   -3.2312   -1.2816   -0.7936 H   0  0  0  0  0  0  0  0  0  0  0  0
   -1.3593   -0.6196   -0.0536 C   0  0  1  0  0  0  0  0  0  0  0  0
   -0.8788   -0.7266    0.9196 H   0  0  0  0  0  0  0  0  0  0  0  0
   -0.3559   -1.0533   -1.1339 C   0  0  0  0  0  0  0  0  0  0  0  0
    0.5234   -0.4093   -1.0760 H   0  0  0  0  0  0  0  0  0  0  0  0
   -0.0329   -2.0733   -0.9185 H   0  0  0  0  0  0  0  0  0  0  0  0
   -0.8733   -1.0058   -2.5396 C   0  0  0  0  0  0  0  0  0  0  0  0
   -0.1165   -1.0589   -3.6586 C   0  0  0  0  0  0  0  0  0  0  0  0
    0.9660   -1.1239   -3.6690 H   0  0  0  0  0  0  0  0  0  0  0  0
   -0.9327   -1.0383   -4.7725 N   0  0  0  0  0  0  0  0  0  0  0  0
   -0.5837   -1.0653   -5.7194 H   0  0  0  0  0  0  0  0  0  0  0  0
   -2.2657   -0.9874   -4.4241 C   0  0  0  0  0  0  0  0  0  0  0  0
   -3.4518   -0.9779   -5.1720 C   0  0  0  0  0  0  0  0  0  0  0  0
   -3.4187   -1.0093   -6.2512 H   0  0  0  0  0  0  0  0  0  0  0  0
   -4.6838   -0.9251   -4.4978 C   0  0  0  0  0  0  0  0  0  0  0  0
   -5.6089   -0.9159   -5.0582 H   0  0  0  0  0  0  0  0  0  0  0  0
   -4.7120   -0.8774   -3.0920 C   0  0  0  0  0  0  0  0  0  0  0  0
   -5.6618   -0.8284   -2.5777 H   0  0  0  0  0  0  0  0  0  0  0  0
   -3.5135   -0.8854   -2.3505 C   0  0  0  0  0  0  0  0  0  0  0  0
   -3.5490   -0.8349   -1.2715 H   0  0  0  0  0  0  0  0  0  0  0  0
   -2.2602   -0.9442   -2.9977 C   0  0  0  0  0  0  0  0  0  0  0  0
   -1.7617    0.8549   -0.2106 C   0  0  0  0  0  0  0  0  0  0  0  0
   -2.5726    1.1871   -1.0741 O   0  0  0  0  0  0  0  0  0  0  0  0
   -1.1941    1.7377    0.6223 N   0  0  0  0  0  0  0  0  0  0  0  0
   -0.4976    1.3916    1.2669 H   0  0  0  0  0  0  0  0  0  0  0  0
   -1.4666    3.1722    0.6095 C   0  0  0  0  0  0  0  0  0  0  0  0
   -2.5439    3.3427    0.6539 H   0  0  0  0  0  0  0  0  0  0  0  0
   -0.9893    3.6529    1.4644 H   0  0  0  0  0  0  0  0  0  0  0  0
   -1.0808    3.6095   -0.3129 H   0  0  0  0  0  0  0  0  0  0  0  0
  5  6  2  0  0  0  0
  5  7  1  0  0  0  0
  2  3  1  0  0  0  0
  2  4  1  0  0  0  0
  2  5  1  0  0  0  0
  1  2  1  0  0  0  0
 29 30  2  0  0  0  0
 29 31  1  0  0  0  0
 26 27  1  0  0  0  0
 26 28  2  0  0  0  0
 24 25  1  0  0  0  0
 24 26  1  0  0  0  0
 22 23  1  0  0  0  0
 22 24  2  0  0  0  0
 20 21  1  0  0  0  0
 20 22  1  0  0  0  0
 19 20  2  0  0  0  0
 19 28  1  0  0  0  0
 17 18  1  0  0  0  0
 17 19  1  0  0  0  0
 15 16  1  0  0  0  0
 15 17  1  0  0  0  0
 14 15  2  0  0  0  0
 14 28  1  0  0  0  0
 11 12  1  0  0  0  0
 11 13  1  0  0  0  0
 11 14  1  0  0  0  0
  9 10  1  0  0  0  0
  9 11  1  0  0  0  0
  9 29  1  0  0  0  0
  7  8  1  0  0  0  0
  7  9  1  0  0  0  0
 33 34  1  0  0  0  0
 33 35  1  0  0  0  0
 33 36  1  0  0  0  0
 31 32  1  0  0  0  0
 31 33  1  0  0  0  0
M  END
$$$$
default_name
  -OEChem-02102213163D

 36 37  0     1  0  0  0  0  0999 V2000
   -4.0843   -4.0736    1.2944 H   0  0  0  0  0  0  0  0  0  0  0  0
   -4.0342   -3.2816    0.5484 C   0  0  0  0  0  0  0  0  0  0  0  0
   -4.8842   -2.6126    0.6694 H   0  0  0  0  0  0  0  0  0  0  0  0
   -4.0433   -3.7186   -0.4486 H   0  0  0  0  0  0  0  0  0  0  0  0
   -2.7532   -2.5046    0.7444 C   0  0  0  0  0  0  0  0  0  0  0  0
   -1.9803   -2.8096    1.6434 O   0  0  0  0  0  0  0  0  0  0  0  0
   -2.5332   -1.4966   -0.0966 N   0  0  0  0  0  0  0  0  0  0  0  0
   -3.2312   -1.2816   -0.7936 H   0  0  0  0  0  0  0  0  0  0  0  0
   -1.3593   -0.6196   -0.0536 C   0  0  1  0  0  0  0  0  0  0  0  0
   -0.8788   -0.7266    0.9196 H   0  0  0  0  0  0  0  0  0  0  0  0
   -0.3559   -1.0533   -1.1339 C   0  0  0  0  0  0  0  0  0  0  0  0
    0.6142   -0.6044   -0.9133 H   0  0  0  0  0  0  0  0  0  0  0  0
   -0.2375   -2.1370   -1.0829 H   0  0  0  0  0  0  0  0  0  0  0  0
   -0.7302   -0.6819   -2.5367 C   0  0  0  0  0  0  0  0  0  0  0  0
   -0.0047   -0.9576   -3.6436 C   0  0  0  0  0  0  0  0  0  0  0  0
    0.9519   -1.4686   -3.6431 H   0  0  0  0  0  0  0  0  0  0  0  0
   -0.6773   -0.5087   -4.7633 N   0  0  0  0  0  0  0  0  0  0  0  0
   -0.3205   -0.6038   -5.7028 H   0  0  0  0  0  0  0  0  0  0  0  0
   -1.8853    0.0676   -4.4326 C   0  0  0  0  0  0  0  0  0  0  0  0
   -2.9181    0.6321   -5.1948 C   0  0  0  0  0  0  0  0  0  0  0  0
   -2.8429    0.6758   -6.2714 H   0  0  0  0  0  0  0  0  0  0  0  0
   -4.0512    1.1418   -4.5381 C   0  0  0  0  0  0  0  0  0  0  0  0
   -4.8573    1.5819   -5.1095 H   0  0  0  0  0  0  0  0  0  0  0  0
   -4.1328    1.0849   -3.1348 C   0  0  0  0  0  0  0  0  0  0  0  0
   -5.0027    1.4858   -2.6331 H   0  0  0  0  0  0  0  0  0  0  0  0
   -3.0878    0.5170   -2.3786 C   0  0  0  0  0  0  0  0  0  0  0  0
   -3.1573    0.4916   -1.3004 H   0  0  0  0  0  0  0  0  0  0  0  0
   -1.9393   -0.0092   -3.0086 C   0  0  0  0  0  0  0  0  0  0  0  0
   -1.7617    0.8549   -0.2106 C   0  0  0  0  0  0  0  0  0  0  0  0
   -2.5726    1.1871   -1.0741 O   0  0  0  0  0  0  0  0  0  0  0  0
   -1.1941    1.7377    0.6223 N   0  0  0  0  0  0  0  0  0  0  0  0
   -0.4976    1.3916    1.2669 H   0  0  0  0  0  0  0  0  0  0  0  0
   -1.4666    3.1722    0.6095 C   0  0  0  0  0  0  0  0  0  0  0  0
   -2.5439    3.3427    0.6539 H   0  0  0  0  0  0  0  0  0  0  0  0
   -0.9893    3.6529    1.4644 H   0  0  0  0  0  0  0  0  0  0  0  0
   -1.0808    3.6095   -0.3129 H   0  0  0  0  0  0  0  0  0  0  0  0
  5  6  2  0  0  0  0
  5  7  1  0  0  0  0
  2  3  1  0  0  0  0
  2  4  1  0  0  0  0
  2  5  1  0  0  0  0
  1  2  1  0  0  0  0
 29 30  2  0  0  0  0
 29 31  1  0  0  0  0
 26 27  1  0  0  0  0
 26 28  2  0  0  0  0
 24 25  1  0  0  0  0
 24 26  1  0  0  0  0
 22 23  1  0  0  0  0
 22 24  2  0  0  0  0
 20 21  1  0  0  0  0
 20 22  1  0  0  0  0
 19 20  2  0  0  0  0
 19 28  1  0  0  0  0
 17 18  1  0  0  0  0
 17 19  1  0  0  0  0
 15 16  1  0  0  0  0
 15 17  1  0  0  0  0
 14 15  2  0  0  0  0
 14 28  1  0  0  0  0
 11 12  1  0  0  0  0
 11 13  1  0  0  0  0
 11 14  1  0  0  0  0
  9 10  1  0  0  0  0
  9 11  1  0  0  0  0
  9 29  1  0  0  0  0
  7  8  1  0  0  0  0
  7  9  1  0  0  0  0
 33 34  1  0  0  0  0
 33 35  1  0  0  0  0
 33 36  1  0  0  0  0
 31 32  1  0  0  0  0
 31 33  1  0  0  0  0
M  END
$$$$
default_name
  -OEChem-02102213163D

 36 37  0     1  0  0  0  0  0999 V2000
   -4.0843   -4.0736    1.2944 H   0  0  0  0  0  0  0  0  0  0  0  0
   -4.0342   -3.2816    0.5484 C   0  0  0  0  0  0  0  0  0  0  0  0
   -4.8842   -2.6126    0.6694 H   0  0  0  0  0  0  0  0  0  0  0  0
   -4.0433   -3.7186   -0.4486 H   0  0  0  0  0  0  0  0  0  0  0  0
   -2.7532   -2.5046    0.7444 C   0  0  0  0  0  0  0  0  0  0  0  0
   -1.9803   -2.8096    1.6434 O   0  0  0  0  0  0  0  0  0  0  0  0
   -2.5332   -1.4966   -0.0966 N   0  0  0  0  0  0  0  0  0  0  0  0
   -3.2312   -1.2816   -0.7936 H   0  0  0  0  0  0  0  0  0  0  0  0
   -1.3593   -0.6196   -0.0536 C   0  0  1  0  0  0  0  0  0  0  0  0
   -0.8788   -0.7266    0.9196 H   0  0  0  0  0  0  0  0  0  0  0  0
   -0.3559   -1.0533   -1.1339 C   0  0  0  0  0  0  0  0  0  0  0  0
    0.6142   -0.6044   -0.9133 H   0  0  0  0  0  0  0  0  0  0  0  0
   -0.2375   -2.1370   -1.0829 H   0  0  0  0  0  0  0  0  0  0  0  0
   -0.7302   -0.6819   -2.5367 C   0  0  0  0  0  0  0  0  0  0  0  0
   -0.1739   -1.1889   -3.6597 C   0  0  0  0  0  0  0  0  0  0  0  0
    0.6294   -1.9173   -3.6759 H   0  0  0  0  0  0  0  0  0  0  0  0
   -0.7979   -0.6535   -4.7694 N   0  0  0  0  0  0  0  0  0  0  0  0
   -0.5431   -0.8861   -5.7182 H   0  0  0  0  0  0  0  0  0  0  0  0
   -1.8051    0.2183   -4.4141 C   0  0  0  0  0  0  0  0  0  0  0  0
   -2.7243    0.9740   -5.1560 C   0  0  0  0  0  0  0  0  0  0  0  0
   -2.7187    0.9368   -6.2355 H   0  0  0  0  0  0  0  0  0  0  0  0
   -3.6515    1.7815   -4.4754 C   0  0  0  0  0  0  0  0  0  0  0  0
   -4.3673    2.3721   -5.0311 H   0  0  0  0  0  0  0  0  0  0  0  0
   -3.6430    1.8260   -3.0693 C   0  0  0  0  0  0  0  0  0  0  0  0
   -4.3526    2.4551   -2.5499 H   0  0  0  0  0  0  0  0  0  0  0  0
   -2.7132    1.0638   -2.3338 C   0  0  0  0  0  0  0  0  0  0  0  0
   -2.7088    1.1174   -1.2544 H   0  0  0  0  0  0  0  0  0  0  0  0
   -1.7731    0.2380   -2.9875 C   0  0  0  0  0  0  0  0  0  0  0  0
   -1.7617    0.8549   -0.2106 C   0  0  0  0  0  0  0  0  0  0  0  0
   -2.5726    1.1871   -1.0741 O   0  0  0  0  0  0  0  0  0  0  0  0
   -1.1941    1.7377    0.6223 N   0  0  0  0  0  0  0  0  0  0  0  0
   -0.4976    1.3916    1.2669 H   0  0  0  0  0  0  0  0  0  0  0  0
   -1.4666    3.1722    0.6095 C   0  0  0  0  0  0  0  0  0  0  0  0
   -2.5439    3.3427    0.6539 H   0  0  0  0  0  0  0  0  0  0  0  0
   -0.9893    3.6529    1.4644 H   0  0  0  0  0  0  0  0  0  0  0  0
   -1.0808    3.6095   -0.3129 H   0  0  0  0  0  0  0  0  0  0  0  0
  5  6  2  0  0  0  0
  5  7  1  0  0  0  0
  2  3  1  0  0  0  0
  2  4  1  0  0  0  0
  2  5  1  0  0  0  0
  1  2  1  0  0  0  0
 29 30  2  0  0  0  0
 29 31  1  0  0  0  0
 26 27  1  0  0  0  0
 26 28  2  0  0  0  0
 24 25  1  0  0  0  0
 24 26  1  0  0  0  0
 22 23  1  0  0  0  0
 22 24  2  0  0  0  0
 20 21  1  0  0  0  0
 20 22  1  0  0  0  0
 19 20  2  0  0  0  0
 19 28  1  0  0  0  0
 17 18  1  0  0  0  0
 17 19  1  0  0  0  0
 15 16  1  0  0  0  0
 15 17  1  0  0  0  0
 14 15  2  0  0  0  0
 14 28  1  0  0  0  0
 11 12  1  0  0  0  0
 11 13  1  0  0  0  0
 11 14  1  0  0  0  0
  9 10  1  0  0  0  0
  9 11  1  0  0  0  0
  9 29  1  0  0  0  0
  7  8  1  0  0  0  0
  7  9  1  0  0  0  0
 33 34  1  0  0  0  0
 33 35  1  0  0  0  0
 33 36  1  0  0  0  0
 31 32  1  0  0  0  0
 31 33  1  0  0  0  0
M  END
$$$$
default_name
  -OEChem-02102213163D

 36 37  0     1  0  0  0  0  0999 V2000
   -4.0843   -4.0736    1.2944 H   0  0  0  0  0  0  0  0  0  0  0  0
   -4.0342   -3.2816    0.5484 C   0  0  0  0  0  0  0  0  0  0  0  0
   -4.8842   -2.6126    0.6694 H   0  0  0  0  0  0  0  0  0  0  0  0
   -4.0433   -3.7186   -0.4486 H   0  0  0  0  0  0  0  0  0  0  0  0
   -2.7532   -2.5046    0.7444 C   0  0  0  0  0  0  0  0  0  0  0  0
   -1.9803   -2.8096    1.6434 O   0  0  0  0  0  0  0  0  0  0  0  0
   -2.5332   -1.4966   -0.0966 N   0  0  0  0  0  0  0  0  0  0  0  0
   -3.2312   -1.2816   -0.7936 H   0  0  0  0  0  0  0  0  0  0  0  0
   -1.3593   -0.6196   -0.0536 C   0  0  1  0  0  0  0  0  0  0  0  0
   -0.8788   -0.7266    0.9196 H   0  0  0  0  0  0  0  0  0  0  0  0
   -0.3559   -1.0533   -1.1339 C   0  0  0  0  0  0  0  0  0  0  0  0
    0.6142   -0.6044   -0.9133 H   0  0  0  0  0  0  0  0  0  0  0  0
   -0.2375   -2.1370   -1.0829 H   0  0  0  0  0  0  0  0  0  0  0  0
   -0.7302   -0.6819   -2.5367 C   0  0  0  0  0  0  0  0  0  0  0  0
   -0.3944   -1.3723   -3.6494 C   0  0  0  0  0  0  0  0  0  0  0  0
    0.2071   -2.2747   -3.6579 H   0  0  0  0  0  0  0  0  0  0  0  0
   -0.9500   -0.7645   -4.7582 N   0  0  0  0  0  0  0  0  0  0  0  0
   -0.8276   -1.1058   -5.7004 H   0  0  0  0  0  0  0  0  0  0  0  0
   -1.6900    0.3457   -4.4111 C   0  0  0  0  0  0  0  0  0  0  0  0
   -2.4518    1.2597   -5.1531 C   0  0  0  0  0  0  0  0  0  0  0  0
   -2.5332    1.1611   -6.2256 H   0  0  0  0  0  0  0  0  0  0  0  0
   -3.1064    2.3067   -4.4818 C   0  0  0  0  0  0  0  0  0  0  0  0
   -3.6976    3.0217   -5.0377 H   0  0  0  0  0  0  0  0  0  0  0  0
   -2.9860    2.4274   -3.0853 C   0  0  0  0  0  0  0  0  0  0  0  0
   -3.4845    3.2392   -2.5739 H   0  0  0  0  0  0  0  0  0  0  0  0
   -2.2160    1.5040   -2.3499 C   0  0  0  0  0  0  0  0  0  0  0  0
   -2.1210    1.6161   -1.2792 H   0  0  0  0  0  0  0  0  0  0  0  0
   -1.5514    0.4379   -2.9938 C   0  0  0  0  0  0  0  0  0  0  0  0
   -1.7617    0.8549   -0.2106 C   0  0  0  0  0  0  0  0  0  0  0  0
   -2.5726    1.1871   -1.0741 O   0  0  0  0  0  0  0  0  0  0  0  0
   -1.1941    1.7377    0.6223 N   0  0  0  0  0  0  0  0  0  0  0  0
   -0.4976    1.3916    1.2669 H   0  0  0  0  0  0  0  0  0  0  0  0
   -1.4666    3.1722    0.6095 C   0  0  0  0  0  0  0  0  0  0  0  0
   -2.5439    3.3427    0.6539 H   0  0  0  0  0  0  0  0  0  0  0  0
   -0.9893    3.6529    1.4644 H   0  0  0  0  0  0  0  0  0  0  0  0
   -1.0808    3.6095   -0.3129 H   0  0  0  0  0  0  0  0  0  0  0  0
  5  6  2  0  0  0  0
  5  7  1  0  0  0  0
  2  3  1  0  0  0  0
  2  4  1  0  0  0  0
  2  5  1  0  0  0  0
  1  2  1  0  0  0  0
 29 30  2  0  0  0  0
 29 31  1  0  0  0  0
 26 27  1  0  0  0  0
 26 28  2  0  0  0  0
 24 25  1  0  0  0  0
 24 26  1  0  0  0  0
 22 23  1  0  0  0  0
 22 24  2  0  0  0  0
 20 21  1  0  0  0  0
 20 22  1  0  0  0  0
 19 20  2  0  0  0  0
 19 28  1  0  0  0  0
 17 18  1  0  0  0  0
 17 19  1  0  0  0  0
 15 16  1  0  0  0  0
 15 17  1  0  0  0  0
 14 15  2  0  0  0  0
 14 28  1  0  0  0  0
 11 12  1  0  0  0  0
 11 13  1  0  0  0  0
 11 14  1  0  0  0  0
  9 10  1  0  0  0  0
  9 11  1  0  0  0  0
  9 29  1  0  0  0  0
  7  8  1  0  0  0  0
  7  9  1  0  0  0  0
 33 34  1  0  0  0  0
 33 35  1  0  0  0  0
 33 36  1  0  0  0  0
 31 32  1  0  0  0  0
 31 33  1  0  0  0  0
M  END
$$$$
default_name
  -OEChem-02102213163D

 36 37  0     1  0  0  0  0  0999 V2000
   -4.0843   -4.0736    1.2944 H   0  0  0  0  0  0  0  0  0  0  0  0
   -4.0342   -3.2816    0.5484 C   0  0  0  0  0  0  0  0  0  0  0  0
   -4.8842   -2.6126    0.6694 H   0  0  0  0  0  0  0  0  0  0  0  0
   -4.0433   -3.7186   -0.4486 H   0  0  0  0  0  0  0  0  0  0  0  0
   -2.7532   -2.5046    0.7444 C   0  0  0  0  0  0  0  0  0  0  0  0
   -1.9803   -2.8096    1.6434 O   0  0  0  0  0  0  0  0  0  0  0  0
   -2.5332   -1.4966   -0.0966 N   0  0  0  0  0  0  0  0  0  0  0  0
   -3.2312   -1.2816   -0.7936 H   0  0  0  0  0  0  0  0  0  0  0  0
   -1.3593   -0.6196   -0.0536 C   0  0  1  0  0  0  0  0  0  0  0  0
   -0.8788   -0.7266    0.9196 H   0  0  0  0  0  0  0  0  0  0  0  0
   -0.3559   -1.0533   -1.1339 C   0  0  0  0  0  0  0  0  0  0  0  0
    0.6142   -0.6044   -0.9133 H   0  0  0  0  0  0  0  0  0  0  0  0
   -0.2375   -2.1370   -1.0829 H   0  0  0  0  0  0  0  0  0  0  0  0
   -0.7302   -0.6819   -2.5367 C   0  0  0  0  0  0  0  0  0  0  0  0
   -0.6512   -1.4954   -3.6135 C   0  0  0  0  0  0  0  0  0  0  0  0
   -0.2862   -2.5164   -3.5902 H   0  0  0  0  0  0  0  0  0  0  0  0
   -1.1230   -0.8342   -4.7305 N   0  0  0  0  0  0  0  0  0  0  0  0
   -1.1545   -1.2479   -5.6509 H   0  0  0  0  0  0  0  0  0  0  0  0
   -1.5477    0.4411   -4.4238 C   0  0  0  0  0  0  0  0  0  0  0  0
   -2.1192    1.4699   -5.1862 C   0  0  0  0  0  0  0  0  0  0  0  0
   -2.2990    1.3335   -6.2424 H   0  0  0  0  0  0  0  0  0  0  0  0
   -2.4530    2.6814   -4.5569 C   0  0  0  0  0  0  0  0  0  0  0  0
   -2.8937    3.4865   -5.1292 H   0  0  0  0  0  0  0  0  0  0  0  0
   -2.2068    2.8481   -3.1818 C   0  0  0  0  0  0  0  0  0  0  0  0
   -2.4575    3.7848   -2.7035 H   0  0  0  0  0  0  0  0  0  0  0  0
   -1.6301    1.8078   -2.4258 C   0  0  0  0  0  0  0  0  0  0  0  0
   -1.4340    1.9539   -1.3731 H   0  0  0  0  0  0  0  0  0  0  0  0
   -1.2892    0.5768   -3.0269 C   0  0  0  0  0  0  0  0  0  0  0  0
   -1.7617    0.8549   -0.2106 C   0  0  0  0  0  0  0  0  0  0  0  0
   -2.5726    1.1871   -1.0741 O   0  0  0  0  0  0  0  0  0  0  0  0
   -1.1941    1.7377    0.6223 N   0  0  0  0  0  0  0  0  0  0  0  0
   -0.4976    1.3916    1.2669 H   0  0  0  0  0  0  0  0  0  0  0  0
   -1.4666    3.1722    0.6095 C   0  0  0  0  0  0  0  0  0  0  0  0
   -2.5439    3.3427    0.6539 H   0  0  0  0  0  0  0  0  0  0  0  0
   -0.9893    3.6529    1.4644 H   0  0  0  0  0  0  0  0  0  0  0  0
   -1.0808    3.6095   -0.3129 H   0  0  0  0  0  0  0  0  0  0  0  0
  5  6  2  0  0  0  0
  5  7  1  0  0  0  0
  2  3  1  0  0  0  0
  2  4  1  0  0  0  0
  2  5  1  0  0  0  0
  1  2  1  0  0  0  0
 29 30  2  0  0  0  0
 29 31  1  0  0  0  0
 26 27  1  0  0  0  0
 26 28  2  0  0  0  0
 24 25  1  0  0  0  0
 24 26  1  0  0  0  0
 22 23  1  0  0  0  0
 22 24  2  0  0  0  0
 20 21  1  0  0  0  0
 20 22  1  0  0  0  0
 19 20  2  0  0  0  0
 19 28  1  0  0  0  0
 17 18  1  0  0  0  0
 17 19  1  0  0  0  0
 15 16  1  0  0  0  0
 15 17  1  0  0  0  0
 14 15  2  0  0  0  0
 14 28  1  0  0  0  0
 11 12  1  0  0  0  0
 11 13  1  0  0  0  0
 11 14  1  0  0  0  0
  9 10  1  0  0  0  0
  9 11  1  0  0  0  0
  9 29  1  0  0  0  0
  7  8  1  0  0  0  0
  7  9  1  0  0  0  0
 33 34  1  0  0  0  0
 33 35  1  0  0  0  0
 33 36  1  0  0  0  0
 31 32  1  0  0  0  0
 31 33  1  0  0  0  0
M  END
$$$$
default_name
  -OEChem-02102213163D

 36 37  0     1  0  0  0  0  0999 V2000
   -4.0843   -4.0736    1.2944 H   0  0  0  0  0  0  0  0  0  0  0  0
   -4.0342   -3.2816    0.5484 C   0  0  0  0  0  0  0  0  0  0  0  0
   -4.8842   -2.6126    0.6694 H   0  0  0  0  0  0  0  0  0  0  0  0
   -4.0433   -3.7186   -0.4486 H   0  0  0  0  0  0  0  0  0  0  0  0
   -2.7532   -2.5046    0.7444 C   0  0  0  0  0  0  0  0  0  0  0  0
   -1.9803   -2.8096    1.6434 O   0  0  0  0  0  0  0  0  0  0  0  0
   -2.5332   -1.4966   -0.0966 N   0  0  0  0  0  0  0  0  0  0  0  0
   -3.2312   -1.2816   -0.7936 H   0  0  0  0  0  0  0  0  0  0  0  0
   -1.3593   -0.6196   -0.0536 C   0  0  1  0  0  0  0  0  0  0  0  0
   -0.8788   -0.7266    0.9196 H   0  0  0  0  0  0  0  0  0  0  0  0
   -0.3559   -1.0533   -1.1339 C   0  0  0  0  0  0  0  0  0  0  0  0
    0.6142   -0.6044   -0.9133 H   0  0  0  0  0  0  0  0  0  0  0  0
   -0.2375   -2.1370   -1.0829 H   0  0  0  0  0  0  0  0  0  0  0  0
   -0.7302   -0.6819   -2.5367 C   0  0  0  0  0  0  0  0  0  0  0  0
   -0.9268   -1.5498   -3.5544 C   0  0  0  0  0  0  0  0  0  0  0  0
   -0.8169   -2.6260   -3.4776 H   0  0  0  0  0  0  0  0  0  0  0  0
   -1.3053   -0.8578   -4.6881 N   0  0  0  0  0  0  0  0  0  0  0  0
   -1.5014   -1.3028   -5.5728 H   0  0  0  0  0  0  0  0  0  0  0  0
   -1.3880    0.4979   -4.4514 C   0  0  0  0  0  0  0  0  0  0  0  0
   -1.7492    1.5902   -5.2531 C   0  0  0  0  0  0  0  0  0  0  0  0
   -2.0321    1.4421   -6.2849 H   0  0  0  0  0  0  0  0  0  0  0  0
   -1.7359    2.8802   -4.6956 C   0  0  0  0  0  0  0  0  0  0  0  0
   -2.0104    3.7348   -5.2991 H   0  0  0  0  0  0  0  0  0  0  0  0
   -1.3584    3.0594   -3.3522 C   0  0  0  0  0  0  0  0  0  0  0  0
   -1.3416    4.0546   -2.9298 H   0  0  0  0  0  0  0  0  0  0  0  0
   -0.9954    1.9544   -2.5563 C   0  0  0  0  0  0  0  0  0  0  0  0
   -0.6946    2.1076   -1.5296 H   0  0  0  0  0  0  0  0  0  0  0  0
   -1.0044    0.6454   -3.0848 C   0  0  0  0  0  0  0  0  0  0  0  0
   -1.7617    0.8549   -0.2106 C   0  0  0  0  0  0  0  0  0  0  0  0
   -2.5726    1.1871   -1.0741 O   0  0  0  0  0  0  0  0  0  0  0  0
   -1.1941    1.7377    0.6223 N   0  0  0  0  0  0  0  0  0  0  0  0
   -0.4976    1.3916    1.2669 H   0  0  0  0  0  0  0  0  0  0  0  0
   -1.4666    3.1722    0.6095 C   0  0  0  0  0  0  0  0  0  0  0  0
   -2.5439    3.3427    0.6539 H   0  0  0  0  0  0  0  0  0  0  0  0
   -0.9893    3.6529    1.4644 H   0  0  0  0  0  0  0  0  0  0  0  0
   -1.0808    3.6095   -0.3129 H   0  0  0  0  0  0  0  0  0  0  0  0
  5  6  2  0  0  0  0
  5  7  1  0  0  0  0
  2  3  1  0  0  0  0
  2  4  1  0  0  0  0
  2  5  1  0  0  0  0
  1  2  1  0  0  0  0
 29 30  2  0  0  0  0
 29 31  1  0  0  0  0
 26 27  1  0  0  0  0
 26 28  2  0  0  0  0
 24 25  1  0  0  0  0
 24 26  1  0  0  0  0
 22 23  1  0  0  0  0
 22 24  2  0  0  0  0
 20 21  1  0  0  0  0
 20 22  1  0  0  0  0
 19 20  2  0  0  0  0
 19 28  1  0  0  0  0
 17 18  1  0  0  0  0
 17 19  1  0  0  0  0
 15 16  1  0  0  0  0
 15 17  1  0  0  0  0
 14 15  2  0  0  0  0
 14 28  1  0  0  0  0
 11 12  1  0  0  0  0
 11 13  1  0  0  0  0
 11 14  1  0  0  0  0
  9 10  1  0  0  0  0
  9 11  1  0  0  0  0
  9 29  1  0  0  0  0
  7  8  1  0  0  0  0
  7  9  1  0  0  0  0
 33 34  1  0  0  0  0
 33 35  1  0  0  0  0
 33 36  1  0  0  0  0
 31 32  1  0  0  0  0
 31 33  1  0  0  0  0
M  END
$$$$
default_name
  -OEChem-02102213163D

 36 37  0     1  0  0  0  0  0999 V2000
   -4.0843   -4.0736    1.2944 H   0  0  0  0  0  0  0  0  0  0  0  0
   -4.0342   -3.2816    0.5484 C   0  0  0  0  0  0  0  0  0  0  0  0
   -4.8842   -2.6126    0.6694 H   0  0  0  0  0  0  0  0  0  0  0  0
   -4.0433   -3.7186   -0.4486 H   0  0  0  0  0  0  0  0  0  0  0  0
   -2.7532   -2.5046    0.7444 C   0  0  0  0  0  0  0  0  0  0  0  0
   -1.9803   -2.8096    1.6434 O   0  0  0  0  0  0  0  0  0  0  0  0
   -2.5332   -1.4966   -0.0966 N   0  0  0  0  0  0  0  0  0  0  0  0
   -3.2312   -1.2816   -0.7936 H   0  0  0  0  0  0  0  0  0  0  0  0
   -1.3593   -0.6196   -0.0536 C   0  0  1  0  0  0  0  0  0  0  0  0
   -0.8788   -0.7266    0.9196 H   0  0  0  0  0  0  0  0  0  0  0  0
   -0.3559   -1.0533   -1.1339 C   0  0  0  0  0  0  0  0  0  0  0  0
    0.6142   -0.6044   -0.9133 H   0  0  0  0  0  0  0  0  0  0  0  0
   -0.2375   -2.1370   -1.0829 H   0  0  0  0  0  0  0  0  0  0  0  0
   -0.7302   -0.6819   -2.5367 C   0  0  0  0  0  0  0  0  0  0  0  0
   -1.2024   -1.5318   -3.4761 C   0  0  0  0  0  0  0  0  0  0  0  0
   -1.3489   -2.5960   -3.3277 H   0  0  0  0  0  0  0  0  0  0  0  0
   -1.4843   -0.8337   -4.6340 N   0  0  0  0  0  0  0  0  0  0  0  0
   -1.8449   -1.2668   -5.4716 H   0  0  0  0  0  0  0  0  0  0  0  0
   -1.2218    0.5123   -4.4919 C   0  0  0  0  0  0  0  0  0  0  0  0
   -1.3668    1.6124   -5.3492 C   0  0  0  0  0  0  0  0  0  0  0  0
   -1.7508    1.4797   -6.3500 H   0  0  0  0  0  0  0  0  0  0  0  0
   -1.0040    2.8896   -4.8884 C   0  0  0  0  0  0  0  0  0  0  0  0
   -1.1081    3.7497   -5.5359 H   0  0  0  0  0  0  0  0  0  0  0  0
   -0.4987    3.0470   -3.5849 C   0  0  0  0  0  0  0  0  0  0  0  0
   -0.2129    4.0302   -3.2374 H   0  0  0  0  0  0  0  0  0  0  0  0
   -0.3552    1.9338   -2.7326 C   0  0  0  0  0  0  0  0  0  0  0  0
    0.0468    2.0668   -1.7383 H   0  0  0  0  0  0  0  0  0  0  0  0
   -0.7165    0.6389   -3.1633 C   0  0  0  0  0  0  0  0  0  0  0  0
   -1.7617    0.8549   -0.2106 C   0  0  0  0  0  0  0  0  0  0  0  0
   -2.5726    1.1871   -1.0741 O   0  0  0  0  0  0  0  0  0  0  0  0
   -1.1941    1.7377    0.6223 N   0  0  0  0  0  0  0  0  0  0  0  0
   -0.4976    1.3916    1.2669 H   0  0  0  0  0  0  0  0  0  0  0  0
   -1.4666    3.1722    0.6095 C   0  0  0  0  0  0  0  0  0  0  0  0
   -2.5439    3.3427    0.6539 H   0  0  0  0  0  0  0  0  0  0  0  0
   -0.9893    3.6529    1.4644 H   0  0  0  0  0  0  0  0  0  0  0  0
   -1.0808    3.6095   -0.3129 H   0  0  0  0  0  0  0  0  0  0  0  0
  5  6  2  0  0  0  0
  5  7  1  0  0  0  0
  2  3  1  0  0  0  0
  2  4  1  0  0  0  0
  2  5  1  0  0  0  0
  1  2  1  0  0  0  0
 29 30  2  0  0  0  0
 29 31  1  0  0  0  0
 26 27  1  0  0  0  0
 26 28  2  0  0  0  0
 24 25  1  0  0  0  0
 24 26  1  0  0  0  0
 22 23  1  0  0  0  0
 22 24  2  0  0  0  0
 20 21  1  0  0  0  0
 20 22  1  0  0  0  0
 19 20  2  0  0  0  0
 19 28  1  0  0  0  0
 17 18  1  0  0  0  0
 17 19  1  0  0  0  0
 15 16  1  0  0  0  0
 15 17  1  0  0  0  0
 14 15  2  0  0  0  0
 14 28  1  0  0  0  0
 11 12  1  0  0  0  0
 11 13  1  0  0  0  0
 11 14  1  0  0  0  0
  9 10  1  0  0  0  0
  9 11  1  0  0  0  0
  9 29  1  0  0  0  0
  7  8  1  0  0  0  0
  7  9  1  0  0  0  0
 33 34  1  0  0  0  0
 33 35  1  0  0  0  0
 33 36  1  0  0  0  0
 31 32  1  0  0  0  0
 31 33  1  0  0  0  0
M  END
$$$$
default_name
  -OEChem-02102213163D

 36 37  0     1  0  0  0  0  0999 V2000
   -4.0843   -4.0736    1.2944 H   0  0  0  0  0  0  0  0  0  0  0  0
   -4.0342   -3.2816    0.5484 C   0  0  0  0  0  0  0  0  0  0  0  0
   -4.8842   -2.6126    0.6694 H   0  0  0  0  0  0  0  0  0  0  0  0
   -4.0433   -3.7186   -0.4486 H   0  0  0  0  0  0  0  0  0  0  0  0
   -2.7532   -2.5046    0.7444 C   0  0  0  0  0  0  0  0  0  0  0  0
   -1.9803   -2.8096    1.6434 O   0  0  0  0  0  0  0  0  0  0  0  0
   -2.5332   -1.4966   -0.0966 N   0  0  0  0  0  0  0  0  0  0  0  0
   -3.2312   -1.2816   -0.7936 H   0  0  0  0  0  0  0  0  0  0  0  0
   -1.3593   -0.6196   -0.0536 C   0  0  1  0  0  0  0  0  0  0  0  0
   -0.8788   -0.7266    0.9196 H   0  0  0  0  0  0  0  0  0  0  0  0
   -0.3559   -1.0533   -1.1339 C   0  0  0  0  0  0  0  0  0  0  0  0
    0.6142   -0.6044   -0.9133 H   0  0  0  0  0  0  0  0  0  0  0  0
   -0.2375   -2.1370   -1.0829 H   0  0  0  0  0  0  0  0  0  0  0  0
   -0.7302   -0.6819   -2.5367 C   0  0  0  0  0  0  0  0  0  0  0  0
   -1.4591   -1.4425   -3.3839 C   0  0  0  0  0  0  0  0  0  0  0  0
   -1.8459   -2.4285   -3.1508 H   0  0  0  0  0  0  0  0  0  0  0  0
   -1.6479   -0.7636   -4.5718 N   0  0  0  0  0  0  0  0  0  0  0  0
   -2.1614   -1.1422   -5.3542 H   0  0  0  0  0  0  0  0  0  0  0  0
   -1.0603    0.4833   -4.5427 C   0  0  0  0  0  0  0  0  0  0  0  0
   -0.9983    1.5351   -5.4680 C   0  0  0  0  0  0  0  0  0  0  0  0
   -1.4740    1.4436   -6.4334 H   0  0  0  0  0  0  0  0  0  0  0  0
   -0.3072    2.7089   -5.1222 C   0  0  0  0  0  0  0  0  0  0  0  0
   -0.2480    3.5302   -5.8236 H   0  0  0  0  0  0  0  0  0  0  0  0
    0.3139    2.8117   -3.8640 C   0  0  0  0  0  0  0  0  0  0  0  0
    0.8517    3.7134   -3.6053 H   0  0  0  0  0  0  0  0  0  0  0  0
    0.2468    1.7474   -2.9426 C   0  0  0  0  0  0  0  0  0  0  0  0
    0.7397    1.8344   -1.9847 H   0  0  0  0  0  0  0  0  0  0  0  0
   -0.4449    0.5577   -3.2573 C   0  0  0  0  0  0  0  0  0  0  0  0
   -1.7617    0.8549   -0.2106 C   0  0  0  0  0  0  0  0  0  0  0  0
   -2.5726    1.1871   -1.0741 O   0  0  0  0  0  0  0  0  0  0  0  0
   -1.1941    1.7377    0.6223 N   0  0  0  0  0  0  0  0  0  0  0  0
   -0.4976    1.3916    1.2669 H   0  0  0  0  0  0  0  0  0  0  0  0
   -1.4666    3.1722    0.6095 C   0  0  0  0  0  0  0  0  0  0  0  0
   -2.5439    3.3427    0.6539 H   0  0  0  0  0  0  0  0  0  0  0  0
   -0.9893    3.6529    1.4644 H   0  0  0  0  0  0  0  0  0  0  0  0
   -1.0808    3.6095   -0.3129 H   0  0  0  0  0  0  0  0  0  0  0  0
  5  6  2  0  0  0  0
  5  7  1  0  0  0  0
  2  3  1  0  0  0  0
  2  4  1  0  0  0  0
  2  5  1  0  0  0  0
  1  2  1  0  0  0  0
 29 30  2  0  0  0  0
 29 31  1  0  0  0  0
 26 27  1  0  0  0  0
 26 28  2  0  0  0  0
 24 25  1  0  0  0  0
 24 26  1  0  0  0  0
 22 23  1  0  0  0  0
 22 24  2  0  0  0  0
 20 21  1  0  0  0  0
 20 22  1  0  0  0  0
 19 20  2  0  0  0  0
 19 28  1  0  0  0  0
 17 18  1  0  0  0  0
 17 19  1  0  0  0  0
 15 16  1  0  0  0  0
 15 17  1  0  0  0  0
 14 15  2  0  0  0  0
 14 28  1  0  0  0  0
 11 12  1  0  0  0  0
 11 13  1  0  0  0  0
 11 14  1  0  0  0  0
  9 10  1  0  0  0  0
  9 11  1  0  0  0  0
  9 29  1  0  0  0  0
  7  8  1  0  0  0  0
  7  9  1  0  0  0  0
 33 34  1  0  0  0  0
 33 35  1  0  0  0  0
 33 36  1  0  0  0  0
 31 32  1  0  0  0  0
 31 33  1  0  0  0  0
M  END
$$$$
default_name
  -OEChem-02102213163D

 36 37  0     1  0  0  0  0  0999 V2000
   -4.0843   -4.0736    1.2944 H   0  0  0  0  0  0  0  0  0  0  0  0
   -4.0342   -3.2816    0.5484 C   0  0  0  0  0  0  0  0  0  0  0  0
   -4.8842   -2.6126    0.6694 H   0  0  0  0  0  0  0  0  0  0  0  0
   -4.0433   -3.7186   -0.4486 H   0  0  0  0  0  0  0  0  0  0  0  0
   -2.7532   -2.5046    0.7444 C   0  0  0  0  0  0  0  0  0  0  0  0
   -1.9803   -2.8096    1.6434 O   0  0  0  0  0  0  0  0  0  0  0  0
   -2.5332   -1.4966   -0.0966 N   0  0  0  0  0  0  0  0  0  0  0  0
   -3.2312   -1.2816   -0.7936 H   0  0  0  0  0  0  0  0  0  0  0  0
   -1.3593   -0.6196   -0.0536 C   0  0  1  0  0  0  0  0  0  0  0  0
   -0.8788   -0.7266    0.9196 H   0  0  0  0  0  0  0  0  0  0  0  0
   -0.3559   -1.0533   -1.1339 C   0  0  0  0  0  0  0  0  0  0  0  0
    0.6142   -0.6044   -0.9133 H   0  0  0  0  0  0  0  0  0  0  0  0
   -0.2375   -2.1370   -1.0829 H   0  0  0  0  0  0  0  0  0  0  0  0
   -0.7302   -0.6819   -2.5367 C   0  0  0  0  0  0  0  0  0  0  0  0
   -1.6796   -1.2881   -3.2842 C   0  0  0  0  0  0  0  0  0  0  0  0
   -2.2740   -2.1348   -2.9588 H   0  0  0  0  0  0  0  0  0  0  0  0
   -1.7850   -0.6522   -4.5057 N   0  0  0  0  0  0  0  0  0  0  0  0
   -2.4294   -0.9376   -5.2285 H   0  0  0  0  0  0  0  0  0  0  0  0
   -0.9146    0.4128   -4.6002 C   0  0  0  0  0  0  0  0  0  0  0  0
   -0.6688    1.3634   -5.6014 C   0  0  0  0  0  0  0  0  0  0  0  0
   -1.2208    1.3363   -6.5293 H   0  0  0  0  0  0  0  0  0  0  0  0
    0.3072    2.3504   -5.3811 C   0  0  0  0  0  0  0  0  0  0  0  0
    0.5111    3.0911   -6.1424 H   0  0  0  0  0  0  0  0  0  0  0  0
    1.0238    2.3695   -4.1705 C   0  0  0  0  0  0  0  0  0  0  0  0
    1.7796    3.1256   -4.0086 H   0  0  0  0  0  0  0  0  0  0  0  0
    0.7697    1.4079   -3.1720 C   0  0  0  0  0  0  0  0  0  0  0  0
    1.3368    1.4260   -2.2522 H   0  0  0  0  0  0  0  0  0  0  0  0
   -0.2083    0.4075   -3.3602 C   0  0  0  0  0  0  0  0  0  0  0  0
   -1.7617    0.8549   -0.2106 C   0  0  0  0  0  0  0  0  0  0  0  0
   -2.5726    1.1871   -1.0741 O   0  0  0  0  0  0  0  0  0  0  0  0
   -1.1941    1.7377    0.6223 N   0  0  0  0  0  0  0  0  0  0  0  0
   -0.4976    1.3916    1.2669 H   0  0  0  0  0  0  0  0  0  0  0  0
   -1.4666    3.1722    0.6095 C   0  0  0  0  0  0  0  0  0  0  0  0
   -2.5439    3.3427    0.6539 H   0  0  0  0  0  0  0  0  0  0  0  0
   -0.9893    3.6529    1.4644 H   0  0  0  0  0  0  0  0  0  0  0  0
   -1.0808    3.6095   -0.3129 H   0  0  0  0  0  0  0  0  0  0  0  0
  5  6  2  0  0  0  0
  5  7  1  0  0  0  0
  2  3  1  0  0  0  0
  2  4  1  0  0  0  0
  2  5  1  0  0  0  0
  1  2  1  0  0  0  0
 29 30  2  0  0  0  0
 29 31  1  0  0  0  0
 26 27  1  0  0  0  0
 26 28  2  0  0  0  0
 24 25  1  0  0  0  0
 24 26  1  0  0  0  0
 22 23  1  0  0  0  0
 22 24  2  0  0  0  0
 20 21  1  0  0  0  0
 20 22  1  0  0  0  0
 19 20  2  0  0  0  0
 19 28  1  0  0  0  0
 17 18  1  0  0  0  0
 17 19  1  0  0  0  0
 15 16  1  0  0  0  0
 15 17  1  0  0  0  0
 14 15  2  0  0  0  0
 14 28  1  0  0  0  0
 11 12  1  0  0  0  0
 11 13  1  0  0  0  0
 11 14  1  0  0  0  0
  9 10  1  0  0  0  0
  9 11  1  0  0  0  0
  9 29  1  0  0  0  0
  7  8  1  0  0  0  0
  7  9  1  0  0  0  0
 33 34  1  0  0  0  0
 33 35  1  0  0  0  0
 33 36  1  0  0  0  0
 31 32  1  0  0  0  0
 31 33  1  0  0  0  0
M  END
$$$$
default_name
  -OEChem-02102213163D

 36 37  0     1  0  0  0  0  0999 V2000
   -4.0843   -4.0736    1.2944 H   0  0  0  0  0  0  0  0  0  0  0  0
   -4.0342   -3.2816    0.5484 C   0  0  0  0  0  0  0  0  0  0  0  0
   -4.8842   -2.6126    0.6694 H   0  0  0  0  0  0  0  0  0  0  0  0
   -4.0433   -3.7186   -0.4486 H   0  0  0  0  0  0  0  0  0  0  0  0
   -2.7532   -2.5046    0.7444 C   0  0  0  0  0  0  0  0  0  0  0  0
   -1.9803   -2.8096    1.6434 O   0  0  0  0  0  0  0  0  0  0  0  0
   -2.5332   -1.4966   -0.0966 N   0  0  0  0  0  0  0  0  0  0  0  0
   -3.2312   -1.2816   -0.7936 H   0  0  0  0  0  0  0  0  0  0  0  0
   -1.3593   -0.6196   -0.0536 C   0  0  1  0  0  0  0  0  0  0  0  0
   -0.8788   -0.7266    0.9196 H   0  0  0  0  0  0  0  0  0  0  0  0
   -0.3559   -1.0533   -1.1339 C   0  0  0  0  0  0  0  0  0  0  0  0
    0.6142   -0.6044   -0.9133 H   0  0  0  0  0  0  0  0  0  0  0  0
   -0.2375   -2.1370   -1.0829 H   0  0  0  0  0  0  0  0  0  0  0  0
   -0.7302   -0.6819   -2.5367 C   0  0  0  0  0  0  0  0  0  0  0  0
   -1.8488   -1.0791   -3.1837 C   0  0  0  0  0  0  0  0  0  0  0  0
   -2.6041   -1.7350   -2.7649 H   0  0  0  0  0  0  0  0  0  0  0  0
   -1.8862   -0.5071   -4.4403 N   0  0  0  0  0  0  0  0  0  0  0  0
   -2.6306   -0.6669   -5.1031 H   0  0  0  0  0  0  0  0  0  0  0  0
   -0.7946    0.3058   -4.6606 C   0  0  0  0  0  0  0  0  0  0  0  0
   -0.4005    1.1091   -5.7403 C   0  0  0  0  0  0  0  0  0  0  0  0
   -1.0084    1.1652   -6.6314 H   0  0  0  0  0  0  0  0  0  0  0  0
    0.7971    1.8385   -5.6473 C   0  0  0  0  0  0  0  0  0  0  0  0
    1.1175    2.4625   -6.4706 H   0  0  0  0  0  0  0  0  0  0  0  0
    1.5828    1.7506   -4.4836 C   0  0  0  0  0  0  0  0  0  0  0  0
    2.5077    2.3070   -4.4196 H   0  0  0  0  0  0  0  0  0  0  0  0
    1.1779    0.9385   -3.4052 C   0  0  0  0  0  0  0  0  0  0  0  0
    1.7975    0.8696   -2.5224 H   0  0  0  0  0  0  0  0  0  0  0  0
   -0.0228    0.1984   -3.4651 C   0  0  0  0  0  0  0  0  0  0  0  0
   -1.7617    0.8549   -0.2106 C   0  0  0  0  0  0  0  0  0  0  0  0
   -2.5726    1.1871   -1.0741 O   0  0  0  0  0  0  0  0  0  0  0  0
   -1.1941    1.7377    0.6223 N   0  0  0  0  0  0  0  0  0  0  0  0
   -0.4976    1.3916    1.2669 H   0  0  0  0  0  0  0  0  0  0  0  0
   -1.4666    3.1722    0.6095 C   0  0  0  0  0  0  0  0  0  0  0  0
   -2.5439    3.3427    0.6539 H   0  0  0  0  0  0  0  0  0  0  0  0
   -0.9893    3.6529    1.4644 H   0  0  0  0  0  0  0  0  0  0  0  0
   -1.0808    3.6095   -0.3129 H   0  0  0  0  0  0  0  0  0  0  0  0
  5  6  2  0  0  0  0
  5  7  1  0  0  0  0
  2  3  1  0  0  0  0
  2  4  1  0  0  0  0
  2  5  1  0  0  0  0
  1  2  1  0  0  0  0
 29 30  2  0  0  0  0
 29 31  1  0  0  0  0
 26 27  1  0  0  0  0
 26 28  2  0  0  0  0
 24 25  1  0  0  0  0
 24 26  1  0  0  0  0
 22 23  1  0  0  0  0
 22 24  2  0  0  0  0
 20 21  1  0  0  0  0
 20 22  1  0  0  0  0
 19 20  2  0  0  0  0
 19 28  1  0  0  0  0
 17 18  1  0  0  0  0
 17 19  1  0  0  0  0
 15 16  1  0  0  0  0
 15 17  1  0  0  0  0
 14 15  2  0  0  0  0
 14 28  1  0  0  0  0
 11 12  1  0  0  0  0
 11 13  1  0  0  0  0
 11 14  1  0  0  0  0
  9 10  1  0  0  0  0
  9 11  1  0  0  0  0
  9 29  1  0  0  0  0
  7  8  1  0  0  0  0
  7  9  1  0  0  0  0
 33 34  1  0  0  0  0
 33 35  1  0  0  0  0
 33 36  1  0  0  0  0
 31 32  1  0  0  0  0
 31 33  1  0  0  0  0
M  END
$$$$
default_name
  -OEChem-02102213163D

 36 37  0     1  0  0  0  0  0999 V2000
   -4.0843   -4.0736    1.2944 H   0  0  0  0  0  0  0  0  0  0  0  0
   -4.0342   -3.2816    0.5484 C   0  0  0  0  0  0  0  0  0  0  0  0
   -4.8842   -2.6126    0.6694 H   0  0  0  0  0  0  0  0  0  0  0  0
   -4.0433   -3.7186   -0.4486 H   0  0  0  0  0  0  0  0  0  0  0  0
   -2.7532   -2.5046    0.7444 C   0  0  0  0  0  0  0  0  0  0  0  0
   -1.9803   -2.8096    1.6434 O   0  0  0  0  0  0  0  0  0  0  0  0
   -2.5332   -1.4966   -0.0966 N   0  0  0  0  0  0  0  0  0  0  0  0
   -3.2312   -1.2816   -0.7936 H   0  0  0  0  0  0  0  0  0  0  0  0
   -1.3593   -0.6196   -0.0536 C   0  0  1  0  0  0  0  0  0  0  0  0
   -0.8788   -0.7266    0.9196 H   0  0  0  0  0  0  0  0  0  0  0  0
   -0.3559   -1.0533   -1.1339 C   0  0  0  0  0  0  0  0  0  0  0  0
    0.6142   -0.6044   -0.9133 H   0  0  0  0  0  0  0  0  0  0  0  0
   -0.2375   -2.1370   -1.0829 H   0  0  0  0  0  0  0  0  0  0  0  0
   -0.7302   -0.6819   -2.5367 C   0  0  0  0  0  0  0  0  0  0  0  0
   -1.9551   -0.8298   -3.0893 C   0  0  0  0  0  0  0  0  0  0  0  0
   -2.8136   -1.2563   -2.5822 H   0  0  0  0  0  0  0  0  0  0  0  0
   -1.9445   -0.3382   -4.3800 N   0  0  0  0  0  0  0  0  0  0  0  0
   -2.7514   -0.3485   -4.9866 H   0  0  0  0  0  0  0  0  0  0  0  0
   -0.7085    0.1695   -4.7196 C   0  0  0  0  0  0  0  0  0  0  0  0
   -0.2120    0.7895   -5.8752 C   0  0  0  0  0  0  0  0  0  0  0  0
   -0.8512    0.9418   -6.7325 H   0  0  0  0  0  0  0  0  0  0  0  0
    1.1293    1.2082   -5.9029 C   0  0  0  0  0  0  0  0  0  0  0  0
    1.5300    1.6872   -6.7860 H   0  0  0  0  0  0  0  0  0  0  0  0
    1.9526    0.9971   -4.7818 C   0  0  0  0  0  0  0  0  0  0  0  0
    2.9862    1.3133   -4.8104 H   0  0  0  0  0  0  0  0  0  0  0  0
    1.4434    0.3711   -3.6263 C   0  0  0  0  0  0  0  0  0  0  0  0
    2.0904    0.2031   -2.7770 H   0  0  0  0  0  0  0  0  0  0  0  0
    0.0991   -0.0553   -3.5648 C   0  0  0  0  0  0  0  0  0  0  0  0
   -1.7617    0.8549   -0.2106 C   0  0  0  0  0  0  0  0  0  0  0  0
   -2.5726    1.1871   -1.0741 O   0  0  0  0  0  0  0  0  0  0  0  0
   -1.1941    1.7377    0.6223 N   0  0  0  0  0  0  0  0  0  0  0  0
   -0.4976    1.3916    1.2669 H   0  0  0  0  0  0  0  0  0  0  0  0
   -1.4666    3.1722    0.6095 C   0  0  0  0  0  0  0  0  0  0  0  0
   -2.5439    3.3427    0.6539 H   0  0  0  0  0  0  0  0  0  0  0  0
   -0.9893    3.6529    1.4644 H   0  0  0  0  0  0  0  0  0  0  0  0
   -1.0808    3.6095   -0.3129 H   0  0  0  0  0  0  0  0  0  0  0  0
  5  6  2  0  0  0  0
  5  7  1  0  0  0  0
  2  3  1  0  0  0  0
  2  4  1  0  0  0  0
  2  5  1  0  0  0  0
  1  2  1  0  0  0  0
 29 30  2  0  0  0  0
 29 31  1  0  0  0  0
 26 27  1  0  0  0  0
 26 28  2  0  0  0  0
 24 25  1  0  0  0  0
 24 26  1  0  0  0  0
 22 23  1  0  0  0  0
 22 24  2  0  0  0  0
 20 21  1  0  0  0  0
 20 22  1  0  0  0  0
 19 20  2  0  0  0  0
 19 28  1  0  0  0  0
 17 18  1  0  0  0  0
 17 19  1  0  0  0  0
 15 16  1  0  0  0  0
 15 17  1  0  0  0  0
 14 15  2  0  0  0  0
 14 28  1  0  0  0  0
 11 12  1  0  0  0  0
 11 13  1  0  0  0  0
 11 14  1  0  0  0  0
  9 10  1  0  0  0  0
  9 11  1  0  0  0  0
  9 29  1  0  0  0  0
  7  8  1  0  0  0  0
  7  9  1  0  0  0  0
 33 34  1  0  0  0  0
 33 35  1  0  0  0  0
 33 36  1  0  0  0  0
 31 32  1  0  0  0  0
 31 33  1  0  0  0  0
M  END
$$$$
default_name
  -OEChem-02102213163D

 36 37  0     1  0  0  0  0  0999 V2000
   -4.0843   -4.0736    1.2944 H   0  0  0  0  0  0  0  0  0  0  0  0
   -4.0342   -3.2816    0.5484 C   0  0  0  0  0  0  0  0  0  0  0  0
   -4.8842   -2.6126    0.6694 H   0  0  0  0  0  0  0  0  0  0  0  0
   -4.0433   -3.7186   -0.4486 H   0  0  0  0  0  0  0  0  0  0  0  0
   -2.7532   -2.5046    0.7444 C   0  0  0  0  0  0  0  0  0  0  0  0
   -1.9803   -2.8096    1.6434 O   0  0  0  0  0  0  0  0  0  0  0  0
   -2.5332   -1.4966   -0.0966 N   0  0  0  0  0  0  0  0  0  0  0  0
   -3.2312   -1.2816   -0.7936 H   0  0  0  0  0  0  0  0  0  0  0  0
   -1.3593   -0.6196   -0.0536 C   0  0  1  0  0  0  0  0  0  0  0  0
   -0.8788   -0.7266    0.9196 H   0  0  0  0  0  0  0  0  0  0  0  0
   -0.3559   -1.0533   -1.1339 C   0  0  0  0  0  0  0  0  0  0  0  0
    0.6142   -0.6044   -0.9133 H   0  0  0  0  0  0  0  0  0  0  0  0
   -0.2375   -2.1370   -1.0829 H   0  0  0  0  0  0  0  0  0  0  0  0
   -0.7302   -0.6819   -2.5367 C   0  0  0  0  0  0  0  0  0  0  0  0
   -1.9913   -0.5570   -3.0075 C   0  0  0  0  0  0  0  0  0  0  0  0
   -2.8883   -0.7314   -2.4233 H   0  0  0  0  0  0  0  0  0  0  0  0
   -1.9561   -0.1570   -4.3289 N   0  0  0  0  0  0  0  0  0  0  0  0
   -2.7835   -0.0043   -4.8869 H   0  0  0  0  0  0  0  0  0  0  0  0
   -0.6622    0.0131   -4.7734 C   0  0  0  0  0  0  0  0  0  0  0  0
   -0.1160    0.4264   -5.9970 C   0  0  0  0  0  0  0  0  0  0  0  0
   -0.7600    0.6814   -6.8257 H   0  0  0  0  0  0  0  0  0  0  0  0
    1.2810    0.5023   -6.1303 C   0  0  0  0  0  0  0  0  0  0  0  0
    1.7203    0.8181   -7.0669 H   0  0  0  0  0  0  0  0  0  0  0  0
    2.1082    0.1604   -5.0449 C   0  0  0  0  0  0  0  0  0  0  0  0
    3.1827    0.2123   -5.1544 H   0  0  0  0  0  0  0  0  0  0  0  0
    1.5483   -0.2556   -3.8203 C   0  0  0  0  0  0  0  0  0  0  0  0
    2.1955   -0.5281   -2.9987 H   0  0  0  0  0  0  0  0  0  0  0  0
    0.1489   -0.3364   -3.6525 C   0  0  0  0  0  0  0  0  0  0  0  0
   -1.7617    0.8549   -0.2106 C   0  0  0  0  0  0  0  0  0  0  0  0
   -2.5726    1.1871   -1.0741 O   0  0  0  0  0  0  0  0  0  0  0  0
   -1.1941    1.7377    0.6223 N   0  0  0  0  0  0  0  0  0  0  0  0
   -0.4976    1.3916    1.2669 H   0  0  0  0  0  0  0  0  0  0  0  0
   -1.4666    3.1722    0.6095 C   0  0  0  0  0  0  0  0  0  0  0  0
   -2.5439    3.3427    0.6539 H   0  0  0  0  0  0  0  0  0  0  0  0
   -0.9893    3.6529    1.4644 H   0  0  0  0  0  0  0  0  0  0  0  0
   -1.0808    3.6095   -0.3129 H   0  0  0  0  0  0  0  0  0  0  0  0
  5  6  2  0  0  0  0
  5  7  1  0  0  0  0
  2  3  1  0  0  0  0
  2  4  1  0  0  0  0
  2  5  1  0  0  0  0
  1  2  1  0  0  0  0
 29 30  2  0  0  0  0
 29 31  1  0  0  0  0
 26 27  1  0  0  0  0
 26 28  2  0  0  0  0
 24 25  1  0  0  0  0
 24 26  1  0  0  0  0
 22 23  1  0  0  0  0
 22 24  2  0  0  0  0
 20 21  1  0  0  0  0
 20 22  1  0  0  0  0
 19 20  2  0  0  0  0
 19 28  1  0  0  0  0
 17 18  1  0  0  0  0
 17 19  1  0  0  0  0
 15 16  1  0  0  0  0
 15 17  1  0  0  0  0
 14 15  2  0  0  0  0
 14 28  1  0  0  0  0
 11 12  1  0  0  0  0
 11 13  1  0  0  0  0
 11 14  1  0  0  0  0
  9 10  1  0  0  0  0
  9 11  1  0  0  0  0
  9 29  1  0  0  0  0
  7  8  1  0  0  0  0
  7  9  1  0  0  0  0
 33 34  1  0  0  0  0
 33 35  1  0  0  0  0
 33 36  1  0  0  0  0
 31 32  1  0  0  0  0
 31 33  1  0  0  0  0
M  END
$$$$
default_name
  -OEChem-02102213163D

 36 37  0     1  0  0  0  0  0999 V2000
   -4.0843   -4.0736    1.2944 H   0  0  0  0  0  0  0  0  0  0  0  0
   -4.0342   -3.2816    0.5484 C   0  0  0  0  0  0  0  0  0  0  0  0
   -4.8842   -2.6126    0.6694 H   0  0  0  0  0  0  0  0  0  0  0  0
   -4.0433   -3.7186   -0.4486 H   0  0  0  0  0  0  0  0  0  0  0  0
   -2.7532   -2.5046    0.7444 C   0  0  0  0  0  0  0  0  0  0  0  0
   -1.9803   -2.8096    1.6434 O   0  0  0  0  0  0  0  0  0  0  0  0
   -2.5332   -1.4966   -0.0966 N   0  0  0  0  0  0  0  0  0  0  0  0
   -3.2312   -1.2816   -0.7936 H   0  0  0  0  0  0  0  0  0  0  0  0
   -1.3593   -0.6196   -0.0536 C   0  0  1  0  0  0  0  0  0  0  0  0
   -0.8788   -0.7266    0.9196 H   0  0  0  0  0  0  0  0  0  0  0  0
   -0.3559   -1.0533   -1.1339 C   0  0  0  0  0  0  0  0  0  0  0  0
    0.6142   -0.6044   -0.9133 H   0  0  0  0  0  0  0  0  0  0  0  0
   -0.2375   -2.1370   -1.0829 H   0  0  0  0  0  0  0  0  0  0  0  0
   -0.7302   -0.6819   -2.5367 C   0  0  0  0  0  0  0  0  0  0  0  0
   -1.9550   -0.2796   -2.9437 C   0  0  0  0  0  0  0  0  0  0  0  0
   -2.8230   -0.1960   -2.2989 H   0  0  0  0  0  0  0  0  0  0  0  0
   -1.9201    0.0241   -4.2905 N   0  0  0  0  0  0  0  0  0  0  0  0
   -2.7246    0.3425   -4.8108 H   0  0  0  0  0  0  0  0  0  0  0  0
   -0.6588   -0.1527   -4.8182 C   0  0  0  0  0  0  0  0  0  0  0  0
   -0.1190    0.0445   -6.0973 C   0  0  0  0  0  0  0  0  0  0  0  0
   -0.7410    0.4017   -6.9049 H   0  0  0  0  0  0  0  0  0  0  0  0
    1.2420   -0.2309   -6.3140 C   0  0  0  0  0  0  0  0  0  0  0  0
    1.6755   -0.0858   -7.2943 H   0  0  0  0  0  0  0  0  0  0  0  0
    2.0390   -0.7025   -5.2549 C   0  0  0  0  0  0  0  0  0  0  0  0
    3.0836   -0.9210   -5.4280 H   0  0  0  0  0  0  0  0  0  0  0  0
    1.4853   -0.8988   -3.9738 C   0  0  0  0  0  0  0  0  0  0  0  0
    2.1056   -1.2742   -3.1723 H   0  0  0  0  0  0  0  0  0  0  0  0
    0.1233   -0.6256   -3.7222 C   0  0  0  0  0  0  0  0  0  0  0  0
   -1.7617    0.8549   -0.2106 C   0  0  0  0  0  0  0  0  0  0  0  0
   -2.5726    1.1871   -1.0741 O   0  0  0  0  0  0  0  0  0  0  0  0
   -1.1941    1.7377    0.6223 N   0  0  0  0  0  0  0  0  0  0  0  0
   -0.4976    1.3916    1.2669 H   0  0  0  0  0  0  0  0  0  0  0  0
   -1.4666    3.1722    0.6095 C   0  0  0  0  0  0  0  0  0  0  0  0
   -2.5439    3.3427    0.6539 H   0  0  0  0  0  0  0  0  0  0  0  0
   -0.9893    3.6529    1.4644 H   0  0  0  0  0  0  0  0  0  0  0  0
   -1.0808    3.6095   -0.3129 H   0  0  0  0  0  0  0  0  0  0  0  0
  5  6  2  0  0  0  0
  5  7  1  0  0  0  0
  2  3  1  0  0  0  0
  2  4  1  0  0  0  0
  2  5  1  0  0  0  0
  1  2  1  0  0  0  0
 29 30  2  0  0  0  0
 29 31  1  0  0  0  0
 26 27  1  0  0  0  0
 26 28  2  0  0  0  0
 24 25  1  0  0  0  0
 24 26  1  0  0  0  0
 22 23  1  0  0  0  0
 22 24  2  0  0  0  0
 20 21  1  0  0  0  0
 20 22  1  0  0  0  0
 19 20  2  0  0  0  0
 19 28  1  0  0  0  0
 17 18  1  0  0  0  0
 17 19  1  0  0  0  0
 15 16  1  0  0  0  0
 15 17  1  0  0  0  0
 14 15  2  0  0  0  0
 14 28  1  0  0  0  0
 11 12  1  0  0  0  0
 11 13  1  0  0  0  0
 11 14  1  0  0  0  0
  9 10  1  0  0  0  0
  9 11  1  0  0  0  0
  9 29  1  0  0  0  0
  7  8  1  0  0  0  0
  7  9  1  0  0  0  0
 33 34  1  0  0  0  0
 33 35  1  0  0  0  0
 33 36  1  0  0  0  0
 31 32  1  0  0  0  0
 31 33  1  0  0  0  0
M  END
$$$$
default_name
  -OEChem-02102213163D

 36 37  0     1  0  0  0  0  0999 V2000
   -4.0843   -4.0736    1.2944 H   0  0  0  0  0  0  0  0  0  0  0  0
   -4.0342   -3.2816    0.5484 C   0  0  0  0  0  0  0  0  0  0  0  0
   -4.8842   -2.6126    0.6694 H   0  0  0  0  0  0  0  0  0  0  0  0
   -4.0433   -3.7186   -0.4486 H   0  0  0  0  0  0  0  0  0  0  0  0
   -2.7532   -2.5046    0.7444 C   0  0  0  0  0  0  0  0  0  0  0  0
   -1.9803   -2.8096    1.6434 O   0  0  0  0  0  0  0  0  0  0  0  0
   -2.5332   -1.4966   -0.0966 N   0  0  0  0  0  0  0  0  0  0  0  0
   -3.2312   -1.2816   -0.7936 H   0  0  0  0  0  0  0  0  0  0  0  0
   -1.3593   -0.6196   -0.0536 C   0  0  1  0  0  0  0  0  0  0  0  0
   -0.8788   -0.7266    0.9196 H   0  0  0  0  0  0  0  0  0  0  0  0
   -0.3559   -1.0533   -1.1339 C   0  0  0  0  0  0  0  0  0  0  0  0
    0.6142   -0.6044   -0.9133 H   0  0  0  0  0  0  0  0  0  0  0  0
   -0.2375   -2.1370   -1.0829 H   0  0  0  0  0  0  0  0  0  0  0  0
   -0.7302   -0.6819   -2.5367 C   0  0  0  0  0  0  0  0  0  0  0  0
   -1.8486   -0.0162   -2.9023 C   0  0  0  0  0  0  0  0  0  0  0  0
   -2.6223    0.3134   -2.2176 H   0  0  0  0  0  0  0  0  0  0  0  0
   -1.8391    0.1928   -4.2675 N   0  0  0  0  0  0  0  0  0  0  0  0
   -2.5789    0.6681   -4.7634 H   0  0  0  0  0  0  0  0  0  0  0  0
   -0.6985   -0.3165   -4.8510 C   0  0  0  0  0  0  0  0  0  0  0  0
   -0.2209   -0.3301   -6.1693 C   0  0  0  0  0  0  0  0  0  0  0  0
   -0.7954    0.1218   -6.9644 H   0  0  0  0  0  0  0  0  0  0  0  0
    1.0149   -0.9416   -6.4416 C   0  0  0  0  0  0  0  0  0  0  0  0
    1.3987   -0.9627   -7.4526 H   0  0  0  0  0  0  0  0  0  0  0  0
    1.7495   -1.5327   -5.3975 C   0  0  0  0  0  0  0  0  0  0  0  0
    2.6958   -2.0094   -5.6128 H   0  0  0  0  0  0  0  0  0  0  0  0
    1.2588   -1.5148   -4.0764 C   0  0  0  0  0  0  0  0  0  0  0  0
    1.8269   -1.9843   -3.2860 H   0  0  0  0  0  0  0  0  0  0  0  0
    0.0241   -0.9032   -3.7693 C   0  0  0  0  0  0  0  0  0  0  0  0
   -1.7617    0.8549   -0.2106 C   0  0  0  0  0  0  0  0  0  0  0  0
   -2.5726    1.1871   -1.0741 O   0  0  0  0  0  0  0  0  0  0  0  0
   -1.1941    1.7377    0.6223 N   0  0  0  0  0  0  0  0  0  0  0  0
   -0.4976    1.3916    1.2669 H   0  0  0  0  0  0  0  0  0  0  0  0
   -1.4666    3.1722    0.6095 C   0  0  0  0  0  0  0  0  0  0  0  0
   -2.5439    3.3427    0.6539 H   0  0  0  0  0  0  0  0  0  0  0  0
   -0.9893    3.6529    1.4644 H   0  0  0  0  0  0  0  0  0  0  0  0
   -1.0808    3.6095   -0.3129 H   0  0  0  0  0  0  0  0  0  0  0  0
  5  6  2  0  0  0  0
  5  7  1  0  0  0  0
  2  3  1  0  0  0  0
  2  4  1  0  0  0  0
  2  5  1  0  0  0  0
  1  2  1  0  0  0  0
 29 30  2  0  0  0  0
 29 31  1  0  0  0  0
 26 27  1  0  0  0  0
 26 28  2  0  0  0  0
 24 25  1  0  0  0  0
 24 26  1  0  0  0  0
 22 23  1  0  0  0  0
 22 24  2  0  0  0  0
 20 21  1  0  0  0  0
 20 22  1  0  0  0  0
 19 20  2  0  0  0  0
 19 28  1  0  0  0  0
 17 18  1  0  0  0  0
 17 19  1  0  0  0  0
 15 16  1  0  0  0  0
 15 17  1  0  0  0  0
 14 15  2  0  0  0  0
 14 28  1  0  0  0  0
 11 12  1  0  0  0  0
 11 13  1  0  0  0  0
 11 14  1  0  0  0  0
  9 10  1  0  0  0  0
  9 11  1  0  0  0  0
  9 29  1  0  0  0  0
  7  8  1  0  0  0  0
  7  9  1  0  0  0  0
 33 34  1  0  0  0  0
 33 35  1  0  0  0  0
 33 36  1  0  0  0  0
 31 32  1  0  0  0  0
 31 33  1  0  0  0  0
M  END
$$$$
default_name
  -OEChem-02102213163D

 36 37  0     1  0  0  0  0  0999 V2000
   -4.0843   -4.0736    1.2944 H   0  0  0  0  0  0  0  0  0  0  0  0
   -4.0342   -3.2816    0.5484 C   0  0  0  0  0  0  0  0  0  0  0  0
   -4.8842   -2.6126    0.6694 H   0  0  0  0  0  0  0  0  0  0  0  0
   -4.0433   -3.7186   -0.4486 H   0  0  0  0  0  0  0  0  0  0  0  0
   -2.7532   -2.5046    0.7444 C   0  0  0  0  0  0  0  0  0  0  0  0
   -1.9803   -2.8096    1.6434 O   0  0  0  0  0  0  0  0  0  0  0  0
   -2.5332   -1.4966   -0.0966 N   0  0  0  0  0  0  0  0  0  0  0  0
   -3.2312   -1.2816   -0.7936 H   0  0  0  0  0  0  0  0  0  0  0  0
   -1.3593   -0.6196   -0.0536 C   0  0  1  0  0  0  0  0  0  0  0  0
   -0.8788   -0.7266    0.9196 H   0  0  0  0  0  0  0  0  0  0  0  0
   -0.3559   -1.0533   -1.1339 C   0  0  0  0  0  0  0  0  0  0  0  0
    0.6142   -0.6044   -0.9133 H   0  0  0  0  0  0  0  0  0  0  0  0
   -0.2375   -2.1370   -1.0829 H   0  0  0  0  0  0  0  0  0  0  0  0
   -0.7302   -0.6819   -2.5367 C   0  0  0  0  0  0  0  0  0  0  0  0
   -1.6794    0.2151   -2.8862 C   0  0  0  0  0  0  0  0  0  0  0  0
   -2.2999    0.7620   -2.1848 H   0  0  0  0  0  0  0  0  0  0  0  0
   -1.7184    0.3376   -4.2614 N   0  0  0  0  0  0  0  0  0  0  0  0
   -2.3562    0.9504   -4.7481 H   0  0  0  0  0  0  0  0  0  0  0  0
   -0.7786   -0.4672   -4.8695 C   0  0  0  0  0  0  0  0  0  0  0  0
   -0.4146   -0.6719   -6.2081 C   0  0  0  0  0  0  0  0  0  0  0  0
   -0.9197   -0.1391   -7.0004 H   0  0  0  0  0  0  0  0  0  0  0  0
    0.6151   -1.5813   -6.5043 C   0  0  0  0  0  0  0  0  0  0  0  0
    0.9087   -1.7529   -7.5311 H   0  0  0  0  0  0  0  0  0  0  0  0
    1.2597   -2.2738   -5.4630 C   0  0  0  0  0  0  0  0  0  0  0  0
    2.0457   -2.9787   -5.6960 H   0  0  0  0  0  0  0  0  0  0  0  0
    0.8842   -2.0616   -4.1213 C   0  0  0  0  0  0  0  0  0  0  0  0
    1.3784   -2.6101   -3.3320 H   0  0  0  0  0  0  0  0  0  0  0  0
   -0.1421   -1.1504   -3.7904 C   0  0  0  0  0  0  0  0  0  0  0  0
   -1.7617    0.8549   -0.2106 C   0  0  0  0  0  0  0  0  0  0  0  0
   -2.5726    1.1871   -1.0741 O   0  0  0  0  0  0  0  0  0  0  0  0
   -1.1941    1.7377    0.6223 N   0  0  0  0  0  0  0  0  0  0  0  0
   -0.4976    1.3916    1.2669 H   0  0  0  0  0  0  0  0  0  0  0  0
   -1.4666    3.1722    0.6095 C   0  0  0  0  0  0  0  0  0  0  0  0
   -2.5439    3.3427    0.6539 H   0  0  0  0  0  0  0  0  0  0  0  0
   -0.9893    3.6529    1.4644 H   0  0  0  0  0  0  0  0  0  0  0  0
   -1.0808    3.6095   -0.3129 H   0  0  0  0  0  0  0  0  0  0  0  0
  5  6  2  0  0  0  0
  5  7  1  0  0  0  0
  2  3  1  0  0  0  0
  2  4  1  0  0  0  0
  2  5  1  0  0  0  0
  1  2  1  0  0  0  0
 29 30  2  0  0  0  0
 29 31  1  0  0  0  0
 26 27  1  0  0  0  0
 26 28  2  0  0  0  0
 24 25  1  0  0  0  0
 24 26  1  0  0  0  0
 22 23  1  0  0  0  0
 22 24  2  0  0  0  0
 20 21  1  0  0  0  0
 20 22  1  0  0  0  0
 19 20  2  0  0  0  0
 19 28  1  0  0  0  0
 17 18  1  0  0  0  0
 17 19  1  0  0  0  0
 15 16  1  0  0  0  0
 15 17  1  0  0  0  0
 14 15  2  0  0  0  0
 14 28  1  0  0  0  0
 11 12  1  0  0  0  0
 11 13  1  0  0  0  0
 11 14  1  0  0  0  0
  9 10  1  0  0  0  0
  9 11  1  0  0  0  0
  9 29  1  0  0  0  0
  7  8  1  0  0  0  0
  7  9  1  0  0  0  0
 33 34  1  0  0  0  0
 33 35  1  0  0  0  0
 33 36  1  0  0  0  0
 31 32  1  0  0  0  0
 31 33  1  0  0  0  0
M  END
$$$$
default_name
  -OEChem-02102213163D

 36 37  0     1  0  0  0  0  0999 V2000
   -4.0843   -4.0736    1.2944 H   0  0  0  0  0  0  0  0  0  0  0  0
   -4.0342   -3.2816    0.5484 C   0  0  0  0  0  0  0  0  0  0  0  0
   -4.8842   -2.6126    0.6694 H   0  0  0  0  0  0  0  0  0  0  0  0
   -4.0433   -3.7186   -0.4486 H   0  0  0  0  0  0  0  0  0  0  0  0
   -2.7532   -2.5046    0.7444 C   0  0  0  0  0  0  0  0  0  0  0  0
   -1.9803   -2.8096    1.6434 O   0  0  0  0  0  0  0  0  0  0  0  0
   -2.5332   -1.4966   -0.0966 N   0  0  0  0  0  0  0  0  0  0  0  0
   -3.2312   -1.2816   -0.7936 H   0  0  0  0  0  0  0  0  0  0  0  0
   -1.3593   -0.6196   -0.0536 C   0  0  1  0  0  0  0  0  0  0  0  0
   -0.8788   -0.7266    0.9196 H   0  0  0  0  0  0  0  0  0  0  0  0
   -0.3559   -1.0533   -1.1339 C   0  0  0  0  0  0  0  0  0  0  0  0
    0.6142   -0.6044   -0.9133 H   0  0  0  0  0  0  0  0  0  0  0  0
   -0.2375   -2.1370   -1.0829 H   0  0  0  0  0  0  0  0  0  0  0  0
   -0.7302   -0.6819   -2.5367 C   0  0  0  0  0  0  0  0  0  0  0  0
   -1.4589    0.3985   -2.8965 C   0  0  0  0  0  0  0  0  0  0  0  0
   -1.8776    1.1194   -2.2029 H   0  0  0  0  0  0  0  0  0  0  0  0
   -1.5663    0.4487   -4.2725 N   0  0  0  0  0  0  0  0  0  0  0  0
   -2.0718    1.1700   -4.7658 H   0  0  0  0  0  0  0  0  0  0  0  0
   -0.8938   -0.5946   -4.8725 C   0  0  0  0  0  0  0  0  0  0  0  0
   -0.6871   -0.9577   -6.2111 C   0  0  0  0  0  0  0  0  0  0  0  0
   -1.1052   -0.3635   -7.0103 H   0  0  0  0  0  0  0  0  0  0  0  0
    0.0700   -2.1064   -6.4979 C   0  0  0  0  0  0  0  0  0  0  0  0
    0.2390   -2.4025   -7.5244 H   0  0  0  0  0  0  0  0  0  0  0  0
    0.6027   -2.8752   -5.4470 C   0  0  0  0  0  0  0  0  0  0  0  0
    1.1776   -3.7629   -5.6720 H   0  0  0  0  0  0  0  0  0  0  0  0
    0.3869   -2.5019   -4.1052 C   0  0  0  0  0  0  0  0  0  0  0  0
    0.7906   -3.1088   -3.3072 H   0  0  0  0  0  0  0  0  0  0  0  0
   -0.3638   -1.3503   -3.7841 C   0  0  0  0  0  0  0  0  0  0  0  0
   -1.7617    0.8549   -0.2106 C   0  0  0  0  0  0  0  0  0  0  0  0
   -2.5726    1.1871   -1.0741 O   0  0  0  0  0  0  0  0  0  0  0  0
   -1.1941    1.7377    0.6223 N   0  0  0  0  0  0  0  0  0  0  0  0
   -0.4976    1.3916    1.2669 H   0  0  0  0  0  0  0  0  0  0  0  0
   -1.4666    3.1722    0.6095 C   0  0  0  0  0  0  0  0  0  0  0  0
   -2.5439    3.3427    0.6539 H   0  0  0  0  0  0  0  0  0  0  0  0
   -0.9893    3.6529    1.4644 H   0  0  0  0  0  0  0  0  0  0  0  0
   -1.0808    3.6095   -0.3129 H   0  0  0  0  0  0  0  0  0  0  0  0
  5  6  2  0  0  0  0
  5  7  1  0  0  0  0
  2  3  1  0  0  0  0
  2  4  1  0  0  0  0
  2  5  1  0  0  0  0
  1  2  1  0  0  0  0
 29 30  2  0  0  0  0
 29 31  1  0  0  0  0
 26 27  1  0  0  0  0
 26 28  2  0  0  0  0
 24 25  1  0  0  0  0
 24 26  1  0  0  0  0
 22 23  1  0  0  0  0
 22 24  2  0  0  0  0
 20 21  1  0  0  0  0
 20 22  1  0  0  0  0
 19 20  2  0  0  0  0
 19 28  1  0  0  0  0
 17 18  1  0  0  0  0
 17 19  1  0  0  0  0
 15 16  1  0  0  0  0
 15 17  1  0  0  0  0
 14 15  2  0  0  0  0
 14 28  1  0  0  0  0
 11 12  1  0  0  0  0
 11 13  1  0  0  0  0
 11 14  1  0  0  0  0
  9 10  1  0  0  0  0
  9 11  1  0  0  0  0
  9 29  1  0  0  0  0
  7  8  1  0  0  0  0
  7  9  1  0  0  0  0
 33 34  1  0  0  0  0
 33 35  1  0  0  0  0
 33 36  1  0  0  0  0
 31 32  1  0  0  0  0
 31 33  1  0  0  0  0
M  END
$$$$
default_name
  -OEChem-02102213163D

 36 37  0     1  0  0  0  0  0999 V2000
   -4.0843   -4.0736    1.2944 H   0  0  0  0  0  0  0  0  0  0  0  0
   -4.0342   -3.2816    0.5484 C   0  0  0  0  0  0  0  0  0  0  0  0
   -4.8842   -2.6126    0.6694 H   0  0  0  0  0  0  0  0  0  0  0  0
   -4.0433   -3.7186   -0.4486 H   0  0  0  0  0  0  0  0  0  0  0  0
   -2.7532   -2.5046    0.7444 C   0  0  0  0  0  0  0  0  0  0  0  0
   -1.9803   -2.8096    1.6434 O   0  0  0  0  0  0  0  0  0  0  0  0
   -2.5332   -1.4966   -0.0966 N   0  0  0  0  0  0  0  0  0  0  0  0
   -3.2312   -1.2816   -0.7936 H   0  0  0  0  0  0  0  0  0  0  0  0
   -1.3593   -0.6196   -0.0536 C   0  0  1  0  0  0  0  0  0  0  0  0
   -0.8788   -0.7266    0.9196 H   0  0  0  0  0  0  0  0  0  0  0  0
   -0.3559   -1.0533   -1.1339 C   0  0  0  0  0  0  0  0  0  0  0  0
    0.6142   -0.6044   -0.9133 H   0  0  0  0  0  0  0  0  0  0  0  0
   -0.2375   -2.1370   -1.0829 H   0  0  0  0  0  0  0  0  0  0  0  0
   -0.7302   -0.6819   -2.5367 C   0  0  0  0  0  0  0  0  0  0  0  0
   -1.2021    0.5216   -2.9324 C   0  0  0  0  0  0  0  0  0  0  0  0
   -1.3843    1.3612   -2.2705 H   0  0  0  0  0  0  0  0  0  0  0  0
   -1.3933    0.5184   -4.3002 N   0  0  0  0  0  0  0  0  0  0  0  0
   -1.7449    1.3122   -4.8154 H   0  0  0  0  0  0  0  0  0  0  0  0
   -1.0361   -0.6899   -4.8598 C   0  0  0  0  0  0  0  0  0  0  0  0
   -1.0197   -1.1679   -6.1780 C   0  0  0  0  0  0  0  0  0  0  0  0
   -1.3393   -0.5358   -6.9935 H   0  0  0  0  0  0  0  0  0  0  0  0
   -0.5834   -2.4812   -6.4228 C   0  0  0  0  0  0  0  0  0  0  0  0
   -0.5649   -2.8673   -7.4330 H   0  0  0  0  0  0  0  0  0  0  0  0
   -0.1765   -3.2959   -5.3504 C   0  0  0  0  0  0  0  0  0  0  0  0
    0.1506   -4.3085   -5.5424 H   0  0  0  0  0  0  0  0  0  0  0  0
   -0.1990   -2.8057   -4.0293 C   0  0  0  0  0  0  0  0  0  0  0  0
    0.1036   -3.4465   -3.2133 H   0  0  0  0  0  0  0  0  0  0  0  0
   -0.6260   -1.4892   -3.7510 C   0  0  0  0  0  0  0  0  0  0  0  0
   -1.7617    0.8549   -0.2106 C   0  0  0  0  0  0  0  0  0  0  0  0
   -2.5726    1.1871   -1.0741 O   0  0  0  0  0  0  0  0  0  0  0  0
   -1.1941    1.7377    0.6223 N   0  0  0  0  0  0  0  0  0  0  0  0
   -0.4976    1.3916    1.2669 H   0  0  0  0  0  0  0  0  0  0  0  0
   -1.4666    3.1722    0.6095 C   0  0  0  0  0  0  0  0  0  0  0  0
   -2.5439    3.3427    0.6539 H   0  0  0  0  0  0  0  0  0  0  0  0
   -0.9893    3.6529    1.4644 H   0  0  0  0  0  0  0  0  0  0  0  0
   -1.0808    3.6095   -0.3129 H   0  0  0  0  0  0  0  0  0  0  0  0
  5  6  2  0  0  0  0
  5  7  1  0  0  0  0
  2  3  1  0  0  0  0
  2  4  1  0  0  0  0
  2  5  1  0  0  0  0
  1  2  1  0  0  0  0
 29 30  2  0  0  0  0
 29 31  1  0  0  0  0
 26 27  1  0  0  0  0
 26 28  2  0  0  0  0
 24 25  1  0  0  0  0
 24 26  1  0  0  0  0
 22 23  1  0  0  0  0
 22 24  2  0  0  0  0
 20 21  1  0  0  0  0
 20 22  1  0  0  0  0
 19 20  2  0  0  0  0
 19 28  1  0  0  0  0
 17 18  1  0  0  0  0
 17 19  1  0  0  0  0
 15 16  1  0  0  0  0
 15 17  1  0  0  0  0
 14 15  2  0  0  0  0
 14 28  1  0  0  0  0
 11 12  1  0  0  0  0
 11 13  1  0  0  0  0
 11 14  1  0  0  0  0
  9 10  1  0  0  0  0
  9 11  1  0  0  0  0
  9 29  1  0  0  0  0
  7  8  1  0  0  0  0
  7  9  1  0  0  0  0
 33 34  1  0  0  0  0
 33 35  1  0  0  0  0
 33 36  1  0  0  0  0
 31 32  1  0  0  0  0
 31 33  1  0  0  0  0
M  END
$$$$
default_name
  -OEChem-02102213163D

 36 37  0     1  0  0  0  0  0999 V2000
   -4.0843   -4.0736    1.2944 H   0  0  0  0  0  0  0  0  0  0  0  0
   -4.0342   -3.2816    0.5484 C   0  0  0  0  0  0  0  0  0  0  0  0
   -4.8842   -2.6126    0.6694 H   0  0  0  0  0  0  0  0  0  0  0  0
   -4.0433   -3.7186   -0.4486 H   0  0  0  0  0  0  0  0  0  0  0  0
   -2.7532   -2.5046    0.7444 C   0  0  0  0  0  0  0  0  0  0  0  0
   -1.9803   -2.8096    1.6434 O   0  0  0  0  0  0  0  0  0  0  0  0
   -2.5332   -1.4966   -0.0966 N   0  0  0  0  0  0  0  0  0  0  0  0
   -3.2312   -1.2816   -0.7936 H   0  0  0  0  0  0  0  0  0  0  0  0
   -1.3593   -0.6196   -0.0536 C   0  0  1  0  0  0  0  0  0  0  0  0
   -0.8788   -0.7266    0.9196 H   0  0  0  0  0  0  0  0  0  0  0  0
   -0.3559   -1.0533   -1.1339 C   0  0  0  0  0  0  0  0  0  0  0  0
    0.6142   -0.6044   -0.9133 H   0  0  0  0  0  0  0  0  0  0  0  0
   -0.2375   -2.1370   -1.0829 H   0  0  0  0  0  0  0  0  0  0  0  0
   -0.7302   -0.6819   -2.5367 C   0  0  0  0  0  0  0  0  0  0  0  0
   -0.9265    0.5760   -2.9916 C   0  0  0  0  0  0  0  0  0  0  0  0
   -0.8535    1.4708   -2.3831 H   0  0  0  0  0  0  0  0  0  0  0  0
   -1.2111    0.5420   -4.3426 N   0  0  0  0  0  0  0  0  0  0  0  0
   -1.3979    1.3671   -4.8935 H   0  0  0  0  0  0  0  0  0  0  0  0
   -1.1958   -0.7468   -4.8322 C   0  0  0  0  0  0  0  0  0  0  0  0
   -1.3898   -1.2882   -6.1111 C   0  0  0  0  0  0  0  0  0  0  0  0
   -1.6062   -0.6445   -6.9510 H   0  0  0  0  0  0  0  0  0  0  0  0
   -1.3004   -2.6800   -6.2841 C   0  0  0  0  0  0  0  0  0  0  0  0
   -1.4481   -3.1156   -7.2631 H   0  0  0  0  0  0  0  0  0  0  0  0
   -1.0249   -3.5073   -5.1800 C   0  0  0  0  0  0  0  0  0  0  0  0
   -0.9653   -4.5783   -5.3161 H   0  0  0  0  0  0  0  0  0  0  0  0
   -0.8336   -2.9523   -3.8988 C   0  0  0  0  0  0  0  0  0  0  0  0
   -0.6358   -3.6003   -3.0567 H   0  0  0  0  0  0  0  0  0  0  0  0
   -0.9108   -1.5578   -3.6931 C   0  0  0  0  0  0  0  0  0  0  0  0
   -1.7617    0.8549   -0.2106 C   0  0  0  0  0  0  0  0  0  0  0  0
   -2.5726    1.1871   -1.0741 O   0  0  0  0  0  0  0  0  0  0  0  0
   -1.1941    1.7377    0.6223 N   0  0  0  0  0  0  0  0  0  0  0  0
   -0.4976    1.3916    1.2669 H   0  0  0  0  0  0  0  0  0  0  0  0
   -1.4666    3.1722    0.6095 C   0  0  0  0  0  0  0  0  0  0  0  0
   -2.5439    3.3427    0.6539 H   0  0  0  0  0  0  0  0  0  0  0  0
   -0.9893    3.6529    1.4644 H   0  0  0  0  0  0  0  0  0  0  0  0
   -1.0808    3.6095   -0.3129 H   0  0  0  0  0  0  0  0  0  0  0  0
  5  6  2  0  0  0  0
  5  7  1  0  0  0  0
  2  3  1  0  0  0  0
  2  4  1  0  0  0  0
  2  5  1  0  0  0  0
  1  2  1  0  0  0  0
 29 30  2  0  0  0  0
 29 31  1  0  0  0  0
 26 27  1  0  0  0  0
 26 28  2  0  0  0  0
 24 25  1  0  0  0  0
 24 26  1  0  0  0  0
 22 23  1  0  0  0  0
 22 24  2  0  0  0  0
 20 21  1  0  0  0  0
 20 22  1  0  0  0  0
 19 20  2  0  0  0  0
 19 28  1  0  0  0  0
 17 18  1  0  0  0  0
 17 19  1  0  0  0  0
 15 16  1  0  0  0  0
 15 17  1  0  0  0  0
 14 15  2  0  0  0  0
 14 28  1  0  0  0  0
 11 12  1  0  0  0  0
 11 13  1  0  0  0  0
 11 14  1  0  0  0  0
  9 10  1  0  0  0  0
  9 11  1  0  0  0  0
  9 29  1  0  0  0  0
  7  8  1  0  0  0  0
  7  9  1  0  0  0  0
 33 34  1  0  0  0  0
 33 35  1  0  0  0  0
 33 36  1  0  0  0  0
 31 32  1  0  0  0  0
 31 33  1  0  0  0  0
M  END
$$$$
default_name
  -OEChem-02102213163D

 36 37  0     1  0  0  0  0  0999 V2000
   -4.0843   -4.0736    1.2944 H   0  0  0  0  0  0  0  0  0  0  0  0
   -4.0342   -3.2816    0.5484 C   0  0  0  0  0  0  0  0  0  0  0  0
   -4.8842   -2.6126    0.6694 H   0  0  0  0  0  0  0  0  0  0  0  0
   -4.0433   -3.7186   -0.4486 H   0  0  0  0  0  0  0  0  0  0  0  0
   -2.7532   -2.5046    0.7444 C   0  0  0  0  0  0  0  0  0  0  0  0
   -1.9803   -2.8096    1.6434 O   0  0  0  0  0  0  0  0  0  0  0  0
   -2.5332   -1.4966   -0.0966 N   0  0  0  0  0  0  0  0  0  0  0  0
   -3.2312   -1.2816   -0.7936 H   0  0  0  0  0  0  0  0  0  0  0  0
   -1.3593   -0.6196   -0.0536 C   0  0  1  0  0  0  0  0  0  0  0  0
   -0.8788   -0.7266    0.9196 H   0  0  0  0  0  0  0  0  0  0  0  0
   -0.3559   -1.0533   -1.1339 C   0  0  0  0  0  0  0  0  0  0  0  0
    0.6142   -0.6044   -0.9133 H   0  0  0  0  0  0  0  0  0  0  0  0
   -0.2375   -2.1370   -1.0829 H   0  0  0  0  0  0  0  0  0  0  0  0
   -0.7302   -0.6819   -2.5367 C   0  0  0  0  0  0  0  0  0  0  0  0
   -0.6509    0.5580   -3.0699 C   0  0  0  0  0  0  0  0  0  0  0  0
   -0.3215    1.4408   -2.5330 H   0  0  0  0  0  0  0  0  0  0  0  0
   -1.0320    0.5179   -4.3968 N   0  0  0  0  0  0  0  0  0  0  0  0
   -1.0545    1.3310   -4.9946 H   0  0  0  0  0  0  0  0  0  0  0  0
   -1.3620   -0.7611   -4.7917 C   0  0  0  0  0  0  0  0  0  0  0  0
   -1.7721   -1.3104   -6.0150 C   0  0  0  0  0  0  0  0  0  0  0  0
   -1.8876   -0.6821   -6.8859 H   0  0  0  0  0  0  0  0  0  0  0  0
   -2.0323   -2.6894   -6.0913 C   0  0  0  0  0  0  0  0  0  0  0  0
   -2.3505   -3.1305   -7.0262 H   0  0  0  0  0  0  0  0  0  0  0  0
   -1.8846   -3.4949   -4.9473 C   0  0  0  0  0  0  0  0  0  0  0  0
   -2.0939   -4.5539   -5.0085 H   0  0  0  0  0  0  0  0  0  0  0  0
   -1.4738   -2.9317   -3.7225 C   0  0  0  0  0  0  0  0  0  0  0  0
   -1.3772   -3.5595   -2.8481 H   0  0  0  0  0  0  0  0  0  0  0  0
   -1.1987   -1.5512   -3.6146 C   0  0  0  0  0  0  0  0  0  0  0  0
   -1.7617    0.8549   -0.2106 C   0  0  0  0  0  0  0  0  0  0  0  0
   -2.5726    1.1871   -1.0741 O   0  0  0  0  0  0  0  0  0  0  0  0
   -1.1941    1.7377    0.6223 N   0  0  0  0  0  0  0  0  0  0  0  0
   -0.4976    1.3916    1.2669 H   0  0  0  0  0  0  0  0  0  0  0  0
   -1.4666    3.1722    0.6095 C   0  0  0  0  0  0  0  0  0  0  0  0
   -2.5439    3.3427    0.6539 H   0  0  0  0  0  0  0  0  0  0  0  0
   -0.9893    3.6529    1.4644 H   0  0  0  0  0  0  0  0  0  0  0  0
   -1.0808    3.6095   -0.3129 H   0  0  0  0  0  0  0  0  0  0  0  0
  5  6  2  0  0  0  0
  5  7  1  0  0  0  0
  2  3  1  0  0  0  0
  2  4  1  0  0  0  0
  2  5  1  0  0  0  0
  1  2  1  0  0  0  0
 29 30  2  0  0  0  0
 29 31  1  0  0  0  0
 26 27  1  0  0  0  0
 26 28  2  0  0  0  0
 24 25  1  0  0  0  0
 24 26  1  0  0  0  0
 22 23  1  0  0  0  0
 22 24  2  0  0  0  0
 20 21  1  0  0  0  0
 20 22  1  0  0  0  0
 19 20  2  0  0  0  0
 19 28  1  0  0  0  0
 17 18  1  0  0  0  0
 17 19  1  0  0  0  0
 15 16  1  0  0  0  0
 15 17  1  0  0  0  0
 14 15  2  0  0  0  0
 14 28  1  0  0  0  0
 11 12  1  0  0  0  0
 11 13  1  0  0  0  0
 11 14  1  0  0  0  0
  9 10  1  0  0  0  0
  9 11  1  0  0  0  0
  9 29  1  0  0  0  0
  7  8  1  0  0  0  0
  7  9  1  0  0  0  0
 33 34  1  0  0  0  0
 33 35  1  0  0  0  0
 33 36  1  0  0  0  0
 31 32  1  0  0  0  0
 31 33  1  0  0  0  0
M  END
$$$$
default_name
  -OEChem-02102213163D

 36 37  0     1  0  0  0  0  0999 V2000
   -4.0843   -4.0736    1.2944 H   0  0  0  0  0  0  0  0  0  0  0  0
   -4.0342   -3.2816    0.5484 C   0  0  0  0  0  0  0  0  0  0  0  0
   -4.8842   -2.6126    0.6694 H   0  0  0  0  0  0  0  0  0  0  0  0
   -4.0433   -3.7186   -0.4486 H   0  0  0  0  0  0  0  0  0  0  0  0
   -2.7532   -2.5046    0.7444 C   0  0  0  0  0  0  0  0  0  0  0  0
   -1.9803   -2.8096    1.6434 O   0  0  0  0  0  0  0  0  0  0  0  0
   -2.5332   -1.4966   -0.0966 N   0  0  0  0  0  0  0  0  0  0  0  0
   -3.2312   -1.2816   -0.7936 H   0  0  0  0  0  0  0  0  0  0  0  0
   -1.3593   -0.6196   -0.0536 C   0  0  1  0  0  0  0  0  0  0  0  0
   -0.8788   -0.7266    0.9196 H   0  0  0  0  0  0  0  0  0  0  0  0
   -0.3559   -1.0533   -1.1339 C   0  0  0  0  0  0  0  0  0  0  0  0
    0.6142   -0.6044   -0.9133 H   0  0  0  0  0  0  0  0  0  0  0  0
   -0.2375   -2.1370   -1.0829 H   0  0  0  0  0  0  0  0  0  0  0  0
   -0.7302   -0.6819   -2.5367 C   0  0  0  0  0  0  0  0  0  0  0  0
   -0.3942    0.4687   -3.1620 C   0  0  0  0  0  0  0  0  0  0  0  0
    0.1754    1.2732   -2.7100 H   0  0  0  0  0  0  0  0  0  0  0  0
   -0.8684    0.4477   -4.4590 N   0  0  0  0  0  0  0  0  0  0  0  0
   -0.7380    1.2064   -5.1121 H   0  0  0  0  0  0  0  0  0  0  0  0
   -1.5235   -0.7321   -4.7409 C   0  0  0  0  0  0  0  0  0  0  0  0
   -2.1406   -1.2331   -5.8962 C   0  0  0  0  0  0  0  0  0  0  0  0
   -2.1643   -0.6460   -6.8025 H   0  0  0  0  0  0  0  0  0  0  0  0
   -2.7292   -2.5086   -5.8575 C   0  0  0  0  0  0  0  0  0  0  0  0
   -3.2106   -2.9109   -6.7386 H   0  0  0  0  0  0  0  0  0  0  0  0
   -2.6972   -3.2596   -4.6682 C   0  0  0  0  0  0  0  0  0  0  0  0
   -3.1585   -4.2370   -4.6405 H   0  0  0  0  0  0  0  0  0  0  0  0
   -2.0759   -2.7453   -3.5125 C   0  0  0  0  0  0  0  0  0  0  0  0
   -2.0701   -3.3270   -2.6017 H   0  0  0  0  0  0  0  0  0  0  0  0
   -1.4703   -1.4701   -3.5206 C   0  0  0  0  0  0  0  0  0  0  0  0
   -1.7617    0.8549   -0.2106 C   0  0  0  0  0  0  0  0  0  0  0  0
   -2.5726    1.1871   -1.0741 O   0  0  0  0  0  0  0  0  0  0  0  0
   -1.1941    1.7377    0.6223 N   0  0  0  0  0  0  0  0  0  0  0  0
   -0.4976    1.3916    1.2669 H   0  0  0  0  0  0  0  0  0  0  0  0
   -1.4666    3.1722    0.6095 C   0  0  0  0  0  0  0  0  0  0  0  0
   -2.5439    3.3427    0.6539 H   0  0  0  0  0  0  0  0  0  0  0  0
   -0.9893    3.6529    1.4644 H   0  0  0  0  0  0  0  0  0  0  0  0
   -1.0808    3.6095   -0.3129 H   0  0  0  0  0  0  0  0  0  0  0  0
  5  6  2  0  0  0  0
  5  7  1  0  0  0  0
  2  3  1  0  0  0  0
  2  4  1  0  0  0  0
  2  5  1  0  0  0  0
  1  2  1  0  0  0  0
 29 30  2  0  0  0  0
 29 31  1  0  0  0  0
 26 27  1  0  0  0  0
 26 28  2  0  0  0  0
 24 25  1  0  0  0  0
 24 26  1  0  0  0  0
 22 23  1  0  0  0  0
 22 24  2  0  0  0  0
 20 21  1  0  0  0  0
 20 22  1  0  0  0  0
 19 20  2  0  0  0  0
 19 28  1  0  0  0  0
 17 18  1  0  0  0  0
 17 19  1  0  0  0  0
 15 16  1  0  0  0  0
 15 17  1  0  0  0  0
 14 15  2  0  0  0  0
 14 28  1  0  0  0  0
 11 12  1  0  0  0  0
 11 13  1  0  0  0  0
 11 14  1  0  0  0  0
  9 10  1  0  0  0  0
  9 11  1  0  0  0  0
  9 29  1  0  0  0  0
  7  8  1  0  0  0  0
  7  9  1  0  0  0  0
 33 34  1  0  0  0  0
 33 35  1  0  0  0  0
 33 36  1  0  0  0  0
 31 32  1  0  0  0  0
 31 33  1  0  0  0  0
M  END
$$$$
default_name
  -OEChem-02102213163D

 36 37  0     1  0  0  0  0  0999 V2000
   -4.0843   -4.0736    1.2944 H   0  0  0  0  0  0  0  0  0  0  0  0
   -4.0342   -3.2816    0.5484 C   0  0  0  0  0  0  0  0  0  0  0  0
   -4.8842   -2.6126    0.6694 H   0  0  0  0  0  0  0  0  0  0  0  0
   -4.0433   -3.7186   -0.4486 H   0  0  0  0  0  0  0  0  0  0  0  0
   -2.7532   -2.5046    0.7444 C   0  0  0  0  0  0  0  0  0  0  0  0
   -1.9803   -2.8096    1.6434 O   0  0  0  0  0  0  0  0  0  0  0  0
   -2.5332   -1.4966   -0.0966 N   0  0  0  0  0  0  0  0  0  0  0  0
   -3.2312   -1.2816   -0.7936 H   0  0  0  0  0  0  0  0  0  0  0  0
   -1.3593   -0.6196   -0.0536 C   0  0  1  0  0  0  0  0  0  0  0  0
   -0.8788   -0.7266    0.9196 H   0  0  0  0  0  0  0  0  0  0  0  0
   -0.3559   -1.0533   -1.1339 C   0  0  0  0  0  0  0  0  0  0  0  0
    0.6142   -0.6044   -0.9133 H   0  0  0  0  0  0  0  0  0  0  0  0
   -0.2375   -2.1370   -1.0829 H   0  0  0  0  0  0  0  0  0  0  0  0
   -0.7302   -0.6819   -2.5367 C   0  0  0  0  0  0  0  0  0  0  0  0
   -0.1737    0.3143   -3.2617 C   0  0  0  0  0  0  0  0  0  0  0  0
    0.6036    0.9796   -2.9019 H   0  0  0  0  0  0  0  0  0  0  0  0
   -0.7313    0.3363   -4.5251 N   0  0  0  0  0  0  0  0  0  0  0  0
   -0.4700    1.0018   -5.2378 H   0  0  0  0  0  0  0  0  0  0  0  0
   -1.6692   -0.6617   -4.6834 C   0  0  0  0  0  0  0  0  0  0  0  0
   -2.4702   -1.0614   -5.7628 C   0  0  0  0  0  0  0  0  0  0  0  0
   -2.4175   -0.5387   -6.7065 H   0  0  0  0  0  0  0  0  0  0  0  0
   -3.3435   -2.1501   -5.5987 C   0  0  0  0  0  0  0  0  0  0  0  0
   -3.9697   -2.4719   -6.4198 H   0  0  0  0  0  0  0  0  0  0  0  0
   -3.4071   -2.8174   -4.3617 C   0  0  0  0  0  0  0  0  0  0  0  0
   -4.0865   -3.6493   -4.2373 H   0  0  0  0  0  0  0  0  0  0  0  0
   -2.5988   -2.4058   -3.2831 C   0  0  0  0  0  0  0  0  0  0  0  0
   -2.6672   -2.9187   -2.3342 H   0  0  0  0  0  0  0  0  0  0  0  0
   -1.7069   -1.3198   -3.4177 C   0  0  0  0  0  0  0  0  0  0  0  0
   -1.7617    0.8549   -0.2106 C   0  0  0  0  0  0  0  0  0  0  0  0
   -2.5726    1.1871   -1.0741 O   0  0  0  0  0  0  0  0  0  0  0  0
   -1.1941    1.7377    0.6223 N   0  0  0  0  0  0  0  0  0  0  0  0
   -0.4976    1.3916    1.2669 H   0  0  0  0  0  0  0  0  0  0  0  0
   -1.4666    3.1722    0.6095 C   0  0  0  0  0  0  0  0  0  0  0  0
   -2.5439    3.3427    0.6539 H   0  0  0  0  0  0  0  0  0  0  0  0
   -0.9893    3.6529    1.4644 H   0  0  0  0  0  0  0  0  0  0  0  0
   -1.0808    3.6095   -0.3129 H   0  0  0  0  0  0  0  0  0  0  0  0
  5  6  2  0  0  0  0
  5  7  1  0  0  0  0
  2  3  1  0  0  0  0
  2  4  1  0  0  0  0
  2  5  1  0  0  0  0
  1  2  1  0  0  0  0
 29 30  2  0  0  0  0
 29 31  1  0  0  0  0
 26 27  1  0  0  0  0
 26 28  2  0  0  0  0
 24 25  1  0  0  0  0
 24 26  1  0  0  0  0
 22 23  1  0  0  0  0
 22 24  2  0  0  0  0
 20 21  1  0  0  0  0
 20 22  1  0  0  0  0
 19 20  2  0  0  0  0
 19 28  1  0  0  0  0
 17 18  1  0  0  0  0
 17 19  1  0  0  0  0
 15 16  1  0  0  0  0
 15 17  1  0  0  0  0
 14 15  2  0  0  0  0
 14 28  1  0  0  0  0
 11 12  1  0  0  0  0
 11 13  1  0  0  0  0
 11 14  1  0  0  0  0
  9 10  1  0  0  0  0
  9 11  1  0  0  0  0
  9 29  1  0  0  0  0
  7  8  1  0  0  0  0
  7  9  1  0  0  0  0
 33 34  1  0  0  0  0
 33 35  1  0  0  0  0
 33 36  1  0  0  0  0
 31 32  1  0  0  0  0
 31 33  1  0  0  0  0
M  END
$$$$
default_name
  -OEChem-02102213163D

 36 37  0     1  0  0  0  0  0999 V2000
   -4.0843   -4.0736    1.2944 H   0  0  0  0  0  0  0  0  0  0  0  0
   -4.0342   -3.2816    0.5484 C   0  0  0  0  0  0  0  0  0  0  0  0
   -4.8842   -2.6126    0.6694 H   0  0  0  0  0  0  0  0  0  0  0  0
   -4.0433   -3.7186   -0.4486 H   0  0  0  0  0  0  0  0  0  0  0  0
   -2.7532   -2.5046    0.7444 C   0  0  0  0  0  0  0  0  0  0  0  0
   -1.9803   -2.8096    1.6434 O   0  0  0  0  0  0  0  0  0  0  0  0
   -2.5332   -1.4966   -0.0966 N   0  0  0  0  0  0  0  0  0  0  0  0
   -3.2312   -1.2816   -0.7936 H   0  0  0  0  0  0  0  0  0  0  0  0
   -1.3593   -0.6196   -0.0536 C   0  0  1  0  0  0  0  0  0  0  0  0
   -0.8788   -0.7266    0.9196 H   0  0  0  0  0  0  0  0  0  0  0  0
   -0.3559   -1.0533   -1.1339 C   0  0  0  0  0  0  0  0  0  0  0  0
    0.6142   -0.6044   -0.9133 H   0  0  0  0  0  0  0  0  0  0  0  0
   -0.2375   -2.1370   -1.0829 H   0  0  0  0  0  0  0  0  0  0  0  0
   -0.7302   -0.6819   -2.5367 C   0  0  0  0  0  0  0  0  0  0  0  0
   -0.0045    0.1053   -3.3622 C   0  0  0  0  0  0  0  0  0  0  0  0
    0.9336    0.5798   -3.0959 H   0  0  0  0  0  0  0  0  0  0  0  0
   -0.6302    0.1912   -4.5905 N   0  0  0  0  0  0  0  0  0  0  0  0
   -0.2687    0.7311   -5.3632 H   0  0  0  0  0  0  0  0  0  0  0  0
   -1.7892   -0.5547   -4.6230 C   0  0  0  0  0  0  0  0  0  0  0  0
   -2.7384   -0.8071   -5.6239 C   0  0  0  0  0  0  0  0  0  0  0  0
   -2.6300   -0.3675   -6.6045 H   0  0  0  0  0  0  0  0  0  0  0  0
   -3.8335   -1.6383   -5.3324 C   0  0  0  0  0  0  0  0  0  0  0  0
   -4.5761   -1.8433   -6.0915 H   0  0  0  0  0  0  0  0  0  0  0  0
   -3.9661   -2.1985   -4.0487 C   0  0  0  0  0  0  0  0  0  0  0  0
   -4.8145   -2.8307   -3.8262 H   0  0  0  0  0  0  0  0  0  0  0  0
   -3.0069   -1.9364   -3.0498 C   0  0  0  0  0  0  0  0  0  0  0  0
   -3.1279   -2.3623   -2.0639 H   0  0  0  0  0  0  0  0  0  0  0  0
   -1.8924   -1.1107   -3.3128 C   0  0  0  0  0  0  0  0  0  0  0  0
   -1.7617    0.8549   -0.2106 C   0  0  0  0  0  0  0  0  0  0  0  0
   -2.5726    1.1871   -1.0741 O   0  0  0  0  0  0  0  0  0  0  0  0
   -1.1941    1.7377    0.6223 N   0  0  0  0  0  0  0  0  0  0  0  0
   -0.4976    1.3916    1.2669 H   0  0  0  0  0  0  0  0  0  0  0  0
   -1.4666    3.1722    0.6095 C   0  0  0  0  0  0  0  0  0  0  0  0
   -2.5439    3.3427    0.6539 H   0  0  0  0  0  0  0  0  0  0  0  0
   -0.9893    3.6529    1.4644 H   0  0  0  0  0  0  0  0  0  0  0  0
   -1.0808    3.6095   -0.3129 H   0  0  0  0  0  0  0  0  0  0  0  0
  5  6  2  0  0  0  0
  5  7  1  0  0  0  0
  2  3  1  0  0  0  0
  2  4  1  0  0  0  0
  2  5  1  0  0  0  0
  1  2  1  0  0  0  0
 29 30  2  0  0  0  0
 29 31  1  0  0  0  0
 26 27  1  0  0  0  0
 26 28  2  0  0  0  0
 24 25  1  0  0  0  0
 24 26  1  0  0  0  0
 22 23  1  0  0  0  0
 22 24  2  0  0  0  0
 20 21  1  0  0  0  0
 20 22  1  0  0  0  0
 19 20  2  0  0  0  0
 19 28  1  0  0  0  0
 17 18  1  0  0  0  0
 17 19  1  0  0  0  0
 15 16  1  0  0  0  0
 15 17  1  0  0  0  0
 14 15  2  0  0  0  0
 14 28  1  0  0  0  0
 11 12  1  0  0  0  0
 11 13  1  0  0  0  0
 11 14  1  0  0  0  0
  9 10  1  0  0  0  0
  9 11  1  0  0  0  0
  9 29  1  0  0  0  0
  7  8  1  0  0  0  0
  7  9  1  0  0  0  0
 33 34  1  0  0  0  0
 33 35  1  0  0  0  0
 33 36  1  0  0  0  0
 31 32  1  0  0  0  0
 31 33  1  0  0  0  0
M  END
$$$$
default_name
  -OEChem-02102213163D

 36 37  0     1  0  0  0  0  0999 V2000
   -4.0843   -4.0736    1.2944 H   0  0  0  0  0  0  0  0  0  0  0  0
   -4.0342   -3.2816    0.5484 C   0  0  0  0  0  0  0  0  0  0  0  0
   -4.8842   -2.6126    0.6694 H   0  0  0  0  0  0  0  0  0  0  0  0
   -4.0433   -3.7186   -0.4486 H   0  0  0  0  0  0  0  0  0  0  0  0
   -2.7532   -2.5046    0.7444 C   0  0  0  0  0  0  0  0  0  0  0  0
   -1.9803   -2.8096    1.6434 O   0  0  0  0  0  0  0  0  0  0  0  0
   -2.5332   -1.4966   -0.0966 N   0  0  0  0  0  0  0  0  0  0  0  0
   -3.2312   -1.2816   -0.7936 H   0  0  0  0  0  0  0  0  0  0  0  0
   -1.3593   -0.6196   -0.0536 C   0  0  1  0  0  0  0  0  0  0  0  0
   -0.8788   -0.7266    0.9196 H   0  0  0  0  0  0  0  0  0  0  0  0
   -0.3559   -1.0533   -1.1339 C   0  0  0  0  0  0  0  0  0  0  0  0
    0.6142   -0.6044   -0.9133 H   0  0  0  0  0  0  0  0  0  0  0  0
   -0.2375   -2.1370   -1.0829 H   0  0  0  0  0  0  0  0  0  0  0  0
   -0.7302   -0.6819   -2.5367 C   0  0  0  0  0  0  0  0  0  0  0  0
    0.1018   -0.1440   -3.4566 C   0  0  0  0  0  0  0  0  0  0  0  0
    1.1431    0.1011   -3.2785 H   0  0  0  0  0  0  0  0  0  0  0  0
   -0.5718    0.0223   -4.6508 N   0  0  0  0  0  0  0  0  0  0  0  0
   -0.1479    0.4128   -5.4797 H   0  0  0  0  0  0  0  0  0  0  0  0
   -1.8753   -0.4184   -4.5640 C   0  0  0  0  0  0  0  0  0  0  0  0
   -2.9269   -0.4875   -5.4889 C   0  0  0  0  0  0  0  0  0  0  0  0
   -2.7871   -0.1441   -6.5034 H   0  0  0  0  0  0  0  0  0  0  0  0
   -4.1656   -1.0079   -5.0769 C   0  0  0  0  0  0  0  0  0  0  0  0
   -4.9886   -1.0680   -5.7762 H   0  0  0  0  0  0  0  0  0  0  0  0
   -4.3359   -1.4450   -3.7505 C   0  0  0  0  0  0  0  0  0  0  0  0
   -5.2931   -1.8370   -3.4354 H   0  0  0  0  0  0  0  0  0  0  0  0
   -3.2725   -1.3690   -2.8288 C   0  0  0  0  0  0  0  0  0  0  0  0
   -3.4208   -1.6958   -1.8093 H   0  0  0  0  0  0  0  0  0  0  0  0
   -2.0143   -0.8570   -3.2131 C   0  0  0  0  0  0  0  0  0  0  0  0
   -1.7617    0.8549   -0.2106 C   0  0  0  0  0  0  0  0  0  0  0  0
   -2.5726    1.1871   -1.0741 O   0  0  0  0  0  0  0  0  0  0  0  0
   -1.1941    1.7377    0.6223 N   0  0  0  0  0  0  0  0  0  0  0  0
   -0.4976    1.3916    1.2669 H   0  0  0  0  0  0  0  0  0  0  0  0
   -1.4666    3.1722    0.6095 C   0  0  0  0  0  0  0  0  0  0  0  0
   -2.5439    3.3427    0.6539 H   0  0  0  0  0  0  0  0  0  0  0  0
   -0.9893    3.6529    1.4644 H   0  0  0  0  0  0  0  0  0  0  0  0
   -1.0808    3.6095   -0.3129 H   0  0  0  0  0  0  0  0  0  0  0  0
  5  6  2  0  0  0  0
  5  7  1  0  0  0  0
  2  3  1  0  0  0  0
  2  4  1  0  0  0  0
  2  5  1  0  0  0  0
  1  2  1  0  0  0  0
 29 30  2  0  0  0  0
 29 31  1  0  0  0  0
 26 27  1  0  0  0  0
 26 28  2  0  0  0  0
 24 25  1  0  0  0  0
 24 26  1  0  0  0  0
 22 23  1  0  0  0  0
 22 24  2  0  0  0  0
 20 21  1  0  0  0  0
 20 22  1  0  0  0  0
 19 20  2  0  0  0  0
 19 28  1  0  0  0  0
 17 18  1  0  0  0  0
 17 19  1  0  0  0  0
 15 16  1  0  0  0  0
 15 17  1  0  0  0  0
 14 15  2  0  0  0  0
 14 28  1  0  0  0  0
 11 12  1  0  0  0  0
 11 13  1  0  0  0  0
 11 14  1  0  0  0  0
  9 10  1  0  0  0  0
  9 11  1  0  0  0  0
  9 29  1  0  0  0  0
  7  8  1  0  0  0  0
  7  9  1  0  0  0  0
 33 34  1  0  0  0  0
 33 35  1  0  0  0  0
 33 36  1  0  0  0  0
 31 32  1  0  0  0  0
 31 33  1  0  0  0  0
M  END
$$$$
default_name
  -OEChem-02102213163D

 36 37  0     1  0  0  0  0  0999 V2000
   -4.0843   -4.0736    1.2944 H   0  0  0  0  0  0  0  0  0  0  0  0
   -4.0342   -3.2816    0.5484 C   0  0  0  0  0  0  0  0  0  0  0  0
   -4.8842   -2.6126    0.6694 H   0  0  0  0  0  0  0  0  0  0  0  0
   -4.0433   -3.7186   -0.4486 H   0  0  0  0  0  0  0  0  0  0  0  0
   -2.7532   -2.5046    0.7444 C   0  0  0  0  0  0  0  0  0  0  0  0
   -1.9803   -2.8096    1.6434 O   0  0  0  0  0  0  0  0  0  0  0  0
   -2.5332   -1.4966   -0.0966 N   0  0  0  0  0  0  0  0  0  0  0  0
   -3.2312   -1.2816   -0.7936 H   0  0  0  0  0  0  0  0  0  0  0  0
   -1.3593   -0.6196   -0.0536 C   0  0  1  0  0  0  0  0  0  0  0  0
   -0.8788   -0.7266    0.9196 H   0  0  0  0  0  0  0  0  0  0  0  0
   -0.3559   -1.0533   -1.1339 C   0  0  0  0  0  0  0  0  0  0  0  0
    0.6142   -0.6044   -0.9133 H   0  0  0  0  0  0  0  0  0  0  0  0
   -0.2375   -2.1370   -1.0829 H   0  0  0  0  0  0  0  0  0  0  0  0
   -0.7302   -0.6819   -2.5367 C   0  0  0  0  0  0  0  0  0  0  0  0
    0.1380   -0.4168   -3.5385 C   0  0  0  0  0  0  0  0  0  0  0  0
    1.2178   -0.4238   -3.4374 H   0  0  0  0  0  0  0  0  0  0  0  0
   -0.5602   -0.1589   -4.7019 N   0  0  0  0  0  0  0  0  0  0  0  0
   -0.1159    0.0685   -5.5794 H   0  0  0  0  0  0  0  0  0  0  0  0
   -1.9216   -0.2620   -4.5102 C   0  0  0  0  0  0  0  0  0  0  0  0
   -3.0230   -0.1243   -5.3672 C   0  0  0  0  0  0  0  0  0  0  0  0
   -2.8783    0.1163   -6.4101 H   0  0  0  0  0  0  0  0  0  0  0  0
   -4.3174   -0.3021   -4.8495 C   0  0  0  0  0  0  0  0  0  0  0  0
   -5.1789   -0.1988   -5.4953 H   0  0  0  0  0  0  0  0  0  0  0  0
   -4.4915   -0.6083   -3.4874 C   0  0  0  0  0  0  0  0  0  0  0  0
   -5.4895   -0.7360   -3.0915 H   0  0  0  0  0  0  0  0  0  0  0  0
   -3.3773   -0.7423   -2.6348 C   0  0  0  0  0  0  0  0  0  0  0  0
   -3.5259   -0.9646   -1.5877 H   0  0  0  0  0  0  0  0  0  0  0  0
   -2.0641   -0.5760   -3.1254 C   0  0  0  0  0  0  0  0  0  0  0  0
   -1.7617    0.8549   -0.2106 C   0  0  0  0  0  0  0  0  0  0  0  0
   -2.5726    1.1871   -1.0741 O   0  0  0  0  0  0  0  0  0  0  0  0
   -1.1941    1.7377    0.6223 N   0  0  0  0  0  0  0  0  0  0  0  0
   -0.4976    1.3916    1.2669 H   0  0  0  0  0  0  0  0  0  0  0  0
   -1.4666    3.1722    0.6095 C   0  0  0  0  0  0  0  0  0  0  0  0
   -2.5439    3.3427    0.6539 H   0  0  0  0  0  0  0  0  0  0  0  0
   -0.9893    3.6529    1.4644 H   0  0  0  0  0  0  0  0  0  0  0  0
   -1.0808    3.6095   -0.3129 H   0  0  0  0  0  0  0  0  0  0  0  0
  5  6  2  0  0  0  0
  5  7  1  0  0  0  0
  2  3  1  0  0  0  0
  2  4  1  0  0  0  0
  2  5  1  0  0  0  0
  1  2  1  0  0  0  0
 29 30  2  0  0  0  0
 29 31  1  0  0  0  0
 26 27  1  0  0  0  0
 26 28  2  0  0  0  0
 24 25  1  0  0  0  0
 24 26  1  0  0  0  0
 22 23  1  0  0  0  0
 22 24  2  0  0  0  0
 20 21  1  0  0  0  0
 20 22  1  0  0  0  0
 19 20  2  0  0  0  0
 19 28  1  0  0  0  0
 17 18  1  0  0  0  0
 17 19  1  0  0  0  0
 15 16  1  0  0  0  0
 15 17  1  0  0  0  0
 14 15  2  0  0  0  0
 14 28  1  0  0  0  0
 11 12  1  0  0  0  0
 11 13  1  0  0  0  0
 11 14  1  0  0  0  0
  9 10  1  0  0  0  0
  9 11  1  0  0  0  0
  9 29  1  0  0  0  0
  7  8  1  0  0  0  0
  7  9  1  0  0  0  0
 33 34  1  0  0  0  0
 33 35  1  0  0  0  0
 33 36  1  0  0  0  0
 31 32  1  0  0  0  0
 31 33  1  0  0  0  0
M  END
$$$$
default_name
  -OEChem-02102213163D

 36 37  0     1  0  0  0  0  0999 V2000
   -4.0843   -4.0736    1.2944 H   0  0  0  0  0  0  0  0  0  0  0  0
   -4.0342   -3.2816    0.5484 C   0  0  0  0  0  0  0  0  0  0  0  0
   -4.8842   -2.6126    0.6694 H   0  0  0  0  0  0  0  0  0  0  0  0
   -4.0433   -3.7186   -0.4486 H   0  0  0  0  0  0  0  0  0  0  0  0
   -2.7532   -2.5046    0.7444 C   0  0  0  0  0  0  0  0  0  0  0  0
   -1.9803   -2.8096    1.6434 O   0  0  0  0  0  0  0  0  0  0  0  0
   -2.5332   -1.4966   -0.0966 N   0  0  0  0  0  0  0  0  0  0  0  0
   -3.2312   -1.2816   -0.7936 H   0  0  0  0  0  0  0  0  0  0  0  0
   -1.3593   -0.6196   -0.0536 C   0  0  1  0  0  0  0  0  0  0  0  0
   -0.8788   -0.7266    0.9196 H   0  0  0  0  0  0  0  0  0  0  0  0
   -0.3559   -1.0533   -1.1339 C   0  0  0  0  0  0  0  0  0  0  0  0
    0.6142   -0.6044   -0.9133 H   0  0  0  0  0  0  0  0  0  0  0  0
   -0.2375   -2.1370   -1.0829 H   0  0  0  0  0  0  0  0  0  0  0  0
   -0.7302   -0.6819   -2.5367 C   0  0  0  0  0  0  0  0  0  0  0  0
    0.1017   -0.6942   -3.6023 C   0  0  0  0  0  0  0  0  0  0  0  0
    1.1526   -0.9592   -3.5618 H   0  0  0  0  0  0  0  0  0  0  0  0
   -0.5962   -0.3400   -4.7402 N   0  0  0  0  0  0  0  0  0  0  0  0
   -0.1747   -0.2782   -5.6555 H   0  0  0  0  0  0  0  0  0  0  0  0
   -1.9250   -0.0962   -4.4654 C   0  0  0  0  0  0  0  0  0  0  0  0
   -3.0200    0.2575   -5.2669 C   0  0  0  0  0  0  0  0  0  0  0  0
   -2.8974    0.3959   -6.3310 H   0  0  0  0  0  0  0  0  0  0  0  0
   -4.2783    0.4312   -4.6657 C   0  0  0  0  0  0  0  0  0  0  0  0
   -5.1341    0.7050   -5.2679 H   0  0  0  0  0  0  0  0  0  0  0  0
   -4.4223    0.2546   -3.2774 C   0  0  0  0  0  0  0  0  0  0  0  0
   -5.3905    0.3973   -2.8178 H   0  0  0  0  0  0  0  0  0  0  0  0
   -3.3144   -0.0990   -2.4813 C   0  0  0  0  0  0  0  0  0  0  0  0
   -3.4360   -0.2185   -1.4141 H   0  0  0  0  0  0  0  0  0  0  0  0
   -2.0385   -0.2868   -3.0557 C   0  0  0  0  0  0  0  0  0  0  0  0
   -1.7617    0.8549   -0.2106 C   0  0  0  0  0  0  0  0  0  0  0  0
   -2.5726    1.1871   -1.0741 O   0  0  0  0  0  0  0  0  0  0  0  0
   -1.1941    1.7377    0.6223 N   0  0  0  0  0  0  0  0  0  0  0  0
   -0.4976    1.3916    1.2669 H   0  0  0  0  0  0  0  0  0  0  0  0
   -1.4666    3.1722    0.6095 C   0  0  0  0  0  0  0  0  0  0  0  0
   -2.5439    3.3427    0.6539 H   0  0  0  0  0  0  0  0  0  0  0  0
   -0.9893    3.6529    1.4644 H   0  0  0  0  0  0  0  0  0  0  0  0
   -1.0808    3.6095   -0.3129 H   0  0  0  0  0  0  0  0  0  0  0  0
  5  6  2  0  0  0  0
  5  7  1  0  0  0  0
  2  3  1  0  0  0  0
  2  4  1  0  0  0  0
  2  5  1  0  0  0  0
  1  2  1  0  0  0  0
 29 30  2  0  0  0  0
 29 31  1  0  0  0  0
 26 27  1  0  0  0  0
 26 28  2  0  0  0  0
 24 25  1  0  0  0  0
 24 26  1  0  0  0  0
 22 23  1  0  0  0  0
 22 24  2  0  0  0  0
 20 21  1  0  0  0  0
 20 22  1  0  0  0  0
 19 20  2  0  0  0  0
 19 28  1  0  0  0  0
 17 18  1  0  0  0  0
 17 19  1  0  0  0  0
 15 16  1  0  0  0  0
 15 17  1  0  0  0  0
 14 15  2  0  0  0  0
 14 28  1  0  0  0  0
 11 12  1  0  0  0  0
 11 13  1  0  0  0  0
 11 14  1  0  0  0  0
  9 10  1  0  0  0  0
  9 11  1  0  0  0  0
  9 29  1  0  0  0  0
  7  8  1  0  0  0  0
  7  9  1  0  0  0  0
 33 34  1  0  0  0  0
 33 35  1  0  0  0  0
 33 36  1  0  0  0  0
 31 32  1  0  0  0  0
 31 33  1  0  0  0  0
M  END
$$$$
default_name
  -OEChem-02102213163D

 36 37  0     1  0  0  0  0  0999 V2000
   -4.0843   -4.0736    1.2944 H   0  0  0  0  0  0  0  0  0  0  0  0
   -4.0342   -3.2816    0.5484 C   0  0  0  0  0  0  0  0  0  0  0  0
   -4.8842   -2.6126    0.6694 H   0  0  0  0  0  0  0  0  0  0  0  0
   -4.0433   -3.7186   -0.4486 H   0  0  0  0  0  0  0  0  0  0  0  0
   -2.7532   -2.5046    0.7444 C   0  0  0  0  0  0  0  0  0  0  0  0
   -1.9803   -2.8096    1.6434 O   0  0  0  0  0  0  0  0  0  0  0  0
   -2.5332   -1.4966   -0.0966 N   0  0  0  0  0  0  0  0  0  0  0  0
   -3.2312   -1.2816   -0.7936 H   0  0  0  0  0  0  0  0  0  0  0  0
   -1.3593   -0.6196   -0.0536 C   0  0  1  0  0  0  0  0  0  0  0  0
   -0.8788   -0.7266    0.9196 H   0  0  0  0  0  0  0  0  0  0  0  0
   -0.3559   -1.0533   -1.1339 C   0  0  0  0  0  0  0  0  0  0  0  0
    0.6546   -0.8368   -0.7825 H   0  0  0  0  0  0  0  0  0  0  0  0
   -0.4347   -2.1336   -1.2674 H   0  0  0  0  0  0  0  0  0  0  0  0
   -0.5332   -0.3955   -2.4687 C   0  0  0  0  0  0  0  0  0  0  0  0
    0.2278   -0.6196   -3.5634 C   0  0  0  0  0  0  0  0  0  0  0  0
    1.0759   -1.2947   -3.5978 H   0  0  0  0  0  0  0  0  0  0  0  0
   -0.2535    0.1235   -4.6234 N   0  0  0  0  0  0  0  0  0  0  0  0
    0.1629    0.1166   -5.5431 H   0  0  0  0  0  0  0  0  0  0  0  0
   -1.3660    0.8554   -4.2665 C   0  0  0  0  0  0  0  0  0  0  0  0
   -2.2118    1.7203   -4.9757 C   0  0  0  0  0  0  0  0  0  0  0  0
   -2.0350    1.9231   -6.0218 H   0  0  0  0  0  0  0  0  0  0  0  0
   -3.2915    2.3207   -4.3058 C   0  0  0  0  0  0  0  0  0  0  0  0
   -3.9539    2.9914   -4.8363 H   0  0  0  0  0  0  0  0  0  0  0  0
   -3.5060    2.0533   -2.9413 C   0  0  0  0  0  0  0  0  0  0  0  0
   -4.3329    2.5239   -2.4277 H   0  0  0  0  0  0  0  0  0  0  0  0
   -2.6482    1.1838   -2.2380 C   0  0  0  0  0  0  0  0  0  0  0  0
   -2.8164    0.9975   -1.1868 H   0  0  0  0  0  0  0  0  0  0  0  0
   -1.5587    0.5602   -2.8837 C   0  0  0  0  0  0  0  0  0  0  0  0
   -1.7617    0.8549   -0.2106 C   0  0  0  0  0  0  0  0  0  0  0  0
   -2.5726    1.1871   -1.0741 O   0  0  0  0  0  0  0  0  0  0  0  0
   -1.1941    1.7377    0.6223 N   0  0  0  0  0  0  0  0  0  0  0  0
   -0.4976    1.3916    1.2669 H   0  0  0  0  0  0  0  0  0  0  0  0
   -1.4666    3.1722    0.6095 C   0  0  0  0  0  0  0  0  0  0  0  0
   -2.5439    3.3427    0.6539 H   0  0  0  0  0  0  0  0  0  0  0  0
   -0.9893    3.6529    1.4644 H   0  0  0  0  0  0  0  0  0  0  0  0
   -1.0808    3.6095   -0.3129 H   0  0  0  0  0  0  0  0  0  0  0  0
  5  6  2  0  0  0  0
  5  7  1  0  0  0  0
  2  3  1  0  0  0  0
  2  4  1  0  0  0  0
  2  5  1  0  0  0  0
  1  2  1  0  0  0  0
 29 30  2  0  0  0  0
 29 31  1  0  0  0  0
 26 27  1  0  0  0  0
 26 28  2  0  0  0  0
 24 25  1  0  0  0  0
 24 26  1  0  0  0  0
 22 23  1  0  0  0  0
 22 24  2  0  0  0  0
 20 21  1  0  0  0  0
 20 22  1  0  0  0  0
 19 20  2  0  0  0  0
 19 28  1  0  0  0  0
 17 18  1  0  0  0  0
 17 19  1  0  0  0  0
 15 16  1  0  0  0  0
 15 17  1  0  0  0  0
 14 15  2  0  0  0  0
 14 28  1  0  0  0  0
 11 12  1  0  0  0  0
 11 13  1  0  0  0  0
 11 14  1  0  0  0  0
  9 10  1  0  0  0  0
  9 11  1  0  0  0  0
  9 29  1  0  0  0  0
  7  8  1  0  0  0  0
  7  9  1  0  0  0  0
 33 34  1  0  0  0  0
 33 35  1  0  0  0  0
 33 36  1  0  0  0  0
 31 32  1  0  0  0  0
 31 33  1  0  0  0  0
M  END
$$$$
default_name
  -OEChem-02102213163D

 36 37  0     1  0  0  0  0  0999 V2000
   -4.0843   -4.0736    1.2944 H   0  0  0  0  0  0  0  0  0  0  0  0
   -4.0342   -3.2816    0.5484 C   0  0  0  0  0  0  0  0  0  0  0  0
   -4.8842   -2.6126    0.6694 H   0  0  0  0  0  0  0  0  0  0  0  0
   -4.0433   -3.7186   -0.4486 H   0  0  0  0  0  0  0  0  0  0  0  0
   -2.7532   -2.5046    0.7444 C   0  0  0  0  0  0  0  0  0  0  0  0
   -1.9803   -2.8096    1.6434 O   0  0  0  0  0  0  0  0  0  0  0  0
   -2.5332   -1.4966   -0.0966 N   0  0  0  0  0  0  0  0  0  0  0  0
   -3.2312   -1.2816   -0.7936 H   0  0  0  0  0  0  0  0  0  0  0  0
   -1.3593   -0.6196   -0.0536 C   0  0  1  0  0  0  0  0  0  0  0  0
   -0.8788   -0.7266    0.9196 H   0  0  0  0  0  0  0  0  0  0  0  0
   -0.3559   -1.0533   -1.1339 C   0  0  0  0  0  0  0  0  0  0  0  0
    0.6546   -0.8368   -0.7825 H   0  0  0  0  0  0  0  0  0  0  0  0
   -0.4347   -2.1336   -1.2674 H   0  0  0  0  0  0  0  0  0  0  0  0
   -0.5332   -0.3955   -2.4687 C   0  0  0  0  0  0  0  0  0  0  0  0
    0.0227   -0.8091   -3.6296 C   0  0  0  0  0  0  0  0  0  0  0  0
    0.6838   -1.6633   -3.7274 H   0  0  0  0  0  0  0  0  0  0  0  0
   -0.3967    0.0069   -4.6618 N   0  0  0  0  0  0  0  0  0  0  0  0
   -0.1036   -0.1124   -5.6205 H   0  0  0  0  0  0  0  0  0  0  0  0
   -1.2626    0.9833   -4.2173 C   0  0  0  0  0  0  0  0  0  0  0  0
   -1.9653    2.0086   -4.8664 C   0  0  0  0  0  0  0  0  0  0  0  0
   -1.8706    2.1467   -5.9334 H   0  0  0  0  0  0  0  0  0  0  0  0
   -2.7928    2.8550   -4.1088 C   0  0  0  0  0  0  0  0  0  0  0  0
   -3.3416    3.6519   -4.5921 H   0  0  0  0  0  0  0  0  0  0  0  0
   -2.9013    2.6683   -2.7186 C   0  0  0  0  0  0  0  0  0  0  0  0
   -3.5326    3.3270   -2.1383 H   0  0  0  0  0  0  0  0  0  0  0  0
   -2.1888    1.6357   -2.0764 C   0  0  0  0  0  0  0  0  0  0  0  0
   -2.2708    1.5117   -1.0059 H   0  0  0  0  0  0  0  0  0  0  0  0
   -1.3542    0.7650   -2.8100 C   0  0  0  0  0  0  0  0  0  0  0  0
   -1.7617    0.8549   -0.2106 C   0  0  0  0  0  0  0  0  0  0  0  0
   -2.5726    1.1871   -1.0741 O   0  0  0  0  0  0  0  0  0  0  0  0
   -1.1941    1.7377    0.6223 N   0  0  0  0  0  0  0  0  0  0  0  0
   -0.4976    1.3916    1.2669 H   0  0  0  0  0  0  0  0  0  0  0  0
   -1.4666    3.1722    0.6095 C   0  0  0  0  0  0  0  0  0  0  0  0
   -2.5439    3.3427    0.6539 H   0  0  0  0  0  0  0  0  0  0  0  0
   -0.9893    3.6529    1.4644 H   0  0  0  0  0  0  0  0  0  0  0  0
   -1.0808    3.6095   -0.3129 H   0  0  0  0  0  0  0  0  0  0  0  0
  5  6  2  0  0  0  0
  5  7  1  0  0  0  0
  2  3  1  0  0  0  0
  2  4  1  0  0  0  0
  2  5  1  0  0  0  0
  1  2  1  0  0  0  0
 29 30  2  0  0  0  0
 29 31  1  0  0  0  0
 26 27  1  0  0  0  0
 26 28  2  0  0  0  0
 24 25  1  0  0  0  0
 24 26  1  0  0  0  0
 22 23  1  0  0  0  0
 22 24  2  0  0  0  0
 20 21  1  0  0  0  0
 20 22  1  0  0  0  0
 19 20  2  0  0  0  0
 19 28  1  0  0  0  0
 17 18  1  0  0  0  0
 17 19  1  0  0  0  0
 15 16  1  0  0  0  0
 15 17  1  0  0  0  0
 14 15  2  0  0  0  0
 14 28  1  0  0  0  0
 11 12  1  0  0  0  0
 11 13  1  0  0  0  0
 11 14  1  0  0  0  0
  9 10  1  0  0  0  0
  9 11  1  0  0  0  0
  9 29  1  0  0  0  0
  7  8  1  0  0  0  0
  7  9  1  0  0  0  0
 33 34  1  0  0  0  0
 33 35  1  0  0  0  0
 33 36  1  0  0  0  0
 31 32  1  0  0  0  0
 31 33  1  0  0  0  0
M  END
$$$$
default_name
  -OEChem-02102213163D

 36 37  0     1  0  0  0  0  0999 V2000
   -4.0843   -4.0736    1.2944 H   0  0  0  0  0  0  0  0  0  0  0  0
   -4.0342   -3.2816    0.5484 C   0  0  0  0  0  0  0  0  0  0  0  0
   -4.8842   -2.6126    0.6694 H   0  0  0  0  0  0  0  0  0  0  0  0
   -4.0433   -3.7186   -0.4486 H   0  0  0  0  0  0  0  0  0  0  0  0
   -2.7532   -2.5046    0.7444 C   0  0  0  0  0  0  0  0  0  0  0  0
   -1.9803   -2.8096    1.6434 O   0  0  0  0  0  0  0  0  0  0  0  0
   -2.5332   -1.4966   -0.0966 N   0  0  0  0  0  0  0  0  0  0  0  0
   -3.2312   -1.2816   -0.7936 H   0  0  0  0  0  0  0  0  0  0  0  0
   -1.3593   -0.6196   -0.0536 C   0  0  1  0  0  0  0  0  0  0  0  0
   -0.8788   -0.7266    0.9196 H   0  0  0  0  0  0  0  0  0  0  0  0
   -0.3559   -1.0533   -1.1339 C   0  0  0  0  0  0  0  0  0  0  0  0
    0.6546   -0.8368   -0.7825 H   0  0  0  0  0  0  0  0  0  0  0  0
   -0.4347   -2.1336   -1.2674 H   0  0  0  0  0  0  0  0  0  0  0  0
   -0.5332   -0.3955   -2.4687 C   0  0  0  0  0  0  0  0  0  0  0  0
   -0.2267   -0.9470   -3.6644 C   0  0  0  0  0  0  0  0  0  0  0  0
    0.2054   -1.9329   -3.7967 H   0  0  0  0  0  0  0  0  0  0  0  0
   -0.5662   -0.0738   -4.6791 N   0  0  0  0  0  0  0  0  0  0  0  0
   -0.4227   -0.2746   -5.6580 H   0  0  0  0  0  0  0  0  0  0  0  0
   -1.1276    1.0846   -4.1853 C   0  0  0  0  0  0  0  0  0  0  0  0
   -1.6482    2.2337   -4.7976 C   0  0  0  0  0  0  0  0  0  0  0  0
   -1.6502    2.3274   -5.8736 H   0  0  0  0  0  0  0  0  0  0  0  0
   -2.1655    3.2621   -3.9915 C   0  0  0  0  0  0  0  0  0  0  0  0
   -2.5703    4.1562   -4.4461 H   0  0  0  0  0  0  0  0  0  0  0  0
   -2.1502    3.1298   -2.5909 C   0  0  0  0  0  0  0  0  0  0  0  0
   -2.5416    3.9270   -1.9743 H   0  0  0  0  0  0  0  0  0  0  0  0
   -1.6226    1.9712   -1.9863 C   0  0  0  0  0  0  0  0  0  0  0  0
   -1.6047    1.8882   -0.9089 H   0  0  0  0  0  0  0  0  0  0  0  0
   -1.1012    0.9178   -2.7683 C   0  0  0  0  0  0  0  0  0  0  0  0
   -1.7617    0.8549   -0.2106 C   0  0  0  0  0  0  0  0  0  0  0  0
   -2.5726    1.1871   -1.0741 O   0  0  0  0  0  0  0  0  0  0  0  0
   -1.1941    1.7377    0.6223 N   0  0  0  0  0  0  0  0  0  0  0  0
   -0.4976    1.3916    1.2669 H   0  0  0  0  0  0  0  0  0  0  0  0
   -1.4666    3.1722    0.6095 C   0  0  0  0  0  0  0  0  0  0  0  0
   -2.5439    3.3427    0.6539 H   0  0  0  0  0  0  0  0  0  0  0  0
   -0.9893    3.6529    1.4644 H   0  0  0  0  0  0  0  0  0  0  0  0
   -1.0808    3.6095   -0.3129 H   0  0  0  0  0  0  0  0  0  0  0  0
  5  6  2  0  0  0  0
  5  7  1  0  0  0  0
  2  3  1  0  0  0  0
  2  4  1  0  0  0  0
  2  5  1  0  0  0  0
  1  2  1  0  0  0  0
 29 30  2  0  0  0  0
 29 31  1  0  0  0  0
 26 27  1  0  0  0  0
 26 28  2  0  0  0  0
 24 25  1  0  0  0  0
 24 26  1  0  0  0  0
 22 23  1  0  0  0  0
 22 24  2  0  0  0  0
 20 21  1  0  0  0  0
 20 22  1  0  0  0  0
 19 20  2  0  0  0  0
 19 28  1  0  0  0  0
 17 18  1  0  0  0  0
 17 19  1  0  0  0  0
 15 16  1  0  0  0  0
 15 17  1  0  0  0  0
 14 15  2  0  0  0  0
 14 28  1  0  0  0  0
 11 12  1  0  0  0  0
 11 13  1  0  0  0  0
 11 14  1  0  0  0  0
  9 10  1  0  0  0  0
  9 11  1  0  0  0  0
  9 29  1  0  0  0  0
  7  8  1  0  0  0  0
  7  9  1  0  0  0  0
 33 34  1  0  0  0  0
 33 35  1  0  0  0  0
 33 36  1  0  0  0  0
 31 32  1  0  0  0  0
 31 33  1  0  0  0  0
M  END
$$$$
default_name
  -OEChem-02102213163D

 36 37  0     1  0  0  0  0  0999 V2000
   -4.0843   -4.0736    1.2944 H   0  0  0  0  0  0  0  0  0  0  0  0
   -4.0342   -3.2816    0.5484 C   0  0  0  0  0  0  0  0  0  0  0  0
   -4.8842   -2.6126    0.6694 H   0  0  0  0  0  0  0  0  0  0  0  0
   -4.0433   -3.7186   -0.4486 H   0  0  0  0  0  0  0  0  0  0  0  0
   -2.7532   -2.5046    0.7444 C   0  0  0  0  0  0  0  0  0  0  0  0
   -1.9803   -2.8096    1.6434 O   0  0  0  0  0  0  0  0  0  0  0  0
   -2.5332   -1.4966   -0.0966 N   0  0  0  0  0  0  0  0  0  0  0  0
   -3.2312   -1.2816   -0.7936 H   0  0  0  0  0  0  0  0  0  0  0  0
   -1.3593   -0.6196   -0.0536 C   0  0  1  0  0  0  0  0  0  0  0  0
   -0.8788   -0.7266    0.9196 H   0  0  0  0  0  0  0  0  0  0  0  0
   -0.3559   -1.0533   -1.1339 C   0  0  0  0  0  0  0  0  0  0  0  0
    0.6546   -0.8368   -0.7825 H   0  0  0  0  0  0  0  0  0  0  0  0
   -0.4347   -2.1336   -1.2674 H   0  0  0  0  0  0  0  0  0  0  0  0
   -0.5332   -0.3955   -2.4687 C   0  0  0  0  0  0  0  0  0  0  0  0
   -0.5032   -1.0237   -3.6654 C   0  0  0  0  0  0  0  0  0  0  0  0
   -0.3267   -2.0852   -3.8010 H   0  0  0  0  0  0  0  0  0  0  0  0
   -0.7506   -0.1132   -4.6740 N   0  0  0  0  0  0  0  0  0  0  0  0
   -0.7725   -0.3588   -5.6530 H   0  0  0  0  0  0  0  0  0  0  0  0
   -0.9702    1.1522   -4.1729 C   0  0  0  0  0  0  0  0  0  0  0  0
   -1.2822    2.3800   -4.7741 C   0  0  0  0  0  0  0  0  0  0  0  0
   -1.3888    2.4530   -5.8464 H   0  0  0  0  0  0  0  0  0  0  0  0
   -1.4525    3.5143   -3.9620 C   0  0  0  0  0  0  0  0  0  0  0  0
   -1.6924    4.4699   -4.4081 H   0  0  0  0  0  0  0  0  0  0  0  0
   -1.3037    3.4063   -2.5671 C   0  0  0  0  0  0  0  0  0  0  0  0
   -1.4274    4.2832   -1.9468 H   0  0  0  0  0  0  0  0  0  0  0  0
   -0.9881    2.1675   -1.9738 C   0  0  0  0  0  0  0  0  0  0  0  0
   -0.8635    2.1013   -0.9023 H   0  0  0  0  0  0  0  0  0  0  0  0
   -0.8168    1.0085   -2.7614 C   0  0  0  0  0  0  0  0  0  0  0  0
   -1.7617    0.8549   -0.2106 C   0  0  0  0  0  0  0  0  0  0  0  0
   -2.5726    1.1871   -1.0741 O   0  0  0  0  0  0  0  0  0  0  0  0
   -1.1941    1.7377    0.6223 N   0  0  0  0  0  0  0  0  0  0  0  0
   -0.4976    1.3916    1.2669 H   0  0  0  0  0  0  0  0  0  0  0  0
   -1.4666    3.1722    0.6095 C   0  0  0  0  0  0  0  0  0  0  0  0
   -2.5439    3.3427    0.6539 H   0  0  0  0  0  0  0  0  0  0  0  0
   -0.9893    3.6529    1.4644 H   0  0  0  0  0  0  0  0  0  0  0  0
   -1.0808    3.6095   -0.3129 H   0  0  0  0  0  0  0  0  0  0  0  0
  5  6  2  0  0  0  0
  5  7  1  0  0  0  0
  2  3  1  0  0  0  0
  2  4  1  0  0  0  0
  2  5  1  0  0  0  0
  1  2  1  0  0  0  0
 29 30  2  0  0  0  0
 29 31  1  0  0  0  0
 26 27  1  0  0  0  0
 26 28  2  0  0  0  0
 24 25  1  0  0  0  0
 24 26  1  0  0  0  0
 22 23  1  0  0  0  0
 22 24  2  0  0  0  0
 20 21  1  0  0  0  0
 20 22  1  0  0  0  0
 19 20  2  0  0  0  0
 19 28  1  0  0  0  0
 17 18  1  0  0  0  0
 17 19  1  0  0  0  0
 15 16  1  0  0  0  0
 15 17  1  0  0  0  0
 14 15  2  0  0  0  0
 14 28  1  0  0  0  0
 11 12  1  0  0  0  0
 11 13  1  0  0  0  0
 11 14  1  0  0  0  0
  9 10  1  0  0  0  0
  9 11  1  0  0  0  0
  9 29  1  0  0  0  0
  7  8  1  0  0  0  0
  7  9  1  0  0  0  0
 33 34  1  0  0  0  0
 33 35  1  0  0  0  0
 33 36  1  0  0  0  0
 31 32  1  0  0  0  0
 31 33  1  0  0  0  0
M  END
$$$$
default_name
  -OEChem-02102213163D

 36 37  0     1  0  0  0  0  0999 V2000
   -4.0843   -4.0736    1.2944 H   0  0  0  0  0  0  0  0  0  0  0  0
   -4.0342   -3.2816    0.5484 C   0  0  0  0  0  0  0  0  0  0  0  0
   -4.8842   -2.6126    0.6694 H   0  0  0  0  0  0  0  0  0  0  0  0
   -4.0433   -3.7186   -0.4486 H   0  0  0  0  0  0  0  0  0  0  0  0
   -2.7532   -2.5046    0.7444 C   0  0  0  0  0  0  0  0  0  0  0  0
   -1.9803   -2.8096    1.6434 O   0  0  0  0  0  0  0  0  0  0  0  0
   -2.5332   -1.4966   -0.0966 N   0  0  0  0  0  0  0  0  0  0  0  0
   -3.2312   -1.2816   -0.7936 H   0  0  0  0  0  0  0  0  0  0  0  0
   -1.3593   -0.6196   -0.0536 C   0  0  1  0  0  0  0  0  0  0  0  0
   -0.8788   -0.7266    0.9196 H   0  0  0  0  0  0  0  0  0  0  0  0
   -0.3559   -1.0533   -1.1339 C   0  0  0  0  0  0  0  0  0  0  0  0
    0.6546   -0.8368   -0.7825 H   0  0  0  0  0  0  0  0  0  0  0  0
   -0.4347   -2.1336   -1.2674 H   0  0  0  0  0  0  0  0  0  0  0  0
   -0.5332   -0.3955   -2.4687 C   0  0  0  0  0  0  0  0  0  0  0  0
   -0.7882   -1.0341   -3.6327 C   0  0  0  0  0  0  0  0  0  0  0  0
   -0.8763   -2.1097   -3.7401 H   0  0  0  0  0  0  0  0  0  0  0  0
   -0.9372   -0.1087   -4.6470 N   0  0  0  0  0  0  0  0  0  0  0  0
   -1.1292   -0.3593   -5.6059 H   0  0  0  0  0  0  0  0  0  0  0  0
   -0.8012    1.1816   -4.1808 C   0  0  0  0  0  0  0  0  0  0  0  0
   -0.8923    2.4378   -4.7975 C   0  0  0  0  0  0  0  0  0  0  0  0
   -1.1043    2.5150   -5.8537 H   0  0  0  0  0  0  0  0  0  0  0  0
   -0.7022    3.5944   -4.0222 C   0  0  0  0  0  0  0  0  0  0  0  0
   -0.7677    4.5718   -4.4808 H   0  0  0  0  0  0  0  0  0  0  0  0
   -0.4197    3.4790   -2.6488 C   0  0  0  0  0  0  0  0  0  0  0  0
   -0.2659    4.3712   -2.0577 H   0  0  0  0  0  0  0  0  0  0  0  0
   -0.3285    2.2112   -2.0399 C   0  0  0  0  0  0  0  0  0  0  0  0
   -0.0977    2.1364   -0.9868 H   0  0  0  0  0  0  0  0  0  0  0  0
   -0.5204    1.0306   -2.7898 C   0  0  0  0  0  0  0  0  0  0  0  0
   -1.7617    0.8549   -0.2106 C   0  0  0  0  0  0  0  0  0  0  0  0
   -2.5726    1.1871   -1.0741 O   0  0  0  0  0  0  0  0  0  0  0  0
   -1.1941    1.7377    0.6223 N   0  0  0  0  0  0  0  0  0  0  0  0
   -0.4976    1.3916    1.2669 H   0  0  0  0  0  0  0  0  0  0  0  0
   -1.4666    3.1722    0.6095 C   0  0  0  0  0  0  0  0  0  0  0  0
   -2.5439    3.3427    0.6539 H   0  0  0  0  0  0  0  0  0  0  0  0
   -0.9893    3.6529    1.4644 H   0  0  0  0  0  0  0  0  0  0  0  0
   -1.0808    3.6095   -0.3129 H   0  0  0  0  0  0  0  0  0  0  0  0
  5  6  2  0  0  0  0
  5  7  1  0  0  0  0
  2  3  1  0  0  0  0
  2  4  1  0  0  0  0
  2  5  1  0  0  0  0
  1  2  1  0  0  0  0
 29 30  2  0  0  0  0
 29 31  1  0  0  0  0
 26 27  1  0  0  0  0
 26 28  2  0  0  0  0
 24 25  1  0  0  0  0
 24 26  1  0  0  0  0
 22 23  1  0  0  0  0
 22 24  2  0  0  0  0
 20 21  1  0  0  0  0
 20 22  1  0  0  0  0
 19 20  2  0  0  0  0
 19 28  1  0  0  0  0
 17 18  1  0  0  0  0
 17 19  1  0  0  0  0
 15 16  1  0  0  0  0
 15 17  1  0  0  0  0
 14 15  2  0  0  0  0
 14 28  1  0  0  0  0
 11 12  1  0  0  0  0
 11 13  1  0  0  0  0
 11 14  1  0  0  0  0
  9 10  1  0  0  0  0
  9 11  1  0  0  0  0
  9 29  1  0  0  0  0
  7  8  1  0  0  0  0
  7  9  1  0  0  0  0
 33 34  1  0  0  0  0
 33 35  1  0  0  0  0
 33 36  1  0  0  0  0
 31 32  1  0  0  0  0
 31 33  1  0  0  0  0
M  END
$$$$
default_name
  -OEChem-02102213163D

 36 37  0     1  0  0  0  0  0999 V2000
   -4.0843   -4.0736    1.2944 H   0  0  0  0  0  0  0  0  0  0  0  0
   -4.0342   -3.2816    0.5484 C   0  0  0  0  0  0  0  0  0  0  0  0
   -4.8842   -2.6126    0.6694 H   0  0  0  0  0  0  0  0  0  0  0  0
   -4.0433   -3.7186   -0.4486 H   0  0  0  0  0  0  0  0  0  0  0  0
   -2.7532   -2.5046    0.7444 C   0  0  0  0  0  0  0  0  0  0  0  0
   -1.9803   -2.8096    1.6434 O   0  0  0  0  0  0  0  0  0  0  0  0
   -2.5332   -1.4966   -0.0966 N   0  0  0  0  0  0  0  0  0  0  0  0
   -3.2312   -1.2816   -0.7936 H   0  0  0  0  0  0  0  0  0  0  0  0
   -1.3593   -0.6196   -0.0536 C   0  0  1  0  0  0  0  0  0  0  0  0
   -0.8788   -0.7266    0.9196 H   0  0  0  0  0  0  0  0  0  0  0  0
   -0.3559   -1.0533   -1.1339 C   0  0  0  0  0  0  0  0  0  0  0  0
    0.6546   -0.8368   -0.7825 H   0  0  0  0  0  0  0  0  0  0  0  0
   -0.4347   -2.1336   -1.2674 H   0  0  0  0  0  0  0  0  0  0  0  0
   -0.5332   -0.3955   -2.4687 C   0  0  0  0  0  0  0  0  0  0  0  0
   -1.0622   -0.9775   -3.5684 C   0  0  0  0  0  0  0  0  0  0  0  0
   -1.4060   -2.0048   -3.6180 H   0  0  0  0  0  0  0  0  0  0  0  0
   -1.1133   -0.0604   -4.5998 N   0  0  0  0  0  0  0  0  0  0  0  0
   -1.4686   -0.2762   -5.5198 H   0  0  0  0  0  0  0  0  0  0  0  0
   -0.6321    1.1709   -4.2086 C   0  0  0  0  0  0  0  0  0  0  0  0
   -0.5050    2.4029   -4.8661 C   0  0  0  0  0  0  0  0  0  0  0  0
   -0.8160    2.5090   -5.8950 H   0  0  0  0  0  0  0  0  0  0  0  0
    0.0341    3.4970   -4.1680 C   0  0  0  0  0  0  0  0  0  0  0  0
    0.1407    4.4548   -4.6591 H   0  0  0  0  0  0  0  0  0  0  0  0
    0.4417    3.3429   -2.8303 C   0  0  0  0  0  0  0  0  0  0  0  0
    0.8637    4.1851   -2.2995 H   0  0  0  0  0  0  0  0  0  0  0  0
    0.3112    2.0994   -2.1801 C   0  0  0  0  0  0  0  0  0  0  0  0
    0.6406    1.9912   -1.1564 H   0  0  0  0  0  0  0  0  0  0  0  0
   -0.2322    0.9829   -2.8517 C   0  0  0  0  0  0  0  0  0  0  0  0
   -1.7617    0.8549   -0.2106 C   0  0  0  0  0  0  0  0  0  0  0  0
   -2.5726    1.1871   -1.0741 O   0  0  0  0  0  0  0  0  0  0  0  0
   -1.1941    1.7377    0.6223 N   0  0  0  0  0  0  0  0  0  0  0  0
   -0.4976    1.3916    1.2669 H   0  0  0  0  0  0  0  0  0  0  0  0
   -1.4666    3.1722    0.6095 C   0  0  0  0  0  0  0  0  0  0  0  0
   -2.5439    3.3427    0.6539 H   0  0  0  0  0  0  0  0  0  0  0  0
   -0.9893    3.6529    1.4644 H   0  0  0  0  0  0  0  0  0  0  0  0
   -1.0808    3.6095   -0.3129 H   0  0  0  0  0  0  0  0  0  0  0  0
  5  6  2  0  0  0  0
  5  7  1  0  0  0  0
  2  3  1  0  0  0  0
  2  4  1  0  0  0  0
  2  5  1  0  0  0  0
  1  2  1  0  0  0  0
 29 30  2  0  0  0  0
 29 31  1  0  0  0  0
 26 27  1  0  0  0  0
 26 28  2  0  0  0  0
 24 25  1  0  0  0  0
 24 26  1  0  0  0  0
 22 23  1  0  0  0  0
 22 24  2  0  0  0  0
 20 21  1  0  0  0  0
 20 22  1  0  0  0  0
 19 20  2  0  0  0  0
 19 28  1  0  0  0  0
 17 18  1  0  0  0  0
 17 19  1  0  0  0  0
 15 16  1  0  0  0  0
 15 17  1  0  0  0  0
 14 15  2  0  0  0  0
 14 28  1  0  0  0  0
 11 12  1  0  0  0  0
 11 13  1  0  0  0  0
 11 14  1  0  0  0  0
  9 10  1  0  0  0  0
  9 11  1  0  0  0  0
  9 29  1  0  0  0  0
  7  8  1  0  0  0  0
  7  9  1  0  0  0  0
 33 34  1  0  0  0  0
 33 35  1  0  0  0  0
 33 36  1  0  0  0  0
 31 32  1  0  0  0  0
 31 33  1  0  0  0  0
M  END
$$$$
default_name
  -OEChem-02102213163D

 36 37  0     1  0  0  0  0  0999 V2000
   -4.0843   -4.0736    1.2944 H   0  0  0  0  0  0  0  0  0  0  0  0
   -4.0342   -3.2816    0.5484 C   0  0  0  0  0  0  0  0  0  0  0  0
   -4.8842   -2.6126    0.6694 H   0  0  0  0  0  0  0  0  0  0  0  0
   -4.0433   -3.7186   -0.4486 H   0  0  0  0  0  0  0  0  0  0  0  0
   -2.7532   -2.5046    0.7444 C   0  0  0  0  0  0  0  0  0  0  0  0
   -1.9803   -2.8096    1.6434 O   0  0  0  0  0  0  0  0  0  0  0  0
   -2.5332   -1.4966   -0.0966 N   0  0  0  0  0  0  0  0  0  0  0  0
   -3.2312   -1.2816   -0.7936 H   0  0  0  0  0  0  0  0  0  0  0  0
   -1.3593   -0.6196   -0.0536 C   0  0  1  0  0  0  0  0  0  0  0  0
   -0.8788   -0.7266    0.9196 H   0  0  0  0  0  0  0  0  0  0  0  0
   -0.3559   -1.0533   -1.1339 C   0  0  0  0  0  0  0  0  0  0  0  0
    0.6546   -0.8368   -0.7825 H   0  0  0  0  0  0  0  0  0  0  0  0
   -0.4347   -2.1336   -1.2674 H   0  0  0  0  0  0  0  0  0  0  0  0
   -0.5332   -0.3955   -2.4687 C   0  0  0  0  0  0  0  0  0  0  0  0
   -1.3064   -0.8576   -3.4769 C   0  0  0  0  0  0  0  0  0  0  0  0
   -1.8795   -1.7777   -3.4432 H   0  0  0  0  0  0  0  0  0  0  0  0
   -1.2669    0.0282   -4.5357 N   0  0  0  0  0  0  0  0  0  0  0  0
   -1.7675   -0.1150   -5.4007 H   0  0  0  0  0  0  0  0  0  0  0  0
   -0.4743    1.1206   -4.2543 C   0  0  0  0  0  0  0  0  0  0  0  0
   -0.1468    2.2779   -4.9753 C   0  0  0  0  0  0  0  0  0  0  0  0
   -0.5437    2.4355   -5.9674 H   0  0  0  0  0  0  0  0  0  0  0  0
    0.7064    3.2287   -4.3895 C   0  0  0  0  0  0  0  0  0  0  0  0
    0.9708    4.1269   -4.9310 H   0  0  0  0  0  0  0  0  0  0  0  0
    1.2218    3.0074   -3.0993 C   0  0  0  0  0  0  0  0  0  0  0  0
    1.8845    3.7375   -2.6557 H   0  0  0  0  0  0  0  0  0  0  0  0
    0.8874    1.8396   -2.3846 C   0  0  0  0  0  0  0  0  0  0  0  0
    1.3009    1.6756   -1.3997 H   0  0  0  0  0  0  0  0  0  0  0  0
    0.0281    0.8684   -2.9427 C   0  0  0  0  0  0  0  0  0  0  0  0
   -1.7617    0.8549   -0.2106 C   0  0  0  0  0  0  0  0  0  0  0  0
   -2.5726    1.1871   -1.0741 O   0  0  0  0  0  0  0  0  0  0  0  0
   -1.1941    1.7377    0.6223 N   0  0  0  0  0  0  0  0  0  0  0  0
   -0.4976    1.3916    1.2669 H   0  0  0  0  0  0  0  0  0  0  0  0
   -1.4666    3.1722    0.6095 C   0  0  0  0  0  0  0  0  0  0  0  0
   -2.5439    3.3427    0.6539 H   0  0  0  0  0  0  0  0  0  0  0  0
   -0.9893    3.6529    1.4644 H   0  0  0  0  0  0  0  0  0  0  0  0
   -1.0808    3.6095   -0.3129 H   0  0  0  0  0  0  0  0  0  0  0  0
  5  6  2  0  0  0  0
  5  7  1  0  0  0  0
  2  3  1  0  0  0  0
  2  4  1  0  0  0  0
  2  5  1  0  0  0  0
  1  2  1  0  0  0  0
 29 30  2  0  0  0  0
 29 31  1  0  0  0  0
 26 27  1  0  0  0  0
 26 28  2  0  0  0  0
 24 25  1  0  0  0  0
 24 26  1  0  0  0  0
 22 23  1  0  0  0  0
 22 24  2  0  0  0  0
 20 21  1  0  0  0  0
 20 22  1  0  0  0  0
 19 20  2  0  0  0  0
 19 28  1  0  0  0  0
 17 18  1  0  0  0  0
 17 19  1  0  0  0  0
 15 16  1  0  0  0  0
 15 17  1  0  0  0  0
 14 15  2  0  0  0  0
 14 28  1  0  0  0  0
 11 12  1  0  0  0  0
 11 13  1  0  0  0  0
 11 14  1  0  0  0  0
  9 10  1  0  0  0  0
  9 11  1  0  0  0  0
  9 29  1  0  0  0  0
  7  8  1  0  0  0  0
  7  9  1  0  0  0  0
 33 34  1  0  0  0  0
 33 35  1  0  0  0  0
 33 36  1  0  0  0  0
 31 32  1  0  0  0  0
 31 33  1  0  0  0  0
M  END
$$$$
default_name
  -OEChem-02102213163D

 36 37  0     1  0  0  0  0  0999 V2000
   -4.0843   -4.0736    1.2944 H   0  0  0  0  0  0  0  0  0  0  0  0
   -4.0342   -3.2816    0.5484 C   0  0  0  0  0  0  0  0  0  0  0  0
   -4.8842   -2.6126    0.6694 H   0  0  0  0  0  0  0  0  0  0  0  0
   -4.0433   -3.7186   -0.4486 H   0  0  0  0  0  0  0  0  0  0  0  0
   -2.7532   -2.5046    0.7444 C   0  0  0  0  0  0  0  0  0  0  0  0
   -1.9803   -2.8096    1.6434 O   0  0  0  0  0  0  0  0  0  0  0  0
   -2.5332   -1.4966   -0.0966 N   0  0  0  0  0  0  0  0  0  0  0  0
   -3.2312   -1.2816   -0.7936 H   0  0  0  0  0  0  0  0  0  0  0  0
   -1.3593   -0.6196   -0.0536 C   0  0  1  0  0  0  0  0  0  0  0  0
   -0.8788   -0.7266    0.9196 H   0  0  0  0  0  0  0  0  0  0  0  0
   -0.3559   -1.0533   -1.1339 C   0  0  0  0  0  0  0  0  0  0  0  0
    0.6546   -0.8368   -0.7825 H   0  0  0  0  0  0  0  0  0  0  0  0
   -0.4347   -2.1336   -1.2674 H   0  0  0  0  0  0  0  0  0  0  0  0
   -0.5332   -0.3955   -2.4687 C   0  0  0  0  0  0  0  0  0  0  0  0
   -1.5043   -0.6828   -3.3644 C   0  0  0  0  0  0  0  0  0  0  0  0
   -2.2647   -1.4438   -3.2275 H   0  0  0  0  0  0  0  0  0  0  0  0
   -1.3876    0.1512   -4.4591 N   0  0  0  0  0  0  0  0  0  0  0  0
   -2.0054    0.1133   -5.2566 H   0  0  0  0  0  0  0  0  0  0  0  0
   -0.3388    1.0343   -4.3149 C   0  0  0  0  0  0  0  0  0  0  0  0
    0.1580    2.0712   -5.1176 C   0  0  0  0  0  0  0  0  0  0  0  0
   -0.3057    2.2994   -6.0660 H   0  0  0  0  0  0  0  0  0  0  0  0
    1.2687    2.8078   -4.6717 C   0  0  0  0  0  0  0  0  0  0  0  0
    1.6663    3.6105   -5.2779 H   0  0  0  0  0  0  0  0  0  0  0  0
    1.8673    2.4952   -3.4375 C   0  0  0  0  0  0  0  0  0  0  0  0
    2.7268    3.0590   -3.1021 H   0  0  0  0  0  0  0  0  0  0  0  0
    1.3608    1.4495   -2.6398 C   0  0  0  0  0  0  0  0  0  0  0  0
    1.8384    1.2111   -1.7000 H   0  0  0  0  0  0  0  0  0  0  0  0
    0.2428    0.6950   -3.0566 C   0  0  0  0  0  0  0  0  0  0  0  0
   -1.7617    0.8549   -0.2106 C   0  0  0  0  0  0  0  0  0  0  0  0
   -2.5726    1.1871   -1.0741 O   0  0  0  0  0  0  0  0  0  0  0  0
   -1.1941    1.7377    0.6223 N   0  0  0  0  0  0  0  0  0  0  0  0
   -0.4976    1.3916    1.2669 H   0  0  0  0  0  0  0  0  0  0  0  0
   -1.4666    3.1722    0.6095 C   0  0  0  0  0  0  0  0  0  0  0  0
   -2.5439    3.3427    0.6539 H   0  0  0  0  0  0  0  0  0  0  0  0
   -0.9893    3.6529    1.4644 H   0  0  0  0  0  0  0  0  0  0  0  0
   -1.0808    3.6095   -0.3129 H   0  0  0  0  0  0  0  0  0  0  0  0
  5  6  2  0  0  0  0
  5  7  1  0  0  0  0
  2  3  1  0  0  0  0
  2  4  1  0  0  0  0
  2  5  1  0  0  0  0
  1  2  1  0  0  0  0
 29 30  2  0  0  0  0
 29 31  1  0  0  0  0
 26 27  1  0  0  0  0
 26 28  2  0  0  0  0
 24 25  1  0  0  0  0
 24 26  1  0  0  0  0
 22 23  1  0  0  0  0
 22 24  2  0  0  0  0
 20 21  1  0  0  0  0
 20 22  1  0  0  0  0
 19 20  2  0  0  0  0
 19 28  1  0  0  0  0
 17 18  1  0  0  0  0
 17 19  1  0  0  0  0
 15 16  1  0  0  0  0
 15 17  1  0  0  0  0
 14 15  2  0  0  0  0
 14 28  1  0  0  0  0
 11 12  1  0  0  0  0
 11 13  1  0  0  0  0
 11 14  1  0  0  0  0
  9 10  1  0  0  0  0
  9 11  1  0  0  0  0
  9 29  1  0  0  0  0
  7  8  1  0  0  0  0
  7  9  1  0  0  0  0
 33 34  1  0  0  0  0
 33 35  1  0  0  0  0
 33 36  1  0  0  0  0
 31 32  1  0  0  0  0
 31 33  1  0  0  0  0
M  END
$$$$
default_name
  -OEChem-02102213163D

 36 37  0     1  0  0  0  0  0999 V2000
   -4.0843   -4.0736    1.2944 H   0  0  0  0  0  0  0  0  0  0  0  0
   -4.0342   -3.2816    0.5484 C   0  0  0  0  0  0  0  0  0  0  0  0
   -4.8842   -2.6126    0.6694 H   0  0  0  0  0  0  0  0  0  0  0  0
   -4.0433   -3.7186   -0.4486 H   0  0  0  0  0  0  0  0  0  0  0  0
   -2.7532   -2.5046    0.7444 C   0  0  0  0  0  0  0  0  0  0  0  0
   -1.9803   -2.8096    1.6434 O   0  0  0  0  0  0  0  0  0  0  0  0
   -2.5332   -1.4966   -0.0966 N   0  0  0  0  0  0  0  0  0  0  0  0
   -3.2312   -1.2816   -0.7936 H   0  0  0  0  0  0  0  0  0  0  0  0
   -1.3593   -0.6196   -0.0536 C   0  0  1  0  0  0  0  0  0  0  0  0
   -0.8788   -0.7266    0.9196 H   0  0  0  0  0  0  0  0  0  0  0  0
   -0.3559   -1.0533   -1.1339 C   0  0  0  0  0  0  0  0  0  0  0  0
    0.6546   -0.8368   -0.7825 H   0  0  0  0  0  0  0  0  0  0  0  0
   -0.4347   -2.1336   -1.2674 H   0  0  0  0  0  0  0  0  0  0  0  0
   -0.5332   -0.3955   -2.4687 C   0  0  0  0  0  0  0  0  0  0  0  0
   -1.6424   -0.4648   -3.2386 C   0  0  0  0  0  0  0  0  0  0  0  0
   -2.5352   -1.0259   -2.9856 H   0  0  0  0  0  0  0  0  0  0  0  0
   -1.4671    0.3002   -4.3751 N   0  0  0  0  0  0  0  0  0  0  0  0
   -2.1663    0.3930   -5.0973 H   0  0  0  0  0  0  0  0  0  0  0  0
   -0.2346    0.9179   -4.3861 C   0  0  0  0  0  0  0  0  0  0  0  0
    0.3886    1.7969   -5.2834 C   0  0  0  0  0  0  0  0  0  0  0  0
   -0.1185    2.1102   -6.1842 H   0  0  0  0  0  0  0  0  0  0  0  0
    1.6827    2.2630   -4.9952 C   0  0  0  0  0  0  0  0  0  0  0  0
    2.1795    2.9407   -5.6762 H   0  0  0  0  0  0  0  0  0  0  0  0
    2.3344    1.8412   -3.8218 C   0  0  0  0  0  0  0  0  0  0  0  0
    3.3333    2.1957   -3.6081 H   0  0  0  0  0  0  0  0  0  0  0  0
    1.6992    0.9558   -2.9280 C   0  0  0  0  0  0  0  0  0  0  0  0
    2.2163    0.6293   -2.0369 H   0  0  0  0  0  0  0  0  0  0  0  0
    0.3973    0.4746   -3.1858 C   0  0  0  0  0  0  0  0  0  0  0  0
   -1.7617    0.8549   -0.2106 C   0  0  0  0  0  0  0  0  0  0  0  0
   -2.5726    1.1871   -1.0741 O   0  0  0  0  0  0  0  0  0  0  0  0
   -1.1941    1.7377    0.6223 N   0  0  0  0  0  0  0  0  0  0  0  0
   -0.4976    1.3916    1.2669 H   0  0  0  0  0  0  0  0  0  0  0  0
   -1.4666    3.1722    0.6095 C   0  0  0  0  0  0  0  0  0  0  0  0
   -2.5439    3.3427    0.6539 H   0  0  0  0  0  0  0  0  0  0  0  0
   -0.9893    3.6529    1.4644 H   0  0  0  0  0  0  0  0  0  0  0  0
   -1.0808    3.6095   -0.3129 H   0  0  0  0  0  0  0  0  0  0  0  0
  5  6  2  0  0  0  0
  5  7  1  0  0  0  0
  2  3  1  0  0  0  0
  2  4  1  0  0  0  0
  2  5  1  0  0  0  0
  1  2  1  0  0  0  0
 29 30  2  0  0  0  0
 29 31  1  0  0  0  0
 26 27  1  0  0  0  0
 26 28  2  0  0  0  0
 24 25  1  0  0  0  0
 24 26  1  0  0  0  0
 22 23  1  0  0  0  0
 22 24  2  0  0  0  0
 20 21  1  0  0  0  0
 20 22  1  0  0  0  0
 19 20  2  0  0  0  0
 19 28  1  0  0  0  0
 17 18  1  0  0  0  0
 17 19  1  0  0  0  0
 15 16  1  0  0  0  0
 15 17  1  0  0  0  0
 14 15  2  0  0  0  0
 14 28  1  0  0  0  0
 11 12  1  0  0  0  0
 11 13  1  0  0  0  0
 11 14  1  0  0  0  0
  9 10  1  0  0  0  0
  9 11  1  0  0  0  0
  9 29  1  0  0  0  0
  7  8  1  0  0  0  0
  7  9  1  0  0  0  0
 33 34  1  0  0  0  0
 33 35  1  0  0  0  0
 33 36  1  0  0  0  0
 31 32  1  0  0  0  0
 31 33  1  0  0  0  0
M  END
$$$$
default_name
  -OEChem-02102213163D

 36 37  0     1  0  0  0  0  0999 V2000
   -4.0843   -4.0736    1.2944 H   0  0  0  0  0  0  0  0  0  0  0  0
   -4.0342   -3.2816    0.5484 C   0  0  0  0  0  0  0  0  0  0  0  0
   -4.8842   -2.6126    0.6694 H   0  0  0  0  0  0  0  0  0  0  0  0
   -4.0433   -3.7186   -0.4486 H   0  0  0  0  0  0  0  0  0  0  0  0
   -2.7532   -2.5046    0.7444 C   0  0  0  0  0  0  0  0  0  0  0  0
   -1.9803   -2.8096    1.6434 O   0  0  0  0  0  0  0  0  0  0  0  0
   -2.5332   -1.4966   -0.0966 N   0  0  0  0  0  0  0  0  0  0  0  0
   -3.2312   -1.2816   -0.7936 H   0  0  0  0  0  0  0  0  0  0  0  0
   -1.3593   -0.6196   -0.0536 C   0  0  1  0  0  0  0  0  0  0  0  0
   -0.8788   -0.7266    0.9196 H   0  0  0  0  0  0  0  0  0  0  0  0
   -0.3559   -1.0533   -1.1339 C   0  0  0  0  0  0  0  0  0  0  0  0
    0.6546   -0.8368   -0.7825 H   0  0  0  0  0  0  0  0  0  0  0  0
   -0.4347   -2.1336   -1.2674 H   0  0  0  0  0  0  0  0  0  0  0  0
   -0.5332   -0.3955   -2.4687 C   0  0  0  0  0  0  0  0  0  0  0  0
   -1.7112   -0.2186   -3.1081 C   0  0  0  0  0  0  0  0  0  0  0  0
   -2.6728   -0.5525   -2.7340 H   0  0  0  0  0  0  0  0  0  0  0  0
   -1.5000    0.4650   -4.2895 N   0  0  0  0  0  0  0  0  0  0  0  0
   -2.2391    0.7052   -4.9338 H   0  0  0  0  0  0  0  0  0  0  0  0
   -0.1689    0.7792   -4.4632 C   0  0  0  0  0  0  0  0  0  0  0  0
    0.5293    1.4738   -5.4614 C   0  0  0  0  0  0  0  0  0  0  0  0
    0.0053    1.8806   -6.3138 H   0  0  0  0  0  0  0  0  0  0  0  0
    1.9203    1.6314   -5.3380 C   0  0  0  0  0  0  0  0  0  0  0  0
    2.4757    2.1633   -6.0987 H   0  0  0  0  0  0  0  0  0  0  0  0
    2.5912    1.0901   -4.2261 C   0  0  0  0  0  0  0  0  0  0  0  0
    3.6626    1.2065   -4.1393 H   0  0  0  0  0  0  0  0  0  0  0  0
    1.8795    0.3921   -3.2298 C   0  0  0  0  0  0  0  0  0  0  0  0
    2.4089   -0.0301   -2.3875 H   0  0  0  0  0  0  0  0  0  0  0  0
    0.4810    0.2221   -3.3214 C   0  0  0  0  0  0  0  0  0  0  0  0
   -1.7617    0.8549   -0.2106 C   0  0  0  0  0  0  0  0  0  0  0  0
   -2.5726    1.1871   -1.0741 O   0  0  0  0  0  0  0  0  0  0  0  0
   -1.1941    1.7377    0.6223 N   0  0  0  0  0  0  0  0  0  0  0  0
   -0.4976    1.3916    1.2669 H   0  0  0  0  0  0  0  0  0  0  0  0
   -1.4666    3.1722    0.6095 C   0  0  0  0  0  0  0  0  0  0  0  0
   -2.5439    3.3427    0.6539 H   0  0  0  0  0  0  0  0  0  0  0  0
   -0.9893    3.6529    1.4644 H   0  0  0  0  0  0  0  0  0  0  0  0
   -1.0808    3.6095   -0.3129 H   0  0  0  0  0  0  0  0  0  0  0  0
  5  6  2  0  0  0  0
  5  7  1  0  0  0  0
  2  3  1  0  0  0  0
  2  4  1  0  0  0  0
  2  5  1  0  0  0  0
  1  2  1  0  0  0  0
 29 30  2  0  0  0  0
 29 31  1  0  0  0  0
 26 27  1  0  0  0  0
 26 28  2  0  0  0  0
 24 25  1  0  0  0  0
 24 26  1  0  0  0  0
 22 23  1  0  0  0  0
 22 24  2  0  0  0  0
 20 21  1  0  0  0  0
 20 22  1  0  0  0  0
 19 20  2  0  0  0  0
 19 28  1  0  0  0  0
 17 18  1  0  0  0  0
 17 19  1  0  0  0  0
 15 16  1  0  0  0  0
 15 17  1  0  0  0  0
 14 15  2  0  0  0  0
 14 28  1  0  0  0  0
 11 12  1  0  0  0  0
 11 13  1  0  0  0  0
 11 14  1  0  0  0  0
  9 10  1  0  0  0  0
  9 11  1  0  0  0  0
  9 29  1  0  0  0  0
  7  8  1  0  0  0  0
  7  9  1  0  0  0  0
 33 34  1  0  0  0  0
 33 35  1  0  0  0  0
 33 36  1  0  0  0  0
 31 32  1  0  0  0  0
 31 33  1  0  0  0  0
M  END
$$$$
default_name
  -OEChem-02102213163D

 36 37  0     1  0  0  0  0  0999 V2000
   -4.0843   -4.0736    1.2944 H   0  0  0  0  0  0  0  0  0  0  0  0
   -4.0342   -3.2816    0.5484 C   0  0  0  0  0  0  0  0  0  0  0  0
   -4.8842   -2.6126    0.6694 H   0  0  0  0  0  0  0  0  0  0  0  0
   -4.0433   -3.7186   -0.4486 H   0  0  0  0  0  0  0  0  0  0  0  0
   -2.7532   -2.5046    0.7444 C   0  0  0  0  0  0  0  0  0  0  0  0
   -1.9803   -2.8096    1.6434 O   0  0  0  0  0  0  0  0  0  0  0  0
   -2.5332   -1.4966   -0.0966 N   0  0  0  0  0  0  0  0  0  0  0  0
   -3.2312   -1.2816   -0.7936 H   0  0  0  0  0  0  0  0  0  0  0  0
   -1.3593   -0.6196   -0.0536 C   0  0  1  0  0  0  0  0  0  0  0  0
   -0.8788   -0.7266    0.9196 H   0  0  0  0  0  0  0  0  0  0  0  0
   -0.3559   -1.0533   -1.1339 C   0  0  0  0  0  0  0  0  0  0  0  0
    0.6546   -0.8368   -0.7825 H   0  0  0  0  0  0  0  0  0  0  0  0
   -0.4347   -2.1336   -1.2674 H   0  0  0  0  0  0  0  0  0  0  0  0
   -0.5332   -0.3955   -2.4687 C   0  0  0  0  0  0  0  0  0  0  0  0
   -1.7061    0.0391   -2.9818 C   0  0  0  0  0  0  0  0  0  0  0  0
   -2.6679   -0.0557   -2.4898 H   0  0  0  0  0  0  0  0  0  0  0  0
   -1.4841    0.6344   -4.2082 N   0  0  0  0  0  0  0  0  0  0  0  0
   -2.2189    1.0285   -4.7772 H   0  0  0  0  0  0  0  0  0  0  0  0
   -0.1461    0.6277   -4.5408 C   0  0  0  0  0  0  0  0  0  0  0  0
    0.5705    1.1237   -5.6394 C   0  0  0  0  0  0  0  0  0  0  0  0
    0.0573    1.6264   -6.4460 H   0  0  0  0  0  0  0  0  0  0  0  0
    1.9653    0.9560   -5.6768 C   0  0  0  0  0  0  0  0  0  0  0  0
    2.5345    1.3311   -6.5166 H   0  0  0  0  0  0  0  0  0  0  0  0
    2.6201    0.2931   -4.6227 C   0  0  0  0  0  0  0  0  0  0  0  0
    3.6923    0.1588   -4.6596 H   0  0  0  0  0  0  0  0  0  0  0  0
    1.8894   -0.2032   -3.5245 C   0  0  0  0  0  0  0  0  0  0  0  0
    2.4032   -0.7223   -2.7278 H   0  0  0  0  0  0  0  0  0  0  0  0
    0.4883   -0.0453   -3.4541 C   0  0  0  0  0  0  0  0  0  0  0  0
   -1.7617    0.8549   -0.2106 C   0  0  0  0  0  0  0  0  0  0  0  0
   -2.5726    1.1871   -1.0741 O   0  0  0  0  0  0  0  0  0  0  0  0
   -1.1941    1.7377    0.6223 N   0  0  0  0  0  0  0  0  0  0  0  0
   -0.4976    1.3916    1.2669 H   0  0  0  0  0  0  0  0  0  0  0  0
   -1.4666    3.1722    0.6095 C   0  0  0  0  0  0  0  0  0  0  0  0
   -2.5439    3.3427    0.6539 H   0  0  0  0  0  0  0  0  0  0  0  0
   -0.9893    3.6529    1.4644 H   0  0  0  0  0  0  0  0  0  0  0  0
   -1.0808    3.6095   -0.3129 H   0  0  0  0  0  0  0  0  0  0  0  0
  5  6  2  0  0  0  0
  5  7  1  0  0  0  0
  2  3  1  0  0  0  0
  2  4  1  0  0  0  0
  2  5  1  0  0  0  0
  1  2  1  0  0  0  0
 29 30  2  0  0  0  0
 29 31  1  0  0  0  0
 26 27  1  0  0  0  0
 26 28  2  0  0  0  0
 24 25  1  0  0  0  0
 24 26  1  0  0  0  0
 22 23  1  0  0  0  0
 22 24  2  0  0  0  0
 20 21  1  0  0  0  0
 20 22  1  0  0  0  0
 19 20  2  0  0  0  0
 19 28  1  0  0  0  0
 17 18  1  0  0  0  0
 17 19  1  0  0  0  0
 15 16  1  0  0  0  0
 15 17  1  0  0  0  0
 14 15  2  0  0  0  0
 14 28  1  0  0  0  0
 11 12  1  0  0  0  0
 11 13  1  0  0  0  0
 11 14  1  0  0  0  0
  9 10  1  0  0  0  0
  9 11  1  0  0  0  0
  9 29  1  0  0  0  0
  7  8  1  0  0  0  0
  7  9  1  0  0  0  0
 33 34  1  0  0  0  0
 33 35  1  0  0  0  0
 33 36  1  0  0  0  0
 31 32  1  0  0  0  0
 31 33  1  0  0  0  0
M  END
$$$$
default_name
  -OEChem-02102213163D

 36 37  0     1  0  0  0  0  0999 V2000
   -4.0843   -4.0736    1.2944 H   0  0  0  0  0  0  0  0  0  0  0  0
   -4.0342   -3.2816    0.5484 C   0  0  0  0  0  0  0  0  0  0  0  0
   -4.8842   -2.6126    0.6694 H   0  0  0  0  0  0  0  0  0  0  0  0
   -4.0433   -3.7186   -0.4486 H   0  0  0  0  0  0  0  0  0  0  0  0
   -2.7532   -2.5046    0.7444 C   0  0  0  0  0  0  0  0  0  0  0  0
   -1.9803   -2.8096    1.6434 O   0  0  0  0  0  0  0  0  0  0  0  0
   -2.5332   -1.4966   -0.0966 N   0  0  0  0  0  0  0  0  0  0  0  0
   -3.2312   -1.2816   -0.7936 H   0  0  0  0  0  0  0  0  0  0  0  0
   -1.3593   -0.6196   -0.0536 C   0  0  1  0  0  0  0  0  0  0  0  0
   -0.8788   -0.7266    0.9196 H   0  0  0  0  0  0  0  0  0  0  0  0
   -0.3559   -1.0533   -1.1339 C   0  0  0  0  0  0  0  0  0  0  0  0
    0.6546   -0.8368   -0.7825 H   0  0  0  0  0  0  0  0  0  0  0  0
   -0.4347   -2.1336   -1.2674 H   0  0  0  0  0  0  0  0  0  0  0  0
   -0.5332   -0.3955   -2.4687 C   0  0  0  0  0  0  0  0  0  0  0  0
   -1.6274    0.2907   -2.8683 C   0  0  0  0  0  0  0  0  0  0  0  0
   -2.5209    0.4304   -2.2698 H   0  0  0  0  0  0  0  0  0  0  0  0
   -1.4204    0.7968   -4.1366 N   0  0  0  0  0  0  0  0  0  0  0  0
   -2.1071    1.3410   -4.6380 H   0  0  0  0  0  0  0  0  0  0  0  0
   -0.1679    0.4738   -4.6138 C   0  0  0  0  0  0  0  0  0  0  0  0
    0.5093    0.7707   -5.8052 C   0  0  0  0  0  0  0  0  0  0  0  0
    0.0338    1.3647   -6.5718 H   0  0  0  0  0  0  0  0  0  0  0  0
    1.8145    0.2829   -5.9885 C   0  0  0  0  0  0  0  0  0  0  0  0
    2.3520    0.5009   -6.9015 H   0  0  0  0  0  0  0  0  0  0  0  0
    2.4192   -0.4957   -4.9847 C   0  0  0  0  0  0  0  0  0  0  0  0
    3.4204   -0.8759   -5.1334 H   0  0  0  0  0  0  0  0  0  0  0  0
    1.7283   -0.7895   -3.7920 C   0  0  0  0  0  0  0  0  0  0  0  0
    2.1994   -1.3999   -3.0347 H   0  0  0  0  0  0  0  0  0  0  0  0
    0.4186   -0.3093   -3.5749 C   0  0  0  0  0  0  0  0  0  0  0  0
   -1.7617    0.8549   -0.2106 C   0  0  0  0  0  0  0  0  0  0  0  0
   -2.5726    1.1871   -1.0741 O   0  0  0  0  0  0  0  0  0  0  0  0
   -1.1941    1.7377    0.6223 N   0  0  0  0  0  0  0  0  0  0  0  0
   -0.4976    1.3916    1.2669 H   0  0  0  0  0  0  0  0  0  0  0  0
   -1.4666    3.1722    0.6095 C   0  0  0  0  0  0  0  0  0  0  0  0
   -2.5439    3.3427    0.6539 H   0  0  0  0  0  0  0  0  0  0  0  0
   -0.9893    3.6529    1.4644 H   0  0  0  0  0  0  0  0  0  0  0  0
   -1.0808    3.6095   -0.3129 H   0  0  0  0  0  0  0  0  0  0  0  0
  5  6  2  0  0  0  0
  5  7  1  0  0  0  0
  2  3  1  0  0  0  0
  2  4  1  0  0  0  0
  2  5  1  0  0  0  0
  1  2  1  0  0  0  0
 29 30  2  0  0  0  0
 29 31  1  0  0  0  0
 26 27  1  0  0  0  0
 26 28  2  0  0  0  0
 24 25  1  0  0  0  0
 24 26  1  0  0  0  0
 22 23  1  0  0  0  0
 22 24  2  0  0  0  0
 20 21  1  0  0  0  0
 20 22  1  0  0  0  0
 19 20  2  0  0  0  0
 19 28  1  0  0  0  0
 17 18  1  0  0  0  0
 17 19  1  0  0  0  0
 15 16  1  0  0  0  0
 15 17  1  0  0  0  0
 14 15  2  0  0  0  0
 14 28  1  0  0  0  0
 11 12  1  0  0  0  0
 11 13  1  0  0  0  0
 11 14  1  0  0  0  0
  9 10  1  0  0  0  0
  9 11  1  0  0  0  0
  9 29  1  0  0  0  0
  7  8  1  0  0  0  0
  7  9  1  0  0  0  0
 33 34  1  0  0  0  0
 33 35  1  0  0  0  0
 33 36  1  0  0  0  0
 31 32  1  0  0  0  0
 31 33  1  0  0  0  0
M  END
$$$$
default_name
  -OEChem-02102213163D

 36 37  0     1  0  0  0  0  0999 V2000
   -4.0843   -4.0736    1.2944 H   0  0  0  0  0  0  0  0  0  0  0  0
   -4.0342   -3.2816    0.5484 C   0  0  0  0  0  0  0  0  0  0  0  0
   -4.8842   -2.6126    0.6694 H   0  0  0  0  0  0  0  0  0  0  0  0
   -4.0433   -3.7186   -0.4486 H   0  0  0  0  0  0  0  0  0  0  0  0
   -2.7532   -2.5046    0.7444 C   0  0  0  0  0  0  0  0  0  0  0  0
   -1.9803   -2.8096    1.6434 O   0  0  0  0  0  0  0  0  0  0  0  0
   -2.5332   -1.4966   -0.0966 N   0  0  0  0  0  0  0  0  0  0  0  0
   -3.2312   -1.2816   -0.7936 H   0  0  0  0  0  0  0  0  0  0  0  0
   -1.3593   -0.6196   -0.0536 C   0  0  1  0  0  0  0  0  0  0  0  0
   -0.8788   -0.7266    0.9196 H   0  0  0  0  0  0  0  0  0  0  0  0
   -0.3559   -1.0533   -1.1339 C   0  0  0  0  0  0  0  0  0  0  0  0
    0.6546   -0.8368   -0.7825 H   0  0  0  0  0  0  0  0  0  0  0  0
   -0.4347   -2.1336   -1.2674 H   0  0  0  0  0  0  0  0  0  0  0  0
   -0.5332   -0.3955   -2.4687 C   0  0  0  0  0  0  0  0  0  0  0  0
   -1.4805    0.5191   -2.7753 C   0  0  0  0  0  0  0  0  0  0  0  0
   -2.2419    0.8729   -2.0888 H   0  0  0  0  0  0  0  0  0  0  0  0
   -1.3133    0.9412   -4.0796 N   0  0  0  0  0  0  0  0  0  0  0  0
   -1.9112    1.6213   -4.5259 H   0  0  0  0  0  0  0  0  0  0  0  0
   -0.2328    0.3279   -4.6771 C   0  0  0  0  0  0  0  0  0  0  0  0
    0.3500    0.4386   -5.9477 C   0  0  0  0  0  0  0  0  0  0  0  0
   -0.0634    1.1136   -6.6826 H   0  0  0  0  0  0  0  0  0  0  0  0
    1.4783   -0.3421   -6.2518 C   0  0  0  0  0  0  0  0  0  0  0  0
    1.9406   -0.2707   -7.2271 H   0  0  0  0  0  0  0  0  0  0  0  0
    2.0022   -1.2223   -5.2874 C   0  0  0  0  0  0  0  0  0  0  0  0
    2.8654   -1.8272   -5.5284 H   0  0  0  0  0  0  0  0  0  0  0  0
    1.4071   -1.3269   -4.0142 C   0  0  0  0  0  0  0  0  0  0  0  0
    1.8115   -2.0168   -3.2872 H   0  0  0  0  0  0  0  0  0  0  0  0
    0.2767   -0.5519   -3.6756 C   0  0  0  0  0  0  0  0  0  0  0  0
   -1.7617    0.8549   -0.2106 C   0  0  0  0  0  0  0  0  0  0  0  0
   -2.5726    1.1871   -1.0741 O   0  0  0  0  0  0  0  0  0  0  0  0
   -1.1941    1.7377    0.6223 N   0  0  0  0  0  0  0  0  0  0  0  0
   -0.4976    1.3916    1.2669 H   0  0  0  0  0  0  0  0  0  0  0  0
   -1.4666    3.1722    0.6095 C   0  0  0  0  0  0  0  0  0  0  0  0
   -2.5439    3.3427    0.6539 H   0  0  0  0  0  0  0  0  0  0  0  0
   -0.9893    3.6529    1.4644 H   0  0  0  0  0  0  0  0  0  0  0  0
   -1.0808    3.6095   -0.3129 H   0  0  0  0  0  0  0  0  0  0  0  0
  5  6  2  0  0  0  0
  5  7  1  0  0  0  0
  2  3  1  0  0  0  0
  2  4  1  0  0  0  0
  2  5  1  0  0  0  0
  1  2  1  0  0  0  0
 29 30  2  0  0  0  0
 29 31  1  0  0  0  0
 26 27  1  0  0  0  0
 26 28  2  0  0  0  0
 24 25  1  0  0  0  0
 24 26  1  0  0  0  0
 22 23  1  0  0  0  0
 22 24  2  0  0  0  0
 20 21  1  0  0  0  0
 20 22  1  0  0  0  0
 19 20  2  0  0  0  0
 19 28  1  0  0  0  0
 17 18  1  0  0  0  0
 17 19  1  0  0  0  0
 15 16  1  0  0  0  0
 15 17  1  0  0  0  0
 14 15  2  0  0  0  0
 14 28  1  0  0  0  0
 11 12  1  0  0  0  0
 11 13  1  0  0  0  0
 11 14  1  0  0  0  0
  9 10  1  0  0  0  0
  9 11  1  0  0  0  0
  9 29  1  0  0  0  0
  7  8  1  0  0  0  0
  7  9  1  0  0  0  0
 33 34  1  0  0  0  0
 33 35  1  0  0  0  0
 33 36  1  0  0  0  0
 31 32  1  0  0  0  0
 31 33  1  0  0  0  0
M  END
$$$$
default_name
  -OEChem-02102213163D

 36 37  0     1  0  0  0  0  0999 V2000
   -4.0843   -4.0736    1.2944 H   0  0  0  0  0  0  0  0  0  0  0  0
   -4.0342   -3.2816    0.5484 C   0  0  0  0  0  0  0  0  0  0  0  0
   -4.8842   -2.6126    0.6694 H   0  0  0  0  0  0  0  0  0  0  0  0
   -4.0433   -3.7186   -0.4486 H   0  0  0  0  0  0  0  0  0  0  0  0
   -2.7532   -2.5046    0.7444 C   0  0  0  0  0  0  0  0  0  0  0  0
   -1.9803   -2.8096    1.6434 O   0  0  0  0  0  0  0  0  0  0  0  0
   -2.5332   -1.4966   -0.0966 N   0  0  0  0  0  0  0  0  0  0  0  0
   -3.2312   -1.2816   -0.7936 H   0  0  0  0  0  0  0  0  0  0  0  0
   -1.3593   -0.6196   -0.0536 C   0  0  1  0  0  0  0  0  0  0  0  0
   -0.8788   -0.7266    0.9196 H   0  0  0  0  0  0  0  0  0  0  0  0
   -0.3559   -1.0533   -1.1339 C   0  0  0  0  0  0  0  0  0  0  0  0
    0.6546   -0.8368   -0.7825 H   0  0  0  0  0  0  0  0  0  0  0  0
   -0.4347   -2.1336   -1.2674 H   0  0  0  0  0  0  0  0  0  0  0  0
   -0.5332   -0.3955   -2.4687 C   0  0  0  0  0  0  0  0  0  0  0  0
   -1.2753    0.7087   -2.7091 C   0  0  0  0  0  0  0  0  0  0  0  0
   -1.8498    1.2415   -1.9593 H   0  0  0  0  0  0  0  0  0  0  0  0
   -1.1701    1.0578   -4.0412 N   0  0  0  0  0  0  0  0  0  0  0  0
   -1.6447    1.8503   -4.4485 H   0  0  0  0  0  0  0  0  0  0  0  0
   -0.3362    0.2000   -4.7264 C   0  0  0  0  0  0  0  0  0  0  0  0
    0.1035    0.1503   -6.0570 C   0  0  0  0  0  0  0  0  0  0  0  0
   -0.2279    0.8900   -6.7710 H   0  0  0  0  0  0  0  0  0  0  0  0
    0.9796   -0.8763   -6.4488 C   0  0  0  0  0  0  0  0  0  0  0  0
    1.3284   -0.9312   -7.4712 H   0  0  0  0  0  0  0  0  0  0  0  0
    1.3976   -1.8373   -5.5101 C   0  0  0  0  0  0  0  0  0  0  0  0
    2.0651   -2.6303   -5.8179 H   0  0  0  0  0  0  0  0  0  0  0  0
    0.9477   -1.7788   -4.1758 C   0  0  0  0  0  0  0  0  0  0  0  0
    1.2659   -2.5311   -3.4681 H   0  0  0  0  0  0  0  0  0  0  0  0
    0.0723   -0.7566   -3.7494 C   0  0  0  0  0  0  0  0  0  0  0  0
   -1.7617    0.8549   -0.2106 C   0  0  0  0  0  0  0  0  0  0  0  0
   -2.5726    1.1871   -1.0741 O   0  0  0  0  0  0  0  0  0  0  0  0
   -1.1941    1.7377    0.6223 N   0  0  0  0  0  0  0  0  0  0  0  0
   -0.4976    1.3916    1.2669 H   0  0  0  0  0  0  0  0  0  0  0  0
   -1.4666    3.1722    0.6095 C   0  0  0  0  0  0  0  0  0  0  0  0
   -2.5439    3.3427    0.6539 H   0  0  0  0  0  0  0  0  0  0  0  0
   -0.9893    3.6529    1.4644 H   0  0  0  0  0  0  0  0  0  0  0  0
   -1.0808    3.6095   -0.3129 H   0  0  0  0  0  0  0  0  0  0  0  0
  5  6  2  0  0  0  0
  5  7  1  0  0  0  0
  2  3  1  0  0  0  0
  2  4  1  0  0  0  0
  2  5  1  0  0  0  0
  1  2  1  0  0  0  0
 29 30  2  0  0  0  0
 29 31  1  0  0  0  0
 26 27  1  0  0  0  0
 26 28  2  0  0  0  0
 24 25  1  0  0  0  0
 24 26  1  0  0  0  0
 22 23  1  0  0  0  0
 22 24  2  0  0  0  0
 20 21  1  0  0  0  0
 20 22  1  0  0  0  0
 19 20  2  0  0  0  0
 19 28  1  0  0  0  0
 17 18  1  0  0  0  0
 17 19  1  0  0  0  0
 15 16  1  0  0  0  0
 15 17  1  0  0  0  0
 14 15  2  0  0  0  0
 14 28  1  0  0  0  0
 11 12  1  0  0  0  0
 11 13  1  0  0  0  0
 11 14  1  0  0  0  0
  9 10  1  0  0  0  0
  9 11  1  0  0  0  0
  9 29  1  0  0  0  0
  7  8  1  0  0  0  0
  7  9  1  0  0  0  0
 33 34  1  0  0  0  0
 33 35  1  0  0  0  0
 33 36  1  0  0  0  0
 31 32  1  0  0  0  0
 31 33  1  0  0  0  0
M  END
$$$$
default_name
  -OEChem-02102213163D

 36 37  0     1  0  0  0  0  0999 V2000
   -4.0843   -4.0736    1.2944 H   0  0  0  0  0  0  0  0  0  0  0  0
   -4.0342   -3.2816    0.5484 C   0  0  0  0  0  0  0  0  0  0  0  0
   -4.8842   -2.6126    0.6694 H   0  0  0  0  0  0  0  0  0  0  0  0
   -4.0433   -3.7186   -0.4486 H   0  0  0  0  0  0  0  0  0  0  0  0
   -2.7532   -2.5046    0.7444 C   0  0  0  0  0  0  0  0  0  0  0  0
   -1.9803   -2.8096    1.6434 O   0  0  0  0  0  0  0  0  0  0  0  0
   -2.5332   -1.4966   -0.0966 N   0  0  0  0  0  0  0  0  0  0  0  0
   -3.2312   -1.2816   -0.7936 H   0  0  0  0  0  0  0  0  0  0  0  0
   -1.3593   -0.6196   -0.0536 C   0  0  1  0  0  0  0  0  0  0  0  0
   -0.8788   -0.7266    0.9196 H   0  0  0  0  0  0  0  0  0  0  0  0
   -0.3559   -1.0533   -1.1339 C   0  0  0  0  0  0  0  0  0  0  0  0
    0.6546   -0.8368   -0.7825 H   0  0  0  0  0  0  0  0  0  0  0  0
   -0.4347   -2.1336   -1.2674 H   0  0  0  0  0  0  0  0  0  0  0  0
   -0.5332   -0.3955   -2.4687 C   0  0  0  0  0  0  0  0  0  0  0  0
   -1.0260    0.8465   -2.6743 C   0  0  0  0  0  0  0  0  0  0  0  0
   -1.3714    1.5111   -1.8900 H   0  0  0  0  0  0  0  0  0  0  0  0
   -1.0005    1.1385   -4.0239 N   0  0  0  0  0  0  0  0  0  0  0  0
   -1.3256    2.0124   -4.4110 H   0  0  0  0  0  0  0  0  0  0  0  0
   -0.4712    0.0987   -4.7583 C   0  0  0  0  0  0  0  0  0  0  0  0
   -0.2136   -0.0747   -6.1258 C   0  0  0  0  0  0  0  0  0  0  0  0
   -0.4483    0.7092   -6.8308 H   0  0  0  0  0  0  0  0  0  0  0  0
    0.3523   -1.2834   -6.5661 C   0  0  0  0  0  0  0  0  0  0  0  0
    0.5570   -1.4355   -7.6172 H   0  0  0  0  0  0  0  0  0  0  0  0
    0.6464   -2.2988   -5.6378 C   0  0  0  0  0  0  0  0  0  0  0  0
    1.0741   -3.2304   -5.9819 H   0  0  0  0  0  0  0  0  0  0  0  0
    0.3814   -2.1143   -4.2659 C   0  0  0  0  0  0  0  0  0  0  0  0
    0.5998   -2.9076   -3.5652 H   0  0  0  0  0  0  0  0  0  0  0  0
   -0.1808   -0.9095   -3.7911 C   0  0  0  0  0  0  0  0  0  0  0  0
   -1.7617    0.8549   -0.2106 C   0  0  0  0  0  0  0  0  0  0  0  0
   -2.5726    1.1871   -1.0741 O   0  0  0  0  0  0  0  0  0  0  0  0
   -1.1941    1.7377    0.6223 N   0  0  0  0  0  0  0  0  0  0  0  0
   -0.4976    1.3916    1.2669 H   0  0  0  0  0  0  0  0  0  0  0  0
   -1.4666    3.1722    0.6095 C   0  0  0  0  0  0  0  0  0  0  0  0
   -2.5439    3.3427    0.6539 H   0  0  0  0  0  0  0  0  0  0  0  0
   -0.9893    3.6529    1.4644 H   0  0  0  0  0  0  0  0  0  0  0  0
   -1.0808    3.6095   -0.3129 H   0  0  0  0  0  0  0  0  0  0  0  0
  5  6  2  0  0  0  0
  5  7  1  0  0  0  0
  2  3  1  0  0  0  0
  2  4  1  0  0  0  0
  2  5  1  0  0  0  0
  1  2  1  0  0  0  0
 29 30  2  0  0  0  0
 29 31  1  0  0  0  0
 26 27  1  0  0  0  0
 26 28  2  0  0  0  0
 24 25  1  0  0  0  0
 24 26  1  0  0  0  0
 22 23  1  0  0  0  0
 22 24  2  0  0  0  0
 20 21  1  0  0  0  0
 20 22  1  0  0  0  0
 19 20  2  0  0  0  0
 19 28  1  0  0  0  0
 17 18  1  0  0  0  0
 17 19  1  0  0  0  0
 15 16  1  0  0  0  0
 15 17  1  0  0  0  0
 14 15  2  0  0  0  0
 14 28  1  0  0  0  0
 11 12  1  0  0  0  0
 11 13  1  0  0  0  0
 11 14  1  0  0  0  0
  9 10  1  0  0  0  0
  9 11  1  0  0  0  0
  9 29  1  0  0  0  0
  7  8  1  0  0  0  0
  7  9  1  0  0  0  0
 33 34  1  0  0  0  0
 33 35  1  0  0  0  0
 33 36  1  0  0  0  0
 31 32  1  0  0  0  0
 31 33  1  0  0  0  0
M  END
$$$$
default_name
  -OEChem-02102213163D

 36 37  0     1  0  0  0  0  0999 V2000
   -4.0843   -4.0736    1.2944 H   0  0  0  0  0  0  0  0  0  0  0  0
   -4.0342   -3.2816    0.5484 C   0  0  0  0  0  0  0  0  0  0  0  0
   -4.8842   -2.6126    0.6694 H   0  0  0  0  0  0  0  0  0  0  0  0
   -4.0433   -3.7186   -0.4486 H   0  0  0  0  0  0  0  0  0  0  0  0
   -2.7532   -2.5046    0.7444 C   0  0  0  0  0  0  0  0  0  0  0  0
   -1.9803   -2.8096    1.6434 O   0  0  0  0  0  0  0  0  0  0  0  0
   -2.5332   -1.4966   -0.0966 N   0  0  0  0  0  0  0  0  0  0  0  0
   -3.2312   -1.2816   -0.7936 H   0  0  0  0  0  0  0  0  0  0  0  0
   -1.3593   -0.6196   -0.0536 C   0  0  1  0  0  0  0  0  0  0  0  0
   -0.8788   -0.7266    0.9196 H   0  0  0  0  0  0  0  0  0  0  0  0
   -0.3559   -1.0533   -1.1339 C   0  0  0  0  0  0  0  0  0  0  0  0
    0.6546   -0.8368   -0.7825 H   0  0  0  0  0  0  0  0  0  0  0  0
   -0.4347   -2.1336   -1.2674 H   0  0  0  0  0  0  0  0  0  0  0  0
   -0.5332   -0.3955   -2.4687 C   0  0  0  0  0  0  0  0  0  0  0  0
   -0.7494    0.9233   -2.6732 C   0  0  0  0  0  0  0  0  0  0  0  0
   -0.8393    1.6634   -1.8856 H   0  0  0  0  0  0  0  0  0  0  0  0
   -0.8162    1.1780   -4.0290 N   0  0  0  0  0  0  0  0  0  0  0  0
   -0.9758    2.0967   -4.4160 H   0  0  0  0  0  0  0  0  0  0  0  0
   -0.6285    0.0311   -4.7708 C   0  0  0  0  0  0  0  0  0  0  0  0
   -0.5796   -0.2211   -6.1493 C   0  0  0  0  0  0  0  0  0  0  0  0
   -0.7096    0.5836   -6.8580 H   0  0  0  0  0  0  0  0  0  0  0  0
   -0.3607   -1.5356   -6.5956 C   0  0  0  0  0  0  0  0  0  0  0  0
   -0.3209   -1.7492   -7.6552 H   0  0  0  0  0  0  0  0  0  0  0  0
   -0.2000   -2.5753   -5.6616 C   0  0  0  0  0  0  0  0  0  0  0  0
   -0.0402   -3.5865   -6.0094 H   0  0  0  0  0  0  0  0  0  0  0  0
   -0.2531   -2.3106   -4.2783 C   0  0  0  0  0  0  0  0  0  0  0  0
   -0.1414   -3.1206   -3.5717 H   0  0  0  0  0  0  0  0  0  0  0  0
   -0.4652   -1.0002   -3.7980 C   0  0  0  0  0  0  0  0  0  0  0  0
   -1.7617    0.8549   -0.2106 C   0  0  0  0  0  0  0  0  0  0  0  0
   -2.5726    1.1871   -1.0741 O   0  0  0  0  0  0  0  0  0  0  0  0
   -1.1941    1.7377    0.6223 N   0  0  0  0  0  0  0  0  0  0  0  0
   -0.4976    1.3916    1.2669 H   0  0  0  0  0  0  0  0  0  0  0  0
   -1.4666    3.1722    0.6095 C   0  0  0  0  0  0  0  0  0  0  0  0
   -2.5439    3.3427    0.6539 H   0  0  0  0  0  0  0  0  0  0  0  0
   -0.9893    3.6529    1.4644 H   0  0  0  0  0  0  0  0  0  0  0  0
   -1.0808    3.6095   -0.3129 H   0  0  0  0  0  0  0  0  0  0  0  0
  5  6  2  0  0  0  0
  5  7  1  0  0  0  0
  2  3  1  0  0  0  0
  2  4  1  0  0  0  0
  2  5  1  0  0  0  0
  1  2  1  0  0  0  0
 29 30  2  0  0  0  0
 29 31  1  0  0  0  0
 26 27  1  0  0  0  0
 26 28  2  0  0  0  0
 24 25  1  0  0  0  0
 24 26  1  0  0  0  0
 22 23  1  0  0  0  0
 22 24  2  0  0  0  0
 20 21  1  0  0  0  0
 20 22  1  0  0  0  0
 19 20  2  0  0  0  0
 19 28  1  0  0  0  0
 17 18  1  0  0  0  0
 17 19  1  0  0  0  0
 15 16  1  0  0  0  0
 15 17  1  0  0  0  0
 14 15  2  0  0  0  0
 14 28  1  0  0  0  0
 11 12  1  0  0  0  0
 11 13  1  0  0  0  0
 11 14  1  0  0  0  0
  9 10  1  0  0  0  0
  9 11  1  0  0  0  0
  9 29  1  0  0  0  0
  7  8  1  0  0  0  0
  7  9  1  0  0  0  0
 33 34  1  0  0  0  0
 33 35  1  0  0  0  0
 33 36  1  0  0  0  0
 31 32  1  0  0  0  0
 31 33  1  0  0  0  0
M  END
$$$$
default_name
  -OEChem-02102213163D

 36 37  0     1  0  0  0  0  0999 V2000
   -4.0843   -4.0736    1.2944 H   0  0  0  0  0  0  0  0  0  0  0  0
   -4.0342   -3.2816    0.5484 C   0  0  0  0  0  0  0  0  0  0  0  0
   -4.8842   -2.6126    0.6694 H   0  0  0  0  0  0  0  0  0  0  0  0
   -4.0433   -3.7186   -0.4486 H   0  0  0  0  0  0  0  0  0  0  0  0
   -2.7532   -2.5046    0.7444 C   0  0  0  0  0  0  0  0  0  0  0  0
   -1.9803   -2.8096    1.6434 O   0  0  0  0  0  0  0  0  0  0  0  0
   -2.5332   -1.4966   -0.0966 N   0  0  0  0  0  0  0  0  0  0  0  0
   -3.2312   -1.2816   -0.7936 H   0  0  0  0  0  0  0  0  0  0  0  0
   -1.3593   -0.6196   -0.0536 C   0  0  1  0  0  0  0  0  0  0  0  0
   -0.8788   -0.7266    0.9196 H   0  0  0  0  0  0  0  0  0  0  0  0
   -0.3559   -1.0533   -1.1339 C   0  0  0  0  0  0  0  0  0  0  0  0
    0.6546   -0.8368   -0.7825 H   0  0  0  0  0  0  0  0  0  0  0  0
   -0.4347   -2.1336   -1.2674 H   0  0  0  0  0  0  0  0  0  0  0  0
   -0.5332   -0.3955   -2.4687 C   0  0  0  0  0  0  0  0  0  0  0  0
   -0.4644    0.9337   -2.7060 C   0  0  0  0  0  0  0  0  0  0  0  0
   -0.2897    1.6879   -1.9465 H   0  0  0  0  0  0  0  0  0  0  0  0
   -0.6296    1.1734   -4.0560 N   0  0  0  0  0  0  0  0  0  0  0  0
   -0.6190    2.0972   -4.4631 H   0  0  0  0  0  0  0  0  0  0  0  0
   -0.7975    0.0017   -4.7628 C   0  0  0  0  0  0  0  0  0  0  0  0
   -0.9695   -0.2788   -6.1259 C   0  0  0  0  0  0  0  0  0  0  0  0
   -0.9941    0.5217   -6.8507 H   0  0  0  0  0  0  0  0  0  0  0  0
   -1.1110   -1.6157   -6.5354 C   0  0  0  0  0  0  0  0  0  0  0  0
   -1.2456   -1.8511   -7.5825 H   0  0  0  0  0  0  0  0  0  0  0  0
   -1.0841   -2.6480   -5.5799 C   0  0  0  0  0  0  0  0  0  0  0  0
   -1.2017   -3.6746   -5.8984 H   0  0  0  0  0  0  0  0  0  0  0  0
   -0.9127   -2.3543   -4.2122 C   0  0  0  0  0  0  0  0  0  0  0  0
   -0.9072   -3.1558   -3.4872 H   0  0  0  0  0  0  0  0  0  0  0  0
   -0.7616   -1.0223   -3.7695 C   0  0  0  0  0  0  0  0  0  0  0  0
   -1.7617    0.8549   -0.2106 C   0  0  0  0  0  0  0  0  0  0  0  0
   -2.5726    1.1871   -1.0741 O   0  0  0  0  0  0  0  0  0  0  0  0
   -1.1941    1.7377    0.6223 N   0  0  0  0  0  0  0  0  0  0  0  0
   -0.4976    1.3916    1.2669 H   0  0  0  0  0  0  0  0  0  0  0  0
   -1.4666    3.1722    0.6095 C   0  0  0  0  0  0  0  0  0  0  0  0
   -2.5439    3.3427    0.6539 H   0  0  0  0  0  0  0  0  0  0  0  0
   -0.9893    3.6529    1.4644 H   0  0  0  0  0  0  0  0  0  0  0  0
   -1.0808    3.6095   -0.3129 H   0  0  0  0  0  0  0  0  0  0  0  0
  5  6  2  0  0  0  0
  5  7  1  0  0  0  0
  2  3  1  0  0  0  0
  2  4  1  0  0  0  0
  2  5  1  0  0  0  0
  1  2  1  0  0  0  0
 29 30  2  0  0  0  0
 29 31  1  0  0  0  0
 26 27  1  0  0  0  0
 26 28  2  0  0  0  0
 24 25  1  0  0  0  0
 24 26  1  0  0  0  0
 22 23  1  0  0  0  0
 22 24  2  0  0  0  0
 20 21  1  0  0  0  0
 20 22  1  0  0  0  0
 19 20  2  0  0  0  0
 19 28  1  0  0  0  0
 17 18  1  0  0  0  0
 17 19  1  0  0  0  0
 15 16  1  0  0  0  0
 15 17  1  0  0  0  0
 14 15  2  0  0  0  0
 14 28  1  0  0  0  0
 11 12  1  0  0  0  0
 11 13  1  0  0  0  0
 11 14  1  0  0  0  0
  9 10  1  0  0  0  0
  9 11  1  0  0  0  0
  9 29  1  0  0  0  0
  7  8  1  0  0  0  0
  7  9  1  0  0  0  0
 33 34  1  0  0  0  0
 33 35  1  0  0  0  0
 33 36  1  0  0  0  0
 31 32  1  0  0  0  0
 31 33  1  0  0  0  0
M  END
$$$$
default_name
  -OEChem-02102213163D

 36 37  0     1  0  0  0  0  0999 V2000
   -4.0843   -4.0736    1.2944 H   0  0  0  0  0  0  0  0  0  0  0  0
   -4.0342   -3.2816    0.5484 C   0  0  0  0  0  0  0  0  0  0  0  0
   -4.8842   -2.6126    0.6694 H   0  0  0  0  0  0  0  0  0  0  0  0
   -4.0433   -3.7186   -0.4486 H   0  0  0  0  0  0  0  0  0  0  0  0
   -2.7532   -2.5046    0.7444 C   0  0  0  0  0  0  0  0  0  0  0  0
   -1.9803   -2.8096    1.6434 O   0  0  0  0  0  0  0  0  0  0  0  0
   -2.5332   -1.4966   -0.0966 N   0  0  0  0  0  0  0  0  0  0  0  0
   -3.2312   -1.2816   -0.7936 H   0  0  0  0  0  0  0  0  0  0  0  0
   -1.3593   -0.6196   -0.0536 C   0  0  1  0  0  0  0  0  0  0  0  0
   -0.8788   -0.7266    0.9196 H   0  0  0  0  0  0  0  0  0  0  0  0
   -0.3559   -1.0533   -1.1339 C   0  0  0  0  0  0  0  0  0  0  0  0
    0.6546   -0.8368   -0.7825 H   0  0  0  0  0  0  0  0  0  0  0  0
   -0.4347   -2.1336   -1.2674 H   0  0  0  0  0  0  0  0  0  0  0  0
   -0.5332   -0.3955   -2.4687 C   0  0  0  0  0  0  0  0  0  0  0  0
   -0.1905    0.8770   -2.7703 C   0  0  0  0  0  0  0  0  0  0  0  0
    0.2400    1.5831   -2.0686 H   0  0  0  0  0  0  0  0  0  0  0  0
   -0.4535    1.1252   -4.1032 N   0  0  0  0  0  0  0  0  0  0  0  0
   -0.2797    2.0140   -4.5492 H   0  0  0  0  0  0  0  0  0  0  0  0
   -0.9667    0.0124   -4.7350 C   0  0  0  0  0  0  0  0  0  0  0  0
   -1.3567   -0.2440   -6.0573 C   0  0  0  0  0  0  0  0  0  0  0  0
   -1.2824    0.5277   -6.8094 H   0  0  0  0  0  0  0  0  0  0  0  0
   -1.8473   -1.5183   -6.3896 C   0  0  0  0  0  0  0  0  0  0  0  0
   -2.1539   -1.7341   -7.4042 H   0  0  0  0  0  0  0  0  0  0  0  0
   -1.9455   -2.5120   -5.3984 C   0  0  0  0  0  0  0  0  0  0  0  0
   -2.3313   -3.4885   -5.6566 H   0  0  0  0  0  0  0  0  0  0  0  0
   -1.5523   -2.2424   -4.0721 C   0  0  0  0  0  0  0  0  0  0  0  0
   -1.6455   -3.0106   -3.3176 H   0  0  0  0  0  0  0  0  0  0  0  0
   -1.0497   -0.9746   -3.7077 C   0  0  0  0  0  0  0  0  0  0  0  0
   -1.7617    0.8549   -0.2106 C   0  0  0  0  0  0  0  0  0  0  0  0
   -2.5726    1.1871   -1.0741 O   0  0  0  0  0  0  0  0  0  0  0  0
   -1.1941    1.7377    0.6223 N   0  0  0  0  0  0  0  0  0  0  0  0
   -0.4976    1.3916    1.2669 H   0  0  0  0  0  0  0  0  0  0  0  0
   -1.4666    3.1722    0.6095 C   0  0  0  0  0  0  0  0  0  0  0  0
   -2.5439    3.3427    0.6539 H   0  0  0  0  0  0  0  0  0  0  0  0
   -0.9893    3.6529    1.4644 H   0  0  0  0  0  0  0  0  0  0  0  0
   -1.0808    3.6095   -0.3129 H   0  0  0  0  0  0  0  0  0  0  0  0
  5  6  2  0  0  0  0
  5  7  1  0  0  0  0
  2  3  1  0  0  0  0
  2  4  1  0  0  0  0
  2  5  1  0  0  0  0
  1  2  1  0  0  0  0
 29 30  2  0  0  0  0
 29 31  1  0  0  0  0
 26 27  1  0  0  0  0
 26 28  2  0  0  0  0
 24 25  1  0  0  0  0
 24 26  1  0  0  0  0
 22 23  1  0  0  0  0
 22 24  2  0  0  0  0
 20 21  1  0  0  0  0
 20 22  1  0  0  0  0
 19 20  2  0  0  0  0
 19 28  1  0  0  0  0
 17 18  1  0  0  0  0
 17 19  1  0  0  0  0
 15 16  1  0  0  0  0
 15 17  1  0  0  0  0
 14 15  2  0  0  0  0
 14 28  1  0  0  0  0
 11 12  1  0  0  0  0
 11 13  1  0  0  0  0
 11 14  1  0  0  0  0
  9 10  1  0  0  0  0
  9 11  1  0  0  0  0
  9 29  1  0  0  0  0
  7  8  1  0  0  0  0
  7  9  1  0  0  0  0
 33 34  1  0  0  0  0
 33 35  1  0  0  0  0
 33 36  1  0  0  0  0
 31 32  1  0  0  0  0
 31 33  1  0  0  0  0
M  END
$$$$
default_name
  -OEChem-02102213163D

 36 37  0     1  0  0  0  0  0999 V2000
   -4.0843   -4.0736    1.2944 H   0  0  0  0  0  0  0  0  0  0  0  0
   -4.0342   -3.2816    0.5484 C   0  0  0  0  0  0  0  0  0  0  0  0
   -4.8842   -2.6126    0.6694 H   0  0  0  0  0  0  0  0  0  0  0  0
   -4.0433   -3.7186   -0.4486 H   0  0  0  0  0  0  0  0  0  0  0  0
   -2.7532   -2.5046    0.7444 C   0  0  0  0  0  0  0  0  0  0  0  0
   -1.9803   -2.8096    1.6434 O   0  0  0  0  0  0  0  0  0  0  0  0
   -2.5332   -1.4966   -0.0966 N   0  0  0  0  0  0  0  0  0  0  0  0
   -3.2312   -1.2816   -0.7936 H   0  0  0  0  0  0  0  0  0  0  0  0
   -1.3593   -0.6196   -0.0536 C   0  0  1  0  0  0  0  0  0  0  0  0
   -0.8788   -0.7266    0.9196 H   0  0  0  0  0  0  0  0  0  0  0  0
   -0.3559   -1.0533   -1.1339 C   0  0  0  0  0  0  0  0  0  0  0  0
    0.6546   -0.8368   -0.7825 H   0  0  0  0  0  0  0  0  0  0  0  0
   -0.4347   -2.1336   -1.2674 H   0  0  0  0  0  0  0  0  0  0  0  0
   -0.5332   -0.3955   -2.4687 C   0  0  0  0  0  0  0  0  0  0  0  0
    0.0538    0.7572   -2.8618 C   0  0  0  0  0  0  0  0  0  0  0  0
    0.7135    1.3559   -2.2434 H   0  0  0  0  0  0  0  0  0  0  0  0
   -0.2999    1.0365   -4.1673 N   0  0  0  0  0  0  0  0  0  0  0  0
    0.0192    1.8528   -4.6683 H   0  0  0  0  0  0  0  0  0  0  0  0
   -1.1244    0.0627   -4.6893 C   0  0  0  0  0  0  0  0  0  0  0  0
   -1.7150   -0.1190   -5.9481 C   0  0  0  0  0  0  0  0  0  0  0  0
   -1.5548    0.6012   -6.7370 H   0  0  0  0  0  0  0  0  0  0  0  0
   -2.5196   -1.2500   -6.1681 C   0  0  0  0  0  0  0  0  0  0  0  0
   -2.9841   -1.4062   -7.1323 H   0  0  0  0  0  0  0  0  0  0  0  0
   -2.7255   -2.1764   -5.1294 C   0  0  0  0  0  0  0  0  0  0  0  0
   -3.3520   -3.0409   -5.3004 H   0  0  0  0  0  0  0  0  0  0  0  0
   -2.1285   -1.9826   -3.8675 C   0  0  0  0  0  0  0  0  0  0  0  0
   -2.3058   -2.6950   -3.0743 H   0  0  0  0  0  0  0  0  0  0  0  0
   -1.3101   -0.8601   -3.6167 C   0  0  0  0  0  0  0  0  0  0  0  0
   -1.7617    0.8549   -0.2106 C   0  0  0  0  0  0  0  0  0  0  0  0
   -2.5726    1.1871   -1.0741 O   0  0  0  0  0  0  0  0  0  0  0  0
   -1.1941    1.7377    0.6223 N   0  0  0  0  0  0  0  0  0  0  0  0
   -0.4976    1.3916    1.2669 H   0  0  0  0  0  0  0  0  0  0  0  0
   -1.4666    3.1722    0.6095 C   0  0  0  0  0  0  0  0  0  0  0  0
   -2.5439    3.3427    0.6539 H   0  0  0  0  0  0  0  0  0  0  0  0
   -0.9893    3.6529    1.4644 H   0  0  0  0  0  0  0  0  0  0  0  0
   -1.0808    3.6095   -0.3129 H   0  0  0  0  0  0  0  0  0  0  0  0
  5  6  2  0  0  0  0
  5  7  1  0  0  0  0
  2  3  1  0  0  0  0
  2  4  1  0  0  0  0
  2  5  1  0  0  0  0
  1  2  1  0  0  0  0
 29 30  2  0  0  0  0
 29 31  1  0  0  0  0
 26 27  1  0  0  0  0
 26 28  2  0  0  0  0
 24 25  1  0  0  0  0
 24 26  1  0  0  0  0
 22 23  1  0  0  0  0
 22 24  2  0  0  0  0
 20 21  1  0  0  0  0
 20 22  1  0  0  0  0
 19 20  2  0  0  0  0
 19 28  1  0  0  0  0
 17 18  1  0  0  0  0
 17 19  1  0  0  0  0
 15 16  1  0  0  0  0
 15 17  1  0  0  0  0
 14 15  2  0  0  0  0
 14 28  1  0  0  0  0
 11 12  1  0  0  0  0
 11 13  1  0  0  0  0
 11 14  1  0  0  0  0
  9 10  1  0  0  0  0
  9 11  1  0  0  0  0
  9 29  1  0  0  0  0
  7  8  1  0  0  0  0
  7  9  1  0  0  0  0
 33 34  1  0  0  0  0
 33 35  1  0  0  0  0
 33 36  1  0  0  0  0
 31 32  1  0  0  0  0
 31 33  1  0  0  0  0
M  END
$$$$
default_name
  -OEChem-02102213163D

 36 37  0     1  0  0  0  0  0999 V2000
   -4.0843   -4.0736    1.2944 H   0  0  0  0  0  0  0  0  0  0  0  0
   -4.0342   -3.2816    0.5484 C   0  0  0  0  0  0  0  0  0  0  0  0
   -4.8842   -2.6126    0.6694 H   0  0  0  0  0  0  0  0  0  0  0  0
   -4.0433   -3.7186   -0.4486 H   0  0  0  0  0  0  0  0  0  0  0  0
   -2.7532   -2.5046    0.7444 C   0  0  0  0  0  0  0  0  0  0  0  0
   -1.9803   -2.8096    1.6434 O   0  0  0  0  0  0  0  0  0  0  0  0
   -2.5332   -1.4966   -0.0966 N   0  0  0  0  0  0  0  0  0  0  0  0
   -3.2312   -1.2816   -0.7936 H   0  0  0  0  0  0  0  0  0  0  0  0
   -1.3593   -0.6196   -0.0536 C   0  0  1  0  0  0  0  0  0  0  0  0
   -0.8788   -0.7266    0.9196 H   0  0  0  0  0  0  0  0  0  0  0  0
   -0.3559   -1.0533   -1.1339 C   0  0  0  0  0  0  0  0  0  0  0  0
    0.6546   -0.8368   -0.7825 H   0  0  0  0  0  0  0  0  0  0  0  0
   -0.4347   -2.1336   -1.2674 H   0  0  0  0  0  0  0  0  0  0  0  0
   -0.5332   -0.3955   -2.4687 C   0  0  0  0  0  0  0  0  0  0  0  0
    0.2517    0.5823   -2.9743 C   0  0  0  0  0  0  0  0  0  0  0  0
    1.0987    1.0221   -2.4591 H   0  0  0  0  0  0  0  0  0  0  0  0
   -0.1792    0.9135   -4.2440 N   0  0  0  0  0  0  0  0  0  0  0  0
    0.2572    1.6246   -4.8124 H   0  0  0  0  0  0  0  0  0  0  0  0
   -1.2600    0.1490   -4.6288 C   0  0  0  0  0  0  0  0  0  0  0  0
   -2.0198    0.0877   -5.8058 C   0  0  0  0  0  0  0  0  0  0  0  0
   -1.7927    0.7372   -6.6384 H   0  0  0  0  0  0  0  0  0  0  0  0
   -3.0819   -0.8291   -5.8859 C   0  0  0  0  0  0  0  0  0  0  0  0
   -3.6795   -0.8898   -6.7854 H   0  0  0  0  0  0  0  0  0  0  0  0
   -3.3711   -1.6642   -4.7912 C   0  0  0  0  0  0  0  0  0  0  0  0
   -4.1943   -2.3623   -4.8541 H   0  0  0  0  0  0  0  0  0  0  0  0
   -2.6019   -1.5926   -3.6124 C   0  0  0  0  0  0  0  0  0  0  0  0
   -2.8433   -2.2305   -2.7740 H   0  0  0  0  0  0  0  0  0  0  0  0
   -1.5248   -0.6867   -3.5027 C   0  0  0  0  0  0  0  0  0  0  0  0
   -1.7617    0.8549   -0.2106 C   0  0  0  0  0  0  0  0  0  0  0  0
   -2.5726    1.1871   -1.0741 O   0  0  0  0  0  0  0  0  0  0  0  0
   -1.1941    1.7377    0.6223 N   0  0  0  0  0  0  0  0  0  0  0  0
   -0.4976    1.3916    1.2669 H   0  0  0  0  0  0  0  0  0  0  0  0
   -1.4666    3.1722    0.6095 C   0  0  0  0  0  0  0  0  0  0  0  0
   -2.5439    3.3427    0.6539 H   0  0  0  0  0  0  0  0  0  0  0  0
   -0.9893    3.6529    1.4644 H   0  0  0  0  0  0  0  0  0  0  0  0
   -1.0808    3.6095   -0.3129 H   0  0  0  0  0  0  0  0  0  0  0  0
  5  6  2  0  0  0  0
  5  7  1  0  0  0  0
  2  3  1  0  0  0  0
  2  4  1  0  0  0  0
  2  5  1  0  0  0  0
  1  2  1  0  0  0  0
 29 30  2  0  0  0  0
 29 31  1  0  0  0  0
 26 27  1  0  0  0  0
 26 28  2  0  0  0  0
 24 25  1  0  0  0  0
 24 26  1  0  0  0  0
 22 23  1  0  0  0  0
 22 24  2  0  0  0  0
 20 21  1  0  0  0  0
 20 22  1  0  0  0  0
 19 20  2  0  0  0  0
 19 28  1  0  0  0  0
 17 18  1  0  0  0  0
 17 19  1  0  0  0  0
 15 16  1  0  0  0  0
 15 17  1  0  0  0  0
 14 15  2  0  0  0  0
 14 28  1  0  0  0  0
 11 12  1  0  0  0  0
 11 13  1  0  0  0  0
 11 14  1  0  0  0  0
  9 10  1  0  0  0  0
  9 11  1  0  0  0  0
  9 29  1  0  0  0  0
  7  8  1  0  0  0  0
  7  9  1  0  0  0  0
 33 34  1  0  0  0  0
 33 35  1  0  0  0  0
 33 36  1  0  0  0  0
 31 32  1  0  0  0  0
 31 33  1  0  0  0  0
M  END
$$$$
default_name
  -OEChem-02102213163D

 36 37  0     1  0  0  0  0  0999 V2000
   -4.0843   -4.0736    1.2944 H   0  0  0  0  0  0  0  0  0  0  0  0
   -4.0342   -3.2816    0.5484 C   0  0  0  0  0  0  0  0  0  0  0  0
   -4.8842   -2.6126    0.6694 H   0  0  0  0  0  0  0  0  0  0  0  0
   -4.0433   -3.7186   -0.4486 H   0  0  0  0  0  0  0  0  0  0  0  0
   -2.7532   -2.5046    0.7444 C   0  0  0  0  0  0  0  0  0  0  0  0
   -1.9803   -2.8096    1.6434 O   0  0  0  0  0  0  0  0  0  0  0  0
   -2.5332   -1.4966   -0.0966 N   0  0  0  0  0  0  0  0  0  0  0  0
   -3.2312   -1.2816   -0.7936 H   0  0  0  0  0  0  0  0  0  0  0  0
   -1.3593   -0.6196   -0.0536 C   0  0  1  0  0  0  0  0  0  0  0  0
   -0.8788   -0.7266    0.9196 H   0  0  0  0  0  0  0  0  0  0  0  0
   -0.3559   -1.0533   -1.1339 C   0  0  0  0  0  0  0  0  0  0  0  0
    0.6546   -0.8368   -0.7825 H   0  0  0  0  0  0  0  0  0  0  0  0
   -0.4347   -2.1336   -1.2674 H   0  0  0  0  0  0  0  0  0  0  0  0
   -0.5332   -0.3955   -2.4687 C   0  0  0  0  0  0  0  0  0  0  0  0
    0.3897    0.3643   -3.1000 C   0  0  0  0  0  0  0  0  0  0  0  0
    1.3692    0.6041   -2.7010 H   0  0  0  0  0  0  0  0  0  0  0  0
   -0.0997    0.7645   -4.3279 N   0  0  0  0  0  0  0  0  0  0  0  0
    0.4181    1.3449   -4.9717 H   0  0  0  0  0  0  0  0  0  0  0  0
   -1.3642    0.2654   -4.5575 C   0  0  0  0  0  0  0  0  0  0  0  0
   -2.2504    0.3620   -5.6400 C   0  0  0  0  0  0  0  0  0  0  0  0
   -1.9799    0.9264   -6.5202 H   0  0  0  0  0  0  0  0  0  0  0  0
   -3.4959   -0.2843   -5.5624 C   0  0  0  0  0  0  0  0  0  0  0  0
   -4.1928   -0.2200   -6.3871 H   0  0  0  0  0  0  0  0  0  0  0  0
   -3.8382   -1.0102   -4.4069 C   0  0  0  0  0  0  0  0  0  0  0  0
   -4.8008   -1.4990   -4.3481 H   0  0  0  0  0  0  0  0  0  0  0  0
   -2.9403   -1.0989   -3.3242 C   0  0  0  0  0  0  0  0  0  0  0  0
   -3.2212   -1.6487   -2.4371 H   0  0  0  0  0  0  0  0  0  0  0  0
   -1.6793   -0.4663   -3.3736 C   0  0  0  0  0  0  0  0  0  0  0  0
   -1.7617    0.8549   -0.2106 C   0  0  0  0  0  0  0  0  0  0  0  0
   -2.5726    1.1871   -1.0741 O   0  0  0  0  0  0  0  0  0  0  0  0
   -1.1941    1.7377    0.6223 N   0  0  0  0  0  0  0  0  0  0  0  0
   -0.4976    1.3916    1.2669 H   0  0  0  0  0  0  0  0  0  0  0  0
   -1.4666    3.1722    0.6095 C   0  0  0  0  0  0  0  0  0  0  0  0
   -2.5439    3.3427    0.6539 H   0  0  0  0  0  0  0  0  0  0  0  0
   -0.9893    3.6529    1.4644 H   0  0  0  0  0  0  0  0  0  0  0  0
   -1.0808    3.6095   -0.3129 H   0  0  0  0  0  0  0  0  0  0  0  0
  5  6  2  0  0  0  0
  5  7  1  0  0  0  0
  2  3  1  0  0  0  0
  2  4  1  0  0  0  0
  2  5  1  0  0  0  0
  1  2  1  0  0  0  0
 29 30  2  0  0  0  0
 29 31  1  0  0  0  0
 26 27  1  0  0  0  0
 26 28  2  0  0  0  0
 24 25  1  0  0  0  0
 24 26  1  0  0  0  0
 22 23  1  0  0  0  0
 22 24  2  0  0  0  0
 20 21  1  0  0  0  0
 20 22  1  0  0  0  0
 19 20  2  0  0  0  0
 19 28  1  0  0  0  0
 17 18  1  0  0  0  0
 17 19  1  0  0  0  0
 15 16  1  0  0  0  0
 15 17  1  0  0  0  0
 14 15  2  0  0  0  0
 14 28  1  0  0  0  0
 11 12  1  0  0  0  0
 11 13  1  0  0  0  0
 11 14  1  0  0  0  0
  9 10  1  0  0  0  0
  9 11  1  0  0  0  0
  9 29  1  0  0  0  0
  7  8  1  0  0  0  0
  7  9  1  0  0  0  0
 33 34  1  0  0  0  0
 33 35  1  0  0  0  0
 33 36  1  0  0  0  0
 31 32  1  0  0  0  0
 31 33  1  0  0  0  0
M  END
$$$$
default_name
  -OEChem-02102213163D

 36 37  0     1  0  0  0  0  0999 V2000
   -4.0843   -4.0736    1.2944 H   0  0  0  0  0  0  0  0  0  0  0  0
   -4.0342   -3.2816    0.5484 C   0  0  0  0  0  0  0  0  0  0  0  0
   -4.8842   -2.6126    0.6694 H   0  0  0  0  0  0  0  0  0  0  0  0
   -4.0433   -3.7186   -0.4486 H   0  0  0  0  0  0  0  0  0  0  0  0
   -2.7532   -2.5046    0.7444 C   0  0  0  0  0  0  0  0  0  0  0  0
   -1.9803   -2.8096    1.6434 O   0  0  0  0  0  0  0  0  0  0  0  0
   -2.5332   -1.4966   -0.0966 N   0  0  0  0  0  0  0  0  0  0  0  0
   -3.2312   -1.2816   -0.7936 H   0  0  0  0  0  0  0  0  0  0  0  0
   -1.3593   -0.6196   -0.0536 C   0  0  1  0  0  0  0  0  0  0  0  0
   -0.8788   -0.7266    0.9196 H   0  0  0  0  0  0  0  0  0  0  0  0
   -0.3559   -1.0533   -1.1339 C   0  0  0  0  0  0  0  0  0  0  0  0
    0.6546   -0.8368   -0.7825 H   0  0  0  0  0  0  0  0  0  0  0  0
   -0.4347   -2.1336   -1.2674 H   0  0  0  0  0  0  0  0  0  0  0  0
   -0.5332   -0.3955   -2.4687 C   0  0  0  0  0  0  0  0  0  0  0  0
    0.4585    0.1181   -3.2305 C   0  0  0  0  0  0  0  0  0  0  0  0
    1.5068    0.1307   -2.9526 H   0  0  0  0  0  0  0  0  0  0  0  0
   -0.0668    0.5997   -4.4135 N   0  0  0  0  0  0  0  0  0  0  0  0
    0.4909    1.0327   -5.1352 H   0  0  0  0  0  0  0  0  0  0  0  0
   -1.4299    0.4041   -4.4805 C   0  0  0  0  0  0  0  0  0  0  0  0
   -2.3911    0.6852   -5.4620 C   0  0  0  0  0  0  0  0  0  0  0  0
   -2.1038    1.1560   -6.3906 H   0  0  0  0  0  0  0  0  0  0  0  0
   -3.7335    0.3473   -5.2196 C   0  0  0  0  0  0  0  0  0  0  0  0
   -4.4889    0.5574   -5.9647 H   0  0  0  0  0  0  0  0  0  0  0  0
   -4.0949   -0.2592   -4.0026 C   0  0  0  0  0  0  0  0  0  0  0  0
   -5.1301   -0.5098   -3.8169 H   0  0  0  0  0  0  0  0  0  0  0  0
   -3.1206   -0.5352   -3.0224 C   0  0  0  0  0  0  0  0  0  0  0  0
   -3.4138   -0.9892   -2.0865 H   0  0  0  0  0  0  0  0  0  0  0  0
   -1.7630   -0.2138   -3.2380 C   0  0  0  0  0  0  0  0  0  0  0  0
   -1.7617    0.8549   -0.2106 C   0  0  0  0  0  0  0  0  0  0  0  0
   -2.5726    1.1871   -1.0741 O   0  0  0  0  0  0  0  0  0  0  0  0
   -1.1941    1.7377    0.6223 N   0  0  0  0  0  0  0  0  0  0  0  0
   -0.4976    1.3916    1.2669 H   0  0  0  0  0  0  0  0  0  0  0  0
   -1.4666    3.1722    0.6095 C   0  0  0  0  0  0  0  0  0  0  0  0
   -2.5439    3.3427    0.6539 H   0  0  0  0  0  0  0  0  0  0  0  0
   -0.9893    3.6529    1.4644 H   0  0  0  0  0  0  0  0  0  0  0  0
   -1.0808    3.6095   -0.3129 H   0  0  0  0  0  0  0  0  0  0  0  0
  5  6  2  0  0  0  0
  5  7  1  0  0  0  0
  2  3  1  0  0  0  0
  2  4  1  0  0  0  0
  2  5  1  0  0  0  0
  1  2  1  0  0  0  0
 29 30  2  0  0  0  0
 29 31  1  0  0  0  0
 26 27  1  0  0  0  0
 26 28  2  0  0  0  0
 24 25  1  0  0  0  0
 24 26  1  0  0  0  0
 22 23  1  0  0  0  0
 22 24  2  0  0  0  0
 20 21  1  0  0  0  0
 20 22  1  0  0  0  0
 19 20  2  0  0  0  0
 19 28  1  0  0  0  0
 17 18  1  0  0  0  0
 17 19  1  0  0  0  0
 15 16  1  0  0  0  0
 15 17  1  0  0  0  0
 14 15  2  0  0  0  0
 14 28  1  0  0  0  0
 11 12  1  0  0  0  0
 11 13  1  0  0  0  0
 11 14  1  0  0  0  0
  9 10  1  0  0  0  0
  9 11  1  0  0  0  0
  9 29  1  0  0  0  0
  7  8  1  0  0  0  0
  7  9  1  0  0  0  0
 33 34  1  0  0  0  0
 33 35  1  0  0  0  0
 33 36  1  0  0  0  0
 31 32  1  0  0  0  0
 31 33  1  0  0  0  0
M  END
$$$$
default_name
  -OEChem-02102213163D

 36 37  0     1  0  0  0  0  0999 V2000
   -4.0843   -4.0736    1.2944 H   0  0  0  0  0  0  0  0  0  0  0  0
   -4.0342   -3.2816    0.5484 C   0  0  0  0  0  0  0  0  0  0  0  0
   -4.8842   -2.6126    0.6694 H   0  0  0  0  0  0  0  0  0  0  0  0
   -4.0433   -3.7186   -0.4486 H   0  0  0  0  0  0  0  0  0  0  0  0
   -2.7532   -2.5046    0.7444 C   0  0  0  0  0  0  0  0  0  0  0  0
   -1.9803   -2.8096    1.6434 O   0  0  0  0  0  0  0  0  0  0  0  0
   -2.5332   -1.4966   -0.0966 N   0  0  0  0  0  0  0  0  0  0  0  0
   -3.2312   -1.2816   -0.7936 H   0  0  0  0  0  0  0  0  0  0  0  0
   -1.3593   -0.6196   -0.0536 C   0  0  1  0  0  0  0  0  0  0  0  0
   -0.8788   -0.7266    0.9196 H   0  0  0  0  0  0  0  0  0  0  0  0
   -0.3559   -1.0533   -1.1339 C   0  0  0  0  0  0  0  0  0  0  0  0
    0.6546   -0.8368   -0.7825 H   0  0  0  0  0  0  0  0  0  0  0  0
   -0.4347   -2.1336   -1.2674 H   0  0  0  0  0  0  0  0  0  0  0  0
   -0.5332   -0.3955   -2.4687 C   0  0  0  0  0  0  0  0  0  0  0  0
    0.4534   -0.1396   -3.3568 C   0  0  0  0  0  0  0  0  0  0  0  0
    1.5019   -0.3660   -3.1968 H   0  0  0  0  0  0  0  0  0  0  0  0
   -0.0827    0.4304   -4.4949 N   0  0  0  0  0  0  0  0  0  0  0  0
    0.4707    0.7093   -5.2918 H   0  0  0  0  0  0  0  0  0  0  0  0
   -1.4526    0.5556   -4.4028 C   0  0  0  0  0  0  0  0  0  0  0  0
   -2.4323    1.0352   -5.2840 C   0  0  0  0  0  0  0  0  0  0  0  0
   -2.1557    1.4103   -6.2584 H   0  0  0  0  0  0  0  0  0  0  0  0
   -3.7785    1.0227   -4.8808 C   0  0  0  0  0  0  0  0  0  0  0  0
   -4.5477    1.3896   -5.5467 H   0  0  0  0  0  0  0  0  0  0  0  0
   -4.1238    0.5379   -3.6060 C   0  0  0  0  0  0  0  0  0  0  0  0
   -5.1599    0.5378   -3.2966 H   0  0  0  0  0  0  0  0  0  0  0  0
   -3.1305    0.0601   -2.7277 C   0  0  0  0  0  0  0  0  0  0  0  0
   -3.4081   -0.2971   -1.7462 H   0  0  0  0  0  0  0  0  0  0  0  0
   -1.7703    0.0536   -3.1053 C   0  0  0  0  0  0  0  0  0  0  0  0
   -1.7617    0.8549   -0.2106 C   0  0  0  0  0  0  0  0  0  0  0  0
   -2.5726    1.1871   -1.0741 O   0  0  0  0  0  0  0  0  0  0  0  0
   -1.1941    1.7377    0.6223 N   0  0  0  0  0  0  0  0  0  0  0  0
   -0.4976    1.3916    1.2669 H   0  0  0  0  0  0  0  0  0  0  0  0
   -1.4666    3.1722    0.6095 C   0  0  0  0  0  0  0  0  0  0  0  0
   -2.5439    3.3427    0.6539 H   0  0  0  0  0  0  0  0  0  0  0  0
   -0.9893    3.6529    1.4644 H   0  0  0  0  0  0  0  0  0  0  0  0
   -1.0808    3.6095   -0.3129 H   0  0  0  0  0  0  0  0  0  0  0  0
  5  6  2  0  0  0  0
  5  7  1  0  0  0  0
  2  3  1  0  0  0  0
  2  4  1  0  0  0  0
  2  5  1  0  0  0  0
  1  2  1  0  0  0  0
 29 30  2  0  0  0  0
 29 31  1  0  0  0  0
 26 27  1  0  0  0  0
 26 28  2  0  0  0  0
 24 25  1  0  0  0  0
 24 26  1  0  0  0  0
 22 23  1  0  0  0  0
 22 24  2  0  0  0  0
 20 21  1  0  0  0  0
 20 22  1  0  0  0  0
 19 20  2  0  0  0  0
 19 28  1  0  0  0  0
 17 18  1  0  0  0  0
 17 19  1  0  0  0  0
 15 16  1  0  0  0  0
 15 17  1  0  0  0  0
 14 15  2  0  0  0  0
 14 28  1  0  0  0  0
 11 12  1  0  0  0  0
 11 13  1  0  0  0  0
 11 14  1  0  0  0  0
  9 10  1  0  0  0  0
  9 11  1  0  0  0  0
  9 29  1  0  0  0  0
  7  8  1  0  0  0  0
  7  9  1  0  0  0  0
 33 34  1  0  0  0  0
 33 35  1  0  0  0  0
 33 36  1  0  0  0  0
 31 32  1  0  0  0  0
 31 33  1  0  0  0  0
M  END
$$$$
default_name
  -OEChem-02102213163D

 36 37  0     1  0  0  0  0  0999 V2000
   -4.0843   -4.0736    1.2944 H   0  0  0  0  0  0  0  0  0  0  0  0
   -4.0342   -3.2816    0.5484 C   0  0  0  0  0  0  0  0  0  0  0  0
   -4.8842   -2.6126    0.6694 H   0  0  0  0  0  0  0  0  0  0  0  0
   -4.0433   -3.7186   -0.4486 H   0  0  0  0  0  0  0  0  0  0  0  0
   -2.7532   -2.5046    0.7444 C   0  0  0  0  0  0  0  0  0  0  0  0
   -1.9803   -2.8096    1.6434 O   0  0  0  0  0  0  0  0  0  0  0  0
   -2.5332   -1.4966   -0.0966 N   0  0  0  0  0  0  0  0  0  0  0  0
   -3.2312   -1.2816   -0.7936 H   0  0  0  0  0  0  0  0  0  0  0  0
   -1.3593   -0.6196   -0.0536 C   0  0  1  0  0  0  0  0  0  0  0  0
   -0.8788   -0.7266    0.9196 H   0  0  0  0  0  0  0  0  0  0  0  0
   -0.3559   -1.0533   -1.1339 C   0  0  0  0  0  0  0  0  0  0  0  0
    0.6546   -0.8368   -0.7825 H   0  0  0  0  0  0  0  0  0  0  0  0
   -0.4347   -2.1336   -1.2674 H   0  0  0  0  0  0  0  0  0  0  0  0
   -0.5332   -0.3955   -2.4687 C   0  0  0  0  0  0  0  0  0  0  0  0
    0.3747   -0.3912   -3.4704 C   0  0  0  0  0  0  0  0  0  0  0  0
    1.3549   -0.8522   -3.4168 H   0  0  0  0  0  0  0  0  0  0  0  0
   -0.1464    0.2679   -4.5665 N   0  0  0  0  0  0  0  0  0  0  0  0
    0.3588    0.3969   -5.4310 H   0  0  0  0  0  0  0  0  0  0  0  0
   -1.4308    0.7095   -4.3298 C   0  0  0  0  0  0  0  0  0  0  0  0
   -2.3711    1.3883   -5.1182 C   0  0  0  0  0  0  0  0  0  0  0  0
   -2.1323    1.6719   -6.1326 H   0  0  0  0  0  0  0  0  0  0  0  0
   -3.6277    1.6958   -4.5691 C   0  0  0  0  0  0  0  0  0  0  0  0
   -4.3652    2.2198   -5.1619 H   0  0  0  0  0  0  0  0  0  0  0  0
   -3.9230    1.3266   -3.2440 C   0  0  0  0  0  0  0  0  0  0  0  0
   -4.8879    1.5726   -2.8228 H   0  0  0  0  0  0  0  0  0  0  0  0
   -2.9694    0.6464   -2.4602 C   0  0  0  0  0  0  0  0  0  0  0  0
   -3.2043    0.3805   -1.4393 H   0  0  0  0  0  0  0  0  0  0  0  0
   -1.7006    0.3176   -2.9844 C   0  0  0  0  0  0  0  0  0  0  0  0
   -1.7617    0.8549   -0.2106 C   0  0  0  0  0  0  0  0  0  0  0  0
   -2.5726    1.1871   -1.0741 O   0  0  0  0  0  0  0  0  0  0  0  0
   -1.1941    1.7377    0.6223 N   0  0  0  0  0  0  0  0  0  0  0  0
   -0.4976    1.3916    1.2669 H   0  0  0  0  0  0  0  0  0  0  0  0
   -1.4666    3.1722    0.6095 C   0  0  0  0  0  0  0  0  0  0  0  0
   -2.5439    3.3427    0.6539 H   0  0  0  0  0  0  0  0  0  0  0  0
   -0.9893    3.6529    1.4644 H   0  0  0  0  0  0  0  0  0  0  0  0
   -1.0808    3.6095   -0.3129 H   0  0  0  0  0  0  0  0  0  0  0  0
  5  6  2  0  0  0  0
  5  7  1  0  0  0  0
  2  3  1  0  0  0  0
  2  4  1  0  0  0  0
  2  5  1  0  0  0  0
  1  2  1  0  0  0  0
 29 30  2  0  0  0  0
 29 31  1  0  0  0  0
 26 27  1  0  0  0  0
 26 28  2  0  0  0  0
 24 25  1  0  0  0  0
 24 26  1  0  0  0  0
 22 23  1  0  0  0  0
 22 24  2  0  0  0  0
 20 21  1  0  0  0  0
 20 22  1  0  0  0  0
 19 20  2  0  0  0  0
 19 28  1  0  0  0  0
 17 18  1  0  0  0  0
 17 19  1  0  0  0  0
 15 16  1  0  0  0  0
 15 17  1  0  0  0  0
 14 15  2  0  0  0  0
 14 28  1  0  0  0  0
 11 12  1  0  0  0  0
 11 13  1  0  0  0  0
 11 14  1  0  0  0  0
  9 10  1  0  0  0  0
  9 11  1  0  0  0  0
  9 29  1  0  0  0  0
  7  8  1  0  0  0  0
  7  9  1  0  0  0  0
 33 34  1  0  0  0  0
 33 35  1  0  0  0  0
 33 36  1  0  0  0  0
 31 32  1  0  0  0  0
 31 33  1  0  0  0  0
M  END
$$$$
default_name
  -OEChem-02102213163D

 36 37  0     1  0  0  0  0  0999 V2000
   -4.0843   -4.0736    1.2944 H   0  0  0  0  0  0  0  0  0  0  0  0
   -4.0342   -3.2816    0.5484 C   0  0  0  0  0  0  0  0  0  0  0  0
   -4.8842   -2.6126    0.6694 H   0  0  0  0  0  0  0  0  0  0  0  0
   -4.0433   -3.7186   -0.4486 H   0  0  0  0  0  0  0  0  0  0  0  0
   -2.7532   -2.5046    0.7444 C   0  0  0  0  0  0  0  0  0  0  0  0
   -1.9803   -2.8096    1.6434 O   0  0  0  0  0  0  0  0  0  0  0  0
   -2.5332   -1.4966   -0.0966 N   0  0  0  0  0  0  0  0  0  0  0  0
   -3.2312   -1.2816   -0.7936 H   0  0  0  0  0  0  0  0  0  0  0  0
   -1.3593   -0.6196   -0.0536 C   0  0  1  0  0  0  0  0  0  0  0  0
   -0.8788   -0.7266    0.9196 H   0  0  0  0  0  0  0  0  0  0  0  0
   -0.3559   -1.0533   -1.1339 C   0  0  0  0  0  0  0  0  0  0  0  0
    0.6417   -1.0908   -0.6926 H   0  0  0  0  0  0  0  0  0  0  0  0
   -0.6110   -2.0632   -1.4595 H   0  0  0  0  0  0  0  0  0  0  0  0
   -0.2959   -0.1662   -2.3403 C   0  0  0  0  0  0  0  0  0  0  0  0
    0.5080   -0.3489   -3.4118 C   0  0  0  0  0  0  0  0  0  0  0  0
    1.2240   -1.1569   -3.5156 H   0  0  0  0  0  0  0  0  0  0  0  0
    0.2607    0.6334   -4.3506 N   0  0  0  0  0  0  0  0  0  0  0  0
    0.7493    0.6975   -5.2317 H   0  0  0  0  0  0  0  0  0  0  0  0
   -0.7332    1.4938   -3.9351 C   0  0  0  0  0  0  0  0  0  0  0  0
   -1.3477    2.6058   -4.5286 C   0  0  0  0  0  0  0  0  0  0  0  0
   -1.0459    2.9387   -5.5108 H   0  0  0  0  0  0  0  0  0  0  0  0
   -2.3602    3.2820   -3.8267 C   0  0  0  0  0  0  0  0  0  0  0  0
   -2.8447    4.1423   -4.2682 H   0  0  0  0  0  0  0  0  0  0  0  0
   -2.7384    2.8419   -2.5450 C   0  0  0  0  0  0  0  0  0  0  0  0
   -3.5121    3.3701   -2.0051 H   0  0  0  0  0  0  0  0  0  0  0  0
   -2.1125    1.7242   -1.9574 C   0  0  0  0  0  0  0  0  0  0  0  0
   -2.4034    1.4048   -0.9667 H   0  0  0  0  0  0  0  0  0  0  0  0
   -1.0966    1.0199   -2.6390 C   0  0  0  0  0  0  0  0  0  0  0  0
   -1.7617    0.8549   -0.2106 C   0  0  0  0  0  0  0  0  0  0  0  0
   -2.5726    1.1871   -1.0741 O   0  0  0  0  0  0  0  0  0  0  0  0
   -1.1941    1.7377    0.6223 N   0  0  0  0  0  0  0  0  0  0  0  0
   -0.4976    1.3916    1.2669 H   0  0  0  0  0  0  0  0  0  0  0  0
   -1.4666    3.1722    0.6095 C   0  0  0  0  0  0  0  0  0  0  0  0
   -2.5439    3.3427    0.6539 H   0  0  0  0  0  0  0  0  0  0  0  0
   -0.9893    3.6529    1.4644 H   0  0  0  0  0  0  0  0  0  0  0  0
   -1.0808    3.6095   -0.3129 H   0  0  0  0  0  0  0  0  0  0  0  0
  5  6  2  0  0  0  0
  5  7  1  0  0  0  0
  2  3  1  0  0  0  0
  2  4  1  0  0  0  0
  2  5  1  0  0  0  0
  1  2  1  0  0  0  0
 29 30  2  0  0  0  0
 29 31  1  0  0  0  0
 26 27  1  0  0  0  0
 26 28  2  0  0  0  0
 24 25  1  0  0  0  0
 24 26  1  0  0  0  0
 22 23  1  0  0  0  0
 22 24  2  0  0  0  0
 20 21  1  0  0  0  0
 20 22  1  0  0  0  0
 19 20  2  0  0  0  0
 19 28  1  0  0  0  0
 17 18  1  0  0  0  0
 17 19  1  0  0  0  0
 15 16  1  0  0  0  0
 15 17  1  0  0  0  0
 14 15  2  0  0  0  0
 14 28  1  0  0  0  0
 11 12  1  0  0  0  0
 11 13  1  0  0  0  0
 11 14  1  0  0  0  0
  9 10  1  0  0  0  0
  9 11  1  0  0  0  0
  9 29  1  0  0  0  0
  7  8  1  0  0  0  0
  7  9  1  0  0  0  0
 33 34  1  0  0  0  0
 33 35  1  0  0  0  0
 33 36  1  0  0  0  0
 31 32  1  0  0  0  0
 31 33  1  0  0  0  0
M  END
$$$$
default_name
  -OEChem-02102213163D

 36 37  0     1  0  0  0  0  0999 V2000
   -4.0843   -4.0736    1.2944 H   0  0  0  0  0  0  0  0  0  0  0  0
   -4.0342   -3.2816    0.5484 C   0  0  0  0  0  0  0  0  0  0  0  0
   -4.8842   -2.6126    0.6694 H   0  0  0  0  0  0  0  0  0  0  0  0
   -4.0433   -3.7186   -0.4486 H   0  0  0  0  0  0  0  0  0  0  0  0
   -2.7532   -2.5046    0.7444 C   0  0  0  0  0  0  0  0  0  0  0  0
   -1.9803   -2.8096    1.6434 O   0  0  0  0  0  0  0  0  0  0  0  0
   -2.5332   -1.4966   -0.0966 N   0  0  0  0  0  0  0  0  0  0  0  0
   -3.2312   -1.2816   -0.7936 H   0  0  0  0  0  0  0  0  0  0  0  0
   -1.3593   -0.6196   -0.0536 C   0  0  1  0  0  0  0  0  0  0  0  0
   -0.8788   -0.7266    0.9196 H   0  0  0  0  0  0  0  0  0  0  0  0
   -0.3559   -1.0533   -1.1339 C   0  0  0  0  0  0  0  0  0  0  0  0
    0.6417   -1.0908   -0.6926 H   0  0  0  0  0  0  0  0  0  0  0  0
   -0.6110   -2.0632   -1.4595 H   0  0  0  0  0  0  0  0  0  0  0  0
   -0.2959   -0.1662   -2.3403 C   0  0  0  0  0  0  0  0  0  0  0  0
    0.2795   -0.4832   -3.5219 C   0  0  0  0  0  0  0  0  0  0  0  0
    0.7863   -1.4191   -3.7302 H   0  0  0  0  0  0  0  0  0  0  0  0
    0.1032    0.5537   -4.4170 N   0  0  0  0  0  0  0  0  0  0  0  0
    0.4546    0.5384   -5.3633 H   0  0  0  0  0  0  0  0  0  0  0  0
   -0.6137    1.5903   -3.8582 C   0  0  0  0  0  0  0  0  0  0  0  0
   -1.0650    2.8210   -4.3563 C   0  0  0  0  0  0  0  0  0  0  0  0
   -0.8533    3.1100   -5.3753 H   0  0  0  0  0  0  0  0  0  0  0  0
   -1.7949    3.6736   -3.5105 C   0  0  0  0  0  0  0  0  0  0  0  0
   -2.1501    4.6273   -3.8770 H   0  0  0  0  0  0  0  0  0  0  0  0
   -2.0573    3.2877   -2.1833 C   0  0  0  0  0  0  0  0  0  0  0  0
   -2.6121    3.9504   -1.5336 H   0  0  0  0  0  0  0  0  0  0  0  0
   -1.5971    2.0492   -1.6928 C   0  0  0  0  0  0  0  0  0  0  0  0
   -1.7942    1.7709   -0.6672 H   0  0  0  0  0  0  0  0  0  0  0  0
   -0.8667    1.1677   -2.5189 C   0  0  0  0  0  0  0  0  0  0  0  0
   -1.7617    0.8549   -0.2106 C   0  0  0  0  0  0  0  0  0  0  0  0
   -2.5726    1.1871   -1.0741 O   0  0  0  0  0  0  0  0  0  0  0  0
   -1.1941    1.7377    0.6223 N   0  0  0  0  0  0  0  0  0  0  0  0
   -0.4976    1.3916    1.2669 H   0  0  0  0  0  0  0  0  0  0  0  0
   -1.4666    3.1722    0.6095 C   0  0  0  0  0  0  0  0  0  0  0  0
   -2.5439    3.3427    0.6539 H   0  0  0  0  0  0  0  0  0  0  0  0
   -0.9893    3.6529    1.4644 H   0  0  0  0  0  0  0  0  0  0  0  0
   -1.0808    3.6095   -0.3129 H   0  0  0  0  0  0  0  0  0  0  0  0
  5  6  2  0  0  0  0
  5  7  1  0  0  0  0
  2  3  1  0  0  0  0
  2  4  1  0  0  0  0
  2  5  1  0  0  0  0
  1  2  1  0  0  0  0
 29 30  2  0  0  0  0
 29 31  1  0  0  0  0
 26 27  1  0  0  0  0
 26 28  2  0  0  0  0
 24 25  1  0  0  0  0
 24 26  1  0  0  0  0
 22 23  1  0  0  0  0
 22 24  2  0  0  0  0
 20 21  1  0  0  0  0
 20 22  1  0  0  0  0
 19 20  2  0  0  0  0
 19 28  1  0  0  0  0
 17 18  1  0  0  0  0
 17 19  1  0  0  0  0
 15 16  1  0  0  0  0
 15 17  1  0  0  0  0
 14 15  2  0  0  0  0
 14 28  1  0  0  0  0
 11 12  1  0  0  0  0
 11 13  1  0  0  0  0
 11 14  1  0  0  0  0
  9 10  1  0  0  0  0
  9 11  1  0  0  0  0
  9 29  1  0  0  0  0
  7  8  1  0  0  0  0
  7  9  1  0  0  0  0
 33 34  1  0  0  0  0
 33 35  1  0  0  0  0
 33 36  1  0  0  0  0
 31 32  1  0  0  0  0
 31 33  1  0  0  0  0
M  END
$$$$
default_name
  -OEChem-02102213163D

 36 37  0     1  0  0  0  0  0999 V2000
   -4.0843   -4.0736    1.2944 H   0  0  0  0  0  0  0  0  0  0  0  0
   -4.0342   -3.2816    0.5484 C   0  0  0  0  0  0  0  0  0  0  0  0
   -4.8842   -2.6126    0.6694 H   0  0  0  0  0  0  0  0  0  0  0  0
   -4.0433   -3.7186   -0.4486 H   0  0  0  0  0  0  0  0  0  0  0  0
   -2.7532   -2.5046    0.7444 C   0  0  0  0  0  0  0  0  0  0  0  0
   -1.9803   -2.8096    1.6434 O   0  0  0  0  0  0  0  0  0  0  0  0
   -2.5332   -1.4966   -0.0966 N   0  0  0  0  0  0  0  0  0  0  0  0
   -3.2312   -1.2816   -0.7936 H   0  0  0  0  0  0  0  0  0  0  0  0
   -1.3593   -0.6196   -0.0536 C   0  0  1  0  0  0  0  0  0  0  0  0
   -0.8788   -0.7266    0.9196 H   0  0  0  0  0  0  0  0  0  0  0  0
   -0.3559   -1.0533   -1.1339 C   0  0  0  0  0  0  0  0  0  0  0  0
    0.6417   -1.0908   -0.6926 H   0  0  0  0  0  0  0  0  0  0  0  0
   -0.6110   -2.0632   -1.4595 H   0  0  0  0  0  0  0  0  0  0  0  0
   -0.2959   -0.1662   -2.3403 C   0  0  0  0  0  0  0  0  0  0  0  0
    0.0139   -0.5642   -3.5946 C   0  0  0  0  0  0  0  0  0  0  0  0
    0.2760   -1.5790   -3.8731 H   0  0  0  0  0  0  0  0  0  0  0  0
   -0.0757    0.5102   -4.4579 N   0  0  0  0  0  0  0  0  0  0  0  0
    0.1166    0.4475   -5.4470 H   0  0  0  0  0  0  0  0  0  0  0  0
   -0.4664    1.6578   -3.8013 C   0  0  0  0  0  0  0  0  0  0  0  0
   -0.7207    2.9681   -4.2310 C   0  0  0  0  0  0  0  0  0  0  0  0
   -0.6107    3.2339   -5.2721 H   0  0  0  0  0  0  0  0  0  0  0  0
   -1.1187    3.9309   -3.2877 C   0  0  0  0  0  0  0  0  0  0  0  0
   -1.3182    4.9469   -3.6006 H   0  0  0  0  0  0  0  0  0  0  0  0
   -1.2511    3.5727   -1.9337 C   0  0  0  0  0  0  0  0  0  0  0  0
   -1.5495    4.3185   -1.2100 H   0  0  0  0  0  0  0  0  0  0  0  0
   -0.9910    2.2530   -1.5128 C   0  0  0  0  0  0  0  0  0  0  0  0
   -1.0836    1.9945   -0.4675 H   0  0  0  0  0  0  0  0  0  0  0  0
   -0.5955    1.2614   -2.4365 C   0  0  0  0  0  0  0  0  0  0  0  0
   -1.7617    0.8549   -0.2106 C   0  0  0  0  0  0  0  0  0  0  0  0
   -2.5726    1.1871   -1.0741 O   0  0  0  0  0  0  0  0  0  0  0  0
   -1.1941    1.7377    0.6223 N   0  0  0  0  0  0  0  0  0  0  0  0
   -0.4976    1.3916    1.2669 H   0  0  0  0  0  0  0  0  0  0  0  0
   -1.4666    3.1722    0.6095 C   0  0  0  0  0  0  0  0  0  0  0  0
   -2.5439    3.3427    0.6539 H   0  0  0  0  0  0  0  0  0  0  0  0
   -0.9893    3.6529    1.4644 H   0  0  0  0  0  0  0  0  0  0  0  0
   -1.0808    3.6095   -0.3129 H   0  0  0  0  0  0  0  0  0  0  0  0
  5  6  2  0  0  0  0
  5  7  1  0  0  0  0
  2  3  1  0  0  0  0
  2  4  1  0  0  0  0
  2  5  1  0  0  0  0
  1  2  1  0  0  0  0
 29 30  2  0  0  0  0
 29 31  1  0  0  0  0
 26 27  1  0  0  0  0
 26 28  2  0  0  0  0
 24 25  1  0  0  0  0
 24 26  1  0  0  0  0
 22 23  1  0  0  0  0
 22 24  2  0  0  0  0
 20 21  1  0  0  0  0
 20 22  1  0  0  0  0
 19 20  2  0  0  0  0
 19 28  1  0  0  0  0
 17 18  1  0  0  0  0
 17 19  1  0  0  0  0
 15 16  1  0  0  0  0
 15 17  1  0  0  0  0
 14 15  2  0  0  0  0
 14 28  1  0  0  0  0
 11 12  1  0  0  0  0
 11 13  1  0  0  0  0
 11 14  1  0  0  0  0
  9 10  1  0  0  0  0
  9 11  1  0  0  0  0
  9 29  1  0  0  0  0
  7  8  1  0  0  0  0
  7  9  1  0  0  0  0
 33 34  1  0  0  0  0
 33 35  1  0  0  0  0
 33 36  1  0  0  0  0
 31 32  1  0  0  0  0
 31 33  1  0  0  0  0
M  END
$$$$
default_name
  -OEChem-02102213163D

 36 37  0     1  0  0  0  0  0999 V2000
   -4.0843   -4.0736    1.2944 H   0  0  0  0  0  0  0  0  0  0  0  0
   -4.0342   -3.2816    0.5484 C   0  0  0  0  0  0  0  0  0  0  0  0
   -4.8842   -2.6126    0.6694 H   0  0  0  0  0  0  0  0  0  0  0  0
   -4.0433   -3.7186   -0.4486 H   0  0  0  0  0  0  0  0  0  0  0  0
   -2.7532   -2.5046    0.7444 C   0  0  0  0  0  0  0  0  0  0  0  0
   -1.9803   -2.8096    1.6434 O   0  0  0  0  0  0  0  0  0  0  0  0
   -2.5332   -1.4966   -0.0966 N   0  0  0  0  0  0  0  0  0  0  0  0
   -3.2312   -1.2816   -0.7936 H   0  0  0  0  0  0  0  0  0  0  0  0
   -1.3593   -0.6196   -0.0536 C   0  0  1  0  0  0  0  0  0  0  0  0
   -0.8788   -0.7266    0.9196 H   0  0  0  0  0  0  0  0  0  0  0  0
   -0.3559   -1.0533   -1.1339 C   0  0  0  0  0  0  0  0  0  0  0  0
    0.6417   -1.0908   -0.6926 H   0  0  0  0  0  0  0  0  0  0  0  0
   -0.6110   -2.0632   -1.4595 H   0  0  0  0  0  0  0  0  0  0  0  0
   -0.2959   -0.1662   -2.3403 C   0  0  0  0  0  0  0  0  0  0  0  0
   -0.2707   -0.5863   -3.6251 C   0  0  0  0  0  0  0  0  0  0  0  0
   -0.2721   -1.6256   -3.9347 H   0  0  0  0  0  0  0  0  0  0  0  0
   -0.2638    0.5058   -4.4705 N   0  0  0  0  0  0  0  0  0  0  0  0
   -0.2416    0.4310   -5.4770 H   0  0  0  0  0  0  0  0  0  0  0  0
   -0.3013    1.6916   -3.7682 C   0  0  0  0  0  0  0  0  0  0  0  0
   -0.3382    3.0372   -4.1611 C   0  0  0  0  0  0  0  0  0  0  0  0
   -0.3348    3.3020   -5.2083 H   0  0  0  0  0  0  0  0  0  0  0  0
   -0.3779    4.0362   -3.1735 C   0  0  0  0  0  0  0  0  0  0  0  0
   -0.4057    5.0794   -3.4578 H   0  0  0  0  0  0  0  0  0  0  0  0
   -0.3748    3.6773   -1.8131 C   0  0  0  0  0  0  0  0  0  0  0  0
   -0.3970    4.4494   -1.0564 H   0  0  0  0  0  0  0  0  0  0  0  0
   -0.3355    2.3217   -1.4296 C   0  0  0  0  0  0  0  0  0  0  0  0
   -0.3200    2.0603   -0.3811 H   0  0  0  0  0  0  0  0  0  0  0  0
   -0.3013    1.2946   -2.3975 C   0  0  0  0  0  0  0  0  0  0  0  0
   -1.7617    0.8549   -0.2106 C   0  0  0  0  0  0  0  0  0  0  0  0
   -2.5726    1.1871   -1.0741 O   0  0  0  0  0  0  0  0  0  0  0  0
   -1.1941    1.7377    0.6223 N   0  0  0  0  0  0  0  0  0  0  0  0
   -0.4976    1.3916    1.2669 H   0  0  0  0  0  0  0  0  0  0  0  0
   -1.4666    3.1722    0.6095 C   0  0  0  0  0  0  0  0  0  0  0  0
   -2.5439    3.3427    0.6539 H   0  0  0  0  0  0  0  0  0  0  0  0
   -0.9893    3.6529    1.4644 H   0  0  0  0  0  0  0  0  0  0  0  0
   -1.0808    3.6095   -0.3129 H   0  0  0  0  0  0  0  0  0  0  0  0
  5  6  2  0  0  0  0
  5  7  1  0  0  0  0
  2  3  1  0  0  0  0
  2  4  1  0  0  0  0
  2  5  1  0  0  0  0
  1  2  1  0  0  0  0
 29 30  2  0  0  0  0
 29 31  1  0  0  0  0
 26 27  1  0  0  0  0
 26 28  2  0  0  0  0
 24 25  1  0  0  0  0
 24 26  1  0  0  0  0
 22 23  1  0  0  0  0
 22 24  2  0  0  0  0
 20 21  1  0  0  0  0
 20 22  1  0  0  0  0
 19 20  2  0  0  0  0
 19 28  1  0  0  0  0
 17 18  1  0  0  0  0
 17 19  1  0  0  0  0
 15 16  1  0  0  0  0
 15 17  1  0  0  0  0
 14 15  2  0  0  0  0
 14 28  1  0  0  0  0
 11 12  1  0  0  0  0
 11 13  1  0  0  0  0
 11 14  1  0  0  0  0
  9 10  1  0  0  0  0
  9 11  1  0  0  0  0
  9 29  1  0  0  0  0
  7  8  1  0  0  0  0
  7  9  1  0  0  0  0
 33 34  1  0  0  0  0
 33 35  1  0  0  0  0
 33 36  1  0  0  0  0
 31 32  1  0  0  0  0
 31 33  1  0  0  0  0
M  END
$$$$
default_name
  -OEChem-02102213163D

 36 37  0     1  0  0  0  0  0999 V2000
   -4.0843   -4.0736    1.2944 H   0  0  0  0  0  0  0  0  0  0  0  0
   -4.0342   -3.2816    0.5484 C   0  0  0  0  0  0  0  0  0  0  0  0
   -4.8842   -2.6126    0.6694 H   0  0  0  0  0  0  0  0  0  0  0  0
   -4.0433   -3.7186   -0.4486 H   0  0  0  0  0  0  0  0  0  0  0  0
   -2.7532   -2.5046    0.7444 C   0  0  0  0  0  0  0  0  0  0  0  0
   -1.9803   -2.8096    1.6434 O   0  0  0  0  0  0  0  0  0  0  0  0
   -2.5332   -1.4966   -0.0966 N   0  0  0  0  0  0  0  0  0  0  0  0
   -3.2312   -1.2816   -0.7936 H   0  0  0  0  0  0  0  0  0  0  0  0
   -1.3593   -0.6196   -0.0536 C   0  0  1  0  0  0  0  0  0  0  0  0
   -0.8788   -0.7266    0.9196 H   0  0  0  0  0  0  0  0  0  0  0  0
   -0.3559   -1.0533   -1.1339 C   0  0  0  0  0  0  0  0  0  0  0  0
    0.6417   -1.0908   -0.6926 H   0  0  0  0  0  0  0  0  0  0  0  0
   -0.6110   -2.0632   -1.4595 H   0  0  0  0  0  0  0  0  0  0  0  0
   -0.2959   -0.1662   -2.3403 C   0  0  0  0  0  0  0  0  0  0  0  0
   -0.5548   -0.5480   -3.6111 C   0  0  0  0  0  0  0  0  0  0  0  0
   -0.8206   -1.5558   -3.9107 H   0  0  0  0  0  0  0  0  0  0  0  0
   -0.4484    0.5410   -4.4538 N   0  0  0  0  0  0  0  0  0  0  0  0
   -0.5957    0.4899   -5.4512 H   0  0  0  0  0  0  0  0  0  0  0  0
   -0.1297    1.6896   -3.7611 C   0  0  0  0  0  0  0  0  0  0  0  0
    0.0562    3.0235   -4.1516 C   0  0  0  0  0  0  0  0  0  0  0  0
   -0.0444    3.3096   -5.1882 H   0  0  0  0  0  0  0  0  0  0  0  0
    0.3771    3.9824   -3.1755 C   0  0  0  0  0  0  0  0  0  0  0  0
    0.5252    5.0158   -3.4582 H   0  0  0  0  0  0  0  0  0  0  0  0
    0.5120    3.5946   -1.8298 C   0  0  0  0  0  0  0  0  0  0  0  0
    0.7671    4.3341   -1.0833 H   0  0  0  0  0  0  0  0  0  0  0  0
    0.3248    2.2507   -1.4490 C   0  0  0  0  0  0  0  0  0  0  0  0
    0.4445    1.9639   -0.4139 H   0  0  0  0  0  0  0  0  0  0  0  0
   -0.0043    1.2649   -2.4045 C   0  0  0  0  0  0  0  0  0  0  0  0
   -1.7617    0.8549   -0.2106 C   0  0  0  0  0  0  0  0  0  0  0  0
   -2.5726    1.1871   -1.0741 O   0  0  0  0  0  0  0  0  0  0  0  0
   -1.1941    1.7377    0.6223 N   0  0  0  0  0  0  0  0  0  0  0  0
   -0.4976    1.3916    1.2669 H   0  0  0  0  0  0  0  0  0  0  0  0
   -1.4666    3.1722    0.6095 C   0  0  0  0  0  0  0  0  0  0  0  0
   -2.5439    3.3427    0.6539 H   0  0  0  0  0  0  0  0  0  0  0  0
   -0.9893    3.6529    1.4644 H   0  0  0  0  0  0  0  0  0  0  0  0
   -1.0808    3.6095   -0.3129 H   0  0  0  0  0  0  0  0  0  0  0  0
  5  6  2  0  0  0  0
  5  7  1  0  0  0  0
  2  3  1  0  0  0  0
  2  4  1  0  0  0  0
  2  5  1  0  0  0  0
  1  2  1  0  0  0  0
 29 30  2  0  0  0  0
 29 31  1  0  0  0  0
 26 27  1  0  0  0  0
 26 28  2  0  0  0  0
 24 25  1  0  0  0  0
 24 26  1  0  0  0  0
 22 23  1  0  0  0  0
 22 24  2  0  0  0  0
 20 21  1  0  0  0  0
 20 22  1  0  0  0  0
 19 20  2  0  0  0  0
 19 28  1  0  0  0  0
 17 18  1  0  0  0  0
 17 19  1  0  0  0  0
 15 16  1  0  0  0  0
 15 17  1  0  0  0  0
 14 15  2  0  0  0  0
 14 28  1  0  0  0  0
 11 12  1  0  0  0  0
 11 13  1  0  0  0  0
 11 14  1  0  0  0  0
  9 10  1  0  0  0  0
  9 11  1  0  0  0  0
  9 29  1  0  0  0  0
  7  8  1  0  0  0  0
  7  9  1  0  0  0  0
 33 34  1  0  0  0  0
 33 35  1  0  0  0  0
 33 36  1  0  0  0  0
 31 32  1  0  0  0  0
 31 33  1  0  0  0  0
M  END
$$$$
default_name
  -OEChem-02102213163D

 36 37  0     1  0  0  0  0  0999 V2000
   -4.0843   -4.0736    1.2944 H   0  0  0  0  0  0  0  0  0  0  0  0
   -4.0342   -3.2816    0.5484 C   0  0  0  0  0  0  0  0  0  0  0  0
   -4.8842   -2.6126    0.6694 H   0  0  0  0  0  0  0  0  0  0  0  0
   -4.0433   -3.7186   -0.4486 H   0  0  0  0  0  0  0  0  0  0  0  0
   -2.7532   -2.5046    0.7444 C   0  0  0  0  0  0  0  0  0  0  0  0
   -1.9803   -2.8096    1.6434 O   0  0  0  0  0  0  0  0  0  0  0  0
   -2.5332   -1.4966   -0.0966 N   0  0  0  0  0  0  0  0  0  0  0  0
   -3.2312   -1.2816   -0.7936 H   0  0  0  0  0  0  0  0  0  0  0  0
   -1.3593   -0.6196   -0.0536 C   0  0  1  0  0  0  0  0  0  0  0  0
   -0.8788   -0.7266    0.9196 H   0  0  0  0  0  0  0  0  0  0  0  0
   -0.3559   -1.0533   -1.1339 C   0  0  0  0  0  0  0  0  0  0  0  0
    0.6417   -1.0908   -0.6926 H   0  0  0  0  0  0  0  0  0  0  0  0
   -0.6110   -2.0632   -1.4595 H   0  0  0  0  0  0  0  0  0  0  0  0
   -0.2959   -0.1662   -2.3403 C   0  0  0  0  0  0  0  0  0  0  0  0
   -0.8192   -0.4520   -3.5536 C   0  0  0  0  0  0  0  0  0  0  0  0
   -1.3323   -1.3744   -3.8027 H   0  0  0  0  0  0  0  0  0  0  0  0
   -0.6167    0.6132   -4.4091 N   0  0  0  0  0  0  0  0  0  0  0  0
   -0.9214    0.6204   -5.3715 H   0  0  0  0  0  0  0  0  0  0  0  0
    0.0367    1.6519   -3.7806 C   0  0  0  0  0  0  0  0  0  0  0  0
    0.4359    2.9281   -4.2029 C   0  0  0  0  0  0  0  0  0  0  0  0
    0.2409    3.2562   -5.2133 H   0  0  0  0  0  0  0  0  0  0  0  0
    1.0948    3.7731   -3.2936 C   0  0  0  0  0  0  0  0  0  0  0  0
    1.4111    4.7605   -3.6019 H   0  0  0  0  0  0  0  0  0  0  0  0
    1.3488    3.3301   -1.9827 C   0  0  0  0  0  0  0  0  0  0  0  0
    1.8634    3.9804   -1.2889 H   0  0  0  0  0  0  0  0  0  0  0  0
    0.9447    2.0447   -1.5697 C   0  0  0  0  0  0  0  0  0  0  0  0
    1.1579    1.7119   -0.5638 H   0  0  0  0  0  0  0  0  0  0  0  0
    0.2754    1.1744   -2.4571 C   0  0  0  0  0  0  0  0  0  0  0  0
   -1.7617    0.8549   -0.2106 C   0  0  0  0  0  0  0  0  0  0  0  0
   -2.5726    1.1871   -1.0741 O   0  0  0  0  0  0  0  0  0  0  0  0
   -1.1941    1.7377    0.6223 N   0  0  0  0  0  0  0  0  0  0  0  0
   -0.4976    1.3916    1.2669 H   0  0  0  0  0  0  0  0  0  0  0  0
   -1.4666    3.1722    0.6095 C   0  0  0  0  0  0  0  0  0  0  0  0
   -2.5439    3.3427    0.6539 H   0  0  0  0  0  0  0  0  0  0  0  0
   -0.9893    3.6529    1.4644 H   0  0  0  0  0  0  0  0  0  0  0  0
   -1.0808    3.6095   -0.3129 H   0  0  0  0  0  0  0  0  0  0  0  0
  5  6  2  0  0  0  0
  5  7  1  0  0  0  0
  2  3  1  0  0  0  0
  2  4  1  0  0  0  0
  2  5  1  0  0  0  0
  1  2  1  0  0  0  0
 29 30  2  0  0  0  0
 29 31  1  0  0  0  0
 26 27  1  0  0  0  0
 26 28  2  0  0  0  0
 24 25  1  0  0  0  0
 24 26  1  0  0  0  0
 22 23  1  0  0  0  0
 22 24  2  0  0  0  0
 20 21  1  0  0  0  0
 20 22  1  0  0  0  0
 19 20  2  0  0  0  0
 19 28  1  0  0  0  0
 17 18  1  0  0  0  0
 17 19  1  0  0  0  0
 15 16  1  0  0  0  0
 15 17  1  0  0  0  0
 14 15  2  0  0  0  0
 14 28  1  0  0  0  0
 11 12  1  0  0  0  0
 11 13  1  0  0  0  0
 11 14  1  0  0  0  0
  9 10  1  0  0  0  0
  9 11  1  0  0  0  0
  9 29  1  0  0  0  0
  7  8  1  0  0  0  0
  7  9  1  0  0  0  0
 33 34  1  0  0  0  0
 33 35  1  0  0  0  0
 33 36  1  0  0  0  0
 31 32  1  0  0  0  0
 31 33  1  0  0  0  0
M  END
$$$$
default_name
  -OEChem-02102213163D

 36 37  0     1  0  0  0  0  0999 V2000
   -4.0843   -4.0736    1.2944 H   0  0  0  0  0  0  0  0  0  0  0  0
   -4.0342   -3.2816    0.5484 C   0  0  0  0  0  0  0  0  0  0  0  0
   -4.8842   -2.6126    0.6694 H   0  0  0  0  0  0  0  0  0  0  0  0
   -4.0433   -3.7186   -0.4486 H   0  0  0  0  0  0  0  0  0  0  0  0
   -2.7532   -2.5046    0.7444 C   0  0  0  0  0  0  0  0  0  0  0  0
   -1.9803   -2.8096    1.6434 O   0  0  0  0  0  0  0  0  0  0  0  0
   -2.5332   -1.4966   -0.0966 N   0  0  0  0  0  0  0  0  0  0  0  0
   -3.2312   -1.2816   -0.7936 H   0  0  0  0  0  0  0  0  0  0  0  0
   -1.3593   -0.6196   -0.0536 C   0  0  1  0  0  0  0  0  0  0  0  0
   -0.8788   -0.7266    0.9196 H   0  0  0  0  0  0  0  0  0  0  0  0
   -0.3559   -1.0533   -1.1339 C   0  0  0  0  0  0  0  0  0  0  0  0
    0.6417   -1.0908   -0.6926 H   0  0  0  0  0  0  0  0  0  0  0  0
   -0.6110   -2.0632   -1.4595 H   0  0  0  0  0  0  0  0  0  0  0  0
   -0.2959   -0.1662   -2.3403 C   0  0  0  0  0  0  0  0  0  0  0  0
   -1.0457   -0.3048   -3.4566 C   0  0  0  0  0  0  0  0  0  0  0  0
   -1.7722   -1.0936   -3.6182 H   0  0  0  0  0  0  0  0  0  0  0  0
   -0.7575    0.7176   -4.3393 N   0  0  0  0  0  0  0  0  0  0  0  0
   -1.1967    0.8135   -5.2432 H   0  0  0  0  0  0  0  0  0  0  0  0
    0.1865    1.5809   -3.8253 C   0  0  0  0  0  0  0  0  0  0  0  0
    0.7749    2.7572   -4.3116 C   0  0  0  0  0  0  0  0  0  0  0  0
    0.5014    3.1455   -5.2817 H   0  0  0  0  0  0  0  0  0  0  0  0
    1.7264    3.4226   -3.5199 C   0  0  0  0  0  0  0  0  0  0  0  0
    2.1915    4.3307   -3.8791 H   0  0  0  0  0  0  0  0  0  0  0  0
    2.0785    2.9019   -2.2612 C   0  0  0  0  0  0  0  0  0  0  0  0
    2.8172    3.4125   -1.6590 H   0  0  0  0  0  0  0  0  0  0  0  0
    1.4821    1.7178   -1.7833 C   0  0  0  0  0  0  0  0  0  0  0  0
    1.7714    1.3213   -0.8204 H   0  0  0  0  0  0  0  0  0  0  0  0
    0.5185    1.0293   -2.5517 C   0  0  0  0  0  0  0  0  0  0  0  0
   -1.7617    0.8549   -0.2106 C   0  0  0  0  0  0  0  0  0  0  0  0
   -2.5726    1.1871   -1.0741 O   0  0  0  0  0  0  0  0  0  0  0  0
   -1.1941    1.7377    0.6223 N   0  0  0  0  0  0  0  0  0  0  0  0
   -0.4976    1.3916    1.2669 H   0  0  0  0  0  0  0  0  0  0  0  0
   -1.4666    3.1722    0.6095 C   0  0  0  0  0  0  0  0  0  0  0  0
   -2.5439    3.3427    0.6539 H   0  0  0  0  0  0  0  0  0  0  0  0
   -0.9893    3.6529    1.4644 H   0  0  0  0  0  0  0  0  0  0  0  0
   -1.0808    3.6095   -0.3129 H   0  0  0  0  0  0  0  0  0  0  0  0
  5  6  2  0  0  0  0
  5  7  1  0  0  0  0
  2  3  1  0  0  0  0
  2  4  1  0  0  0  0
  2  5  1  0  0  0  0
  1  2  1  0  0  0  0
 29 30  2  0  0  0  0
 29 31  1  0  0  0  0
 26 27  1  0  0  0  0
 26 28  2  0  0  0  0
 24 25  1  0  0  0  0
 24 26  1  0  0  0  0
 22 23  1  0  0  0  0
 22 24  2  0  0  0  0
 20 21  1  0  0  0  0
 20 22  1  0  0  0  0
 19 20  2  0  0  0  0
 19 28  1  0  0  0  0
 17 18  1  0  0  0  0
 17 19  1  0  0  0  0
 15 16  1  0  0  0  0
 15 17  1  0  0  0  0
 14 15  2  0  0  0  0
 14 28  1  0  0  0  0
 11 12  1  0  0  0  0
 11 13  1  0  0  0  0
 11 14  1  0  0  0  0
  9 10  1  0  0  0  0
  9 11  1  0  0  0  0
  9 29  1  0  0  0  0
  7  8  1  0  0  0  0
  7  9  1  0  0  0  0
 33 34  1  0  0  0  0
 33 35  1  0  0  0  0
 33 36  1  0  0  0  0
 31 32  1  0  0  0  0
 31 33  1  0  0  0  0
M  END
$$$$
default_name
  -OEChem-02102213163D

 36 37  0     1  0  0  0  0  0999 V2000
   -4.0843   -4.0736    1.2944 H   0  0  0  0  0  0  0  0  0  0  0  0
   -4.0342   -3.2816    0.5484 C   0  0  0  0  0  0  0  0  0  0  0  0
   -4.8842   -2.6126    0.6694 H   0  0  0  0  0  0  0  0  0  0  0  0
   -4.0433   -3.7186   -0.4486 H   0  0  0  0  0  0  0  0  0  0  0  0
   -2.7532   -2.5046    0.7444 C   0  0  0  0  0  0  0  0  0  0  0  0
   -1.9803   -2.8096    1.6434 O   0  0  0  0  0  0  0  0  0  0  0  0
   -2.5332   -1.4966   -0.0966 N   0  0  0  0  0  0  0  0  0  0  0  0
   -3.2312   -1.2816   -0.7936 H   0  0  0  0  0  0  0  0  0  0  0  0
   -1.3593   -0.6196   -0.0536 C   0  0  1  0  0  0  0  0  0  0  0  0
   -0.8788   -0.7266    0.9196 H   0  0  0  0  0  0  0  0  0  0  0  0
   -0.3559   -1.0533   -1.1339 C   0  0  0  0  0  0  0  0  0  0  0  0
    0.6417   -1.0908   -0.6926 H   0  0  0  0  0  0  0  0  0  0  0  0
   -0.6110   -2.0632   -1.4595 H   0  0  0  0  0  0  0  0  0  0  0  0
   -0.2959   -0.1662   -2.3403 C   0  0  0  0  0  0  0  0  0  0  0  0
   -1.2190   -0.1164   -3.3267 C   0  0  0  0  0  0  0  0  0  0  0  0
   -2.1103   -0.7327   -3.3696 H   0  0  0  0  0  0  0  0  0  0  0  0
   -0.8610    0.8470   -4.2493 N   0  0  0  0  0  0  0  0  0  0  0  0
   -1.4027    1.0560   -5.0752 H   0  0  0  0  0  0  0  0  0  0  0  0
    0.3097    1.4817   -3.8922 C   0  0  0  0  0  0  0  0  0  0  0  0
    1.0501    2.5228   -4.4704 C   0  0  0  0  0  0  0  0  0  0  0  0
    0.7195    2.9850   -5.3889 H   0  0  0  0  0  0  0  0  0  0  0  0
    2.2288    2.9549   -3.8389 C   0  0  0  0  0  0  0  0  0  0  0  0
    2.8134    3.7559   -4.2708 H   0  0  0  0  0  0  0  0  0  0  0  0
    2.6514    2.3391   -2.6466 C   0  0  0  0  0  0  0  0  0  0  0  0
    3.5634    2.6691   -2.1685 H   0  0  0  0  0  0  0  0  0  0  0  0
    1.9004    1.2922   -2.0754 C   0  0  0  0  0  0  0  0  0  0  0  0
    2.2434    0.8189   -1.1664 H   0  0  0  0  0  0  0  0  0  0  0  0
    0.7087    0.8394   -2.6819 C   0  0  0  0  0  0  0  0  0  0  0  0
   -1.7617    0.8549   -0.2106 C   0  0  0  0  0  0  0  0  0  0  0  0
   -2.5726    1.1871   -1.0741 O   0  0  0  0  0  0  0  0  0  0  0  0
   -1.1941    1.7377    0.6223 N   0  0  0  0  0  0  0  0  0  0  0  0
   -0.4976    1.3916    1.2669 H   0  0  0  0  0  0  0  0  0  0  0  0
   -1.4666    3.1722    0.6095 C   0  0  0  0  0  0  0  0  0  0  0  0
   -2.5439    3.3427    0.6539 H   0  0  0  0  0  0  0  0  0  0  0  0
   -0.9893    3.6529    1.4644 H   0  0  0  0  0  0  0  0  0  0  0  0
   -1.0808    3.6095   -0.3129 H   0  0  0  0  0  0  0  0  0  0  0  0
  5  6  2  0  0  0  0
  5  7  1  0  0  0  0
  2  3  1  0  0  0  0
  2  4  1  0  0  0  0
  2  5  1  0  0  0  0
  1  2  1  0  0  0  0
 29 30  2  0  0  0  0
 29 31  1  0  0  0  0
 26 27  1  0  0  0  0
 26 28  2  0  0  0  0
 24 25  1  0  0  0  0
 24 26  1  0  0  0  0
 22 23  1  0  0  0  0
 22 24  2  0  0  0  0
 20 21  1  0  0  0  0
 20 22  1  0  0  0  0
 19 20  2  0  0  0  0
 19 28  1  0  0  0  0
 17 18  1  0  0  0  0
 17 19  1  0  0  0  0
 15 16  1  0  0  0  0
 15 17  1  0  0  0  0
 14 15  2  0  0  0  0
 14 28  1  0  0  0  0
 11 12  1  0  0  0  0
 11 13  1  0  0  0  0
 11 14  1  0  0  0  0
  9 10  1  0  0  0  0
  9 11  1  0  0  0  0
  9 29  1  0  0  0  0
  7  8  1  0  0  0  0
  7  9  1  0  0  0  0
 33 34  1  0  0  0  0
 33 35  1  0  0  0  0
 33 36  1  0  0  0  0
 31 32  1  0  0  0  0
 31 33  1  0  0  0  0
M  END
$$$$
default_name
  -OEChem-02102213163D

 36 37  0     1  0  0  0  0  0999 V2000
   -4.0843   -4.0736    1.2944 H   0  0  0  0  0  0  0  0  0  0  0  0
   -4.0342   -3.2816    0.5484 C   0  0  0  0  0  0  0  0  0  0  0  0
   -4.8842   -2.6126    0.6694 H   0  0  0  0  0  0  0  0  0  0  0  0
   -4.0433   -3.7186   -0.4486 H   0  0  0  0  0  0  0  0  0  0  0  0
   -2.7532   -2.5046    0.7444 C   0  0  0  0  0  0  0  0  0  0  0  0
   -1.9803   -2.8096    1.6434 O   0  0  0  0  0  0  0  0  0  0  0  0
   -2.5332   -1.4966   -0.0966 N   0  0  0  0  0  0  0  0  0  0  0  0
   -3.2312   -1.2816   -0.7936 H   0  0  0  0  0  0  0  0  0  0  0  0
   -1.3593   -0.6196   -0.0536 C   0  0  1  0  0  0  0  0  0  0  0  0
   -0.8788   -0.7266    0.9196 H   0  0  0  0  0  0  0  0  0  0  0  0
   -0.3559   -1.0533   -1.1339 C   0  0  0  0  0  0  0  0  0  0  0  0
    0.6417   -1.0908   -0.6926 H   0  0  0  0  0  0  0  0  0  0  0  0
   -0.6110   -2.0632   -1.4595 H   0  0  0  0  0  0  0  0  0  0  0  0
   -0.2959   -0.1662   -2.3403 C   0  0  0  0  0  0  0  0  0  0  0  0
   -1.3272    0.1003   -3.1728 C   0  0  0  0  0  0  0  0  0  0  0  0
   -2.3236   -0.3162   -3.0739 H   0  0  0  0  0  0  0  0  0  0  0  0
   -0.9202    0.9927   -4.1452 N   0  0  0  0  0  0  0  0  0  0  0  0
   -1.5254    1.3314   -4.8788 H   0  0  0  0  0  0  0  0  0  0  0  0
    0.3977    1.3608   -3.9767 C   0  0  0  0  0  0  0  0  0  0  0  0
    1.2427    2.2406   -4.6683 C   0  0  0  0  0  0  0  0  0  0  0  0
    0.8804    2.7856   -5.5275 H   0  0  0  0  0  0  0  0  0  0  0  0
    2.5678    2.4017   -4.2288 C   0  0  0  0  0  0  0  0  0  0  0  0
    3.2343    3.0751   -4.7505 H   0  0  0  0  0  0  0  0  0  0  0  0
    3.0286    1.6801   -3.1124 C   0  0  0  0  0  0  0  0  0  0  0  0
    4.0512    1.8008   -2.7827 H   0  0  0  0  0  0  0  0  0  0  0  0
    2.1710    0.7971   -2.4260 C   0  0  0  0  0  0  0  0  0  0  0  0
    2.5416    0.2389   -1.5780 H   0  0  0  0  0  0  0  0  0  0  0  0
    0.8329    0.6178   -2.8387 C   0  0  0  0  0  0  0  0  0  0  0  0
   -1.7617    0.8549   -0.2106 C   0  0  0  0  0  0  0  0  0  0  0  0
   -2.5726    1.1871   -1.0741 O   0  0  0  0  0  0  0  0  0  0  0  0
   -1.1941    1.7377    0.6223 N   0  0  0  0  0  0  0  0  0  0  0  0
   -0.4976    1.3916    1.2669 H   0  0  0  0  0  0  0  0  0  0  0  0
   -1.4666    3.1722    0.6095 C   0  0  0  0  0  0  0  0  0  0  0  0
   -2.5439    3.3427    0.6539 H   0  0  0  0  0  0  0  0  0  0  0  0
   -0.9893    3.6529    1.4644 H   0  0  0  0  0  0  0  0  0  0  0  0
   -1.0808    3.6095   -0.3129 H   0  0  0  0  0  0  0  0  0  0  0  0
  5  6  2  0  0  0  0
  5  7  1  0  0  0  0
  2  3  1  0  0  0  0
  2  4  1  0  0  0  0
  2  5  1  0  0  0  0
  1  2  1  0  0  0  0
 29 30  2  0  0  0  0
 29 31  1  0  0  0  0
 26 27  1  0  0  0  0
 26 28  2  0  0  0  0
 24 25  1  0  0  0  0
 24 26  1  0  0  0  0
 22 23  1  0  0  0  0
 22 24  2  0  0  0  0
 20 21  1  0  0  0  0
 20 22  1  0  0  0  0
 19 20  2  0  0  0  0
 19 28  1  0  0  0  0
 17 18  1  0  0  0  0
 17 19  1  0  0  0  0
 15 16  1  0  0  0  0
 15 17  1  0  0  0  0
 14 15  2  0  0  0  0
 14 28  1  0  0  0  0
 11 12  1  0  0  0  0
 11 13  1  0  0  0  0
 11 14  1  0  0  0  0
  9 10  1  0  0  0  0
  9 11  1  0  0  0  0
  9 29  1  0  0  0  0
  7  8  1  0  0  0  0
  7  9  1  0  0  0  0
 33 34  1  0  0  0  0
 33 35  1  0  0  0  0
 33 36  1  0  0  0  0
 31 32  1  0  0  0  0
 31 33  1  0  0  0  0
M  END
$$$$
default_name
  -OEChem-02102213163D

 36 37  0     1  0  0  0  0  0999 V2000
   -4.0843   -4.0736    1.2944 H   0  0  0  0  0  0  0  0  0  0  0  0
   -4.0342   -3.2816    0.5484 C   0  0  0  0  0  0  0  0  0  0  0  0
   -4.8842   -2.6126    0.6694 H   0  0  0  0  0  0  0  0  0  0  0  0
   -4.0433   -3.7186   -0.4486 H   0  0  0  0  0  0  0  0  0  0  0  0
   -2.7532   -2.5046    0.7444 C   0  0  0  0  0  0  0  0  0  0  0  0
   -1.9803   -2.8096    1.6434 O   0  0  0  0  0  0  0  0  0  0  0  0
   -2.5332   -1.4966   -0.0966 N   0  0  0  0  0  0  0  0  0  0  0  0
   -3.2312   -1.2816   -0.7936 H   0  0  0  0  0  0  0  0  0  0  0  0
   -1.3593   -0.6196   -0.0536 C   0  0  1  0  0  0  0  0  0  0  0  0
   -0.8788   -0.7266    0.9196 H   0  0  0  0  0  0  0  0  0  0  0  0
   -0.3559   -1.0533   -1.1339 C   0  0  0  0  0  0  0  0  0  0  0  0
    0.6417   -1.0908   -0.6926 H   0  0  0  0  0  0  0  0  0  0  0  0
   -0.6110   -2.0632   -1.4595 H   0  0  0  0  0  0  0  0  0  0  0  0
   -0.2959   -0.1662   -2.3403 C   0  0  0  0  0  0  0  0  0  0  0  0
   -1.3630    0.3306   -3.0052 C   0  0  0  0  0  0  0  0  0  0  0  0
   -2.3976    0.1274   -2.7514 H   0  0  0  0  0  0  0  0  0  0  0  0
   -0.9311    1.1446   -4.0340 N   0  0  0  0  0  0  0  0  0  0  0  0
   -1.5565    1.6209   -4.6674 H   0  0  0  0  0  0  0  0  0  0  0  0
    0.4446    1.2266   -4.0730 C   0  0  0  0  0  0  0  0  0  0  0  0
    1.3396    1.9299   -4.8919 C   0  0  0  0  0  0  0  0  0  0  0  0
    0.9729    2.5609   -5.6881 H   0  0  0  0  0  0  0  0  0  0  0  0
    2.7202    1.8008   -4.6631 C   0  0  0  0  0  0  0  0  0  0  0  0
    3.4256    2.3348   -5.2853 H   0  0  0  0  0  0  0  0  0  0  0  0
    3.1842    0.9699   -3.6269 C   0  0  0  0  0  0  0  0  0  0  0  0
    4.2475    0.8669   -3.4597 H   0  0  0  0  0  0  0  0  0  0  0  0
    2.2755    0.2661   -2.8113 C   0  0  0  0  0  0  0  0  0  0  0  0
    2.6458   -0.3792   -2.0274 H   0  0  0  0  0  0  0  0  0  0  0  0
    0.8827    0.3794   -3.0115 C   0  0  0  0  0  0  0  0  0  0  0  0
   -1.7617    0.8549   -0.2106 C   0  0  0  0  0  0  0  0  0  0  0  0
   -2.5726    1.1871   -1.0741 O   0  0  0  0  0  0  0  0  0  0  0  0
   -1.1941    1.7377    0.6223 N   0  0  0  0  0  0  0  0  0  0  0  0
   -0.4976    1.3916    1.2669 H   0  0  0  0  0  0  0  0  0  0  0  0
   -1.4666    3.1722    0.6095 C   0  0  0  0  0  0  0  0  0  0  0  0
   -2.5439    3.3427    0.6539 H   0  0  0  0  0  0  0  0  0  0  0  0
   -0.9893    3.6529    1.4644 H   0  0  0  0  0  0  0  0  0  0  0  0
   -1.0808    3.6095   -0.3129 H   0  0  0  0  0  0  0  0  0  0  0  0
  5  6  2  0  0  0  0
  5  7  1  0  0  0  0
  2  3  1  0  0  0  0
  2  4  1  0  0  0  0
  2  5  1  0  0  0  0
  1  2  1  0  0  0  0
 29 30  2  0  0  0  0
 29 31  1  0  0  0  0
 26 27  1  0  0  0  0
 26 28  2  0  0  0  0
 24 25  1  0  0  0  0
 24 26  1  0  0  0  0
 22 23  1  0  0  0  0
 22 24  2  0  0  0  0
 20 21  1  0  0  0  0
 20 22  1  0  0  0  0
 19 20  2  0  0  0  0
 19 28  1  0  0  0  0
 17 18  1  0  0  0  0
 17 19  1  0  0  0  0
 15 16  1  0  0  0  0
 15 17  1  0  0  0  0
 14 15  2  0  0  0  0
 14 28  1  0  0  0  0
 11 12  1  0  0  0  0
 11 13  1  0  0  0  0
 11 14  1  0  0  0  0
  9 10  1  0  0  0  0
  9 11  1  0  0  0  0
  9 29  1  0  0  0  0
  7  8  1  0  0  0  0
  7  9  1  0  0  0  0
 33 34  1  0  0  0  0
 33 35  1  0  0  0  0
 33 36  1  0  0  0  0
 31 32  1  0  0  0  0
 31 33  1  0  0  0  0
M  END
$$$$
default_name
  -OEChem-02102213163D

 36 37  0     1  0  0  0  0  0999 V2000
   -4.0843   -4.0736    1.2944 H   0  0  0  0  0  0  0  0  0  0  0  0
   -4.0342   -3.2816    0.5484 C   0  0  0  0  0  0  0  0  0  0  0  0
   -4.8842   -2.6126    0.6694 H   0  0  0  0  0  0  0  0  0  0  0  0
   -4.0433   -3.7186   -0.4486 H   0  0  0  0  0  0  0  0  0  0  0  0
   -2.7532   -2.5046    0.7444 C   0  0  0  0  0  0  0  0  0  0  0  0
   -1.9803   -2.8096    1.6434 O   0  0  0  0  0  0  0  0  0  0  0  0
   -2.5332   -1.4966   -0.0966 N   0  0  0  0  0  0  0  0  0  0  0  0
   -3.2312   -1.2816   -0.7936 H   0  0  0  0  0  0  0  0  0  0  0  0
   -1.3593   -0.6196   -0.0536 C   0  0  1  0  0  0  0  0  0  0  0  0
   -0.8788   -0.7266    0.9196 H   0  0  0  0  0  0  0  0  0  0  0  0
   -0.3559   -1.0533   -1.1339 C   0  0  0  0  0  0  0  0  0  0  0  0
    0.6417   -1.0908   -0.6926 H   0  0  0  0  0  0  0  0  0  0  0  0
   -0.6110   -2.0632   -1.4595 H   0  0  0  0  0  0  0  0  0  0  0  0
   -0.2959   -0.1662   -2.3403 C   0  0  0  0  0  0  0  0  0  0  0  0
   -1.3239    0.5588   -2.8355 C   0  0  0  0  0  0  0  0  0  0  0  0
   -2.3272    0.5681   -2.4239 H   0  0  0  0  0  0  0  0  0  0  0  0
   -0.8930    1.2925   -3.9233 N   0  0  0  0  0  0  0  0  0  0  0  0
   -1.4938    1.9049   -4.4554 H   0  0  0  0  0  0  0  0  0  0  0  0
    0.4471    1.0882   -4.1747 C   0  0  0  0  0  0  0  0  0  0  0  0
    1.3343    1.6120   -5.1260 C   0  0  0  0  0  0  0  0  0  0  0  0
    0.9909    2.3263   -5.8598 H   0  0  0  0  0  0  0  0  0  0  0  0
    2.6757    1.1931   -5.1122 C   0  0  0  0  0  0  0  0  0  0  0  0
    3.3741    1.5855   -5.8389 H   0  0  0  0  0  0  0  0  0  0  0  0
    3.1078    0.2567   -4.1551 C   0  0  0  0  0  0  0  0  0  0  0  0
    4.1387   -0.0691   -4.1534 H   0  0  0  0  0  0  0  0  0  0  0  0
    2.2068   -0.2646   -3.2050 C   0  0  0  0  0  0  0  0  0  0  0  0
    2.5487   -0.9933   -2.4838 H   0  0  0  0  0  0  0  0  0  0  0  0
    0.8546    0.1406   -3.1885 C   0  0  0  0  0  0  0  0  0  0  0  0
   -1.7617    0.8549   -0.2106 C   0  0  0  0  0  0  0  0  0  0  0  0
   -2.5726    1.1871   -1.0741 O   0  0  0  0  0  0  0  0  0  0  0  0
   -1.1941    1.7377    0.6223 N   0  0  0  0  0  0  0  0  0  0  0  0
   -0.4976    1.3916    1.2669 H   0  0  0  0  0  0  0  0  0  0  0  0
   -1.4666    3.1722    0.6095 C   0  0  0  0  0  0  0  0  0  0  0  0
   -2.5439    3.3427    0.6539 H   0  0  0  0  0  0  0  0  0  0  0  0
   -0.9893    3.6529    1.4644 H   0  0  0  0  0  0  0  0  0  0  0  0
   -1.0808    3.6095   -0.3129 H   0  0  0  0  0  0  0  0  0  0  0  0
  5  6  2  0  0  0  0
  5  7  1  0  0  0  0
  2  3  1  0  0  0  0
  2  4  1  0  0  0  0
  2  5  1  0  0  0  0
  1  2  1  0  0  0  0
 29 30  2  0  0  0  0
 29 31  1  0  0  0  0
 26 27  1  0  0  0  0
 26 28  2  0  0  0  0
 24 25  1  0  0  0  0
 24 26  1  0  0  0  0
 22 23  1  0  0  0  0
 22 24  2  0  0  0  0
 20 21  1  0  0  0  0
 20 22  1  0  0  0  0
 19 20  2  0  0  0  0
 19 28  1  0  0  0  0
 17 18  1  0  0  0  0
 17 19  1  0  0  0  0
 15 16  1  0  0  0  0
 15 17  1  0  0  0  0
 14 15  2  0  0  0  0
 14 28  1  0  0  0  0
 11 12  1  0  0  0  0
 11 13  1  0  0  0  0
 11 14  1  0  0  0  0
  9 10  1  0  0  0  0
  9 11  1  0  0  0  0
  9 29  1  0  0  0  0
  7  8  1  0  0  0  0
  7  9  1  0  0  0  0
 33 34  1  0  0  0  0
 33 35  1  0  0  0  0
 33 36  1  0  0  0  0
 31 32  1  0  0  0  0
 31 33  1  0  0  0  0
M  END
$$$$
default_name
  -OEChem-02102213163D

 36 37  0     1  0  0  0  0  0999 V2000
   -4.0843   -4.0736    1.2944 H   0  0  0  0  0  0  0  0  0  0  0  0
   -4.0342   -3.2816    0.5484 C   0  0  0  0  0  0  0  0  0  0  0  0
   -4.8842   -2.6126    0.6694 H   0  0  0  0  0  0  0  0  0  0  0  0
   -4.0433   -3.7186   -0.4486 H   0  0  0  0  0  0  0  0  0  0  0  0
   -2.7532   -2.5046    0.7444 C   0  0  0  0  0  0  0  0  0  0  0  0
   -1.9803   -2.8096    1.6434 O   0  0  0  0  0  0  0  0  0  0  0  0
   -2.5332   -1.4966   -0.0966 N   0  0  0  0  0  0  0  0  0  0  0  0
   -3.2312   -1.2816   -0.7936 H   0  0  0  0  0  0  0  0  0  0  0  0
   -1.3593   -0.6196   -0.0536 C   0  0  1  0  0  0  0  0  0  0  0  0
   -0.8788   -0.7266    0.9196 H   0  0  0  0  0  0  0  0  0  0  0  0
   -0.3559   -1.0533   -1.1339 C   0  0  0  0  0  0  0  0  0  0  0  0
    0.6417   -1.0908   -0.6926 H   0  0  0  0  0  0  0  0  0  0  0  0
   -0.6110   -2.0632   -1.4595 H   0  0  0  0  0  0  0  0  0  0  0  0
   -0.2959   -0.1662   -2.3403 C   0  0  0  0  0  0  0  0  0  0  0  0
   -1.2126    0.7693   -2.6752 C   0  0  0  0  0  0  0  0  0  0  0  0
   -2.1172    0.9756   -2.1137 H   0  0  0  0  0  0  0  0  0  0  0  0
   -0.8083    1.4262   -3.8208 N   0  0  0  0  0  0  0  0  0  0  0  0
   -1.3416    2.1640   -4.2574 H   0  0  0  0  0  0  0  0  0  0  0  0
    0.4052    0.9550   -4.2747 C   0  0  0  0  0  0  0  0  0  0  0  0
    1.2270    1.3084   -5.3545 C   0  0  0  0  0  0  0  0  0  0  0  0
    0.9332    2.0977   -6.0307 H   0  0  0  0  0  0  0  0  0  0  0  0
    2.4373    0.6200   -5.5454 C   0  0  0  0  0  0  0  0  0  0  0  0
    3.0835    0.8781   -6.3735 H   0  0  0  0  0  0  0  0  0  0  0  0
    2.8044   -0.4108   -4.6610 C   0  0  0  0  0  0  0  0  0  0  0  0
    3.7324   -0.9434   -4.8165 H   0  0  0  0  0  0  0  0  0  0  0  0
    1.9696   -0.7588   -3.5802 C   0  0  0  0  0  0  0  0  0  0  0  0
    2.2571   -1.5616   -2.9161 H   0  0  0  0  0  0  0  0  0  0  0  0
    0.7506   -0.0824   -3.3576 C   0  0  0  0  0  0  0  0  0  0  0  0
   -1.7617    0.8549   -0.2106 C   0  0  0  0  0  0  0  0  0  0  0  0
   -2.5726    1.1871   -1.0741 O   0  0  0  0  0  0  0  0  0  0  0  0
   -1.1941    1.7377    0.6223 N   0  0  0  0  0  0  0  0  0  0  0  0
   -0.4976    1.3916    1.2669 H   0  0  0  0  0  0  0  0  0  0  0  0
   -1.4666    3.1722    0.6095 C   0  0  0  0  0  0  0  0  0  0  0  0
   -2.5439    3.3427    0.6539 H   0  0  0  0  0  0  0  0  0  0  0  0
   -0.9893    3.6529    1.4644 H   0  0  0  0  0  0  0  0  0  0  0  0
   -1.0808    3.6095   -0.3129 H   0  0  0  0  0  0  0  0  0  0  0  0
  5  6  2  0  0  0  0
  5  7  1  0  0  0  0
  2  3  1  0  0  0  0
  2  4  1  0  0  0  0
  2  5  1  0  0  0  0
  1  2  1  0  0  0  0
 29 30  2  0  0  0  0
 29 31  1  0  0  0  0
 26 27  1  0  0  0  0
 26 28  2  0  0  0  0
 24 25  1  0  0  0  0
 24 26  1  0  0  0  0
 22 23  1  0  0  0  0
 22 24  2  0  0  0  0
 20 21  1  0  0  0  0
 20 22  1  0  0  0  0
 19 20  2  0  0  0  0
 19 28  1  0  0  0  0
 17 18  1  0  0  0  0
 17 19  1  0  0  0  0
 15 16  1  0  0  0  0
 15 17  1  0  0  0  0
 14 15  2  0  0  0  0
 14 28  1  0  0  0  0
 11 12  1  0  0  0  0
 11 13  1  0  0  0  0
 11 14  1  0  0  0  0
  9 10  1  0  0  0  0
  9 11  1  0  0  0  0
  9 29  1  0  0  0  0
  7  8  1  0  0  0  0
  7  9  1  0  0  0  0
 33 34  1  0  0  0  0
 33 35  1  0  0  0  0
 33 36  1  0  0  0  0
 31 32  1  0  0  0  0
 31 33  1  0  0  0  0
M  END
$$$$
default_name
  -OEChem-02102213163D

 36 37  0     1  0  0  0  0  0999 V2000
   -4.0843   -4.0736    1.2944 H   0  0  0  0  0  0  0  0  0  0  0  0
   -4.0342   -3.2816    0.5484 C   0  0  0  0  0  0  0  0  0  0  0  0
   -4.8842   -2.6126    0.6694 H   0  0  0  0  0  0  0  0  0  0  0  0
   -4.0433   -3.7186   -0.4486 H   0  0  0  0  0  0  0  0  0  0  0  0
   -2.7532   -2.5046    0.7444 C   0  0  0  0  0  0  0  0  0  0  0  0
   -1.9803   -2.8096    1.6434 O   0  0  0  0  0  0  0  0  0  0  0  0
   -2.5332   -1.4966   -0.0966 N   0  0  0  0  0  0  0  0  0  0  0  0
   -3.2312   -1.2816   -0.7936 H   0  0  0  0  0  0  0  0  0  0  0  0
   -1.3593   -0.6196   -0.0536 C   0  0  1  0  0  0  0  0  0  0  0  0
   -0.8788   -0.7266    0.9196 H   0  0  0  0  0  0  0  0  0  0  0  0
   -0.3559   -1.0533   -1.1339 C   0  0  0  0  0  0  0  0  0  0  0  0
    0.6417   -1.0908   -0.6926 H   0  0  0  0  0  0  0  0  0  0  0  0
   -0.6110   -2.0632   -1.4595 H   0  0  0  0  0  0  0  0  0  0  0  0
   -0.2959   -0.1662   -2.3403 C   0  0  0  0  0  0  0  0  0  0  0  0
   -1.0367    0.9477   -2.5352 C   0  0  0  0  0  0  0  0  0  0  0  0
   -1.7820    1.3223   -1.8421 H   0  0  0  0  0  0  0  0  0  0  0  0
   -0.6830    1.5367   -3.7333 N   0  0  0  0  0  0  0  0  0  0  0  0
   -1.1102    2.3804   -4.0867 H   0  0  0  0  0  0  0  0  0  0  0  0
    0.3216    0.8362   -4.3662 C   0  0  0  0  0  0  0  0  0  0  0  0
    1.0252    1.0399   -5.5620 C   0  0  0  0  0  0  0  0  0  0  0  0
    0.8035    1.8907   -6.1894 H   0  0  0  0  0  0  0  0  0  0  0  0
    2.0212    0.1206   -5.9333 C   0  0  0  0  0  0  0  0  0  0  0  0
    2.5735    0.2610   -6.8527 H   0  0  0  0  0  0  0  0  0  0  0  0
    2.2947   -0.9870   -5.1101 C   0  0  0  0  0  0  0  0  0  0  0  0
    3.0561   -1.6963   -5.4038 H   0  0  0  0  0  0  0  0  0  0  0  0
    1.5800   -1.1829   -3.9114 C   0  0  0  0  0  0  0  0  0  0  0  0
    1.7909   -2.0452   -3.2950 H   0  0  0  0  0  0  0  0  0  0  0  0
    0.5778   -0.2744   -3.5074 C   0  0  0  0  0  0  0  0  0  0  0  0
   -1.7617    0.8549   -0.2106 C   0  0  0  0  0  0  0  0  0  0  0  0
   -2.5726    1.1871   -1.0741 O   0  0  0  0  0  0  0  0  0  0  0  0
   -1.1941    1.7377    0.6223 N   0  0  0  0  0  0  0  0  0  0  0  0
   -0.4976    1.3916    1.2669 H   0  0  0  0  0  0  0  0  0  0  0  0
   -1.4666    3.1722    0.6095 C   0  0  0  0  0  0  0  0  0  0  0  0
   -2.5439    3.3427    0.6539 H   0  0  0  0  0  0  0  0  0  0  0  0
   -0.9893    3.6529    1.4644 H   0  0  0  0  0  0  0  0  0  0  0  0
   -1.0808    3.6095   -0.3129 H   0  0  0  0  0  0  0  0  0  0  0  0
  5  6  2  0  0  0  0
  5  7  1  0  0  0  0
  2  3  1  0  0  0  0
  2  4  1  0  0  0  0
  2  5  1  0  0  0  0
  1  2  1  0  0  0  0
 29 30  2  0  0  0  0
 29 31  1  0  0  0  0
 26 27  1  0  0  0  0
 26 28  2  0  0  0  0
 24 25  1  0  0  0  0
 24 26  1  0  0  0  0
 22 23  1  0  0  0  0
 22 24  2  0  0  0  0
 20 21  1  0  0  0  0
 20 22  1  0  0  0  0
 19 20  2  0  0  0  0
 19 28  1  0  0  0  0
 17 18  1  0  0  0  0
 17 19  1  0  0  0  0
 15 16  1  0  0  0  0
 15 17  1  0  0  0  0
 14 15  2  0  0  0  0
 14 28  1  0  0  0  0
 11 12  1  0  0  0  0
 11 13  1  0  0  0  0
 11 14  1  0  0  0  0
  9 10  1  0  0  0  0
  9 11  1  0  0  0  0
  9 29  1  0  0  0  0
  7  8  1  0  0  0  0
  7  9  1  0  0  0  0
 33 34  1  0  0  0  0
 33 35  1  0  0  0  0
 33 36  1  0  0  0  0
 31 32  1  0  0  0  0
 31 33  1  0  0  0  0
M  END
$$$$
default_name
  -OEChem-02102213163D

 36 37  0     1  0  0  0  0  0999 V2000
   -4.0843   -4.0736    1.2944 H   0  0  0  0  0  0  0  0  0  0  0  0
   -4.0342   -3.2816    0.5484 C   0  0  0  0  0  0  0  0  0  0  0  0
   -4.8842   -2.6126    0.6694 H   0  0  0  0  0  0  0  0  0  0  0  0
   -4.0433   -3.7186   -0.4486 H   0  0  0  0  0  0  0  0  0  0  0  0
   -2.7532   -2.5046    0.7444 C   0  0  0  0  0  0  0  0  0  0  0  0
   -1.9803   -2.8096    1.6434 O   0  0  0  0  0  0  0  0  0  0  0  0
   -2.5332   -1.4966   -0.0966 N   0  0  0  0  0  0  0  0  0  0  0  0
   -3.2312   -1.2816   -0.7936 H   0  0  0  0  0  0  0  0  0  0  0  0
   -1.3593   -0.6196   -0.0536 C   0  0  1  0  0  0  0  0  0  0  0  0
   -0.8788   -0.7266    0.9196 H   0  0  0  0  0  0  0  0  0  0  0  0
   -0.3559   -1.0533   -1.1339 C   0  0  0  0  0  0  0  0  0  0  0  0
    0.6417   -1.0908   -0.6926 H   0  0  0  0  0  0  0  0  0  0  0  0
   -0.6110   -2.0632   -1.4595 H   0  0  0  0  0  0  0  0  0  0  0  0
   -0.2959   -0.1662   -2.3403 C   0  0  0  0  0  0  0  0  0  0  0  0
   -0.8082    1.0820   -2.4251 C   0  0  0  0  0  0  0  0  0  0  0  0
   -1.3443    1.5846   -1.6275 H   0  0  0  0  0  0  0  0  0  0  0  0
   -0.5256    1.6165   -3.6668 N   0  0  0  0  0  0  0  0  0  0  0  0
   -0.8155    2.5395   -3.9551 H   0  0  0  0  0  0  0  0  0  0  0  0
    0.2021    0.7397   -4.4431 C   0  0  0  0  0  0  0  0  0  0  0  0
    0.7425    0.8247   -5.7343 C   0  0  0  0  0  0  0  0  0  0  0  0
    0.6108    1.7194   -6.3249 H   0  0  0  0  0  0  0  0  0  0  0  0
    1.4559   -0.2710   -6.2494 C   0  0  0  0  0  0  0  0  0  0  0  0
    1.8789   -0.2239   -7.2438 H   0  0  0  0  0  0  0  0  0  0  0  0
    1.6136   -1.4328   -5.4718 C   0  0  0  0  0  0  0  0  0  0  0  0
    2.1561   -2.2766   -5.8753 H   0  0  0  0  0  0  0  0  0  0  0  0
    1.0645   -1.5079   -4.1760 C   0  0  0  0  0  0  0  0  0  0  0  0
    1.1816   -2.4113   -3.5945 H   0  0  0  0  0  0  0  0  0  0  0  0
    0.3479   -0.4222   -3.6276 C   0  0  0  0  0  0  0  0  0  0  0  0
   -1.7617    0.8549   -0.2106 C   0  0  0  0  0  0  0  0  0  0  0  0
   -2.5726    1.1871   -1.0741 O   0  0  0  0  0  0  0  0  0  0  0  0
   -1.1941    1.7377    0.6223 N   0  0  0  0  0  0  0  0  0  0  0  0
   -0.4976    1.3916    1.2669 H   0  0  0  0  0  0  0  0  0  0  0  0
   -1.4666    3.1722    0.6095 C   0  0  0  0  0  0  0  0  0  0  0  0
   -2.5439    3.3427    0.6539 H   0  0  0  0  0  0  0  0  0  0  0  0
   -0.9893    3.6529    1.4644 H   0  0  0  0  0  0  0  0  0  0  0  0
   -1.0808    3.6095   -0.3129 H   0  0  0  0  0  0  0  0  0  0  0  0
  5  6  2  0  0  0  0
  5  7  1  0  0  0  0
  2  3  1  0  0  0  0
  2  4  1  0  0  0  0
  2  5  1  0  0  0  0
  1  2  1  0  0  0  0
 29 30  2  0  0  0  0
 29 31  1  0  0  0  0
 26 27  1  0  0  0  0
 26 28  2  0  0  0  0
 24 25  1  0  0  0  0
 24 26  1  0  0  0  0
 22 23  1  0  0  0  0
 22 24  2  0  0  0  0
 20 21  1  0  0  0  0
 20 22  1  0  0  0  0
 19 20  2  0  0  0  0
 19 28  1  0  0  0  0
 17 18  1  0  0  0  0
 17 19  1  0  0  0  0
 15 16  1  0  0  0  0
 15 17  1  0  0  0  0
 14 15  2  0  0  0  0
 14 28  1  0  0  0  0
 11 12  1  0  0  0  0
 11 13  1  0  0  0  0
 11 14  1  0  0  0  0
  9 10  1  0  0  0  0
  9 11  1  0  0  0  0
  9 29  1  0  0  0  0
  7  8  1  0  0  0  0
  7  9  1  0  0  0  0
 33 34  1  0  0  0  0
 33 35  1  0  0  0  0
 33 36  1  0  0  0  0
 31 32  1  0  0  0  0
 31 33  1  0  0  0  0
M  END
$$$$
default_name
  -OEChem-02102213163D

 36 37  0     1  0  0  0  0  0999 V2000
   -4.0843   -4.0736    1.2944 H   0  0  0  0  0  0  0  0  0  0  0  0
   -4.0342   -3.2816    0.5484 C   0  0  0  0  0  0  0  0  0  0  0  0
   -4.8842   -2.6126    0.6694 H   0  0  0  0  0  0  0  0  0  0  0  0
   -4.0433   -3.7186   -0.4486 H   0  0  0  0  0  0  0  0  0  0  0  0
   -2.7532   -2.5046    0.7444 C   0  0  0  0  0  0  0  0  0  0  0  0
   -1.9803   -2.8096    1.6434 O   0  0  0  0  0  0  0  0  0  0  0  0
   -2.5332   -1.4966   -0.0966 N   0  0  0  0  0  0  0  0  0  0  0  0
   -3.2312   -1.2816   -0.7936 H   0  0  0  0  0  0  0  0  0  0  0  0
   -1.3593   -0.6196   -0.0536 C   0  0  1  0  0  0  0  0  0  0  0  0
   -0.8788   -0.7266    0.9196 H   0  0  0  0  0  0  0  0  0  0  0  0
   -0.3559   -1.0533   -1.1339 C   0  0  0  0  0  0  0  0  0  0  0  0
    0.6417   -1.0908   -0.6926 H   0  0  0  0  0  0  0  0  0  0  0  0
   -0.6110   -2.0632   -1.4595 H   0  0  0  0  0  0  0  0  0  0  0  0
   -0.2959   -0.1662   -2.3403 C   0  0  0  0  0  0  0  0  0  0  0  0
   -0.5426    1.1630   -2.3523 C   0  0  0  0  0  0  0  0  0  0  0  0
   -0.8341    1.7445   -1.4845 H   0  0  0  0  0  0  0  0  0  0  0  0
   -0.3467    1.6600   -3.6259 N   0  0  0  0  0  0  0  0  0  0  0  0
   -0.4776    2.6304   -3.8714 H   0  0  0  0  0  0  0  0  0  0  0  0
    0.0548    0.6723   -4.5000 C   0  0  0  0  0  0  0  0  0  0  0  0
    0.3981    0.6776   -5.8596 C   0  0  0  0  0  0  0  0  0  0  0  0
    0.3683    1.5955   -6.4281 H   0  0  0  0  0  0  0  0  0  0  0  0
    0.7798   -0.5282   -6.4722 C   0  0  0  0  0  0  0  0  0  0  0  0
    1.0469   -0.5436   -7.5202 H   0  0  0  0  0  0  0  0  0  0  0  0
    0.8074   -1.7178   -5.7215 C   0  0  0  0  0  0  0  0  0  0  0  0
    1.0936   -2.6448   -6.1988 H   0  0  0  0  0  0  0  0  0  0  0  0
    0.4584   -1.7117   -4.3560 C   0  0  0  0  0  0  0  0  0  0  0  0
    0.4710   -2.6349   -3.7942 H   0  0  0  0  0  0  0  0  0  0  0  0
    0.0767   -0.5159   -3.7100 C   0  0  0  0  0  0  0  0  0  0  0  0
   -1.7617    0.8549   -0.2106 C   0  0  0  0  0  0  0  0  0  0  0  0
   -2.5726    1.1871   -1.0741 O   0  0  0  0  0  0  0  0  0  0  0  0
   -1.1941    1.7377    0.6223 N   0  0  0  0  0  0  0  0  0  0  0  0
   -0.4976    1.3916    1.2669 H   0  0  0  0  0  0  0  0  0  0  0  0
   -1.4666    3.1722    0.6095 C   0  0  0  0  0  0  0  0  0  0  0  0
   -2.5439    3.3427    0.6539 H   0  0  0  0  0  0  0  0  0  0  0  0
   -0.9893    3.6529    1.4644 H   0  0  0  0  0  0  0  0  0  0  0  0
   -1.0808    3.6095   -0.3129 H   0  0  0  0  0  0  0  0  0  0  0  0
  5  6  2  0  0  0  0
  5  7  1  0  0  0  0
  2  3  1  0  0  0  0
  2  4  1  0  0  0  0
  2  5  1  0  0  0  0
  1  2  1  0  0  0  0
 29 30  2  0  0  0  0
 29 31  1  0  0  0  0
 26 27  1  0  0  0  0
 26 28  2  0  0  0  0
 24 25  1  0  0  0  0
 24 26  1  0  0  0  0
 22 23  1  0  0  0  0
 22 24  2  0  0  0  0
 20 21  1  0  0  0  0
 20 22  1  0  0  0  0
 19 20  2  0  0  0  0
 19 28  1  0  0  0  0
 17 18  1  0  0  0  0
 17 19  1  0  0  0  0
 15 16  1  0  0  0  0
 15 17  1  0  0  0  0
 14 15  2  0  0  0  0
 14 28  1  0  0  0  0
 11 12  1  0  0  0  0
 11 13  1  0  0  0  0
 11 14  1  0  0  0  0
  9 10  1  0  0  0  0
  9 11  1  0  0  0  0
  9 29  1  0  0  0  0
  7  8  1  0  0  0  0
  7  9  1  0  0  0  0
 33 34  1  0  0  0  0
 33 35  1  0  0  0  0
 33 36  1  0  0  0  0
 31 32  1  0  0  0  0
 31 33  1  0  0  0  0
M  END
$$$$
default_name
  -OEChem-02102213163D

 36 37  0     1  0  0  0  0  0999 V2000
   -4.0843   -4.0736    1.2944 H   0  0  0  0  0  0  0  0  0  0  0  0
   -4.0342   -3.2816    0.5484 C   0  0  0  0  0  0  0  0  0  0  0  0
   -4.8842   -2.6126    0.6694 H   0  0  0  0  0  0  0  0  0  0  0  0
   -4.0433   -3.7186   -0.4486 H   0  0  0  0  0  0  0  0  0  0  0  0
   -2.7532   -2.5046    0.7444 C   0  0  0  0  0  0  0  0  0  0  0  0
   -1.9803   -2.8096    1.6434 O   0  0  0  0  0  0  0  0  0  0  0  0
   -2.5332   -1.4966   -0.0966 N   0  0  0  0  0  0  0  0  0  0  0  0
   -3.2312   -1.2816   -0.7936 H   0  0  0  0  0  0  0  0  0  0  0  0
   -1.3593   -0.6196   -0.0536 C   0  0  1  0  0  0  0  0  0  0  0  0
   -0.8788   -0.7266    0.9196 H   0  0  0  0  0  0  0  0  0  0  0  0
   -0.3559   -1.0533   -1.1339 C   0  0  0  0  0  0  0  0  0  0  0  0
    0.6417   -1.0908   -0.6926 H   0  0  0  0  0  0  0  0  0  0  0  0
   -0.6110   -2.0632   -1.4595 H   0  0  0  0  0  0  0  0  0  0  0  0
   -0.2959   -0.1662   -2.3403 C   0  0  0  0  0  0  0  0  0  0  0  0
   -0.2580    1.1851   -2.3219 C   0  0  0  0  0  0  0  0  0  0  0  0
   -0.2860    1.7911   -1.4230 H   0  0  0  0  0  0  0  0  0  0  0  0
   -0.1585    1.6643   -3.6134 N   0  0  0  0  0  0  0  0  0  0  0  0
   -0.1193    2.6470   -3.8414 H   0  0  0  0  0  0  0  0  0  0  0  0
   -0.1102    0.6384   -4.5331 C   0  0  0  0  0  0  0  0  0  0  0  0
    0.0157    0.6085   -5.9294 C   0  0  0  0  0  0  0  0  0  0  0  0
    0.0924    1.5274   -6.4919 H   0  0  0  0  0  0  0  0  0  0  0  0
    0.0390   -0.6335   -6.5865 C   0  0  0  0  0  0  0  0  0  0  0  0
    0.1344   -0.6761   -7.6631 H   0  0  0  0  0  0  0  0  0  0  0  0
   -0.0689   -1.8225   -5.8421 C   0  0  0  0  0  0  0  0  0  0  0  0
   -0.0590   -2.7756   -6.3524 H   0  0  0  0  0  0  0  0  0  0  0  0
   -0.1971   -1.7804   -4.4392 C   0  0  0  0  0  0  0  0  0  0  0  0
   -0.2925   -2.7007   -3.8807 H   0  0  0  0  0  0  0  0  0  0  0  0
   -0.2175   -0.5491   -3.7490 C   0  0  0  0  0  0  0  0  0  0  0  0
   -1.7617    0.8549   -0.2106 C   0  0  0  0  0  0  0  0  0  0  0  0
   -2.5726    1.1871   -1.0741 O   0  0  0  0  0  0  0  0  0  0  0  0
   -1.1941    1.7377    0.6223 N   0  0  0  0  0  0  0  0  0  0  0  0
   -0.4976    1.3916    1.2669 H   0  0  0  0  0  0  0  0  0  0  0  0
   -1.4666    3.1722    0.6095 C   0  0  0  0  0  0  0  0  0  0  0  0
   -2.5439    3.3427    0.6539 H   0  0  0  0  0  0  0  0  0  0  0  0
   -0.9893    3.6529    1.4644 H   0  0  0  0  0  0  0  0  0  0  0  0
   -1.0808    3.6095   -0.3129 H   0  0  0  0  0  0  0  0  0  0  0  0
  5  6  2  0  0  0  0
  5  7  1  0  0  0  0
  2  3  1  0  0  0  0
  2  4  1  0  0  0  0
  2  5  1  0  0  0  0
  1  2  1  0  0  0  0
 29 30  2  0  0  0  0
 29 31  1  0  0  0  0
 26 27  1  0  0  0  0
 26 28  2  0  0  0  0
 24 25  1  0  0  0  0
 24 26  1  0  0  0  0
 22 23  1  0  0  0  0
 22 24  2  0  0  0  0
 20 21  1  0  0  0  0
 20 22  1  0  0  0  0
 19 20  2  0  0  0  0
 19 28  1  0  0  0  0
 17 18  1  0  0  0  0
 17 19  1  0  0  0  0
 15 16  1  0  0  0  0
 15 17  1  0  0  0  0
 14 15  2  0  0  0  0
 14 28  1  0  0  0  0
 11 12  1  0  0  0  0
 11 13  1  0  0  0  0
 11 14  1  0  0  0  0
  9 10  1  0  0  0  0
  9 11  1  0  0  0  0
  9 29  1  0  0  0  0
  7  8  1  0  0  0  0
  7  9  1  0  0  0  0
 33 34  1  0  0  0  0
 33 35  1  0  0  0  0
 33 36  1  0  0  0  0
 31 32  1  0  0  0  0
 31 33  1  0  0  0  0
M  END
$$$$
default_name
  -OEChem-02102213163D

 36 37  0     1  0  0  0  0  0999 V2000
   -4.0843   -4.0736    1.2944 H   0  0  0  0  0  0  0  0  0  0  0  0
   -4.0342   -3.2816    0.5484 C   0  0  0  0  0  0  0  0  0  0  0  0
   -4.8842   -2.6126    0.6694 H   0  0  0  0  0  0  0  0  0  0  0  0
   -4.0433   -3.7186   -0.4486 H   0  0  0  0  0  0  0  0  0  0  0  0
   -2.7532   -2.5046    0.7444 C   0  0  0  0  0  0  0  0  0  0  0  0
   -1.9803   -2.8096    1.6434 O   0  0  0  0  0  0  0  0  0  0  0  0
   -2.5332   -1.4966   -0.0966 N   0  0  0  0  0  0  0  0  0  0  0  0
   -3.2312   -1.2816   -0.7936 H   0  0  0  0  0  0  0  0  0  0  0  0
   -1.3593   -0.6196   -0.0536 C   0  0  1  0  0  0  0  0  0  0  0  0
   -0.8788   -0.7266    0.9196 H   0  0  0  0  0  0  0  0  0  0  0  0
   -0.3559   -1.0533   -1.1339 C   0  0  0  0  0  0  0  0  0  0  0  0
    0.6417   -1.0908   -0.6926 H   0  0  0  0  0  0  0  0  0  0  0  0
   -0.6110   -2.0632   -1.4595 H   0  0  0  0  0  0  0  0  0  0  0  0
   -0.2959   -0.1662   -2.3403 C   0  0  0  0  0  0  0  0  0  0  0  0
    0.0261    1.1468   -2.3359 C   0  0  0  0  0  0  0  0  0  0  0  0
    0.2626    1.7213   -1.4470 H   0  0  0  0  0  0  0  0  0  0  0  0
    0.0260    1.6291   -3.6301 N   0  0  0  0  0  0  0  0  0  0  0  0
    0.2347    2.5880   -3.8672 H   0  0  0  0  0  0  0  0  0  0  0  0
   -0.2818    0.6404   -4.5402 C   0  0  0  0  0  0  0  0  0  0  0  0
   -0.3788    0.6222   -5.9390 C   0  0  0  0  0  0  0  0  0  0  0  0
   -0.1981    1.5198   -6.5120 H   0  0  0  0  0  0  0  0  0  0  0  0
   -0.7161   -0.5797   -6.5845 C   0  0  0  0  0  0  0  0  0  0  0  0
   -0.7965   -0.6125   -7.6626 H   0  0  0  0  0  0  0  0  0  0  0  0
   -0.9557   -1.7397   -5.8254 C   0  0  0  0  0  0  0  0  0  0  0  0
   -1.2231   -2.6603   -6.3255 H   0  0  0  0  0  0  0  0  0  0  0  0
   -0.8573   -1.7093   -4.4198 C   0  0  0  0  0  0  0  0  0  0  0  0
   -1.0571   -2.6043   -3.8478 H   0  0  0  0  0  0  0  0  0  0  0  0
   -0.5145   -0.5194   -3.7419 C   0  0  0  0  0  0  0  0  0  0  0  0
   -1.7617    0.8549   -0.2106 C   0  0  0  0  0  0  0  0  0  0  0  0
   -2.5726    1.1871   -1.0741 O   0  0  0  0  0  0  0  0  0  0  0  0
   -1.1941    1.7377    0.6223 N   0  0  0  0  0  0  0  0  0  0  0  0
   -0.4976    1.3916    1.2669 H   0  0  0  0  0  0  0  0  0  0  0  0
   -1.4666    3.1722    0.6095 C   0  0  0  0  0  0  0  0  0  0  0  0
   -2.5439    3.3427    0.6539 H   0  0  0  0  0  0  0  0  0  0  0  0
   -0.9893    3.6529    1.4644 H   0  0  0  0  0  0  0  0  0  0  0  0
   -1.0808    3.6095   -0.3129 H   0  0  0  0  0  0  0  0  0  0  0  0
  5  6  2  0  0  0  0
  5  7  1  0  0  0  0
  2  3  1  0  0  0  0
  2  4  1  0  0  0  0
  2  5  1  0  0  0  0
  1  2  1  0  0  0  0
 29 30  2  0  0  0  0
 29 31  1  0  0  0  0
 26 27  1  0  0  0  0
 26 28  2  0  0  0  0
 24 25  1  0  0  0  0
 24 26  1  0  0  0  0
 22 23  1  0  0  0  0
 22 24  2  0  0  0  0
 20 21  1  0  0  0  0
 20 22  1  0  0  0  0
 19 20  2  0  0  0  0
 19 28  1  0  0  0  0
 17 18  1  0  0  0  0
 17 19  1  0  0  0  0
 15 16  1  0  0  0  0
 15 17  1  0  0  0  0
 14 15  2  0  0  0  0
 14 28  1  0  0  0  0
 11 12  1  0  0  0  0
 11 13  1  0  0  0  0
 11 14  1  0  0  0  0
  9 10  1  0  0  0  0
  9 11  1  0  0  0  0
  9 29  1  0  0  0  0
  7  8  1  0  0  0  0
  7  9  1  0  0  0  0
 33 34  1  0  0  0  0
 33 35  1  0  0  0  0
 33 36  1  0  0  0  0
 31 32  1  0  0  0  0
 31 33  1  0  0  0  0
M  END
$$$$
default_name
  -OEChem-02102213163D

 36 37  0     1  0  0  0  0  0999 V2000
   -4.0843   -4.0736    1.2944 H   0  0  0  0  0  0  0  0  0  0  0  0
   -4.0342   -3.2816    0.5484 C   0  0  0  0  0  0  0  0  0  0  0  0
   -4.8842   -2.6126    0.6694 H   0  0  0  0  0  0  0  0  0  0  0  0
   -4.0433   -3.7186   -0.4486 H   0  0  0  0  0  0  0  0  0  0  0  0
   -2.7532   -2.5046    0.7444 C   0  0  0  0  0  0  0  0  0  0  0  0
   -1.9803   -2.8096    1.6434 O   0  0  0  0  0  0  0  0  0  0  0  0
   -2.5332   -1.4966   -0.0966 N   0  0  0  0  0  0  0  0  0  0  0  0
   -3.2312   -1.2816   -0.7936 H   0  0  0  0  0  0  0  0  0  0  0  0
   -1.3593   -0.6196   -0.0536 C   0  0  1  0  0  0  0  0  0  0  0  0
   -0.8788   -0.7266    0.9196 H   0  0  0  0  0  0  0  0  0  0  0  0
   -0.3559   -1.0533   -1.1339 C   0  0  0  0  0  0  0  0  0  0  0  0
    0.6417   -1.0908   -0.6926 H   0  0  0  0  0  0  0  0  0  0  0  0
   -0.6110   -2.0632   -1.4595 H   0  0  0  0  0  0  0  0  0  0  0  0
   -0.2959   -0.1662   -2.3403 C   0  0  0  0  0  0  0  0  0  0  0  0
    0.2905    1.0508   -2.3933 C   0  0  0  0  0  0  0  0  0  0  0  0
    0.7743    1.5399   -1.5550 H   0  0  0  0  0  0  0  0  0  0  0  0
    0.1944    1.5569   -3.6748 N   0  0  0  0  0  0  0  0  0  0  0  0
    0.5605    2.4575   -3.9469 H   0  0  0  0  0  0  0  0  0  0  0  0
   -0.4482    0.6781   -4.5207 C   0  0  0  0  0  0  0  0  0  0  0  0
   -0.7584    0.7177   -5.8877 C   0  0  0  0  0  0  0  0  0  0  0  0
   -0.4833    1.5732   -6.4869 H   0  0  0  0  0  0  0  0  0  0  0  0
   -1.4338   -0.3705   -6.4663 C   0  0  0  0  0  0  0  0  0  0  0  0
   -1.6823   -0.3571   -7.5189 H   0  0  0  0  0  0  0  0  0  0  0  0
   -1.7925   -1.4752   -5.6725 C   0  0  0  0  0  0  0  0  0  0  0  0
   -2.3194   -2.3066   -6.1200 H   0  0  0  0  0  0  0  0  0  0  0  0
   -1.4773   -1.5033   -4.2991 C   0  0  0  0  0  0  0  0  0  0  0  0
   -1.7704   -2.3523   -3.6980 H   0  0  0  0  0  0  0  0  0  0  0  0
   -0.7941   -0.4289   -3.6893 C   0  0  0  0  0  0  0  0  0  0  0  0
   -1.7617    0.8549   -0.2106 C   0  0  0  0  0  0  0  0  0  0  0  0
   -2.5726    1.1871   -1.0741 O   0  0  0  0  0  0  0  0  0  0  0  0
   -1.1941    1.7377    0.6223 N   0  0  0  0  0  0  0  0  0  0  0  0
   -0.4976    1.3916    1.2669 H   0  0  0  0  0  0  0  0  0  0  0  0
   -1.4666    3.1722    0.6095 C   0  0  0  0  0  0  0  0  0  0  0  0
   -2.5439    3.3427    0.6539 H   0  0  0  0  0  0  0  0  0  0  0  0
   -0.9893    3.6529    1.4644 H   0  0  0  0  0  0  0  0  0  0  0  0
   -1.0808    3.6095   -0.3129 H   0  0  0  0  0  0  0  0  0  0  0  0
  5  6  2  0  0  0  0
  5  7  1  0  0  0  0
  2  3  1  0  0  0  0
  2  4  1  0  0  0  0
  2  5  1  0  0  0  0
  1  2  1  0  0  0  0
 29 30  2  0  0  0  0
 29 31  1  0  0  0  0
 26 27  1  0  0  0  0
 26 28  2  0  0  0  0
 24 25  1  0  0  0  0
 24 26  1  0  0  0  0
 22 23  1  0  0  0  0
 22 24  2  0  0  0  0
 20 21  1  0  0  0  0
 20 22  1  0  0  0  0
 19 20  2  0  0  0  0
 19 28  1  0  0  0  0
 17 18  1  0  0  0  0
 17 19  1  0  0  0  0
 15 16  1  0  0  0  0
 15 17  1  0  0  0  0
 14 15  2  0  0  0  0
 14 28  1  0  0  0  0
 11 12  1  0  0  0  0
 11 13  1  0  0  0  0
 11 14  1  0  0  0  0
  9 10  1  0  0  0  0
  9 11  1  0  0  0  0
  9 29  1  0  0  0  0
  7  8  1  0  0  0  0
  7  9  1  0  0  0  0
 33 34  1  0  0  0  0
 33 35  1  0  0  0  0
 33 36  1  0  0  0  0
 31 32  1  0  0  0  0
 31 33  1  0  0  0  0
M  END
$$$$
default_name
  -OEChem-02102213163D

 36 37  0     1  0  0  0  0  0999 V2000
   -4.0843   -4.0736    1.2944 H   0  0  0  0  0  0  0  0  0  0  0  0
   -4.0342   -3.2816    0.5484 C   0  0  0  0  0  0  0  0  0  0  0  0
   -4.8842   -2.6126    0.6694 H   0  0  0  0  0  0  0  0  0  0  0  0
   -4.0433   -3.7186   -0.4486 H   0  0  0  0  0  0  0  0  0  0  0  0
   -2.7532   -2.5046    0.7444 C   0  0  0  0  0  0  0  0  0  0  0  0
   -1.9803   -2.8096    1.6434 O   0  0  0  0  0  0  0  0  0  0  0  0
   -2.5332   -1.4966   -0.0966 N   0  0  0  0  0  0  0  0  0  0  0  0
   -3.2312   -1.2816   -0.7936 H   0  0  0  0  0  0  0  0  0  0  0  0
   -1.3593   -0.6196   -0.0536 C   0  0  1  0  0  0  0  0  0  0  0  0
   -0.8788   -0.7266    0.9196 H   0  0  0  0  0  0  0  0  0  0  0  0
   -0.3559   -1.0533   -1.1339 C   0  0  0  0  0  0  0  0  0  0  0  0
    0.6417   -1.0908   -0.6926 H   0  0  0  0  0  0  0  0  0  0  0  0
   -0.6110   -2.0632   -1.4595 H   0  0  0  0  0  0  0  0  0  0  0  0
   -0.2959   -0.1662   -2.3403 C   0  0  0  0  0  0  0  0  0  0  0  0
    0.5170    0.9036   -2.4903 C   0  0  0  0  0  0  0  0  0  0  0  0
    1.2142    1.2591   -1.7395 H   0  0  0  0  0  0  0  0  0  0  0  0
    0.3351    1.4525   -3.7445 N   0  0  0  0  0  0  0  0  0  0  0  0
    0.8357    2.2645   -4.0751 H   0  0  0  0  0  0  0  0  0  0  0  0
   -0.5981    0.7491   -4.4760 C   0  0  0  0  0  0  0  0  0  0  0  0
   -1.0974    0.8885   -5.7789 C   0  0  0  0  0  0  0  0  0  0  0  0
   -0.7439    1.6839   -6.4185 H   0  0  0  0  0  0  0  0  0  0  0  0
   -2.0654   -0.0200   -6.2401 C   0  0  0  0  0  0  0  0  0  0  0  0
   -2.4628    0.0726   -7.2418 H   0  0  0  0  0  0  0  0  0  0  0  0
   -2.5222   -1.0470   -5.3939 C   0  0  0  0  0  0  0  0  0  0  0  0
   -3.2731   -1.7387   -5.7499 H   0  0  0  0  0  0  0  0  0  0  0  0
   -2.0147   -1.1764   -4.0855 C   0  0  0  0  0  0  0  0  0  0  0  0
   -2.3840   -1.9617   -3.4413 H   0  0  0  0  0  0  0  0  0  0  0  0
   -1.0373   -0.2838   -3.5947 C   0  0  0  0  0  0  0  0  0  0  0  0
   -1.7617    0.8549   -0.2106 C   0  0  0  0  0  0  0  0  0  0  0  0
   -2.5726    1.1871   -1.0741 O   0  0  0  0  0  0  0  0  0  0  0  0
   -1.1941    1.7377    0.6223 N   0  0  0  0  0  0  0  0  0  0  0  0
   -0.4976    1.3916    1.2669 H   0  0  0  0  0  0  0  0  0  0  0  0
   -1.4666    3.1722    0.6095 C   0  0  0  0  0  0  0  0  0  0  0  0
   -2.5439    3.3427    0.6539 H   0  0  0  0  0  0  0  0  0  0  0  0
   -0.9893    3.6529    1.4644 H   0  0  0  0  0  0  0  0  0  0  0  0
   -1.0808    3.6095   -0.3129 H   0  0  0  0  0  0  0  0  0  0  0  0
  5  6  2  0  0  0  0
  5  7  1  0  0  0  0
  2  3  1  0  0  0  0
  2  4  1  0  0  0  0
  2  5  1  0  0  0  0
  1  2  1  0  0  0  0
 29 30  2  0  0  0  0
 29 31  1  0  0  0  0
 26 27  1  0  0  0  0
 26 28  2  0  0  0  0
 24 25  1  0  0  0  0
 24 26  1  0  0  0  0
 22 23  1  0  0  0  0
 22 24  2  0  0  0  0
 20 21  1  0  0  0  0
 20 22  1  0  0  0  0
 19 20  2  0  0  0  0
 19 28  1  0  0  0  0
 17 18  1  0  0  0  0
 17 19  1  0  0  0  0
 15 16  1  0  0  0  0
 15 17  1  0  0  0  0
 14 15  2  0  0  0  0
 14 28  1  0  0  0  0
 11 12  1  0  0  0  0
 11 13  1  0  0  0  0
 11 14  1  0  0  0  0
  9 10  1  0  0  0  0
  9 11  1  0  0  0  0
  9 29  1  0  0  0  0
  7  8  1  0  0  0  0
  7  9  1  0  0  0  0
 33 34  1  0  0  0  0
 33 35  1  0  0  0  0
 33 36  1  0  0  0  0
 31 32  1  0  0  0  0
 31 33  1  0  0  0  0
M  END
$$$$
default_name
  -OEChem-02102213163D

 36 37  0     1  0  0  0  0  0999 V2000
   -4.0843   -4.0736    1.2944 H   0  0  0  0  0  0  0  0  0  0  0  0
   -4.0342   -3.2816    0.5484 C   0  0  0  0  0  0  0  0  0  0  0  0
   -4.8842   -2.6126    0.6694 H   0  0  0  0  0  0  0  0  0  0  0  0
   -4.0433   -3.7186   -0.4486 H   0  0  0  0  0  0  0  0  0  0  0  0
   -2.7532   -2.5046    0.7444 C   0  0  0  0  0  0  0  0  0  0  0  0
   -1.9803   -2.8096    1.6434 O   0  0  0  0  0  0  0  0  0  0  0  0
   -2.5332   -1.4966   -0.0966 N   0  0  0  0  0  0  0  0  0  0  0  0
   -3.2312   -1.2816   -0.7936 H   0  0  0  0  0  0  0  0  0  0  0  0
   -1.3593   -0.6196   -0.0536 C   0  0  1  0  0  0  0  0  0  0  0  0
   -0.8788   -0.7266    0.9196 H   0  0  0  0  0  0  0  0  0  0  0  0
   -0.3559   -1.0533   -1.1339 C   0  0  0  0  0  0  0  0  0  0  0  0
    0.6417   -1.0908   -0.6926 H   0  0  0  0  0  0  0  0  0  0  0  0
   -0.6110   -2.0632   -1.4595 H   0  0  0  0  0  0  0  0  0  0  0  0
   -0.2959   -0.1662   -2.3403 C   0  0  0  0  0  0  0  0  0  0  0  0
    0.6903    0.7152   -2.6202 C   0  0  0  0  0  0  0  0  0  0  0  0
    1.5523    0.8982   -1.9881 H   0  0  0  0  0  0  0  0  0  0  0  0
    0.4386    1.3231   -3.8346 N   0  0  0  0  0  0  0  0  0  0  0  0
    1.0418    2.0220   -4.2432 H   0  0  0  0  0  0  0  0  0  0  0  0
   -0.7212    0.8484   -4.4091 C   0  0  0  0  0  0  0  0  0  0  0  0
   -1.3726    1.1230   -5.6202 C   0  0  0  0  0  0  0  0  0  0  0  0
   -0.9620    1.8444   -6.3113 H   0  0  0  0  0  0  0  0  0  0  0  0
   -2.5678    0.4478   -5.9211 C   0  0  0  0  0  0  0  0  0  0  0  0
   -3.0847    0.6474   -6.8500 H   0  0  0  0  0  0  0  0  0  0  0  0
   -3.0951   -0.4842   -5.0086 C   0  0  0  0  0  0  0  0  0  0  0  0
   -4.0193   -0.9953   -5.2404 H   0  0  0  0  0  0  0  0  0  0  0  0
   -2.4330   -0.7509   -3.7934 C   0  0  0  0  0  0  0  0  0  0  0  0
   -2.8560   -1.4593   -3.0954 H   0  0  0  0  0  0  0  0  0  0  0  0
   -1.2275   -0.0939   -3.4646 C   0  0  0  0  0  0  0  0  0  0  0  0
   -1.7617    0.8549   -0.2106 C   0  0  0  0  0  0  0  0  0  0  0  0
   -2.5726    1.1871   -1.0741 O   0  0  0  0  0  0  0  0  0  0  0  0
   -1.1941    1.7377    0.6223 N   0  0  0  0  0  0  0  0  0  0  0  0
   -0.4976    1.3916    1.2669 H   0  0  0  0  0  0  0  0  0  0  0  0
   -1.4666    3.1722    0.6095 C   0  0  0  0  0  0  0  0  0  0  0  0
   -2.5439    3.3427    0.6539 H   0  0  0  0  0  0  0  0  0  0  0  0
   -0.9893    3.6529    1.4644 H   0  0  0  0  0  0  0  0  0  0  0  0
   -1.0808    3.6095   -0.3129 H   0  0  0  0  0  0  0  0  0  0  0  0
  5  6  2  0  0  0  0
  5  7  1  0  0  0  0
  2  3  1  0  0  0  0
  2  4  1  0  0  0  0
  2  5  1  0  0  0  0
  1  2  1  0  0  0  0
 29 30  2  0  0  0  0
 29 31  1  0  0  0  0
 26 27  1  0  0  0  0
 26 28  2  0  0  0  0
 24 25  1  0  0  0  0
 24 26  1  0  0  0  0
 22 23  1  0  0  0  0
 22 24  2  0  0  0  0
 20 21  1  0  0  0  0
 20 22  1  0  0  0  0
 19 20  2  0  0  0  0
 19 28  1  0  0  0  0
 17 18  1  0  0  0  0
 17 19  1  0  0  0  0
 15 16  1  0  0  0  0
 15 17  1  0  0  0  0
 14 15  2  0  0  0  0
 14 28  1  0  0  0  0
 11 12  1  0  0  0  0
 11 13  1  0  0  0  0
 11 14  1  0  0  0  0
  9 10  1  0  0  0  0
  9 11  1  0  0  0  0
  9 29  1  0  0  0  0
  7  8  1  0  0  0  0
  7  9  1  0  0  0  0
 33 34  1  0  0  0  0
 33 35  1  0  0  0  0
 33 36  1  0  0  0  0
 31 32  1  0  0  0  0
 31 33  1  0  0  0  0
M  END
$$$$
default_name
  -OEChem-02102213163D

 36 37  0     1  0  0  0  0  0999 V2000
   -4.0843   -4.0736    1.2944 H   0  0  0  0  0  0  0  0  0  0  0  0
   -4.0342   -3.2816    0.5484 C   0  0  0  0  0  0  0  0  0  0  0  0
   -4.8842   -2.6126    0.6694 H   0  0  0  0  0  0  0  0  0  0  0  0
   -4.0433   -3.7186   -0.4486 H   0  0  0  0  0  0  0  0  0  0  0  0
   -2.7532   -2.5046    0.7444 C   0  0  0  0  0  0  0  0  0  0  0  0
   -1.9803   -2.8096    1.6434 O   0  0  0  0  0  0  0  0  0  0  0  0
   -2.5332   -1.4966   -0.0966 N   0  0  0  0  0  0  0  0  0  0  0  0
   -3.2312   -1.2816   -0.7936 H   0  0  0  0  0  0  0  0  0  0  0  0
   -1.3593   -0.6196   -0.0536 C   0  0  1  0  0  0  0  0  0  0  0  0
   -0.8788   -0.7266    0.9196 H   0  0  0  0  0  0  0  0  0  0  0  0
   -0.3559   -1.0533   -1.1339 C   0  0  0  0  0  0  0  0  0  0  0  0
    0.6417   -1.0908   -0.6926 H   0  0  0  0  0  0  0  0  0  0  0  0
   -0.6110   -2.0632   -1.4595 H   0  0  0  0  0  0  0  0  0  0  0  0
   -0.2959   -0.1662   -2.3403 C   0  0  0  0  0  0  0  0  0  0  0  0
    0.7985    0.4985   -2.7742 C   0  0  0  0  0  0  0  0  0  0  0  0
    1.7656    0.4817   -2.2837 H   0  0  0  0  0  0  0  0  0  0  0  0
    0.4978    1.1775   -3.9387 N   0  0  0  0  0  0  0  0  0  0  0  0
    1.1645    1.7466   -4.4396 H   0  0  0  0  0  0  0  0  0  0  0  0
   -0.8092    0.9692   -4.3246 C   0  0  0  0  0  0  0  0  0  0  0  0
   -1.5652    1.4052   -5.4223 C   0  0  0  0  0  0  0  0  0  0  0  0
   -1.1228    2.0438   -6.1727 H   0  0  0  0  0  0  0  0  0  0  0  0
   -2.9068    1.0009   -5.5312 C   0  0  0  0  0  0  0  0  0  0  0  0
   -3.5056    1.3282   -6.3704 H   0  0  0  0  0  0  0  0  0  0  0  0
   -3.4723    0.1747   -4.5428 C   0  0  0  0  0  0  0  0  0  0  0  0
   -4.5072   -0.1270   -4.6262 H   0  0  0  0  0  0  0  0  0  0  0  0
   -2.7036   -0.2558   -3.4428 C   0  0  0  0  0  0  0  0  0  0  0  0
   -3.1542   -0.8793   -2.6837 H   0  0  0  0  0  0  0  0  0  0  0  0
   -1.3517    0.1277   -3.3077 C   0  0  0  0  0  0  0  0  0  0  0  0
   -1.7617    0.8549   -0.2106 C   0  0  0  0  0  0  0  0  0  0  0  0
   -2.5726    1.1871   -1.0741 O   0  0  0  0  0  0  0  0  0  0  0  0
   -1.1941    1.7377    0.6223 N   0  0  0  0  0  0  0  0  0  0  0  0
   -0.4976    1.3916    1.2669 H   0  0  0  0  0  0  0  0  0  0  0  0
   -1.4666    3.1722    0.6095 C   0  0  0  0  0  0  0  0  0  0  0  0
   -2.5439    3.3427    0.6539 H   0  0  0  0  0  0  0  0  0  0  0  0
   -0.9893    3.6529    1.4644 H   0  0  0  0  0  0  0  0  0  0  0  0
   -1.0808    3.6095   -0.3129 H   0  0  0  0  0  0  0  0  0  0  0  0
  5  6  2  0  0  0  0
  5  7  1  0  0  0  0
  2  3  1  0  0  0  0
  2  4  1  0  0  0  0
  2  5  1  0  0  0  0
  1  2  1  0  0  0  0
 29 30  2  0  0  0  0
 29 31  1  0  0  0  0
 26 27  1  0  0  0  0
 26 28  2  0  0  0  0
 24 25  1  0  0  0  0
 24 26  1  0  0  0  0
 22 23  1  0  0  0  0
 22 24  2  0  0  0  0
 20 21  1  0  0  0  0
 20 22  1  0  0  0  0
 19 20  2  0  0  0  0
 19 28  1  0  0  0  0
 17 18  1  0  0  0  0
 17 19  1  0  0  0  0
 15 16  1  0  0  0  0
 15 17  1  0  0  0  0
 14 15  2  0  0  0  0
 14 28  1  0  0  0  0
 11 12  1  0  0  0  0
 11 13  1  0  0  0  0
 11 14  1  0  0  0  0
  9 10  1  0  0  0  0
  9 11  1  0  0  0  0
  9 29  1  0  0  0  0
  7  8  1  0  0  0  0
  7  9  1  0  0  0  0
 33 34  1  0  0  0  0
 33 35  1  0  0  0  0
 33 36  1  0  0  0  0
 31 32  1  0  0  0  0
 31 33  1  0  0  0  0
M  END
$$$$
default_name
  -OEChem-02102213163D

 36 37  0     1  0  0  0  0  0999 V2000
   -4.0843   -4.0736    1.2944 H   0  0  0  0  0  0  0  0  0  0  0  0
   -4.0342   -3.2816    0.5484 C   0  0  0  0  0  0  0  0  0  0  0  0
   -4.8842   -2.6126    0.6694 H   0  0  0  0  0  0  0  0  0  0  0  0
   -4.0433   -3.7186   -0.4486 H   0  0  0  0  0  0  0  0  0  0  0  0
   -2.7532   -2.5046    0.7444 C   0  0  0  0  0  0  0  0  0  0  0  0
   -1.9803   -2.8096    1.6434 O   0  0  0  0  0  0  0  0  0  0  0  0
   -2.5332   -1.4966   -0.0966 N   0  0  0  0  0  0  0  0  0  0  0  0
   -3.2312   -1.2816   -0.7936 H   0  0  0  0  0  0  0  0  0  0  0  0
   -1.3593   -0.6196   -0.0536 C   0  0  1  0  0  0  0  0  0  0  0  0
   -0.8788   -0.7266    0.9196 H   0  0  0  0  0  0  0  0  0  0  0  0
   -0.3559   -1.0533   -1.1339 C   0  0  0  0  0  0  0  0  0  0  0  0
    0.6417   -1.0908   -0.6926 H   0  0  0  0  0  0  0  0  0  0  0  0
   -0.6110   -2.0632   -1.4595 H   0  0  0  0  0  0  0  0  0  0  0  0
   -0.2959   -0.1662   -2.3403 C   0  0  0  0  0  0  0  0  0  0  0  0
    0.8343    0.2682   -2.9418 C   0  0  0  0  0  0  0  0  0  0  0  0
    1.8396    0.0380   -2.6063 H   0  0  0  0  0  0  0  0  0  0  0  0
    0.5087    1.0255   -4.0499 N   0  0  0  0  0  0  0  0  0  0  0  0
    1.1955    1.4570   -4.6510 H   0  0  0  0  0  0  0  0  0  0  0  0
   -0.8561    1.1034   -4.2283 C   0  0  0  0  0  0  0  0  0  0  0  0
   -1.6622    1.7158   -5.1987 C   0  0  0  0  0  0  0  0  0  0  0  0
   -1.2154    2.2684   -6.0121 H   0  0  0  0  0  0  0  0  0  0  0  0
   -3.0592    1.6019   -5.0969 C   0  0  0  0  0  0  0  0  0  0  0  0
   -3.6968    2.0685   -5.8355 H   0  0  0  0  0  0  0  0  0  0  0  0
   -3.6279    0.8850   -4.0282 C   0  0  0  0  0  0  0  0  0  0  0  0
   -4.7034    0.8069   -3.9491 H   0  0  0  0  0  0  0  0  0  0  0  0
   -2.8081    0.2753   -3.0575 C   0  0  0  0  0  0  0  0  0  0  0  0
   -3.2583   -0.2612   -2.2343 H   0  0  0  0  0  0  0  0  0  0  0  0
   -1.4014    0.3661   -3.1349 C   0  0  0  0  0  0  0  0  0  0  0  0
   -1.7617    0.8549   -0.2106 C   0  0  0  0  0  0  0  0  0  0  0  0
   -2.5726    1.1871   -1.0741 O   0  0  0  0  0  0  0  0  0  0  0  0
   -1.1941    1.7377    0.6223 N   0  0  0  0  0  0  0  0  0  0  0  0
   -0.4976    1.3916    1.2669 H   0  0  0  0  0  0  0  0  0  0  0  0
   -1.4666    3.1722    0.6095 C   0  0  0  0  0  0  0  0  0  0  0  0
   -2.5439    3.3427    0.6539 H   0  0  0  0  0  0  0  0  0  0  0  0
   -0.9893    3.6529    1.4644 H   0  0  0  0  0  0  0  0  0  0  0  0
   -1.0808    3.6095   -0.3129 H   0  0  0  0  0  0  0  0  0  0  0  0
  5  6  2  0  0  0  0
  5  7  1  0  0  0  0
  2  3  1  0  0  0  0
  2  4  1  0  0  0  0
  2  5  1  0  0  0  0
  1  2  1  0  0  0  0
 29 30  2  0  0  0  0
 29 31  1  0  0  0  0
 26 27  1  0  0  0  0
 26 28  2  0  0  0  0
 24 25  1  0  0  0  0
 24 26  1  0  0  0  0
 22 23  1  0  0  0  0
 22 24  2  0  0  0  0
 20 21  1  0  0  0  0
 20 22  1  0  0  0  0
 19 20  2  0  0  0  0
 19 28  1  0  0  0  0
 17 18  1  0  0  0  0
 17 19  1  0  0  0  0
 15 16  1  0  0  0  0
 15 17  1  0  0  0  0
 14 15  2  0  0  0  0
 14 28  1  0  0  0  0
 11 12  1  0  0  0  0
 11 13  1  0  0  0  0
 11 14  1  0  0  0  0
  9 10  1  0  0  0  0
  9 11  1  0  0  0  0
  9 29  1  0  0  0  0
  7  8  1  0  0  0  0
  7  9  1  0  0  0  0
 33 34  1  0  0  0  0
 33 35  1  0  0  0  0
 33 36  1  0  0  0  0
 31 32  1  0  0  0  0
 31 33  1  0  0  0  0
M  END
$$$$
default_name
  -OEChem-02102213163D

 36 37  0     1  0  0  0  0  0999 V2000
   -4.0843   -4.0736    1.2944 H   0  0  0  0  0  0  0  0  0  0  0  0
   -4.0342   -3.2816    0.5484 C   0  0  0  0  0  0  0  0  0  0  0  0
   -4.8842   -2.6126    0.6694 H   0  0  0  0  0  0  0  0  0  0  0  0
   -4.0433   -3.7186   -0.4486 H   0  0  0  0  0  0  0  0  0  0  0  0
   -2.7532   -2.5046    0.7444 C   0  0  0  0  0  0  0  0  0  0  0  0
   -1.9803   -2.8096    1.6434 O   0  0  0  0  0  0  0  0  0  0  0  0
   -2.5332   -1.4966   -0.0966 N   0  0  0  0  0  0  0  0  0  0  0  0
   -3.2312   -1.2816   -0.7936 H   0  0  0  0  0  0  0  0  0  0  0  0
   -1.3593   -0.6196   -0.0536 C   0  0  1  0  0  0  0  0  0  0  0  0
   -0.8788   -0.7266    0.9196 H   0  0  0  0  0  0  0  0  0  0  0  0
   -0.3559   -1.0533   -1.1339 C   0  0  0  0  0  0  0  0  0  0  0  0
    0.6417   -1.0908   -0.6926 H   0  0  0  0  0  0  0  0  0  0  0  0
   -0.6110   -2.0632   -1.4595 H   0  0  0  0  0  0  0  0  0  0  0  0
   -0.2959   -0.1662   -2.3403 C   0  0  0  0  0  0  0  0  0  0  0  0
    0.7952    0.0400   -3.1115 C   0  0  0  0  0  0  0  0  0  0  0  0
    1.7692   -0.4026   -2.9338 H   0  0  0  0  0  0  0  0  0  0  0  0
    0.4706    0.8776   -4.1605 N   0  0  0  0  0  0  0  0  0  0  0  0
    1.1328    1.1730   -4.8629 H   0  0  0  0  0  0  0  0  0  0  0  0
   -0.8587    1.2418   -4.1267 C   0  0  0  0  0  0  0  0  0  0  0  0
   -1.6568    2.0338   -4.9646 C   0  0  0  0  0  0  0  0  0  0  0  0
   -1.2334    2.5031   -5.8405 H   0  0  0  0  0  0  0  0  0  0  0  0
   -3.0147    2.2096   -4.6478 C   0  0  0  0  0  0  0  0  0  0  0  0
   -3.6454    2.8178   -5.2820 H   0  0  0  0  0  0  0  0  0  0  0  0
   -3.5515    1.5982   -3.5000 C   0  0  0  0  0  0  0  0  0  0  0  0
   -4.5947    1.7429   -3.2555 H   0  0  0  0  0  0  0  0  0  0  0  0
   -2.7394    0.8060   -2.6638 C   0  0  0  0  0  0  0  0  0  0  0  0
   -3.1613    0.3529   -1.7779 H   0  0  0  0  0  0  0  0  0  0  0  0
   -1.3734    0.6049   -2.9579 C   0  0  0  0  0  0  0  0  0  0  0  0
   -1.7617    0.8549   -0.2106 C   0  0  0  0  0  0  0  0  0  0  0  0
   -2.5726    1.1871   -1.0741 O   0  0  0  0  0  0  0  0  0  0  0  0
   -1.1941    1.7377    0.6223 N   0  0  0  0  0  0  0  0  0  0  0  0
   -0.4976    1.3916    1.2669 H   0  0  0  0  0  0  0  0  0  0  0  0
   -1.4666    3.1722    0.6095 C   0  0  0  0  0  0  0  0  0  0  0  0
   -2.5439    3.3427    0.6539 H   0  0  0  0  0  0  0  0  0  0  0  0
   -0.9893    3.6529    1.4644 H   0  0  0  0  0  0  0  0  0  0  0  0
   -1.0808    3.6095   -0.3129 H   0  0  0  0  0  0  0  0  0  0  0  0
  5  6  2  0  0  0  0
  5  7  1  0  0  0  0
  2  3  1  0  0  0  0
  2  4  1  0  0  0  0
  2  5  1  0  0  0  0
  1  2  1  0  0  0  0
 29 30  2  0  0  0  0
 29 31  1  0  0  0  0
 26 27  1  0  0  0  0
 26 28  2  0  0  0  0
 24 25  1  0  0  0  0
 24 26  1  0  0  0  0
 22 23  1  0  0  0  0
 22 24  2  0  0  0  0
 20 21  1  0  0  0  0
 20 22  1  0  0  0  0
 19 20  2  0  0  0  0
 19 28  1  0  0  0  0
 17 18  1  0  0  0  0
 17 19  1  0  0  0  0
 15 16  1  0  0  0  0
 15 17  1  0  0  0  0
 14 15  2  0  0  0  0
 14 28  1  0  0  0  0
 11 12  1  0  0  0  0
 11 13  1  0  0  0  0
 11 14  1  0  0  0  0
  9 10  1  0  0  0  0
  9 11  1  0  0  0  0
  9 29  1  0  0  0  0
  7  8  1  0  0  0  0
  7  9  1  0  0  0  0
 33 34  1  0  0  0  0
 33 35  1  0  0  0  0
 33 36  1  0  0  0  0
 31 32  1  0  0  0  0
 31 33  1  0  0  0  0
M  END
$$$$
default_name
  -OEChem-02102213163D

 36 37  0     1  0  0  0  0  0999 V2000
   -4.0843   -4.0736    1.2944 H   0  0  0  0  0  0  0  0  0  0  0  0
   -4.0342   -3.2816    0.5484 C   0  0  0  0  0  0  0  0  0  0  0  0
   -4.8842   -2.6126    0.6694 H   0  0  0  0  0  0  0  0  0  0  0  0
   -4.0433   -3.7186   -0.4486 H   0  0  0  0  0  0  0  0  0  0  0  0
   -2.7532   -2.5046    0.7444 C   0  0  0  0  0  0  0  0  0  0  0  0
   -1.9803   -2.8096    1.6434 O   0  0  0  0  0  0  0  0  0  0  0  0
   -2.5332   -1.4966   -0.0966 N   0  0  0  0  0  0  0  0  0  0  0  0
   -3.2312   -1.2816   -0.7936 H   0  0  0  0  0  0  0  0  0  0  0  0
   -1.3593   -0.6196   -0.0536 C   0  0  1  0  0  0  0  0  0  0  0  0
   -0.8788   -0.7266    0.9196 H   0  0  0  0  0  0  0  0  0  0  0  0
   -0.3559   -1.0533   -1.1339 C   0  0  0  0  0  0  0  0  0  0  0  0
    0.6417   -1.0908   -0.6926 H   0  0  0  0  0  0  0  0  0  0  0  0
   -0.6110   -2.0632   -1.4595 H   0  0  0  0  0  0  0  0  0  0  0  0
   -0.2959   -0.1662   -2.3403 C   0  0  0  0  0  0  0  0  0  0  0  0
    0.6839   -0.1704   -3.2718 C   0  0  0  0  0  0  0  0  0  0  0  0
    1.5592   -0.8102   -3.2440 H   0  0  0  0  0  0  0  0  0  0  0  0
    0.3860    0.7439   -4.2631 N   0  0  0  0  0  0  0  0  0  0  0  0
    0.9806    0.9140   -5.0610 H   0  0  0  0  0  0  0  0  0  0  0  0
   -0.8168    1.3750   -4.0266 C   0  0  0  0  0  0  0  0  0  0  0  0
   -1.5496    2.3373   -4.7361 C   0  0  0  0  0  0  0  0  0  0  0  0
   -1.1756    2.7317   -5.6695 H   0  0  0  0  0  0  0  0  0  0  0  0
   -2.7763    2.7826   -4.2146 C   0  0  0  0  0  0  0  0  0  0  0  0
   -3.3548    3.5252   -4.7474 H   0  0  0  0  0  0  0  0  0  0  0  0
   -3.2481    2.2657   -2.9941 C   0  0  0  0  0  0  0  0  0  0  0  0
   -4.1883    2.6172   -2.5924 H   0  0  0  0  0  0  0  0  0  0  0  0
   -2.5022    1.3002   -2.2886 C   0  0  0  0  0  0  0  0  0  0  0  0
   -2.8697    0.9212   -1.3456 H   0  0  0  0  0  0  0  0  0  0  0  0
   -1.2694    0.8279   -2.7888 C   0  0  0  0  0  0  0  0  0  0  0  0
   -1.7617    0.8549   -0.2106 C   0  0  0  0  0  0  0  0  0  0  0  0
   -2.5726    1.1871   -1.0741 O   0  0  0  0  0  0  0  0  0  0  0  0
   -1.1941    1.7377    0.6223 N   0  0  0  0  0  0  0  0  0  0  0  0
   -0.4976    1.3916    1.2669 H   0  0  0  0  0  0  0  0  0  0  0  0
   -1.4666    3.1722    0.6095 C   0  0  0  0  0  0  0  0  0  0  0  0
   -2.5439    3.3427    0.6539 H   0  0  0  0  0  0  0  0  0  0  0  0
   -0.9893    3.6529    1.4644 H   0  0  0  0  0  0  0  0  0  0  0  0
   -1.0808    3.6095   -0.3129 H   0  0  0  0  0  0  0  0  0  0  0  0
  5  6  2  0  0  0  0
  5  7  1  0  0  0  0
  2  3  1  0  0  0  0
  2  4  1  0  0  0  0
  2  5  1  0  0  0  0
  1  2  1  0  0  0  0
 29 30  2  0  0  0  0
 29 31  1  0  0  0  0
 26 27  1  0  0  0  0
 26 28  2  0  0  0  0
 24 25  1  0  0  0  0
 24 26  1  0  0  0  0
 22 23  1  0  0  0  0
 22 24  2  0  0  0  0
 20 21  1  0  0  0  0
 20 22  1  0  0  0  0
 19 20  2  0  0  0  0
 19 28  1  0  0  0  0
 17 18  1  0  0  0  0
 17 19  1  0  0  0  0
 15 16  1  0  0  0  0
 15 17  1  0  0  0  0
 14 15  2  0  0  0  0
 14 28  1  0  0  0  0
 11 12  1  0  0  0  0
 11 13  1  0  0  0  0
 11 14  1  0  0  0  0
  9 10  1  0  0  0  0
  9 11  1  0  0  0  0
  9 29  1  0  0  0  0
  7  8  1  0  0  0  0
  7  9  1  0  0  0  0
 33 34  1  0  0  0  0
 33 35  1  0  0  0  0
 33 36  1  0  0  0  0
 31 32  1  0  0  0  0
 31 33  1  0  0  0  0
M  END
$$$$
default_name
  -OEChem-02102213163D

 36 37  0     1  0  0  0  0  0999 V2000
   -4.0843   -4.0736    1.2944 H   0  0  0  0  0  0  0  0  0  0  0  0
   -4.0342   -3.2816    0.5484 C   0  0  0  0  0  0  0  0  0  0  0  0
   -4.8842   -2.6126    0.6694 H   0  0  0  0  0  0  0  0  0  0  0  0
   -4.0433   -3.7186   -0.4486 H   0  0  0  0  0  0  0  0  0  0  0  0
   -2.7532   -2.5046    0.7444 C   0  0  0  0  0  0  0  0  0  0  0  0
   -1.9803   -2.8096    1.6434 O   0  0  0  0  0  0  0  0  0  0  0  0
   -2.5332   -1.4966   -0.0966 N   0  0  0  0  0  0  0  0  0  0  0  0
   -3.2312   -1.2816   -0.7936 H   0  0  0  0  0  0  0  0  0  0  0  0
   -1.3593   -0.6196   -0.0536 C   0  0  1  0  0  0  0  0  0  0  0  0
   -0.8788   -0.7266    0.9196 H   0  0  0  0  0  0  0  0  0  0  0  0
   -0.3559   -1.0533   -1.1339 C   0  0  0  0  0  0  0  0  0  0  0  0
    0.5765   -1.3489   -0.6495 H   0  0  0  0  0  0  0  0  0  0  0  0
   -0.7546   -1.9307   -1.6460 H   0  0  0  0  0  0  0  0  0  0  0  0
   -0.0342   -0.0096   -2.1602 C   0  0  0  0  0  0  0  0  0  0  0  0
    0.8169   -0.1641   -3.1991 C   0  0  0  0  0  0  0  0  0  0  0  0
    1.3861   -1.0646   -3.4020 H   0  0  0  0  0  0  0  0  0  0  0  0
    0.8301    0.9863   -3.9633 N   0  0  0  0  0  0  0  0  0  0  0  0
    1.3986    1.0994   -4.7899 H   0  0  0  0  0  0  0  0  0  0  0  0
   -0.0300    1.9394   -3.4608 C   0  0  0  0  0  0  0  0  0  0  0  0
   -0.3845    3.2284   -3.8839 C   0  0  0  0  0  0  0  0  0  0  0  0
    0.0569    3.6534   -4.7734 H   0  0  0  0  0  0  0  0  0  0  0  0
   -1.3207    3.9601   -3.1334 C   0  0  0  0  0  0  0  0  0  0  0  0
   -1.6055    4.9563   -3.4439 H   0  0  0  0  0  0  0  0  0  0  0  0
   -1.8825    3.3971   -1.9729 C   0  0  0  0  0  0  0  0  0  0  0  0
   -2.5962    3.9668   -1.3938 H   0  0  0  0  0  0  0  0  0  0  0  0
   -1.5173    2.1013   -1.5559 C   0  0  0  0  0  0  0  0  0  0  0  0
   -1.9464    1.6860   -0.6552 H   0  0  0  0  0  0  0  0  0  0  0  0
   -0.5845    1.3384   -2.2913 C   0  0  0  0  0  0  0  0  0  0  0  0
   -1.7617    0.8549   -0.2106 C   0  0  0  0  0  0  0  0  0  0  0  0
   -2.5726    1.1871   -1.0741 O   0  0  0  0  0  0  0  0  0  0  0  0
   -1.1941    1.7377    0.6223 N   0  0  0  0  0  0  0  0  0  0  0  0
   -0.4976    1.3916    1.2669 H   0  0  0  0  0  0  0  0  0  0  0  0
   -1.4666    3.1722    0.6095 C   0  0  0  0  0  0  0  0  0  0  0  0
   -2.5439    3.3427    0.6539 H   0  0  0  0  0  0  0  0  0  0  0  0
   -0.9893    3.6529    1.4644 H   0  0  0  0  0  0  0  0  0  0  0  0
   -1.0808    3.6095   -0.3129 H   0  0  0  0  0  0  0  0  0  0  0  0
  5  6  2  0  0  0  0
  5  7  1  0  0  0  0
  2  3  1  0  0  0  0
  2  4  1  0  0  0  0
  2  5  1  0  0  0  0
  1  2  1  0  0  0  0
 29 30  2  0  0  0  0
 29 31  1  0  0  0  0
 26 27  1  0  0  0  0
 26 28  2  0  0  0  0
 24 25  1  0  0  0  0
 24 26  1  0  0  0  0
 22 23  1  0  0  0  0
 22 24  2  0  0  0  0
 20 21  1  0  0  0  0
 20 22  1  0  0  0  0
 19 20  2  0  0  0  0
 19 28  1  0  0  0  0
 17 18  1  0  0  0  0
 17 19  1  0  0  0  0
 15 16  1  0  0  0  0
 15 17  1  0  0  0  0
 14 15  2  0  0  0  0
 14 28  1  0  0  0  0
 11 12  1  0  0  0  0
 11 13  1  0  0  0  0
 11 14  1  0  0  0  0
  9 10  1  0  0  0  0
  9 11  1  0  0  0  0
  9 29  1  0  0  0  0
  7  8  1  0  0  0  0
  7  9  1  0  0  0  0
 33 34  1  0  0  0  0
 33 35  1  0  0  0  0
 33 36  1  0  0  0  0
 31 32  1  0  0  0  0
 31 33  1  0  0  0  0
M  END
$$$$
default_name
  -OEChem-02102213163D

 36 37  0     1  0  0  0  0  0999 V2000
   -4.0843   -4.0736    1.2944 H   0  0  0  0  0  0  0  0  0  0  0  0
   -4.0342   -3.2816    0.5484 C   0  0  0  0  0  0  0  0  0  0  0  0
   -4.8842   -2.6126    0.6694 H   0  0  0  0  0  0  0  0  0  0  0  0
   -4.0433   -3.7186   -0.4486 H   0  0  0  0  0  0  0  0  0  0  0  0
   -2.7532   -2.5046    0.7444 C   0  0  0  0  0  0  0  0  0  0  0  0
   -1.9803   -2.8096    1.6434 O   0  0  0  0  0  0  0  0  0  0  0  0
   -2.5332   -1.4966   -0.0966 N   0  0  0  0  0  0  0  0  0  0  0  0
   -3.2312   -1.2816   -0.7936 H   0  0  0  0  0  0  0  0  0  0  0  0
   -1.3593   -0.6196   -0.0536 C   0  0  1  0  0  0  0  0  0  0  0  0
   -0.8788   -0.7266    0.9196 H   0  0  0  0  0  0  0  0  0  0  0  0
   -0.3559   -1.0533   -1.1339 C   0  0  0  0  0  0  0  0  0  0  0  0
    0.5765   -1.3489   -0.6495 H   0  0  0  0  0  0  0  0  0  0  0  0
   -0.7546   -1.9307   -1.6460 H   0  0  0  0  0  0  0  0  0  0  0  0
   -0.0342   -0.0096   -2.1602 C   0  0  0  0  0  0  0  0  0  0  0  0
    0.5790   -0.2333   -3.3441 C   0  0  0  0  0  0  0  0  0  0  0  0
    0.9300   -1.2014   -3.6841 H   0  0  0  0  0  0  0  0  0  0  0  0
    0.6676    0.9495   -4.0517 N   0  0  0  0  0  0  0  0  0  0  0  0
    1.0934    1.0221   -4.9642 H   0  0  0  0  0  0  0  0  0  0  0  0
    0.0973    1.9979   -3.3615 C   0  0  0  0  0  0  0  0  0  0  0  0
   -0.0848    3.3557   -3.6606 C   0  0  0  0  0  0  0  0  0  0  0  0
    0.2638    3.7611   -4.5991 H   0  0  0  0  0  0  0  0  0  0  0  0
   -0.7257    4.1818   -2.7215 C   0  0  0  0  0  0  0  0  0  0  0  0
   -0.8740    5.2318   -2.9344 H   0  0  0  0  0  0  0  0  0  0  0  0
   -1.1685    3.6421   -1.5000 C   0  0  0  0  0  0  0  0  0  0  0  0
   -1.6536    4.2830   -0.7768 H   0  0  0  0  0  0  0  0  0  0  0  0
   -0.9783    2.2762   -1.2092 C   0  0  0  0  0  0  0  0  0  0  0  0
   -1.3114    1.8773   -0.2615 H   0  0  0  0  0  0  0  0  0  0  0  0
   -0.3438    1.4189   -2.1340 C   0  0  0  0  0  0  0  0  0  0  0  0
   -1.7617    0.8549   -0.2106 C   0  0  0  0  0  0  0  0  0  0  0  0
   -2.5726    1.1871   -1.0741 O   0  0  0  0  0  0  0  0  0  0  0  0
   -1.1941    1.7377    0.6223 N   0  0  0  0  0  0  0  0  0  0  0  0
   -0.4976    1.3916    1.2669 H   0  0  0  0  0  0  0  0  0  0  0  0
   -1.4666    3.1722    0.6095 C   0  0  0  0  0  0  0  0  0  0  0  0
   -2.5439    3.3427    0.6539 H   0  0  0  0  0  0  0  0  0  0  0  0
   -0.9893    3.6529    1.4644 H   0  0  0  0  0  0  0  0  0  0  0  0
   -1.0808    3.6095   -0.3129 H   0  0  0  0  0  0  0  0  0  0  0  0
  5  6  2  0  0  0  0
  5  7  1  0  0  0  0
  2  3  1  0  0  0  0
  2  4  1  0  0  0  0
  2  5  1  0  0  0  0
  1  2  1  0  0  0  0
 29 30  2  0  0  0  0
 29 31  1  0  0  0  0
 26 27  1  0  0  0  0
 26 28  2  0  0  0  0
 24 25  1  0  0  0  0
 24 26  1  0  0  0  0
 22 23  1  0  0  0  0
 22 24  2  0  0  0  0
 20 21  1  0  0  0  0
 20 22  1  0  0  0  0
 19 20  2  0  0  0  0
 19 28  1  0  0  0  0
 17 18  1  0  0  0  0
 17 19  1  0  0  0  0
 15 16  1  0  0  0  0
 15 17  1  0  0  0  0
 14 15  2  0  0  0  0
 14 28  1  0  0  0  0
 11 12  1  0  0  0  0
 11 13  1  0  0  0  0
 11 14  1  0  0  0  0
  9 10  1  0  0  0  0
  9 11  1  0  0  0  0
  9 29  1  0  0  0  0
  7  8  1  0  0  0  0
  7  9  1  0  0  0  0
 33 34  1  0  0  0  0
 33 35  1  0  0  0  0
 33 36  1  0  0  0  0
 31 32  1  0  0  0  0
 31 33  1  0  0  0  0
M  END
$$$$
default_name
  -OEChem-02102213163D

 36 37  0     1  0  0  0  0  0999 V2000
   -4.0843   -4.0736    1.2944 H   0  0  0  0  0  0  0  0  0  0  0  0
   -4.0342   -3.2816    0.5484 C   0  0  0  0  0  0  0  0  0  0  0  0
   -4.8842   -2.6126    0.6694 H   0  0  0  0  0  0  0  0  0  0  0  0
   -4.0433   -3.7186   -0.4486 H   0  0  0  0  0  0  0  0  0  0  0  0
   -2.7532   -2.5046    0.7444 C   0  0  0  0  0  0  0  0  0  0  0  0
   -1.9803   -2.8096    1.6434 O   0  0  0  0  0  0  0  0  0  0  0  0
   -2.5332   -1.4966   -0.0966 N   0  0  0  0  0  0  0  0  0  0  0  0
   -3.2312   -1.2816   -0.7936 H   0  0  0  0  0  0  0  0  0  0  0  0
   -1.3593   -0.6196   -0.0536 C   0  0  1  0  0  0  0  0  0  0  0  0
   -0.8788   -0.7266    0.9196 H   0  0  0  0  0  0  0  0  0  0  0  0
   -0.3559   -1.0533   -1.1339 C   0  0  0  0  0  0  0  0  0  0  0  0
    0.5765   -1.3489   -0.6495 H   0  0  0  0  0  0  0  0  0  0  0  0
   -0.7546   -1.9307   -1.6460 H   0  0  0  0  0  0  0  0  0  0  0  0
   -0.0342   -0.0096   -2.1602 C   0  0  0  0  0  0  0  0  0  0  0  0
    0.3108   -0.2499   -3.4450 C   0  0  0  0  0  0  0  0  0  0  0  0
    0.4142   -1.2371   -3.8820 H   0  0  0  0  0  0  0  0  0  0  0  0
    0.4882    0.9476   -4.1098 N   0  0  0  0  0  0  0  0  0  0  0  0
    0.7534    1.0112   -5.0818 H   0  0  0  0  0  0  0  0  0  0  0  0
    0.2485    2.0262   -3.2852 C   0  0  0  0  0  0  0  0  0  0  0  0
    0.2675    3.4131   -3.4918 C   0  0  0  0  0  0  0  0  0  0  0  0
    0.5143    3.8187   -4.4620 H   0  0  0  0  0  0  0  0  0  0  0  0
   -0.0373    4.2675   -2.4185 C   0  0  0  0  0  0  0  0  0  0  0  0
   -0.0267    5.3400   -2.5589 H   0  0  0  0  0  0  0  0  0  0  0  0
   -0.3501    3.7258   -1.1583 C   0  0  0  0  0  0  0  0  0  0  0  0
   -0.5759    4.3871   -0.3332 H   0  0  0  0  0  0  0  0  0  0  0  0
   -0.3642    2.3303   -0.9616 C   0  0  0  0  0  0  0  0  0  0  0  0
   -0.5931    1.9278    0.0149 H   0  0  0  0  0  0  0  0  0  0  0  0
   -0.0687    1.4452   -2.0210 C   0  0  0  0  0  0  0  0  0  0  0  0
   -1.7617    0.8549   -0.2106 C   0  0  0  0  0  0  0  0  0  0  0  0
   -2.5726    1.1871   -1.0741 O   0  0  0  0  0  0  0  0  0  0  0  0
   -1.1941    1.7377    0.6223 N   0  0  0  0  0  0  0  0  0  0  0  0
   -0.4976    1.3916    1.2669 H   0  0  0  0  0  0  0  0  0  0  0  0
   -1.4666    3.1722    0.6095 C   0  0  0  0  0  0  0  0  0  0  0  0
   -2.5439    3.3427    0.6539 H   0  0  0  0  0  0  0  0  0  0  0  0
   -0.9893    3.6529    1.4644 H   0  0  0  0  0  0  0  0  0  0  0  0
   -1.0808    3.6095   -0.3129 H   0  0  0  0  0  0  0  0  0  0  0  0
  5  6  2  0  0  0  0
  5  7  1  0  0  0  0
  2  3  1  0  0  0  0
  2  4  1  0  0  0  0
  2  5  1  0  0  0  0
  1  2  1  0  0  0  0
 29 30  2  0  0  0  0
 29 31  1  0  0  0  0
 26 27  1  0  0  0  0
 26 28  2  0  0  0  0
 24 25  1  0  0  0  0
 24 26  1  0  0  0  0
 22 23  1  0  0  0  0
 22 24  2  0  0  0  0
 20 21  1  0  0  0  0
 20 22  1  0  0  0  0
 19 20  2  0  0  0  0
 19 28  1  0  0  0  0
 17 18  1  0  0  0  0
 17 19  1  0  0  0  0
 15 16  1  0  0  0  0
 15 17  1  0  0  0  0
 14 15  2  0  0  0  0
 14 28  1  0  0  0  0
 11 12  1  0  0  0  0
 11 13  1  0  0  0  0
 11 14  1  0  0  0  0
  9 10  1  0  0  0  0
  9 11  1  0  0  0  0
  9 29  1  0  0  0  0
  7  8  1  0  0  0  0
  7  9  1  0  0  0  0
 33 34  1  0  0  0  0
 33 35  1  0  0  0  0
 33 36  1  0  0  0  0
 31 32  1  0  0  0  0
 31 33  1  0  0  0  0
M  END
$$$$
default_name
  -OEChem-02102213163D

 36 37  0     1  0  0  0  0  0999 V2000
   -4.0843   -4.0736    1.2944 H   0  0  0  0  0  0  0  0  0  0  0  0
   -4.0342   -3.2816    0.5484 C   0  0  0  0  0  0  0  0  0  0  0  0
   -4.8842   -2.6126    0.6694 H   0  0  0  0  0  0  0  0  0  0  0  0
   -4.0433   -3.7186   -0.4486 H   0  0  0  0  0  0  0  0  0  0  0  0
   -2.7532   -2.5046    0.7444 C   0  0  0  0  0  0  0  0  0  0  0  0
   -1.9803   -2.8096    1.6434 O   0  0  0  0  0  0  0  0  0  0  0  0
   -2.5332   -1.4966   -0.0966 N   0  0  0  0  0  0  0  0  0  0  0  0
   -3.2312   -1.2816   -0.7936 H   0  0  0  0  0  0  0  0  0  0  0  0
   -1.3593   -0.6196   -0.0536 C   0  0  1  0  0  0  0  0  0  0  0  0
   -0.8788   -0.7266    0.9196 H   0  0  0  0  0  0  0  0  0  0  0  0
   -0.3559   -1.0533   -1.1339 C   0  0  0  0  0  0  0  0  0  0  0  0
    0.5765   -1.3489   -0.6495 H   0  0  0  0  0  0  0  0  0  0  0  0
   -0.7546   -1.9307   -1.6460 H   0  0  0  0  0  0  0  0  0  0  0  0
   -0.0342   -0.0096   -2.1602 C   0  0  0  0  0  0  0  0  0  0  0  0
    0.0306   -0.2128   -3.4951 C   0  0  0  0  0  0  0  0  0  0  0  0
   -0.1259   -1.1691   -3.9822 H   0  0  0  0  0  0  0  0  0  0  0  0
    0.3041    0.9809   -4.1337 N   0  0  0  0  0  0  0  0  0  0  0  0
    0.4020    1.0675   -5.1347 H   0  0  0  0  0  0  0  0  0  0  0  0
    0.4134    2.0226   -3.2372 C   0  0  0  0  0  0  0  0  0  0  0  0
    0.6484    3.3967   -3.3891 C   0  0  0  0  0  0  0  0  0  0  0  0
    0.7911    3.8224   -4.3715 H   0  0  0  0  0  0  0  0  0  0  0  0
    0.6973    4.2116   -2.2451 C   0  0  0  0  0  0  0  0  0  0  0  0
    0.8786    5.2734   -2.3428 H   0  0  0  0  0  0  0  0  0  0  0  0
    0.5168    3.6427   -0.9711 C   0  0  0  0  0  0  0  0  0  0  0  0
    0.5635    4.2720   -0.0931 H   0  0  0  0  0  0  0  0  0  0  0  0
    0.2832    2.2600   -0.8302 C   0  0  0  0  0  0  0  0  0  0  0  0
    0.1595    1.8338    0.1552 H   0  0  0  0  0  0  0  0  0  0  0  0
    0.2221    1.4156   -1.9599 C   0  0  0  0  0  0  0  0  0  0  0  0
   -1.7617    0.8549   -0.2106 C   0  0  0  0  0  0  0  0  0  0  0  0
   -2.5726    1.1871   -1.0741 O   0  0  0  0  0  0  0  0  0  0  0  0
   -1.1941    1.7377    0.6223 N   0  0  0  0  0  0  0  0  0  0  0  0
   -0.4976    1.3916    1.2669 H   0  0  0  0  0  0  0  0  0  0  0  0
   -1.4666    3.1722    0.6095 C   0  0  0  0  0  0  0  0  0  0  0  0
   -2.5439    3.3427    0.6539 H   0  0  0  0  0  0  0  0  0  0  0  0
   -0.9893    3.6529    1.4644 H   0  0  0  0  0  0  0  0  0  0  0  0
   -1.0808    3.6095   -0.3129 H   0  0  0  0  0  0  0  0  0  0  0  0
  5  6  2  0  0  0  0
  5  7  1  0  0  0  0
  2  3  1  0  0  0  0
  2  4  1  0  0  0  0
  2  5  1  0  0  0  0
  1  2  1  0  0  0  0
 29 30  2  0  0  0  0
 29 31  1  0  0  0  0
 26 27  1  0  0  0  0
 26 28  2  0  0  0  0
 24 25  1  0  0  0  0
 24 26  1  0  0  0  0
 22 23  1  0  0  0  0
 22 24  2  0  0  0  0
 20 21  1  0  0  0  0
 20 22  1  0  0  0  0
 19 20  2  0  0  0  0
 19 28  1  0  0  0  0
 17 18  1  0  0  0  0
 17 19  1  0  0  0  0
 15 16  1  0  0  0  0
 15 17  1  0  0  0  0
 14 15  2  0  0  0  0
 14 28  1  0  0  0  0
 11 12  1  0  0  0  0
 11 13  1  0  0  0  0
 11 14  1  0  0  0  0
  9 10  1  0  0  0  0
  9 11  1  0  0  0  0
  9 29  1  0  0  0  0
  7  8  1  0  0  0  0
  7  9  1  0  0  0  0
 33 34  1  0  0  0  0
 33 35  1  0  0  0  0
 33 36  1  0  0  0  0
 31 32  1  0  0  0  0
 31 33  1  0  0  0  0
M  END
$$$$
default_name
  -OEChem-02102213163D

 36 37  0     1  0  0  0  0  0999 V2000
   -4.0843   -4.0736    1.2944 H   0  0  0  0  0  0  0  0  0  0  0  0
   -4.0342   -3.2816    0.5484 C   0  0  0  0  0  0  0  0  0  0  0  0
   -4.8842   -2.6126    0.6694 H   0  0  0  0  0  0  0  0  0  0  0  0
   -4.0433   -3.7186   -0.4486 H   0  0  0  0  0  0  0  0  0  0  0  0
   -2.7532   -2.5046    0.7444 C   0  0  0  0  0  0  0  0  0  0  0  0
   -1.9803   -2.8096    1.6434 O   0  0  0  0  0  0  0  0  0  0  0  0
   -2.5332   -1.4966   -0.0966 N   0  0  0  0  0  0  0  0  0  0  0  0
   -3.2312   -1.2816   -0.7936 H   0  0  0  0  0  0  0  0  0  0  0  0
   -1.3593   -0.6196   -0.0536 C   0  0  1  0  0  0  0  0  0  0  0  0
   -0.8788   -0.7266    0.9196 H   0  0  0  0  0  0  0  0  0  0  0  0
   -0.3559   -1.0533   -1.1339 C   0  0  0  0  0  0  0  0  0  0  0  0
    0.5765   -1.3489   -0.6495 H   0  0  0  0  0  0  0  0  0  0  0  0
   -0.7546   -1.9307   -1.6460 H   0  0  0  0  0  0  0  0  0  0  0  0
   -0.0342   -0.0096   -2.1602 C   0  0  0  0  0  0  0  0  0  0  0  0
   -0.2425   -0.1246   -3.4910 C   0  0  0  0  0  0  0  0  0  0  0  0
   -0.6536   -1.0021   -3.9778 H   0  0  0  0  0  0  0  0  0  0  0  0
    0.1279    1.0470   -4.1217 N   0  0  0  0  0  0  0  0  0  0  0  0
    0.0629    1.1870   -5.1194 H   0  0  0  0  0  0  0  0  0  0  0  0
    0.5806    1.9872   -3.2208 C   0  0  0  0  0  0  0  0  0  0  0  0
    1.0319    3.3077   -3.3594 C   0  0  0  0  0  0  0  0  0  0  0  0
    1.0754    3.7718   -4.3337 H   0  0  0  0  0  0  0  0  0  0  0  0
    1.4283    4.0177   -2.2132 C   0  0  0  0  0  0  0  0  0  0  0  0
    1.7801    5.0367   -2.3010 H   0  0  0  0  0  0  0  0  0  0  0  0
    1.3732    3.3984   -0.9512 C   0  0  0  0  0  0  0  0  0  0  0  0
    1.6870    3.9455   -0.0730 H   0  0  0  0  0  0  0  0  0  0  0  0
    0.9198    2.0701   -0.8239 C   0  0  0  0  0  0  0  0  0  0  0  0
    0.8950    1.6019    0.1499 H   0  0  0  0  0  0  0  0  0  0  0  0
    0.5087    1.3321   -1.9550 C   0  0  0  0  0  0  0  0  0  0  0  0
   -1.7617    0.8549   -0.2106 C   0  0  0  0  0  0  0  0  0  0  0  0
   -2.5726    1.1871   -1.0741 O   0  0  0  0  0  0  0  0  0  0  0  0
   -1.1941    1.7377    0.6223 N   0  0  0  0  0  0  0  0  0  0  0  0
   -0.4976    1.3916    1.2669 H   0  0  0  0  0  0  0  0  0  0  0  0
   -1.4666    3.1722    0.6095 C   0  0  0  0  0  0  0  0  0  0  0  0
   -2.5439    3.3427    0.6539 H   0  0  0  0  0  0  0  0  0  0  0  0
   -0.9893    3.6529    1.4644 H   0  0  0  0  0  0  0  0  0  0  0  0
   -1.0808    3.6095   -0.3129 H   0  0  0  0  0  0  0  0  0  0  0  0
  5  6  2  0  0  0  0
  5  7  1  0  0  0  0
  2  3  1  0  0  0  0
  2  4  1  0  0  0  0
  2  5  1  0  0  0  0
  1  2  1  0  0  0  0
 29 30  2  0  0  0  0
 29 31  1  0  0  0  0
 26 27  1  0  0  0  0
 26 28  2  0  0  0  0
 24 25  1  0  0  0  0
 24 26  1  0  0  0  0
 22 23  1  0  0  0  0
 22 24  2  0  0  0  0
 20 21  1  0  0  0  0
 20 22  1  0  0  0  0
 19 20  2  0  0  0  0
 19 28  1  0  0  0  0
 17 18  1  0  0  0  0
 17 19  1  0  0  0  0
 15 16  1  0  0  0  0
 15 17  1  0  0  0  0
 14 15  2  0  0  0  0
 14 28  1  0  0  0  0
 11 12  1  0  0  0  0
 11 13  1  0  0  0  0
 11 14  1  0  0  0  0
  9 10  1  0  0  0  0
  9 11  1  0  0  0  0
  9 29  1  0  0  0  0
  7  8  1  0  0  0  0
  7  9  1  0  0  0  0
 33 34  1  0  0  0  0
 33 35  1  0  0  0  0
 33 36  1  0  0  0  0
 31 32  1  0  0  0  0
 31 33  1  0  0  0  0
M  END
$$$$
default_name
  -OEChem-02102213163D

 36 37  0     1  0  0  0  0  0999 V2000
   -4.0843   -4.0736    1.2944 H   0  0  0  0  0  0  0  0  0  0  0  0
   -4.0342   -3.2816    0.5484 C   0  0  0  0  0  0  0  0  0  0  0  0
   -4.8842   -2.6126    0.6694 H   0  0  0  0  0  0  0  0  0  0  0  0
   -4.0433   -3.7186   -0.4486 H   0  0  0  0  0  0  0  0  0  0  0  0
   -2.7532   -2.5046    0.7444 C   0  0  0  0  0  0  0  0  0  0  0  0
   -1.9803   -2.8096    1.6434 O   0  0  0  0  0  0  0  0  0  0  0  0
   -2.5332   -1.4966   -0.0966 N   0  0  0  0  0  0  0  0  0  0  0  0
   -3.2312   -1.2816   -0.7936 H   0  0  0  0  0  0  0  0  0  0  0  0
   -1.3593   -0.6196   -0.0536 C   0  0  1  0  0  0  0  0  0  0  0  0
   -0.8788   -0.7266    0.9196 H   0  0  0  0  0  0  0  0  0  0  0  0
   -0.3559   -1.0533   -1.1339 C   0  0  0  0  0  0  0  0  0  0  0  0
    0.5765   -1.3489   -0.6495 H   0  0  0  0  0  0  0  0  0  0  0  0
   -0.7546   -1.9307   -1.6460 H   0  0  0  0  0  0  0  0  0  0  0  0
   -0.0342   -0.0096   -2.1602 C   0  0  0  0  0  0  0  0  0  0  0  0
   -0.4899    0.0089   -3.4328 C   0  0  0  0  0  0  0  0  0  0  0  0
   -1.1329   -0.7476   -3.8692 H   0  0  0  0  0  0  0  0  0  0  0  0
   -0.0285    1.1414   -4.0747 N   0  0  0  0  0  0  0  0  0  0  0  0
   -0.2406    1.3618   -5.0368 H   0  0  0  0  0  0  0  0  0  0  0  0
    0.7389    1.9225   -3.2370 C   0  0  0  0  0  0  0  0  0  0  0  0
    1.3919    3.1520   -3.4049 C   0  0  0  0  0  0  0  0  0  0  0  0
    1.3479    3.6705   -4.3514 H   0  0  0  0  0  0  0  0  0  0  0  0
    2.1058    3.6990   -2.3250 C   0  0  0  0  0  0  0  0  0  0  0  0
    2.6166    4.6459   -2.4362 H   0  0  0  0  0  0  0  0  0  0  0  0
    2.1607    3.0095   -1.0998 C   0  0  0  0  0  0  0  0  0  0  0  0
    2.7179    3.4300   -0.2742 H   0  0  0  0  0  0  0  0  0  0  0  0
    1.5021    1.7734   -0.9431 C   0  0  0  0  0  0  0  0  0  0  0  0
    1.5634    1.2478   -0.0008 H   0  0  0  0  0  0  0  0  0  0  0  0
    0.7717    1.2004   -2.0066 C   0  0  0  0  0  0  0  0  0  0  0  0
   -1.7617    0.8549   -0.2106 C   0  0  0  0  0  0  0  0  0  0  0  0
   -2.5726    1.1871   -1.0741 O   0  0  0  0  0  0  0  0  0  0  0  0
   -1.1941    1.7377    0.6223 N   0  0  0  0  0  0  0  0  0  0  0  0
   -0.4976    1.3916    1.2669 H   0  0  0  0  0  0  0  0  0  0  0  0
   -1.4666    3.1722    0.6095 C   0  0  0  0  0  0  0  0  0  0  0  0
   -2.5439    3.3427    0.6539 H   0  0  0  0  0  0  0  0  0  0  0  0
   -0.9893    3.6529    1.4644 H   0  0  0  0  0  0  0  0  0  0  0  0
   -1.0808    3.6095   -0.3129 H   0  0  0  0  0  0  0  0  0  0  0  0
  5  6  2  0  0  0  0
  5  7  1  0  0  0  0
  2  3  1  0  0  0  0
  2  4  1  0  0  0  0
  2  5  1  0  0  0  0
  1  2  1  0  0  0  0
 29 30  2  0  0  0  0
 29 31  1  0  0  0  0
 26 27  1  0  0  0  0
 26 28  2  0  0  0  0
 24 25  1  0  0  0  0
 24 26  1  0  0  0  0
 22 23  1  0  0  0  0
 22 24  2  0  0  0  0
 20 21  1  0  0  0  0
 20 22  1  0  0  0  0
 19 20  2  0  0  0  0
 19 28  1  0  0  0  0
 17 18  1  0  0  0  0
 17 19  1  0  0  0  0
 15 16  1  0  0  0  0
 15 17  1  0  0  0  0
 14 15  2  0  0  0  0
 14 28  1  0  0  0  0
 11 12  1  0  0  0  0
 11 13  1  0  0  0  0
 11 14  1  0  0  0  0
  9 10  1  0  0  0  0
  9 11  1  0  0  0  0
  9 29  1  0  0  0  0
  7  8  1  0  0  0  0
  7  9  1  0  0  0  0
 33 34  1  0  0  0  0
 33 35  1  0  0  0  0
 33 36  1  0  0  0  0
 31 32  1  0  0  0  0
 31 33  1  0  0  0  0
M  END
$$$$
default_name
  -OEChem-02102213163D

 36 37  0     1  0  0  0  0  0999 V2000
   -4.0843   -4.0736    1.2944 H   0  0  0  0  0  0  0  0  0  0  0  0
   -4.0342   -3.2816    0.5484 C   0  0  0  0  0  0  0  0  0  0  0  0
   -4.8842   -2.6126    0.6694 H   0  0  0  0  0  0  0  0  0  0  0  0
   -4.0433   -3.7186   -0.4486 H   0  0  0  0  0  0  0  0  0  0  0  0
   -2.7532   -2.5046    0.7444 C   0  0  0  0  0  0  0  0  0  0  0  0
   -1.9803   -2.8096    1.6434 O   0  0  0  0  0  0  0  0  0  0  0  0
   -2.5332   -1.4966   -0.0966 N   0  0  0  0  0  0  0  0  0  0  0  0
   -3.2312   -1.2816   -0.7936 H   0  0  0  0  0  0  0  0  0  0  0  0
   -1.3593   -0.6196   -0.0536 C   0  0  1  0  0  0  0  0  0  0  0  0
   -0.8788   -0.7266    0.9196 H   0  0  0  0  0  0  0  0  0  0  0  0
   -0.3559   -1.0533   -1.1339 C   0  0  0  0  0  0  0  0  0  0  0  0
    0.5765   -1.3489   -0.6495 H   0  0  0  0  0  0  0  0  0  0  0  0
   -0.7546   -1.9307   -1.6460 H   0  0  0  0  0  0  0  0  0  0  0  0
   -0.0342   -0.0096   -2.1602 C   0  0  0  0  0  0  0  0  0  0  0  0
   -0.6948    0.1784   -3.3247 C   0  0  0  0  0  0  0  0  0  0  0  0
   -1.5313   -0.4228   -3.6637 H   0  0  0  0  0  0  0  0  0  0  0  0
   -0.1543    1.2576   -3.9959 N   0  0  0  0  0  0  0  0  0  0  0  0
   -0.4880    1.5798   -4.8926 H   0  0  0  0  0  0  0  0  0  0  0  0
    0.8773    1.8328   -3.2848 C   0  0  0  0  0  0  0  0  0  0  0  0
    1.7039    2.9404   -3.5223 C   0  0  0  0  0  0  0  0  0  0  0  0
    1.5900    3.5253   -4.4231 H   0  0  0  0  0  0  0  0  0  0  0  0
    2.6835    3.2774   -2.5727 C   0  0  0  0  0  0  0  0  0  0  0  0
    3.3309    4.1277   -2.7393 H   0  0  0  0  0  0  0  0  0  0  0  0
    2.8256    2.5026   -1.4070 C   0  0  0  0  0  0  0  0  0  0  0  0
    3.5861    2.7604   -0.6830 H   0  0  0  0  0  0  0  0  0  0  0  0
    1.9905    1.3903   -1.1797 C   0  0  0  0  0  0  0  0  0  0  0  0
    2.1192    0.7956   -0.2864 H   0  0  0  0  0  0  0  0  0  0  0  0
    0.9930    1.0294   -2.1111 C   0  0  0  0  0  0  0  0  0  0  0  0
   -1.7617    0.8549   -0.2106 C   0  0  0  0  0  0  0  0  0  0  0  0
   -2.5726    1.1871   -1.0741 O   0  0  0  0  0  0  0  0  0  0  0  0
   -1.1941    1.7377    0.6223 N   0  0  0  0  0  0  0  0  0  0  0  0
   -0.4976    1.3916    1.2669 H   0  0  0  0  0  0  0  0  0  0  0  0
   -1.4666    3.1722    0.6095 C   0  0  0  0  0  0  0  0  0  0  0  0
   -2.5439    3.3427    0.6539 H   0  0  0  0  0  0  0  0  0  0  0  0
   -0.9893    3.6529    1.4644 H   0  0  0  0  0  0  0  0  0  0  0  0
   -1.0808    3.6095   -0.3129 H   0  0  0  0  0  0  0  0  0  0  0  0
  5  6  2  0  0  0  0
  5  7  1  0  0  0  0
  2  3  1  0  0  0  0
  2  4  1  0  0  0  0
  2  5  1  0  0  0  0
  1  2  1  0  0  0  0
 29 30  2  0  0  0  0
 29 31  1  0  0  0  0
 26 27  1  0  0  0  0
 26 28  2  0  0  0  0
 24 25  1  0  0  0  0
 24 26  1  0  0  0  0
 22 23  1  0  0  0  0
 22 24  2  0  0  0  0
 20 21  1  0  0  0  0
 20 22  1  0  0  0  0
 19 20  2  0  0  0  0
 19 28  1  0  0  0  0
 17 18  1  0  0  0  0
 17 19  1  0  0  0  0
 15 16  1  0  0  0  0
 15 17  1  0  0  0  0
 14 15  2  0  0  0  0
 14 28  1  0  0  0  0
 11 12  1  0  0  0  0
 11 13  1  0  0  0  0
 11 14  1  0  0  0  0
  9 10  1  0  0  0  0
  9 11  1  0  0  0  0
  9 29  1  0  0  0  0
  7  8  1  0  0  0  0
  7  9  1  0  0  0  0
 33 34  1  0  0  0  0
 33 35  1  0  0  0  0
 33 36  1  0  0  0  0
 31 32  1  0  0  0  0
 31 33  1  0  0  0  0
M  END
$$$$
default_name
  -OEChem-02102213163D

 36 37  0     1  0  0  0  0  0999 V2000
   -4.0843   -4.0736    1.2944 H   0  0  0  0  0  0  0  0  0  0  0  0
   -4.0342   -3.2816    0.5484 C   0  0  0  0  0  0  0  0  0  0  0  0
   -4.8842   -2.6126    0.6694 H   0  0  0  0  0  0  0  0  0  0  0  0
   -4.0433   -3.7186   -0.4486 H   0  0  0  0  0  0  0  0  0  0  0  0
   -2.7532   -2.5046    0.7444 C   0  0  0  0  0  0  0  0  0  0  0  0
   -1.9803   -2.8096    1.6434 O   0  0  0  0  0  0  0  0  0  0  0  0
   -2.5332   -1.4966   -0.0966 N   0  0  0  0  0  0  0  0  0  0  0  0
   -3.2312   -1.2816   -0.7936 H   0  0  0  0  0  0  0  0  0  0  0  0
   -1.3593   -0.6196   -0.0536 C   0  0  1  0  0  0  0  0  0  0  0  0
   -0.8788   -0.7266    0.9196 H   0  0  0  0  0  0  0  0  0  0  0  0
   -0.3559   -1.0533   -1.1339 C   0  0  0  0  0  0  0  0  0  0  0  0
    0.5765   -1.3489   -0.6495 H   0  0  0  0  0  0  0  0  0  0  0  0
   -0.7546   -1.9307   -1.6460 H   0  0  0  0  0  0  0  0  0  0  0  0
   -0.0342   -0.0096   -2.1602 C   0  0  0  0  0  0  0  0  0  0  0  0
   -0.8431    0.3724   -3.1738 C   0  0  0  0  0  0  0  0  0  0  0  0
   -1.8214   -0.0499   -3.3754 H   0  0  0  0  0  0  0  0  0  0  0  0
   -0.2411    1.3879   -3.8906 N   0  0  0  0  0  0  0  0  0  0  0  0
   -0.6623    1.8262   -4.6966 H   0  0  0  0  0  0  0  0  0  0  0  0
    0.9865    1.7244   -3.3609 C   0  0  0  0  0  0  0  0  0  0  0  0
    1.9466    2.6872   -3.7037 C   0  0  0  0  0  0  0  0  0  0  0  0
    1.7852    3.3462   -4.5442 H   0  0  0  0  0  0  0  0  0  0  0  0
    3.1222    2.7815   -2.9395 C   0  0  0  0  0  0  0  0  0  0  0  0
    3.8744    3.5174   -3.1897 H   0  0  0  0  0  0  0  0  0  0  0  0
    3.3227    1.9121   -1.8517 C   0  0  0  0  0  0  0  0  0  0  0  0
    4.2324    1.9826   -1.2715 H   0  0  0  0  0  0  0  0  0  0  0  0
    2.3518    0.9468   -1.5175 C   0  0  0  0  0  0  0  0  0  0  0  0
    2.5243    0.2763   -0.6876 H   0  0  0  0  0  0  0  0  0  0  0  0
    1.1576    0.8308   -2.2615 C   0  0  0  0  0  0  0  0  0  0  0  0
   -1.7617    0.8549   -0.2106 C   0  0  0  0  0  0  0  0  0  0  0  0
   -2.5726    1.1871   -1.0741 O   0  0  0  0  0  0  0  0  0  0  0  0
   -1.1941    1.7377    0.6223 N   0  0  0  0  0  0  0  0  0  0  0  0
   -0.4976    1.3916    1.2669 H   0  0  0  0  0  0  0  0  0  0  0  0
   -1.4666    3.1722    0.6095 C   0  0  0  0  0  0  0  0  0  0  0  0
   -2.5439    3.3427    0.6539 H   0  0  0  0  0  0  0  0  0  0  0  0
   -0.9893    3.6529    1.4644 H   0  0  0  0  0  0  0  0  0  0  0  0
   -1.0808    3.6095   -0.3129 H   0  0  0  0  0  0  0  0  0  0  0  0
  5  6  2  0  0  0  0
  5  7  1  0  0  0  0
  2  3  1  0  0  0  0
  2  4  1  0  0  0  0
  2  5  1  0  0  0  0
  1  2  1  0  0  0  0
 29 30  2  0  0  0  0
 29 31  1  0  0  0  0
 26 27  1  0  0  0  0
 26 28  2  0  0  0  0
 24 25  1  0  0  0  0
 24 26  1  0  0  0  0
 22 23  1  0  0  0  0
 22 24  2  0  0  0  0
 20 21  1  0  0  0  0
 20 22  1  0  0  0  0
 19 20  2  0  0  0  0
 19 28  1  0  0  0  0
 17 18  1  0  0  0  0
 17 19  1  0  0  0  0
 15 16  1  0  0  0  0
 15 17  1  0  0  0  0
 14 15  2  0  0  0  0
 14 28  1  0  0  0  0
 11 12  1  0  0  0  0
 11 13  1  0  0  0  0
 11 14  1  0  0  0  0
  9 10  1  0  0  0  0
  9 11  1  0  0  0  0
  9 29  1  0  0  0  0
  7  8  1  0  0  0  0
  7  9  1  0  0  0  0
 33 34  1  0  0  0  0
 33 35  1  0  0  0  0
 33 36  1  0  0  0  0
 31 32  1  0  0  0  0
 31 33  1  0  0  0  0
M  END
$$$$
default_name
  -OEChem-02102213163D

 36 37  0     1  0  0  0  0  0999 V2000
   -4.0843   -4.0736    1.2944 H   0  0  0  0  0  0  0  0  0  0  0  0
   -4.0342   -3.2816    0.5484 C   0  0  0  0  0  0  0  0  0  0  0  0
   -4.8842   -2.6126    0.6694 H   0  0  0  0  0  0  0  0  0  0  0  0
   -4.0433   -3.7186   -0.4486 H   0  0  0  0  0  0  0  0  0  0  0  0
   -2.7532   -2.5046    0.7444 C   0  0  0  0  0  0  0  0  0  0  0  0
   -1.9803   -2.8096    1.6434 O   0  0  0  0  0  0  0  0  0  0  0  0
   -2.5332   -1.4966   -0.0966 N   0  0  0  0  0  0  0  0  0  0  0  0
   -3.2312   -1.2816   -0.7936 H   0  0  0  0  0  0  0  0  0  0  0  0
   -1.3593   -0.6196   -0.0536 C   0  0  1  0  0  0  0  0  0  0  0  0
   -0.8788   -0.7266    0.9196 H   0  0  0  0  0  0  0  0  0  0  0  0
   -0.3559   -1.0533   -1.1339 C   0  0  0  0  0  0  0  0  0  0  0  0
    0.5765   -1.3489   -0.6495 H   0  0  0  0  0  0  0  0  0  0  0  0
   -0.7546   -1.9307   -1.6460 H   0  0  0  0  0  0  0  0  0  0  0  0
   -0.0342   -0.0096   -2.1602 C   0  0  0  0  0  0  0  0  0  0  0  0
   -0.9248    0.5777   -2.9906 C   0  0  0  0  0  0  0  0  0  0  0  0
   -1.9836    0.3457   -3.0239 H   0  0  0  0  0  0  0  0  0  0  0  0
   -0.2828    1.5232   -3.7661 N   0  0  0  0  0  0  0  0  0  0  0  0
   -0.7516    2.0842   -4.4623 H   0  0  0  0  0  0  0  0  0  0  0  0
    1.0591    1.6044   -3.4601 C   0  0  0  0  0  0  0  0  0  0  0  0
    2.1034    2.4098   -3.9367 C   0  0  0  0  0  0  0  0  0  0  0  0
    1.9201    3.1453   -4.7062 H   0  0  0  0  0  0  0  0  0  0  0  0
    3.3919    2.2451   -3.4005 C   0  0  0  0  0  0  0  0  0  0  0  0
    4.2100    2.8566   -3.7565 H   0  0  0  0  0  0  0  0  0  0  0  0
    3.6180    1.2784   -2.4036 C   0  0  0  0  0  0  0  0  0  0  0  0
    4.6126    1.1493   -1.9997 H   0  0  0  0  0  0  0  0  0  0  0  0
    2.5612    0.4731   -1.9335 C   0  0  0  0  0  0  0  0  0  0  0  0
    2.7514   -0.2749   -1.1770 H   0  0  0  0  0  0  0  0  0  0  0  0
    1.2544    0.6182   -2.4474 C   0  0  0  0  0  0  0  0  0  0  0  0
   -1.7617    0.8549   -0.2106 C   0  0  0  0  0  0  0  0  0  0  0  0
   -2.5726    1.1871   -1.0741 O   0  0  0  0  0  0  0  0  0  0  0  0
   -1.1941    1.7377    0.6223 N   0  0  0  0  0  0  0  0  0  0  0  0
   -0.4976    1.3916    1.2669 H   0  0  0  0  0  0  0  0  0  0  0  0
   -1.4666    3.1722    0.6095 C   0  0  0  0  0  0  0  0  0  0  0  0
   -2.5439    3.3427    0.6539 H   0  0  0  0  0  0  0  0  0  0  0  0
   -0.9893    3.6529    1.4644 H   0  0  0  0  0  0  0  0  0  0  0  0
   -1.0808    3.6095   -0.3129 H   0  0  0  0  0  0  0  0  0  0  0  0
  5  6  2  0  0  0  0
  5  7  1  0  0  0  0
  2  3  1  0  0  0  0
  2  4  1  0  0  0  0
  2  5  1  0  0  0  0
  1  2  1  0  0  0  0
 29 30  2  0  0  0  0
 29 31  1  0  0  0  0
 26 27  1  0  0  0  0
 26 28  2  0  0  0  0
 24 25  1  0  0  0  0
 24 26  1  0  0  0  0
 22 23  1  0  0  0  0
 22 24  2  0  0  0  0
 20 21  1  0  0  0  0
 20 22  1  0  0  0  0
 19 20  2  0  0  0  0
 19 28  1  0  0  0  0
 17 18  1  0  0  0  0
 17 19  1  0  0  0  0
 15 16  1  0  0  0  0
 15 17  1  0  0  0  0
 14 15  2  0  0  0  0
 14 28  1  0  0  0  0
 11 12  1  0  0  0  0
 11 13  1  0  0  0  0
 11 14  1  0  0  0  0
  9 10  1  0  0  0  0
  9 11  1  0  0  0  0
  9 29  1  0  0  0  0
  7  8  1  0  0  0  0
  7  9  1  0  0  0  0
 33 34  1  0  0  0  0
 33 35  1  0  0  0  0
 33 36  1  0  0  0  0
 31 32  1  0  0  0  0
 31 33  1  0  0  0  0
M  END
$$$$
default_name
  -OEChem-02102213163D

 36 37  0     1  0  0  0  0  0999 V2000
   -4.0843   -4.0736    1.2944 H   0  0  0  0  0  0  0  0  0  0  0  0
   -4.0342   -3.2816    0.5484 C   0  0  0  0  0  0  0  0  0  0  0  0
   -4.8842   -2.6126    0.6694 H   0  0  0  0  0  0  0  0  0  0  0  0
   -4.0433   -3.7186   -0.4486 H   0  0  0  0  0  0  0  0  0  0  0  0
   -2.7532   -2.5046    0.7444 C   0  0  0  0  0  0  0  0  0  0  0  0
   -1.9803   -2.8096    1.6434 O   0  0  0  0  0  0  0  0  0  0  0  0
   -2.5332   -1.4966   -0.0966 N   0  0  0  0  0  0  0  0  0  0  0  0
   -3.2312   -1.2816   -0.7936 H   0  0  0  0  0  0  0  0  0  0  0  0
   -1.3593   -0.6196   -0.0536 C   0  0  1  0  0  0  0  0  0  0  0  0
   -0.8788   -0.7266    0.9196 H   0  0  0  0  0  0  0  0  0  0  0  0
   -0.3559   -1.0533   -1.1339 C   0  0  0  0  0  0  0  0  0  0  0  0
    0.5765   -1.3489   -0.6495 H   0  0  0  0  0  0  0  0  0  0  0  0
   -0.7546   -1.9307   -1.6460 H   0  0  0  0  0  0  0  0  0  0  0  0
   -0.0342   -0.0096   -2.1602 C   0  0  0  0  0  0  0  0  0  0  0  0
   -0.9343    0.7803   -2.7875 C   0  0  0  0  0  0  0  0  0  0  0  0
   -2.0069    0.7371   -2.6332 H   0  0  0  0  0  0  0  0  0  0  0  0
   -0.2766    1.6544   -3.6307 N   0  0  0  0  0  0  0  0  0  0  0  0
   -0.7499    2.3362   -4.2054 H   0  0  0  0  0  0  0  0  0  0  0  0
    1.0900    1.4812   -3.5757 C   0  0  0  0  0  0  0  0  0  0  0  0
    2.1637    2.1269   -4.2055 C   0  0  0  0  0  0  0  0  0  0  0  0
    1.9857    2.9363   -4.8982 H   0  0  0  0  0  0  0  0  0  0  0  0
    3.4743    1.7048   -3.9241 C   0  0  0  0  0  0  0  0  0  0  0  0
    4.3149    2.1903   -4.4012 H   0  0  0  0  0  0  0  0  0  0  0  0
    3.6915    0.6446   -3.0252 C   0  0  0  0  0  0  0  0  0  0  0  0
    4.7010    0.3176   -2.8179 H   0  0  0  0  0  0  0  0  0  0  0  0
    2.6046    0.0016   -2.3995 C   0  0  0  0  0  0  0  0  0  0  0  0
    2.7847   -0.8204   -1.7212 H   0  0  0  0  0  0  0  0  0  0  0  0
    1.2766    0.4060   -2.6562 C   0  0  0  0  0  0  0  0  0  0  0  0
   -1.7617    0.8549   -0.2106 C   0  0  0  0  0  0  0  0  0  0  0  0
   -2.5726    1.1871   -1.0741 O   0  0  0  0  0  0  0  0  0  0  0  0
   -1.1941    1.7377    0.6223 N   0  0  0  0  0  0  0  0  0  0  0  0
   -0.4976    1.3916    1.2669 H   0  0  0  0  0  0  0  0  0  0  0  0
   -1.4666    3.1722    0.6095 C   0  0  0  0  0  0  0  0  0  0  0  0
   -2.5439    3.3427    0.6539 H   0  0  0  0  0  0  0  0  0  0  0  0
   -0.9893    3.6529    1.4644 H   0  0  0  0  0  0  0  0  0  0  0  0
   -1.0808    3.6095   -0.3129 H   0  0  0  0  0  0  0  0  0  0  0  0
  5  6  2  0  0  0  0
  5  7  1  0  0  0  0
  2  3  1  0  0  0  0
  2  4  1  0  0  0  0
  2  5  1  0  0  0  0
  1  2  1  0  0  0  0
 29 30  2  0  0  0  0
 29 31  1  0  0  0  0
 26 27  1  0  0  0  0
 26 28  2  0  0  0  0
 24 25  1  0  0  0  0
 24 26  1  0  0  0  0
 22 23  1  0  0  0  0
 22 24  2  0  0  0  0
 20 21  1  0  0  0  0
 20 22  1  0  0  0  0
 19 20  2  0  0  0  0
 19 28  1  0  0  0  0
 17 18  1  0  0  0  0
 17 19  1  0  0  0  0
 15 16  1  0  0  0  0
 15 17  1  0  0  0  0
 14 15  2  0  0  0  0
 14 28  1  0  0  0  0
 11 12  1  0  0  0  0
 11 13  1  0  0  0  0
 11 14  1  0  0  0  0
  9 10  1  0  0  0  0
  9 11  1  0  0  0  0
  9 29  1  0  0  0  0
  7  8  1  0  0  0  0
  7  9  1  0  0  0  0
 33 34  1  0  0  0  0
 33 35  1  0  0  0  0
 33 36  1  0  0  0  0
 31 32  1  0  0  0  0
 31 33  1  0  0  0  0
M  END
$$$$
default_name
  -OEChem-02102213163D

 36 37  0     1  0  0  0  0  0999 V2000
   -4.0843   -4.0736    1.2944 H   0  0  0  0  0  0  0  0  0  0  0  0
   -4.0342   -3.2816    0.5484 C   0  0  0  0  0  0  0  0  0  0  0  0
   -4.8842   -2.6126    0.6694 H   0  0  0  0  0  0  0  0  0  0  0  0
   -4.0433   -3.7186   -0.4486 H   0  0  0  0  0  0  0  0  0  0  0  0
   -2.7532   -2.5046    0.7444 C   0  0  0  0  0  0  0  0  0  0  0  0
   -1.9803   -2.8096    1.6434 O   0  0  0  0  0  0  0  0  0  0  0  0
   -2.5332   -1.4966   -0.0966 N   0  0  0  0  0  0  0  0  0  0  0  0
   -3.2312   -1.2816   -0.7936 H   0  0  0  0  0  0  0  0  0  0  0  0
   -1.3593   -0.6196   -0.0536 C   0  0  1  0  0  0  0  0  0  0  0  0
   -0.8788   -0.7266    0.9196 H   0  0  0  0  0  0  0  0  0  0  0  0
   -0.3559   -1.0533   -1.1339 C   0  0  0  0  0  0  0  0  0  0  0  0
    0.5765   -1.3489   -0.6495 H   0  0  0  0  0  0  0  0  0  0  0  0
   -0.7546   -1.9307   -1.6460 H   0  0  0  0  0  0  0  0  0  0  0  0
   -0.0342   -0.0096   -2.1602 C   0  0  0  0  0  0  0  0  0  0  0  0
   -0.8709    0.9664   -2.5784 C   0  0  0  0  0  0  0  0  0  0  0  0
   -1.8895    1.0975   -2.2298 H   0  0  0  0  0  0  0  0  0  0  0  0
   -0.2231    1.7725   -3.4938 N   0  0  0  0  0  0  0  0  0  0  0  0
   -0.6574    2.5651   -3.9436 H   0  0  0  0  0  0  0  0  0  0  0  0
    1.0772    1.3632   -3.6998 C   0  0  0  0  0  0  0  0  0  0  0  0
    2.1234    1.8579   -4.4917 C   0  0  0  0  0  0  0  0  0  0  0  0
    1.9773    2.7335   -5.1071 H   0  0  0  0  0  0  0  0  0  0  0  0
    3.3638    1.1974   -4.4748 C   0  0  0  0  0  0  0  0  0  0  0  0
    4.1819    1.5640   -5.0799 H   0  0  0  0  0  0  0  0  0  0  0  0
    3.5381    0.0538   -3.6740 C   0  0  0  0  0  0  0  0  0  0  0  0
    4.4915   -0.4561   -3.6704 H   0  0  0  0  0  0  0  0  0  0  0  0
    2.4789   -0.4357   -2.8836 C   0  0  0  0  0  0  0  0  0  0  0  0
    2.6222   -1.3229   -2.2833 H   0  0  0  0  0  0  0  0  0  0  0  0
    1.2228    0.2086   -2.8738 C   0  0  0  0  0  0  0  0  0  0  0  0
   -1.7617    0.8549   -0.2106 C   0  0  0  0  0  0  0  0  0  0  0  0
   -2.5726    1.1871   -1.0741 O   0  0  0  0  0  0  0  0  0  0  0  0
   -1.1941    1.7377    0.6223 N   0  0  0  0  0  0  0  0  0  0  0  0
   -0.4976    1.3916    1.2669 H   0  0  0  0  0  0  0  0  0  0  0  0
   -1.4666    3.1722    0.6095 C   0  0  0  0  0  0  0  0  0  0  0  0
   -2.5439    3.3427    0.6539 H   0  0  0  0  0  0  0  0  0  0  0  0
   -0.9893    3.6529    1.4644 H   0  0  0  0  0  0  0  0  0  0  0  0
   -1.0808    3.6095   -0.3129 H   0  0  0  0  0  0  0  0  0  0  0  0
  5  6  2  0  0  0  0
  5  7  1  0  0  0  0
  2  3  1  0  0  0  0
  2  4  1  0  0  0  0
  2  5  1  0  0  0  0
  1  2  1  0  0  0  0
 29 30  2  0  0  0  0
 29 31  1  0  0  0  0
 26 27  1  0  0  0  0
 26 28  2  0  0  0  0
 24 25  1  0  0  0  0
 24 26  1  0  0  0  0
 22 23  1  0  0  0  0
 22 24  2  0  0  0  0
 20 21  1  0  0  0  0
 20 22  1  0  0  0  0
 19 20  2  0  0  0  0
 19 28  1  0  0  0  0
 17 18  1  0  0  0  0
 17 19  1  0  0  0  0
 15 16  1  0  0  0  0
 15 17  1  0  0  0  0
 14 15  2  0  0  0  0
 14 28  1  0  0  0  0
 11 12  1  0  0  0  0
 11 13  1  0  0  0  0
 11 14  1  0  0  0  0
  9 10  1  0  0  0  0
  9 11  1  0  0  0  0
  9 29  1  0  0  0  0
  7  8  1  0  0  0  0
  7  9  1  0  0  0  0
 33 34  1  0  0  0  0
 33 35  1  0  0  0  0
 33 36  1  0  0  0  0
 31 32  1  0  0  0  0
 31 33  1  0  0  0  0
M  END
$$$$
default_name
  -OEChem-02102213163D

 36 37  0     1  0  0  0  0  0999 V2000
   -4.0843   -4.0736    1.2944 H   0  0  0  0  0  0  0  0  0  0  0  0
   -4.0342   -3.2816    0.5484 C   0  0  0  0  0  0  0  0  0  0  0  0
   -4.8842   -2.6126    0.6694 H   0  0  0  0  0  0  0  0  0  0  0  0
   -4.0433   -3.7186   -0.4486 H   0  0  0  0  0  0  0  0  0  0  0  0
   -2.7532   -2.5046    0.7444 C   0  0  0  0  0  0  0  0  0  0  0  0
   -1.9803   -2.8096    1.6434 O   0  0  0  0  0  0  0  0  0  0  0  0
   -2.5332   -1.4966   -0.0966 N   0  0  0  0  0  0  0  0  0  0  0  0
   -3.2312   -1.2816   -0.7936 H   0  0  0  0  0  0  0  0  0  0  0  0
   -1.3593   -0.6196   -0.0536 C   0  0  1  0  0  0  0  0  0  0  0  0
   -0.8788   -0.7266    0.9196 H   0  0  0  0  0  0  0  0  0  0  0  0
   -0.3559   -1.0533   -1.1339 C   0  0  0  0  0  0  0  0  0  0  0  0
    0.5765   -1.3489   -0.6495 H   0  0  0  0  0  0  0  0  0  0  0  0
   -0.7546   -1.9307   -1.6460 H   0  0  0  0  0  0  0  0  0  0  0  0
   -0.0342   -0.0096   -2.1602 C   0  0  0  0  0  0  0  0  0  0  0  0
   -0.7391    1.1234   -2.3775 C   0  0  0  0  0  0  0  0  0  0  0  0
   -1.6395    1.4025   -1.8414 H   0  0  0  0  0  0  0  0  0  0  0  0
   -0.1257    1.8695   -3.3647 N   0  0  0  0  0  0  0  0  0  0  0  0
   -0.4802    2.7553   -3.6947 H   0  0  0  0  0  0  0  0  0  0  0  0
    1.0216    1.2583   -3.8239 C   0  0  0  0  0  0  0  0  0  0  0  0
    1.9852    1.6211   -4.7759 C   0  0  0  0  0  0  0  0  0  0  0  0
    1.8957    2.5506   -5.3186 H   0  0  0  0  0  0  0  0  0  0  0  0
    3.0678    0.7575   -5.0150 C   0  0  0  0  0  0  0  0  0  0  0  0
    3.8201    1.0202   -5.7463 H   0  0  0  0  0  0  0  0  0  0  0  0
    3.1682   -0.4535   -4.3059 C   0  0  0  0  0  0  0  0  0  0  0  0
    3.9983   -1.1189   -4.4990 H   0  0  0  0  0  0  0  0  0  0  0  0
    2.1928   -0.8089   -3.3528 C   0  0  0  0  0  0  0  0  0  0  0  0
    2.2748   -1.7483   -2.8248 H   0  0  0  0  0  0  0  0  0  0  0  0
    1.0967    0.0397   -3.0852 C   0  0  0  0  0  0  0  0  0  0  0  0
   -1.7617    0.8549   -0.2106 C   0  0  0  0  0  0  0  0  0  0  0  0
   -2.5726    1.1871   -1.0741 O   0  0  0  0  0  0  0  0  0  0  0  0
   -1.1941    1.7377    0.6223 N   0  0  0  0  0  0  0  0  0  0  0  0
   -0.4976    1.3916    1.2669 H   0  0  0  0  0  0  0  0  0  0  0  0
   -1.4666    3.1722    0.6095 C   0  0  0  0  0  0  0  0  0  0  0  0
   -2.5439    3.3427    0.6539 H   0  0  0  0  0  0  0  0  0  0  0  0
   -0.9893    3.6529    1.4644 H   0  0  0  0  0  0  0  0  0  0  0  0
   -1.0808    3.6095   -0.3129 H   0  0  0  0  0  0  0  0  0  0  0  0
  5  6  2  0  0  0  0
  5  7  1  0  0  0  0
  2  3  1  0  0  0  0
  2  4  1  0  0  0  0
  2  5  1  0  0  0  0
  1  2  1  0  0  0  0
 29 30  2  0  0  0  0
 29 31  1  0  0  0  0
 26 27  1  0  0  0  0
 26 28  2  0  0  0  0
 24 25  1  0  0  0  0
 24 26  1  0  0  0  0
 22 23  1  0  0  0  0
 22 24  2  0  0  0  0
 20 21  1  0  0  0  0
 20 22  1  0  0  0  0
 19 20  2  0  0  0  0
 19 28  1  0  0  0  0
 17 18  1  0  0  0  0
 17 19  1  0  0  0  0
 15 16  1  0  0  0  0
 15 17  1  0  0  0  0
 14 15  2  0  0  0  0
 14 28  1  0  0  0  0
 11 12  1  0  0  0  0
 11 13  1  0  0  0  0
 11 14  1  0  0  0  0
  9 10  1  0  0  0  0
  9 11  1  0  0  0  0
  9 29  1  0  0  0  0
  7  8  1  0  0  0  0
  7  9  1  0  0  0  0
 33 34  1  0  0  0  0
 33 35  1  0  0  0  0
 33 36  1  0  0  0  0
 31 32  1  0  0  0  0
 31 33  1  0  0  0  0
M  END
$$$$
default_name
  -OEChem-02102213163D

 36 37  0     1  0  0  0  0  0999 V2000
   -4.0843   -4.0736    1.2944 H   0  0  0  0  0  0  0  0  0  0  0  0
   -4.0342   -3.2816    0.5484 C   0  0  0  0  0  0  0  0  0  0  0  0
   -4.8842   -2.6126    0.6694 H   0  0  0  0  0  0  0  0  0  0  0  0
   -4.0433   -3.7186   -0.4486 H   0  0  0  0  0  0  0  0  0  0  0  0
   -2.7532   -2.5046    0.7444 C   0  0  0  0  0  0  0  0  0  0  0  0
   -1.9803   -2.8096    1.6434 O   0  0  0  0  0  0  0  0  0  0  0  0
   -2.5332   -1.4966   -0.0966 N   0  0  0  0  0  0  0  0  0  0  0  0
   -3.2312   -1.2816   -0.7936 H   0  0  0  0  0  0  0  0  0  0  0  0
   -1.3593   -0.6196   -0.0536 C   0  0  1  0  0  0  0  0  0  0  0  0
   -0.8788   -0.7266    0.9196 H   0  0  0  0  0  0  0  0  0  0  0  0
   -0.3559   -1.0533   -1.1339 C   0  0  0  0  0  0  0  0  0  0  0  0
    0.5765   -1.3489   -0.6495 H   0  0  0  0  0  0  0  0  0  0  0  0
   -0.7546   -1.9307   -1.6460 H   0  0  0  0  0  0  0  0  0  0  0  0
   -0.0342   -0.0096   -2.1602 C   0  0  0  0  0  0  0  0  0  0  0  0
   -0.5477    1.2404   -2.1984 C   0  0  0  0  0  0  0  0  0  0  0  0
   -1.2740    1.6311   -1.4943 H   0  0  0  0  0  0  0  0  0  0  0  0
    0.0088    1.9388   -3.2521 N   0  0  0  0  0  0  0  0  0  0  0  0
   -0.2305    2.8937   -3.4757 H   0  0  0  0  0  0  0  0  0  0  0  0
    0.9269    1.1738   -3.9396 C   0  0  0  0  0  0  0  0  0  0  0  0
    1.7585    1.4327   -5.0385 C   0  0  0  0  0  0  0  0  0  0  0  0
    1.7463    2.4003   -5.5183 H   0  0  0  0  0  0  0  0  0  0  0  0
    2.6065    0.4150   -5.5078 C   0  0  0  0  0  0  0  0  0  0  0  0
    3.2542    0.5961   -6.3550 H   0  0  0  0  0  0  0  0  0  0  0  0
    2.6072   -0.8429   -4.8778 C   0  0  0  0  0  0  0  0  0  0  0  0
    3.2551   -1.6257   -5.2474 H   0  0  0  0  0  0  0  0  0  0  0  0
    1.7656   -1.0926   -3.7752 C   0  0  0  0  0  0  0  0  0  0  0  0
    1.7663   -2.0676   -3.3088 H   0  0  0  0  0  0  0  0  0  0  0  0
    0.9068   -0.0895   -3.2760 C   0  0  0  0  0  0  0  0  0  0  0  0
   -1.7617    0.8549   -0.2106 C   0  0  0  0  0  0  0  0  0  0  0  0
   -2.5726    1.1871   -1.0741 O   0  0  0  0  0  0  0  0  0  0  0  0
   -1.1941    1.7377    0.6223 N   0  0  0  0  0  0  0  0  0  0  0  0
   -0.4976    1.3916    1.2669 H   0  0  0  0  0  0  0  0  0  0  0  0
   -1.4666    3.1722    0.6095 C   0  0  0  0  0  0  0  0  0  0  0  0
   -2.5439    3.3427    0.6539 H   0  0  0  0  0  0  0  0  0  0  0  0
   -0.9893    3.6529    1.4644 H   0  0  0  0  0  0  0  0  0  0  0  0
   -1.0808    3.6095   -0.3129 H   0  0  0  0  0  0  0  0  0  0  0  0
  5  6  2  0  0  0  0
  5  7  1  0  0  0  0
  2  3  1  0  0  0  0
  2  4  1  0  0  0  0
  2  5  1  0  0  0  0
  1  2  1  0  0  0  0
 29 30  2  0  0  0  0
 29 31  1  0  0  0  0
 26 27  1  0  0  0  0
 26 28  2  0  0  0  0
 24 25  1  0  0  0  0
 24 26  1  0  0  0  0
 22 23  1  0  0  0  0
 22 24  2  0  0  0  0
 20 21  1  0  0  0  0
 20 22  1  0  0  0  0
 19 20  2  0  0  0  0
 19 28  1  0  0  0  0
 17 18  1  0  0  0  0
 17 19  1  0  0  0  0
 15 16  1  0  0  0  0
 15 17  1  0  0  0  0
 14 15  2  0  0  0  0
 14 28  1  0  0  0  0
 11 12  1  0  0  0  0
 11 13  1  0  0  0  0
 11 14  1  0  0  0  0
  9 10  1  0  0  0  0
  9 11  1  0  0  0  0
  9 29  1  0  0  0  0
  7  8  1  0  0  0  0
  7  9  1  0  0  0  0
 33 34  1  0  0  0  0
 33 35  1  0  0  0  0
 33 36  1  0  0  0  0
 31 32  1  0  0  0  0
 31 33  1  0  0  0  0
M  END
$$$$
default_name
  -OEChem-02102213163D

 36 37  0     1  0  0  0  0  0999 V2000
   -4.0843   -4.0736    1.2944 H   0  0  0  0  0  0  0  0  0  0  0  0
   -4.0342   -3.2816    0.5484 C   0  0  0  0  0  0  0  0  0  0  0  0
   -4.8842   -2.6126    0.6694 H   0  0  0  0  0  0  0  0  0  0  0  0
   -4.0433   -3.7186   -0.4486 H   0  0  0  0  0  0  0  0  0  0  0  0
   -2.7532   -2.5046    0.7444 C   0  0  0  0  0  0  0  0  0  0  0  0
   -1.9803   -2.8096    1.6434 O   0  0  0  0  0  0  0  0  0  0  0  0
   -2.5332   -1.4966   -0.0966 N   0  0  0  0  0  0  0  0  0  0  0  0
   -3.2312   -1.2816   -0.7936 H   0  0  0  0  0  0  0  0  0  0  0  0
   -1.3593   -0.6196   -0.0536 C   0  0  1  0  0  0  0  0  0  0  0  0
   -0.8788   -0.7266    0.9196 H   0  0  0  0  0  0  0  0  0  0  0  0
   -0.3559   -1.0533   -1.1339 C   0  0  0  0  0  0  0  0  0  0  0  0
    0.5765   -1.3489   -0.6495 H   0  0  0  0  0  0  0  0  0  0  0  0
   -0.7546   -1.9307   -1.6460 H   0  0  0  0  0  0  0  0  0  0  0  0
   -0.0342   -0.0096   -2.1602 C   0  0  0  0  0  0  0  0  0  0  0  0
   -0.3098    1.3096   -2.0535 C   0  0  0  0  0  0  0  0  0  0  0  0
   -0.8179    1.7680   -1.2121 H   0  0  0  0  0  0  0  0  0  0  0  0
    0.1713    1.9756   -3.1637 N   0  0  0  0  0  0  0  0  0  0  0  0
    0.0747    2.9710   -3.3014 H   0  0  0  0  0  0  0  0  0  0  0  0
    0.7996    1.1153   -4.0389 C   0  0  0  0  0  0  0  0  0  0  0  0
    1.4588    1.3054   -5.2619 C   0  0  0  0  0  0  0  0  0  0  0  0
    1.5393    2.2926   -5.6927 H   0  0  0  0  0  0  0  0  0  0  0  0
    2.0115    0.1933   -5.9198 C   0  0  0  0  0  0  0  0  0  0  0  0
    2.5226    0.3206   -6.8645 H   0  0  0  0  0  0  0  0  0  0  0  0
    1.8931   -1.0879   -5.3507 C   0  0  0  0  0  0  0  0  0  0  0  0
    2.3125   -1.9419   -5.8644 H   0  0  0  0  0  0  0  0  0  0  0  0
    1.2267   -1.2675   -4.1219 C   0  0  0  0  0  0  0  0  0  0  0  0
    1.1312   -2.2589   -3.7025 H   0  0  0  0  0  0  0  0  0  0  0  0
    0.6662   -0.1700   -3.4333 C   0  0  0  0  0  0  0  0  0  0  0  0
   -1.7617    0.8549   -0.2106 C   0  0  0  0  0  0  0  0  0  0  0  0
   -2.5726    1.1871   -1.0741 O   0  0  0  0  0  0  0  0  0  0  0  0
   -1.1941    1.7377    0.6223 N   0  0  0  0  0  0  0  0  0  0  0  0
   -0.4976    1.3916    1.2669 H   0  0  0  0  0  0  0  0  0  0  0  0
   -1.4666    3.1722    0.6095 C   0  0  0  0  0  0  0  0  0  0  0  0
   -2.5439    3.3427    0.6539 H   0  0  0  0  0  0  0  0  0  0  0  0
   -0.9893    3.6529    1.4644 H   0  0  0  0  0  0  0  0  0  0  0  0
   -1.0808    3.6095   -0.3129 H   0  0  0  0  0  0  0  0  0  0  0  0
  5  6  2  0  0  0  0
  5  7  1  0  0  0  0
  2  3  1  0  0  0  0
  2  4  1  0  0  0  0
  2  5  1  0  0  0  0
  1  2  1  0  0  0  0
 29 30  2  0  0  0  0
 29 31  1  0  0  0  0
 26 27  1  0  0  0  0
 26 28  2  0  0  0  0
 24 25  1  0  0  0  0
 24 26  1  0  0  0  0
 22 23  1  0  0  0  0
 22 24  2  0  0  0  0
 20 21  1  0  0  0  0
 20 22  1  0  0  0  0
 19 20  2  0  0  0  0
 19 28  1  0  0  0  0
 17 18  1  0  0  0  0
 17 19  1  0  0  0  0
 15 16  1  0  0  0  0
 15 17  1  0  0  0  0
 14 15  2  0  0  0  0
 14 28  1  0  0  0  0
 11 12  1  0  0  0  0
 11 13  1  0  0  0  0
 11 14  1  0  0  0  0
  9 10  1  0  0  0  0
  9 11  1  0  0  0  0
  9 29  1  0  0  0  0
  7  8  1  0  0  0  0
  7  9  1  0  0  0  0
 33 34  1  0  0  0  0
 33 35  1  0  0  0  0
 33 36  1  0  0  0  0
 31 32  1  0  0  0  0
 31 33  1  0  0  0  0
M  END
$$$$
default_name
  -OEChem-02102213163D

 36 37  0     1  0  0  0  0  0999 V2000
   -4.0843   -4.0736    1.2944 H   0  0  0  0  0  0  0  0  0  0  0  0
   -4.0342   -3.2816    0.5484 C   0  0  0  0  0  0  0  0  0  0  0  0
   -4.8842   -2.6126    0.6694 H   0  0  0  0  0  0  0  0  0  0  0  0
   -4.0433   -3.7186   -0.4486 H   0  0  0  0  0  0  0  0  0  0  0  0
   -2.7532   -2.5046    0.7444 C   0  0  0  0  0  0  0  0  0  0  0  0
   -1.9803   -2.8096    1.6434 O   0  0  0  0  0  0  0  0  0  0  0  0
   -2.5332   -1.4966   -0.0966 N   0  0  0  0  0  0  0  0  0  0  0  0
   -3.2312   -1.2816   -0.7936 H   0  0  0  0  0  0  0  0  0  0  0  0
   -1.3593   -0.6196   -0.0536 C   0  0  1  0  0  0  0  0  0  0  0  0
   -0.8788   -0.7266    0.9196 H   0  0  0  0  0  0  0  0  0  0  0  0
   -0.3559   -1.0533   -1.1339 C   0  0  0  0  0  0  0  0  0  0  0  0
    0.5765   -1.3489   -0.6495 H   0  0  0  0  0  0  0  0  0  0  0  0
   -0.7546   -1.9307   -1.6460 H   0  0  0  0  0  0  0  0  0  0  0  0
   -0.0342   -0.0096   -2.1602 C   0  0  0  0  0  0  0  0  0  0  0  0
   -0.0416    1.3263   -1.9525 C   0  0  0  0  0  0  0  0  0  0  0  0
   -0.3022    1.8036   -1.0143 H   0  0  0  0  0  0  0  0  0  0  0  0
    0.3507    1.9774   -3.1056 N   0  0  0  0  0  0  0  0  0  0  0  0
    0.4146    2.9819   -3.1838 H   0  0  0  0  0  0  0  0  0  0  0  0
    0.6484    1.0869   -4.1152 C   0  0  0  0  0  0  0  0  0  0  0  0
    1.1065    1.2480   -5.4307 C   0  0  0  0  0  0  0  0  0  0  0  0
    1.2889    2.2350   -5.8298 H   0  0  0  0  0  0  0  0  0  0  0  0
    1.3232    0.1075   -6.2227 C   0  0  0  0  0  0  0  0  0  0  0  0
    1.6754    0.2124   -7.2400 H   0  0  0  0  0  0  0  0  0  0  0  0
    1.0748   -1.1717   -5.6924 C   0  0  0  0  0  0  0  0  0  0  0  0
    1.2348   -2.0460   -6.3080 H   0  0  0  0  0  0  0  0  0  0  0  0
    0.6126   -1.3216   -4.3695 C   0  0  0  0  0  0  0  0  0  0  0  0
    0.4130   -2.3093   -3.9789 H   0  0  0  0  0  0  0  0  0  0  0  0
    0.3911   -0.1963   -3.5463 C   0  0  0  0  0  0  0  0  0  0  0  0
   -1.7617    0.8549   -0.2106 C   0  0  0  0  0  0  0  0  0  0  0  0
   -2.5726    1.1871   -1.0741 O   0  0  0  0  0  0  0  0  0  0  0  0
   -1.1941    1.7377    0.6223 N   0  0  0  0  0  0  0  0  0  0  0  0
   -0.4976    1.3916    1.2669 H   0  0  0  0  0  0  0  0  0  0  0  0
   -1.4666    3.1722    0.6095 C   0  0  0  0  0  0  0  0  0  0  0  0
   -2.5439    3.3427    0.6539 H   0  0  0  0  0  0  0  0  0  0  0  0
   -0.9893    3.6529    1.4644 H   0  0  0  0  0  0  0  0  0  0  0  0
   -1.0808    3.6095   -0.3129 H   0  0  0  0  0  0  0  0  0  0  0  0
  5  6  2  0  0  0  0
  5  7  1  0  0  0  0
  2  3  1  0  0  0  0
  2  4  1  0  0  0  0
  2  5  1  0  0  0  0
  1  2  1  0  0  0  0
 29 30  2  0  0  0  0
 29 31  1  0  0  0  0
 26 27  1  0  0  0  0
 26 28  2  0  0  0  0
 24 25  1  0  0  0  0
 24 26  1  0  0  0  0
 22 23  1  0  0  0  0
 22 24  2  0  0  0  0
 20 21  1  0  0  0  0
 20 22  1  0  0  0  0
 19 20  2  0  0  0  0
 19 28  1  0  0  0  0
 17 18  1  0  0  0  0
 17 19  1  0  0  0  0
 15 16  1  0  0  0  0
 15 17  1  0  0  0  0
 14 15  2  0  0  0  0
 14 28  1  0  0  0  0
 11 12  1  0  0  0  0
 11 13  1  0  0  0  0
 11 14  1  0  0  0  0
  9 10  1  0  0  0  0
  9 11  1  0  0  0  0
  9 29  1  0  0  0  0
  7  8  1  0  0  0  0
  7  9  1  0  0  0  0
 33 34  1  0  0  0  0
 33 35  1  0  0  0  0
 33 36  1  0  0  0  0
 31 32  1  0  0  0  0
 31 33  1  0  0  0  0
M  END
$$$$
default_name
  -OEChem-02102213163D

 36 37  0     1  0  0  0  0  0999 V2000
   -4.0843   -4.0736    1.2944 H   0  0  0  0  0  0  0  0  0  0  0  0
   -4.0342   -3.2816    0.5484 C   0  0  0  0  0  0  0  0  0  0  0  0
   -4.8842   -2.6126    0.6694 H   0  0  0  0  0  0  0  0  0  0  0  0
   -4.0433   -3.7186   -0.4486 H   0  0  0  0  0  0  0  0  0  0  0  0
   -2.7532   -2.5046    0.7444 C   0  0  0  0  0  0  0  0  0  0  0  0
   -1.9803   -2.8096    1.6434 O   0  0  0  0  0  0  0  0  0  0  0  0
   -2.5332   -1.4966   -0.0966 N   0  0  0  0  0  0  0  0  0  0  0  0
   -3.2312   -1.2816   -0.7936 H   0  0  0  0  0  0  0  0  0  0  0  0
   -1.3593   -0.6196   -0.0536 C   0  0  1  0  0  0  0  0  0  0  0  0
   -0.8788   -0.7266    0.9196 H   0  0  0  0  0  0  0  0  0  0  0  0
   -0.3559   -1.0533   -1.1339 C   0  0  0  0  0  0  0  0  0  0  0  0
    0.5765   -1.3489   -0.6495 H   0  0  0  0  0  0  0  0  0  0  0  0
   -0.7546   -1.9307   -1.6460 H   0  0  0  0  0  0  0  0  0  0  0  0
   -0.0342   -0.0096   -2.1602 C   0  0  0  0  0  0  0  0  0  0  0  0
    0.2386    1.2892   -1.9024 C   0  0  0  0  0  0  0  0  0  0  0  0
    0.2379    1.7356   -0.9141 H   0  0  0  0  0  0  0  0  0  0  0  0
    0.5348    1.9442   -3.0817 N   0  0  0  0  0  0  0  0  0  0  0  0
    0.7661    2.9256   -3.1309 H   0  0  0  0  0  0  0  0  0  0  0  0
    0.4835    1.0905   -4.1632 C   0  0  0  0  0  0  0  0  0  0  0  0
    0.7256    1.2644   -5.5334 C   0  0  0  0  0  0  0  0  0  0  0  0
    1.0120    2.2313   -5.9203 H   0  0  0  0  0  0  0  0  0  0  0  0
    0.5885    0.1635   -6.3961 C   0  0  0  0  0  0  0  0  0  0  0  0
    0.7701    0.2790   -7.4561 H   0  0  0  0  0  0  0  0  0  0  0  0
    0.2078   -1.0886   -5.8796 C   0  0  0  0  0  0  0  0  0  0  0  0
    0.0954   -1.9309   -6.5481 H   0  0  0  0  0  0  0  0  0  0  0  0
   -0.0348   -1.2513   -4.5009 C   0  0  0  0  0  0  0  0  0  0  0  0
   -0.3396   -2.2154   -4.1192 H   0  0  0  0  0  0  0  0  0  0  0  0
    0.1003   -0.1667   -3.6073 C   0  0  0  0  0  0  0  0  0  0  0  0
   -1.7617    0.8549   -0.2106 C   0  0  0  0  0  0  0  0  0  0  0  0
   -2.5726    1.1871   -1.0741 O   0  0  0  0  0  0  0  0  0  0  0  0
   -1.1941    1.7377    0.6223 N   0  0  0  0  0  0  0  0  0  0  0  0
   -0.4976    1.3916    1.2669 H   0  0  0  0  0  0  0  0  0  0  0  0
   -1.4666    3.1722    0.6095 C   0  0  0  0  0  0  0  0  0  0  0  0
   -2.5439    3.3427    0.6539 H   0  0  0  0  0  0  0  0  0  0  0  0
   -0.9893    3.6529    1.4644 H   0  0  0  0  0  0  0  0  0  0  0  0
   -1.0808    3.6095   -0.3129 H   0  0  0  0  0  0  0  0  0  0  0  0
  5  6  2  0  0  0  0
  5  7  1  0  0  0  0
  2  3  1  0  0  0  0
  2  4  1  0  0  0  0
  2  5  1  0  0  0  0
  1  2  1  0  0  0  0
 29 30  2  0  0  0  0
 29 31  1  0  0  0  0
 26 27  1  0  0  0  0
 26 28  2  0  0  0  0
 24 25  1  0  0  0  0
 24 26  1  0  0  0  0
 22 23  1  0  0  0  0
 22 24  2  0  0  0  0
 20 21  1  0  0  0  0
 20 22  1  0  0  0  0
 19 20  2  0  0  0  0
 19 28  1  0  0  0  0
 17 18  1  0  0  0  0
 17 19  1  0  0  0  0
 15 16  1  0  0  0  0
 15 17  1  0  0  0  0
 14 15  2  0  0  0  0
 14 28  1  0  0  0  0
 11 12  1  0  0  0  0
 11 13  1  0  0  0  0
 11 14  1  0  0  0  0
  9 10  1  0  0  0  0
  9 11  1  0  0  0  0
  9 29  1  0  0  0  0
  7  8  1  0  0  0  0
  7  9  1  0  0  0  0
 33 34  1  0  0  0  0
 33 35  1  0  0  0  0
 33 36  1  0  0  0  0
 31 32  1  0  0  0  0
 31 33  1  0  0  0  0
M  END
$$$$
default_name
  -OEChem-02102213163D

 36 37  0     1  0  0  0  0  0999 V2000
   -4.0843   -4.0736    1.2944 H   0  0  0  0  0  0  0  0  0  0  0  0
   -4.0342   -3.2816    0.5484 C   0  0  0  0  0  0  0  0  0  0  0  0
   -4.8842   -2.6126    0.6694 H   0  0  0  0  0  0  0  0  0  0  0  0
   -4.0433   -3.7186   -0.4486 H   0  0  0  0  0  0  0  0  0  0  0  0
   -2.7532   -2.5046    0.7444 C   0  0  0  0  0  0  0  0  0  0  0  0
   -1.9803   -2.8096    1.6434 O   0  0  0  0  0  0  0  0  0  0  0  0
   -2.5332   -1.4966   -0.0966 N   0  0  0  0  0  0  0  0  0  0  0  0
   -3.2312   -1.2816   -0.7936 H   0  0  0  0  0  0  0  0  0  0  0  0
   -1.3593   -0.6196   -0.0536 C   0  0  1  0  0  0  0  0  0  0  0  0
   -0.8788   -0.7266    0.9196 H   0  0  0  0  0  0  0  0  0  0  0  0
   -0.3559   -1.0533   -1.1339 C   0  0  0  0  0  0  0  0  0  0  0  0
    0.5765   -1.3489   -0.6495 H   0  0  0  0  0  0  0  0  0  0  0  0
   -0.7546   -1.9307   -1.6460 H   0  0  0  0  0  0  0  0  0  0  0  0
   -0.0342   -0.0096   -2.1602 C   0  0  0  0  0  0  0  0  0  0  0  0
    0.5117    1.2009   -1.9066 C   0  0  0  0  0  0  0  0  0  0  0  0
    0.7657    1.5687   -0.9185 H   0  0  0  0  0  0  0  0  0  0  0  0
    0.7111    1.8781   -3.0937 N   0  0  0  0  0  0  0  0  0  0  0  0
    1.1052    2.8060   -3.1462 H   0  0  0  0  0  0  0  0  0  0  0  0
    0.3163    1.1259   -4.1796 C   0  0  0  0  0  0  0  0  0  0  0  0
    0.3421    1.3535   -5.5630 C   0  0  0  0  0  0  0  0  0  0  0  0
    0.7277    2.2818   -5.9580 H   0  0  0  0  0  0  0  0  0  0  0  0
   -0.1425    0.3574   -6.4280 C   0  0  0  0  0  0  0  0  0  0  0  0
   -0.1315    0.5157   -7.4979 H   0  0  0  0  0  0  0  0  0  0  0  0
   -0.6485   -0.8443   -5.8995 C   0  0  0  0  0  0  0  0  0  0  0  0
   -1.0280   -1.6045   -6.5682 H   0  0  0  0  0  0  0  0  0  0  0  0
   -0.6714   -1.0613   -4.5072 C   0  0  0  0  0  0  0  0  0  0  0  0
   -1.0751   -1.9835   -4.1138 H   0  0  0  0  0  0  0  0  0  0  0  0
   -0.1863   -0.0832   -3.6122 C   0  0  0  0  0  0  0  0  0  0  0  0
   -1.7617    0.8549   -0.2106 C   0  0  0  0  0  0  0  0  0  0  0  0
   -2.5726    1.1871   -1.0741 O   0  0  0  0  0  0  0  0  0  0  0  0
   -1.1941    1.7377    0.6223 N   0  0  0  0  0  0  0  0  0  0  0  0
   -0.4976    1.3916    1.2669 H   0  0  0  0  0  0  0  0  0  0  0  0
   -1.4666    3.1722    0.6095 C   0  0  0  0  0  0  0  0  0  0  0  0
   -2.5439    3.3427    0.6539 H   0  0  0  0  0  0  0  0  0  0  0  0
   -0.9893    3.6529    1.4644 H   0  0  0  0  0  0  0  0  0  0  0  0
   -1.0808    3.6095   -0.3129 H   0  0  0  0  0  0  0  0  0  0  0  0
  5  6  2  0  0  0  0
  5  7  1  0  0  0  0
  2  3  1  0  0  0  0
  2  4  1  0  0  0  0
  2  5  1  0  0  0  0
  1  2  1  0  0  0  0
 29 30  2  0  0  0  0
 29 31  1  0  0  0  0
 26 27  1  0  0  0  0
 26 28  2  0  0  0  0
 24 25  1  0  0  0  0
 24 26  1  0  0  0  0
 22 23  1  0  0  0  0
 22 24  2  0  0  0  0
 20 21  1  0  0  0  0
 20 22  1  0  0  0  0
 19 20  2  0  0  0  0
 19 28  1  0  0  0  0
 17 18  1  0  0  0  0
 17 19  1  0  0  0  0
 15 16  1  0  0  0  0
 15 17  1  0  0  0  0
 14 15  2  0  0  0  0
 14 28  1  0  0  0  0
 11 12  1  0  0  0  0
 11 13  1  0  0  0  0
 11 14  1  0  0  0  0
  9 10  1  0  0  0  0
  9 11  1  0  0  0  0
  9 29  1  0  0  0  0
  7  8  1  0  0  0  0
  7  9  1  0  0  0  0
 33 34  1  0  0  0  0
 33 35  1  0  0  0  0
 33 36  1  0  0  0  0
 31 32  1  0  0  0  0
 31 33  1  0  0  0  0
M  END
$$$$
default_name
  -OEChem-02102213163D

 36 37  0     1  0  0  0  0  0999 V2000
   -4.0843   -4.0736    1.2944 H   0  0  0  0  0  0  0  0  0  0  0  0
   -4.0342   -3.2816    0.5484 C   0  0  0  0  0  0  0  0  0  0  0  0
   -4.8842   -2.6126    0.6694 H   0  0  0  0  0  0  0  0  0  0  0  0
   -4.0433   -3.7186   -0.4486 H   0  0  0  0  0  0  0  0  0  0  0  0
   -2.7532   -2.5046    0.7444 C   0  0  0  0  0  0  0  0  0  0  0  0
   -1.9803   -2.8096    1.6434 O   0  0  0  0  0  0  0  0  0  0  0  0
   -2.5332   -1.4966   -0.0966 N   0  0  0  0  0  0  0  0  0  0  0  0
   -3.2312   -1.2816   -0.7936 H   0  0  0  0  0  0  0  0  0  0  0  0
   -1.3593   -0.6196   -0.0536 C   0  0  1  0  0  0  0  0  0  0  0  0
   -0.8788   -0.7266    0.9196 H   0  0  0  0  0  0  0  0  0  0  0  0
   -0.3559   -1.0533   -1.1339 C   0  0  0  0  0  0  0  0  0  0  0  0
    0.5765   -1.3489   -0.6495 H   0  0  0  0  0  0  0  0  0  0  0  0
   -0.7546   -1.9307   -1.6460 H   0  0  0  0  0  0  0  0  0  0  0  0
   -0.0342   -0.0096   -2.1602 C   0  0  0  0  0  0  0  0  0  0  0  0
    0.7591    1.0675   -1.9648 C   0  0  0  0  0  0  0  0  0  0  0  0
    1.2450    1.3141   -1.0271 H   0  0  0  0  0  0  0  0  0  0  0  0
    0.8674    1.7837   -3.1407 N   0  0  0  0  0  0  0  0  0  0  0  0
    1.4087    2.6313   -3.2288 H   0  0  0  0  0  0  0  0  0  0  0  0
    0.1581    1.1906   -4.1634 C   0  0  0  0  0  0  0  0  0  0  0  0
   -0.0180    1.5091   -5.5176 C   0  0  0  0  0  0  0  0  0  0  0  0
    0.4552    2.3831   -5.9404 H   0  0  0  0  0  0  0  0  0  0  0  0
   -0.8200    0.6760   -6.3163 C   0  0  0  0  0  0  0  0  0  0  0  0
   -0.9679    0.9065   -7.3627 H   0  0  0  0  0  0  0  0  0  0  0  0
   -1.4360   -0.4554   -5.7509 C   0  0  0  0  0  0  0  0  0  0  0  0
   -2.0590   -1.0889   -6.3670 H   0  0  0  0  0  0  0  0  0  0  0  0
   -1.2537   -0.7647   -4.3880 C   0  0  0  0  0  0  0  0  0  0  0  0
   -1.7436   -1.6294   -3.9632 H   0  0  0  0  0  0  0  0  0  0  0  0
   -0.4493    0.0485   -3.5607 C   0  0  0  0  0  0  0  0  0  0  0  0
   -1.7617    0.8549   -0.2106 C   0  0  0  0  0  0  0  0  0  0  0  0
   -2.5726    1.1871   -1.0741 O   0  0  0  0  0  0  0  0  0  0  0  0
   -1.1941    1.7377    0.6223 N   0  0  0  0  0  0  0  0  0  0  0  0
   -0.4976    1.3916    1.2669 H   0  0  0  0  0  0  0  0  0  0  0  0
   -1.4666    3.1722    0.6095 C   0  0  0  0  0  0  0  0  0  0  0  0
   -2.5439    3.3427    0.6539 H   0  0  0  0  0  0  0  0  0  0  0  0
   -0.9893    3.6529    1.4644 H   0  0  0  0  0  0  0  0  0  0  0  0
   -1.0808    3.6095   -0.3129 H   0  0  0  0  0  0  0  0  0  0  0  0
  5  6  2  0  0  0  0
  5  7  1  0  0  0  0
  2  3  1  0  0  0  0
  2  4  1  0  0  0  0
  2  5  1  0  0  0  0
  1  2  1  0  0  0  0
 29 30  2  0  0  0  0
 29 31  1  0  0  0  0
 26 27  1  0  0  0  0
 26 28  2  0  0  0  0
 24 25  1  0  0  0  0
 24 26  1  0  0  0  0
 22 23  1  0  0  0  0
 22 24  2  0  0  0  0
 20 21  1  0  0  0  0
 20 22  1  0  0  0  0
 19 20  2  0  0  0  0
 19 28  1  0  0  0  0
 17 18  1  0  0  0  0
 17 19  1  0  0  0  0
 15 16  1  0  0  0  0
 15 17  1  0  0  0  0
 14 15  2  0  0  0  0
 14 28  1  0  0  0  0
 11 12  1  0  0  0  0
 11 13  1  0  0  0  0
 11 14  1  0  0  0  0
  9 10  1  0  0  0  0
  9 11  1  0  0  0  0
  9 29  1  0  0  0  0
  7  8  1  0  0  0  0
  7  9  1  0  0  0  0
 33 34  1  0  0  0  0
 33 35  1  0  0  0  0
 33 36  1  0  0  0  0
 31 32  1  0  0  0  0
 31 33  1  0  0  0  0
M  END
$$$$
default_name
  -OEChem-02102213163D

 36 37  0     1  0  0  0  0  0999 V2000
   -4.0843   -4.0736    1.2944 H   0  0  0  0  0  0  0  0  0  0  0  0
   -4.0342   -3.2816    0.5484 C   0  0  0  0  0  0  0  0  0  0  0  0
   -4.8842   -2.6126    0.6694 H   0  0  0  0  0  0  0  0  0  0  0  0
   -4.0433   -3.7186   -0.4486 H   0  0  0  0  0  0  0  0  0  0  0  0
   -2.7532   -2.5046    0.7444 C   0  0  0  0  0  0  0  0  0  0  0  0
   -1.9803   -2.8096    1.6434 O   0  0  0  0  0  0  0  0  0  0  0  0
   -2.5332   -1.4966   -0.0966 N   0  0  0  0  0  0  0  0  0  0  0  0
   -3.2312   -1.2816   -0.7936 H   0  0  0  0  0  0  0  0  0  0  0  0
   -1.3593   -0.6196   -0.0536 C   0  0  1  0  0  0  0  0  0  0  0  0
   -0.8788   -0.7266    0.9196 H   0  0  0  0  0  0  0  0  0  0  0  0
   -0.3559   -1.0533   -1.1339 C   0  0  0  0  0  0  0  0  0  0  0  0
    0.5765   -1.3489   -0.6495 H   0  0  0  0  0  0  0  0  0  0  0  0
   -0.7546   -1.9307   -1.6460 H   0  0  0  0  0  0  0  0  0  0  0  0
   -0.0342   -0.0096   -2.1602 C   0  0  0  0  0  0  0  0  0  0  0  0
    0.9639    0.8980   -2.0729 C   0  0  0  0  0  0  0  0  0  0  0  0
    1.6434    0.9894   -1.2326 H   0  0  0  0  0  0  0  0  0  0  0  0
    0.9933    1.6674   -3.2195 N   0  0  0  0  0  0  0  0  0  0  0  0
    1.6560    2.4133   -3.3730 H   0  0  0  0  0  0  0  0  0  0  0  0
    0.0196    1.2803   -4.1156 C   0  0  0  0  0  0  0  0  0  0  0  0
   -0.3299    1.7207   -5.4002 C   0  0  0  0  0  0  0  0  0  0  0  0
    0.2131    2.5283   -5.8686 H   0  0  0  0  0  0  0  0  0  0  0  0
   -1.3977    1.0977   -6.0686 C   0  0  0  0  0  0  0  0  0  0  0  0
   -1.6822    1.4247   -7.0595 H   0  0  0  0  0  0  0  0  0  0  0  0
   -2.1010    0.0516   -5.4437 C   0  0  0  0  0  0  0  0  0  0  0  0
   -2.9272   -0.4194   -5.9582 H   0  0  0  0  0  0  0  0  0  0  0  0
   -1.7422   -0.3815   -4.1515 C   0  0  0  0  0  0  0  0  0  0  0  0
   -2.2993   -1.1772   -3.6776 H   0  0  0  0  0  0  0  0  0  0  0  0
   -0.6706    0.2195   -3.4562 C   0  0  0  0  0  0  0  0  0  0  0  0
   -1.7617    0.8549   -0.2106 C   0  0  0  0  0  0  0  0  0  0  0  0
   -2.5726    1.1871   -1.0741 O   0  0  0  0  0  0  0  0  0  0  0  0
   -1.1941    1.7377    0.6223 N   0  0  0  0  0  0  0  0  0  0  0  0
   -0.4976    1.3916    1.2669 H   0  0  0  0  0  0  0  0  0  0  0  0
   -1.4666    3.1722    0.6095 C   0  0  0  0  0  0  0  0  0  0  0  0
   -2.5439    3.3427    0.6539 H   0  0  0  0  0  0  0  0  0  0  0  0
   -0.9893    3.6529    1.4644 H   0  0  0  0  0  0  0  0  0  0  0  0
   -1.0808    3.6095   -0.3129 H   0  0  0  0  0  0  0  0  0  0  0  0
  5  6  2  0  0  0  0
  5  7  1  0  0  0  0
  2  3  1  0  0  0  0
  2  4  1  0  0  0  0
  2  5  1  0  0  0  0
  1  2  1  0  0  0  0
 29 30  2  0  0  0  0
 29 31  1  0  0  0  0
 26 27  1  0  0  0  0
 26 28  2  0  0  0  0
 24 25  1  0  0  0  0
 24 26  1  0  0  0  0
 22 23  1  0  0  0  0
 22 24  2  0  0  0  0
 20 21  1  0  0  0  0
 20 22  1  0  0  0  0
 19 20  2  0  0  0  0
 19 28  1  0  0  0  0
 17 18  1  0  0  0  0
 17 19  1  0  0  0  0
 15 16  1  0  0  0  0
 15 17  1  0  0  0  0
 14 15  2  0  0  0  0
 14 28  1  0  0  0  0
 11 12  1  0  0  0  0
 11 13  1  0  0  0  0
 11 14  1  0  0  0  0
  9 10  1  0  0  0  0
  9 11  1  0  0  0  0
  9 29  1  0  0  0  0
  7  8  1  0  0  0  0
  7  9  1  0  0  0  0
 33 34  1  0  0  0  0
 33 35  1  0  0  0  0
 33 36  1  0  0  0  0
 31 32  1  0  0  0  0
 31 33  1  0  0  0  0
M  END
$$$$
default_name
  -OEChem-02102213163D

 36 37  0     1  0  0  0  0  0999 V2000
   -4.0843   -4.0736    1.2944 H   0  0  0  0  0  0  0  0  0  0  0  0
   -4.0342   -3.2816    0.5484 C   0  0  0  0  0  0  0  0  0  0  0  0
   -4.8842   -2.6126    0.6694 H   0  0  0  0  0  0  0  0  0  0  0  0
   -4.0433   -3.7186   -0.4486 H   0  0  0  0  0  0  0  0  0  0  0  0
   -2.7532   -2.5046    0.7444 C   0  0  0  0  0  0  0  0  0  0  0  0
   -1.9803   -2.8096    1.6434 O   0  0  0  0  0  0  0  0  0  0  0  0
   -2.5332   -1.4966   -0.0966 N   0  0  0  0  0  0  0  0  0  0  0  0
   -3.2312   -1.2816   -0.7936 H   0  0  0  0  0  0  0  0  0  0  0  0
   -1.3593   -0.6196   -0.0536 C   0  0  1  0  0  0  0  0  0  0  0  0
   -0.8788   -0.7266    0.9196 H   0  0  0  0  0  0  0  0  0  0  0  0
   -0.3559   -1.0533   -1.1339 C   0  0  0  0  0  0  0  0  0  0  0  0
    0.5765   -1.3489   -0.6495 H   0  0  0  0  0  0  0  0  0  0  0  0
   -0.7546   -1.9307   -1.6460 H   0  0  0  0  0  0  0  0  0  0  0  0
   -0.0342   -0.0096   -2.1602 C   0  0  0  0  0  0  0  0  0  0  0  0
    1.1123    0.7040   -2.2238 C   0  0  0  0  0  0  0  0  0  0  0  0
    1.9335    0.6164   -1.5209 H   0  0  0  0  0  0  0  0  0  0  0  0
    1.0800    1.5372   -3.3248 N   0  0  0  0  0  0  0  0  0  0  0  0
    1.8303    2.1669   -3.5689 H   0  0  0  0  0  0  0  0  0  0  0  0
   -0.0896    1.3888   -4.0395 C   0  0  0  0  0  0  0  0  0  0  0  0
   -0.5726    1.9739   -5.2188 C   0  0  0  0  0  0  0  0  0  0  0  0
    0.0179    2.7075   -5.7476 H   0  0  0  0  0  0  0  0  0  0  0  0
   -1.8364    1.5936   -5.7017 C   0  0  0  0  0  0  0  0  0  0  0  0
   -2.2257    2.0350   -6.6092 H   0  0  0  0  0  0  0  0  0  0  0  0
   -2.5981    0.6420   -4.9990 C   0  0  0  0  0  0  0  0  0  0  0  0
   -3.5734    0.3585   -5.3696 H   0  0  0  0  0  0  0  0  0  0  0  0
   -2.1034    0.0620   -3.8136 C   0  0  0  0  0  0  0  0  0  0  0  0
   -2.7045   -0.6579   -3.2764 H   0  0  0  0  0  0  0  0  0  0  0  0
   -0.8353    0.4181   -3.3058 C   0  0  0  0  0  0  0  0  0  0  0  0
   -1.7617    0.8549   -0.2106 C   0  0  0  0  0  0  0  0  0  0  0  0
   -2.5726    1.1871   -1.0741 O   0  0  0  0  0  0  0  0  0  0  0  0
   -1.1941    1.7377    0.6223 N   0  0  0  0  0  0  0  0  0  0  0  0
   -0.4976    1.3916    1.2669 H   0  0  0  0  0  0  0  0  0  0  0  0
   -1.4666    3.1722    0.6095 C   0  0  0  0  0  0  0  0  0  0  0  0
   -2.5439    3.3427    0.6539 H   0  0  0  0  0  0  0  0  0  0  0  0
   -0.9893    3.6529    1.4644 H   0  0  0  0  0  0  0  0  0  0  0  0
   -1.0808    3.6095   -0.3129 H   0  0  0  0  0  0  0  0  0  0  0  0
  5  6  2  0  0  0  0
  5  7  1  0  0  0  0
  2  3  1  0  0  0  0
  2  4  1  0  0  0  0
  2  5  1  0  0  0  0
  1  2  1  0  0  0  0
 29 30  2  0  0  0  0
 29 31  1  0  0  0  0
 26 27  1  0  0  0  0
 26 28  2  0  0  0  0
 24 25  1  0  0  0  0
 24 26  1  0  0  0  0
 22 23  1  0  0  0  0
 22 24  2  0  0  0  0
 20 21  1  0  0  0  0
 20 22  1  0  0  0  0
 19 20  2  0  0  0  0
 19 28  1  0  0  0  0
 17 18  1  0  0  0  0
 17 19  1  0  0  0  0
 15 16  1  0  0  0  0
 15 17  1  0  0  0  0
 14 15  2  0  0  0  0
 14 28  1  0  0  0  0
 11 12  1  0  0  0  0
 11 13  1  0  0  0  0
 11 14  1  0  0  0  0
  9 10  1  0  0  0  0
  9 11  1  0  0  0  0
  9 29  1  0  0  0  0
  7  8  1  0  0  0  0
  7  9  1  0  0  0  0
 33 34  1  0  0  0  0
 33 35  1  0  0  0  0
 33 36  1  0  0  0  0
 31 32  1  0  0  0  0
 31 33  1  0  0  0  0
M  END
$$$$
default_name
  -OEChem-02102213163D

 36 37  0     1  0  0  0  0  0999 V2000
   -4.0843   -4.0736    1.2944 H   0  0  0  0  0  0  0  0  0  0  0  0
   -4.0342   -3.2816    0.5484 C   0  0  0  0  0  0  0  0  0  0  0  0
   -4.8842   -2.6126    0.6694 H   0  0  0  0  0  0  0  0  0  0  0  0
   -4.0433   -3.7186   -0.4486 H   0  0  0  0  0  0  0  0  0  0  0  0
   -2.7532   -2.5046    0.7444 C   0  0  0  0  0  0  0  0  0  0  0  0
   -1.9803   -2.8096    1.6434 O   0  0  0  0  0  0  0  0  0  0  0  0
   -2.5332   -1.4966   -0.0966 N   0  0  0  0  0  0  0  0  0  0  0  0
   -3.2312   -1.2816   -0.7936 H   0  0  0  0  0  0  0  0  0  0  0  0
   -1.3593   -0.6196   -0.0536 C   0  0  1  0  0  0  0  0  0  0  0  0
   -0.8788   -0.7266    0.9196 H   0  0  0  0  0  0  0  0  0  0  0  0
   -0.3559   -1.0533   -1.1339 C   0  0  0  0  0  0  0  0  0  0  0  0
    0.5765   -1.3489   -0.6495 H   0  0  0  0  0  0  0  0  0  0  0  0
   -0.7546   -1.9307   -1.6460 H   0  0  0  0  0  0  0  0  0  0  0  0
   -0.0342   -0.0096   -2.1602 C   0  0  0  0  0  0  0  0  0  0  0  0
    1.1940    0.4987   -2.4070 C   0  0  0  0  0  0  0  0  0  0  0  0
    2.0957    0.2208   -1.8724 H   0  0  0  0  0  0  0  0  0  0  0  0
    1.1217    1.4018   -3.4493 N   0  0  0  0  0  0  0  0  0  0  0  0
    1.9197    1.9089   -3.8033 H   0  0  0  0  0  0  0  0  0  0  0  0
   -0.1622    1.5087   -3.9402 C   0  0  0  0  0  0  0  0  0  0  0  0
   -0.7295    2.2513   -4.9857 C   0  0  0  0  0  0  0  0  0  0  0  0
   -0.1170    2.9084   -5.5856 H   0  0  0  0  0  0  0  0  0  0  0  0
   -2.1061    2.1300   -5.2408 C   0  0  0  0  0  0  0  0  0  0  0  0
   -2.5613    2.6958   -6.0424 H   0  0  0  0  0  0  0  0  0  0  0  0
   -2.8934    1.2758   -4.4471 C   0  0  0  0  0  0  0  0  0  0  0  0
   -3.9537    1.1917   -4.6415 H   0  0  0  0  0  0  0  0  0  0  0  0
   -2.3129    0.5356   -3.3976 C   0  0  0  0  0  0  0  0  0  0  0  0
   -2.9315   -0.1067   -2.7870 H   0  0  0  0  0  0  0  0  0  0  0  0
   -0.9320    0.6307   -3.1199 C   0  0  0  0  0  0  0  0  0  0  0  0
   -1.7617    0.8549   -0.2106 C   0  0  0  0  0  0  0  0  0  0  0  0
   -2.5726    1.1871   -1.0741 O   0  0  0  0  0  0  0  0  0  0  0  0
   -1.1941    1.7377    0.6223 N   0  0  0  0  0  0  0  0  0  0  0  0
   -0.4976    1.3916    1.2669 H   0  0  0  0  0  0  0  0  0  0  0  0
   -1.4666    3.1722    0.6095 C   0  0  0  0  0  0  0  0  0  0  0  0
   -2.5439    3.3427    0.6539 H   0  0  0  0  0  0  0  0  0  0  0  0
   -0.9893    3.6529    1.4644 H   0  0  0  0  0  0  0  0  0  0  0  0
   -1.0808    3.6095   -0.3129 H   0  0  0  0  0  0  0  0  0  0  0  0
  5  6  2  0  0  0  0
  5  7  1  0  0  0  0
  2  3  1  0  0  0  0
  2  4  1  0  0  0  0
  2  5  1  0  0  0  0
  1  2  1  0  0  0  0
 29 30  2  0  0  0  0
 29 31  1  0  0  0  0
 26 27  1  0  0  0  0
 26 28  2  0  0  0  0
 24 25  1  0  0  0  0
 24 26  1  0  0  0  0
 22 23  1  0  0  0  0
 22 24  2  0  0  0  0
 20 21  1  0  0  0  0
 20 22  1  0  0  0  0
 19 20  2  0  0  0  0
 19 28  1  0  0  0  0
 17 18  1  0  0  0  0
 17 19  1  0  0  0  0
 15 16  1  0  0  0  0
 15 17  1  0  0  0  0
 14 15  2  0  0  0  0
 14 28  1  0  0  0  0
 11 12  1  0  0  0  0
 11 13  1  0  0  0  0
 11 14  1  0  0  0  0
  9 10  1  0  0  0  0
  9 11  1  0  0  0  0
  9 29  1  0  0  0  0
  7  8  1  0  0  0  0
  7  9  1  0  0  0  0
 33 34  1  0  0  0  0
 33 35  1  0  0  0  0
 33 36  1  0  0  0  0
 31 32  1  0  0  0  0
 31 33  1  0  0  0  0
M  END
$$$$
default_name
  -OEChem-02102213163D

 36 37  0     1  0  0  0  0  0999 V2000
   -4.0843   -4.0736    1.2944 H   0  0  0  0  0  0  0  0  0  0  0  0
   -4.0342   -3.2816    0.5484 C   0  0  0  0  0  0  0  0  0  0  0  0
   -4.8842   -2.6126    0.6694 H   0  0  0  0  0  0  0  0  0  0  0  0
   -4.0433   -3.7186   -0.4486 H   0  0  0  0  0  0  0  0  0  0  0  0
   -2.7532   -2.5046    0.7444 C   0  0  0  0  0  0  0  0  0  0  0  0
   -1.9803   -2.8096    1.6434 O   0  0  0  0  0  0  0  0  0  0  0  0
   -2.5332   -1.4966   -0.0966 N   0  0  0  0  0  0  0  0  0  0  0  0
   -3.2312   -1.2816   -0.7936 H   0  0  0  0  0  0  0  0  0  0  0  0
   -1.3593   -0.6196   -0.0536 C   0  0  1  0  0  0  0  0  0  0  0  0
   -0.8788   -0.7266    0.9196 H   0  0  0  0  0  0  0  0  0  0  0  0
   -0.3559   -1.0533   -1.1339 C   0  0  0  0  0  0  0  0  0  0  0  0
    0.5765   -1.3489   -0.6495 H   0  0  0  0  0  0  0  0  0  0  0  0
   -0.7546   -1.9307   -1.6460 H   0  0  0  0  0  0  0  0  0  0  0  0
   -0.0342   -0.0096   -2.1602 C   0  0  0  0  0  0  0  0  0  0  0  0
    1.2035    0.2960   -2.6100 C   0  0  0  0  0  0  0  0  0  0  0  0
    2.1189   -0.1705   -2.2631 H   0  0  0  0  0  0  0  0  0  0  0  0
    1.1156    1.2706   -3.5847 N   0  0  0  0  0  0  0  0  0  0  0  0
    1.9180    1.6568   -4.0602 H   0  0  0  0  0  0  0  0  0  0  0  0
   -0.1931    1.6319   -3.8246 C   0  0  0  0  0  0  0  0  0  0  0  0
   -0.7898    2.5342   -4.7170 C   0  0  0  0  0  0  0  0  0  0  0  0
   -0.1825    3.1174   -5.3936 H   0  0  0  0  0  0  0  0  0  0  0  0
   -2.1885    2.6703   -4.7171 C   0  0  0  0  0  0  0  0  0  0  0  0
   -2.6663    3.3621   -5.3976 H   0  0  0  0  0  0  0  0  0  0  0  0
   -2.9668    1.9096   -3.8255 C   0  0  0  0  0  0  0  0  0  0  0  0
   -4.0421    2.0235   -3.8232 H   0  0  0  0  0  0  0  0  0  0  0  0
   -2.3562    1.0072   -2.9316 C   0  0  0  0  0  0  0  0  0  0  0  0
   -2.9649    0.4388   -2.2428 H   0  0  0  0  0  0  0  0  0  0  0  0
   -0.9542    0.8430   -2.9110 C   0  0  0  0  0  0  0  0  0  0  0  0
   -1.7617    0.8549   -0.2106 C   0  0  0  0  0  0  0  0  0  0  0  0
   -2.5726    1.1871   -1.0741 O   0  0  0  0  0  0  0  0  0  0  0  0
   -1.1941    1.7377    0.6223 N   0  0  0  0  0  0  0  0  0  0  0  0
   -0.4976    1.3916    1.2669 H   0  0  0  0  0  0  0  0  0  0  0  0
   -1.4666    3.1722    0.6095 C   0  0  0  0  0  0  0  0  0  0  0  0
   -2.5439    3.3427    0.6539 H   0  0  0  0  0  0  0  0  0  0  0  0
   -0.9893    3.6529    1.4644 H   0  0  0  0  0  0  0  0  0  0  0  0
   -1.0808    3.6095   -0.3129 H   0  0  0  0  0  0  0  0  0  0  0  0
  5  6  2  0  0  0  0
  5  7  1  0  0  0  0
  2  3  1  0  0  0  0
  2  4  1  0  0  0  0
  2  5  1  0  0  0  0
  1  2  1  0  0  0  0
 29 30  2  0  0  0  0
 29 31  1  0  0  0  0
 26 27  1  0  0  0  0
 26 28  2  0  0  0  0
 24 25  1  0  0  0  0
 24 26  1  0  0  0  0
 22 23  1  0  0  0  0
 22 24  2  0  0  0  0
 20 21  1  0  0  0  0
 20 22  1  0  0  0  0
 19 20  2  0  0  0  0
 19 28  1  0  0  0  0
 17 18  1  0  0  0  0
 17 19  1  0  0  0  0
 15 16  1  0  0  0  0
 15 17  1  0  0  0  0
 14 15  2  0  0  0  0
 14 28  1  0  0  0  0
 11 12  1  0  0  0  0
 11 13  1  0  0  0  0
 11 14  1  0  0  0  0
  9 10  1  0  0  0  0
  9 11  1  0  0  0  0
  9 29  1  0  0  0  0
  7  8  1  0  0  0  0
  7  9  1  0  0  0  0
 33 34  1  0  0  0  0
 33 35  1  0  0  0  0
 33 36  1  0  0  0  0
 31 32  1  0  0  0  0
 31 33  1  0  0  0  0
M  END
$$$$
default_name
  -OEChem-02102213163D

 36 37  0     1  0  0  0  0  0999 V2000
   -4.0843   -4.0736    1.2944 H   0  0  0  0  0  0  0  0  0  0  0  0
   -4.0342   -3.2816    0.5484 C   0  0  0  0  0  0  0  0  0  0  0  0
   -4.8842   -2.6126    0.6694 H   0  0  0  0  0  0  0  0  0  0  0  0
   -4.0433   -3.7186   -0.4486 H   0  0  0  0  0  0  0  0  0  0  0  0
   -2.7532   -2.5046    0.7444 C   0  0  0  0  0  0  0  0  0  0  0  0
   -1.9803   -2.8096    1.6434 O   0  0  0  0  0  0  0  0  0  0  0  0
   -2.5332   -1.4966   -0.0966 N   0  0  0  0  0  0  0  0  0  0  0  0
   -3.2312   -1.2816   -0.7936 H   0  0  0  0  0  0  0  0  0  0  0  0
   -1.3593   -0.6196   -0.0536 C   0  0  1  0  0  0  0  0  0  0  0  0
   -0.8788   -0.7266    0.9196 H   0  0  0  0  0  0  0  0  0  0  0  0
   -0.3559   -1.0533   -1.1339 C   0  0  0  0  0  0  0  0  0  0  0  0
    0.5765   -1.3489   -0.6495 H   0  0  0  0  0  0  0  0  0  0  0  0
   -0.7546   -1.9307   -1.6460 H   0  0  0  0  0  0  0  0  0  0  0  0
   -0.0342   -0.0096   -2.1602 C   0  0  0  0  0  0  0  0  0  0  0  0
    1.1401    0.1099   -2.8192 C   0  0  0  0  0  0  0  0  0  0  0  0
    2.0016   -0.5310   -2.6665 H   0  0  0  0  0  0  0  0  0  0  0  0
    1.0620    1.1525   -3.7216 N   0  0  0  0  0  0  0  0  0  0  0  0
    1.8254    1.4279   -4.3220 H   0  0  0  0  0  0  0  0  0  0  0  0
   -0.1803    1.7500   -3.7006 C   0  0  0  0  0  0  0  0  0  0  0  0
   -0.7494    2.8032   -4.4307 C   0  0  0  0  0  0  0  0  0  0  0  0
   -0.1742    3.3202   -5.1847 H   0  0  0  0  0  0  0  0  0  0  0  0
   -2.0780    3.1777   -4.1664 C   0  0  0  0  0  0  0  0  0  0  0  0
   -2.5333    3.9884   -4.7190 H   0  0  0  0  0  0  0  0  0  0  0  0
   -2.8134    2.5003   -3.1767 C   0  0  0  0  0  0  0  0  0  0  0  0
   -3.8325    2.7972   -2.9708 H   0  0  0  0  0  0  0  0  0  0  0  0
   -2.2306    1.4444   -2.4475 C   0  0  0  0  0  0  0  0  0  0  0  0
   -2.8023    0.9413   -1.6807 H   0  0  0  0  0  0  0  0  0  0  0  0
   -0.9005    1.0403   -2.6935 C   0  0  0  0  0  0  0  0  0  0  0  0
   -1.7617    0.8549   -0.2106 C   0  0  0  0  0  0  0  0  0  0  0  0
   -2.5726    1.1871   -1.0741 O   0  0  0  0  0  0  0  0  0  0  0  0
   -1.1941    1.7377    0.6223 N   0  0  0  0  0  0  0  0  0  0  0  0
   -0.4976    1.3916    1.2669 H   0  0  0  0  0  0  0  0  0  0  0  0
   -1.4666    3.1722    0.6095 C   0  0  0  0  0  0  0  0  0  0  0  0
   -2.5439    3.3427    0.6539 H   0  0  0  0  0  0  0  0  0  0  0  0
   -0.9893    3.6529    1.4644 H   0  0  0  0  0  0  0  0  0  0  0  0
   -1.0808    3.6095   -0.3129 H   0  0  0  0  0  0  0  0  0  0  0  0
  5  6  2  0  0  0  0
  5  7  1  0  0  0  0
  2  3  1  0  0  0  0
  2  4  1  0  0  0  0
  2  5  1  0  0  0  0
  1  2  1  0  0  0  0
 29 30  2  0  0  0  0
 29 31  1  0  0  0  0
 26 27  1  0  0  0  0
 26 28  2  0  0  0  0
 24 25  1  0  0  0  0
 24 26  1  0  0  0  0
 22 23  1  0  0  0  0
 22 24  2  0  0  0  0
 20 21  1  0  0  0  0
 20 22  1  0  0  0  0
 19 20  2  0  0  0  0
 19 28  1  0  0  0  0
 17 18  1  0  0  0  0
 17 19  1  0  0  0  0
 15 16  1  0  0  0  0
 15 17  1  0  0  0  0
 14 15  2  0  0  0  0
 14 28  1  0  0  0  0
 11 12  1  0  0  0  0
 11 13  1  0  0  0  0
 11 14  1  0  0  0  0
  9 10  1  0  0  0  0
  9 11  1  0  0  0  0
  9 29  1  0  0  0  0
  7  8  1  0  0  0  0
  7  9  1  0  0  0  0
 33 34  1  0  0  0  0
 33 35  1  0  0  0  0
 33 36  1  0  0  0  0
 31 32  1  0  0  0  0
 31 33  1  0  0  0  0
M  END
$$$$
default_name
  -OEChem-02102213163D

 36 37  0     1  0  0  0  0  0999 V2000
   -4.0843   -4.0736    1.2944 H   0  0  0  0  0  0  0  0  0  0  0  0
   -4.0342   -3.2816    0.5484 C   0  0  0  0  0  0  0  0  0  0  0  0
   -4.8842   -2.6126    0.6694 H   0  0  0  0  0  0  0  0  0  0  0  0
   -4.0433   -3.7186   -0.4486 H   0  0  0  0  0  0  0  0  0  0  0  0
   -2.7532   -2.5046    0.7444 C   0  0  0  0  0  0  0  0  0  0  0  0
   -1.9803   -2.8096    1.6434 O   0  0  0  0  0  0  0  0  0  0  0  0
   -2.5332   -1.4966   -0.0966 N   0  0  0  0  0  0  0  0  0  0  0  0
   -3.2312   -1.2816   -0.7936 H   0  0  0  0  0  0  0  0  0  0  0  0
   -1.3593   -0.6196   -0.0536 C   0  0  1  0  0  0  0  0  0  0  0  0
   -0.8788   -0.7266    0.9196 H   0  0  0  0  0  0  0  0  0  0  0  0
   -0.3559   -1.0533   -1.1339 C   0  0  0  0  0  0  0  0  0  0  0  0
    0.5765   -1.3489   -0.6495 H   0  0  0  0  0  0  0  0  0  0  0  0
   -0.7546   -1.9307   -1.6460 H   0  0  0  0  0  0  0  0  0  0  0  0
   -0.0342   -0.0096   -2.1602 C   0  0  0  0  0  0  0  0  0  0  0  0
    1.0083   -0.0470   -3.0201 C   0  0  0  0  0  0  0  0  0  0  0  0
    1.7516   -0.8359   -3.0549 H   0  0  0  0  0  0  0  0  0  0  0  0
    0.9646    1.0555   -3.8507 N   0  0  0  0  0  0  0  0  0  0  0  0
    1.6483    1.2378   -4.5709 H   0  0  0  0  0  0  0  0  0  0  0  0
   -0.1247    1.8548   -3.5765 C   0  0  0  0  0  0  0  0  0  0  0  0
   -0.6112    3.0400   -4.1466 C   0  0  0  0  0  0  0  0  0  0  0  0
   -0.0925    3.5030   -4.9732 H   0  0  0  0  0  0  0  0  0  0  0  0
   -1.7820    3.6176   -3.6263 C   0  0  0  0  0  0  0  0  0  0  0  0
   -2.1715    4.5322   -4.0526 H   0  0  0  0  0  0  0  0  0  0  0  0
   -2.4436    3.0077   -2.5448 C   0  0  0  0  0  0  0  0  0  0  0  0
   -3.3393    3.4600   -2.1422 H   0  0  0  0  0  0  0  0  0  0  0  0
   -1.9444    1.8176   -1.9783 C   0  0  0  0  0  0  0  0  0  0  0  0
   -2.4549    1.3667   -1.1392 H   0  0  0  0  0  0  0  0  0  0  0  0
   -0.7744    1.2093   -2.4821 C   0  0  0  0  0  0  0  0  0  0  0  0
   -1.7617    0.8549   -0.2106 C   0  0  0  0  0  0  0  0  0  0  0  0
   -2.5726    1.1871   -1.0741 O   0  0  0  0  0  0  0  0  0  0  0  0
   -1.1941    1.7377    0.6223 N   0  0  0  0  0  0  0  0  0  0  0  0
   -0.4976    1.3916    1.2669 H   0  0  0  0  0  0  0  0  0  0  0  0
   -1.4666    3.1722    0.6095 C   0  0  0  0  0  0  0  0  0  0  0  0
   -2.5439    3.3427    0.6539 H   0  0  0  0  0  0  0  0  0  0  0  0
   -0.9893    3.6529    1.4644 H   0  0  0  0  0  0  0  0  0  0  0  0
   -1.0808    3.6095   -0.3129 H   0  0  0  0  0  0  0  0  0  0  0  0
  5  6  2  0  0  0  0
  5  7  1  0  0  0  0
  2  3  1  0  0  0  0
  2  4  1  0  0  0  0
  2  5  1  0  0  0  0
  1  2  1  0  0  0  0
 29 30  2  0  0  0  0
 29 31  1  0  0  0  0
 26 27  1  0  0  0  0
 26 28  2  0  0  0  0
 24 25  1  0  0  0  0
 24 26  1  0  0  0  0
 22 23  1  0  0  0  0
 22 24  2  0  0  0  0
 20 21  1  0  0  0  0
 20 22  1  0  0  0  0
 19 20  2  0  0  0  0
 19 28  1  0  0  0  0
 17 18  1  0  0  0  0
 17 19  1  0  0  0  0
 15 16  1  0  0  0  0
 15 17  1  0  0  0  0
 14 15  2  0  0  0  0
 14 28  1  0  0  0  0
 11 12  1  0  0  0  0
 11 13  1  0  0  0  0
 11 14  1  0  0  0  0
  9 10  1  0  0  0  0
  9 11  1  0  0  0  0
  9 29  1  0  0  0  0
  7  8  1  0  0  0  0
  7  9  1  0  0  0  0
 33 34  1  0  0  0  0
 33 35  1  0  0  0  0
 33 36  1  0  0  0  0
 31 32  1  0  0  0  0
 31 33  1  0  0  0  0
M  END
$$$$
default_name
  -OEChem-02102213163D

 36 37  0     1  0  0  0  0  0999 V2000
   -4.0843   -4.0736    1.2944 H   0  0  0  0  0  0  0  0  0  0  0  0
   -4.0342   -3.2816    0.5484 C   0  0  0  0  0  0  0  0  0  0  0  0
   -4.8842   -2.6126    0.6694 H   0  0  0  0  0  0  0  0  0  0  0  0
   -4.0433   -3.7186   -0.4486 H   0  0  0  0  0  0  0  0  0  0  0  0
   -2.7532   -2.5046    0.7444 C   0  0  0  0  0  0  0  0  0  0  0  0
   -1.9803   -2.8096    1.6434 O   0  0  0  0  0  0  0  0  0  0  0  0
   -2.5332   -1.4966   -0.0966 N   0  0  0  0  0  0  0  0  0  0  0  0
   -3.2312   -1.2816   -0.7936 H   0  0  0  0  0  0  0  0  0  0  0  0
   -1.3593   -0.6196   -0.0536 C   0  0  1  0  0  0  0  0  0  0  0  0
   -0.8788   -0.7266    0.9196 H   0  0  0  0  0  0  0  0  0  0  0  0
   -0.3559   -1.0533   -1.1339 C   0  0  0  0  0  0  0  0  0  0  0  0
    0.4634   -1.5937   -0.6563 H   0  0  0  0  0  0  0  0  0  0  0  0
   -0.8555   -1.7451   -1.8142 H   0  0  0  0  0  0  0  0  0  0  0  0
    0.2338    0.0636   -1.9406 C   0  0  0  0  0  0  0  0  0  0  0  0
    1.1333   -0.0777   -2.9400 C   0  0  0  0  0  0  0  0  0  0  0  0
    1.5512   -1.0242   -3.2649 H   0  0  0  0  0  0  0  0  0  0  0  0
    1.4161    1.1581   -3.4881 N   0  0  0  0  0  0  0  0  0  0  0  0
    2.0666    1.2947   -4.2479 H   0  0  0  0  0  0  0  0  0  0  0  0
    0.6956    2.1617   -2.8761 C   0  0  0  0  0  0  0  0  0  0  0  0
    0.6120    3.5457   -3.0857 C   0  0  0  0  0  0  0  0  0  0  0  0
    1.1983    4.0185   -3.8598 H   0  0  0  0  0  0  0  0  0  0  0  0
   -0.2439    4.3088   -2.2733 C   0  0  0  0  0  0  0  0  0  0  0  0
   -0.3207    5.3777   -2.4197 H   0  0  0  0  0  0  0  0  0  0  0  0
   -0.9966    3.6810   -1.2639 C   0  0  0  0  0  0  0  0  0  0  0  0
   -1.6475    4.2731   -0.6357 H   0  0  0  0  0  0  0  0  0  0  0  0
   -0.9030    2.2895   -1.0609 C   0  0  0  0  0  0  0  0  0  0  0  0
   -1.4766    1.8218   -0.2733 H   0  0  0  0  0  0  0  0  0  0  0  0
   -0.0573    1.4942   -1.8641 C   0  0  0  0  0  0  0  0  0  0  0  0
   -1.7617    0.8549   -0.2106 C   0  0  0  0  0  0  0  0  0  0  0  0
   -2.5726    1.1871   -1.0741 O   0  0  0  0  0  0  0  0  0  0  0  0
   -1.1941    1.7377    0.6223 N   0  0  0  0  0  0  0  0  0  0  0  0
   -0.4976    1.3916    1.2669 H   0  0  0  0  0  0  0  0  0  0  0  0
   -1.4666    3.1722    0.6095 C   0  0  0  0  0  0  0  0  0  0  0  0
   -2.5439    3.3427    0.6539 H   0  0  0  0  0  0  0  0  0  0  0  0
   -0.9893    3.6529    1.4644 H   0  0  0  0  0  0  0  0  0  0  0  0
   -1.0808    3.6095   -0.3129 H   0  0  0  0  0  0  0  0  0  0  0  0
  5  6  2  0  0  0  0
  5  7  1  0  0  0  0
  2  3  1  0  0  0  0
  2  4  1  0  0  0  0
  2  5  1  0  0  0  0
  1  2  1  0  0  0  0
 29 30  2  0  0  0  0
 29 31  1  0  0  0  0
 26 27  1  0  0  0  0
 26 28  2  0  0  0  0
 24 25  1  0  0  0  0
 24 26  1  0  0  0  0
 22 23  1  0  0  0  0
 22 24  2  0  0  0  0
 20 21  1  0  0  0  0
 20 22  1  0  0  0  0
 19 20  2  0  0  0  0
 19 28  1  0  0  0  0
 17 18  1  0  0  0  0
 17 19  1  0  0  0  0
 15 16  1  0  0  0  0
 15 17  1  0  0  0  0
 14 15  2  0  0  0  0
 14 28  1  0  0  0  0
 11 12  1  0  0  0  0
 11 13  1  0  0  0  0
 11 14  1  0  0  0  0
  9 10  1  0  0  0  0
  9 11  1  0  0  0  0
  9 29  1  0  0  0  0
  7  8  1  0  0  0  0
  7  9  1  0  0  0  0
 33 34  1  0  0  0  0
 33 35  1  0  0  0  0
 33 36  1  0  0  0  0
 31 32  1  0  0  0  0
 31 33  1  0  0  0  0
M  END
$$$$
default_name
  -OEChem-02102213163D

 36 37  0     1  0  0  0  0  0999 V2000
   -4.0843   -4.0736    1.2944 H   0  0  0  0  0  0  0  0  0  0  0  0
   -4.0342   -3.2816    0.5484 C   0  0  0  0  0  0  0  0  0  0  0  0
   -4.8842   -2.6126    0.6694 H   0  0  0  0  0  0  0  0  0  0  0  0
   -4.0433   -3.7186   -0.4486 H   0  0  0  0  0  0  0  0  0  0  0  0
   -2.7532   -2.5046    0.7444 C   0  0  0  0  0  0  0  0  0  0  0  0
   -1.9803   -2.8096    1.6434 O   0  0  0  0  0  0  0  0  0  0  0  0
   -2.5332   -1.4966   -0.0966 N   0  0  0  0  0  0  0  0  0  0  0  0
   -3.2312   -1.2816   -0.7936 H   0  0  0  0  0  0  0  0  0  0  0  0
   -1.3593   -0.6196   -0.0536 C   0  0  1  0  0  0  0  0  0  0  0  0
   -0.8788   -0.7266    0.9196 H   0  0  0  0  0  0  0  0  0  0  0  0
   -0.3559   -1.0533   -1.1339 C   0  0  0  0  0  0  0  0  0  0  0  0
    0.4634   -1.5937   -0.6563 H   0  0  0  0  0  0  0  0  0  0  0  0
   -0.8555   -1.7451   -1.8142 H   0  0  0  0  0  0  0  0  0  0  0  0
    0.2338    0.0636   -1.9406 C   0  0  0  0  0  0  0  0  0  0  0  0
    0.9007   -0.0764   -3.1082 C   0  0  0  0  0  0  0  0  0  0  0  0
    1.1049   -1.0251   -3.5924 H   0  0  0  0  0  0  0  0  0  0  0  0
    1.2581    1.1674   -3.5907 N   0  0  0  0  0  0  0  0  0  0  0  0
    1.7692    1.3056   -4.4502 H   0  0  0  0  0  0  0  0  0  0  0  0
    0.8219    2.1782   -2.7609 C   0  0  0  0  0  0  0  0  0  0  0  0
    0.9084    3.5763   -2.8266 C   0  0  0  0  0  0  0  0  0  0  0  0
    1.4046    4.0556   -3.6577 H   0  0  0  0  0  0  0  0  0  0  0  0
    0.3419    4.3447   -1.7953 C   0  0  0  0  0  0  0  0  0  0  0  0
    0.3998    5.4243   -1.8286 H   0  0  0  0  0  0  0  0  0  0  0  0
   -0.2954    3.7071   -0.7152 C   0  0  0  0  0  0  0  0  0  0  0  0
   -0.7225    4.3019    0.0803 H   0  0  0  0  0  0  0  0  0  0  0  0
   -0.3746    2.3012   -0.6585 C   0  0  0  0  0  0  0  0  0  0  0  0
   -0.8553    1.8237    0.1836 H   0  0  0  0  0  0  0  0  0  0  0  0
    0.1789    1.5013   -1.6816 C   0  0  0  0  0  0  0  0  0  0  0  0
   -1.7617    0.8549   -0.2106 C   0  0  0  0  0  0  0  0  0  0  0  0
   -2.5726    1.1871   -1.0741 O   0  0  0  0  0  0  0  0  0  0  0  0
   -1.1941    1.7377    0.6223 N   0  0  0  0  0  0  0  0  0  0  0  0
   -0.4976    1.3916    1.2669 H   0  0  0  0  0  0  0  0  0  0  0  0
   -1.4666    3.1722    0.6095 C   0  0  0  0  0  0  0  0  0  0  0  0
   -2.5439    3.3427    0.6539 H   0  0  0  0  0  0  0  0  0  0  0  0
   -0.9893    3.6529    1.4644 H   0  0  0  0  0  0  0  0  0  0  0  0
   -1.0808    3.6095   -0.3129 H   0  0  0  0  0  0  0  0  0  0  0  0
  5  6  2  0  0  0  0
  5  7  1  0  0  0  0
  2  3  1  0  0  0  0
  2  4  1  0  0  0  0
  2  5  1  0  0  0  0
  1  2  1  0  0  0  0
 29 30  2  0  0  0  0
 29 31  1  0  0  0  0
 26 27  1  0  0  0  0
 26 28  2  0  0  0  0
 24 25  1  0  0  0  0
 24 26  1  0  0  0  0
 22 23  1  0  0  0  0
 22 24  2  0  0  0  0
 20 21  1  0  0  0  0
 20 22  1  0  0  0  0
 19 20  2  0  0  0  0
 19 28  1  0  0  0  0
 17 18  1  0  0  0  0
 17 19  1  0  0  0  0
 15 16  1  0  0  0  0
 15 17  1  0  0  0  0
 14 15  2  0  0  0  0
 14 28  1  0  0  0  0
 11 12  1  0  0  0  0
 11 13  1  0  0  0  0
 11 14  1  0  0  0  0
  9 10  1  0  0  0  0
  9 11  1  0  0  0  0
  9 29  1  0  0  0  0
  7  8  1  0  0  0  0
  7  9  1  0  0  0  0
 33 34  1  0  0  0  0
 33 35  1  0  0  0  0
 33 36  1  0  0  0  0
 31 32  1  0  0  0  0
 31 33  1  0  0  0  0
M  END
$$$$
default_name
  -OEChem-02102213163D

 36 37  0     1  0  0  0  0  0999 V2000
   -4.0843   -4.0736    1.2944 H   0  0  0  0  0  0  0  0  0  0  0  0
   -4.0342   -3.2816    0.5484 C   0  0  0  0  0  0  0  0  0  0  0  0
   -4.8842   -2.6126    0.6694 H   0  0  0  0  0  0  0  0  0  0  0  0
   -4.0433   -3.7186   -0.4486 H   0  0  0  0  0  0  0  0  0  0  0  0
   -2.7532   -2.5046    0.7444 C   0  0  0  0  0  0  0  0  0  0  0  0
   -1.9803   -2.8096    1.6434 O   0  0  0  0  0  0  0  0  0  0  0  0
   -2.5332   -1.4966   -0.0966 N   0  0  0  0  0  0  0  0  0  0  0  0
   -3.2312   -1.2816   -0.7936 H   0  0  0  0  0  0  0  0  0  0  0  0
   -1.3593   -0.6196   -0.0536 C   0  0  1  0  0  0  0  0  0  0  0  0
   -0.8788   -0.7266    0.9196 H   0  0  0  0  0  0  0  0  0  0  0  0
   -0.3559   -1.0533   -1.1339 C   0  0  0  0  0  0  0  0  0  0  0  0
    0.4634   -1.5937   -0.6563 H   0  0  0  0  0  0  0  0  0  0  0  0
   -0.8555   -1.7451   -1.8142 H   0  0  0  0  0  0  0  0  0  0  0  0
    0.2338    0.0636   -1.9406 C   0  0  0  0  0  0  0  0  0  0  0  0
    0.6438   -0.0257   -3.2257 C   0  0  0  0  0  0  0  0  0  0  0  0
    0.6106   -0.9304   -3.8227 H   0  0  0  0  0  0  0  0  0  0  0  0
    1.0871    1.2088   -3.6584 N   0  0  0  0  0  0  0  0  0  0  0  0
    1.4445    1.3781   -4.5872 H   0  0  0  0  0  0  0  0  0  0  0  0
    0.9684    2.1649   -2.6722 C   0  0  0  0  0  0  0  0  0  0  0  0
    1.2489    3.5382   -2.6305 C   0  0  0  0  0  0  0  0  0  0  0  0
    1.6481    4.0420   -3.4984 H   0  0  0  0  0  0  0  0  0  0  0  0
    1.0050    4.2491   -1.4430 C   0  0  0  0  0  0  0  0  0  0  0  0
    1.2162    5.3087   -1.3919 H   0  0  0  0  0  0  0  0  0  0  0  0
    0.4914    3.5788   -0.3177 C   0  0  0  0  0  0  0  0  0  0  0  0
    0.3130    4.1280    0.5965 H   0  0  0  0  0  0  0  0  0  0  0  0
    0.2150    2.1978   -0.3704 C   0  0  0  0  0  0  0  0  0  0  0  0
   -0.1667    1.6926    0.5054 H   0  0  0  0  0  0  0  0  0  0  0  0
    0.4432    1.4567   -1.5501 C   0  0  0  0  0  0  0  0  0  0  0  0
   -1.7617    0.8549   -0.2106 C   0  0  0  0  0  0  0  0  0  0  0  0
   -2.5726    1.1871   -1.0741 O   0  0  0  0  0  0  0  0  0  0  0  0
   -1.1941    1.7377    0.6223 N   0  0  0  0  0  0  0  0  0  0  0  0
   -0.4976    1.3916    1.2669 H   0  0  0  0  0  0  0  0  0  0  0  0
   -1.4666    3.1722    0.6095 C   0  0  0  0  0  0  0  0  0  0  0  0
   -2.5439    3.3427    0.6539 H   0  0  0  0  0  0  0  0  0  0  0  0
   -0.9893    3.6529    1.4644 H   0  0  0  0  0  0  0  0  0  0  0  0
   -1.0808    3.6095   -0.3129 H   0  0  0  0  0  0  0  0  0  0  0  0
  5  6  2  0  0  0  0
  5  7  1  0  0  0  0
  2  3  1  0  0  0  0
  2  4  1  0  0  0  0
  2  5  1  0  0  0  0
  1  2  1  0  0  0  0
 29 30  2  0  0  0  0
 29 31  1  0  0  0  0
 26 27  1  0  0  0  0
 26 28  2  0  0  0  0
 24 25  1  0  0  0  0
 24 26  1  0  0  0  0
 22 23  1  0  0  0  0
 22 24  2  0  0  0  0
 20 21  1  0  0  0  0
 20 22  1  0  0  0  0
 19 20  2  0  0  0  0
 19 28  1  0  0  0  0
 17 18  1  0  0  0  0
 17 19  1  0  0  0  0
 15 16  1  0  0  0  0
 15 17  1  0  0  0  0
 14 15  2  0  0  0  0
 14 28  1  0  0  0  0
 11 12  1  0  0  0  0
 11 13  1  0  0  0  0
 11 14  1  0  0  0  0
  9 10  1  0  0  0  0
  9 11  1  0  0  0  0
  9 29  1  0  0  0  0
  7  8  1  0  0  0  0
  7  9  1  0  0  0  0
 33 34  1  0  0  0  0
 33 35  1  0  0  0  0
 33 36  1  0  0  0  0
 31 32  1  0  0  0  0
 31 33  1  0  0  0  0
M  END
$$$$
default_name
  -OEChem-02102213163D

 36 37  0     1  0  0  0  0  0999 V2000
   -4.0843   -4.0736    1.2944 H   0  0  0  0  0  0  0  0  0  0  0  0
   -4.0342   -3.2816    0.5484 C   0  0  0  0  0  0  0  0  0  0  0  0
   -4.8842   -2.6126    0.6694 H   0  0  0  0  0  0  0  0  0  0  0  0
   -4.0433   -3.7186   -0.4486 H   0  0  0  0  0  0  0  0  0  0  0  0
   -2.7532   -2.5046    0.7444 C   0  0  0  0  0  0  0  0  0  0  0  0
   -1.9803   -2.8096    1.6434 O   0  0  0  0  0  0  0  0  0  0  0  0
   -2.5332   -1.4966   -0.0966 N   0  0  0  0  0  0  0  0  0  0  0  0
   -3.2312   -1.2816   -0.7936 H   0  0  0  0  0  0  0  0  0  0  0  0
   -1.3593   -0.6196   -0.0536 C   0  0  1  0  0  0  0  0  0  0  0  0
   -0.8788   -0.7266    0.9196 H   0  0  0  0  0  0  0  0  0  0  0  0
   -0.3559   -1.0533   -1.1339 C   0  0  0  0  0  0  0  0  0  0  0  0
    0.4634   -1.5937   -0.6563 H   0  0  0  0  0  0  0  0  0  0  0  0
   -0.8555   -1.7451   -1.8142 H   0  0  0  0  0  0  0  0  0  0  0  0
    0.2338    0.0636   -1.9406 C   0  0  0  0  0  0  0  0  0  0  0  0
    0.3800    0.0711   -3.2845 C   0  0  0  0  0  0  0  0  0  0  0  0
    0.1019   -0.7467   -3.9402 H   0  0  0  0  0  0  0  0  0  0  0  0
    0.9145    1.2795   -3.6866 N   0  0  0  0  0  0  0  0  0  0  0  0
    1.1145    1.5073   -4.6496 H   0  0  0  0  0  0  0  0  0  0  0  0
    1.1251    2.1226   -2.6163 C   0  0  0  0  0  0  0  0  0  0  0  0
    1.6104    3.4340   -2.5105 C   0  0  0  0  0  0  0  0  0  0  0  0
    1.9122    3.9788   -3.3930 H   0  0  0  0  0  0  0  0  0  0  0  0
    1.7001    4.0285   -1.2403 C   0  0  0  0  0  0  0  0  0  0  0  0
    2.0729    5.0388   -1.1393 H   0  0  0  0  0  0  0  0  0  0  0  0
    1.3102    3.3048   -0.0986 C   0  0  0  0  0  0  0  0  0  0  0  0
    1.3887    3.7631    0.8776 H   0  0  0  0  0  0  0  0  0  0  0  0
    0.8258    1.9866   -0.2165 C   0  0  0  0  0  0  0  0  0  0  0  0
    0.5422    1.4371    0.6699 H   0  0  0  0  0  0  0  0  0  0  0  0
    0.7177    1.3634   -1.4786 C   0  0  0  0  0  0  0  0  0  0  0  0
   -1.7617    0.8549   -0.2106 C   0  0  0  0  0  0  0  0  0  0  0  0
   -2.5726    1.1871   -1.0741 O   0  0  0  0  0  0  0  0  0  0  0  0
   -1.1941    1.7377    0.6223 N   0  0  0  0  0  0  0  0  0  0  0  0
   -0.4976    1.3916    1.2669 H   0  0  0  0  0  0  0  0  0  0  0  0
   -1.4666    3.1722    0.6095 C   0  0  0  0  0  0  0  0  0  0  0  0
   -2.5439    3.3427    0.6539 H   0  0  0  0  0  0  0  0  0  0  0  0
   -0.9893    3.6529    1.4644 H   0  0  0  0  0  0  0  0  0  0  0  0
   -1.0808    3.6095   -0.3129 H   0  0  0  0  0  0  0  0  0  0  0  0
  5  6  2  0  0  0  0
  5  7  1  0  0  0  0
  2  3  1  0  0  0  0
  2  4  1  0  0  0  0
  2  5  1  0  0  0  0
  1  2  1  0  0  0  0
 29 30  2  0  0  0  0
 29 31  1  0  0  0  0
 26 27  1  0  0  0  0
 26 28  2  0  0  0  0
 24 25  1  0  0  0  0
 24 26  1  0  0  0  0
 22 23  1  0  0  0  0
 22 24  2  0  0  0  0
 20 21  1  0  0  0  0
 20 22  1  0  0  0  0
 19 20  2  0  0  0  0
 19 28  1  0  0  0  0
 17 18  1  0  0  0  0
 17 19  1  0  0  0  0
 15 16  1  0  0  0  0
 15 17  1  0  0  0  0
 14 15  2  0  0  0  0
 14 28  1  0  0  0  0
 11 12  1  0  0  0  0
 11 13  1  0  0  0  0
 11 14  1  0  0  0  0
  9 10  1  0  0  0  0
  9 11  1  0  0  0  0
  9 29  1  0  0  0  0
  7  8  1  0  0  0  0
  7  9  1  0  0  0  0
 33 34  1  0  0  0  0
 33 35  1  0  0  0  0
 33 36  1  0  0  0  0
 31 32  1  0  0  0  0
 31 33  1  0  0  0  0
M  END
$$$$
default_name
  -OEChem-02102213163D

 36 37  0     1  0  0  0  0  0999 V2000
   -4.0843   -4.0736    1.2944 H   0  0  0  0  0  0  0  0  0  0  0  0
   -4.0342   -3.2816    0.5484 C   0  0  0  0  0  0  0  0  0  0  0  0
   -4.8842   -2.6126    0.6694 H   0  0  0  0  0  0  0  0  0  0  0  0
   -4.0433   -3.7186   -0.4486 H   0  0  0  0  0  0  0  0  0  0  0  0
   -2.7532   -2.5046    0.7444 C   0  0  0  0  0  0  0  0  0  0  0  0
   -1.9803   -2.8096    1.6434 O   0  0  0  0  0  0  0  0  0  0  0  0
   -2.5332   -1.4966   -0.0966 N   0  0  0  0  0  0  0  0  0  0  0  0
   -3.2312   -1.2816   -0.7936 H   0  0  0  0  0  0  0  0  0  0  0  0
   -1.3593   -0.6196   -0.0536 C   0  0  1  0  0  0  0  0  0  0  0  0
   -0.8788   -0.7266    0.9196 H   0  0  0  0  0  0  0  0  0  0  0  0
   -0.3559   -1.0533   -1.1339 C   0  0  0  0  0  0  0  0  0  0  0  0
    0.4634   -1.5937   -0.6563 H   0  0  0  0  0  0  0  0  0  0  0  0
   -0.8555   -1.7451   -1.8142 H   0  0  0  0  0  0  0  0  0  0  0  0
    0.2338    0.0636   -1.9406 C   0  0  0  0  0  0  0  0  0  0  0  0
    0.1274    0.2073   -3.2806 C   0  0  0  0  0  0  0  0  0  0  0  0
   -0.3866   -0.4864   -3.9369 H   0  0  0  0  0  0  0  0  0  0  0  0
    0.7523    1.3747   -3.6733 N   0  0  0  0  0  0  0  0  0  0  0  0
    0.8017    1.6845   -4.6329 H   0  0  0  0  0  0  0  0  0  0  0  0
    1.2814    2.0542   -2.5967 C   0  0  0  0  0  0  0  0  0  0  0  0
    1.9681    3.2707   -2.4750 C   0  0  0  0  0  0  0  0  0  0  0  0
    2.1787    3.8702   -3.3485 H   0  0  0  0  0  0  0  0  0  0  0  0
    2.3799    3.6979   -1.2011 C   0  0  0  0  0  0  0  0  0  0  0  0
    2.9116    4.6330   -1.0880 H   0  0  0  0  0  0  0  0  0  0  0  0
    2.1051    2.9037   -0.0727 C   0  0  0  0  0  0  0  0  0  0  0  0
    2.4311    3.2322    0.9045 H   0  0  0  0  0  0  0  0  0  0  0  0
    1.4160    1.6818   -0.2071 C   0  0  0  0  0  0  0  0  0  0  0  0
    1.2231    1.0749    0.6661 H   0  0  0  0  0  0  0  0  0  0  0  0
    0.9836    1.2278   -1.4720 C   0  0  0  0  0  0  0  0  0  0  0  0
   -1.7617    0.8549   -0.2106 C   0  0  0  0  0  0  0  0  0  0  0  0
   -2.5726    1.1871   -1.0741 O   0  0  0  0  0  0  0  0  0  0  0  0
   -1.1941    1.7377    0.6223 N   0  0  0  0  0  0  0  0  0  0  0  0
   -0.4976    1.3916    1.2669 H   0  0  0  0  0  0  0  0  0  0  0  0
   -1.4666    3.1722    0.6095 C   0  0  0  0  0  0  0  0  0  0  0  0
   -2.5439    3.3427    0.6539 H   0  0  0  0  0  0  0  0  0  0  0  0
   -0.9893    3.6529    1.4644 H   0  0  0  0  0  0  0  0  0  0  0  0
   -1.0808    3.6095   -0.3129 H   0  0  0  0  0  0  0  0  0  0  0  0
  5  6  2  0  0  0  0
  5  7  1  0  0  0  0
  2  3  1  0  0  0  0
  2  4  1  0  0  0  0
  2  5  1  0  0  0  0
  1  2  1  0  0  0  0
 29 30  2  0  0  0  0
 29 31  1  0  0  0  0
 26 27  1  0  0  0  0
 26 28  2  0  0  0  0
 24 25  1  0  0  0  0
 24 26  1  0  0  0  0
 22 23  1  0  0  0  0
 22 24  2  0  0  0  0
 20 21  1  0  0  0  0
 20 22  1  0  0  0  0
 19 20  2  0  0  0  0
 19 28  1  0  0  0  0
 17 18  1  0  0  0  0
 17 19  1  0  0  0  0
 15 16  1  0  0  0  0
 15 17  1  0  0  0  0
 14 15  2  0  0  0  0
 14 28  1  0  0  0  0
 11 12  1  0  0  0  0
 11 13  1  0  0  0  0
 11 14  1  0  0  0  0
  9 10  1  0  0  0  0
  9 11  1  0  0  0  0
  9 29  1  0  0  0  0
  7  8  1  0  0  0  0
  7  9  1  0  0  0  0
 33 34  1  0  0  0  0
 33 35  1  0  0  0  0
 33 36  1  0  0  0  0
 31 32  1  0  0  0  0
 31 33  1  0  0  0  0
M  END
$$$$
default_name
  -OEChem-02102213163D

 36 37  0     1  0  0  0  0  0999 V2000
   -4.0843   -4.0736    1.2944 H   0  0  0  0  0  0  0  0  0  0  0  0
   -4.0342   -3.2816    0.5484 C   0  0  0  0  0  0  0  0  0  0  0  0
   -4.8842   -2.6126    0.6694 H   0  0  0  0  0  0  0  0  0  0  0  0
   -4.0433   -3.7186   -0.4486 H   0  0  0  0  0  0  0  0  0  0  0  0
   -2.7532   -2.5046    0.7444 C   0  0  0  0  0  0  0  0  0  0  0  0
   -1.9803   -2.8096    1.6434 O   0  0  0  0  0  0  0  0  0  0  0  0
   -2.5332   -1.4966   -0.0966 N   0  0  0  0  0  0  0  0  0  0  0  0
   -3.2312   -1.2816   -0.7936 H   0  0  0  0  0  0  0  0  0  0  0  0
   -1.3593   -0.6196   -0.0536 C   0  0  1  0  0  0  0  0  0  0  0  0
   -0.8788   -0.7266    0.9196 H   0  0  0  0  0  0  0  0  0  0  0  0
   -0.3559   -1.0533   -1.1339 C   0  0  0  0  0  0  0  0  0  0  0  0
    0.4634   -1.5937   -0.6563 H   0  0  0  0  0  0  0  0  0  0  0  0
   -0.8555   -1.7451   -1.8142 H   0  0  0  0  0  0  0  0  0  0  0  0
    0.2338    0.0636   -1.9406 C   0  0  0  0  0  0  0  0  0  0  0  0
   -0.0969    0.3737   -3.2142 C   0  0  0  0  0  0  0  0  0  0  0  0
   -0.8215   -0.1672   -3.8129 H   0  0  0  0  0  0  0  0  0  0  0  0
    0.6114    1.4880   -3.6195 N   0  0  0  0  0  0  0  0  0  0  0  0
    0.5274    1.8975   -4.5385 H   0  0  0  0  0  0  0  0  0  0  0  0
    1.4267    1.9643   -2.6150 C   0  0  0  0  0  0  0  0  0  0  0  0
    2.2978    3.0596   -2.5264 C   0  0  0  0  0  0  0  0  0  0  0  0
    2.4297    3.7236   -3.3680 H   0  0  0  0  0  0  0  0  0  0  0  0
    2.9980    3.2799   -1.3280 C   0  0  0  0  0  0  0  0  0  0  0  0
    3.6750    4.1190   -1.2416 H   0  0  0  0  0  0  0  0  0  0  0  0
    2.8221    2.4030   -0.2420 C   0  0  0  0  0  0  0  0  0  0  0  0
    3.3691    2.5714    0.6753 H   0  0  0  0  0  0  0  0  0  0  0  0
    1.9454    1.3041   -0.3430 C   0  0  0  0  0  0  0  0  0  0  0  0
    1.8296    0.6306    0.4943 H   0  0  0  0  0  0  0  0  0  0  0  0
    1.2229    1.0591   -1.5308 C   0  0  0  0  0  0  0  0  0  0  0  0
   -1.7617    0.8549   -0.2106 C   0  0  0  0  0  0  0  0  0  0  0  0
   -2.5726    1.1871   -1.0741 O   0  0  0  0  0  0  0  0  0  0  0  0
   -1.1941    1.7377    0.6223 N   0  0  0  0  0  0  0  0  0  0  0  0
   -0.4976    1.3916    1.2669 H   0  0  0  0  0  0  0  0  0  0  0  0
   -1.4666    3.1722    0.6095 C   0  0  0  0  0  0  0  0  0  0  0  0
   -2.5439    3.3427    0.6539 H   0  0  0  0  0  0  0  0  0  0  0  0
   -0.9893    3.6529    1.4644 H   0  0  0  0  0  0  0  0  0  0  0  0
   -1.0808    3.6095   -0.3129 H   0  0  0  0  0  0  0  0  0  0  0  0
  5  6  2  0  0  0  0
  5  7  1  0  0  0  0
  2  3  1  0  0  0  0
  2  4  1  0  0  0  0
  2  5  1  0  0  0  0
  1  2  1  0  0  0  0
 29 30  2  0  0  0  0
 29 31  1  0  0  0  0
 26 27  1  0  0  0  0
 26 28  2  0  0  0  0
 24 25  1  0  0  0  0
 24 26  1  0  0  0  0
 22 23  1  0  0  0  0
 22 24  2  0  0  0  0
 20 21  1  0  0  0  0
 20 22  1  0  0  0  0
 19 20  2  0  0  0  0
 19 28  1  0  0  0  0
 17 18  1  0  0  0  0
 17 19  1  0  0  0  0
 15 16  1  0  0  0  0
 15 17  1  0  0  0  0
 14 15  2  0  0  0  0
 14 28  1  0  0  0  0
 11 12  1  0  0  0  0
 11 13  1  0  0  0  0
 11 14  1  0  0  0  0
  9 10  1  0  0  0  0
  9 11  1  0  0  0  0
  9 29  1  0  0  0  0
  7  8  1  0  0  0  0
  7  9  1  0  0  0  0
 33 34  1  0  0  0  0
 33 35  1  0  0  0  0
 33 36  1  0  0  0  0
 31 32  1  0  0  0  0
 31 33  1  0  0  0  0
M  END
$$$$
default_name
  -OEChem-02102213163D

 36 37  0     1  0  0  0  0  0999 V2000
   -4.0843   -4.0736    1.2944 H   0  0  0  0  0  0  0  0  0  0  0  0
   -4.0342   -3.2816    0.5484 C   0  0  0  0  0  0  0  0  0  0  0  0
   -4.8842   -2.6126    0.6694 H   0  0  0  0  0  0  0  0  0  0  0  0
   -4.0433   -3.7186   -0.4486 H   0  0  0  0  0  0  0  0  0  0  0  0
   -2.7532   -2.5046    0.7444 C   0  0  0  0  0  0  0  0  0  0  0  0
   -1.9803   -2.8096    1.6434 O   0  0  0  0  0  0  0  0  0  0  0  0
   -2.5332   -1.4966   -0.0966 N   0  0  0  0  0  0  0  0  0  0  0  0
   -3.2312   -1.2816   -0.7936 H   0  0  0  0  0  0  0  0  0  0  0  0
   -1.3593   -0.6196   -0.0536 C   0  0  1  0  0  0  0  0  0  0  0  0
   -0.8788   -0.7266    0.9196 H   0  0  0  0  0  0  0  0  0  0  0  0
   -0.3559   -1.0533   -1.1339 C   0  0  0  0  0  0  0  0  0  0  0  0
    0.4634   -1.5937   -0.6563 H   0  0  0  0  0  0  0  0  0  0  0  0
   -0.8555   -1.7451   -1.8142 H   0  0  0  0  0  0  0  0  0  0  0  0
    0.2338    0.0636   -1.9406 C   0  0  0  0  0  0  0  0  0  0  0  0
   -0.2775    0.5589   -3.0899 C   0  0  0  0  0  0  0  0  0  0  0  0
   -1.1732    0.1890   -3.5768 H   0  0  0  0  0  0  0  0  0  0  0  0
    0.5014    1.6115   -3.5289 N   0  0  0  0  0  0  0  0  0  0  0  0
    0.3104    2.1318   -4.3727 H   0  0  0  0  0  0  0  0  0  0  0  0
    1.5509    1.8592   -2.6697 C   0  0  0  0  0  0  0  0  0  0  0  0
    2.5769    2.8150   -2.6610 C   0  0  0  0  0  0  0  0  0  0  0  0
    2.6479    3.5491   -3.4501 H   0  0  0  0  0  0  0  0  0  0  0  0
    3.5124    2.8030   -1.6123 C   0  0  0  0  0  0  0  0  0  0  0  0
    4.3112    3.5318   -1.5895 H   0  0  0  0  0  0  0  0  0  0  0  0
    3.4122    1.8366   -0.5948 C   0  0  0  0  0  0  0  0  0  0  0  0
    4.1390    1.8258    0.2057 H   0  0  0  0  0  0  0  0  0  0  0  0
    2.3779    0.8795   -0.6148 C   0  0  0  0  0  0  0  0  0  0  0  0
    2.3204    0.1343    0.1660 H   0  0  0  0  0  0  0  0  0  0  0  0
    1.4191    0.8688   -1.6508 C   0  0  0  0  0  0  0  0  0  0  0  0
   -1.7617    0.8549   -0.2106 C   0  0  0  0  0  0  0  0  0  0  0  0
   -2.5726    1.1871   -1.0741 O   0  0  0  0  0  0  0  0  0  0  0  0
   -1.1941    1.7377    0.6223 N   0  0  0  0  0  0  0  0  0  0  0  0
   -0.4976    1.3916    1.2669 H   0  0  0  0  0  0  0  0  0  0  0  0
   -1.4666    3.1722    0.6095 C   0  0  0  0  0  0  0  0  0  0  0  0
   -2.5439    3.3427    0.6539 H   0  0  0  0  0  0  0  0  0  0  0  0
   -0.9893    3.6529    1.4644 H   0  0  0  0  0  0  0  0  0  0  0  0
   -1.0808    3.6095   -0.3129 H   0  0  0  0  0  0  0  0  0  0  0  0
  5  6  2  0  0  0  0
  5  7  1  0  0  0  0
  2  3  1  0  0  0  0
  2  4  1  0  0  0  0
  2  5  1  0  0  0  0
  1  2  1  0  0  0  0
 29 30  2  0  0  0  0
 29 31  1  0  0  0  0
 26 27  1  0  0  0  0
 26 28  2  0  0  0  0
 24 25  1  0  0  0  0
 24 26  1  0  0  0  0
 22 23  1  0  0  0  0
 22 24  2  0  0  0  0
 20 21  1  0  0  0  0
 20 22  1  0  0  0  0
 19 20  2  0  0  0  0
 19 28  1  0  0  0  0
 17 18  1  0  0  0  0
 17 19  1  0  0  0  0
 15 16  1  0  0  0  0
 15 17  1  0  0  0  0
 14 15  2  0  0  0  0
 14 28  1  0  0  0  0
 11 12  1  0  0  0  0
 11 13  1  0  0  0  0
 11 14  1  0  0  0  0
  9 10  1  0  0  0  0
  9 11  1  0  0  0  0
  9 29  1  0  0  0  0
  7  8  1  0  0  0  0
  7  9  1  0  0  0  0
 33 34  1  0  0  0  0
 33 35  1  0  0  0  0
 33 36  1  0  0  0  0
 31 32  1  0  0  0  0
 31 33  1  0  0  0  0
M  END
$$$$
default_name
  -OEChem-02102213163D

 36 37  0     1  0  0  0  0  0999 V2000
   -4.0843   -4.0736    1.2944 H   0  0  0  0  0  0  0  0  0  0  0  0
   -4.0342   -3.2816    0.5484 C   0  0  0  0  0  0  0  0  0  0  0  0
   -4.8842   -2.6126    0.6694 H   0  0  0  0  0  0  0  0  0  0  0  0
   -4.0433   -3.7186   -0.4486 H   0  0  0  0  0  0  0  0  0  0  0  0
   -2.7532   -2.5046    0.7444 C   0  0  0  0  0  0  0  0  0  0  0  0
   -1.9803   -2.8096    1.6434 O   0  0  0  0  0  0  0  0  0  0  0  0
   -2.5332   -1.4966   -0.0966 N   0  0  0  0  0  0  0  0  0  0  0  0
   -3.2312   -1.2816   -0.7936 H   0  0  0  0  0  0  0  0  0  0  0  0
   -1.3593   -0.6196   -0.0536 C   0  0  1  0  0  0  0  0  0  0  0  0
   -0.8788   -0.7266    0.9196 H   0  0  0  0  0  0  0  0  0  0  0  0
   -0.3559   -1.0533   -1.1339 C   0  0  0  0  0  0  0  0  0  0  0  0
    0.4634   -1.5937   -0.6563 H   0  0  0  0  0  0  0  0  0  0  0  0
   -0.8555   -1.7451   -1.8142 H   0  0  0  0  0  0  0  0  0  0  0  0
    0.2338    0.0636   -1.9406 C   0  0  0  0  0  0  0  0  0  0  0  0
   -0.4022    0.7503   -2.9161 C   0  0  0  0  0  0  0  0  0  0  0  0
   -1.4178    0.5581   -3.2445 H   0  0  0  0  0  0  0  0  0  0  0  0
    0.4299    1.7369   -3.4075 N   0  0  0  0  0  0  0  0  0  0  0  0
    0.1655    2.3715   -4.1468 H   0  0  0  0  0  0  0  0  0  0  0  0
    1.6457    1.7459   -2.7573 C   0  0  0  0  0  0  0  0  0  0  0  0
    2.7865    2.5535   -2.8699 C   0  0  0  0  0  0  0  0  0  0  0  0
    2.8185    3.3585   -3.5893 H   0  0  0  0  0  0  0  0  0  0  0  0
    3.8879    2.2996   -2.0348 C   0  0  0  0  0  0  0  0  0  0  0  0
    4.7768    2.9114   -2.1082 H   0  0  0  0  0  0  0  0  0  0  0  0
    3.8353    1.2432   -1.1070 C   0  0  0  0  0  0  0  0  0  0  0  0
    4.6881    1.0461   -0.4723 H   0  0  0  0  0  0  0  0  0  0  0  0
    2.6842    0.4367   -1.0040 C   0  0  0  0  0  0  0  0  0  0  0  0
    2.6620   -0.3799   -0.2963 H   0  0  0  0  0  0  0  0  0  0  0  0
    1.5590    0.6698   -1.8240 C   0  0  0  0  0  0  0  0  0  0  0  0
   -1.7617    0.8549   -0.2106 C   0  0  0  0  0  0  0  0  0  0  0  0
   -2.5726    1.1871   -1.0741 O   0  0  0  0  0  0  0  0  0  0  0  0
   -1.1941    1.7377    0.6223 N   0  0  0  0  0  0  0  0  0  0  0  0
   -0.4976    1.3916    1.2669 H   0  0  0  0  0  0  0  0  0  0  0  0
   -1.4666    3.1722    0.6095 C   0  0  0  0  0  0  0  0  0  0  0  0
   -2.5439    3.3427    0.6539 H   0  0  0  0  0  0  0  0  0  0  0  0
   -0.9893    3.6529    1.4644 H   0  0  0  0  0  0  0  0  0  0  0  0
   -1.0808    3.6095   -0.3129 H   0  0  0  0  0  0  0  0  0  0  0  0
  5  6  2  0  0  0  0
  5  7  1  0  0  0  0
  2  3  1  0  0  0  0
  2  4  1  0  0  0  0
  2  5  1  0  0  0  0
  1  2  1  0  0  0  0
 29 30  2  0  0  0  0
 29 31  1  0  0  0  0
 26 27  1  0  0  0  0
 26 28  2  0  0  0  0
 24 25  1  0  0  0  0
 24 26  1  0  0  0  0
 22 23  1  0  0  0  0
 22 24  2  0  0  0  0
 20 21  1  0  0  0  0
 20 22  1  0  0  0  0
 19 20  2  0  0  0  0
 19 28  1  0  0  0  0
 17 18  1  0  0  0  0
 17 19  1  0  0  0  0
 15 16  1  0  0  0  0
 15 17  1  0  0  0  0
 14 15  2  0  0  0  0
 14 28  1  0  0  0  0
 11 12  1  0  0  0  0
 11 13  1  0  0  0  0
 11 14  1  0  0  0  0
  9 10  1  0  0  0  0
  9 11  1  0  0  0  0
  9 29  1  0  0  0  0
  7  8  1  0  0  0  0
  7  9  1  0  0  0  0
 33 34  1  0  0  0  0
 33 35  1  0  0  0  0
 33 36  1  0  0  0  0
 31 32  1  0  0  0  0
 31 33  1  0  0  0  0
M  END
$$$$
default_name
  -OEChem-02102213163D

 36 37  0     1  0  0  0  0  0999 V2000
   -4.0843   -4.0736    1.2944 H   0  0  0  0  0  0  0  0  0  0  0  0
   -4.0342   -3.2816    0.5484 C   0  0  0  0  0  0  0  0  0  0  0  0
   -4.8842   -2.6126    0.6694 H   0  0  0  0  0  0  0  0  0  0  0  0
   -4.0433   -3.7186   -0.4486 H   0  0  0  0  0  0  0  0  0  0  0  0
   -2.7532   -2.5046    0.7444 C   0  0  0  0  0  0  0  0  0  0  0  0
   -1.9803   -2.8096    1.6434 O   0  0  0  0  0  0  0  0  0  0  0  0
   -2.5332   -1.4966   -0.0966 N   0  0  0  0  0  0  0  0  0  0  0  0
   -3.2312   -1.2816   -0.7936 H   0  0  0  0  0  0  0  0  0  0  0  0
   -1.3593   -0.6196   -0.0536 C   0  0  1  0  0  0  0  0  0  0  0  0
   -0.8788   -0.7266    0.9196 H   0  0  0  0  0  0  0  0  0  0  0  0
   -0.3559   -1.0533   -1.1339 C   0  0  0  0  0  0  0  0  0  0  0  0
    0.4634   -1.5937   -0.6563 H   0  0  0  0  0  0  0  0  0  0  0  0
   -0.8555   -1.7451   -1.8142 H   0  0  0  0  0  0  0  0  0  0  0  0
    0.2338    0.0636   -1.9406 C   0  0  0  0  0  0  0  0  0  0  0  0
   -0.4625    0.9348   -2.7046 C   0  0  0  0  0  0  0  0  0  0  0  0
   -1.5385    0.9148   -2.8389 H   0  0  0  0  0  0  0  0  0  0  0  0
    0.4018    1.8557   -3.2637 N   0  0  0  0  0  0  0  0  0  0  0  0
    0.1024    2.6002   -3.8762 H   0  0  0  0  0  0  0  0  0  0  0  0
    1.7045    1.6321   -2.8718 C   0  0  0  0  0  0  0  0  0  0  0  0
    2.9122    2.2930   -3.1387 C   0  0  0  0  0  0  0  0  0  0  0  0
    2.9299    3.1647   -3.7761 H   0  0  0  0  0  0  0  0  0  0  0  0
    4.0990    1.8040   -2.5666 C   0  0  0  0  0  0  0  0  0  0  0  0
    5.0401    2.3001   -2.7621 H   0  0  0  0  0  0  0  0  0  0  0  0
    4.0625    0.6633   -1.7439 C   0  0  0  0  0  0  0  0  0  0  0  0
    4.9792    0.2856   -1.3125 H   0  0  0  0  0  0  0  0  0  0  0  0
    2.8432    0.0059   -1.4841 C   0  0  0  0  0  0  0  0  0  0  0  0
    2.8312   -0.8771   -0.8611 H   0  0  0  0  0  0  0  0  0  0  0  0
    1.6330    0.4758   -2.0386 C   0  0  0  0  0  0  0  0  0  0  0  0
   -1.7617    0.8549   -0.2106 C   0  0  0  0  0  0  0  0  0  0  0  0
   -2.5726    1.1871   -1.0741 O   0  0  0  0  0  0  0  0  0  0  0  0
   -1.1941    1.7377    0.6223 N   0  0  0  0  0  0  0  0  0  0  0  0
   -0.4976    1.3916    1.2669 H   0  0  0  0  0  0  0  0  0  0  0  0
   -1.4666    3.1722    0.6095 C   0  0  0  0  0  0  0  0  0  0  0  0
   -2.5439    3.3427    0.6539 H   0  0  0  0  0  0  0  0  0  0  0  0
   -0.9893    3.6529    1.4644 H   0  0  0  0  0  0  0  0  0  0  0  0
   -1.0808    3.6095   -0.3129 H   0  0  0  0  0  0  0  0  0  0  0  0
  5  6  2  0  0  0  0
  5  7  1  0  0  0  0
  2  3  1  0  0  0  0
  2  4  1  0  0  0  0
  2  5  1  0  0  0  0
  1  2  1  0  0  0  0
 29 30  2  0  0  0  0
 29 31  1  0  0  0  0
 26 27  1  0  0  0  0
 26 28  2  0  0  0  0
 24 25  1  0  0  0  0
 24 26  1  0  0  0  0
 22 23  1  0  0  0  0
 22 24  2  0  0  0  0
 20 21  1  0  0  0  0
 20 22  1  0  0  0  0
 19 20  2  0  0  0  0
 19 28  1  0  0  0  0
 17 18  1  0  0  0  0
 17 19  1  0  0  0  0
 15 16  1  0  0  0  0
 15 17  1  0  0  0  0
 14 15  2  0  0  0  0
 14 28  1  0  0  0  0
 11 12  1  0  0  0  0
 11 13  1  0  0  0  0
 11 14  1  0  0  0  0
  9 10  1  0  0  0  0
  9 11  1  0  0  0  0
  9 29  1  0  0  0  0
  7  8  1  0  0  0  0
  7  9  1  0  0  0  0
 33 34  1  0  0  0  0
 33 35  1  0  0  0  0
 33 36  1  0  0  0  0
 31 32  1  0  0  0  0
 31 33  1  0  0  0  0
M  END
$$$$
default_name
  -OEChem-02102213163D

 36 37  0     1  0  0  0  0  0999 V2000
   -4.0843   -4.0736    1.2944 H   0  0  0  0  0  0  0  0  0  0  0  0
   -4.0342   -3.2816    0.5484 C   0  0  0  0  0  0  0  0  0  0  0  0
   -4.8842   -2.6126    0.6694 H   0  0  0  0  0  0  0  0  0  0  0  0
   -4.0433   -3.7186   -0.4486 H   0  0  0  0  0  0  0  0  0  0  0  0
   -2.7532   -2.5046    0.7444 C   0  0  0  0  0  0  0  0  0  0  0  0
   -1.9803   -2.8096    1.6434 O   0  0  0  0  0  0  0  0  0  0  0  0
   -2.5332   -1.4966   -0.0966 N   0  0  0  0  0  0  0  0  0  0  0  0
   -3.2312   -1.2816   -0.7936 H   0  0  0  0  0  0  0  0  0  0  0  0
   -1.3593   -0.6196   -0.0536 C   0  0  1  0  0  0  0  0  0  0  0  0
   -0.8788   -0.7266    0.9196 H   0  0  0  0  0  0  0  0  0  0  0  0
   -0.3559   -1.0533   -1.1339 C   0  0  0  0  0  0  0  0  0  0  0  0
    0.4634   -1.5937   -0.6563 H   0  0  0  0  0  0  0  0  0  0  0  0
   -0.8555   -1.7451   -1.8142 H   0  0  0  0  0  0  0  0  0  0  0  0
    0.2338    0.0636   -1.9406 C   0  0  0  0  0  0  0  0  0  0  0  0
   -0.4543    1.0999   -2.4700 C   0  0  0  0  0  0  0  0  0  0  0  0
   -1.5271    1.2349   -2.3875 H   0  0  0  0  0  0  0  0  0  0  0  0
    0.4188    1.9596   -3.1073 N   0  0  0  0  0  0  0  0  0  0  0  0
    0.1255    2.8024   -3.5794 H   0  0  0  0  0  0  0  0  0  0  0  0
    1.7235    1.5257   -3.0052 C   0  0  0  0  0  0  0  0  0  0  0  0
    2.9455    2.0512   -3.4491 C   0  0  0  0  0  0  0  0  0  0  0  0
    2.9745    2.9811   -3.9978 H   0  0  0  0  0  0  0  0  0  0  0  0
    4.1314    1.3501   -3.1715 C   0  0  0  0  0  0  0  0  0  0  0  0
    5.0831    1.7396   -3.5068 H   0  0  0  0  0  0  0  0  0  0  0  0
    4.0783    0.1364   -2.4619 C   0  0  0  0  0  0  0  0  0  0  0  0
    4.9923   -0.4040   -2.2577 H   0  0  0  0  0  0  0  0  0  0  0  0
    2.8442   -0.3834   -2.0224 C   0  0  0  0  0  0  0  0  0  0  0  0
    2.8163   -1.3235   -1.4899 H   0  0  0  0  0  0  0  0  0  0  0  0
    1.6360    0.2999   -2.2799 C   0  0  0  0  0  0  0  0  0  0  0  0
   -1.7617    0.8549   -0.2106 C   0  0  0  0  0  0  0  0  0  0  0  0
   -2.5726    1.1871   -1.0741 O   0  0  0  0  0  0  0  0  0  0  0  0
   -1.1941    1.7377    0.6223 N   0  0  0  0  0  0  0  0  0  0  0  0
   -0.4976    1.3916    1.2669 H   0  0  0  0  0  0  0  0  0  0  0  0
   -1.4666    3.1722    0.6095 C   0  0  0  0  0  0  0  0  0  0  0  0
   -2.5439    3.3427    0.6539 H   0  0  0  0  0  0  0  0  0  0  0  0
   -0.9893    3.6529    1.4644 H   0  0  0  0  0  0  0  0  0  0  0  0
   -1.0808    3.6095   -0.3129 H   0  0  0  0  0  0  0  0  0  0  0  0
  5  6  2  0  0  0  0
  5  7  1  0  0  0  0
  2  3  1  0  0  0  0
  2  4  1  0  0  0  0
  2  5  1  0  0  0  0
  1  2  1  0  0  0  0
 29 30  2  0  0  0  0
 29 31  1  0  0  0  0
 26 27  1  0  0  0  0
 26 28  2  0  0  0  0
 24 25  1  0  0  0  0
 24 26  1  0  0  0  0
 22 23  1  0  0  0  0
 22 24  2  0  0  0  0
 20 21  1  0  0  0  0
 20 22  1  0  0  0  0
 19 20  2  0  0  0  0
 19 28  1  0  0  0  0
 17 18  1  0  0  0  0
 17 19  1  0  0  0  0
 15 16  1  0  0  0  0
 15 17  1  0  0  0  0
 14 15  2  0  0  0  0
 14 28  1  0  0  0  0
 11 12  1  0  0  0  0
 11 13  1  0  0  0  0
 11 14  1  0  0  0  0
  9 10  1  0  0  0  0
  9 11  1  0  0  0  0
  9 29  1  0  0  0  0
  7  8  1  0  0  0  0
  7  9  1  0  0  0  0
 33 34  1  0  0  0  0
 33 35  1  0  0  0  0
 33 36  1  0  0  0  0
 31 32  1  0  0  0  0
 31 33  1  0  0  0  0
M  END
$$$$
default_name
  -OEChem-02102213163D

 36 37  0     1  0  0  0  0  0999 V2000
   -4.0843   -4.0736    1.2944 H   0  0  0  0  0  0  0  0  0  0  0  0
   -4.0342   -3.2816    0.5484 C   0  0  0  0  0  0  0  0  0  0  0  0
   -4.8842   -2.6126    0.6694 H   0  0  0  0  0  0  0  0  0  0  0  0
   -4.0433   -3.7186   -0.4486 H   0  0  0  0  0  0  0  0  0  0  0  0
   -2.7532   -2.5046    0.7444 C   0  0  0  0  0  0  0  0  0  0  0  0
   -1.9803   -2.8096    1.6434 O   0  0  0  0  0  0  0  0  0  0  0  0
   -2.5332   -1.4966   -0.0966 N   0  0  0  0  0  0  0  0  0  0  0  0
   -3.2312   -1.2816   -0.7936 H   0  0  0  0  0  0  0  0  0  0  0  0
   -1.3593   -0.6196   -0.0536 C   0  0  1  0  0  0  0  0  0  0  0  0
   -0.8788   -0.7266    0.9196 H   0  0  0  0  0  0  0  0  0  0  0  0
   -0.3559   -1.0533   -1.1339 C   0  0  0  0  0  0  0  0  0  0  0  0
    0.4634   -1.5937   -0.6563 H   0  0  0  0  0  0  0  0  0  0  0  0
   -0.8555   -1.7451   -1.8142 H   0  0  0  0  0  0  0  0  0  0  0  0
    0.2338    0.0636   -1.9406 C   0  0  0  0  0  0  0  0  0  0  0  0
   -0.3780    1.2344   -2.2281 C   0  0  0  0  0  0  0  0  0  0  0  0
   -1.3845    1.4965   -1.9210 H   0  0  0  0  0  0  0  0  0  0  0  0
    0.4800    2.0417   -2.9489 N   0  0  0  0  0  0  0  0  0  0  0  0
    0.2333    2.9642   -3.2766 H   0  0  0  0  0  0  0  0  0  0  0  0
    1.7012    1.4339   -3.1486 C   0  0  0  0  0  0  0  0  0  0  0  0
    2.8840    1.8447   -3.7799 C   0  0  0  0  0  0  0  0  0  0  0  0
    2.9492    2.8201   -4.2392 H   0  0  0  0  0  0  0  0  0  0  0  0
    3.9827    0.9687   -3.8082 C   0  0  0  0  0  0  0  0  0  0  0  0
    4.9028    1.2680   -4.2915 H   0  0  0  0  0  0  0  0  0  0  0  0
    3.8816   -0.3017   -3.2122 C   0  0  0  0  0  0  0  0  0  0  0  0
    4.7265   -0.9757   -3.2435 H   0  0  0  0  0  0  0  0  0  0  0  0
    2.6871   -0.7048   -2.5822 C   0  0  0  0  0  0  0  0  0  0  0  0
    2.6185   -1.6885   -2.1399 H   0  0  0  0  0  0  0  0  0  0  0  0
    1.5679    0.1542   -2.5314 C   0  0  0  0  0  0  0  0  0  0  0  0
   -1.7617    0.8549   -0.2106 C   0  0  0  0  0  0  0  0  0  0  0  0
   -2.5726    1.1871   -1.0741 O   0  0  0  0  0  0  0  0  0  0  0  0
   -1.1941    1.7377    0.6223 N   0  0  0  0  0  0  0  0  0  0  0  0
   -0.4976    1.3916    1.2669 H   0  0  0  0  0  0  0  0  0  0  0  0
   -1.4666    3.1722    0.6095 C   0  0  0  0  0  0  0  0  0  0  0  0
   -2.5439    3.3427    0.6539 H   0  0  0  0  0  0  0  0  0  0  0  0
   -0.9893    3.6529    1.4644 H   0  0  0  0  0  0  0  0  0  0  0  0
   -1.0808    3.6095   -0.3129 H   0  0  0  0  0  0  0  0  0  0  0  0
  5  6  2  0  0  0  0
  5  7  1  0  0  0  0
  2  3  1  0  0  0  0
  2  4  1  0  0  0  0
  2  5  1  0  0  0  0
  1  2  1  0  0  0  0
 29 30  2  0  0  0  0
 29 31  1  0  0  0  0
 26 27  1  0  0  0  0
 26 28  2  0  0  0  0
 24 25  1  0  0  0  0
 24 26  1  0  0  0  0
 22 23  1  0  0  0  0
 22 24  2  0  0  0  0
 20 21  1  0  0  0  0
 20 22  1  0  0  0  0
 19 20  2  0  0  0  0
 19 28  1  0  0  0  0
 17 18  1  0  0  0  0
 17 19  1  0  0  0  0
 15 16  1  0  0  0  0
 15 17  1  0  0  0  0
 14 15  2  0  0  0  0
 14 28  1  0  0  0  0
 11 12  1  0  0  0  0
 11 13  1  0  0  0  0
 11 14  1  0  0  0  0
  9 10  1  0  0  0  0
  9 11  1  0  0  0  0
  9 29  1  0  0  0  0
  7  8  1  0  0  0  0
  7  9  1  0  0  0  0
 33 34  1  0  0  0  0
 33 35  1  0  0  0  0
 33 36  1  0  0  0  0
 31 32  1  0  0  0  0
 31 33  1  0  0  0  0
M  END
$$$$
default_name
  -OEChem-02102213163D

 36 37  0     1  0  0  0  0  0999 V2000
   -4.0843   -4.0736    1.2944 H   0  0  0  0  0  0  0  0  0  0  0  0
   -4.0342   -3.2816    0.5484 C   0  0  0  0  0  0  0  0  0  0  0  0
   -4.8842   -2.6126    0.6694 H   0  0  0  0  0  0  0  0  0  0  0  0
   -4.0433   -3.7186   -0.4486 H   0  0  0  0  0  0  0  0  0  0  0  0
   -2.7532   -2.5046    0.7444 C   0  0  0  0  0  0  0  0  0  0  0  0
   -1.9803   -2.8096    1.6434 O   0  0  0  0  0  0  0  0  0  0  0  0
   -2.5332   -1.4966   -0.0966 N   0  0  0  0  0  0  0  0  0  0  0  0
   -3.2312   -1.2816   -0.7936 H   0  0  0  0  0  0  0  0  0  0  0  0
   -1.3593   -0.6196   -0.0536 C   0  0  1  0  0  0  0  0  0  0  0  0
   -0.8788   -0.7266    0.9196 H   0  0  0  0  0  0  0  0  0  0  0  0
   -0.3559   -1.0533   -1.1339 C   0  0  0  0  0  0  0  0  0  0  0  0
    0.4634   -1.5937   -0.6563 H   0  0  0  0  0  0  0  0  0  0  0  0
   -0.8555   -1.7451   -1.8142 H   0  0  0  0  0  0  0  0  0  0  0  0
    0.2338    0.0636   -1.9406 C   0  0  0  0  0  0  0  0  0  0  0  0
   -0.2390    1.3290   -1.9955 C   0  0  0  0  0  0  0  0  0  0  0  0
   -1.1203    1.6818   -1.4713 H   0  0  0  0  0  0  0  0  0  0  0  0
    0.5810    2.0964   -2.7993 N   0  0  0  0  0  0  0  0  0  0  0  0
    0.4183    3.0747   -2.9884 H   0  0  0  0  0  0  0  0  0  0  0  0
    1.6392    1.3629   -3.2922 C   0  0  0  0  0  0  0  0  0  0  0  0
    2.7321    1.6874   -4.1087 C   0  0  0  0  0  0  0  0  0  0  0  0
    2.8558    2.6927   -4.4839 H   0  0  0  0  0  0  0  0  0  0  0  0
    3.6631    0.6859   -4.4333 C   0  0  0  0  0  0  0  0  0  0  0  0
    4.5117    0.9175   -5.0627 H   0  0  0  0  0  0  0  0  0  0  0  0
    3.4859   -0.6210   -3.9436 C   0  0  0  0  0  0  0  0  0  0  0  0
    4.2001   -1.3904   -4.2026 H   0  0  0  0  0  0  0  0  0  0  0  0
    2.3826   -0.9363   -3.1253 C   0  0  0  0  0  0  0  0  0  0  0  0
    2.2513   -1.9473   -2.7668 H   0  0  0  0  0  0  0  0  0  0  0  0
    1.4333    0.0485   -2.7761 C   0  0  0  0  0  0  0  0  0  0  0  0
   -1.7617    0.8549   -0.2106 C   0  0  0  0  0  0  0  0  0  0  0  0
   -2.5726    1.1871   -1.0741 O   0  0  0  0  0  0  0  0  0  0  0  0
   -1.1941    1.7377    0.6223 N   0  0  0  0  0  0  0  0  0  0  0  0
   -0.4976    1.3916    1.2669 H   0  0  0  0  0  0  0  0  0  0  0  0
   -1.4666    3.1722    0.6095 C   0  0  0  0  0  0  0  0  0  0  0  0
   -2.5439    3.3427    0.6539 H   0  0  0  0  0  0  0  0  0  0  0  0
   -0.9893    3.6529    1.4644 H   0  0  0  0  0  0  0  0  0  0  0  0
   -1.0808    3.6095   -0.3129 H   0  0  0  0  0  0  0  0  0  0  0  0
  5  6  2  0  0  0  0
  5  7  1  0  0  0  0
  2  3  1  0  0  0  0
  2  4  1  0  0  0  0
  2  5  1  0  0  0  0
  1  2  1  0  0  0  0
 29 30  2  0  0  0  0
 29 31  1  0  0  0  0
 26 27  1  0  0  0  0
 26 28  2  0  0  0  0
 24 25  1  0  0  0  0
 24 26  1  0  0  0  0
 22 23  1  0  0  0  0
 22 24  2  0  0  0  0
 20 21  1  0  0  0  0
 20 22  1  0  0  0  0
 19 20  2  0  0  0  0
 19 28  1  0  0  0  0
 17 18  1  0  0  0  0
 17 19  1  0  0  0  0
 15 16  1  0  0  0  0
 15 17  1  0  0  0  0
 14 15  2  0  0  0  0
 14 28  1  0  0  0  0
 11 12  1  0  0  0  0
 11 13  1  0  0  0  0
 11 14  1  0  0  0  0
  9 10  1  0  0  0  0
  9 11  1  0  0  0  0
  9 29  1  0  0  0  0
  7  8  1  0  0  0  0
  7  9  1  0  0  0  0
 33 34  1  0  0  0  0
 33 35  1  0  0  0  0
 33 36  1  0  0  0  0
 31 32  1  0  0  0  0
 31 33  1  0  0  0  0
M  END
$$$$
default_name
  -OEChem-02102213163D

 36 37  0     1  0  0  0  0  0999 V2000
   -4.0843   -4.0736    1.2944 H   0  0  0  0  0  0  0  0  0  0  0  0
   -4.0342   -3.2816    0.5484 C   0  0  0  0  0  0  0  0  0  0  0  0
   -4.8842   -2.6126    0.6694 H   0  0  0  0  0  0  0  0  0  0  0  0
   -4.0433   -3.7186   -0.4486 H   0  0  0  0  0  0  0  0  0  0  0  0
   -2.7532   -2.5046    0.7444 C   0  0  0  0  0  0  0  0  0  0  0  0
   -1.9803   -2.8096    1.6434 O   0  0  0  0  0  0  0  0  0  0  0  0
   -2.5332   -1.4966   -0.0966 N   0  0  0  0  0  0  0  0  0  0  0  0
   -3.2312   -1.2816   -0.7936 H   0  0  0  0  0  0  0  0  0  0  0  0
   -1.3593   -0.6196   -0.0536 C   0  0  1  0  0  0  0  0  0  0  0  0
   -0.8788   -0.7266    0.9196 H   0  0  0  0  0  0  0  0  0  0  0  0
   -0.3559   -1.0533   -1.1339 C   0  0  0  0  0  0  0  0  0  0  0  0
    0.4634   -1.5937   -0.6563 H   0  0  0  0  0  0  0  0  0  0  0  0
   -0.8555   -1.7451   -1.8142 H   0  0  0  0  0  0  0  0  0  0  0  0
    0.2338    0.0636   -1.9406 C   0  0  0  0  0  0  0  0  0  0  0  0
   -0.0466    1.3773   -1.7880 C   0  0  0  0  0  0  0  0  0  0  0  0
   -0.7526    1.7782   -1.0690 H   0  0  0  0  0  0  0  0  0  0  0  0
    0.7151    2.1199   -2.6688 N   0  0  0  0  0  0  0  0  0  0  0  0
    0.6680    3.1262   -2.7345 H   0  0  0  0  0  0  0  0  0  0  0  0
    1.5418    1.3176   -3.4262 C   0  0  0  0  0  0  0  0  0  0  0  0
    2.5001    1.5902   -4.4130 C   0  0  0  0  0  0  0  0  0  0  0  0
    2.7006    2.6076   -4.7152 H   0  0  0  0  0  0  0  0  0  0  0  0
    3.1944    0.5209   -5.0044 C   0  0  0  0  0  0  0  0  0  0  0  0
    3.9363    0.7119   -5.7679 H   0  0  0  0  0  0  0  0  0  0  0  0
    2.9182   -0.7999   -4.6062 C   0  0  0  0  0  0  0  0  0  0  0  0
    3.4487   -1.6201   -5.0698 H   0  0  0  0  0  0  0  0  0  0  0  0
    1.9515   -1.0622   -3.6148 C   0  0  0  0  0  0  0  0  0  0  0  0
    1.7395   -2.0823   -3.3278 H   0  0  0  0  0  0  0  0  0  0  0  0
    1.2414   -0.0099   -2.9972 C   0  0  0  0  0  0  0  0  0  0  0  0
   -1.7617    0.8549   -0.2106 C   0  0  0  0  0  0  0  0  0  0  0  0
   -2.5726    1.1871   -1.0741 O   0  0  0  0  0  0  0  0  0  0  0  0
   -1.1941    1.7377    0.6223 N   0  0  0  0  0  0  0  0  0  0  0  0
   -0.4976    1.3916    1.2669 H   0  0  0  0  0  0  0  0  0  0  0  0
   -1.4666    3.1722    0.6095 C   0  0  0  0  0  0  0  0  0  0  0  0
   -2.5439    3.3427    0.6539 H   0  0  0  0  0  0  0  0  0  0  0  0
   -0.9893    3.6529    1.4644 H   0  0  0  0  0  0  0  0  0  0  0  0
   -1.0808    3.6095   -0.3129 H   0  0  0  0  0  0  0  0  0  0  0  0
  5  6  2  0  0  0  0
  5  7  1  0  0  0  0
  2  3  1  0  0  0  0
  2  4  1  0  0  0  0
  2  5  1  0  0  0  0
  1  2  1  0  0  0  0
 29 30  2  0  0  0  0
 29 31  1  0  0  0  0
 26 27  1  0  0  0  0
 26 28  2  0  0  0  0
 24 25  1  0  0  0  0
 24 26  1  0  0  0  0
 22 23  1  0  0  0  0
 22 24  2  0  0  0  0
 20 21  1  0  0  0  0
 20 22  1  0  0  0  0
 19 20  2  0  0  0  0
 19 28  1  0  0  0  0
 17 18  1  0  0  0  0
 17 19  1  0  0  0  0
 15 16  1  0  0  0  0
 15 17  1  0  0  0  0
 14 15  2  0  0  0  0
 14 28  1  0  0  0  0
 11 12  1  0  0  0  0
 11 13  1  0  0  0  0
 11 14  1  0  0  0  0
  9 10  1  0  0  0  0
  9 11  1  0  0  0  0
  9 29  1  0  0  0  0
  7  8  1  0  0  0  0
  7  9  1  0  0  0  0
 33 34  1  0  0  0  0
 33 35  1  0  0  0  0
 33 36  1  0  0  0  0
 31 32  1  0  0  0  0
 31 33  1  0  0  0  0
M  END
$$$$
default_name
  -OEChem-02102213163D

 36 37  0     1  0  0  0  0  0999 V2000
   -4.0843   -4.0736    1.2944 H   0  0  0  0  0  0  0  0  0  0  0  0
   -4.0342   -3.2816    0.5484 C   0  0  0  0  0  0  0  0  0  0  0  0
   -4.8842   -2.6126    0.6694 H   0  0  0  0  0  0  0  0  0  0  0  0
   -4.0433   -3.7186   -0.4486 H   0  0  0  0  0  0  0  0  0  0  0  0
   -2.7532   -2.5046    0.7444 C   0  0  0  0  0  0  0  0  0  0  0  0
   -1.9803   -2.8096    1.6434 O   0  0  0  0  0  0  0  0  0  0  0  0
   -2.5332   -1.4966   -0.0966 N   0  0  0  0  0  0  0  0  0  0  0  0
   -3.2312   -1.2816   -0.7936 H   0  0  0  0  0  0  0  0  0  0  0  0
   -1.3593   -0.6196   -0.0536 C   0  0  1  0  0  0  0  0  0  0  0  0
   -0.8788   -0.7266    0.9196 H   0  0  0  0  0  0  0  0  0  0  0  0
   -0.3559   -1.0533   -1.1339 C   0  0  0  0  0  0  0  0  0  0  0  0
    0.4634   -1.5937   -0.6563 H   0  0  0  0  0  0  0  0  0  0  0  0
   -0.8555   -1.7451   -1.8142 H   0  0  0  0  0  0  0  0  0  0  0  0
    0.2338    0.0636   -1.9406 C   0  0  0  0  0  0  0  0  0  0  0  0
    0.1859    1.3760   -1.6197 C   0  0  0  0  0  0  0  0  0  0  0  0
   -0.3063    1.7791   -0.7415 H   0  0  0  0  0  0  0  0  0  0  0  0
    0.8730    2.1106   -2.5662 N   0  0  0  0  0  0  0  0  0  0  0  0
    0.9654    3.1154   -2.5321 H   0  0  0  0  0  0  0  0  0  0  0  0
    1.4155    1.3011   -3.5414 C   0  0  0  0  0  0  0  0  0  0  0  0
    2.2037    1.5596   -4.6721 C   0  0  0  0  0  0  0  0  0  0  0  0
    2.4942    2.5705   -4.9173 H   0  0  0  0  0  0  0  0  0  0  0  0
    2.6086    0.4850   -5.4823 C   0  0  0  0  0  0  0  0  0  0  0  0
    3.2158    0.6654   -6.3590 H   0  0  0  0  0  0  0  0  0  0  0  0
    2.2170   -0.8260   -5.1550 C   0  0  0  0  0  0  0  0  0  0  0  0
    2.5238   -1.6489   -5.7858 H   0  0  0  0  0  0  0  0  0  0  0  0
    1.4231   -1.0739   -4.0172 C   0  0  0  0  0  0  0  0  0  0  0  0
    1.1182   -2.0843   -3.7847 H   0  0  0  0  0  0  0  0  0  0  0  0
    1.0052   -0.0170   -3.1798 C   0  0  0  0  0  0  0  0  0  0  0  0
   -1.7617    0.8549   -0.2106 C   0  0  0  0  0  0  0  0  0  0  0  0
   -2.5726    1.1871   -1.0741 O   0  0  0  0  0  0  0  0  0  0  0  0
   -1.1941    1.7377    0.6223 N   0  0  0  0  0  0  0  0  0  0  0  0
   -0.4976    1.3916    1.2669 H   0  0  0  0  0  0  0  0  0  0  0  0
   -1.4666    3.1722    0.6095 C   0  0  0  0  0  0  0  0  0  0  0  0
   -2.5439    3.3427    0.6539 H   0  0  0  0  0  0  0  0  0  0  0  0
   -0.9893    3.6529    1.4644 H   0  0  0  0  0  0  0  0  0  0  0  0
   -1.0808    3.6095   -0.3129 H   0  0  0  0  0  0  0  0  0  0  0  0
  5  6  2  0  0  0  0
  5  7  1  0  0  0  0
  2  3  1  0  0  0  0
  2  4  1  0  0  0  0
  2  5  1  0  0  0  0
  1  2  1  0  0  0  0
 29 30  2  0  0  0  0
 29 31  1  0  0  0  0
 26 27  1  0  0  0  0
 26 28  2  0  0  0  0
 24 25  1  0  0  0  0
 24 26  1  0  0  0  0
 22 23  1  0  0  0  0
 22 24  2  0  0  0  0
 20 21  1  0  0  0  0
 20 22  1  0  0  0  0
 19 20  2  0  0  0  0
 19 28  1  0  0  0  0
 17 18  1  0  0  0  0
 17 19  1  0  0  0  0
 15 16  1  0  0  0  0
 15 17  1  0  0  0  0
 14 15  2  0  0  0  0
 14 28  1  0  0  0  0
 11 12  1  0  0  0  0
 11 13  1  0  0  0  0
 11 14  1  0  0  0  0
  9 10  1  0  0  0  0
  9 11  1  0  0  0  0
  9 29  1  0  0  0  0
  7  8  1  0  0  0  0
  7  9  1  0  0  0  0
 33 34  1  0  0  0  0
 33 35  1  0  0  0  0
 33 36  1  0  0  0  0
 31 32  1  0  0  0  0
 31 33  1  0  0  0  0
M  END
$$$$
default_name
  -OEChem-02102213163D

 36 37  0     1  0  0  0  0  0999 V2000
   -4.0843   -4.0736    1.2944 H   0  0  0  0  0  0  0  0  0  0  0  0
   -4.0342   -3.2816    0.5484 C   0  0  0  0  0  0  0  0  0  0  0  0
   -4.8842   -2.6126    0.6694 H   0  0  0  0  0  0  0  0  0  0  0  0
   -4.0433   -3.7186   -0.4486 H   0  0  0  0  0  0  0  0  0  0  0  0
   -2.7532   -2.5046    0.7444 C   0  0  0  0  0  0  0  0  0  0  0  0
   -1.9803   -2.8096    1.6434 O   0  0  0  0  0  0  0  0  0  0  0  0
   -2.5332   -1.4966   -0.0966 N   0  0  0  0  0  0  0  0  0  0  0  0
   -3.2312   -1.2816   -0.7936 H   0  0  0  0  0  0  0  0  0  0  0  0
   -1.3593   -0.6196   -0.0536 C   0  0  1  0  0  0  0  0  0  0  0  0
   -0.8788   -0.7266    0.9196 H   0  0  0  0  0  0  0  0  0  0  0  0
   -0.3559   -1.0533   -1.1339 C   0  0  0  0  0  0  0  0  0  0  0  0
    0.4634   -1.5937   -0.6563 H   0  0  0  0  0  0  0  0  0  0  0  0
   -0.8555   -1.7451   -1.8142 H   0  0  0  0  0  0  0  0  0  0  0  0
    0.2338    0.0636   -1.9406 C   0  0  0  0  0  0  0  0  0  0  0  0
    0.4428    1.3253   -1.5022 C   0  0  0  0  0  0  0  0  0  0  0  0
    0.1880    1.6845   -0.5112 H   0  0  0  0  0  0  0  0  0  0  0  0
    1.0441    2.0692   -2.4985 N   0  0  0  0  0  0  0  0  0  0  0  0
    1.2901    3.0429   -2.3951 H   0  0  0  0  0  0  0  0  0  0  0  0
    1.2690    1.3144   -3.6300 C   0  0  0  0  0  0  0  0  0  0  0  0
    1.8631    1.5977   -4.8682 C   0  0  0  0  0  0  0  0  0  0  0  0
    2.2507    2.5841   -5.0766 H   0  0  0  0  0  0  0  0  0  0  0  0
    1.9455    0.5806   -5.8346 C   0  0  0  0  0  0  0  0  0  0  0  0
    2.3994    0.7810   -6.7957 H   0  0  0  0  0  0  0  0  0  0  0  0
    1.4302   -0.6977   -5.5525 C   0  0  0  0  0  0  0  0  0  0  0  0
    1.4882   -1.4749   -6.3020 H   0  0  0  0  0  0  0  0  0  0  0  0
    0.8334   -0.9706   -4.3053 C   0  0  0  0  0  0  0  0  0  0  0  0
    0.4296   -1.9531   -4.1064 H   0  0  0  0  0  0  0  0  0  0  0  0
    0.7409    0.0276   -3.3112 C   0  0  0  0  0  0  0  0  0  0  0  0
   -1.7617    0.8549   -0.2106 C   0  0  0  0  0  0  0  0  0  0  0  0
   -2.5726    1.1871   -1.0741 O   0  0  0  0  0  0  0  0  0  0  0  0
   -1.1941    1.7377    0.6223 N   0  0  0  0  0  0  0  0  0  0  0  0
   -0.4976    1.3916    1.2669 H   0  0  0  0  0  0  0  0  0  0  0  0
   -1.4666    3.1722    0.6095 C   0  0  0  0  0  0  0  0  0  0  0  0
   -2.5439    3.3427    0.6539 H   0  0  0  0  0  0  0  0  0  0  0  0
   -0.9893    3.6529    1.4644 H   0  0  0  0  0  0  0  0  0  0  0  0
   -1.0808    3.6095   -0.3129 H   0  0  0  0  0  0  0  0  0  0  0  0
  5  6  2  0  0  0  0
  5  7  1  0  0  0  0
  2  3  1  0  0  0  0
  2  4  1  0  0  0  0
  2  5  1  0  0  0  0
  1  2  1  0  0  0  0
 29 30  2  0  0  0  0
 29 31  1  0  0  0  0
 26 27  1  0  0  0  0
 26 28  2  0  0  0  0
 24 25  1  0  0  0  0
 24 26  1  0  0  0  0
 22 23  1  0  0  0  0
 22 24  2  0  0  0  0
 20 21  1  0  0  0  0
 20 22  1  0  0  0  0
 19 20  2  0  0  0  0
 19 28  1  0  0  0  0
 17 18  1  0  0  0  0
 17 19  1  0  0  0  0
 15 16  1  0  0  0  0
 15 17  1  0  0  0  0
 14 15  2  0  0  0  0
 14 28  1  0  0  0  0
 11 12  1  0  0  0  0
 11 13  1  0  0  0  0
 11 14  1  0  0  0  0
  9 10  1  0  0  0  0
  9 11  1  0  0  0  0
  9 29  1  0  0  0  0
  7  8  1  0  0  0  0
  7  9  1  0  0  0  0
 33 34  1  0  0  0  0
 33 35  1  0  0  0  0
 33 36  1  0  0  0  0
 31 32  1  0  0  0  0
 31 33  1  0  0  0  0
M  END
$$$$
default_name
  -OEChem-02102213163D

 36 37  0     1  0  0  0  0  0999 V2000
   -4.0843   -4.0736    1.2944 H   0  0  0  0  0  0  0  0  0  0  0  0
   -4.0342   -3.2816    0.5484 C   0  0  0  0  0  0  0  0  0  0  0  0
   -4.8842   -2.6126    0.6694 H   0  0  0  0  0  0  0  0  0  0  0  0
   -4.0433   -3.7186   -0.4486 H   0  0  0  0  0  0  0  0  0  0  0  0
   -2.7532   -2.5046    0.7444 C   0  0  0  0  0  0  0  0  0  0  0  0
   -1.9803   -2.8096    1.6434 O   0  0  0  0  0  0  0  0  0  0  0  0
   -2.5332   -1.4966   -0.0966 N   0  0  0  0  0  0  0  0  0  0  0  0
   -3.2312   -1.2816   -0.7936 H   0  0  0  0  0  0  0  0  0  0  0  0
   -1.3593   -0.6196   -0.0536 C   0  0  1  0  0  0  0  0  0  0  0  0
   -0.8788   -0.7266    0.9196 H   0  0  0  0  0  0  0  0  0  0  0  0
   -0.3559   -1.0533   -1.1339 C   0  0  0  0  0  0  0  0  0  0  0  0
    0.4634   -1.5937   -0.6563 H   0  0  0  0  0  0  0  0  0  0  0  0
   -0.8555   -1.7451   -1.8142 H   0  0  0  0  0  0  0  0  0  0  0  0
    0.2338    0.0636   -1.9406 C   0  0  0  0  0  0  0  0  0  0  0  0
    0.7066    1.2285   -1.4434 C   0  0  0  0  0  0  0  0  0  0  0  0
    0.6967    1.5008   -0.3937 H   0  0  0  0  0  0  0  0  0  0  0  0
    1.2167    1.9985   -2.4703 N   0  0  0  0  0  0  0  0  0  0  0  0
    1.6202    2.9136   -2.3328 H   0  0  0  0  0  0  0  0  0  0  0  0
    1.1123    1.3567   -3.6860 C   0  0  0  0  0  0  0  0  0  0  0  0
    1.5017    1.7019   -4.9882 C   0  0  0  0  0  0  0  0  0  0  0  0
    1.9867    2.6473   -5.1820 H   0  0  0  0  0  0  0  0  0  0  0  0
    1.2504    0.8013   -6.0373 C   0  0  0  0  0  0  0  0  0  0  0  0
    1.5427    1.0509   -7.0483 H   0  0  0  0  0  0  0  0  0  0  0  0
    0.6115   -0.4237   -5.7716 C   0  0  0  0  0  0  0  0  0  0  0  0
    0.4125   -1.1100   -6.5831 H   0  0  0  0  0  0  0  0  0  0  0  0
    0.2227   -0.7593   -4.4592 C   0  0  0  0  0  0  0  0  0  0  0  0
   -0.2793   -1.6977   -4.2710 H   0  0  0  0  0  0  0  0  0  0  0  0
    0.4664    0.1209   -3.3827 C   0  0  0  0  0  0  0  0  0  0  0  0
   -1.7617    0.8549   -0.2106 C   0  0  0  0  0  0  0  0  0  0  0  0
   -2.5726    1.1871   -1.0741 O   0  0  0  0  0  0  0  0  0  0  0  0
   -1.1941    1.7377    0.6223 N   0  0  0  0  0  0  0  0  0  0  0  0
   -0.4976    1.3916    1.2669 H   0  0  0  0  0  0  0  0  0  0  0  0
   -1.4666    3.1722    0.6095 C   0  0  0  0  0  0  0  0  0  0  0  0
   -2.5439    3.3427    0.6539 H   0  0  0  0  0  0  0  0  0  0  0  0
   -0.9893    3.6529    1.4644 H   0  0  0  0  0  0  0  0  0  0  0  0
   -1.0808    3.6095   -0.3129 H   0  0  0  0  0  0  0  0  0  0  0  0
  5  6  2  0  0  0  0
  5  7  1  0  0  0  0
  2  3  1  0  0  0  0
  2  4  1  0  0  0  0
  2  5  1  0  0  0  0
  1  2  1  0  0  0  0
 29 30  2  0  0  0  0
 29 31  1  0  0  0  0
 26 27  1  0  0  0  0
 26 28  2  0  0  0  0
 24 25  1  0  0  0  0
 24 26  1  0  0  0  0
 22 23  1  0  0  0  0
 22 24  2  0  0  0  0
 20 21  1  0  0  0  0
 20 22  1  0  0  0  0
 19 20  2  0  0  0  0
 19 28  1  0  0  0  0
 17 18  1  0  0  0  0
 17 19  1  0  0  0  0
 15 16  1  0  0  0  0
 15 17  1  0  0  0  0
 14 15  2  0  0  0  0
 14 28  1  0  0  0  0
 11 12  1  0  0  0  0
 11 13  1  0  0  0  0
 11 14  1  0  0  0  0
  9 10  1  0  0  0  0
  9 11  1  0  0  0  0
  9 29  1  0  0  0  0
  7  8  1  0  0  0  0
  7  9  1  0  0  0  0
 33 34  1  0  0  0  0
 33 35  1  0  0  0  0
 33 36  1  0  0  0  0
 31 32  1  0  0  0  0
 31 33  1  0  0  0  0
M  END
$$$$
default_name
  -OEChem-02102213163D

 36 37  0     1  0  0  0  0  0999 V2000
   -4.0843   -4.0736    1.2944 H   0  0  0  0  0  0  0  0  0  0  0  0
   -4.0342   -3.2816    0.5484 C   0  0  0  0  0  0  0  0  0  0  0  0
   -4.8842   -2.6126    0.6694 H   0  0  0  0  0  0  0  0  0  0  0  0
   -4.0433   -3.7186   -0.4486 H   0  0  0  0  0  0  0  0  0  0  0  0
   -2.7532   -2.5046    0.7444 C   0  0  0  0  0  0  0  0  0  0  0  0
   -1.9803   -2.8096    1.6434 O   0  0  0  0  0  0  0  0  0  0  0  0
   -2.5332   -1.4966   -0.0966 N   0  0  0  0  0  0  0  0  0  0  0  0
   -3.2312   -1.2816   -0.7936 H   0  0  0  0  0  0  0  0  0  0  0  0
   -1.3593   -0.6196   -0.0536 C   0  0  1  0  0  0  0  0  0  0  0  0
   -0.8788   -0.7266    0.9196 H   0  0  0  0  0  0  0  0  0  0  0  0
   -0.3559   -1.0533   -1.1339 C   0  0  0  0  0  0  0  0  0  0  0  0
    0.4634   -1.5937   -0.6563 H   0  0  0  0  0  0  0  0  0  0  0  0
   -0.8555   -1.7451   -1.8142 H   0  0  0  0  0  0  0  0  0  0  0  0
    0.2338    0.0636   -1.9406 C   0  0  0  0  0  0  0  0  0  0  0  0
    0.9592    1.0923   -1.4473 C   0  0  0  0  0  0  0  0  0  0  0  0
    1.1852    1.2404   -0.3970 H   0  0  0  0  0  0  0  0  0  0  0  0
    1.3789    1.9033   -2.4835 N   0  0  0  0  0  0  0  0  0  0  0  0
    1.9329    2.7365   -2.3494 H   0  0  0  0  0  0  0  0  0  0  0  0
    0.9560    1.4251   -3.7055 C   0  0  0  0  0  0  0  0  0  0  0  0
    1.1439    1.8651   -5.0237 C   0  0  0  0  0  0  0  0  0  0  0  0
    1.7201    2.7559   -5.2266 H   0  0  0  0  0  0  0  0  0  0  0  0
    0.5706    1.1318   -6.0766 C   0  0  0  0  0  0  0  0  0  0  0  0
    0.7040    1.4566   -7.0996 H   0  0  0  0  0  0  0  0  0  0  0  0
   -0.1835   -0.0226   -5.7975 C   0  0  0  0  0  0  0  0  0  0  0  0
   -0.6298   -0.5791   -6.6100 H   0  0  0  0  0  0  0  0  0  0  0  0
   -0.3675   -0.4545   -4.4686 C   0  0  0  0  0  0  0  0  0  0  0  0
   -0.9602   -1.3355   -4.2672 H   0  0  0  0  0  0  0  0  0  0  0  0
    0.2005    0.2565   -3.3893 C   0  0  0  0  0  0  0  0  0  0  0  0
   -1.7617    0.8549   -0.2106 C   0  0  0  0  0  0  0  0  0  0  0  0
   -2.5726    1.1871   -1.0741 O   0  0  0  0  0  0  0  0  0  0  0  0
   -1.1941    1.7377    0.6223 N   0  0  0  0  0  0  0  0  0  0  0  0
   -0.4976    1.3916    1.2669 H   0  0  0  0  0  0  0  0  0  0  0  0
   -1.4666    3.1722    0.6095 C   0  0  0  0  0  0  0  0  0  0  0  0
   -2.5439    3.3427    0.6539 H   0  0  0  0  0  0  0  0  0  0  0  0
   -0.9893    3.6529    1.4644 H   0  0  0  0  0  0  0  0  0  0  0  0
   -1.0808    3.6095   -0.3129 H   0  0  0  0  0  0  0  0  0  0  0  0
  5  6  2  0  0  0  0
  5  7  1  0  0  0  0
  2  3  1  0  0  0  0
  2  4  1  0  0  0  0
  2  5  1  0  0  0  0
  1  2  1  0  0  0  0
 29 30  2  0  0  0  0
 29 31  1  0  0  0  0
 26 27  1  0  0  0  0
 26 28  2  0  0  0  0
 24 25  1  0  0  0  0
 24 26  1  0  0  0  0
 22 23  1  0  0  0  0
 22 24  2  0  0  0  0
 20 21  1  0  0  0  0
 20 22  1  0  0  0  0
 19 20  2  0  0  0  0
 19 28  1  0  0  0  0
 17 18  1  0  0  0  0
 17 19  1  0  0  0  0
 15 16  1  0  0  0  0
 15 17  1  0  0  0  0
 14 15  2  0  0  0  0
 14 28  1  0  0  0  0
 11 12  1  0  0  0  0
 11 13  1  0  0  0  0
 11 14  1  0  0  0  0
  9 10  1  0  0  0  0
  9 11  1  0  0  0  0
  9 29  1  0  0  0  0
  7  8  1  0  0  0  0
  7  9  1  0  0  0  0
 33 34  1  0  0  0  0
 33 35  1  0  0  0  0
 33 36  1  0  0  0  0
 31 32  1  0  0  0  0
 31 33  1  0  0  0  0
M  END
$$$$
default_name
  -OEChem-02102213163D

 36 37  0     1  0  0  0  0  0999 V2000
   -4.0843   -4.0736    1.2944 H   0  0  0  0  0  0  0  0  0  0  0  0
   -4.0342   -3.2816    0.5484 C   0  0  0  0  0  0  0  0  0  0  0  0
   -4.8842   -2.6126    0.6694 H   0  0  0  0  0  0  0  0  0  0  0  0
   -4.0433   -3.7186   -0.4486 H   0  0  0  0  0  0  0  0  0  0  0  0
   -2.7532   -2.5046    0.7444 C   0  0  0  0  0  0  0  0  0  0  0  0
   -1.9803   -2.8096    1.6434 O   0  0  0  0  0  0  0  0  0  0  0  0
   -2.5332   -1.4966   -0.0966 N   0  0  0  0  0  0  0  0  0  0  0  0
   -3.2312   -1.2816   -0.7936 H   0  0  0  0  0  0  0  0  0  0  0  0
   -1.3593   -0.6196   -0.0536 C   0  0  1  0  0  0  0  0  0  0  0  0
   -0.8788   -0.7266    0.9196 H   0  0  0  0  0  0  0  0  0  0  0  0
   -0.3559   -1.0533   -1.1339 C   0  0  0  0  0  0  0  0  0  0  0  0
    0.4634   -1.5937   -0.6563 H   0  0  0  0  0  0  0  0  0  0  0  0
   -0.8555   -1.7451   -1.8142 H   0  0  0  0  0  0  0  0  0  0  0  0
    0.2338    0.0636   -1.9406 C   0  0  0  0  0  0  0  0  0  0  0  0
    1.1835    0.9259   -1.5137 C   0  0  0  0  0  0  0  0  0  0  0  0
    1.6201    0.9213   -0.5210 H   0  0  0  0  0  0  0  0  0  0  0  0
    1.5198    1.7900   -2.5373 N   0  0  0  0  0  0  0  0  0  0  0  0
    2.2072    2.5235   -2.4439 H   0  0  0  0  0  0  0  0  0  0  0  0
    0.8108    1.5150   -3.6873 C   0  0  0  0  0  0  0  0  0  0  0  0
    0.8142    2.0763   -4.9723 C   0  0  0  0  0  0  0  0  0  0  0  0
    1.4692    2.9024   -5.2071 H   0  0  0  0  0  0  0  0  0  0  0  0
   -0.0476    1.5498   -5.9497 C   0  0  0  0  0  0  0  0  0  0  0  0
   -0.0594    1.9706   -6.9460 H   0  0  0  0  0  0  0  0  0  0  0  0
   -0.9005    0.4781   -5.6282 C   0  0  0  0  0  0  0  0  0  0  0  0
   -1.5679    0.0817   -6.3808 H   0  0  0  0  0  0  0  0  0  0  0  0
   -0.8969   -0.0769   -4.3327 C   0  0  0  0  0  0  0  0  0  0  0  0
   -1.5667   -0.8911   -4.0953 H   0  0  0  0  0  0  0  0  0  0  0  0
   -0.0387    0.4252   -3.3306 C   0  0  0  0  0  0  0  0  0  0  0  0
   -1.7617    0.8549   -0.2106 C   0  0  0  0  0  0  0  0  0  0  0  0
   -2.5726    1.1871   -1.0741 O   0  0  0  0  0  0  0  0  0  0  0  0
   -1.1941    1.7377    0.6223 N   0  0  0  0  0  0  0  0  0  0  0  0
   -0.4976    1.3916    1.2669 H   0  0  0  0  0  0  0  0  0  0  0  0
   -1.4666    3.1722    0.6095 C   0  0  0  0  0  0  0  0  0  0  0  0
   -2.5439    3.3427    0.6539 H   0  0  0  0  0  0  0  0  0  0  0  0
   -0.9893    3.6529    1.4644 H   0  0  0  0  0  0  0  0  0  0  0  0
   -1.0808    3.6095   -0.3129 H   0  0  0  0  0  0  0  0  0  0  0  0
  5  6  2  0  0  0  0
  5  7  1  0  0  0  0
  2  3  1  0  0  0  0
  2  4  1  0  0  0  0
  2  5  1  0  0  0  0
  1  2  1  0  0  0  0
 29 30  2  0  0  0  0
 29 31  1  0  0  0  0
 26 27  1  0  0  0  0
 26 28  2  0  0  0  0
 24 25  1  0  0  0  0
 24 26  1  0  0  0  0
 22 23  1  0  0  0  0
 22 24  2  0  0  0  0
 20 21  1  0  0  0  0
 20 22  1  0  0  0  0
 19 20  2  0  0  0  0
 19 28  1  0  0  0  0
 17 18  1  0  0  0  0
 17 19  1  0  0  0  0
 15 16  1  0  0  0  0
 15 17  1  0  0  0  0
 14 15  2  0  0  0  0
 14 28  1  0  0  0  0
 11 12  1  0  0  0  0
 11 13  1  0  0  0  0
 11 14  1  0  0  0  0
  9 10  1  0  0  0  0
  9 11  1  0  0  0  0
  9 29  1  0  0  0  0
  7  8  1  0  0  0  0
  7  9  1  0  0  0  0
 33 34  1  0  0  0  0
 33 35  1  0  0  0  0
 33 36  1  0  0  0  0
 31 32  1  0  0  0  0
 31 33  1  0  0  0  0
M  END
$$$$
default_name
  -OEChem-02102213163D

 36 37  0     1  0  0  0  0  0999 V2000
   -4.0843   -4.0736    1.2944 H   0  0  0  0  0  0  0  0  0  0  0  0
   -4.0342   -3.2816    0.5484 C   0  0  0  0  0  0  0  0  0  0  0  0
   -4.8842   -2.6126    0.6694 H   0  0  0  0  0  0  0  0  0  0  0  0
   -4.0433   -3.7186   -0.4486 H   0  0  0  0  0  0  0  0  0  0  0  0
   -2.7532   -2.5046    0.7444 C   0  0  0  0  0  0  0  0  0  0  0  0
   -1.9803   -2.8096    1.6434 O   0  0  0  0  0  0  0  0  0  0  0  0
   -2.5332   -1.4966   -0.0966 N   0  0  0  0  0  0  0  0  0  0  0  0
   -3.2312   -1.2816   -0.7936 H   0  0  0  0  0  0  0  0  0  0  0  0
   -1.3593   -0.6196   -0.0536 C   0  0  1  0  0  0  0  0  0  0  0  0
   -0.8788   -0.7266    0.9196 H   0  0  0  0  0  0  0  0  0  0  0  0
   -0.3559   -1.0533   -1.1339 C   0  0  0  0  0  0  0  0  0  0  0  0
    0.4634   -1.5937   -0.6563 H   0  0  0  0  0  0  0  0  0  0  0  0
   -0.8555   -1.7451   -1.8142 H   0  0  0  0  0  0  0  0  0  0  0  0
    0.2338    0.0636   -1.9406 C   0  0  0  0  0  0  0  0  0  0  0  0
    1.3642    0.7407   -1.6381 C   0  0  0  0  0  0  0  0  0  0  0  0
    1.9718    0.5650   -0.7571 H   0  0  0  0  0  0  0  0  0  0  0  0
    1.6297    1.6665   -2.6280 N   0  0  0  0  0  0  0  0  0  0  0  0
    2.4242    2.2891   -2.6097 H   0  0  0  0  0  0  0  0  0  0  0  0
    0.6866    1.6201   -3.6325 C   0  0  0  0  0  0  0  0  0  0  0  0
    0.5351    2.3209   -4.8376 C   0  0  0  0  0  0  0  0  0  0  0  0
    1.2510    3.0770   -5.1249 H   0  0  0  0  0  0  0  0  0  0  0  0
   -0.5619    2.0268   -5.6653 C   0  0  0  0  0  0  0  0  0  0  0  0
   -0.6956    2.5578   -6.5980 H   0  0  0  0  0  0  0  0  0  0  0  0
   -1.4906    1.0445   -5.2754 C   0  0  0  0  0  0  0  0  0  0  0  0
   -2.3378    0.8273   -5.9112 H   0  0  0  0  0  0  0  0  0  0  0  0
   -1.3295    0.3478   -4.0609 C   0  0  0  0  0  0  0  0  0  0  0  0
   -2.0575   -0.3949   -3.7671 H   0  0  0  0  0  0  0  0  0  0  0  0
   -0.2350    0.6156   -3.2105 C   0  0  0  0  0  0  0  0  0  0  0  0
   -1.7617    0.8549   -0.2106 C   0  0  0  0  0  0  0  0  0  0  0  0
   -2.5726    1.1871   -1.0741 O   0  0  0  0  0  0  0  0  0  0  0  0
   -1.1941    1.7377    0.6223 N   0  0  0  0  0  0  0  0  0  0  0  0
   -0.4976    1.3916    1.2669 H   0  0  0  0  0  0  0  0  0  0  0  0
   -1.4666    3.1722    0.6095 C   0  0  0  0  0  0  0  0  0  0  0  0
   -2.5439    3.3427    0.6539 H   0  0  0  0  0  0  0  0  0  0  0  0
   -0.9893    3.6529    1.4644 H   0  0  0  0  0  0  0  0  0  0  0  0
   -1.0808    3.6095   -0.3129 H   0  0  0  0  0  0  0  0  0  0  0  0
  5  6  2  0  0  0  0
  5  7  1  0  0  0  0
  2  3  1  0  0  0  0
  2  4  1  0  0  0  0
  2  5  1  0  0  0  0
  1  2  1  0  0  0  0
 29 30  2  0  0  0  0
 29 31  1  0  0  0  0
 26 27  1  0  0  0  0
 26 28  2  0  0  0  0
 24 25  1  0  0  0  0
 24 26  1  0  0  0  0
 22 23  1  0  0  0  0
 22 24  2  0  0  0  0
 20 21  1  0  0  0  0
 20 22  1  0  0  0  0
 19 20  2  0  0  0  0
 19 28  1  0  0  0  0
 17 18  1  0  0  0  0
 17 19  1  0  0  0  0
 15 16  1  0  0  0  0
 15 17  1  0  0  0  0
 14 15  2  0  0  0  0
 14 28  1  0  0  0  0
 11 12  1  0  0  0  0
 11 13  1  0  0  0  0
 11 14  1  0  0  0  0
  9 10  1  0  0  0  0
  9 11  1  0  0  0  0
  9 29  1  0  0  0  0
  7  8  1  0  0  0  0
  7  9  1  0  0  0  0
 33 34  1  0  0  0  0
 33 35  1  0  0  0  0
 33 36  1  0  0  0  0
 31 32  1  0  0  0  0
 31 33  1  0  0  0  0
M  END
$$$$
default_name
  -OEChem-02102213163D

 36 37  0     1  0  0  0  0  0999 V2000
   -4.0843   -4.0736    1.2944 H   0  0  0  0  0  0  0  0  0  0  0  0
   -4.0342   -3.2816    0.5484 C   0  0  0  0  0  0  0  0  0  0  0  0
   -4.8842   -2.6126    0.6694 H   0  0  0  0  0  0  0  0  0  0  0  0
   -4.0433   -3.7186   -0.4486 H   0  0  0  0  0  0  0  0  0  0  0  0
   -2.7532   -2.5046    0.7444 C   0  0  0  0  0  0  0  0  0  0  0  0
   -1.9803   -2.8096    1.6434 O   0  0  0  0  0  0  0  0  0  0  0  0
   -2.5332   -1.4966   -0.0966 N   0  0  0  0  0  0  0  0  0  0  0  0
   -3.2312   -1.2816   -0.7936 H   0  0  0  0  0  0  0  0  0  0  0  0
   -1.3593   -0.6196   -0.0536 C   0  0  1  0  0  0  0  0  0  0  0  0
   -0.8788   -0.7266    0.9196 H   0  0  0  0  0  0  0  0  0  0  0  0
   -0.3559   -1.0533   -1.1339 C   0  0  0  0  0  0  0  0  0  0  0  0
    0.4634   -1.5937   -0.6563 H   0  0  0  0  0  0  0  0  0  0  0  0
   -0.8555   -1.7451   -1.8142 H   0  0  0  0  0  0  0  0  0  0  0  0
    0.2338    0.0636   -1.9406 C   0  0  0  0  0  0  0  0  0  0  0  0
    1.4889    0.5493   -1.8119 C   0  0  0  0  0  0  0  0  0  0  0  0
    2.2164    0.1960   -1.0894 H   0  0  0  0  0  0  0  0  0  0  0  0
    1.7012    1.5411   -2.7493 N   0  0  0  0  0  0  0  0  0  0  0  0
    2.5692    2.0494   -2.8356 H   0  0  0  0  0  0  0  0  0  0  0  0
    0.5918    1.7334   -3.5449 C   0  0  0  0  0  0  0  0  0  0  0  0
    0.3256    2.5824   -4.6288 C   0  0  0  0  0  0  0  0  0  0  0  0
    1.0803    3.2676   -4.9857 H   0  0  0  0  0  0  0  0  0  0  0  0
   -0.9375    2.5302   -5.2428 C   0  0  0  0  0  0  0  0  0  0  0  0
   -1.1612    3.1782   -6.0794 H   0  0  0  0  0  0  0  0  0  0  0  0
   -1.9137    1.6379   -4.7632 C   0  0  0  0  0  0  0  0  0  0  0  0
   -2.8869    1.6069   -5.2332 H   0  0  0  0  0  0  0  0  0  0  0  0
   -1.6357    0.7906   -3.6717 C   0  0  0  0  0  0  0  0  0  0  0  0
   -2.3991    0.1193   -3.3048 H   0  0  0  0  0  0  0  0  0  0  0  0
   -0.3748    0.8145   -3.0373 C   0  0  0  0  0  0  0  0  0  0  0  0
   -1.7617    0.8549   -0.2106 C   0  0  0  0  0  0  0  0  0  0  0  0
   -2.5726    1.1871   -1.0741 O   0  0  0  0  0  0  0  0  0  0  0  0
   -1.1941    1.7377    0.6223 N   0  0  0  0  0  0  0  0  0  0  0  0
   -0.4976    1.3916    1.2669 H   0  0  0  0  0  0  0  0  0  0  0  0
   -1.4666    3.1722    0.6095 C   0  0  0  0  0  0  0  0  0  0  0  0
   -2.5439    3.3427    0.6539 H   0  0  0  0  0  0  0  0  0  0  0  0
   -0.9893    3.6529    1.4644 H   0  0  0  0  0  0  0  0  0  0  0  0
   -1.0808    3.6095   -0.3129 H   0  0  0  0  0  0  0  0  0  0  0  0
  5  6  2  0  0  0  0
  5  7  1  0  0  0  0
  2  3  1  0  0  0  0
  2  4  1  0  0  0  0
  2  5  1  0  0  0  0
  1  2  1  0  0  0  0
 29 30  2  0  0  0  0
 29 31  1  0  0  0  0
 26 27  1  0  0  0  0
 26 28  2  0  0  0  0
 24 25  1  0  0  0  0
 24 26  1  0  0  0  0
 22 23  1  0  0  0  0
 22 24  2  0  0  0  0
 20 21  1  0  0  0  0
 20 22  1  0  0  0  0
 19 20  2  0  0  0  0
 19 28  1  0  0  0  0
 17 18  1  0  0  0  0
 17 19  1  0  0  0  0
 15 16  1  0  0  0  0
 15 17  1  0  0  0  0
 14 15  2  0  0  0  0
 14 28  1  0  0  0  0
 11 12  1  0  0  0  0
 11 13  1  0  0  0  0
 11 14  1  0  0  0  0
  9 10  1  0  0  0  0
  9 11  1  0  0  0  0
  9 29  1  0  0  0  0
  7  8  1  0  0  0  0
  7  9  1  0  0  0  0
 33 34  1  0  0  0  0
 33 35  1  0  0  0  0
 33 36  1  0  0  0  0
 31 32  1  0  0  0  0
 31 33  1  0  0  0  0
M  END
$$$$
default_name
  -OEChem-02102213163D

 36 37  0     1  0  0  0  0  0999 V2000
   -4.0843   -4.0736    1.2944 H   0  0  0  0  0  0  0  0  0  0  0  0
   -4.0342   -3.2816    0.5484 C   0  0  0  0  0  0  0  0  0  0  0  0
   -4.8842   -2.6126    0.6694 H   0  0  0  0  0  0  0  0  0  0  0  0
   -4.0433   -3.7186   -0.4486 H   0  0  0  0  0  0  0  0  0  0  0  0
   -2.7532   -2.5046    0.7444 C   0  0  0  0  0  0  0  0  0  0  0  0
   -1.9803   -2.8096    1.6434 O   0  0  0  0  0  0  0  0  0  0  0  0
   -2.5332   -1.4966   -0.0966 N   0  0  0  0  0  0  0  0  0  0  0  0
   -3.2312   -1.2816   -0.7936 H   0  0  0  0  0  0  0  0  0  0  0  0
   -1.3593   -0.6196   -0.0536 C   0  0  1  0  0  0  0  0  0  0  0  0
   -0.8788   -0.7266    0.9196 H   0  0  0  0  0  0  0  0  0  0  0  0
   -0.3559   -1.0533   -1.1339 C   0  0  0  0  0  0  0  0  0  0  0  0
    0.4634   -1.5937   -0.6563 H   0  0  0  0  0  0  0  0  0  0  0  0
   -0.8555   -1.7451   -1.8142 H   0  0  0  0  0  0  0  0  0  0  0  0
    0.2338    0.0636   -1.9406 C   0  0  0  0  0  0  0  0  0  0  0  0
    1.5492    0.3648   -2.0233 C   0  0  0  0  0  0  0  0  0  0  0  0
    2.3371   -0.1607   -1.4950 H   0  0  0  0  0  0  0  0  0  0  0  0
    1.7294    1.4224   -2.8931 N   0  0  0  0  0  0  0  0  0  0  0  0
    2.6322    1.8207   -3.1061 H   0  0  0  0  0  0  0  0  0  0  0  0
    0.5329    1.8472   -3.4305 C   0  0  0  0  0  0  0  0  0  0  0  0
    0.1999    2.8429   -4.3600 C   0  0  0  0  0  0  0  0  0  0  0  0
    0.9690    3.4613   -4.7989 H   0  0  0  0  0  0  0  0  0  0  0  0
   -1.1486    3.0258   -4.7110 C   0  0  0  0  0  0  0  0  0  0  0  0
   -1.4244    3.7895   -5.4255 H   0  0  0  0  0  0  0  0  0  0  0  0
   -2.1409    2.2178   -4.1263 C   0  0  0  0  0  0  0  0  0  0  0  0
   -3.1780    2.3675   -4.3930 H   0  0  0  0  0  0  0  0  0  0  0  0
   -1.7948    1.2213   -3.1916 C   0  0  0  0  0  0  0  0  0  0  0  0
   -2.5683    0.6166   -2.7400 H   0  0  0  0  0  0  0  0  0  0  0  0
   -0.4488    1.0085   -2.8228 C   0  0  0  0  0  0  0  0  0  0  0  0
   -1.7617    0.8549   -0.2106 C   0  0  0  0  0  0  0  0  0  0  0  0
   -2.5726    1.1871   -1.0741 O   0  0  0  0  0  0  0  0  0  0  0  0
   -1.1941    1.7377    0.6223 N   0  0  0  0  0  0  0  0  0  0  0  0
   -0.4976    1.3916    1.2669 H   0  0  0  0  0  0  0  0  0  0  0  0
   -1.4666    3.1722    0.6095 C   0  0  0  0  0  0  0  0  0  0  0  0
   -2.5439    3.3427    0.6539 H   0  0  0  0  0  0  0  0  0  0  0  0
   -0.9893    3.6529    1.4644 H   0  0  0  0  0  0  0  0  0  0  0  0
   -1.0808    3.6095   -0.3129 H   0  0  0  0  0  0  0  0  0  0  0  0
  5  6  2  0  0  0  0
  5  7  1  0  0  0  0
  2  3  1  0  0  0  0
  2  4  1  0  0  0  0
  2  5  1  0  0  0  0
  1  2  1  0  0  0  0
 29 30  2  0  0  0  0
 29 31  1  0  0  0  0
 26 27  1  0  0  0  0
 26 28  2  0  0  0  0
 24 25  1  0  0  0  0
 24 26  1  0  0  0  0
 22 23  1  0  0  0  0
 22 24  2  0  0  0  0
 20 21  1  0  0  0  0
 20 22  1  0  0  0  0
 19 20  2  0  0  0  0
 19 28  1  0  0  0  0
 17 18  1  0  0  0  0
 17 19  1  0  0  0  0
 15 16  1  0  0  0  0
 15 17  1  0  0  0  0
 14 15  2  0  0  0  0
 14 28  1  0  0  0  0
 11 12  1  0  0  0  0
 11 13  1  0  0  0  0
 11 14  1  0  0  0  0
  9 10  1  0  0  0  0
  9 11  1  0  0  0  0
  9 29  1  0  0  0  0
  7  8  1  0  0  0  0
  7  9  1  0  0  0  0
 33 34  1  0  0  0  0
 33 35  1  0  0  0  0
 33 36  1  0  0  0  0
 31 32  1  0  0  0  0
 31 33  1  0  0  0  0
M  END
$$$$
default_name
  -OEChem-02102213163D

 36 37  0     1  0  0  0  0  0999 V2000
   -4.0843   -4.0736    1.2944 H   0  0  0  0  0  0  0  0  0  0  0  0
   -4.0342   -3.2816    0.5484 C   0  0  0  0  0  0  0  0  0  0  0  0
   -4.8842   -2.6126    0.6694 H   0  0  0  0  0  0  0  0  0  0  0  0
   -4.0433   -3.7186   -0.4486 H   0  0  0  0  0  0  0  0  0  0  0  0
   -2.7532   -2.5046    0.7444 C   0  0  0  0  0  0  0  0  0  0  0  0
   -1.9803   -2.8096    1.6434 O   0  0  0  0  0  0  0  0  0  0  0  0
   -2.5332   -1.4966   -0.0966 N   0  0  0  0  0  0  0  0  0  0  0  0
   -3.2312   -1.2816   -0.7936 H   0  0  0  0  0  0  0  0  0  0  0  0
   -1.3593   -0.6196   -0.0536 C   0  0  1  0  0  0  0  0  0  0  0  0
   -0.8788   -0.7266    0.9196 H   0  0  0  0  0  0  0  0  0  0  0  0
   -0.3559   -1.0533   -1.1339 C   0  0  0  0  0  0  0  0  0  0  0  0
    0.4634   -1.5937   -0.6563 H   0  0  0  0  0  0  0  0  0  0  0  0
   -0.8555   -1.7451   -1.8142 H   0  0  0  0  0  0  0  0  0  0  0  0
    0.2338    0.0636   -1.9406 C   0  0  0  0  0  0  0  0  0  0  0  0
    1.5409    0.1997   -2.2580 C   0  0  0  0  0  0  0  0  0  0  0  0
    2.3257   -0.4808   -1.9465 H   0  0  0  0  0  0  0  0  0  0  0  0
    1.7123    1.3184   -3.0496 N   0  0  0  0  0  0  0  0  0  0  0  0
    2.6091    1.6186   -3.4029 H   0  0  0  0  0  0  0  0  0  0  0  0
    0.5140    1.9536   -3.2970 C   0  0  0  0  0  0  0  0  0  0  0  0
    0.1666    3.0846   -4.0496 C   0  0  0  0  0  0  0  0  0  0  0  0
    0.9244    3.6450   -4.5772 H   0  0  0  0  0  0  0  0  0  0  0  0
   -1.1809    3.4797   -4.1062 C   0  0  0  0  0  0  0  0  0  0  0  0
   -1.4674    4.3501   -4.6808 H   0  0  0  0  0  0  0  0  0  0  0  0
   -2.1567    2.7447   -3.4083 C   0  0  0  0  0  0  0  0  0  0  0  0
   -3.1911    3.0571   -3.4477 H   0  0  0  0  0  0  0  0  0  0  0  0
   -1.7958    1.6107   -2.6533 C   0  0  0  0  0  0  0  0  0  0  0  0
   -2.5534    1.0629   -2.1112 H   0  0  0  0  0  0  0  0  0  0  0  0
   -0.4519    1.1844   -2.5815 C   0  0  0  0  0  0  0  0  0  0  0  0
   -1.7617    0.8549   -0.2106 C   0  0  0  0  0  0  0  0  0  0  0  0
   -2.5726    1.1871   -1.0741 O   0  0  0  0  0  0  0  0  0  0  0  0
   -1.1941    1.7377    0.6223 N   0  0  0  0  0  0  0  0  0  0  0  0
   -0.4976    1.3916    1.2669 H   0  0  0  0  0  0  0  0  0  0  0  0
   -1.4666    3.1722    0.6095 C   0  0  0  0  0  0  0  0  0  0  0  0
   -2.5439    3.3427    0.6539 H   0  0  0  0  0  0  0  0  0  0  0  0
   -0.9893    3.6529    1.4644 H   0  0  0  0  0  0  0  0  0  0  0  0
   -1.0808    3.6095   -0.3129 H   0  0  0  0  0  0  0  0  0  0  0  0
  5  6  2  0  0  0  0
  5  7  1  0  0  0  0
  2  3  1  0  0  0  0
  2  4  1  0  0  0  0
  2  5  1  0  0  0  0
  1  2  1  0  0  0  0
 29 30  2  0  0  0  0
 29 31  1  0  0  0  0
 26 27  1  0  0  0  0
 26 28  2  0  0  0  0
 24 25  1  0  0  0  0
 24 26  1  0  0  0  0
 22 23  1  0  0  0  0
 22 24  2  0  0  0  0
 20 21  1  0  0  0  0
 20 22  1  0  0  0  0
 19 20  2  0  0  0  0
 19 28  1  0  0  0  0
 17 18  1  0  0  0  0
 17 19  1  0  0  0  0
 15 16  1  0  0  0  0
 15 17  1  0  0  0  0
 14 15  2  0  0  0  0
 14 28  1  0  0  0  0
 11 12  1  0  0  0  0
 11 13  1  0  0  0  0
 11 14  1  0  0  0  0
  9 10  1  0  0  0  0
  9 11  1  0  0  0  0
  9 29  1  0  0  0  0
  7  8  1  0  0  0  0
  7  9  1  0  0  0  0
 33 34  1  0  0  0  0
 33 35  1  0  0  0  0
 33 36  1  0  0  0  0
 31 32  1  0  0  0  0
 31 33  1  0  0  0  0
M  END
$$$$
default_name
  -OEChem-02102213163D

 36 37  0     1  0  0  0  0  0999 V2000
   -4.0843   -4.0736    1.2944 H   0  0  0  0  0  0  0  0  0  0  0  0
   -4.0342   -3.2816    0.5484 C   0  0  0  0  0  0  0  0  0  0  0  0
   -4.8842   -2.6126    0.6694 H   0  0  0  0  0  0  0  0  0  0  0  0
   -4.0433   -3.7186   -0.4486 H   0  0  0  0  0  0  0  0  0  0  0  0
   -2.7532   -2.5046    0.7444 C   0  0  0  0  0  0  0  0  0  0  0  0
   -1.9803   -2.8096    1.6434 O   0  0  0  0  0  0  0  0  0  0  0  0
   -2.5332   -1.4966   -0.0966 N   0  0  0  0  0  0  0  0  0  0  0  0
   -3.2312   -1.2816   -0.7936 H   0  0  0  0  0  0  0  0  0  0  0  0
   -1.3593   -0.6196   -0.0536 C   0  0  1  0  0  0  0  0  0  0  0  0
   -0.8788   -0.7266    0.9196 H   0  0  0  0  0  0  0  0  0  0  0  0
   -0.3559   -1.0533   -1.1339 C   0  0  0  0  0  0  0  0  0  0  0  0
    0.4634   -1.5937   -0.6563 H   0  0  0  0  0  0  0  0  0  0  0  0
   -0.8555   -1.7451   -1.8142 H   0  0  0  0  0  0  0  0  0  0  0  0
    0.2338    0.0636   -1.9406 C   0  0  0  0  0  0  0  0  0  0  0  0
    1.4646    0.0653   -2.4998 C   0  0  0  0  0  0  0  0  0  0  0  0
    2.1831   -0.7424   -2.4129 H   0  0  0  0  0  0  0  0  0  0  0  0
    1.6512    1.2363   -3.2079 N   0  0  0  0  0  0  0  0  0  0  0  0
    2.5013    1.4568   -3.7058 H   0  0  0  0  0  0  0  0  0  0  0  0
    0.5362    2.0454   -3.1536 C   0  0  0  0  0  0  0  0  0  0  0  0
    0.2280    3.2912   -3.7188 C   0  0  0  0  0  0  0  0  0  0  0  0
    0.9497    3.8060   -4.3358 H   0  0  0  0  0  0  0  0  0  0  0  0
   -1.0322    3.8610   -3.4695 C   0  0  0  0  0  0  0  0  0  0  0  0
   -1.2872    4.8217   -3.8961 H   0  0  0  0  0  0  0  0  0  0  0  0
   -1.9600    3.1828   -2.6580 C   0  0  0  0  0  0  0  0  0  0  0  0
   -2.9253    3.6287   -2.4620 H   0  0  0  0  0  0  0  0  0  0  0  0
   -1.6387    1.9320   -2.0935 C   0  0  0  0  0  0  0  0  0  0  0  0
   -2.3556    1.4279   -1.4612 H   0  0  0  0  0  0  0  0  0  0  0  0
   -0.3838    1.3301   -2.3299 C   0  0  0  0  0  0  0  0  0  0  0  0
   -1.7617    0.8549   -0.2106 C   0  0  0  0  0  0  0  0  0  0  0  0
   -2.5726    1.1871   -1.0741 O   0  0  0  0  0  0  0  0  0  0  0  0
   -1.1941    1.7377    0.6223 N   0  0  0  0  0  0  0  0  0  0  0  0
   -0.4976    1.3916    1.2669 H   0  0  0  0  0  0  0  0  0  0  0  0
   -1.4666    3.1722    0.6095 C   0  0  0  0  0  0  0  0  0  0  0  0
   -2.5439    3.3427    0.6539 H   0  0  0  0  0  0  0  0  0  0  0  0
   -0.9893    3.6529    1.4644 H   0  0  0  0  0  0  0  0  0  0  0  0
   -1.0808    3.6095   -0.3129 H   0  0  0  0  0  0  0  0  0  0  0  0
  5  6  2  0  0  0  0
  5  7  1  0  0  0  0
  2  3  1  0  0  0  0
  2  4  1  0  0  0  0
  2  5  1  0  0  0  0
  1  2  1  0  0  0  0
 29 30  2  0  0  0  0
 29 31  1  0  0  0  0
 26 27  1  0  0  0  0
 26 28  2  0  0  0  0
 24 25  1  0  0  0  0
 24 26  1  0  0  0  0
 22 23  1  0  0  0  0
 22 24  2  0  0  0  0
 20 21  1  0  0  0  0
 20 22  1  0  0  0  0
 19 20  2  0  0  0  0
 19 28  1  0  0  0  0
 17 18  1  0  0  0  0
 17 19  1  0  0  0  0
 15 16  1  0  0  0  0
 15 17  1  0  0  0  0
 14 15  2  0  0  0  0
 14 28  1  0  0  0  0
 11 12  1  0  0  0  0
 11 13  1  0  0  0  0
 11 14  1  0  0  0  0
  9 10  1  0  0  0  0
  9 11  1  0  0  0  0
  9 29  1  0  0  0  0
  7  8  1  0  0  0  0
  7  9  1  0  0  0  0
 33 34  1  0  0  0  0
 33 35  1  0  0  0  0
 33 36  1  0  0  0  0
 31 32  1  0  0  0  0
 31 33  1  0  0  0  0
M  END
$$$$
default_name
  -OEChem-02102213163D

 36 37  0     1  0  0  0  0  0999 V2000
   -4.0843   -4.0736    1.2944 H   0  0  0  0  0  0  0  0  0  0  0  0
   -4.0342   -3.2816    0.5484 C   0  0  0  0  0  0  0  0  0  0  0  0
   -4.8842   -2.6126    0.6694 H   0  0  0  0  0  0  0  0  0  0  0  0
   -4.0433   -3.7186   -0.4486 H   0  0  0  0  0  0  0  0  0  0  0  0
   -2.7532   -2.5046    0.7444 C   0  0  0  0  0  0  0  0  0  0  0  0
   -1.9803   -2.8096    1.6434 O   0  0  0  0  0  0  0  0  0  0  0  0
   -2.5332   -1.4966   -0.0966 N   0  0  0  0  0  0  0  0  0  0  0  0
   -3.2312   -1.2816   -0.7936 H   0  0  0  0  0  0  0  0  0  0  0  0
   -1.3593   -0.6196   -0.0536 C   0  0  1  0  0  0  0  0  0  0  0  0
   -0.8788   -0.7266    0.9196 H   0  0  0  0  0  0  0  0  0  0  0  0
   -0.3559   -1.0533   -1.1339 C   0  0  0  0  0  0  0  0  0  0  0  0
    0.4634   -1.5937   -0.6563 H   0  0  0  0  0  0  0  0  0  0  0  0
   -0.8555   -1.7451   -1.8142 H   0  0  0  0  0  0  0  0  0  0  0  0
    0.2338    0.0636   -1.9406 C   0  0  0  0  0  0  0  0  0  0  0  0
    1.3256   -0.0293   -2.7324 C   0  0  0  0  0  0  0  0  0  0  0  0
    1.9189   -0.9278   -2.8626 H   0  0  0  0  0  0  0  0  0  0  0  0
    1.5502    1.1816   -3.3575 N   0  0  0  0  0  0  0  0  0  0  0  0
    2.3163    1.3463   -3.9940 H   0  0  0  0  0  0  0  0  0  0  0  0
    0.5982    2.1164   -3.0100 C   0  0  0  0  0  0  0  0  0  0  0  0
    0.3799    3.4484   -3.3900 C   0  0  0  0  0  0  0  0  0  0  0  0
    1.0431    3.9334   -4.0912 H   0  0  0  0  0  0  0  0  0  0  0  0
   -0.7126    4.1438   -2.8443 C   0  0  0  0  0  0  0  0  0  0  0  0
   -0.8961    5.1722   -3.1249 H   0  0  0  0  0  0  0  0  0  0  0  0
   -1.5643    3.5021   -1.9266 C   0  0  0  0  0  0  0  0  0  0  0  0
   -2.3988    4.0435   -1.5029 H   0  0  0  0  0  0  0  0  0  0  0  0
   -1.3342    2.1636   -1.5504 C   0  0  0  0  0  0  0  0  0  0  0  0
   -1.9884    1.6868   -0.8343 H   0  0  0  0  0  0  0  0  0  0  0  0
   -0.2492    1.4358   -2.0853 C   0  0  0  0  0  0  0  0  0  0  0  0
   -1.7617    0.8549   -0.2106 C   0  0  0  0  0  0  0  0  0  0  0  0
   -2.5726    1.1871   -1.0741 O   0  0  0  0  0  0  0  0  0  0  0  0
   -1.1941    1.7377    0.6223 N   0  0  0  0  0  0  0  0  0  0  0  0
   -0.4976    1.3916    1.2669 H   0  0  0  0  0  0  0  0  0  0  0  0
   -1.4666    3.1722    0.6095 C   0  0  0  0  0  0  0  0  0  0  0  0
   -2.5439    3.3427    0.6539 H   0  0  0  0  0  0  0  0  0  0  0  0
   -0.9893    3.6529    1.4644 H   0  0  0  0  0  0  0  0  0  0  0  0
   -1.0808    3.6095   -0.3129 H   0  0  0  0  0  0  0  0  0  0  0  0
  5  6  2  0  0  0  0
  5  7  1  0  0  0  0
  2  3  1  0  0  0  0
  2  4  1  0  0  0  0
  2  5  1  0  0  0  0
  1  2  1  0  0  0  0
 29 30  2  0  0  0  0
 29 31  1  0  0  0  0
 26 27  1  0  0  0  0
 26 28  2  0  0  0  0
 24 25  1  0  0  0  0
 24 26  1  0  0  0  0
 22 23  1  0  0  0  0
 22 24  2  0  0  0  0
 20 21  1  0  0  0  0
 20 22  1  0  0  0  0
 19 20  2  0  0  0  0
 19 28  1  0  0  0  0
 17 18  1  0  0  0  0
 17 19  1  0  0  0  0
 15 16  1  0  0  0  0
 15 17  1  0  0  0  0
 14 15  2  0  0  0  0
 14 28  1  0  0  0  0
 11 12  1  0  0  0  0
 11 13  1  0  0  0  0
 11 14  1  0  0  0  0
  9 10  1  0  0  0  0
  9 11  1  0  0  0  0
  9 29  1  0  0  0  0
  7  8  1  0  0  0  0
  7  9  1  0  0  0  0
 33 34  1  0  0  0  0
 33 35  1  0  0  0  0
 33 36  1  0  0  0  0
 31 32  1  0  0  0  0
 31 33  1  0  0  0  0
M  END
$$$$
default_name
  -OEChem-02102213163D

 36 37  0     1  0  0  0  0  0999 V2000
   -4.0843   -4.0736    1.2944 H   0  0  0  0  0  0  0  0  0  0  0  0
   -4.0342   -3.2816    0.5484 C   0  0  0  0  0  0  0  0  0  0  0  0
   -4.8842   -2.6126    0.6694 H   0  0  0  0  0  0  0  0  0  0  0  0
   -4.0433   -3.7186   -0.4486 H   0  0  0  0  0  0  0  0  0  0  0  0
   -2.7532   -2.5046    0.7444 C   0  0  0  0  0  0  0  0  0  0  0  0
   -1.9803   -2.8096    1.6434 O   0  0  0  0  0  0  0  0  0  0  0  0
   -2.5332   -1.4966   -0.0966 N   0  0  0  0  0  0  0  0  0  0  0  0
   -3.2312   -1.2816   -0.7936 H   0  0  0  0  0  0  0  0  0  0  0  0
   -1.3593   -0.6196   -0.0536 C   0  0  1  0  0  0  0  0  0  0  0  0
   -0.8788   -0.7266    0.9196 H   0  0  0  0  0  0  0  0  0  0  0  0
   -0.3559   -1.0533   -1.1339 C   0  0  0  0  0  0  0  0  0  0  0  0
    0.3101   -1.8084   -0.7125 H   0  0  0  0  0  0  0  0  0  0  0  0
   -0.9069   -1.5190   -1.9528 H   0  0  0  0  0  0  0  0  0  0  0  0
    0.4900    0.0485   -1.6965 C   0  0  0  0  0  0  0  0  0  0  0  0
    1.4357   -0.0955   -2.6519 C   0  0  0  0  0  0  0  0  0  0  0  0
    1.7080   -1.0383   -3.1136 H   0  0  0  0  0  0  0  0  0  0  0  0
    1.9786    1.1371   -2.9571 N   0  0  0  0  0  0  0  0  0  0  0  0
    2.7078    1.2703   -3.6425 H   0  0  0  0  0  0  0  0  0  0  0  0
    1.3943    2.1456   -2.2207 C   0  0  0  0  0  0  0  0  0  0  0  0
    1.5740    3.5359   -2.1883 C   0  0  0  0  0  0  0  0  0  0  0  0
    2.3005    4.0092   -2.8323 H   0  0  0  0  0  0  0  0  0  0  0  0
    0.7968    4.3044   -1.3049 C   0  0  0  0  0  0  0  0  0  0  0  0
    0.9223    5.3780   -1.2653 H   0  0  0  0  0  0  0  0  0  0  0  0
   -0.1409    3.6742   -0.4665 C   0  0  0  0  0  0  0  0  0  0  0  0
   -0.7308    4.2684    0.2176 H   0  0  0  0  0  0  0  0  0  0  0  0
   -0.3116    2.2758   -0.5061 C   0  0  0  0  0  0  0  0  0  0  0  0
   -1.0260    1.8029    0.1528 H   0  0  0  0  0  0  0  0  0  0  0  0
    0.4491    1.4765   -1.3867 C   0  0  0  0  0  0  0  0  0  0  0  0
   -1.7617    0.8549   -0.2106 C   0  0  0  0  0  0  0  0  0  0  0  0
   -2.5726    1.1871   -1.0741 O   0  0  0  0  0  0  0  0  0  0  0  0
   -1.1941    1.7377    0.6223 N   0  0  0  0  0  0  0  0  0  0  0  0
   -0.4976    1.3916    1.2669 H   0  0  0  0  0  0  0  0  0  0  0  0
   -1.4666    3.1722    0.6095 C   0  0  0  0  0  0  0  0  0  0  0  0
   -2.5439    3.3427    0.6539 H   0  0  0  0  0  0  0  0  0  0  0  0
   -0.9893    3.6529    1.4644 H   0  0  0  0  0  0  0  0  0  0  0  0
   -1.0808    3.6095   -0.3129 H   0  0  0  0  0  0  0  0  0  0  0  0
  5  6  2  0  0  0  0
  5  7  1  0  0  0  0
  2  3  1  0  0  0  0
  2  4  1  0  0  0  0
  2  5  1  0  0  0  0
  1  2  1  0  0  0  0
 29 30  2  0  0  0  0
 29 31  1  0  0  0  0
 26 27  1  0  0  0  0
 26 28  2  0  0  0  0
 24 25  1  0  0  0  0
 24 26  1  0  0  0  0
 22 23  1  0  0  0  0
 22 24  2  0  0  0  0
 20 21  1  0  0  0  0
 20 22  1  0  0  0  0
 19 20  2  0  0  0  0
 19 28  1  0  0  0  0
 17 18  1  0  0  0  0
 17 19  1  0  0  0  0
 15 16  1  0  0  0  0
 15 17  1  0  0  0  0
 14 15  2  0  0  0  0
 14 28  1  0  0  0  0
 11 12  1  0  0  0  0
 11 13  1  0  0  0  0
 11 14  1  0  0  0  0
  9 10  1  0  0  0  0
  9 11  1  0  0  0  0
  9 29  1  0  0  0  0
  7  8  1  0  0  0  0
  7  9  1  0  0  0  0
 33 34  1  0  0  0  0
 33 35  1  0  0  0  0
 33 36  1  0  0  0  0
 31 32  1  0  0  0  0
 31 33  1  0  0  0  0
M  END
$$$$
default_name
  -OEChem-02102213163D

 36 37  0     1  0  0  0  0  0999 V2000
   -4.0843   -4.0736    1.2944 H   0  0  0  0  0  0  0  0  0  0  0  0
   -4.0342   -3.2816    0.5484 C   0  0  0  0  0  0  0  0  0  0  0  0
   -4.8842   -2.6126    0.6694 H   0  0  0  0  0  0  0  0  0  0  0  0
   -4.0433   -3.7186   -0.4486 H   0  0  0  0  0  0  0  0  0  0  0  0
   -2.7532   -2.5046    0.7444 C   0  0  0  0  0  0  0  0  0  0  0  0
   -1.9803   -2.8096    1.6434 O   0  0  0  0  0  0  0  0  0  0  0  0
   -2.5332   -1.4966   -0.0966 N   0  0  0  0  0  0  0  0  0  0  0  0
   -3.2312   -1.2816   -0.7936 H   0  0  0  0  0  0  0  0  0  0  0  0
   -1.3593   -0.6196   -0.0536 C   0  0  1  0  0  0  0  0  0  0  0  0
   -0.8788   -0.7266    0.9196 H   0  0  0  0  0  0  0  0  0  0  0  0
   -0.3559   -1.0533   -1.1339 C   0  0  0  0  0  0  0  0  0  0  0  0
    0.3101   -1.8084   -0.7125 H   0  0  0  0  0  0  0  0  0  0  0  0
   -0.9069   -1.5190   -1.9528 H   0  0  0  0  0  0  0  0  0  0  0  0
    0.4900    0.0485   -1.6965 C   0  0  0  0  0  0  0  0  0  0  0  0
    1.2228   -0.0233   -2.8304 C   0  0  0  0  0  0  0  0  0  0  0  0
    1.2993   -0.9021   -3.4612 H   0  0  0  0  0  0  0  0  0  0  0  0
    1.8345    1.1925   -3.0654 N   0  0  0  0  0  0  0  0  0  0  0  0
    2.4361    1.3696   -3.8565 H   0  0  0  0  0  0  0  0  0  0  0  0
    1.5108    2.1192   -2.0973 C   0  0  0  0  0  0  0  0  0  0  0  0
    1.8470    3.4678   -1.9113 C   0  0  0  0  0  0  0  0  0  0  0  0
    2.4914    3.9734   -2.6153 H   0  0  0  0  0  0  0  0  0  0  0  0
    1.3351    4.1514   -0.7952 C   0  0  0  0  0  0  0  0  0  0  0  0
    1.5844    5.1916   -0.6349 H   0  0  0  0  0  0  0  0  0  0  0  0
    0.5025    3.4785    0.1177 C   0  0  0  0  0  0  0  0  0  0  0  0
    0.1176    4.0060    0.9795 H   0  0  0  0  0  0  0  0  0  0  0  0
    0.1728    2.1224   -0.0782 C   0  0  0  0  0  0  0  0  0  0  0  0
   -0.4570    1.6138    0.6379 H   0  0  0  0  0  0  0  0  0  0  0  0
    0.6658    1.4094   -1.1925 C   0  0  0  0  0  0  0  0  0  0  0  0
   -1.7617    0.8549   -0.2106 C   0  0  0  0  0  0  0  0  0  0  0  0
   -2.5726    1.1871   -1.0741 O   0  0  0  0  0  0  0  0  0  0  0  0
   -1.1941    1.7377    0.6223 N   0  0  0  0  0  0  0  0  0  0  0  0
   -0.4976    1.3916    1.2669 H   0  0  0  0  0  0  0  0  0  0  0  0
   -1.4666    3.1722    0.6095 C   0  0  0  0  0  0  0  0  0  0  0  0
   -2.5439    3.3427    0.6539 H   0  0  0  0  0  0  0  0  0  0  0  0
   -0.9893    3.6529    1.4644 H   0  0  0  0  0  0  0  0  0  0  0  0
   -1.0808    3.6095   -0.3129 H   0  0  0  0  0  0  0  0  0  0  0  0
  5  6  2  0  0  0  0
  5  7  1  0  0  0  0
  2  3  1  0  0  0  0
  2  4  1  0  0  0  0
  2  5  1  0  0  0  0
  1  2  1  0  0  0  0
 29 30  2  0  0  0  0
 29 31  1  0  0  0  0
 26 27  1  0  0  0  0
 26 28  2  0  0  0  0
 24 25  1  0  0  0  0
 24 26  1  0  0  0  0
 22 23  1  0  0  0  0
 22 24  2  0  0  0  0
 20 21  1  0  0  0  0
 20 22  1  0  0  0  0
 19 20  2  0  0  0  0
 19 28  1  0  0  0  0
 17 18  1  0  0  0  0
 17 19  1  0  0  0  0
 15 16  1  0  0  0  0
 15 17  1  0  0  0  0
 14 15  2  0  0  0  0
 14 28  1  0  0  0  0
 11 12  1  0  0  0  0
 11 13  1  0  0  0  0
 11 14  1  0  0  0  0
  9 10  1  0  0  0  0
  9 11  1  0  0  0  0
  9 29  1  0  0  0  0
  7  8  1  0  0  0  0
  7  9  1  0  0  0  0
 33 34  1  0  0  0  0
 33 35  1  0  0  0  0
 33 36  1  0  0  0  0
 31 32  1  0  0  0  0
 31 33  1  0  0  0  0
M  END
$$$$
default_name
  -OEChem-02102213163D

 36 37  0     1  0  0  0  0  0999 V2000
   -4.0843   -4.0736    1.2944 H   0  0  0  0  0  0  0  0  0  0  0  0
   -4.0342   -3.2816    0.5484 C   0  0  0  0  0  0  0  0  0  0  0  0
   -4.8842   -2.6126    0.6694 H   0  0  0  0  0  0  0  0  0  0  0  0
   -4.0433   -3.7186   -0.4486 H   0  0  0  0  0  0  0  0  0  0  0  0
   -2.7532   -2.5046    0.7444 C   0  0  0  0  0  0  0  0  0  0  0  0
   -1.9803   -2.8096    1.6434 O   0  0  0  0  0  0  0  0  0  0  0  0
   -2.5332   -1.4966   -0.0966 N   0  0  0  0  0  0  0  0  0  0  0  0
   -3.2312   -1.2816   -0.7936 H   0  0  0  0  0  0  0  0  0  0  0  0
   -1.3593   -0.6196   -0.0536 C   0  0  1  0  0  0  0  0  0  0  0  0
   -0.8788   -0.7266    0.9196 H   0  0  0  0  0  0  0  0  0  0  0  0
   -0.3559   -1.0533   -1.1339 C   0  0  0  0  0  0  0  0  0  0  0  0
    0.3101   -1.8084   -0.7125 H   0  0  0  0  0  0  0  0  0  0  0  0
   -0.9069   -1.5190   -1.9528 H   0  0  0  0  0  0  0  0  0  0  0  0
    0.4900    0.0485   -1.6965 C   0  0  0  0  0  0  0  0  0  0  0  0
    0.9903    0.0933   -2.9517 C   0  0  0  0  0  0  0  0  0  0  0  0
    0.8517   -0.6800   -3.6993 H   0  0  0  0  0  0  0  0  0  0  0  0
    1.6800    1.2758   -3.1345 N   0  0  0  0  0  0  0  0  0  0  0  0
    2.1426    1.5232   -3.9971 H   0  0  0  0  0  0  0  0  0  0  0  0
    1.6442    2.0643   -2.0041 C   0  0  0  0  0  0  0  0  0  0  0  0
    2.1567    3.3350   -1.7056 C   0  0  0  0  0  0  0  0  0  0  0  0
    2.7136    3.8886   -2.4472 H   0  0  0  0  0  0  0  0  0  0  0  0
    1.9372    3.8769   -0.4277 C   0  0  0  0  0  0  0  0  0  0  0  0
    2.3258    4.8551   -0.1791 H   0  0  0  0  0  0  0  0  0  0  0  0
    1.2161    3.1417    0.5309 C   0  0  0  0  0  0  0  0  0  0  0  0
    1.0566    3.5589    1.5156 H   0  0  0  0  0  0  0  0  0  0  0  0
    0.7073    1.8646    0.2205 C   0  0  0  0  0  0  0  0  0  0  0  0
    0.1666    1.3049    0.9705 H   0  0  0  0  0  0  0  0  0  0  0  0
    0.9054    1.2951   -1.0560 C   0  0  0  0  0  0  0  0  0  0  0  0
   -1.7617    0.8549   -0.2106 C   0  0  0  0  0  0  0  0  0  0  0  0
   -2.5726    1.1871   -1.0741 O   0  0  0  0  0  0  0  0  0  0  0  0
   -1.1941    1.7377    0.6223 N   0  0  0  0  0  0  0  0  0  0  0  0
   -0.4976    1.3916    1.2669 H   0  0  0  0  0  0  0  0  0  0  0  0
   -1.4666    3.1722    0.6095 C   0  0  0  0  0  0  0  0  0  0  0  0
   -2.5439    3.3427    0.6539 H   0  0  0  0  0  0  0  0  0  0  0  0
   -0.9893    3.6529    1.4644 H   0  0  0  0  0  0  0  0  0  0  0  0
   -1.0808    3.6095   -0.3129 H   0  0  0  0  0  0  0  0  0  0  0  0
  5  6  2  0  0  0  0
  5  7  1  0  0  0  0
  2  3  1  0  0  0  0
  2  4  1  0  0  0  0
  2  5  1  0  0  0  0
  1  2  1  0  0  0  0
 29 30  2  0  0  0  0
 29 31  1  0  0  0  0
 26 27  1  0  0  0  0
 26 28  2  0  0  0  0
 24 25  1  0  0  0  0
 24 26  1  0  0  0  0
 22 23  1  0  0  0  0
 22 24  2  0  0  0  0
 20 21  1  0  0  0  0
 20 22  1  0  0  0  0
 19 20  2  0  0  0  0
 19 28  1  0  0  0  0
 17 18  1  0  0  0  0
 17 19  1  0  0  0  0
 15 16  1  0  0  0  0
 15 17  1  0  0  0  0
 14 15  2  0  0  0  0
 14 28  1  0  0  0  0
 11 12  1  0  0  0  0
 11 13  1  0  0  0  0
 11 14  1  0  0  0  0
  9 10  1  0  0  0  0
  9 11  1  0  0  0  0
  9 29  1  0  0  0  0
  7  8  1  0  0  0  0
  7  9  1  0  0  0  0
 33 34  1  0  0  0  0
 33 35  1  0  0  0  0
 33 36  1  0  0  0  0
 31 32  1  0  0  0  0
 31 33  1  0  0  0  0
M  END
$$$$
default_name
  -OEChem-02102213163D

 36 37  0     1  0  0  0  0  0999 V2000
   -4.0843   -4.0736    1.2944 H   0  0  0  0  0  0  0  0  0  0  0  0
   -4.0342   -3.2816    0.5484 C   0  0  0  0  0  0  0  0  0  0  0  0
   -4.8842   -2.6126    0.6694 H   0  0  0  0  0  0  0  0  0  0  0  0
   -4.0433   -3.7186   -0.4486 H   0  0  0  0  0  0  0  0  0  0  0  0
   -2.7532   -2.5046    0.7444 C   0  0  0  0  0  0  0  0  0  0  0  0
   -1.9803   -2.8096    1.6434 O   0  0  0  0  0  0  0  0  0  0  0  0
   -2.5332   -1.4966   -0.0966 N   0  0  0  0  0  0  0  0  0  0  0  0
   -3.2312   -1.2816   -0.7936 H   0  0  0  0  0  0  0  0  0  0  0  0
   -1.3593   -0.6196   -0.0536 C   0  0  1  0  0  0  0  0  0  0  0  0
   -0.8788   -0.7266    0.9196 H   0  0  0  0  0  0  0  0  0  0  0  0
   -0.3559   -1.0533   -1.1339 C   0  0  0  0  0  0  0  0  0  0  0  0
    0.3101   -1.8084   -0.7125 H   0  0  0  0  0  0  0  0  0  0  0  0
   -0.9069   -1.5190   -1.9528 H   0  0  0  0  0  0  0  0  0  0  0  0
    0.4900    0.0485   -1.6965 C   0  0  0  0  0  0  0  0  0  0  0  0
    0.7539    0.2462   -3.0076 C   0  0  0  0  0  0  0  0  0  0  0  0
    0.3956   -0.3872   -3.8117 H   0  0  0  0  0  0  0  0  0  0  0  0
    1.5258    1.3814   -3.1597 N   0  0  0  0  0  0  0  0  0  0  0  0
    1.8472    1.7206   -4.0546 H   0  0  0  0  0  0  0  0  0  0  0  0
    1.7855    1.9847   -1.9476 C   0  0  0  0  0  0  0  0  0  0  0  0
    2.4822    3.1465   -1.5854 C   0  0  0  0  0  0  0  0  0  0  0  0
    2.9521    3.7606   -2.3395 H   0  0  0  0  0  0  0  0  0  0  0  0
    2.5620    3.4995   -0.2274 C   0  0  0  0  0  0  0  0  0  0  0  0
    3.0960    4.3915    0.0709 H   0  0  0  0  0  0  0  0  0  0  0  0
    1.9513    2.6866    0.7451 C   0  0  0  0  0  0  0  0  0  0  0  0
    2.0222    2.9574    1.7895 H   0  0  0  0  0  0  0  0  0  0  0  0
    1.2553    1.5200    0.3697 C   0  0  0  0  0  0  0  0  0  0  0  0
    0.8022    0.8974    1.1281 H   0  0  0  0  0  0  0  0  0  0  0  0
    1.1518    1.1415   -0.9863 C   0  0  0  0  0  0  0  0  0  0  0  0
   -1.7617    0.8549   -0.2106 C   0  0  0  0  0  0  0  0  0  0  0  0
   -2.5726    1.1871   -1.0741 O   0  0  0  0  0  0  0  0  0  0  0  0
   -1.1941    1.7377    0.6223 N   0  0  0  0  0  0  0  0  0  0  0  0
   -0.4976    1.3916    1.2669 H   0  0  0  0  0  0  0  0  0  0  0  0
   -1.4666    3.1722    0.6095 C   0  0  0  0  0  0  0  0  0  0  0  0
   -2.5439    3.3427    0.6539 H   0  0  0  0  0  0  0  0  0  0  0  0
   -0.9893    3.6529    1.4644 H   0  0  0  0  0  0  0  0  0  0  0  0
   -1.0808    3.6095   -0.3129 H   0  0  0  0  0  0  0  0  0  0  0  0
  5  6  2  0  0  0  0
  5  7  1  0  0  0  0
  2  3  1  0  0  0  0
  2  4  1  0  0  0  0
  2  5  1  0  0  0  0
  1  2  1  0  0  0  0
 29 30  2  0  0  0  0
 29 31  1  0  0  0  0
 26 27  1  0  0  0  0
 26 28  2  0  0  0  0
 24 25  1  0  0  0  0
 24 26  1  0  0  0  0
 22 23  1  0  0  0  0
 22 24  2  0  0  0  0
 20 21  1  0  0  0  0
 20 22  1  0  0  0  0
 19 20  2  0  0  0  0
 19 28  1  0  0  0  0
 17 18  1  0  0  0  0
 17 19  1  0  0  0  0
 15 16  1  0  0  0  0
 15 17  1  0  0  0  0
 14 15  2  0  0  0  0
 14 28  1  0  0  0  0
 11 12  1  0  0  0  0
 11 13  1  0  0  0  0
 11 14  1  0  0  0  0
  9 10  1  0  0  0  0
  9 11  1  0  0  0  0
  9 29  1  0  0  0  0
  7  8  1  0  0  0  0
  7  9  1  0  0  0  0
 33 34  1  0  0  0  0
 33 35  1  0  0  0  0
 33 36  1  0  0  0  0
 31 32  1  0  0  0  0
 31 33  1  0  0  0  0
M  END
$$$$
default_name
  -OEChem-02102213163D

 36 37  0     1  0  0  0  0  0999 V2000
   -4.0843   -4.0736    1.2944 H   0  0  0  0  0  0  0  0  0  0  0  0
   -4.0342   -3.2816    0.5484 C   0  0  0  0  0  0  0  0  0  0  0  0
   -4.8842   -2.6126    0.6694 H   0  0  0  0  0  0  0  0  0  0  0  0
   -4.0433   -3.7186   -0.4486 H   0  0  0  0  0  0  0  0  0  0  0  0
   -2.7532   -2.5046    0.7444 C   0  0  0  0  0  0  0  0  0  0  0  0
   -1.9803   -2.8096    1.6434 O   0  0  0  0  0  0  0  0  0  0  0  0
   -2.5332   -1.4966   -0.0966 N   0  0  0  0  0  0  0  0  0  0  0  0
   -3.2312   -1.2816   -0.7936 H   0  0  0  0  0  0  0  0  0  0  0  0
   -1.3593   -0.6196   -0.0536 C   0  0  1  0  0  0  0  0  0  0  0  0
   -0.8788   -0.7266    0.9196 H   0  0  0  0  0  0  0  0  0  0  0  0
   -0.3559   -1.0533   -1.1339 C   0  0  0  0  0  0  0  0  0  0  0  0
    0.3101   -1.8084   -0.7125 H   0  0  0  0  0  0  0  0  0  0  0  0
   -0.9069   -1.5190   -1.9528 H   0  0  0  0  0  0  0  0  0  0  0  0
    0.4900    0.0485   -1.6965 C   0  0  0  0  0  0  0  0  0  0  0  0
    0.5298    0.4251   -2.9943 C   0  0  0  0  0  0  0  0  0  0  0  0
   -0.0379   -0.0437   -3.7907 H   0  0  0  0  0  0  0  0  0  0  0  0
    1.3823    1.5020   -3.1393 N   0  0  0  0  0  0  0  0  0  0  0  0
    1.5702    1.9484   -4.0250 H   0  0  0  0  0  0  0  0  0  0  0  0
    1.9250    1.8859   -1.9314 C   0  0  0  0  0  0  0  0  0  0  0  0
    2.8011    2.9153   -1.5586 C   0  0  0  0  0  0  0  0  0  0  0  0
    3.1904    3.5980   -2.2996 H   0  0  0  0  0  0  0  0  0  0  0  0
    3.1669    3.0449   -0.2079 C   0  0  0  0  0  0  0  0  0  0  0  0
    3.8425    3.8323    0.0981 H   0  0  0  0  0  0  0  0  0  0  0  0
    2.6580    2.1443    0.7456 C   0  0  0  0  0  0  0  0  0  0  0  0
    2.9486    2.2426    1.7824 H   0  0  0  0  0  0  0  0  0  0  0  0
    1.7796    1.1122    0.3592 C   0  0  0  0  0  0  0  0  0  0  0  0
    1.4065    0.4190    1.0998 H   0  0  0  0  0  0  0  0  0  0  0  0
    1.3881    0.9590   -0.9884 C   0  0  0  0  0  0  0  0  0  0  0  0
   -1.7617    0.8549   -0.2106 C   0  0  0  0  0  0  0  0  0  0  0  0
   -2.5726    1.1871   -1.0741 O   0  0  0  0  0  0  0  0  0  0  0  0
   -1.1941    1.7377    0.6223 N   0  0  0  0  0  0  0  0  0  0  0  0
   -0.4976    1.3916    1.2669 H   0  0  0  0  0  0  0  0  0  0  0  0
   -1.4666    3.1722    0.6095 C   0  0  0  0  0  0  0  0  0  0  0  0
   -2.5439    3.3427    0.6539 H   0  0  0  0  0  0  0  0  0  0  0  0
   -0.9893    3.6529    1.4644 H   0  0  0  0  0  0  0  0  0  0  0  0
   -1.0808    3.6095   -0.3129 H   0  0  0  0  0  0  0  0  0  0  0  0
  5  6  2  0  0  0  0
  5  7  1  0  0  0  0
  2  3  1  0  0  0  0
  2  4  1  0  0  0  0
  2  5  1  0  0  0  0
  1  2  1  0  0  0  0
 29 30  2  0  0  0  0
 29 31  1  0  0  0  0
 26 27  1  0  0  0  0
 26 28  2  0  0  0  0
 24 25  1  0  0  0  0
 24 26  1  0  0  0  0
 22 23  1  0  0  0  0
 22 24  2  0  0  0  0
 20 21  1  0  0  0  0
 20 22  1  0  0  0  0
 19 20  2  0  0  0  0
 19 28  1  0  0  0  0
 17 18  1  0  0  0  0
 17 19  1  0  0  0  0
 15 16  1  0  0  0  0
 15 17  1  0  0  0  0
 14 15  2  0  0  0  0
 14 28  1  0  0  0  0
 11 12  1  0  0  0  0
 11 13  1  0  0  0  0
 11 14  1  0  0  0  0
  9 10  1  0  0  0  0
  9 11  1  0  0  0  0
  9 29  1  0  0  0  0
  7  8  1  0  0  0  0
  7  9  1  0  0  0  0
 33 34  1  0  0  0  0
 33 35  1  0  0  0  0
 33 36  1  0  0  0  0
 31 32  1  0  0  0  0
 31 33  1  0  0  0  0
M  END
$$$$
default_name
  -OEChem-02102213163D

 36 37  0     1  0  0  0  0  0999 V2000
   -4.0843   -4.0736    1.2944 H   0  0  0  0  0  0  0  0  0  0  0  0
   -4.0342   -3.2816    0.5484 C   0  0  0  0  0  0  0  0  0  0  0  0
   -4.8842   -2.6126    0.6694 H   0  0  0  0  0  0  0  0  0  0  0  0
   -4.0433   -3.7186   -0.4486 H   0  0  0  0  0  0  0  0  0  0  0  0
   -2.7532   -2.5046    0.7444 C   0  0  0  0  0  0  0  0  0  0  0  0
   -1.9803   -2.8096    1.6434 O   0  0  0  0  0  0  0  0  0  0  0  0
   -2.5332   -1.4966   -0.0966 N   0  0  0  0  0  0  0  0  0  0  0  0
   -3.2312   -1.2816   -0.7936 H   0  0  0  0  0  0  0  0  0  0  0  0
   -1.3593   -0.6196   -0.0536 C   0  0  1  0  0  0  0  0  0  0  0  0
   -0.8788   -0.7266    0.9196 H   0  0  0  0  0  0  0  0  0  0  0  0
   -0.3559   -1.0533   -1.1339 C   0  0  0  0  0  0  0  0  0  0  0  0
    0.3101   -1.8084   -0.7125 H   0  0  0  0  0  0  0  0  0  0  0  0
   -0.9069   -1.5190   -1.9528 H   0  0  0  0  0  0  0  0  0  0  0  0
    0.4900    0.0485   -1.6965 C   0  0  0  0  0  0  0  0  0  0  0  0
    0.3332    0.6177   -2.9127 C   0  0  0  0  0  0  0  0  0  0  0  0
   -0.4192    0.3272   -3.6377 H   0  0  0  0  0  0  0  0  0  0  0  0
    1.2593    1.6295   -3.0746 N   0  0  0  0  0  0  0  0  0  0  0  0
    1.3304    2.1910   -3.9105 H   0  0  0  0  0  0  0  0  0  0  0  0
    2.0532    1.7745   -1.9568 C   0  0  0  0  0  0  0  0  0  0  0  0
    3.0918    2.6571   -1.6272 C   0  0  0  0  0  0  0  0  0  0  0  0
    3.4124    3.4120   -2.3301 H   0  0  0  0  0  0  0  0  0  0  0  0
    3.7108    2.5443   -0.3706 C   0  0  0  0  0  0  0  0  0  0  0  0
    4.5143    3.2156   -0.0994 H   0  0  0  0  0  0  0  0  0  0  0  0
    3.2880    1.5518    0.5325 C   0  0  0  0  0  0  0  0  0  0  0  0
    3.7726    1.4632    1.4949 H   0  0  0  0  0  0  0  0  0  0  0  0
    2.2443    0.6688    0.1898 C   0  0  0  0  0  0  0  0  0  0  0  0
    1.9383   -0.0977    0.8876 H   0  0  0  0  0  0  0  0  0  0  0  0
    1.5982    0.7601   -1.0621 C   0  0  0  0  0  0  0  0  0  0  0  0
   -1.7617    0.8549   -0.2106 C   0  0  0  0  0  0  0  0  0  0  0  0
   -2.5726    1.1871   -1.0741 O   0  0  0  0  0  0  0  0  0  0  0  0
   -1.1941    1.7377    0.6223 N   0  0  0  0  0  0  0  0  0  0  0  0
   -0.4976    1.3916    1.2669 H   0  0  0  0  0  0  0  0  0  0  0  0
   -1.4666    3.1722    0.6095 C   0  0  0  0  0  0  0  0  0  0  0  0
   -2.5439    3.3427    0.6539 H   0  0  0  0  0  0  0  0  0  0  0  0
   -0.9893    3.6529    1.4644 H   0  0  0  0  0  0  0  0  0  0  0  0
   -1.0808    3.6095   -0.3129 H   0  0  0  0  0  0  0  0  0  0  0  0
  5  6  2  0  0  0  0
  5  7  1  0  0  0  0
  2  3  1  0  0  0  0
  2  4  1  0  0  0  0
  2  5  1  0  0  0  0
  1  2  1  0  0  0  0
 29 30  2  0  0  0  0
 29 31  1  0  0  0  0
 26 27  1  0  0  0  0
 26 28  2  0  0  0  0
 24 25  1  0  0  0  0
 24 26  1  0  0  0  0
 22 23  1  0  0  0  0
 22 24  2  0  0  0  0
 20 21  1  0  0  0  0
 20 22  1  0  0  0  0
 19 20  2  0  0  0  0
 19 28  1  0  0  0  0
 17 18  1  0  0  0  0
 17 19  1  0  0  0  0
 15 16  1  0  0  0  0
 15 17  1  0  0  0  0
 14 15  2  0  0  0  0
 14 28  1  0  0  0  0
 11 12  1  0  0  0  0
 11 13  1  0  0  0  0
 11 14  1  0  0  0  0
  9 10  1  0  0  0  0
  9 11  1  0  0  0  0
  9 29  1  0  0  0  0
  7  8  1  0  0  0  0
  7  9  1  0  0  0  0
 33 34  1  0  0  0  0
 33 35  1  0  0  0  0
 33 36  1  0  0  0  0
 31 32  1  0  0  0  0
 31 33  1  0  0  0  0
M  END
$$$$
default_name
  -OEChem-02102213163D

 36 37  0     1  0  0  0  0  0999 V2000
   -4.0843   -4.0736    1.2944 H   0  0  0  0  0  0  0  0  0  0  0  0
   -4.0342   -3.2816    0.5484 C   0  0  0  0  0  0  0  0  0  0  0  0
   -4.8842   -2.6126    0.6694 H   0  0  0  0  0  0  0  0  0  0  0  0
   -4.0433   -3.7186   -0.4486 H   0  0  0  0  0  0  0  0  0  0  0  0
   -2.7532   -2.5046    0.7444 C   0  0  0  0  0  0  0  0  0  0  0  0
   -1.9803   -2.8096    1.6434 O   0  0  0  0  0  0  0  0  0  0  0  0
   -2.5332   -1.4966   -0.0966 N   0  0  0  0  0  0  0  0  0  0  0  0
   -3.2312   -1.2816   -0.7936 H   0  0  0  0  0  0  0  0  0  0  0  0
   -1.3593   -0.6196   -0.0536 C   0  0  1  0  0  0  0  0  0  0  0  0
   -0.8788   -0.7266    0.9196 H   0  0  0  0  0  0  0  0  0  0  0  0
   -0.3559   -1.0533   -1.1339 C   0  0  0  0  0  0  0  0  0  0  0  0
    0.3101   -1.8084   -0.7125 H   0  0  0  0  0  0  0  0  0  0  0  0
   -0.9069   -1.5190   -1.9528 H   0  0  0  0  0  0  0  0  0  0  0  0
    0.4900    0.0485   -1.6965 C   0  0  0  0  0  0  0  0  0  0  0  0
    0.1776    0.8109   -2.7683 C   0  0  0  0  0  0  0  0  0  0  0  0
   -0.7224    0.7002   -3.3632 H   0  0  0  0  0  0  0  0  0  0  0  0
    1.1651    1.7551   -2.9701 N   0  0  0  0  0  0  0  0  0  0  0  0
    1.1441    2.4319   -3.7188 H   0  0  0  0  0  0  0  0  0  0  0  0
    2.1614    1.6581   -2.0220 C   0  0  0  0  0  0  0  0  0  0  0  0
    3.3345    2.3894   -1.7866 C   0  0  0  0  0  0  0  0  0  0  0  0
    3.6030    3.2152   -2.4290 H   0  0  0  0  0  0  0  0  0  0  0  0
    4.1566    2.0316   -0.7044 C   0  0  0  0  0  0  0  0  0  0  0  0
    5.0658    2.5836   -0.5080 H   0  0  0  0  0  0  0  0  0  0  0  0
    3.7984    0.9493    0.1201 C   0  0  0  0  0  0  0  0  0  0  0  0
    4.4380    0.6722    0.9466 H   0  0  0  0  0  0  0  0  0  0  0  0
    2.6180    0.2201   -0.1271 C   0  0  0  0  0  0  0  0  0  0  0  0
    2.3614   -0.6175    0.5059 H   0  0  0  0  0  0  0  0  0  0  0  0
    1.7679    0.5583   -1.2023 C   0  0  0  0  0  0  0  0  0  0  0  0
   -1.7617    0.8549   -0.2106 C   0  0  0  0  0  0  0  0  0  0  0  0
   -2.5726    1.1871   -1.0741 O   0  0  0  0  0  0  0  0  0  0  0  0
   -1.1941    1.7377    0.6223 N   0  0  0  0  0  0  0  0  0  0  0  0
   -0.4976    1.3916    1.2669 H   0  0  0  0  0  0  0  0  0  0  0  0
   -1.4666    3.1722    0.6095 C   0  0  0  0  0  0  0  0  0  0  0  0
   -2.5439    3.3427    0.6539 H   0  0  0  0  0  0  0  0  0  0  0  0
   -0.9893    3.6529    1.4644 H   0  0  0  0  0  0  0  0  0  0  0  0
   -1.0808    3.6095   -0.3129 H   0  0  0  0  0  0  0  0  0  0  0  0
  5  6  2  0  0  0  0
  5  7  1  0  0  0  0
  2  3  1  0  0  0  0
  2  4  1  0  0  0  0
  2  5  1  0  0  0  0
  1  2  1  0  0  0  0
 29 30  2  0  0  0  0
 29 31  1  0  0  0  0
 26 27  1  0  0  0  0
 26 28  2  0  0  0  0
 24 25  1  0  0  0  0
 24 26  1  0  0  0  0
 22 23  1  0  0  0  0
 22 24  2  0  0  0  0
 20 21  1  0  0  0  0
 20 22  1  0  0  0  0
 19 20  2  0  0  0  0
 19 28  1  0  0  0  0
 17 18  1  0  0  0  0
 17 19  1  0  0  0  0
 15 16  1  0  0  0  0
 15 17  1  0  0  0  0
 14 15  2  0  0  0  0
 14 28  1  0  0  0  0
 11 12  1  0  0  0  0
 11 13  1  0  0  0  0
 11 14  1  0  0  0  0
  9 10  1  0  0  0  0
  9 11  1  0  0  0  0
  9 29  1  0  0  0  0
  7  8  1  0  0  0  0
  7  9  1  0  0  0  0
 33 34  1  0  0  0  0
 33 35  1  0  0  0  0
 33 36  1  0  0  0  0
 31 32  1  0  0  0  0
 31 33  1  0  0  0  0
M  END
$$$$
default_name
  -OEChem-02102213163D

 36 37  0     1  0  0  0  0  0999 V2000
   -4.0843   -4.0736    1.2944 H   0  0  0  0  0  0  0  0  0  0  0  0
   -4.0342   -3.2816    0.5484 C   0  0  0  0  0  0  0  0  0  0  0  0
   -4.8842   -2.6126    0.6694 H   0  0  0  0  0  0  0  0  0  0  0  0
   -4.0433   -3.7186   -0.4486 H   0  0  0  0  0  0  0  0  0  0  0  0
   -2.7532   -2.5046    0.7444 C   0  0  0  0  0  0  0  0  0  0  0  0
   -1.9803   -2.8096    1.6434 O   0  0  0  0  0  0  0  0  0  0  0  0
   -2.5332   -1.4966   -0.0966 N   0  0  0  0  0  0  0  0  0  0  0  0
   -3.2312   -1.2816   -0.7936 H   0  0  0  0  0  0  0  0  0  0  0  0
   -1.3593   -0.6196   -0.0536 C   0  0  1  0  0  0  0  0  0  0  0  0
   -0.8788   -0.7266    0.9196 H   0  0  0  0  0  0  0  0  0  0  0  0
   -0.3559   -1.0533   -1.1339 C   0  0  0  0  0  0  0  0  0  0  0  0
    0.3101   -1.8084   -0.7125 H   0  0  0  0  0  0  0  0  0  0  0  0
   -0.9069   -1.5190   -1.9528 H   0  0  0  0  0  0  0  0  0  0  0  0
    0.4900    0.0485   -1.6965 C   0  0  0  0  0  0  0  0  0  0  0  0
    0.0735    0.9916   -2.5711 C   0  0  0  0  0  0  0  0  0  0  0  0
   -0.9268    1.0498   -2.9859 H   0  0  0  0  0  0  0  0  0  0  0  0
    1.1063    1.8703   -2.8329 N   0  0  0  0  0  0  0  0  0  0  0  0
    1.0240    2.6547   -3.4630 H   0  0  0  0  0  0  0  0  0  0  0  0
    2.2422    1.5447   -2.1225 C   0  0  0  0  0  0  0  0  0  0  0  0
    3.5125    2.1306   -2.0257 C   0  0  0  0  0  0  0  0  0  0  0  0
    3.7491    3.0210   -2.5895 H   0  0  0  0  0  0  0  0  0  0  0  0
    4.4738    1.5418   -1.1865 C   0  0  0  0  0  0  0  0  0  0  0  0
    5.4593    1.9791   -1.1000 H   0  0  0  0  0  0  0  0  0  0  0  0
    4.1544    0.3780   -0.4633 C   0  0  0  0  0  0  0  0  0  0  0  0
    4.8996   -0.0764    0.1748 H   0  0  0  0  0  0  0  0  0  0  0  0
    2.8749   -0.2033   -0.5699 C   0  0  0  0  0  0  0  0  0  0  0  0
    2.6470   -1.1049   -0.0192 H   0  0  0  0  0  0  0  0  0  0  0  0
    1.8854    0.3673   -1.3994 C   0  0  0  0  0  0  0  0  0  0  0  0
   -1.7617    0.8549   -0.2106 C   0  0  0  0  0  0  0  0  0  0  0  0
   -2.5726    1.1871   -1.0741 O   0  0  0  0  0  0  0  0  0  0  0  0
   -1.1941    1.7377    0.6223 N   0  0  0  0  0  0  0  0  0  0  0  0
   -0.4976    1.3916    1.2669 H   0  0  0  0  0  0  0  0  0  0  0  0
   -1.4666    3.1722    0.6095 C   0  0  0  0  0  0  0  0  0  0  0  0
   -2.5439    3.3427    0.6539 H   0  0  0  0  0  0  0  0  0  0  0  0
   -0.9893    3.6529    1.4644 H   0  0  0  0  0  0  0  0  0  0  0  0
   -1.0808    3.6095   -0.3129 H   0  0  0  0  0  0  0  0  0  0  0  0
  5  6  2  0  0  0  0
  5  7  1  0  0  0  0
  2  3  1  0  0  0  0
  2  4  1  0  0  0  0
  2  5  1  0  0  0  0
  1  2  1  0  0  0  0
 29 30  2  0  0  0  0
 29 31  1  0  0  0  0
 26 27  1  0  0  0  0
 26 28  2  0  0  0  0
 24 25  1  0  0  0  0
 24 26  1  0  0  0  0
 22 23  1  0  0  0  0
 22 24  2  0  0  0  0
 20 21  1  0  0  0  0
 20 22  1  0  0  0  0
 19 20  2  0  0  0  0
 19 28  1  0  0  0  0
 17 18  1  0  0  0  0
 17 19  1  0  0  0  0
 15 16  1  0  0  0  0
 15 17  1  0  0  0  0
 14 15  2  0  0  0  0
 14 28  1  0  0  0  0
 11 12  1  0  0  0  0
 11 13  1  0  0  0  0
 11 14  1  0  0  0  0
  9 10  1  0  0  0  0
  9 11  1  0  0  0  0
  9 29  1  0  0  0  0
  7  8  1  0  0  0  0
  7  9  1  0  0  0  0
 33 34  1  0  0  0  0
 33 35  1  0  0  0  0
 33 36  1  0  0  0  0
 31 32  1  0  0  0  0
 31 33  1  0  0  0  0
M  END
$$$$
default_name
  -OEChem-02102213163D

 36 37  0     1  0  0  0  0  0999 V2000
   -4.0843   -4.0736    1.2944 H   0  0  0  0  0  0  0  0  0  0  0  0
   -4.0342   -3.2816    0.5484 C   0  0  0  0  0  0  0  0  0  0  0  0
   -4.8842   -2.6126    0.6694 H   0  0  0  0  0  0  0  0  0  0  0  0
   -4.0433   -3.7186   -0.4486 H   0  0  0  0  0  0  0  0  0  0  0  0
   -2.7532   -2.5046    0.7444 C   0  0  0  0  0  0  0  0  0  0  0  0
   -1.9803   -2.8096    1.6434 O   0  0  0  0  0  0  0  0  0  0  0  0
   -2.5332   -1.4966   -0.0966 N   0  0  0  0  0  0  0  0  0  0  0  0
   -3.2312   -1.2816   -0.7936 H   0  0  0  0  0  0  0  0  0  0  0  0
   -1.3593   -0.6196   -0.0536 C   0  0  1  0  0  0  0  0  0  0  0  0
   -0.8788   -0.7266    0.9196 H   0  0  0  0  0  0  0  0  0  0  0  0
   -0.3559   -1.0533   -1.1339 C   0  0  0  0  0  0  0  0  0  0  0  0
    0.3101   -1.8084   -0.7125 H   0  0  0  0  0  0  0  0  0  0  0  0
   -0.9069   -1.5190   -1.9528 H   0  0  0  0  0  0  0  0  0  0  0  0
    0.4900    0.0485   -1.6965 C   0  0  0  0  0  0  0  0  0  0  0  0
    0.0281    1.1473   -2.3343 C   0  0  0  0  0  0  0  0  0  0  0  0
   -1.0185    1.3523   -2.5315 H   0  0  0  0  0  0  0  0  0  0  0  0
    1.0868    1.9673   -2.6723 N   0  0  0  0  0  0  0  0  0  0  0  0
    0.9783    2.8443   -3.1606 H   0  0  0  0  0  0  0  0  0  0  0  0
    2.2901    1.4421   -2.2516 C   0  0  0  0  0  0  0  0  0  0  0  0
    3.6138    1.8982   -2.3285 C   0  0  0  0  0  0  0  0  0  0  0  0
    3.8409    2.8427   -2.8007 H   0  0  0  0  0  0  0  0  0  0  0  0
    4.6409    1.1084   -1.7841 C   0  0  0  0  0  0  0  0  0  0  0  0
    5.6680    1.4435   -1.8350 H   0  0  0  0  0  0  0  0  0  0  0  0
    4.3317   -0.1231   -1.1781 C   0  0  0  0  0  0  0  0  0  0  0  0
    5.1259   -0.7315   -0.7679 H   0  0  0  0  0  0  0  0  0  0  0  0
    2.9978   -0.5726   -1.1083 C   0  0  0  0  0  0  0  0  0  0  0  0
    2.7756   -1.5267   -0.6519 H   0  0  0  0  0  0  0  0  0  0  0  0
    1.9429    0.2003   -1.6401 C   0  0  0  0  0  0  0  0  0  0  0  0
   -1.7617    0.8549   -0.2106 C   0  0  0  0  0  0  0  0  0  0  0  0
   -2.5726    1.1871   -1.0741 O   0  0  0  0  0  0  0  0  0  0  0  0
   -1.1941    1.7377    0.6223 N   0  0  0  0  0  0  0  0  0  0  0  0
   -0.4976    1.3916    1.2669 H   0  0  0  0  0  0  0  0  0  0  0  0
   -1.4666    3.1722    0.6095 C   0  0  0  0  0  0  0  0  0  0  0  0
   -2.5439    3.3427    0.6539 H   0  0  0  0  0  0  0  0  0  0  0  0
   -0.9893    3.6529    1.4644 H   0  0  0  0  0  0  0  0  0  0  0  0
   -1.0808    3.6095   -0.3129 H   0  0  0  0  0  0  0  0  0  0  0  0
  5  6  2  0  0  0  0
  5  7  1  0  0  0  0
  2  3  1  0  0  0  0
  2  4  1  0  0  0  0
  2  5  1  0  0  0  0
  1  2  1  0  0  0  0
 29 30  2  0  0  0  0
 29 31  1  0  0  0  0
 26 27  1  0  0  0  0
 26 28  2  0  0  0  0
 24 25  1  0  0  0  0
 24 26  1  0  0  0  0
 22 23  1  0  0  0  0
 22 24  2  0  0  0  0
 20 21  1  0  0  0  0
 20 22  1  0  0  0  0
 19 20  2  0  0  0  0
 19 28  1  0  0  0  0
 17 18  1  0  0  0  0
 17 19  1  0  0  0  0
 15 16  1  0  0  0  0
 15 17  1  0  0  0  0
 14 15  2  0  0  0  0
 14 28  1  0  0  0  0
 11 12  1  0  0  0  0
 11 13  1  0  0  0  0
 11 14  1  0  0  0  0
  9 10  1  0  0  0  0
  9 11  1  0  0  0  0
  9 29  1  0  0  0  0
  7  8  1  0  0  0  0
  7  9  1  0  0  0  0
 33 34  1  0  0  0  0
 33 35  1  0  0  0  0
 33 36  1  0  0  0  0
 31 32  1  0  0  0  0
 31 33  1  0  0  0  0
M  END
$$$$
default_name
  -OEChem-02102213163D

 36 37  0     1  0  0  0  0  0999 V2000
   -4.0843   -4.0736    1.2944 H   0  0  0  0  0  0  0  0  0  0  0  0
   -4.0342   -3.2816    0.5484 C   0  0  0  0  0  0  0  0  0  0  0  0
   -4.8842   -2.6126    0.6694 H   0  0  0  0  0  0  0  0  0  0  0  0
   -4.0433   -3.7186   -0.4486 H   0  0  0  0  0  0  0  0  0  0  0  0
   -2.7532   -2.5046    0.7444 C   0  0  0  0  0  0  0  0  0  0  0  0
   -1.9803   -2.8096    1.6434 O   0  0  0  0  0  0  0  0  0  0  0  0
   -2.5332   -1.4966   -0.0966 N   0  0  0  0  0  0  0  0  0  0  0  0
   -3.2312   -1.2816   -0.7936 H   0  0  0  0  0  0  0  0  0  0  0  0
   -1.3593   -0.6196   -0.0536 C   0  0  1  0  0  0  0  0  0  0  0  0
   -0.8788   -0.7266    0.9196 H   0  0  0  0  0  0  0  0  0  0  0  0
   -0.3559   -1.0533   -1.1339 C   0  0  0  0  0  0  0  0  0  0  0  0
    0.3101   -1.8084   -0.7125 H   0  0  0  0  0  0  0  0  0  0  0  0
   -0.9069   -1.5190   -1.9528 H   0  0  0  0  0  0  0  0  0  0  0  0
    0.4900    0.0485   -1.6965 C   0  0  0  0  0  0  0  0  0  0  0  0
    0.0444    1.2677   -2.0742 C   0  0  0  0  0  0  0  0  0  0  0  0
   -0.9912    1.5869   -2.0309 H   0  0  0  0  0  0  0  0  0  0  0  0
    1.1079    2.0395   -2.4993 N   0  0  0  0  0  0  0  0  0  0  0  0
    1.0102    2.9876   -2.8320 H   0  0  0  0  0  0  0  0  0  0  0  0
    2.3018    1.3571   -2.4004 C   0  0  0  0  0  0  0  0  0  0  0  0
    3.6315    1.7081   -2.6741 C   0  0  0  0  0  0  0  0  0  0  0  0
    3.8720    2.6924   -3.0483 H   0  0  0  0  0  0  0  0  0  0  0  0
    4.6465    0.7607   -2.4564 C   0  0  0  0  0  0  0  0  0  0  0  0
    5.6777    1.0133   -2.6629 H   0  0  0  0  0  0  0  0  0  0  0  0
    4.3183   -0.5200   -1.9754 C   0  0  0  0  0  0  0  0  0  0  0  0
    5.1014   -1.2486   -1.8173 H   0  0  0  0  0  0  0  0  0  0  0  0
    2.9781   -0.8626   -1.7056 C   0  0  0  0  0  0  0  0  0  0  0  0
    2.7384   -1.8543   -1.3492 H   0  0  0  0  0  0  0  0  0  0  0  0
    1.9364    0.0685   -1.9080 C   0  0  0  0  0  0  0  0  0  0  0  0
   -1.7617    0.8549   -0.2106 C   0  0  0  0  0  0  0  0  0  0  0  0
   -2.5726    1.1871   -1.0741 O   0  0  0  0  0  0  0  0  0  0  0  0
   -1.1941    1.7377    0.6223 N   0  0  0  0  0  0  0  0  0  0  0  0
   -0.4976    1.3916    1.2669 H   0  0  0  0  0  0  0  0  0  0  0  0
   -1.4666    3.1722    0.6095 C   0  0  0  0  0  0  0  0  0  0  0  0
   -2.5439    3.3427    0.6539 H   0  0  0  0  0  0  0  0  0  0  0  0
   -0.9893    3.6529    1.4644 H   0  0  0  0  0  0  0  0  0  0  0  0
   -1.0808    3.6095   -0.3129 H   0  0  0  0  0  0  0  0  0  0  0  0
  5  6  2  0  0  0  0
  5  7  1  0  0  0  0
  2  3  1  0  0  0  0
  2  4  1  0  0  0  0
  2  5  1  0  0  0  0
  1  2  1  0  0  0  0
 29 30  2  0  0  0  0
 29 31  1  0  0  0  0
 26 27  1  0  0  0  0
 26 28  2  0  0  0  0
 24 25  1  0  0  0  0
 24 26  1  0  0  0  0
 22 23  1  0  0  0  0
 22 24  2  0  0  0  0
 20 21  1  0  0  0  0
 20 22  1  0  0  0  0
 19 20  2  0  0  0  0
 19 28  1  0  0  0  0
 17 18  1  0  0  0  0
 17 19  1  0  0  0  0
 15 16  1  0  0  0  0
 15 17  1  0  0  0  0
 14 15  2  0  0  0  0
 14 28  1  0  0  0  0
 11 12  1  0  0  0  0
 11 13  1  0  0  0  0
 11 14  1  0  0  0  0
  9 10  1  0  0  0  0
  9 11  1  0  0  0  0
  9 29  1  0  0  0  0
  7  8  1  0  0  0  0
  7  9  1  0  0  0  0
 33 34  1  0  0  0  0
 33 35  1  0  0  0  0
 33 36  1  0  0  0  0
 31 32  1  0  0  0  0
 31 33  1  0  0  0  0
M  END
$$$$
default_name
  -OEChem-02102213163D

 36 37  0     1  0  0  0  0  0999 V2000
   -4.0843   -4.0736    1.2944 H   0  0  0  0  0  0  0  0  0  0  0  0
   -4.0342   -3.2816    0.5484 C   0  0  0  0  0  0  0  0  0  0  0  0
   -4.8842   -2.6126    0.6694 H   0  0  0  0  0  0  0  0  0  0  0  0
   -4.0433   -3.7186   -0.4486 H   0  0  0  0  0  0  0  0  0  0  0  0
   -2.7532   -2.5046    0.7444 C   0  0  0  0  0  0  0  0  0  0  0  0
   -1.9803   -2.8096    1.6434 O   0  0  0  0  0  0  0  0  0  0  0  0
   -2.5332   -1.4966   -0.0966 N   0  0  0  0  0  0  0  0  0  0  0  0
   -3.2312   -1.2816   -0.7936 H   0  0  0  0  0  0  0  0  0  0  0  0
   -1.3593   -0.6196   -0.0536 C   0  0  1  0  0  0  0  0  0  0  0  0
   -0.8788   -0.7266    0.9196 H   0  0  0  0  0  0  0  0  0  0  0  0
   -0.3559   -1.0533   -1.1339 C   0  0  0  0  0  0  0  0  0  0  0  0
    0.3101   -1.8084   -0.7125 H   0  0  0  0  0  0  0  0  0  0  0  0
   -0.9069   -1.5190   -1.9528 H   0  0  0  0  0  0  0  0  0  0  0  0
    0.4900    0.0485   -1.6965 C   0  0  0  0  0  0  0  0  0  0  0  0
    0.1213    1.3443   -1.8085 C   0  0  0  0  0  0  0  0  0  0  0  0
   -0.8467    1.7378   -1.5184 H   0  0  0  0  0  0  0  0  0  0  0  0
    1.1682    2.0818   -2.3257 N   0  0  0  0  0  0  0  0  0  0  0  0
    1.1174    3.0749   -2.4998 H   0  0  0  0  0  0  0  0  0  0  0  0
    2.2765    1.2956   -2.5587 C   0  0  0  0  0  0  0  0  0  0  0  0
    3.5644    1.5733   -3.0391 C   0  0  0  0  0  0  0  0  0  0  0  0
    3.8403    2.5803   -3.3152 H   0  0  0  0  0  0  0  0  0  0  0  0
    4.4901    0.5226   -3.1577 C   0  0  0  0  0  0  0  0  0  0  0  0
    5.4878    0.7177   -3.5273 H   0  0  0  0  0  0  0  0  0  0  0  0
    4.1151   -0.7857   -2.8010 C   0  0  0  0  0  0  0  0  0  0  0  0
    4.8279   -1.5924   -2.9018 H   0  0  0  0  0  0  0  0  0  0  0  0
    2.8173   -1.0535   -2.3213 C   0  0  0  0  0  0  0  0  0  0  0  0
    2.5380   -2.0652   -2.0635 H   0  0  0  0  0  0  0  0  0  0  0  0
    1.8663   -0.0191   -2.1847 C   0  0  0  0  0  0  0  0  0  0  0  0
   -1.7617    0.8549   -0.2106 C   0  0  0  0  0  0  0  0  0  0  0  0
   -2.5726    1.1871   -1.0741 O   0  0  0  0  0  0  0  0  0  0  0  0
   -1.1941    1.7377    0.6223 N   0  0  0  0  0  0  0  0  0  0  0  0
   -0.4976    1.3916    1.2669 H   0  0  0  0  0  0  0  0  0  0  0  0
   -1.4666    3.1722    0.6095 C   0  0  0  0  0  0  0  0  0  0  0  0
   -2.5439    3.3427    0.6539 H   0  0  0  0  0  0  0  0  0  0  0  0
   -0.9893    3.6529    1.4644 H   0  0  0  0  0  0  0  0  0  0  0  0
   -1.0808    3.6095   -0.3129 H   0  0  0  0  0  0  0  0  0  0  0  0
  5  6  2  0  0  0  0
  5  7  1  0  0  0  0
  2  3  1  0  0  0  0
  2  4  1  0  0  0  0
  2  5  1  0  0  0  0
  1  2  1  0  0  0  0
 29 30  2  0  0  0  0
 29 31  1  0  0  0  0
 26 27  1  0  0  0  0
 26 28  2  0  0  0  0
 24 25  1  0  0  0  0
 24 26  1  0  0  0  0
 22 23  1  0  0  0  0
 22 24  2  0  0  0  0
 20 21  1  0  0  0  0
 20 22  1  0  0  0  0
 19 20  2  0  0  0  0
 19 28  1  0  0  0  0
 17 18  1  0  0  0  0
 17 19  1  0  0  0  0
 15 16  1  0  0  0  0
 15 17  1  0  0  0  0
 14 15  2  0  0  0  0
 14 28  1  0  0  0  0
 11 12  1  0  0  0  0
 11 13  1  0  0  0  0
 11 14  1  0  0  0  0
  9 10  1  0  0  0  0
  9 11  1  0  0  0  0
  9 29  1  0  0  0  0
  7  8  1  0  0  0  0
  7  9  1  0  0  0  0
 33 34  1  0  0  0  0
 33 35  1  0  0  0  0
 33 36  1  0  0  0  0
 31 32  1  0  0  0  0
 31 33  1  0  0  0  0
M  END
$$$$
default_name
  -OEChem-02102213163D

 36 37  0     1  0  0  0  0  0999 V2000
   -4.0843   -4.0736    1.2944 H   0  0  0  0  0  0  0  0  0  0  0  0
   -4.0342   -3.2816    0.5484 C   0  0  0  0  0  0  0  0  0  0  0  0
   -4.8842   -2.6126    0.6694 H   0  0  0  0  0  0  0  0  0  0  0  0
   -4.0433   -3.7186   -0.4486 H   0  0  0  0  0  0  0  0  0  0  0  0
   -2.7532   -2.5046    0.7444 C   0  0  0  0  0  0  0  0  0  0  0  0
   -1.9803   -2.8096    1.6434 O   0  0  0  0  0  0  0  0  0  0  0  0
   -2.5332   -1.4966   -0.0966 N   0  0  0  0  0  0  0  0  0  0  0  0
   -3.2312   -1.2816   -0.7936 H   0  0  0  0  0  0  0  0  0  0  0  0
   -1.3593   -0.6196   -0.0536 C   0  0  1  0  0  0  0  0  0  0  0  0
   -0.8788   -0.7266    0.9196 H   0  0  0  0  0  0  0  0  0  0  0  0
   -0.3559   -1.0533   -1.1339 C   0  0  0  0  0  0  0  0  0  0  0  0
    0.3101   -1.8084   -0.7125 H   0  0  0  0  0  0  0  0  0  0  0  0
   -0.9069   -1.5190   -1.9528 H   0  0  0  0  0  0  0  0  0  0  0  0
    0.4900    0.0485   -1.6965 C   0  0  0  0  0  0  0  0  0  0  0  0
    0.2536    1.3720   -1.5553 C   0  0  0  0  0  0  0  0  0  0  0  0
   -0.5950    1.7946   -1.0287 H   0  0  0  0  0  0  0  0  0  0  0  0
    1.2636    2.0915   -2.1633 N   0  0  0  0  0  0  0  0  0  0  0  0
    1.2927    3.1003   -2.1866 H   0  0  0  0  0  0  0  0  0  0  0  0
    2.2160    1.2618   -2.7159 C   0  0  0  0  0  0  0  0  0  0  0  0
    3.4170    1.5029   -3.3985 C   0  0  0  0  0  0  0  0  0  0  0  0
    3.7480    2.5142   -3.5835 H   0  0  0  0  0  0  0  0  0  0  0  0
    4.1826    0.4102   -3.8401 C   0  0  0  0  0  0  0  0  0  0  0  0
    5.1111    0.5769   -4.3693 H   0  0  0  0  0  0  0  0  0  0  0  0
    3.7359   -0.9019   -3.5987 C   0  0  0  0  0  0  0  0  0  0  0  0
    4.3239   -1.7395   -3.9475 H   0  0  0  0  0  0  0  0  0  0  0  0
    2.5262   -1.1323   -2.9132 C   0  0  0  0  0  0  0  0  0  0  0  0
    2.1880   -2.1451   -2.7461 H   0  0  0  0  0  0  0  0  0  0  0  0
    1.7375   -0.0564   -2.4514 C   0  0  0  0  0  0  0  0  0  0  0  0
   -1.7617    0.8549   -0.2106 C   0  0  0  0  0  0  0  0  0  0  0  0
   -2.5726    1.1871   -1.0741 O   0  0  0  0  0  0  0  0  0  0  0  0
   -1.1941    1.7377    0.6223 N   0  0  0  0  0  0  0  0  0  0  0  0
   -0.4976    1.3916    1.2669 H   0  0  0  0  0  0  0  0  0  0  0  0
   -1.4666    3.1722    0.6095 C   0  0  0  0  0  0  0  0  0  0  0  0
   -2.5439    3.3427    0.6539 H   0  0  0  0  0  0  0  0  0  0  0  0
   -0.9893    3.6529    1.4644 H   0  0  0  0  0  0  0  0  0  0  0  0
   -1.0808    3.6095   -0.3129 H   0  0  0  0  0  0  0  0  0  0  0  0
  5  6  2  0  0  0  0
  5  7  1  0  0  0  0
  2  3  1  0  0  0  0
  2  4  1  0  0  0  0
  2  5  1  0  0  0  0
  1  2  1  0  0  0  0
 29 30  2  0  0  0  0
 29 31  1  0  0  0  0
 26 27  1  0  0  0  0
 26 28  2  0  0  0  0
 24 25  1  0  0  0  0
 24 26  1  0  0  0  0
 22 23  1  0  0  0  0
 22 24  2  0  0  0  0
 20 21  1  0  0  0  0
 20 22  1  0  0  0  0
 19 20  2  0  0  0  0
 19 28  1  0  0  0  0
 17 18  1  0  0  0  0
 17 19  1  0  0  0  0
 15 16  1  0  0  0  0
 15 17  1  0  0  0  0
 14 15  2  0  0  0  0
 14 28  1  0  0  0  0
 11 12  1  0  0  0  0
 11 13  1  0  0  0  0
 11 14  1  0  0  0  0
  9 10  1  0  0  0  0
  9 11  1  0  0  0  0
  9 29  1  0  0  0  0
  7  8  1  0  0  0  0
  7  9  1  0  0  0  0
 33 34  1  0  0  0  0
 33 35  1  0  0  0  0
 33 36  1  0  0  0  0
 31 32  1  0  0  0  0
 31 33  1  0  0  0  0
M  END
$$$$
default_name
  -OEChem-02102213163D

 36 37  0     1  0  0  0  0  0999 V2000
   -4.0843   -4.0736    1.2944 H   0  0  0  0  0  0  0  0  0  0  0  0
   -4.0342   -3.2816    0.5484 C   0  0  0  0  0  0  0  0  0  0  0  0
   -4.8842   -2.6126    0.6694 H   0  0  0  0  0  0  0  0  0  0  0  0
   -4.0433   -3.7186   -0.4486 H   0  0  0  0  0  0  0  0  0  0  0  0
   -2.7532   -2.5046    0.7444 C   0  0  0  0  0  0  0  0  0  0  0  0
   -1.9803   -2.8096    1.6434 O   0  0  0  0  0  0  0  0  0  0  0  0
   -2.5332   -1.4966   -0.0966 N   0  0  0  0  0  0  0  0  0  0  0  0
   -3.2312   -1.2816   -0.7936 H   0  0  0  0  0  0  0  0  0  0  0  0
   -1.3593   -0.6196   -0.0536 C   0  0  1  0  0  0  0  0  0  0  0  0
   -0.8788   -0.7266    0.9196 H   0  0  0  0  0  0  0  0  0  0  0  0
   -0.3559   -1.0533   -1.1339 C   0  0  0  0  0  0  0  0  0  0  0  0
    0.3101   -1.8084   -0.7125 H   0  0  0  0  0  0  0  0  0  0  0  0
   -0.9069   -1.5190   -1.9528 H   0  0  0  0  0  0  0  0  0  0  0  0
    0.4900    0.0485   -1.6965 C   0  0  0  0  0  0  0  0  0  0  0  0
    0.4323    1.3490   -1.3318 C   0  0  0  0  0  0  0  0  0  0  0  0
   -0.2532    1.7535   -0.5953 H   0  0  0  0  0  0  0  0  0  0  0  0
    1.3876    2.0678   -2.0232 N   0  0  0  0  0  0  0  0  0  0  0  0
    1.5241    3.0621   -1.9136 H   0  0  0  0  0  0  0  0  0  0  0  0
    2.1244    1.2580   -2.8611 C   0  0  0  0  0  0  0  0  0  0  0  0
    3.1994    1.5017   -3.7280 C   0  0  0  0  0  0  0  0  0  0  0  0
    3.6014    2.4985   -3.8346 H   0  0  0  0  0  0  0  0  0  0  0  0
    3.7447    0.4313   -4.4572 C   0  0  0  0  0  0  0  0  0  0  0  0
    4.5734    0.6005   -5.1314 H   0  0  0  0  0  0  0  0  0  0  0  0
    3.2066   -0.8607   -4.3139 C   0  0  0  0  0  0  0  0  0  0  0  0
    3.6238   -1.6799   -4.8831 H   0  0  0  0  0  0  0  0  0  0  0  0
    2.1248   -1.0937   -3.4411 C   0  0  0  0  0  0  0  0  0  0  0  0
    1.7123   -2.0885   -3.3505 H   0  0  0  0  0  0  0  0  0  0  0  0
    1.5587   -0.0409   -2.6900 C   0  0  0  0  0  0  0  0  0  0  0  0
   -1.7617    0.8549   -0.2106 C   0  0  0  0  0  0  0  0  0  0  0  0
   -2.5726    1.1871   -1.0741 O   0  0  0  0  0  0  0  0  0  0  0  0
   -1.1941    1.7377    0.6223 N   0  0  0  0  0  0  0  0  0  0  0  0
   -0.4976    1.3916    1.2669 H   0  0  0  0  0  0  0  0  0  0  0  0
   -1.4666    3.1722    0.6095 C   0  0  0  0  0  0  0  0  0  0  0  0
   -2.5439    3.3427    0.6539 H   0  0  0  0  0  0  0  0  0  0  0  0
   -0.9893    3.6529    1.4644 H   0  0  0  0  0  0  0  0  0  0  0  0
   -1.0808    3.6095   -0.3129 H   0  0  0  0  0  0  0  0  0  0  0  0
  5  6  2  0  0  0  0
  5  7  1  0  0  0  0
  2  3  1  0  0  0  0
  2  4  1  0  0  0  0
  2  5  1  0  0  0  0
  1  2  1  0  0  0  0
 29 30  2  0  0  0  0
 29 31  1  0  0  0  0
 26 27  1  0  0  0  0
 26 28  2  0  0  0  0
 24 25  1  0  0  0  0
 24 26  1  0  0  0  0
 22 23  1  0  0  0  0
 22 24  2  0  0  0  0
 20 21  1  0  0  0  0
 20 22  1  0  0  0  0
 19 20  2  0  0  0  0
 19 28  1  0  0  0  0
 17 18  1  0  0  0  0
 17 19  1  0  0  0  0
 15 16  1  0  0  0  0
 15 17  1  0  0  0  0
 14 15  2  0  0  0  0
 14 28  1  0  0  0  0
 11 12  1  0  0  0  0
 11 13  1  0  0  0  0
 11 14  1  0  0  0  0
  9 10  1  0  0  0  0
  9 11  1  0  0  0  0
  9 29  1  0  0  0  0
  7  8  1  0  0  0  0
  7  9  1  0  0  0  0
 33 34  1  0  0  0  0
 33 35  1  0  0  0  0
 33 36  1  0  0  0  0
 31 32  1  0  0  0  0
 31 33  1  0  0  0  0
M  END
$$$$
default_name
  -OEChem-02102213163D

 36 37  0     1  0  0  0  0  0999 V2000
   -4.0843   -4.0736    1.2944 H   0  0  0  0  0  0  0  0  0  0  0  0
   -4.0342   -3.2816    0.5484 C   0  0  0  0  0  0  0  0  0  0  0  0
   -4.8842   -2.6126    0.6694 H   0  0  0  0  0  0  0  0  0  0  0  0
   -4.0433   -3.7186   -0.4486 H   0  0  0  0  0  0  0  0  0  0  0  0
   -2.7532   -2.5046    0.7444 C   0  0  0  0  0  0  0  0  0  0  0  0
   -1.9803   -2.8096    1.6434 O   0  0  0  0  0  0  0  0  0  0  0  0
   -2.5332   -1.4966   -0.0966 N   0  0  0  0  0  0  0  0  0  0  0  0
   -3.2312   -1.2816   -0.7936 H   0  0  0  0  0  0  0  0  0  0  0  0
   -1.3593   -0.6196   -0.0536 C   0  0  1  0  0  0  0  0  0  0  0  0
   -0.8788   -0.7266    0.9196 H   0  0  0  0  0  0  0  0  0  0  0  0
   -0.3559   -1.0533   -1.1339 C   0  0  0  0  0  0  0  0  0  0  0  0
    0.3101   -1.8084   -0.7125 H   0  0  0  0  0  0  0  0  0  0  0  0
   -0.9069   -1.5190   -1.9528 H   0  0  0  0  0  0  0  0  0  0  0  0
    0.4900    0.0485   -1.6965 C   0  0  0  0  0  0  0  0  0  0  0  0
    0.6451    1.2767   -1.1533 C   0  0  0  0  0  0  0  0  0  0  0  0
    0.1554    1.6173   -0.2477 H   0  0  0  0  0  0  0  0  0  0  0  0
    1.5318    2.0125   -1.9149 N   0  0  0  0  0  0  0  0  0  0  0  0
    1.7958    2.9628   -1.6996 H   0  0  0  0  0  0  0  0  0  0  0  0
    2.0079    1.2844   -2.9845 C   0  0  0  0  0  0  0  0  0  0  0  0
    2.9263    1.5698   -4.0050 C   0  0  0  0  0  0  0  0  0  0  0  0
    3.4105    2.5342   -4.0517 H   0  0  0  0  0  0  0  0  0  0  0  0
    3.2064    0.5843   -4.9669 C   0  0  0  0  0  0  0  0  0  0  0  0
    3.9112    0.7869   -5.7619 H   0  0  0  0  0  0  0  0  0  0  0  0
    2.5632   -0.6651   -4.8981 C   0  0  0  0  0  0  0  0  0  0  0  0
    2.7754   -1.4175   -5.6450 H   0  0  0  0  0  0  0  0  0  0  0  0
    1.6404   -0.9403   -3.8690 C   0  0  0  0  0  0  0  0  0  0  0  0
    1.1433   -1.8994   -3.8356 H   0  0  0  0  0  0  0  0  0  0  0  0
    1.3421    0.0262   -2.8842 C   0  0  0  0  0  0  0  0  0  0  0  0
   -1.7617    0.8549   -0.2106 C   0  0  0  0  0  0  0  0  0  0  0  0
   -2.5726    1.1871   -1.0741 O   0  0  0  0  0  0  0  0  0  0  0  0
   -1.1941    1.7377    0.6223 N   0  0  0  0  0  0  0  0  0  0  0  0
   -0.4976    1.3916    1.2669 H   0  0  0  0  0  0  0  0  0  0  0  0
   -1.4666    3.1722    0.6095 C   0  0  0  0  0  0  0  0  0  0  0  0
   -2.5439    3.3427    0.6539 H   0  0  0  0  0  0  0  0  0  0  0  0
   -0.9893    3.6529    1.4644 H   0  0  0  0  0  0  0  0  0  0  0  0
   -1.0808    3.6095   -0.3129 H   0  0  0  0  0  0  0  0  0  0  0  0
  5  6  2  0  0  0  0
  5  7  1  0  0  0  0
  2  3  1  0  0  0  0
  2  4  1  0  0  0  0
  2  5  1  0  0  0  0
  1  2  1  0  0  0  0
 29 30  2  0  0  0  0
 29 31  1  0  0  0  0
 26 27  1  0  0  0  0
 26 28  2  0  0  0  0
 24 25  1  0  0  0  0
 24 26  1  0  0  0  0
 22 23  1  0  0  0  0
 22 24  2  0  0  0  0
 20 21  1  0  0  0  0
 20 22  1  0  0  0  0
 19 20  2  0  0  0  0
 19 28  1  0  0  0  0
 17 18  1  0  0  0  0
 17 19  1  0  0  0  0
 15 16  1  0  0  0  0
 15 17  1  0  0  0  0
 14 15  2  0  0  0  0
 14 28  1  0  0  0  0
 11 12  1  0  0  0  0
 11 13  1  0  0  0  0
 11 14  1  0  0  0  0
  9 10  1  0  0  0  0
  9 11  1  0  0  0  0
  9 29  1  0  0  0  0
  7  8  1  0  0  0  0
  7  9  1  0  0  0  0
 33 34  1  0  0  0  0
 33 35  1  0  0  0  0
 33 36  1  0  0  0  0
 31 32  1  0  0  0  0
 31 33  1  0  0  0  0
M  END
$$$$
default_name
  -OEChem-02102213163D

 36 37  0     1  0  0  0  0  0999 V2000
   -4.0843   -4.0736    1.2944 H   0  0  0  0  0  0  0  0  0  0  0  0
   -4.0342   -3.2816    0.5484 C   0  0  0  0  0  0  0  0  0  0  0  0
   -4.8842   -2.6126    0.6694 H   0  0  0  0  0  0  0  0  0  0  0  0
   -4.0433   -3.7186   -0.4486 H   0  0  0  0  0  0  0  0  0  0  0  0
   -2.7532   -2.5046    0.7444 C   0  0  0  0  0  0  0  0  0  0  0  0
   -1.9803   -2.8096    1.6434 O   0  0  0  0  0  0  0  0  0  0  0  0
   -2.5332   -1.4966   -0.0966 N   0  0  0  0  0  0  0  0  0  0  0  0
   -3.2312   -1.2816   -0.7936 H   0  0  0  0  0  0  0  0  0  0  0  0
   -1.3593   -0.6196   -0.0536 C   0  0  1  0  0  0  0  0  0  0  0  0
   -0.8788   -0.7266    0.9196 H   0  0  0  0  0  0  0  0  0  0  0  0
   -0.3559   -1.0533   -1.1339 C   0  0  0  0  0  0  0  0  0  0  0  0
    0.3101   -1.8084   -0.7125 H   0  0  0  0  0  0  0  0  0  0  0  0
   -0.9069   -1.5190   -1.9528 H   0  0  0  0  0  0  0  0  0  0  0  0
    0.4900    0.0485   -1.6965 C   0  0  0  0  0  0  0  0  0  0  0  0
    0.8777    1.1601   -1.0320 C   0  0  0  0  0  0  0  0  0  0  0  0
    0.6030    1.3953   -0.0096 H   0  0  0  0  0  0  0  0  0  0  0  0
    1.6862    1.9292   -1.8458 N   0  0  0  0  0  0  0  0  0  0  0  0
    2.0893    2.8092   -1.5590 H   0  0  0  0  0  0  0  0  0  0  0  0
    1.8745    1.3393   -3.0776 C   0  0  0  0  0  0  0  0  0  0  0  0
    2.6166    1.7027   -4.2106 C   0  0  0  0  0  0  0  0  0  0  0  0
    3.1883    2.6190   -4.2198 H   0  0  0  0  0  0  0  0  0  0  0  0
    2.6043    0.8588   -5.3344 C   0  0  0  0  0  0  0  0  0  0  0  0
    3.1698    1.1234   -6.2176 H   0  0  0  0  0  0  0  0  0  0  0  0
    1.8496   -0.3282   -5.3113 C   0  0  0  0  0  0  0  0  0  0  0  0
    1.8363   -0.9704   -6.1811 H   0  0  0  0  0  0  0  0  0  0  0  0
    1.1059   -0.6825   -4.1678 C   0  0  0  0  0  0  0  0  0  0  0  0
    0.5198   -1.5905   -4.1682 H   0  0  0  0  0  0  0  0  0  0  0  0
    1.1024    0.1405   -3.0208 C   0  0  0  0  0  0  0  0  0  0  0  0
   -1.7617    0.8549   -0.2106 C   0  0  0  0  0  0  0  0  0  0  0  0
   -2.5726    1.1871   -1.0741 O   0  0  0  0  0  0  0  0  0  0  0  0
   -1.1941    1.7377    0.6223 N   0  0  0  0  0  0  0  0  0  0  0  0
   -0.4976    1.3916    1.2669 H   0  0  0  0  0  0  0  0  0  0  0  0
   -1.4666    3.1722    0.6095 C   0  0  0  0  0  0  0  0  0  0  0  0
   -2.5439    3.3427    0.6539 H   0  0  0  0  0  0  0  0  0  0  0  0
   -0.9893    3.6529    1.4644 H   0  0  0  0  0  0  0  0  0  0  0  0
   -1.0808    3.6095   -0.3129 H   0  0  0  0  0  0  0  0  0  0  0  0
  5  6  2  0  0  0  0
  5  7  1  0  0  0  0
  2  3  1  0  0  0  0
  2  4  1  0  0  0  0
  2  5  1  0  0  0  0
  1  2  1  0  0  0  0
 29 30  2  0  0  0  0
 29 31  1  0  0  0  0
 26 27  1  0  0  0  0
 26 28  2  0  0  0  0
 24 25  1  0  0  0  0
 24 26  1  0  0  0  0
 22 23  1  0  0  0  0
 22 24  2  0  0  0  0
 20 21  1  0  0  0  0
 20 22  1  0  0  0  0
 19 20  2  0  0  0  0
 19 28  1  0  0  0  0
 17 18  1  0  0  0  0
 17 19  1  0  0  0  0
 15 16  1  0  0  0  0
 15 17  1  0  0  0  0
 14 15  2  0  0  0  0
 14 28  1  0  0  0  0
 11 12  1  0  0  0  0
 11 13  1  0  0  0  0
 11 14  1  0  0  0  0
  9 10  1  0  0  0  0
  9 11  1  0  0  0  0
  9 29  1  0  0  0  0
  7  8  1  0  0  0  0
  7  9  1  0  0  0  0
 33 34  1  0  0  0  0
 33 35  1  0  0  0  0
 33 36  1  0  0  0  0
 31 32  1  0  0  0  0
 31 33  1  0  0  0  0
M  END
$$$$
default_name
  -OEChem-02102213163D

 36 37  0     1  0  0  0  0  0999 V2000
   -4.0843   -4.0736    1.2944 H   0  0  0  0  0  0  0  0  0  0  0  0
   -4.0342   -3.2816    0.5484 C   0  0  0  0  0  0  0  0  0  0  0  0
   -4.8842   -2.6126    0.6694 H   0  0  0  0  0  0  0  0  0  0  0  0
   -4.0433   -3.7186   -0.4486 H   0  0  0  0  0  0  0  0  0  0  0  0
   -2.7532   -2.5046    0.7444 C   0  0  0  0  0  0  0  0  0  0  0  0
   -1.9803   -2.8096    1.6434 O   0  0  0  0  0  0  0  0  0  0  0  0
   -2.5332   -1.4966   -0.0966 N   0  0  0  0  0  0  0  0  0  0  0  0
   -3.2312   -1.2816   -0.7936 H   0  0  0  0  0  0  0  0  0  0  0  0
   -1.3593   -0.6196   -0.0536 C   0  0  1  0  0  0  0  0  0  0  0  0
   -0.8788   -0.7266    0.9196 H   0  0  0  0  0  0  0  0  0  0  0  0
   -0.3559   -1.0533   -1.1339 C   0  0  0  0  0  0  0  0  0  0  0  0
    0.3101   -1.8084   -0.7125 H   0  0  0  0  0  0  0  0  0  0  0  0
   -0.9069   -1.5190   -1.9528 H   0  0  0  0  0  0  0  0  0  0  0  0
    0.4900    0.0485   -1.6965 C   0  0  0  0  0  0  0  0  0  0  0  0
    1.1141    1.0072   -0.9761 C   0  0  0  0  0  0  0  0  0  0  0  0
    1.0591    1.1025    0.1028 H   0  0  0  0  0  0  0  0  0  0  0  0
    1.8405    1.8236   -1.8206 N   0  0  0  0  0  0  0  0  0  0  0  0
    2.3846    2.6118   -1.5016 H   0  0  0  0  0  0  0  0  0  0  0  0
    1.7332    1.4188   -3.1342 C   0  0  0  0  0  0  0  0  0  0  0  0
    2.2911    1.8911   -4.3309 C   0  0  0  0  0  0  0  0  0  0  0  0
    2.9499    2.7470   -4.3275 H   0  0  0  0  0  0  0  0  0  0  0  0
    1.9795    1.2362   -5.5347 C   0  0  0  0  0  0  0  0  0  0  0  0
    2.3996    1.5870   -6.4676 H   0  0  0  0  0  0  0  0  0  0  0  0
    1.1144    0.1268   -5.5255 C   0  0  0  0  0  0  0  0  0  0  0  0
    0.8708   -0.3689   -6.4550 H   0  0  0  0  0  0  0  0  0  0  0  0
    0.5579   -0.3380   -4.3170 C   0  0  0  0  0  0  0  0  0  0  0  0
   -0.1158   -1.1830   -4.3258 H   0  0  0  0  0  0  0  0  0  0  0  0
    0.8560    0.2941   -3.0904 C   0  0  0  0  0  0  0  0  0  0  0  0
   -1.7617    0.8549   -0.2106 C   0  0  0  0  0  0  0  0  0  0  0  0
   -2.5726    1.1871   -1.0741 O   0  0  0  0  0  0  0  0  0  0  0  0
   -1.1941    1.7377    0.6223 N   0  0  0  0  0  0  0  0  0  0  0  0
   -0.4976    1.3916    1.2669 H   0  0  0  0  0  0  0  0  0  0  0  0
   -1.4666    3.1722    0.6095 C   0  0  0  0  0  0  0  0  0  0  0  0
   -2.5439    3.3427    0.6539 H   0  0  0  0  0  0  0  0  0  0  0  0
   -0.9893    3.6529    1.4644 H   0  0  0  0  0  0  0  0  0  0  0  0
   -1.0808    3.6095   -0.3129 H   0  0  0  0  0  0  0  0  0  0  0  0
  5  6  2  0  0  0  0
  5  7  1  0  0  0  0
  2  3  1  0  0  0  0
  2  4  1  0  0  0  0
  2  5  1  0  0  0  0
  1  2  1  0  0  0  0
 29 30  2  0  0  0  0
 29 31  1  0  0  0  0
 26 27  1  0  0  0  0
 26 28  2  0  0  0  0
 24 25  1  0  0  0  0
 24 26  1  0  0  0  0
 22 23  1  0  0  0  0
 22 24  2  0  0  0  0
 20 21  1  0  0  0  0
 20 22  1  0  0  0  0
 19 20  2  0  0  0  0
 19 28  1  0  0  0  0
 17 18  1  0  0  0  0
 17 19  1  0  0  0  0
 15 16  1  0  0  0  0
 15 17  1  0  0  0  0
 14 15  2  0  0  0  0
 14 28  1  0  0  0  0
 11 12  1  0  0  0  0
 11 13  1  0  0  0  0
 11 14  1  0  0  0  0
  9 10  1  0  0  0  0
  9 11  1  0  0  0  0
  9 29  1  0  0  0  0
  7  8  1  0  0  0  0
  7  9  1  0  0  0  0
 33 34  1  0  0  0  0
 33 35  1  0  0  0  0
 33 36  1  0  0  0  0
 31 32  1  0  0  0  0
 31 33  1  0  0  0  0
M  END
$$$$
default_name
  -OEChem-02102213163D

 36 37  0     1  0  0  0  0  0999 V2000
   -4.0843   -4.0736    1.2944 H   0  0  0  0  0  0  0  0  0  0  0  0
   -4.0342   -3.2816    0.5484 C   0  0  0  0  0  0  0  0  0  0  0  0
   -4.8842   -2.6126    0.6694 H   0  0  0  0  0  0  0  0  0  0  0  0
   -4.0433   -3.7186   -0.4486 H   0  0  0  0  0  0  0  0  0  0  0  0
   -2.7532   -2.5046    0.7444 C   0  0  0  0  0  0  0  0  0  0  0  0
   -1.9803   -2.8096    1.6434 O   0  0  0  0  0  0  0  0  0  0  0  0
   -2.5332   -1.4966   -0.0966 N   0  0  0  0  0  0  0  0  0  0  0  0
   -3.2312   -1.2816   -0.7936 H   0  0  0  0  0  0  0  0  0  0  0  0
   -1.3593   -0.6196   -0.0536 C   0  0  1  0  0  0  0  0  0  0  0  0
   -0.8788   -0.7266    0.9196 H   0  0  0  0  0  0  0  0  0  0  0  0
   -0.3559   -1.0533   -1.1339 C   0  0  0  0  0  0  0  0  0  0  0  0
    0.3101   -1.8084   -0.7125 H   0  0  0  0  0  0  0  0  0  0  0  0
   -0.9069   -1.5190   -1.9528 H   0  0  0  0  0  0  0  0  0  0  0  0
    0.4900    0.0485   -1.6965 C   0  0  0  0  0  0  0  0  0  0  0  0
    1.3382    0.8283   -0.9894 C   0  0  0  0  0  0  0  0  0  0  0  0
    1.4926    0.7589    0.0818 H   0  0  0  0  0  0  0  0  0  0  0  0
    1.9840    1.7030   -1.8411 N   0  0  0  0  0  0  0  0  0  0  0  0
    2.6617    2.3840   -1.5311 H   0  0  0  0  0  0  0  0  0  0  0  0
    1.5937    1.5177   -3.1503 C   0  0  0  0  0  0  0  0  0  0  0  0
    1.9722    2.1223   -4.3577 C   0  0  0  0  0  0  0  0  0  0  0  0
    2.7115    2.9096   -4.3674 H   0  0  0  0  0  0  0  0  0  0  0  0
    1.3746    1.6907   -5.5542 C   0  0  0  0  0  0  0  0  0  0  0  0
    1.6532    2.1462   -6.4948 H   0  0  0  0  0  0  0  0  0  0  0  0
    0.4077    0.6691   -5.5260 C   0  0  0  0  0  0  0  0  0  0  0  0
   -0.0556    0.3459   -6.4480 H   0  0  0  0  0  0  0  0  0  0  0  0
    0.0336    0.0699   -4.3065 C   0  0  0  0  0  0  0  0  0  0  0  0
   -0.7201   -0.7046   -4.2975 H   0  0  0  0  0  0  0  0  0  0  0  0
    0.6197    0.4766   -3.0883 C   0  0  0  0  0  0  0  0  0  0  0  0
   -1.7617    0.8549   -0.2106 C   0  0  0  0  0  0  0  0  0  0  0  0
   -2.5726    1.1871   -1.0741 O   0  0  0  0  0  0  0  0  0  0  0  0
   -1.1941    1.7377    0.6223 N   0  0  0  0  0  0  0  0  0  0  0  0
   -0.4976    1.3916    1.2669 H   0  0  0  0  0  0  0  0  0  0  0  0
   -1.4666    3.1722    0.6095 C   0  0  0  0  0  0  0  0  0  0  0  0
   -2.5439    3.3427    0.6539 H   0  0  0  0  0  0  0  0  0  0  0  0
   -0.9893    3.6529    1.4644 H   0  0  0  0  0  0  0  0  0  0  0  0
   -1.0808    3.6095   -0.3129 H   0  0  0  0  0  0  0  0  0  0  0  0
  5  6  2  0  0  0  0
  5  7  1  0  0  0  0
  2  3  1  0  0  0  0
  2  4  1  0  0  0  0
  2  5  1  0  0  0  0
  1  2  1  0  0  0  0
 29 30  2  0  0  0  0
 29 31  1  0  0  0  0
 26 27  1  0  0  0  0
 26 28  2  0  0  0  0
 24 25  1  0  0  0  0
 24 26  1  0  0  0  0
 22 23  1  0  0  0  0
 22 24  2  0  0  0  0
 20 21  1  0  0  0  0
 20 22  1  0  0  0  0
 19 20  2  0  0  0  0
 19 28  1  0  0  0  0
 17 18  1  0  0  0  0
 17 19  1  0  0  0  0
 15 16  1  0  0  0  0
 15 17  1  0  0  0  0
 14 15  2  0  0  0  0
 14 28  1  0  0  0  0
 11 12  1  0  0  0  0
 11 13  1  0  0  0  0
 11 14  1  0  0  0  0
  9 10  1  0  0  0  0
  9 11  1  0  0  0  0
  9 29  1  0  0  0  0
  7  8  1  0  0  0  0
  7  9  1  0  0  0  0
 33 34  1  0  0  0  0
 33 35  1  0  0  0  0
 33 36  1  0  0  0  0
 31 32  1  0  0  0  0
 31 33  1  0  0  0  0
M  END
$$$$
default_name
  -OEChem-02102213163D

 36 37  0     1  0  0  0  0  0999 V2000
   -4.0843   -4.0736    1.2944 H   0  0  0  0  0  0  0  0  0  0  0  0
   -4.0342   -3.2816    0.5484 C   0  0  0  0  0  0  0  0  0  0  0  0
   -4.8842   -2.6126    0.6694 H   0  0  0  0  0  0  0  0  0  0  0  0
   -4.0433   -3.7186   -0.4486 H   0  0  0  0  0  0  0  0  0  0  0  0
   -2.7532   -2.5046    0.7444 C   0  0  0  0  0  0  0  0  0  0  0  0
   -1.9803   -2.8096    1.6434 O   0  0  0  0  0  0  0  0  0  0  0  0
   -2.5332   -1.4966   -0.0966 N   0  0  0  0  0  0  0  0  0  0  0  0
   -3.2312   -1.2816   -0.7936 H   0  0  0  0  0  0  0  0  0  0  0  0
   -1.3593   -0.6196   -0.0536 C   0  0  1  0  0  0  0  0  0  0  0  0
   -0.8788   -0.7266    0.9196 H   0  0  0  0  0  0  0  0  0  0  0  0
   -0.3559   -1.0533   -1.1339 C   0  0  0  0  0  0  0  0  0  0  0  0
    0.3101   -1.8084   -0.7125 H   0  0  0  0  0  0  0  0  0  0  0  0
   -0.9069   -1.5190   -1.9528 H   0  0  0  0  0  0  0  0  0  0  0  0
    0.4900    0.0485   -1.6965 C   0  0  0  0  0  0  0  0  0  0  0  0
    1.5347    0.6357   -1.0710 C   0  0  0  0  0  0  0  0  0  0  0  0
    1.8740    0.3880   -0.0711 H   0  0  0  0  0  0  0  0  0  0  0  0
    2.1070    1.5755   -1.9058 N   0  0  0  0  0  0  0  0  0  0  0  0
    2.9015    2.1414   -1.6456 H   0  0  0  0  0  0  0  0  0  0  0  0
    1.4655    1.6291   -3.1250 C   0  0  0  0  0  0  0  0  0  0  0  0
    1.6815    2.3806   -4.2890 C   0  0  0  0  0  0  0  0  0  0  0  0
    2.4895    3.0957   -4.3369 H   0  0  0  0  0  0  0  0  0  0  0  0
    0.8307    2.1914   -5.3915 C   0  0  0  0  0  0  0  0  0  0  0  0
    0.9813    2.7629   -6.2974 H   0  0  0  0  0  0  0  0  0  0  0  0
   -0.2223    1.2617   -5.3129 C   0  0  0  0  0  0  0  0  0  0  0  0
   -0.8796    1.1254   -6.1605 H   0  0  0  0  0  0  0  0  0  0  0  0
   -0.4312    0.5133   -4.1370 C   0  0  0  0  0  0  0  0  0  0  0  0
   -1.2520   -0.1879   -4.0853 H   0  0  0  0  0  0  0  0  0  0  0  0
    0.4096    0.6755   -3.0147 C   0  0  0  0  0  0  0  0  0  0  0  0
   -1.7617    0.8549   -0.2106 C   0  0  0  0  0  0  0  0  0  0  0  0
   -2.5726    1.1871   -1.0741 O   0  0  0  0  0  0  0  0  0  0  0  0
   -1.1941    1.7377    0.6223 N   0  0  0  0  0  0  0  0  0  0  0  0
   -0.4976    1.3916    1.2669 H   0  0  0  0  0  0  0  0  0  0  0  0
   -1.4666    3.1722    0.6095 C   0  0  0  0  0  0  0  0  0  0  0  0
   -2.5439    3.3427    0.6539 H   0  0  0  0  0  0  0  0  0  0  0  0
   -0.9893    3.6529    1.4644 H   0  0  0  0  0  0  0  0  0  0  0  0
   -1.0808    3.6095   -0.3129 H   0  0  0  0  0  0  0  0  0  0  0  0
  5  6  2  0  0  0  0
  5  7  1  0  0  0  0
  2  3  1  0  0  0  0
  2  4  1  0  0  0  0
  2  5  1  0  0  0  0
  1  2  1  0  0  0  0
 29 30  2  0  0  0  0
 29 31  1  0  0  0  0
 26 27  1  0  0  0  0
 26 28  2  0  0  0  0
 24 25  1  0  0  0  0
 24 26  1  0  0  0  0
 22 23  1  0  0  0  0
 22 24  2  0  0  0  0
 20 21  1  0  0  0  0
 20 22  1  0  0  0  0
 19 20  2  0  0  0  0
 19 28  1  0  0  0  0
 17 18  1  0  0  0  0
 17 19  1  0  0  0  0
 15 16  1  0  0  0  0
 15 17  1  0  0  0  0
 14 15  2  0  0  0  0
 14 28  1  0  0  0  0
 11 12  1  0  0  0  0
 11 13  1  0  0  0  0
 11 14  1  0  0  0  0
  9 10  1  0  0  0  0
  9 11  1  0  0  0  0
  9 29  1  0  0  0  0
  7  8  1  0  0  0  0
  7  9  1  0  0  0  0
 33 34  1  0  0  0  0
 33 35  1  0  0  0  0
 33 36  1  0  0  0  0
 31 32  1  0  0  0  0
 31 33  1  0  0  0  0
M  END
$$$$
default_name
  -OEChem-02102213163D

 36 37  0     1  0  0  0  0  0999 V2000
   -4.0843   -4.0736    1.2944 H   0  0  0  0  0  0  0  0  0  0  0  0
   -4.0342   -3.2816    0.5484 C   0  0  0  0  0  0  0  0  0  0  0  0
   -4.8842   -2.6126    0.6694 H   0  0  0  0  0  0  0  0  0  0  0  0
   -4.0433   -3.7186   -0.4486 H   0  0  0  0  0  0  0  0  0  0  0  0
   -2.7532   -2.5046    0.7444 C   0  0  0  0  0  0  0  0  0  0  0  0
   -1.9803   -2.8096    1.6434 O   0  0  0  0  0  0  0  0  0  0  0  0
   -2.5332   -1.4966   -0.0966 N   0  0  0  0  0  0  0  0  0  0  0  0
   -3.2312   -1.2816   -0.7936 H   0  0  0  0  0  0  0  0  0  0  0  0
   -1.3593   -0.6196   -0.0536 C   0  0  1  0  0  0  0  0  0  0  0  0
   -0.8788   -0.7266    0.9196 H   0  0  0  0  0  0  0  0  0  0  0  0
   -0.3559   -1.0533   -1.1339 C   0  0  0  0  0  0  0  0  0  0  0  0
    0.3101   -1.8084   -0.7125 H   0  0  0  0  0  0  0  0  0  0  0  0
   -0.9069   -1.5190   -1.9528 H   0  0  0  0  0  0  0  0  0  0  0  0
    0.4900    0.0485   -1.6965 C   0  0  0  0  0  0  0  0  0  0  0  0
    1.6904    0.4425   -1.2154 C   0  0  0  0  0  0  0  0  0  0  0  0
    2.1772    0.0151   -0.3456 H   0  0  0  0  0  0  0  0  0  0  0  0
    2.2011    1.4499   -2.0103 N   0  0  0  0  0  0  0  0  0  0  0  0
    3.0878    1.9005   -1.8373 H   0  0  0  0  0  0  0  0  0  0  0  0
    1.3573    1.7454   -3.0598 C   0  0  0  0  0  0  0  0  0  0  0  0
    1.4388    2.6482   -4.1297 C   0  0  0  0  0  0  0  0  0  0  0  0
    2.2989    3.2925   -4.2380 H   0  0  0  0  0  0  0  0  0  0  0  0
    0.3849    2.7041   -5.0577 C   0  0  0  0  0  0  0  0  0  0  0  0
    0.4299    3.3949   -5.8887 H   0  0  0  0  0  0  0  0  0  0  0  0
   -0.7327    1.8641   -4.9005 C   0  0  0  0  0  0  0  0  0  0  0  0
   -1.5451    1.9163   -5.6121 H   0  0  0  0  0  0  0  0  0  0  0  0
   -0.8048    0.9620   -3.8201 C   0  0  0  0  0  0  0  0  0  0  0  0
   -1.6751    0.3318   -3.7037 H   0  0  0  0  0  0  0  0  0  0  0  0
    0.2400    0.8773   -2.8745 C   0  0  0  0  0  0  0  0  0  0  0  0
   -1.7617    0.8549   -0.2106 C   0  0  0  0  0  0  0  0  0  0  0  0
   -2.5726    1.1871   -1.0741 O   0  0  0  0  0  0  0  0  0  0  0  0
   -1.1941    1.7377    0.6223 N   0  0  0  0  0  0  0  0  0  0  0  0
   -0.4976    1.3916    1.2669 H   0  0  0  0  0  0  0  0  0  0  0  0
   -1.4666    3.1722    0.6095 C   0  0  0  0  0  0  0  0  0  0  0  0
   -2.5439    3.3427    0.6539 H   0  0  0  0  0  0  0  0  0  0  0  0
   -0.9893    3.6529    1.4644 H   0  0  0  0  0  0  0  0  0  0  0  0
   -1.0808    3.6095   -0.3129 H   0  0  0  0  0  0  0  0  0  0  0  0
  5  6  2  0  0  0  0
  5  7  1  0  0  0  0
  2  3  1  0  0  0  0
  2  4  1  0  0  0  0
  2  5  1  0  0  0  0
  1  2  1  0  0  0  0
 29 30  2  0  0  0  0
 29 31  1  0  0  0  0
 26 27  1  0  0  0  0
 26 28  2  0  0  0  0
 24 25  1  0  0  0  0
 24 26  1  0  0  0  0
 22 23  1  0  0  0  0
 22 24  2  0  0  0  0
 20 21  1  0  0  0  0
 20 22  1  0  0  0  0
 19 20  2  0  0  0  0
 19 28  1  0  0  0  0
 17 18  1  0  0  0  0
 17 19  1  0  0  0  0
 15 16  1  0  0  0  0
 15 17  1  0  0  0  0
 14 15  2  0  0  0  0
 14 28  1  0  0  0  0
 11 12  1  0  0  0  0
 11 13  1  0  0  0  0
 11 14  1  0  0  0  0
  9 10  1  0  0  0  0
  9 11  1  0  0  0  0
  9 29  1  0  0  0  0
  7  8  1  0  0  0  0
  7  9  1  0  0  0  0
 33 34  1  0  0  0  0
 33 35  1  0  0  0  0
 33 36  1  0  0  0  0
 31 32  1  0  0  0  0
 31 33  1  0  0  0  0
M  END
$$$$
default_name
  -OEChem-02102213163D

 36 37  0     1  0  0  0  0  0999 V2000
   -4.0843   -4.0736    1.2944 H   0  0  0  0  0  0  0  0  0  0  0  0
   -4.0342   -3.2816    0.5484 C   0  0  0  0  0  0  0  0  0  0  0  0
   -4.8842   -2.6126    0.6694 H   0  0  0  0  0  0  0  0  0  0  0  0
   -4.0433   -3.7186   -0.4486 H   0  0  0  0  0  0  0  0  0  0  0  0
   -2.7532   -2.5046    0.7444 C   0  0  0  0  0  0  0  0  0  0  0  0
   -1.9803   -2.8096    1.6434 O   0  0  0  0  0  0  0  0  0  0  0  0
   -2.5332   -1.4966   -0.0966 N   0  0  0  0  0  0  0  0  0  0  0  0
   -3.2312   -1.2816   -0.7936 H   0  0  0  0  0  0  0  0  0  0  0  0
   -1.3593   -0.6196   -0.0536 C   0  0  1  0  0  0  0  0  0  0  0  0
   -0.8788   -0.7266    0.9196 H   0  0  0  0  0  0  0  0  0  0  0  0
   -0.3559   -1.0533   -1.1339 C   0  0  0  0  0  0  0  0  0  0  0  0
    0.3101   -1.8084   -0.7125 H   0  0  0  0  0  0  0  0  0  0  0  0
   -0.9069   -1.5190   -1.9528 H   0  0  0  0  0  0  0  0  0  0  0  0
    0.4900    0.0485   -1.6965 C   0  0  0  0  0  0  0  0  0  0  0  0
    1.7944    0.2619   -1.4127 C   0  0  0  0  0  0  0  0  0  0  0  0
    2.3816   -0.3345   -0.7229 H   0  0  0  0  0  0  0  0  0  0  0  0
    2.2600    1.3346   -2.1475 N   0  0  0  0  0  0  0  0  0  0  0  0
    3.2079    1.6777   -2.0931 H   0  0  0  0  0  0  0  0  0  0  0  0
    1.2766    1.8588   -2.9592 C   0  0  0  0  0  0  0  0  0  0  0  0
    1.2608    2.9071   -3.8905 C   0  0  0  0  0  0  0  0  0  0  0  0
    2.1528    3.4866   -4.0775 H   0  0  0  0  0  0  0  0  0  0  0  0
    0.0677    3.1939   -4.5756 C   0  0  0  0  0  0  0  0  0  0  0  0
    0.0364    3.9994   -5.2968 H   0  0  0  0  0  0  0  0  0  0  0  0
   -1.0887    2.4354   -4.3171 C   0  0  0  0  0  0  0  0  0  0  0  0
   -2.0067    2.6649   -4.8403 H   0  0  0  0  0  0  0  0  0  0  0  0
   -1.0618    1.3854   -3.3774 C   0  0  0  0  0  0  0  0  0  0  0  0
   -1.9607    0.8193   -3.1786 H   0  0  0  0  0  0  0  0  0  0  0  0
    0.1224    1.0683   -2.6773 C   0  0  0  0  0  0  0  0  0  0  0  0
   -1.7617    0.8549   -0.2106 C   0  0  0  0  0  0  0  0  0  0  0  0
   -2.5726    1.1871   -1.0741 O   0  0  0  0  0  0  0  0  0  0  0  0
   -1.1941    1.7377    0.6223 N   0  0  0  0  0  0  0  0  0  0  0  0
   -0.4976    1.3916    1.2669 H   0  0  0  0  0  0  0  0  0  0  0  0
   -1.4666    3.1722    0.6095 C   0  0  0  0  0  0  0  0  0  0  0  0
   -2.5439    3.3427    0.6539 H   0  0  0  0  0  0  0  0  0  0  0  0
   -0.9893    3.6529    1.4644 H   0  0  0  0  0  0  0  0  0  0  0  0
   -1.0808    3.6095   -0.3129 H   0  0  0  0  0  0  0  0  0  0  0  0
  5  6  2  0  0  0  0
  5  7  1  0  0  0  0
  2  3  1  0  0  0  0
  2  4  1  0  0  0  0
  2  5  1  0  0  0  0
  1  2  1  0  0  0  0
 29 30  2  0  0  0  0
 29 31  1  0  0  0  0
 26 27  1  0  0  0  0
 26 28  2  0  0  0  0
 24 25  1  0  0  0  0
 24 26  1  0  0  0  0
 22 23  1  0  0  0  0
 22 24  2  0  0  0  0
 20 21  1  0  0  0  0
 20 22  1  0  0  0  0
 19 20  2  0  0  0  0
 19 28  1  0  0  0  0
 17 18  1  0  0  0  0
 17 19  1  0  0  0  0
 15 16  1  0  0  0  0
 15 17  1  0  0  0  0
 14 15  2  0  0  0  0
 14 28  1  0  0  0  0
 11 12  1  0  0  0  0
 11 13  1  0  0  0  0
 11 14  1  0  0  0  0
  9 10  1  0  0  0  0
  9 11  1  0  0  0  0
  9 29  1  0  0  0  0
  7  8  1  0  0  0  0
  7  9  1  0  0  0  0
 33 34  1  0  0  0  0
 33 35  1  0  0  0  0
 33 36  1  0  0  0  0
 31 32  1  0  0  0  0
 31 33  1  0  0  0  0
M  END
$$$$
default_name
  -OEChem-02102213163D

 36 37  0     1  0  0  0  0  0999 V2000
   -4.0843   -4.0736    1.2944 H   0  0  0  0  0  0  0  0  0  0  0  0
   -4.0342   -3.2816    0.5484 C   0  0  0  0  0  0  0  0  0  0  0  0
   -4.8842   -2.6126    0.6694 H   0  0  0  0  0  0  0  0  0  0  0  0
   -4.0433   -3.7186   -0.4486 H   0  0  0  0  0  0  0  0  0  0  0  0
   -2.7532   -2.5046    0.7444 C   0  0  0  0  0  0  0  0  0  0  0  0
   -1.9803   -2.8096    1.6434 O   0  0  0  0  0  0  0  0  0  0  0  0
   -2.5332   -1.4966   -0.0966 N   0  0  0  0  0  0  0  0  0  0  0  0
   -3.2312   -1.2816   -0.7936 H   0  0  0  0  0  0  0  0  0  0  0  0
   -1.3593   -0.6196   -0.0536 C   0  0  1  0  0  0  0  0  0  0  0  0
   -0.8788   -0.7266    0.9196 H   0  0  0  0  0  0  0  0  0  0  0  0
   -0.3559   -1.0533   -1.1339 C   0  0  0  0  0  0  0  0  0  0  0  0
    0.3101   -1.8084   -0.7125 H   0  0  0  0  0  0  0  0  0  0  0  0
   -0.9069   -1.5190   -1.9528 H   0  0  0  0  0  0  0  0  0  0  0  0
    0.4900    0.0485   -1.6965 C   0  0  0  0  0  0  0  0  0  0  0  0
    1.8399    0.1061   -1.6494 C   0  0  0  0  0  0  0  0  0  0  0  0
    2.4732   -0.6370   -1.1774 H   0  0  0  0  0  0  0  0  0  0  0  0
    2.2795    1.2376   -2.3081 N   0  0  0  0  0  0  0  0  0  0  0  0
    3.2535    1.4882   -2.3955 H   0  0  0  0  0  0  0  0  0  0  0  0
    1.2287    1.9615   -2.8302 C   0  0  0  0  0  0  0  0  0  0  0  0
    1.1595    3.1394   -3.5878 C   0  0  0  0  0  0  0  0  0  0  0  0
    2.0611    3.6650   -3.8663 H   0  0  0  0  0  0  0  0  0  0  0  0
   -0.0994    3.6273   -3.9780 C   0  0  0  0  0  0  0  0  0  0  0  0
   -0.1723    4.5350   -4.5618 H   0  0  0  0  0  0  0  0  0  0  0  0
   -1.2661    2.9366   -3.6023 C   0  0  0  0  0  0  0  0  0  0  0  0
   -2.2329    3.3200   -3.8976 H   0  0  0  0  0  0  0  0  0  0  0  0
   -1.1846    1.7546   -2.8390 C   0  0  0  0  0  0  0  0  0  0  0  0
   -2.0893    1.2411   -2.5458 H   0  0  0  0  0  0  0  0  0  0  0  0
    0.0649    1.2353   -2.4366 C   0  0  0  0  0  0  0  0  0  0  0  0
   -1.7617    0.8549   -0.2106 C   0  0  0  0  0  0  0  0  0  0  0  0
   -2.5726    1.1871   -1.0741 O   0  0  0  0  0  0  0  0  0  0  0  0
   -1.1941    1.7377    0.6223 N   0  0  0  0  0  0  0  0  0  0  0  0
   -0.4976    1.3916    1.2669 H   0  0  0  0  0  0  0  0  0  0  0  0
   -1.4666    3.1722    0.6095 C   0  0  0  0  0  0  0  0  0  0  0  0
   -2.5439    3.3427    0.6539 H   0  0  0  0  0  0  0  0  0  0  0  0
   -0.9893    3.6529    1.4644 H   0  0  0  0  0  0  0  0  0  0  0  0
   -1.0808    3.6095   -0.3129 H   0  0  0  0  0  0  0  0  0  0  0  0
  5  6  2  0  0  0  0
  5  7  1  0  0  0  0
  2  3  1  0  0  0  0
  2  4  1  0  0  0  0
  2  5  1  0  0  0  0
  1  2  1  0  0  0  0
 29 30  2  0  0  0  0
 29 31  1  0  0  0  0
 26 27  1  0  0  0  0
 26 28  2  0  0  0  0
 24 25  1  0  0  0  0
 24 26  1  0  0  0  0
 22 23  1  0  0  0  0
 22 24  2  0  0  0  0
 20 21  1  0  0  0  0
 20 22  1  0  0  0  0
 19 20  2  0  0  0  0
 19 28  1  0  0  0  0
 17 18  1  0  0  0  0
 17 19  1  0  0  0  0
 15 16  1  0  0  0  0
 15 17  1  0  0  0  0
 14 15  2  0  0  0  0
 14 28  1  0  0  0  0
 11 12  1  0  0  0  0
 11 13  1  0  0  0  0
 11 14  1  0  0  0  0
  9 10  1  0  0  0  0
  9 11  1  0  0  0  0
  9 29  1  0  0  0  0
  7  8  1  0  0  0  0
  7  9  1  0  0  0  0
 33 34  1  0  0  0  0
 33 35  1  0  0  0  0
 33 36  1  0  0  0  0
 31 32  1  0  0  0  0
 31 33  1  0  0  0  0
M  END
$$$$
default_name
  -OEChem-02102213163D

 36 37  0     1  0  0  0  0  0999 V2000
   -4.0843   -4.0736    1.2944 H   0  0  0  0  0  0  0  0  0  0  0  0
   -4.0342   -3.2816    0.5484 C   0  0  0  0  0  0  0  0  0  0  0  0
   -4.8842   -2.6126    0.6694 H   0  0  0  0  0  0  0  0  0  0  0  0
   -4.0433   -3.7186   -0.4486 H   0  0  0  0  0  0  0  0  0  0  0  0
   -2.7532   -2.5046    0.7444 C   0  0  0  0  0  0  0  0  0  0  0  0
   -1.9803   -2.8096    1.6434 O   0  0  0  0  0  0  0  0  0  0  0  0
   -2.5332   -1.4966   -0.0966 N   0  0  0  0  0  0  0  0  0  0  0  0
   -3.2312   -1.2816   -0.7936 H   0  0  0  0  0  0  0  0  0  0  0  0
   -1.3593   -0.6196   -0.0536 C   0  0  1  0  0  0  0  0  0  0  0  0
   -0.8788   -0.7266    0.9196 H   0  0  0  0  0  0  0  0  0  0  0  0
   -0.3559   -1.0533   -1.1339 C   0  0  0  0  0  0  0  0  0  0  0  0
    0.3101   -1.8084   -0.7125 H   0  0  0  0  0  0  0  0  0  0  0  0
   -0.9069   -1.5190   -1.9528 H   0  0  0  0  0  0  0  0  0  0  0  0
    0.4900    0.0485   -1.6965 C   0  0  0  0  0  0  0  0  0  0  0  0
    1.8236   -0.0142   -1.9095 C   0  0  0  0  0  0  0  0  0  0  0  0
    2.4459   -0.8717   -1.6779 H   0  0  0  0  0  0  0  0  0  0  0  0
    2.2584    1.1655   -2.4810 N   0  0  0  0  0  0  0  0  0  0  0  0
    3.2217    1.3448   -2.7241 H   0  0  0  0  0  0  0  0  0  0  0  0
    1.2170    2.0465   -2.6814 C   0  0  0  0  0  0  0  0  0  0  0  0
    1.1418    3.3295   -3.2422 C   0  0  0  0  0  0  0  0  0  0  0  0
    2.0300    3.8153   -3.6187 H   0  0  0  0  0  0  0  0  0  0  0  0
   -0.1050    3.9750   -3.3057 C   0  0  0  0  0  0  0  0  0  0  0  0
   -0.1821    4.9652   -3.7339 H   0  0  0  0  0  0  0  0  0  0  0  0
   -1.2527    3.3335   -2.8050 C   0  0  0  0  0  0  0  0  0  0  0  0
   -2.2085    3.8371   -2.8482 H   0  0  0  0  0  0  0  0  0  0  0  0
   -1.1650    2.0446   -2.2416 C   0  0  0  0  0  0  0  0  0  0  0  0
   -2.0521    1.5687   -1.8486 H   0  0  0  0  0  0  0  0  0  0  0  0
    0.0714    1.3671   -2.1688 C   0  0  0  0  0  0  0  0  0  0  0  0
   -1.7617    0.8549   -0.2106 C   0  0  0  0  0  0  0  0  0  0  0  0
   -2.5726    1.1871   -1.0741 O   0  0  0  0  0  0  0  0  0  0  0  0
   -1.1941    1.7377    0.6223 N   0  0  0  0  0  0  0  0  0  0  0  0
   -0.4976    1.3916    1.2669 H   0  0  0  0  0  0  0  0  0  0  0  0
   -1.4666    3.1722    0.6095 C   0  0  0  0  0  0  0  0  0  0  0  0
   -2.5439    3.3427    0.6539 H   0  0  0  0  0  0  0  0  0  0  0  0
   -0.9893    3.6529    1.4644 H   0  0  0  0  0  0  0  0  0  0  0  0
   -1.0808    3.6095   -0.3129 H   0  0  0  0  0  0  0  0  0  0  0  0
  5  6  2  0  0  0  0
  5  7  1  0  0  0  0
  2  3  1  0  0  0  0
  2  4  1  0  0  0  0
  2  5  1  0  0  0  0
  1  2  1  0  0  0  0
 29 30  2  0  0  0  0
 29 31  1  0  0  0  0
 26 27  1  0  0  0  0
 26 28  2  0  0  0  0
 24 25  1  0  0  0  0
 24 26  1  0  0  0  0
 22 23  1  0  0  0  0
 22 24  2  0  0  0  0
 20 21  1  0  0  0  0
 20 22  1  0  0  0  0
 19 20  2  0  0  0  0
 19 28  1  0  0  0  0
 17 18  1  0  0  0  0
 17 19  1  0  0  0  0
 15 16  1  0  0  0  0
 15 17  1  0  0  0  0
 14 15  2  0  0  0  0
 14 28  1  0  0  0  0
 11 12  1  0  0  0  0
 11 13  1  0  0  0  0
 11 14  1  0  0  0  0
  9 10  1  0  0  0  0
  9 11  1  0  0  0  0
  9 29  1  0  0  0  0
  7  8  1  0  0  0  0
  7  9  1  0  0  0  0
 33 34  1  0  0  0  0
 33 35  1  0  0  0  0
 33 36  1  0  0  0  0
 31 32  1  0  0  0  0
 31 33  1  0  0  0  0
M  END
$$$$
default_name
  -OEChem-02102213163D

 36 37  0     1  0  0  0  0  0999 V2000
   -4.0843   -4.0736    1.2944 H   0  0  0  0  0  0  0  0  0  0  0  0
   -4.0342   -3.2816    0.5484 C   0  0  0  0  0  0  0  0  0  0  0  0
   -4.8842   -2.6126    0.6694 H   0  0  0  0  0  0  0  0  0  0  0  0
   -4.0433   -3.7186   -0.4486 H   0  0  0  0  0  0  0  0  0  0  0  0
   -2.7532   -2.5046    0.7444 C   0  0  0  0  0  0  0  0  0  0  0  0
   -1.9803   -2.8096    1.6434 O   0  0  0  0  0  0  0  0  0  0  0  0
   -2.5332   -1.4966   -0.0966 N   0  0  0  0  0  0  0  0  0  0  0  0
   -3.2312   -1.2816   -0.7936 H   0  0  0  0  0  0  0  0  0  0  0  0
   -1.3593   -0.6196   -0.0536 C   0  0  1  0  0  0  0  0  0  0  0  0
   -0.8788   -0.7266    0.9196 H   0  0  0  0  0  0  0  0  0  0  0  0
   -0.3559   -1.0533   -1.1339 C   0  0  0  0  0  0  0  0  0  0  0  0
    0.3101   -1.8084   -0.7125 H   0  0  0  0  0  0  0  0  0  0  0  0
   -0.9069   -1.5190   -1.9528 H   0  0  0  0  0  0  0  0  0  0  0  0
    0.4900    0.0485   -1.6965 C   0  0  0  0  0  0  0  0  0  0  0  0
    1.7467   -0.0909   -2.1752 C   0  0  0  0  0  0  0  0  0  0  0  0
    2.3015   -1.0226   -2.1905 H   0  0  0  0  0  0  0  0  0  0  0  0
    2.1980    1.1232   -2.6546 N   0  0  0  0  0  0  0  0  0  0  0  0
    3.1144    1.2575   -3.0563 H   0  0  0  0  0  0  0  0  0  0  0  0
    1.2422    2.1080   -2.5230 C   0  0  0  0  0  0  0  0  0  0  0  0
    1.2089    3.4644   -2.8772 C   0  0  0  0  0  0  0  0  0  0  0  0
    2.0616    3.9273   -3.3517 H   0  0  0  0  0  0  0  0  0  0  0  0
    0.0513    4.2131   -2.6044 C   0  0  0  0  0  0  0  0  0  0  0  0
    0.0079    5.2608   -2.8695 H   0  0  0  0  0  0  0  0  0  0  0  0
   -1.0494    3.5991   -1.9794 C   0  0  0  0  0  0  0  0  0  0  0  0
   -1.9349    4.1809   -1.7638 H   0  0  0  0  0  0  0  0  0  0  0  0
   -1.0041    2.2355   -1.6260 C   0  0  0  0  0  0  0  0  0  0  0  0
   -1.8517    1.7796   -1.1343 H   0  0  0  0  0  0  0  0  0  0  0  0
    0.1415    1.4547   -1.8921 C   0  0  0  0  0  0  0  0  0  0  0  0
   -1.7617    0.8549   -0.2106 C   0  0  0  0  0  0  0  0  0  0  0  0
   -2.5726    1.1871   -1.0741 O   0  0  0  0  0  0  0  0  0  0  0  0
   -1.1941    1.7377    0.6223 N   0  0  0  0  0  0  0  0  0  0  0  0
   -0.4976    1.3916    1.2669 H   0  0  0  0  0  0  0  0  0  0  0  0
   -1.4666    3.1722    0.6095 C   0  0  0  0  0  0  0  0  0  0  0  0
   -2.5439    3.3427    0.6539 H   0  0  0  0  0  0  0  0  0  0  0  0
   -0.9893    3.6529    1.4644 H   0  0  0  0  0  0  0  0  0  0  0  0
   -1.0808    3.6095   -0.3129 H   0  0  0  0  0  0  0  0  0  0  0  0
  5  6  2  0  0  0  0
  5  7  1  0  0  0  0
  2  3  1  0  0  0  0
  2  4  1  0  0  0  0
  2  5  1  0  0  0  0
  1  2  1  0  0  0  0
 29 30  2  0  0  0  0
 29 31  1  0  0  0  0
 26 27  1  0  0  0  0
 26 28  2  0  0  0  0
 24 25  1  0  0  0  0
 24 26  1  0  0  0  0
 22 23  1  0  0  0  0
 22 24  2  0  0  0  0
 20 21  1  0  0  0  0
 20 22  1  0  0  0  0
 19 20  2  0  0  0  0
 19 28  1  0  0  0  0
 17 18  1  0  0  0  0
 17 19  1  0  0  0  0
 15 16  1  0  0  0  0
 15 17  1  0  0  0  0
 14 15  2  0  0  0  0
 14 28  1  0  0  0  0
 11 12  1  0  0  0  0
 11 13  1  0  0  0  0
 11 14  1  0  0  0  0
  9 10  1  0  0  0  0
  9 11  1  0  0  0  0
  9 29  1  0  0  0  0
  7  8  1  0  0  0  0
  7  9  1  0  0  0  0
 33 34  1  0  0  0  0
 33 35  1  0  0  0  0
 33 36  1  0  0  0  0
 31 32  1  0  0  0  0
 31 33  1  0  0  0  0
M  END
$$$$
default_name
  -OEChem-02102213163D

 36 37  0     1  0  0  0  0  0999 V2000
   -4.0843   -4.0736    1.2944 H   0  0  0  0  0  0  0  0  0  0  0  0
   -4.0342   -3.2816    0.5484 C   0  0  0  0  0  0  0  0  0  0  0  0
   -4.8842   -2.6126    0.6694 H   0  0  0  0  0  0  0  0  0  0  0  0
   -4.0433   -3.7186   -0.4486 H   0  0  0  0  0  0  0  0  0  0  0  0
   -2.7532   -2.5046    0.7444 C   0  0  0  0  0  0  0  0  0  0  0  0
   -1.9803   -2.8096    1.6434 O   0  0  0  0  0  0  0  0  0  0  0  0
   -2.5332   -1.4966   -0.0966 N   0  0  0  0  0  0  0  0  0  0  0  0
   -3.2312   -1.2816   -0.7936 H   0  0  0  0  0  0  0  0  0  0  0  0
   -1.3593   -0.6196   -0.0536 C   0  0  1  0  0  0  0  0  0  0  0  0
   -0.8788   -0.7266    0.9196 H   0  0  0  0  0  0  0  0  0  0  0  0
   -0.3559   -1.0533   -1.1339 C   0  0  0  0  0  0  0  0  0  0  0  0
    0.3101   -1.8084   -0.7125 H   0  0  0  0  0  0  0  0  0  0  0  0
   -0.9069   -1.5190   -1.9528 H   0  0  0  0  0  0  0  0  0  0  0  0
    0.4900    0.0485   -1.6965 C   0  0  0  0  0  0  0  0  0  0  0  0
    1.6143   -0.1186   -2.4284 C   0  0  0  0  0  0  0  0  0  0  0  0
    2.0498   -1.0794   -2.6802 H   0  0  0  0  0  0  0  0  0  0  0  0
    2.1026    1.1135   -2.8170 N   0  0  0  0  0  0  0  0  0  0  0  0
    2.9392    1.2321   -3.3696 H   0  0  0  0  0  0  0  0  0  0  0  0
    1.3027    2.1418   -2.3659 C   0  0  0  0  0  0  0  0  0  0  0  0
    1.3563    3.5348   -2.5177 C   0  0  0  0  0  0  0  0  0  0  0  0
    2.1539    3.9934   -3.0835 H   0  0  0  0  0  0  0  0  0  0  0  0
    0.3589    4.3255   -1.9219 C   0  0  0  0  0  0  0  0  0  0  0  0
    0.3846    5.4016   -2.0275 H   0  0  0  0  0  0  0  0  0  0  0  0
   -0.6702    3.7153   -1.1817 C   0  0  0  0  0  0  0  0  0  0  0  0
   -1.4309    4.3280   -0.7181 H   0  0  0  0  0  0  0  0  0  0  0  0
   -0.7131    2.3144   -1.0340 C   0  0  0  0  0  0  0  0  0  0  0  0
   -1.5017    1.8595   -0.4516 H   0  0  0  0  0  0  0  0  0  0  0  0
    0.2703    1.4920   -1.6253 C   0  0  0  0  0  0  0  0  0  0  0  0
   -1.7617    0.8549   -0.2106 C   0  0  0  0  0  0  0  0  0  0  0  0
   -2.5726    1.1871   -1.0741 O   0  0  0  0  0  0  0  0  0  0  0  0
   -1.1941    1.7377    0.6223 N   0  0  0  0  0  0  0  0  0  0  0  0
   -0.4976    1.3916    1.2669 H   0  0  0  0  0  0  0  0  0  0  0  0
   -1.4666    3.1722    0.6095 C   0  0  0  0  0  0  0  0  0  0  0  0
   -2.5439    3.3427    0.6539 H   0  0  0  0  0  0  0  0  0  0  0  0
   -0.9893    3.6529    1.4644 H   0  0  0  0  0  0  0  0  0  0  0  0
   -1.0808    3.6095   -0.3129 H   0  0  0  0  0  0  0  0  0  0  0  0
  5  6  2  0  0  0  0
  5  7  1  0  0  0  0
  2  3  1  0  0  0  0
  2  4  1  0  0  0  0
  2  5  1  0  0  0  0
  1  2  1  0  0  0  0
 29 30  2  0  0  0  0
 29 31  1  0  0  0  0
 26 27  1  0  0  0  0
 26 28  2  0  0  0  0
 24 25  1  0  0  0  0
 24 26  1  0  0  0  0
 22 23  1  0  0  0  0
 22 24  2  0  0  0  0
 20 21  1  0  0  0  0
 20 22  1  0  0  0  0
 19 20  2  0  0  0  0
 19 28  1  0  0  0  0
 17 18  1  0  0  0  0
 17 19  1  0  0  0  0
 15 16  1  0  0  0  0
 15 17  1  0  0  0  0
 14 15  2  0  0  0  0
 14 28  1  0  0  0  0
 11 12  1  0  0  0  0
 11 13  1  0  0  0  0
 11 14  1  0  0  0  0
  9 10  1  0  0  0  0
  9 11  1  0  0  0  0
  9 29  1  0  0  0  0
  7  8  1  0  0  0  0
  7  9  1  0  0  0  0
 33 34  1  0  0  0  0
 33 35  1  0  0  0  0
 33 36  1  0  0  0  0
 31 32  1  0  0  0  0
 31 33  1  0  0  0  0
M  END
$$$$
default_name
  -OEChem-02102213163D

 36 37  0     1  0  0  0  0  0999 V2000
   -4.0843   -4.0736    1.2944 H   0  0  0  0  0  0  0  0  0  0  0  0
   -4.0342   -3.2816    0.5484 C   0  0  0  0  0  0  0  0  0  0  0  0
   -4.8842   -2.6126    0.6694 H   0  0  0  0  0  0  0  0  0  0  0  0
   -4.0433   -3.7186   -0.4486 H   0  0  0  0  0  0  0  0  0  0  0  0
   -2.7532   -2.5046    0.7444 C   0  0  0  0  0  0  0  0  0  0  0  0
   -1.9803   -2.8096    1.6434 O   0  0  0  0  0  0  0  0  0  0  0  0
   -2.5332   -1.4966   -0.0966 N   0  0  0  0  0  0  0  0  0  0  0  0
   -3.2312   -1.2816   -0.7936 H   0  0  0  0  0  0  0  0  0  0  0  0
   -1.3593   -0.6196   -0.0536 C   0  0  1  0  0  0  0  0  0  0  0  0
   -0.8788   -0.7266    0.9196 H   0  0  0  0  0  0  0  0  0  0  0  0
   -0.3559   -1.0533   -1.1339 C   0  0  0  0  0  0  0  0  0  0  0  0
    0.1270   -1.9785   -0.8142 H   0  0  0  0  0  0  0  0  0  0  0  0
   -0.9053   -1.2678   -2.0521 H   0  0  0  0  0  0  0  0  0  0  0  0
    0.7169   -0.0540   -1.4447 C   0  0  0  0  0  0  0  0  0  0  0  0
    1.7035   -0.2165   -2.3546 C   0  0  0  0  0  0  0  0  0  0  0  0
    1.8458   -1.1060   -2.9584 H   0  0  0  0  0  0  0  0  0  0  0  0
    2.4794    0.9248   -2.4068 N   0  0  0  0  0  0  0  0  0  0  0  0
    3.2785    1.0278   -3.0151 H   0  0  0  0  0  0  0  0  0  0  0  0
    2.0183    1.8922   -1.5393 C   0  0  0  0  0  0  0  0  0  0  0  0
    2.4358    3.1998   -1.2528 C   0  0  0  0  0  0  0  0  0  0  0  0
    3.2884    3.6260   -1.7609 H   0  0  0  0  0  0  0  0  0  0  0  0
    1.7305    3.9472   -0.2942 C   0  0  0  0  0  0  0  0  0  0  0  0
    2.0386    4.9571   -0.0595 H   0  0  0  0  0  0  0  0  0  0  0  0
    0.6261    3.3772    0.3652 C   0  0  0  0  0  0  0  0  0  0  0  0
    0.0914    3.9528    1.1080 H   0  0  0  0  0  0  0  0  0  0  0  0
    0.2166    2.0612    0.0706 C   0  0  0  0  0  0  0  0  0  0  0  0
   -0.6253    1.6307    0.5941 H   0  0  0  0  0  0  0  0  0  0  0  0
    0.9002    1.2867   -0.8915 C   0  0  0  0  0  0  0  0  0  0  0  0
   -1.7617    0.8549   -0.2106 C   0  0  0  0  0  0  0  0  0  0  0  0
   -2.5726    1.1871   -1.0741 O   0  0  0  0  0  0  0  0  0  0  0  0
   -1.1941    1.7377    0.6223 N   0  0  0  0  0  0  0  0  0  0  0  0
   -0.4976    1.3916    1.2669 H   0  0  0  0  0  0  0  0  0  0  0  0
   -1.4666    3.1722    0.6095 C   0  0  0  0  0  0  0  0  0  0  0  0
   -2.5439    3.3427    0.6539 H   0  0  0  0  0  0  0  0  0  0  0  0
   -0.9893    3.6529    1.4644 H   0  0  0  0  0  0  0  0  0  0  0  0
   -1.0808    3.6095   -0.3129 H   0  0  0  0  0  0  0  0  0  0  0  0
  5  6  2  0  0  0  0
  5  7  1  0  0  0  0
  2  3  1  0  0  0  0
  2  4  1  0  0  0  0
  2  5  1  0  0  0  0
  1  2  1  0  0  0  0
 29 30  2  0  0  0  0
 29 31  1  0  0  0  0
 26 27  1  0  0  0  0
 26 28  2  0  0  0  0
 24 25  1  0  0  0  0
 24 26  1  0  0  0  0
 22 23  1  0  0  0  0
 22 24  2  0  0  0  0
 20 21  1  0  0  0  0
 20 22  1  0  0  0  0
 19 20  2  0  0  0  0
 19 28  1  0  0  0  0
 17 18  1  0  0  0  0
 17 19  1  0  0  0  0
 15 16  1  0  0  0  0
 15 17  1  0  0  0  0
 14 15  2  0  0  0  0
 14 28  1  0  0  0  0
 11 12  1  0  0  0  0
 11 13  1  0  0  0  0
 11 14  1  0  0  0  0
  9 10  1  0  0  0  0
  9 11  1  0  0  0  0
  9 29  1  0  0  0  0
  7  8  1  0  0  0  0
  7  9  1  0  0  0  0
 33 34  1  0  0  0  0
 33 35  1  0  0  0  0
 33 36  1  0  0  0  0
 31 32  1  0  0  0  0
 31 33  1  0  0  0  0
M  END
$$$$
default_name
  -OEChem-02102213163D

 36 37  0     1  0  0  0  0  0999 V2000
   -4.0843   -4.0736    1.2944 H   0  0  0  0  0  0  0  0  0  0  0  0
   -4.0342   -3.2816    0.5484 C   0  0  0  0  0  0  0  0  0  0  0  0
   -4.8842   -2.6126    0.6694 H   0  0  0  0  0  0  0  0  0  0  0  0
   -4.0433   -3.7186   -0.4486 H   0  0  0  0  0  0  0  0  0  0  0  0
   -2.7532   -2.5046    0.7444 C   0  0  0  0  0  0  0  0  0  0  0  0
   -1.9803   -2.8096    1.6434 O   0  0  0  0  0  0  0  0  0  0  0  0
   -2.5332   -1.4966   -0.0966 N   0  0  0  0  0  0  0  0  0  0  0  0
   -3.2312   -1.2816   -0.7936 H   0  0  0  0  0  0  0  0  0  0  0  0
   -1.3593   -0.6196   -0.0536 C   0  0  1  0  0  0  0  0  0  0  0  0
   -0.8788   -0.7266    0.9196 H   0  0  0  0  0  0  0  0  0  0  0  0
   -0.3559   -1.0533   -1.1339 C   0  0  0  0  0  0  0  0  0  0  0  0
    0.1270   -1.9785   -0.8142 H   0  0  0  0  0  0  0  0  0  0  0  0
   -0.9053   -1.2678   -2.0521 H   0  0  0  0  0  0  0  0  0  0  0  0
    0.7169   -0.0540   -1.4447 C   0  0  0  0  0  0  0  0  0  0  0  0
    1.5233   -0.0775   -2.5295 C   0  0  0  0  0  0  0  0  0  0  0  0
    1.4999   -0.8408   -3.2995 H   0  0  0  0  0  0  0  0  0  0  0  0
    2.3574    1.0232   -2.5117 N   0  0  0  0  0  0  0  0  0  0  0  0
    3.0485    1.2098   -3.2236 H   0  0  0  0  0  0  0  0  0  0  0  0
    2.1170    1.8246   -1.4160 C   0  0  0  0  0  0  0  0  0  0  0  0
    2.6670    3.0375   -0.9769 C   0  0  0  0  0  0  0  0  0  0  0  0
    3.4501    3.5202   -1.5429 H   0  0  0  0  0  0  0  0  0  0  0  0
    2.1862    3.6150    0.2107 C   0  0  0  0  0  0  0  0  0  0  0  0
    2.5992    4.5496    0.5654 H   0  0  0  0  0  0  0  0  0  0  0  0
    1.1708    2.9718    0.9418 C   0  0  0  0  0  0  0  0  0  0  0  0
    0.8097    3.4154    1.8593 H   0  0  0  0  0  0  0  0  0  0  0  0
    0.6267    1.7520    0.4920 C   0  0  0  0  0  0  0  0  0  0  0  0
   -0.1436    1.2617    1.0702 H   0  0  0  0  0  0  0  0  0  0  0  0
    1.0836    1.1494   -0.7001 C   0  0  0  0  0  0  0  0  0  0  0  0
   -1.7617    0.8549   -0.2106 C   0  0  0  0  0  0  0  0  0  0  0  0
   -2.5726    1.1871   -1.0741 O   0  0  0  0  0  0  0  0  0  0  0  0
   -1.1941    1.7377    0.6223 N   0  0  0  0  0  0  0  0  0  0  0  0
   -0.4976    1.3916    1.2669 H   0  0  0  0  0  0  0  0  0  0  0  0
   -1.4666    3.1722    0.6095 C   0  0  0  0  0  0  0  0  0  0  0  0
   -2.5439    3.3427    0.6539 H   0  0  0  0  0  0  0  0  0  0  0  0
   -0.9893    3.6529    1.4644 H   0  0  0  0  0  0  0  0  0  0  0  0
   -1.0808    3.6095   -0.3129 H   0  0  0  0  0  0  0  0  0  0  0  0
  5  6  2  0  0  0  0
  5  7  1  0  0  0  0
  2  3  1  0  0  0  0
  2  4  1  0  0  0  0
  2  5  1  0  0  0  0
  1  2  1  0  0  0  0
 29 30  2  0  0  0  0
 29 31  1  0  0  0  0
 26 27  1  0  0  0  0
 26 28  2  0  0  0  0
 24 25  1  0  0  0  0
 24 26  1  0  0  0  0
 22 23  1  0  0  0  0
 22 24  2  0  0  0  0
 20 21  1  0  0  0  0
 20 22  1  0  0  0  0
 19 20  2  0  0  0  0
 19 28  1  0  0  0  0
 17 18  1  0  0  0  0
 17 19  1  0  0  0  0
 15 16  1  0  0  0  0
 15 17  1  0  0  0  0
 14 15  2  0  0  0  0
 14 28  1  0  0  0  0
 11 12  1  0  0  0  0
 11 13  1  0  0  0  0
 11 14  1  0  0  0  0
  9 10  1  0  0  0  0
  9 11  1  0  0  0  0
  9 29  1  0  0  0  0
  7  8  1  0  0  0  0
  7  9  1  0  0  0  0
 33 34  1  0  0  0  0
 33 35  1  0  0  0  0
 33 36  1  0  0  0  0
 31 32  1  0  0  0  0
 31 33  1  0  0  0  0
M  END
$$$$
default_name
  -OEChem-02102213163D

 36 37  0     1  0  0  0  0  0999 V2000
   -4.0843   -4.0736    1.2944 H   0  0  0  0  0  0  0  0  0  0  0  0
   -4.0342   -3.2816    0.5484 C   0  0  0  0  0  0  0  0  0  0  0  0
   -4.8842   -2.6126    0.6694 H   0  0  0  0  0  0  0  0  0  0  0  0
   -4.0433   -3.7186   -0.4486 H   0  0  0  0  0  0  0  0  0  0  0  0
   -2.7532   -2.5046    0.7444 C   0  0  0  0  0  0  0  0  0  0  0  0
   -1.9803   -2.8096    1.6434 O   0  0  0  0  0  0  0  0  0  0  0  0
   -2.5332   -1.4966   -0.0966 N   0  0  0  0  0  0  0  0  0  0  0  0
   -3.2312   -1.2816   -0.7936 H   0  0  0  0  0  0  0  0  0  0  0  0
   -1.3593   -0.6196   -0.0536 C   0  0  1  0  0  0  0  0  0  0  0  0
   -0.8788   -0.7266    0.9196 H   0  0  0  0  0  0  0  0  0  0  0  0
   -0.3559   -1.0533   -1.1339 C   0  0  0  0  0  0  0  0  0  0  0  0
    0.1270   -1.9785   -0.8142 H   0  0  0  0  0  0  0  0  0  0  0  0
   -0.9053   -1.2678   -2.0521 H   0  0  0  0  0  0  0  0  0  0  0  0
    0.7169   -0.0540   -1.4447 C   0  0  0  0  0  0  0  0  0  0  0  0
    1.3265    0.0989   -2.6416 C   0  0  0  0  0  0  0  0  0  0  0  0
    1.1212   -0.5028   -3.5202 H   0  0  0  0  0  0  0  0  0  0  0  0
    2.2268    1.1441   -2.5739 N   0  0  0  0  0  0  0  0  0  0  0  0
    2.8002    1.4366   -3.3515 H   0  0  0  0  0  0  0  0  0  0  0  0
    2.2299    1.7313   -1.3265 C   0  0  0  0  0  0  0  0  0  0  0  0
    2.9291    2.8172   -0.7804 C   0  0  0  0  0  0  0  0  0  0  0  0
    3.6382    3.3690   -1.3799 H   0  0  0  0  0  0  0  0  0  0  0  0
    2.6957    3.1761    0.5582 C   0  0  0  0  0  0  0  0  0  0  0  0
    3.2266    4.0102    0.9967 H   0  0  0  0  0  0  0  0  0  0  0  0
    1.7746    2.4442    1.3297 C   0  0  0  0  0  0  0  0  0  0  0  0
    1.6042    2.7186    2.3616 H   0  0  0  0  0  0  0  0  0  0  0  0
    1.0789    1.3533    0.7710 C   0  0  0  0  0  0  0  0  0  0  0  0
    0.3840    0.7913    1.3787 H   0  0  0  0  0  0  0  0  0  0  0  0
    1.2864    0.9714   -0.5722 C   0  0  0  0  0  0  0  0  0  0  0  0
   -1.7617    0.8549   -0.2106 C   0  0  0  0  0  0  0  0  0  0  0  0
   -2.5726    1.1871   -1.0741 O   0  0  0  0  0  0  0  0  0  0  0  0
   -1.1941    1.7377    0.6223 N   0  0  0  0  0  0  0  0  0  0  0  0
   -0.4976    1.3916    1.2669 H   0  0  0  0  0  0  0  0  0  0  0  0
   -1.4666    3.1722    0.6095 C   0  0  0  0  0  0  0  0  0  0  0  0
   -2.5439    3.3427    0.6539 H   0  0  0  0  0  0  0  0  0  0  0  0
   -0.9893    3.6529    1.4644 H   0  0  0  0  0  0  0  0  0  0  0  0
   -1.0808    3.6095   -0.3129 H   0  0  0  0  0  0  0  0  0  0  0  0
  5  6  2  0  0  0  0
  5  7  1  0  0  0  0
  2  3  1  0  0  0  0
  2  4  1  0  0  0  0
  2  5  1  0  0  0  0
  1  2  1  0  0  0  0
 29 30  2  0  0  0  0
 29 31  1  0  0  0  0
 26 27  1  0  0  0  0
 26 28  2  0  0  0  0
 24 25  1  0  0  0  0
 24 26  1  0  0  0  0
 22 23  1  0  0  0  0
 22 24  2  0  0  0  0
 20 21  1  0  0  0  0
 20 22  1  0  0  0  0
 19 20  2  0  0  0  0
 19 28  1  0  0  0  0
 17 18  1  0  0  0  0
 17 19  1  0  0  0  0
 15 16  1  0  0  0  0
 15 17  1  0  0  0  0
 14 15  2  0  0  0  0
 14 28  1  0  0  0  0
 11 12  1  0  0  0  0
 11 13  1  0  0  0  0
 11 14  1  0  0  0  0
  9 10  1  0  0  0  0
  9 11  1  0  0  0  0
  9 29  1  0  0  0  0
  7  8  1  0  0  0  0
  7  9  1  0  0  0  0
 33 34  1  0  0  0  0
 33 35  1  0  0  0  0
 33 36  1  0  0  0  0
 31 32  1  0  0  0  0
 31 33  1  0  0  0  0
M  END
$$$$
default_name
  -OEChem-02102213163D

 36 37  0     1  0  0  0  0  0999 V2000
   -4.0843   -4.0736    1.2944 H   0  0  0  0  0  0  0  0  0  0  0  0
   -4.0342   -3.2816    0.5484 C   0  0  0  0  0  0  0  0  0  0  0  0
   -4.8842   -2.6126    0.6694 H   0  0  0  0  0  0  0  0  0  0  0  0
   -4.0433   -3.7186   -0.4486 H   0  0  0  0  0  0  0  0  0  0  0  0
   -2.7532   -2.5046    0.7444 C   0  0  0  0  0  0  0  0  0  0  0  0
   -1.9803   -2.8096    1.6434 O   0  0  0  0  0  0  0  0  0  0  0  0
   -2.5332   -1.4966   -0.0966 N   0  0  0  0  0  0  0  0  0  0  0  0
   -3.2312   -1.2816   -0.7936 H   0  0  0  0  0  0  0  0  0  0  0  0
   -1.3593   -0.6196   -0.0536 C   0  0  1  0  0  0  0  0  0  0  0  0
   -0.8788   -0.7266    0.9196 H   0  0  0  0  0  0  0  0  0  0  0  0
   -0.3559   -1.0533   -1.1339 C   0  0  0  0  0  0  0  0  0  0  0  0
    0.1270   -1.9785   -0.8142 H   0  0  0  0  0  0  0  0  0  0  0  0
   -0.9053   -1.2678   -2.0521 H   0  0  0  0  0  0  0  0  0  0  0  0
    0.7169   -0.0540   -1.4447 C   0  0  0  0  0  0  0  0  0  0  0  0
    1.1266    0.3006   -2.6833 C   0  0  0  0  0  0  0  0  0  0  0  0
    0.7354   -0.1151   -3.6053 H   0  0  0  0  0  0  0  0  0  0  0  0
    2.0963    1.2795   -2.5889 N   0  0  0  0  0  0  0  0  0  0  0  0
    2.5504    1.6928   -3.3903 H   0  0  0  0  0  0  0  0  0  0  0  0
    2.3494    1.6184   -1.2767 C   0  0  0  0  0  0  0  0  0  0  0  0
    3.2045    2.5539   -0.6766 C   0  0  0  0  0  0  0  0  0  0  0  0
    3.8399    3.1826   -1.2829 H   0  0  0  0  0  0  0  0  0  0  0  0
    3.2242    2.6605    0.7246 C   0  0  0  0  0  0  0  0  0  0  0  0
    3.8781    3.3756    1.2051 H   0  0  0  0  0  0  0  0  0  0  0  0
    2.3965    1.8303    1.5024 C   0  0  0  0  0  0  0  0  0  0  0  0
    2.4210    1.9098    2.5804 H   0  0  0  0  0  0  0  0  0  0  0  0
    1.5425    0.8922    0.8885 C   0  0  0  0  0  0  0  0  0  0  0  0
    0.9216    0.2513    1.4983 H   0  0  0  0  0  0  0  0  0  0  0  0
    1.4948    0.7650   -0.5166 C   0  0  0  0  0  0  0  0  0  0  0  0
   -1.7617    0.8549   -0.2106 C   0  0  0  0  0  0  0  0  0  0  0  0
   -2.5726    1.1871   -1.0741 O   0  0  0  0  0  0  0  0  0  0  0  0
   -1.1941    1.7377    0.6223 N   0  0  0  0  0  0  0  0  0  0  0  0
   -0.4976    1.3916    1.2669 H   0  0  0  0  0  0  0  0  0  0  0  0
   -1.4666    3.1722    0.6095 C   0  0  0  0  0  0  0  0  0  0  0  0
   -2.5439    3.3427    0.6539 H   0  0  0  0  0  0  0  0  0  0  0  0
   -0.9893    3.6529    1.4644 H   0  0  0  0  0  0  0  0  0  0  0  0
   -1.0808    3.6095   -0.3129 H   0  0  0  0  0  0  0  0  0  0  0  0
  5  6  2  0  0  0  0
  5  7  1  0  0  0  0
  2  3  1  0  0  0  0
  2  4  1  0  0  0  0
  2  5  1  0  0  0  0
  1  2  1  0  0  0  0
 29 30  2  0  0  0  0
 29 31  1  0  0  0  0
 26 27  1  0  0  0  0
 26 28  2  0  0  0  0
 24 25  1  0  0  0  0
 24 26  1  0  0  0  0
 22 23  1  0  0  0  0
 22 24  2  0  0  0  0
 20 21  1  0  0  0  0
 20 22  1  0  0  0  0
 19 20  2  0  0  0  0
 19 28  1  0  0  0  0
 17 18  1  0  0  0  0
 17 19  1  0  0  0  0
 15 16  1  0  0  0  0
 15 17  1  0  0  0  0
 14 15  2  0  0  0  0
 14 28  1  0  0  0  0
 11 12  1  0  0  0  0
 11 13  1  0  0  0  0
 11 14  1  0  0  0  0
  9 10  1  0  0  0  0
  9 11  1  0  0  0  0
  9 29  1  0  0  0  0
  7  8  1  0  0  0  0
  7  9  1  0  0  0  0
 33 34  1  0  0  0  0
 33 35  1  0  0  0  0
 33 36  1  0  0  0  0
 31 32  1  0  0  0  0
 31 33  1  0  0  0  0
M  END
$$$$
default_name
  -OEChem-02102213163D

 36 37  0     1  0  0  0  0  0999 V2000
   -4.0843   -4.0736    1.2944 H   0  0  0  0  0  0  0  0  0  0  0  0
   -4.0342   -3.2816    0.5484 C   0  0  0  0  0  0  0  0  0  0  0  0
   -4.8842   -2.6126    0.6694 H   0  0  0  0  0  0  0  0  0  0  0  0
   -4.0433   -3.7186   -0.4486 H   0  0  0  0  0  0  0  0  0  0  0  0
   -2.7532   -2.5046    0.7444 C   0  0  0  0  0  0  0  0  0  0  0  0
   -1.9803   -2.8096    1.6434 O   0  0  0  0  0  0  0  0  0  0  0  0
   -2.5332   -1.4966   -0.0966 N   0  0  0  0  0  0  0  0  0  0  0  0
   -3.2312   -1.2816   -0.7936 H   0  0  0  0  0  0  0  0  0  0  0  0
   -1.3593   -0.6196   -0.0536 C   0  0  1  0  0  0  0  0  0  0  0  0
   -0.8788   -0.7266    0.9196 H   0  0  0  0  0  0  0  0  0  0  0  0
   -0.3559   -1.0533   -1.1339 C   0  0  0  0  0  0  0  0  0  0  0  0
    0.1270   -1.9785   -0.8142 H   0  0  0  0  0  0  0  0  0  0  0  0
   -0.9053   -1.2678   -2.0521 H   0  0  0  0  0  0  0  0  0  0  0  0
    0.7169   -0.0540   -1.4447 C   0  0  0  0  0  0  0  0  0  0  0  0
    0.9371    0.5138   -2.6516 C   0  0  0  0  0  0  0  0  0  0  0  0
    0.3689    0.2958   -3.5492 H   0  0  0  0  0  0  0  0  0  0  0  0
    1.9750    1.4200   -2.5559 N   0  0  0  0  0  0  0  0  0  0  0  0
    2.3162    1.9607   -3.3371 H   0  0  0  0  0  0  0  0  0  0  0  0
    2.4674    1.4938   -1.2702 C   0  0  0  0  0  0  0  0  0  0  0  0
    3.4742    2.2656   -0.6726 C   0  0  0  0  0  0  0  0  0  0  0  0
    4.0414    2.9738   -1.2585 H   0  0  0  0  0  0  0  0  0  0  0  0
    3.7358    2.1032    0.6986 C   0  0  0  0  0  0  0  0  0  0  0  0
    4.5093    2.6891    1.1764 H   0  0  0  0  0  0  0  0  0  0  0  0
    2.9941    1.1719    1.4482 C   0  0  0  0  0  0  0  0  0  0  0  0
    3.2043    1.0442    2.5011 H   0  0  0  0  0  0  0  0  0  0  0  0
    1.9858    0.4001    0.8366 C   0  0  0  0  0  0  0  0  0  0  0  0
    1.4326   -0.3212    1.4212 H   0  0  0  0  0  0  0  0  0  0  0  0
    1.6946    0.5441   -0.5372 C   0  0  0  0  0  0  0  0  0  0  0  0
   -1.7617    0.8549   -0.2106 C   0  0  0  0  0  0  0  0  0  0  0  0
   -2.5726    1.1871   -1.0741 O   0  0  0  0  0  0  0  0  0  0  0  0
   -1.1941    1.7377    0.6223 N   0  0  0  0  0  0  0  0  0  0  0  0
   -0.4976    1.3916    1.2669 H   0  0  0  0  0  0  0  0  0  0  0  0
   -1.4666    3.1722    0.6095 C   0  0  0  0  0  0  0  0  0  0  0  0
   -2.5439    3.3427    0.6539 H   0  0  0  0  0  0  0  0  0  0  0  0
   -0.9893    3.6529    1.4644 H   0  0  0  0  0  0  0  0  0  0  0  0
   -1.0808    3.6095   -0.3129 H   0  0  0  0  0  0  0  0  0  0  0  0
  5  6  2  0  0  0  0
  5  7  1  0  0  0  0
  2  3  1  0  0  0  0
  2  4  1  0  0  0  0
  2  5  1  0  0  0  0
  1  2  1  0  0  0  0
 29 30  2  0  0  0  0
 29 31  1  0  0  0  0
 26 27  1  0  0  0  0
 26 28  2  0  0  0  0
 24 25  1  0  0  0  0
 24 26  1  0  0  0  0
 22 23  1  0  0  0  0
 22 24  2  0  0  0  0
 20 21  1  0  0  0  0
 20 22  1  0  0  0  0
 19 20  2  0  0  0  0
 19 28  1  0  0  0  0
 17 18  1  0  0  0  0
 17 19  1  0  0  0  0
 15 16  1  0  0  0  0
 15 17  1  0  0  0  0
 14 15  2  0  0  0  0
 14 28  1  0  0  0  0
 11 12  1  0  0  0  0
 11 13  1  0  0  0  0
 11 14  1  0  0  0  0
  9 10  1  0  0  0  0
  9 11  1  0  0  0  0
  9 29  1  0  0  0  0
  7  8  1  0  0  0  0
  7  9  1  0  0  0  0
 33 34  1  0  0  0  0
 33 35  1  0  0  0  0
 33 36  1  0  0  0  0
 31 32  1  0  0  0  0
 31 33  1  0  0  0  0
M  END
$$$$
default_name
  -OEChem-02102213163D

 36 37  0     1  0  0  0  0  0999 V2000
   -4.0843   -4.0736    1.2944 H   0  0  0  0  0  0  0  0  0  0  0  0
   -4.0342   -3.2816    0.5484 C   0  0  0  0  0  0  0  0  0  0  0  0
   -4.8842   -2.6126    0.6694 H   0  0  0  0  0  0  0  0  0  0  0  0
   -4.0433   -3.7186   -0.4486 H   0  0  0  0  0  0  0  0  0  0  0  0
   -2.7532   -2.5046    0.7444 C   0  0  0  0  0  0  0  0  0  0  0  0
   -1.9803   -2.8096    1.6434 O   0  0  0  0  0  0  0  0  0  0  0  0
   -2.5332   -1.4966   -0.0966 N   0  0  0  0  0  0  0  0  0  0  0  0
   -3.2312   -1.2816   -0.7936 H   0  0  0  0  0  0  0  0  0  0  0  0
   -1.3593   -0.6196   -0.0536 C   0  0  1  0  0  0  0  0  0  0  0  0
   -0.8788   -0.7266    0.9196 H   0  0  0  0  0  0  0  0  0  0  0  0
   -0.3559   -1.0533   -1.1339 C   0  0  0  0  0  0  0  0  0  0  0  0
    0.1270   -1.9785   -0.8142 H   0  0  0  0  0  0  0  0  0  0  0  0
   -0.9053   -1.2678   -2.0521 H   0  0  0  0  0  0  0  0  0  0  0  0
    0.7169   -0.0540   -1.4447 C   0  0  0  0  0  0  0  0  0  0  0  0
    0.7710    0.7242   -2.5488 C   0  0  0  0  0  0  0  0  0  0  0  0
    0.0466    0.7020   -3.3556 H   0  0  0  0  0  0  0  0  0  0  0  0
    1.8710    1.5562   -2.4769 N   0  0  0  0  0  0  0  0  0  0  0  0
    2.1135    2.2223   -3.1957 H   0  0  0  0  0  0  0  0  0  0  0  0
    2.5758    1.3659   -1.3074 C   0  0  0  0  0  0  0  0  0  0  0  0
    3.7199    1.9718   -0.7688 C   0  0  0  0  0  0  0  0  0  0  0  0
    4.2291    2.7568   -1.3084 H   0  0  0  0  0  0  0  0  0  0  0  0
    4.1955    1.5423    0.4819 C   0  0  0  0  0  0  0  0  0  0  0  0
    5.0772    1.9973    0.9125 H   0  0  0  0  0  0  0  0  0  0  0  0
    3.5266    0.5139    1.1707 C   0  0  0  0  0  0  0  0  0  0  0  0
    3.9008    0.1808    2.1288 H   0  0  0  0  0  0  0  0  0  0  0  0
    2.3786   -0.0893    0.6188 C   0  0  0  0  0  0  0  0  0  0  0  0
    1.8821   -0.8874    1.1523 H   0  0  0  0  0  0  0  0  0  0  0  0
    1.8722    0.3238   -0.6325 C   0  0  0  0  0  0  0  0  0  0  0  0
   -1.7617    0.8549   -0.2106 C   0  0  0  0  0  0  0  0  0  0  0  0
   -2.5726    1.1871   -1.0741 O   0  0  0  0  0  0  0  0  0  0  0  0
   -1.1941    1.7377    0.6223 N   0  0  0  0  0  0  0  0  0  0  0  0
   -0.4976    1.3916    1.2669 H   0  0  0  0  0  0  0  0  0  0  0  0
   -1.4666    3.1722    0.6095 C   0  0  0  0  0  0  0  0  0  0  0  0
   -2.5439    3.3427    0.6539 H   0  0  0  0  0  0  0  0  0  0  0  0
   -0.9893    3.6529    1.4644 H   0  0  0  0  0  0  0  0  0  0  0  0
   -1.0808    3.6095   -0.3129 H   0  0  0  0  0  0  0  0  0  0  0  0
  5  6  2  0  0  0  0
  5  7  1  0  0  0  0
  2  3  1  0  0  0  0
  2  4  1  0  0  0  0
  2  5  1  0  0  0  0
  1  2  1  0  0  0  0
 29 30  2  0  0  0  0
 29 31  1  0  0  0  0
 26 27  1  0  0  0  0
 26 28  2  0  0  0  0
 24 25  1  0  0  0  0
 24 26  1  0  0  0  0
 22 23  1  0  0  0  0
 22 24  2  0  0  0  0
 20 21  1  0  0  0  0
 20 22  1  0  0  0  0
 19 20  2  0  0  0  0
 19 28  1  0  0  0  0
 17 18  1  0  0  0  0
 17 19  1  0  0  0  0
 15 16  1  0  0  0  0
 15 17  1  0  0  0  0
 14 15  2  0  0  0  0
 14 28  1  0  0  0  0
 11 12  1  0  0  0  0
 11 13  1  0  0  0  0
 11 14  1  0  0  0  0
  9 10  1  0  0  0  0
  9 11  1  0  0  0  0
  9 29  1  0  0  0  0
  7  8  1  0  0  0  0
  7  9  1  0  0  0  0
 33 34  1  0  0  0  0
 33 35  1  0  0  0  0
 33 36  1  0  0  0  0
 31 32  1  0  0  0  0
 31 33  1  0  0  0  0
M  END
$$$$
default_name
  -OEChem-02102213163D

 36 37  0     1  0  0  0  0  0999 V2000
   -4.0843   -4.0736    1.2944 H   0  0  0  0  0  0  0  0  0  0  0  0
   -4.0342   -3.2816    0.5484 C   0  0  0  0  0  0  0  0  0  0  0  0
   -4.8842   -2.6126    0.6694 H   0  0  0  0  0  0  0  0  0  0  0  0
   -4.0433   -3.7186   -0.4486 H   0  0  0  0  0  0  0  0  0  0  0  0
   -2.7532   -2.5046    0.7444 C   0  0  0  0  0  0  0  0  0  0  0  0
   -1.9803   -2.8096    1.6434 O   0  0  0  0  0  0  0  0  0  0  0  0
   -2.5332   -1.4966   -0.0966 N   0  0  0  0  0  0  0  0  0  0  0  0
   -3.2312   -1.2816   -0.7936 H   0  0  0  0  0  0  0  0  0  0  0  0
   -1.3593   -0.6196   -0.0536 C   0  0  1  0  0  0  0  0  0  0  0  0
   -0.8788   -0.7266    0.9196 H   0  0  0  0  0  0  0  0  0  0  0  0
   -0.3559   -1.0533   -1.1339 C   0  0  0  0  0  0  0  0  0  0  0  0
    0.1270   -1.9785   -0.8142 H   0  0  0  0  0  0  0  0  0  0  0  0
   -0.9053   -1.2678   -2.0521 H   0  0  0  0  0  0  0  0  0  0  0  0
    0.7169   -0.0540   -1.4447 C   0  0  0  0  0  0  0  0  0  0  0  0
    0.6395    0.9172   -2.3819 C   0  0  0  0  0  0  0  0  0  0  0  0
   -0.2095    1.0758   -3.0377 H   0  0  0  0  0  0  0  0  0  0  0  0
    1.7915    1.6786   -2.3576 N   0  0  0  0  0  0  0  0  0  0  0  0
    1.9562    2.4596   -2.9757 H   0  0  0  0  0  0  0  0  0  0  0  0
    2.6672    1.2434   -1.3857 C   0  0  0  0  0  0  0  0  0  0  0  0
    3.9249    1.6928   -0.9585 C   0  0  0  0  0  0  0  0  0  0  0  0
    4.3902    2.5463   -1.4293 H   0  0  0  0  0  0  0  0  0  0  0  0
    4.5721    1.0159    0.0894 C   0  0  0  0  0  0  0  0  0  0  0  0
    5.5431    1.3476    0.4315 H   0  0  0  0  0  0  0  0  0  0  0  0
    3.9577   -0.0988    0.6889 C   0  0  0  0  0  0  0  0  0  0  0  0
    4.4629   -0.6217    1.4891 H   0  0  0  0  0  0  0  0  0  0  0  0
    2.6942   -0.5429    0.2500 C   0  0  0  0  0  0  0  0  0  0  0  0
    2.2395   -1.4086    0.7102 H   0  0  0  0  0  0  0  0  0  0  0  0
    2.0155    0.1191   -0.7960 C   0  0  0  0  0  0  0  0  0  0  0  0
   -1.7617    0.8549   -0.2106 C   0  0  0  0  0  0  0  0  0  0  0  0
   -2.5726    1.1871   -1.0741 O   0  0  0  0  0  0  0  0  0  0  0  0
   -1.1941    1.7377    0.6223 N   0  0  0  0  0  0  0  0  0  0  0  0
   -0.4976    1.3916    1.2669 H   0  0  0  0  0  0  0  0  0  0  0  0
   -1.4666    3.1722    0.6095 C   0  0  0  0  0  0  0  0  0  0  0  0
   -2.5439    3.3427    0.6539 H   0  0  0  0  0  0  0  0  0  0  0  0
   -0.9893    3.6529    1.4644 H   0  0  0  0  0  0  0  0  0  0  0  0
   -1.0808    3.6095   -0.3129 H   0  0  0  0  0  0  0  0  0  0  0  0
  5  6  2  0  0  0  0
  5  7  1  0  0  0  0
  2  3  1  0  0  0  0
  2  4  1  0  0  0  0
  2  5  1  0  0  0  0
  1  2  1  0  0  0  0
 29 30  2  0  0  0  0
 29 31  1  0  0  0  0
 26 27  1  0  0  0  0
 26 28  2  0  0  0  0
 24 25  1  0  0  0  0
 24 26  1  0  0  0  0
 22 23  1  0  0  0  0
 22 24  2  0  0  0  0
 20 21  1  0  0  0  0
 20 22  1  0  0  0  0
 19 20  2  0  0  0  0
 19 28  1  0  0  0  0
 17 18  1  0  0  0  0
 17 19  1  0  0  0  0
 15 16  1  0  0  0  0
 15 17  1  0  0  0  0
 14 15  2  0  0  0  0
 14 28  1  0  0  0  0
 11 12  1  0  0  0  0
 11 13  1  0  0  0  0
 11 14  1  0  0  0  0
  9 10  1  0  0  0  0
  9 11  1  0  0  0  0
  9 29  1  0  0  0  0
  7  8  1  0  0  0  0
  7  9  1  0  0  0  0
 33 34  1  0  0  0  0
 33 35  1  0  0  0  0
 33 36  1  0  0  0  0
 31 32  1  0  0  0  0
 31 33  1  0  0  0  0
M  END
$$$$
default_name
  -OEChem-02102213163D

 36 37  0     1  0  0  0  0  0999 V2000
   -4.0843   -4.0736    1.2944 H   0  0  0  0  0  0  0  0  0  0  0  0
   -4.0342   -3.2816    0.5484 C   0  0  0  0  0  0  0  0  0  0  0  0
   -4.8842   -2.6126    0.6694 H   0  0  0  0  0  0  0  0  0  0  0  0
   -4.0433   -3.7186   -0.4486 H   0  0  0  0  0  0  0  0  0  0  0  0
   -2.7532   -2.5046    0.7444 C   0  0  0  0  0  0  0  0  0  0  0  0
   -1.9803   -2.8096    1.6434 O   0  0  0  0  0  0  0  0  0  0  0  0
   -2.5332   -1.4966   -0.0966 N   0  0  0  0  0  0  0  0  0  0  0  0
   -3.2312   -1.2816   -0.7936 H   0  0  0  0  0  0  0  0  0  0  0  0
   -1.3593   -0.6196   -0.0536 C   0  0  1  0  0  0  0  0  0  0  0  0
   -0.8788   -0.7266    0.9196 H   0  0  0  0  0  0  0  0  0  0  0  0
   -0.3559   -1.0533   -1.1339 C   0  0  0  0  0  0  0  0  0  0  0  0
    0.1270   -1.9785   -0.8142 H   0  0  0  0  0  0  0  0  0  0  0  0
   -0.9053   -1.2678   -2.0521 H   0  0  0  0  0  0  0  0  0  0  0  0
    0.7169   -0.0540   -1.4447 C   0  0  0  0  0  0  0  0  0  0  0  0
    0.5517    1.0797   -2.1623 C   0  0  0  0  0  0  0  0  0  0  0  0
   -0.3820    1.3917   -2.6172 H   0  0  0  0  0  0  0  0  0  0  0  0
    1.7419    1.7791   -2.2058 N   0  0  0  0  0  0  0  0  0  0  0  0
    1.8549    2.6566   -2.6920 H   0  0  0  0  0  0  0  0  0  0  0  0
    2.7354    1.1347   -1.4998 C   0  0  0  0  0  0  0  0  0  0  0  0
    4.0752    1.4473   -1.2288 C   0  0  0  0  0  0  0  0  0  0  0  0
    4.5136    2.3567   -1.6128 H   0  0  0  0  0  0  0  0  0  0  0  0
    4.8399    0.5600   -0.4523 C   0  0  0  0  0  0  0  0  0  0  0  0
    5.8753    0.7841   -0.2339 H   0  0  0  0  0  0  0  0  0  0  0  0
    4.2582   -0.6245    0.0355 C   0  0  0  0  0  0  0  0  0  0  0  0
    4.8525   -1.3084    0.6256 H   0  0  0  0  0  0  0  0  0  0  0  0
    2.9111   -0.9295   -0.2448 C   0  0  0  0  0  0  0  0  0  0  0  0
    2.4804   -1.8493    0.1249 H   0  0  0  0  0  0  0  0  0  0  0  0
    2.1147   -0.0560   -1.0165 C   0  0  0  0  0  0  0  0  0  0  0  0
   -1.7617    0.8549   -0.2106 C   0  0  0  0  0  0  0  0  0  0  0  0
   -2.5726    1.1871   -1.0741 O   0  0  0  0  0  0  0  0  0  0  0  0
   -1.1941    1.7377    0.6223 N   0  0  0  0  0  0  0  0  0  0  0  0
   -0.4976    1.3916    1.2669 H   0  0  0  0  0  0  0  0  0  0  0  0
   -1.4666    3.1722    0.6095 C   0  0  0  0  0  0  0  0  0  0  0  0
   -2.5439    3.3427    0.6539 H   0  0  0  0  0  0  0  0  0  0  0  0
   -0.9893    3.6529    1.4644 H   0  0  0  0  0  0  0  0  0  0  0  0
   -1.0808    3.6095   -0.3129 H   0  0  0  0  0  0  0  0  0  0  0  0
  5  6  2  0  0  0  0
  5  7  1  0  0  0  0
  2  3  1  0  0  0  0
  2  4  1  0  0  0  0
  2  5  1  0  0  0  0
  1  2  1  0  0  0  0
 29 30  2  0  0  0  0
 29 31  1  0  0  0  0
 26 27  1  0  0  0  0
 26 28  2  0  0  0  0
 24 25  1  0  0  0  0
 24 26  1  0  0  0  0
 22 23  1  0  0  0  0
 22 24  2  0  0  0  0
 20 21  1  0  0  0  0
 20 22  1  0  0  0  0
 19 20  2  0  0  0  0
 19 28  1  0  0  0  0
 17 18  1  0  0  0  0
 17 19  1  0  0  0  0
 15 16  1  0  0  0  0
 15 17  1  0  0  0  0
 14 15  2  0  0  0  0
 14 28  1  0  0  0  0
 11 12  1  0  0  0  0
 11 13  1  0  0  0  0
 11 14  1  0  0  0  0
  9 10  1  0  0  0  0
  9 11  1  0  0  0  0
  9 29  1  0  0  0  0
  7  8  1  0  0  0  0
  7  9  1  0  0  0  0
 33 34  1  0  0  0  0
 33 35  1  0  0  0  0
 33 36  1  0  0  0  0
 31 32  1  0  0  0  0
 31 33  1  0  0  0  0
M  END
$$$$
default_name
  -OEChem-02102213163D

 36 37  0     1  0  0  0  0  0999 V2000
   -4.0843   -4.0736    1.2944 H   0  0  0  0  0  0  0  0  0  0  0  0
   -4.0342   -3.2816    0.5484 C   0  0  0  0  0  0  0  0  0  0  0  0
   -4.8842   -2.6126    0.6694 H   0  0  0  0  0  0  0  0  0  0  0  0
   -4.0433   -3.7186   -0.4486 H   0  0  0  0  0  0  0  0  0  0  0  0
   -2.7532   -2.5046    0.7444 C   0  0  0  0  0  0  0  0  0  0  0  0
   -1.9803   -2.8096    1.6434 O   0  0  0  0  0  0  0  0  0  0  0  0
   -2.5332   -1.4966   -0.0966 N   0  0  0  0  0  0  0  0  0  0  0  0
   -3.2312   -1.2816   -0.7936 H   0  0  0  0  0  0  0  0  0  0  0  0
   -1.3593   -0.6196   -0.0536 C   0  0  1  0  0  0  0  0  0  0  0  0
   -0.8788   -0.7266    0.9196 H   0  0  0  0  0  0  0  0  0  0  0  0
   -0.3559   -1.0533   -1.1339 C   0  0  0  0  0  0  0  0  0  0  0  0
    0.1270   -1.9785   -0.8142 H   0  0  0  0  0  0  0  0  0  0  0  0
   -0.9053   -1.2678   -2.0521 H   0  0  0  0  0  0  0  0  0  0  0  0
    0.7169   -0.0540   -1.4447 C   0  0  0  0  0  0  0  0  0  0  0  0
    0.5136    1.2008   -1.9048 C   0  0  0  0  0  0  0  0  0  0  0  0
   -0.4590    1.6282   -2.1227 H   0  0  0  0  0  0  0  0  0  0  0  0
    1.7256    1.8506   -2.0321 N   0  0  0  0  0  0  0  0  0  0  0  0
    1.8166    2.7997   -2.3641 H   0  0  0  0  0  0  0  0  0  0  0  0
    2.7758    1.0471   -1.6419 C   0  0  0  0  0  0  0  0  0  0  0  0
    4.1606    1.2523   -1.5613 C   0  0  0  0  0  0  0  0  0  0  0  0
    4.5910    2.2010   -1.8464 H   0  0  0  0  0  0  0  0  0  0  0  0
    4.9806    0.2056   -1.1062 C   0  0  0  0  0  0  0  0  0  0  0  0
    6.0510    0.3452   -1.0384 H   0  0  0  0  0  0  0  0  0  0  0  0
    4.4074   -1.0274   -0.7448 C   0  0  0  0  0  0  0  0  0  0  0  0
    5.0428   -1.8327   -0.4031 H   0  0  0  0  0  0  0  0  0  0  0  0
    3.0144   -1.2230   -0.8317 C   0  0  0  0  0  0  0  0  0  0  0  0
    2.5885   -2.1795   -0.5637 H   0  0  0  0  0  0  0  0  0  0  0  0
    2.1630   -0.1896   -1.2791 C   0  0  0  0  0  0  0  0  0  0  0  0
   -1.7617    0.8549   -0.2106 C   0  0  0  0  0  0  0  0  0  0  0  0
   -2.5726    1.1871   -1.0741 O   0  0  0  0  0  0  0  0  0  0  0  0
   -1.1941    1.7377    0.6223 N   0  0  0  0  0  0  0  0  0  0  0  0
   -0.4976    1.3916    1.2669 H   0  0  0  0  0  0  0  0  0  0  0  0
   -1.4666    3.1722    0.6095 C   0  0  0  0  0  0  0  0  0  0  0  0
   -2.5439    3.3427    0.6539 H   0  0  0  0  0  0  0  0  0  0  0  0
   -0.9893    3.6529    1.4644 H   0  0  0  0  0  0  0  0  0  0  0  0
   -1.0808    3.6095   -0.3129 H   0  0  0  0  0  0  0  0  0  0  0  0
  5  6  2  0  0  0  0
  5  7  1  0  0  0  0
  2  3  1  0  0  0  0
  2  4  1  0  0  0  0
  2  5  1  0  0  0  0
  1  2  1  0  0  0  0
 29 30  2  0  0  0  0
 29 31  1  0  0  0  0
 26 27  1  0  0  0  0
 26 28  2  0  0  0  0
 24 25  1  0  0  0  0
 24 26  1  0  0  0  0
 22 23  1  0  0  0  0
 22 24  2  0  0  0  0
 20 21  1  0  0  0  0
 20 22  1  0  0  0  0
 19 20  2  0  0  0  0
 19 28  1  0  0  0  0
 17 18  1  0  0  0  0
 17 19  1  0  0  0  0
 15 16  1  0  0  0  0
 15 17  1  0  0  0  0
 14 15  2  0  0  0  0
 14 28  1  0  0  0  0
 11 12  1  0  0  0  0
 11 13  1  0  0  0  0
 11 14  1  0  0  0  0
  9 10  1  0  0  0  0
  9 11  1  0  0  0  0
  9 29  1  0  0  0  0
  7  8  1  0  0  0  0
  7  9  1  0  0  0  0
 33 34  1  0  0  0  0
 33 35  1  0  0  0  0
 33 36  1  0  0  0  0
 31 32  1  0  0  0  0
 31 33  1  0  0  0  0
M  END
$$$$
default_name
  -OEChem-02102213163D

 36 37  0     1  0  0  0  0  0999 V2000
   -4.0843   -4.0736    1.2944 H   0  0  0  0  0  0  0  0  0  0  0  0
   -4.0342   -3.2816    0.5484 C   0  0  0  0  0  0  0  0  0  0  0  0
   -4.8842   -2.6126    0.6694 H   0  0  0  0  0  0  0  0  0  0  0  0
   -4.0433   -3.7186   -0.4486 H   0  0  0  0  0  0  0  0  0  0  0  0
   -2.7532   -2.5046    0.7444 C   0  0  0  0  0  0  0  0  0  0  0  0
   -1.9803   -2.8096    1.6434 O   0  0  0  0  0  0  0  0  0  0  0  0
   -2.5332   -1.4966   -0.0966 N   0  0  0  0  0  0  0  0  0  0  0  0
   -3.2312   -1.2816   -0.7936 H   0  0  0  0  0  0  0  0  0  0  0  0
   -1.3593   -0.6196   -0.0536 C   0  0  1  0  0  0  0  0  0  0  0  0
   -0.8788   -0.7266    0.9196 H   0  0  0  0  0  0  0  0  0  0  0  0
   -0.3559   -1.0533   -1.1339 C   0  0  0  0  0  0  0  0  0  0  0  0
    0.1270   -1.9785   -0.8142 H   0  0  0  0  0  0  0  0  0  0  0  0
   -0.9053   -1.2678   -2.0521 H   0  0  0  0  0  0  0  0  0  0  0  0
    0.7169   -0.0540   -1.4447 C   0  0  0  0  0  0  0  0  0  0  0  0
    0.5276    1.2721   -1.6271 C   0  0  0  0  0  0  0  0  0  0  0  0
   -0.4354    1.7692   -1.5880 H   0  0  0  0  0  0  0  0  0  0  0  0
    1.7436    1.8885   -1.8482 N   0  0  0  0  0  0  0  0  0  0  0  0
    1.8439    2.8792   -2.0142 H   0  0  0  0  0  0  0  0  0  0  0  0
    2.7855    0.9867   -1.8024 C   0  0  0  0  0  0  0  0  0  0  0  0
    4.1752    1.1209   -1.9334 C   0  0  0  0  0  0  0  0  0  0  0  0
    4.6170    2.0897   -2.1143 H   0  0  0  0  0  0  0  0  0  0  0  0
    4.9846   -0.0231   -1.8277 C   0  0  0  0  0  0  0  0  0  0  0  0
    6.0584    0.0609   -1.9270 H   0  0  0  0  0  0  0  0  0  0  0  0
    4.3952   -1.2800   -1.5989 C   0  0  0  0  0  0  0  0  0  0  0  0
    5.0210   -2.1587   -1.5266 H   0  0  0  0  0  0  0  0  0  0  0  0
    2.9972   -1.4033   -1.4709 C   0  0  0  0  0  0  0  0  0  0  0  0
    2.5563   -2.3766   -1.3086 H   0  0  0  0  0  0  0  0  0  0  0  0
    2.1573   -0.2726   -1.5659 C   0  0  0  0  0  0  0  0  0  0  0  0
   -1.7617    0.8549   -0.2106 C   0  0  0  0  0  0  0  0  0  0  0  0
   -2.5726    1.1871   -1.0741 O   0  0  0  0  0  0  0  0  0  0  0  0
   -1.1941    1.7377    0.6223 N   0  0  0  0  0  0  0  0  0  0  0  0
   -0.4976    1.3916    1.2669 H   0  0  0  0  0  0  0  0  0  0  0  0
   -1.4666    3.1722    0.6095 C   0  0  0  0  0  0  0  0  0  0  0  0
   -2.5439    3.3427    0.6539 H   0  0  0  0  0  0  0  0  0  0  0  0
   -0.9893    3.6529    1.4644 H   0  0  0  0  0  0  0  0  0  0  0  0
   -1.0808    3.6095   -0.3129 H   0  0  0  0  0  0  0  0  0  0  0  0
  5  6  2  0  0  0  0
  5  7  1  0  0  0  0
  2  3  1  0  0  0  0
  2  4  1  0  0  0  0
  2  5  1  0  0  0  0
  1  2  1  0  0  0  0
 29 30  2  0  0  0  0
 29 31  1  0  0  0  0
 26 27  1  0  0  0  0
 26 28  2  0  0  0  0
 24 25  1  0  0  0  0
 24 26  1  0  0  0  0
 22 23  1  0  0  0  0
 22 24  2  0  0  0  0
 20 21  1  0  0  0  0
 20 22  1  0  0  0  0
 19 20  2  0  0  0  0
 19 28  1  0  0  0  0
 17 18  1  0  0  0  0
 17 19  1  0  0  0  0
 15 16  1  0  0  0  0
 15 17  1  0  0  0  0
 14 15  2  0  0  0  0
 14 28  1  0  0  0  0
 11 12  1  0  0  0  0
 11 13  1  0  0  0  0
 11 14  1  0  0  0  0
  9 10  1  0  0  0  0
  9 11  1  0  0  0  0
  9 29  1  0  0  0  0
  7  8  1  0  0  0  0
  7  9  1  0  0  0  0
 33 34  1  0  0  0  0
 33 35  1  0  0  0  0
 33 36  1  0  0  0  0
 31 32  1  0  0  0  0
 31 33  1  0  0  0  0
M  END
$$$$
default_name
  -OEChem-02102213163D

 36 37  0     1  0  0  0  0  0999 V2000
   -4.0843   -4.0736    1.2944 H   0  0  0  0  0  0  0  0  0  0  0  0
   -4.0342   -3.2816    0.5484 C   0  0  0  0  0  0  0  0  0  0  0  0
   -4.8842   -2.6126    0.6694 H   0  0  0  0  0  0  0  0  0  0  0  0
   -4.0433   -3.7186   -0.4486 H   0  0  0  0  0  0  0  0  0  0  0  0
   -2.7532   -2.5046    0.7444 C   0  0  0  0  0  0  0  0  0  0  0  0
   -1.9803   -2.8096    1.6434 O   0  0  0  0  0  0  0  0  0  0  0  0
   -2.5332   -1.4966   -0.0966 N   0  0  0  0  0  0  0  0  0  0  0  0
   -3.2312   -1.2816   -0.7936 H   0  0  0  0  0  0  0  0  0  0  0  0
   -1.3593   -0.6196   -0.0536 C   0  0  1  0  0  0  0  0  0  0  0  0
   -0.8788   -0.7266    0.9196 H   0  0  0  0  0  0  0  0  0  0  0  0
   -0.3559   -1.0533   -1.1339 C   0  0  0  0  0  0  0  0  0  0  0  0
    0.1270   -1.9785   -0.8142 H   0  0  0  0  0  0  0  0  0  0  0  0
   -0.9053   -1.2678   -2.0521 H   0  0  0  0  0  0  0  0  0  0  0  0
    0.7169   -0.0540   -1.4447 C   0  0  0  0  0  0  0  0  0  0  0  0
    0.5929    1.2887   -1.3481 C   0  0  0  0  0  0  0  0  0  0  0  0
   -0.3128    1.8050   -1.0494 H   0  0  0  0  0  0  0  0  0  0  0  0
    1.7948    1.8900   -1.6667 N   0  0  0  0  0  0  0  0  0  0  0  0
    1.9349    2.8897   -1.6662 H   0  0  0  0  0  0  0  0  0  0  0  0
    2.7640    0.9576   -1.9703 C   0  0  0  0  0  0  0  0  0  0  0  0
    4.1181    1.0621   -2.3196 C   0  0  0  0  0  0  0  0  0  0  0  0
    4.5900    2.0305   -2.3982 H   0  0  0  0  0  0  0  0  0  0  0  0
    4.8517   -0.1106   -2.5677 C   0  0  0  0  0  0  0  0  0  0  0  0
    5.8968   -0.0494   -2.8394 H   0  0  0  0  0  0  0  0  0  0  0  0
    4.2226   -1.3651   -2.4686 C   0  0  0  0  0  0  0  0  0  0  0  0
    4.7886   -2.2644   -2.6685 H   0  0  0  0  0  0  0  0  0  0  0  0
    2.8605   -1.4581   -2.1187 C   0  0  0  0  0  0  0  0  0  0  0  0
    2.3861   -2.4273   -2.0592 H   0  0  0  0  0  0  0  0  0  0  0  0
    2.0977   -0.2993   -1.8573 C   0  0  0  0  0  0  0  0  0  0  0  0
   -1.7617    0.8549   -0.2106 C   0  0  0  0  0  0  0  0  0  0  0  0
   -2.5726    1.1871   -1.0741 O   0  0  0  0  0  0  0  0  0  0  0  0
   -1.1941    1.7377    0.6223 N   0  0  0  0  0  0  0  0  0  0  0  0
   -0.4976    1.3916    1.2669 H   0  0  0  0  0  0  0  0  0  0  0  0
   -1.4666    3.1722    0.6095 C   0  0  0  0  0  0  0  0  0  0  0  0
   -2.5439    3.3427    0.6539 H   0  0  0  0  0  0  0  0  0  0  0  0
   -0.9893    3.6529    1.4644 H   0  0  0  0  0  0  0  0  0  0  0  0
   -1.0808    3.6095   -0.3129 H   0  0  0  0  0  0  0  0  0  0  0  0
  5  6  2  0  0  0  0
  5  7  1  0  0  0  0
  2  3  1  0  0  0  0
  2  4  1  0  0  0  0
  2  5  1  0  0  0  0
  1  2  1  0  0  0  0
 29 30  2  0  0  0  0
 29 31  1  0  0  0  0
 26 27  1  0  0  0  0
 26 28  2  0  0  0  0
 24 25  1  0  0  0  0
 24 26  1  0  0  0  0
 22 23  1  0  0  0  0
 22 24  2  0  0  0  0
 20 21  1  0  0  0  0
 20 22  1  0  0  0  0
 19 20  2  0  0  0  0
 19 28  1  0  0  0  0
 17 18  1  0  0  0  0
 17 19  1  0  0  0  0
 15 16  1  0  0  0  0
 15 17  1  0  0  0  0
 14 15  2  0  0  0  0
 14 28  1  0  0  0  0
 11 12  1  0  0  0  0
 11 13  1  0  0  0  0
 11 14  1  0  0  0  0
  9 10  1  0  0  0  0
  9 11  1  0  0  0  0
  9 29  1  0  0  0  0
  7  8  1  0  0  0  0
  7  9  1  0  0  0  0
 33 34  1  0  0  0  0
 33 35  1  0  0  0  0
 33 36  1  0  0  0  0
 31 32  1  0  0  0  0
 31 33  1  0  0  0  0
M  END
$$$$
default_name
  -OEChem-02102213163D

 36 37  0     1  0  0  0  0  0999 V2000
   -4.0843   -4.0736    1.2944 H   0  0  0  0  0  0  0  0  0  0  0  0
   -4.0342   -3.2816    0.5484 C   0  0  0  0  0  0  0  0  0  0  0  0
   -4.8842   -2.6126    0.6694 H   0  0  0  0  0  0  0  0  0  0  0  0
   -4.0433   -3.7186   -0.4486 H   0  0  0  0  0  0  0  0  0  0  0  0
   -2.7532   -2.5046    0.7444 C   0  0  0  0  0  0  0  0  0  0  0  0
   -1.9803   -2.8096    1.6434 O   0  0  0  0  0  0  0  0  0  0  0  0
   -2.5332   -1.4966   -0.0966 N   0  0  0  0  0  0  0  0  0  0  0  0
   -3.2312   -1.2816   -0.7936 H   0  0  0  0  0  0  0  0  0  0  0  0
   -1.3593   -0.6196   -0.0536 C   0  0  1  0  0  0  0  0  0  0  0  0
   -0.8788   -0.7266    0.9196 H   0  0  0  0  0  0  0  0  0  0  0  0
   -0.3559   -1.0533   -1.1339 C   0  0  0  0  0  0  0  0  0  0  0  0
    0.1270   -1.9785   -0.8142 H   0  0  0  0  0  0  0  0  0  0  0  0
   -0.9053   -1.2678   -2.0521 H   0  0  0  0  0  0  0  0  0  0  0  0
    0.7169   -0.0540   -1.4447 C   0  0  0  0  0  0  0  0  0  0  0  0
    0.7051    1.2496   -1.0868 C   0  0  0  0  0  0  0  0  0  0  0  0
   -0.0994    1.7333   -0.5437 H   0  0  0  0  0  0  0  0  0  0  0  0
    1.8757    1.8550   -1.5000 N   0  0  0  0  0  0  0  0  0  0  0  0
    2.0834    2.8306   -1.3438 H   0  0  0  0  0  0  0  0  0  0  0  0
    2.7127    0.9618   -2.1341 C   0  0  0  0  0  0  0  0  0  0  0  0
    3.9930    1.0800   -2.6937 C   0  0  0  0  0  0  0  0  0  0  0  0
    4.5117    2.0273   -2.6787 H   0  0  0  0  0  0  0  0  0  0  0  0
    4.5909   -0.0508   -3.2758 C   0  0  0  0  0  0  0  0  0  0  0  0
    5.5775    0.0217   -3.7132 H   0  0  0  0  0  0  0  0  0  0  0  0
    3.9011   -1.2769   -3.2947 C   0  0  0  0  0  0  0  0  0  0  0  0
    4.3614   -2.1423   -3.7510 H   0  0  0  0  0  0  0  0  0  0  0  0
    2.6138   -1.3836   -2.7310 C   0  0  0  0  0  0  0  0  0  0  0  0
    2.0895   -2.3281   -2.7642 H   0  0  0  0  0  0  0  0  0  0  0  0
    1.9885   -0.2679   -2.1334 C   0  0  0  0  0  0  0  0  0  0  0  0
   -1.7617    0.8549   -0.2106 C   0  0  0  0  0  0  0  0  0  0  0  0
   -2.5726    1.1871   -1.0741 O   0  0  0  0  0  0  0  0  0  0  0  0
   -1.1941    1.7377    0.6223 N   0  0  0  0  0  0  0  0  0  0  0  0
   -0.4976    1.3916    1.2669 H   0  0  0  0  0  0  0  0  0  0  0  0
   -1.4666    3.1722    0.6095 C   0  0  0  0  0  0  0  0  0  0  0  0
   -2.5439    3.3427    0.6539 H   0  0  0  0  0  0  0  0  0  0  0  0
   -0.9893    3.6529    1.4644 H   0  0  0  0  0  0  0  0  0  0  0  0
   -1.0808    3.6095   -0.3129 H   0  0  0  0  0  0  0  0  0  0  0  0
  5  6  2  0  0  0  0
  5  7  1  0  0  0  0
  2  3  1  0  0  0  0
  2  4  1  0  0  0  0
  2  5  1  0  0  0  0
  1  2  1  0  0  0  0
 29 30  2  0  0  0  0
 29 31  1  0  0  0  0
 26 27  1  0  0  0  0
 26 28  2  0  0  0  0
 24 25  1  0  0  0  0
 24 26  1  0  0  0  0
 22 23  1  0  0  0  0
 22 24  2  0  0  0  0
 20 21  1  0  0  0  0
 20 22  1  0  0  0  0
 19 20  2  0  0  0  0
 19 28  1  0  0  0  0
 17 18  1  0  0  0  0
 17 19  1  0  0  0  0
 15 16  1  0  0  0  0
 15 17  1  0  0  0  0
 14 15  2  0  0  0  0
 14 28  1  0  0  0  0
 11 12  1  0  0  0  0
 11 13  1  0  0  0  0
 11 14  1  0  0  0  0
  9 10  1  0  0  0  0
  9 11  1  0  0  0  0
  9 29  1  0  0  0  0
  7  8  1  0  0  0  0
  7  9  1  0  0  0  0
 33 34  1  0  0  0  0
 33 35  1  0  0  0  0
 33 36  1  0  0  0  0
 31 32  1  0  0  0  0
 31 33  1  0  0  0  0
M  END
$$$$
default_name
  -OEChem-02102213163D

 36 37  0     1  0  0  0  0  0999 V2000
   -4.0843   -4.0736    1.2944 H   0  0  0  0  0  0  0  0  0  0  0  0
   -4.0342   -3.2816    0.5484 C   0  0  0  0  0  0  0  0  0  0  0  0
   -4.8842   -2.6126    0.6694 H   0  0  0  0  0  0  0  0  0  0  0  0
   -4.0433   -3.7186   -0.4486 H   0  0  0  0  0  0  0  0  0  0  0  0
   -2.7532   -2.5046    0.7444 C   0  0  0  0  0  0  0  0  0  0  0  0
   -1.9803   -2.8096    1.6434 O   0  0  0  0  0  0  0  0  0  0  0  0
   -2.5332   -1.4966   -0.0966 N   0  0  0  0  0  0  0  0  0  0  0  0
   -3.2312   -1.2816   -0.7936 H   0  0  0  0  0  0  0  0  0  0  0  0
   -1.3593   -0.6196   -0.0536 C   0  0  1  0  0  0  0  0  0  0  0  0
   -0.8788   -0.7266    0.9196 H   0  0  0  0  0  0  0  0  0  0  0  0
   -0.3559   -1.0533   -1.1339 C   0  0  0  0  0  0  0  0  0  0  0  0
    0.1270   -1.9785   -0.8142 H   0  0  0  0  0  0  0  0  0  0  0  0
   -0.9053   -1.2678   -2.0521 H   0  0  0  0  0  0  0  0  0  0  0  0
    0.7169   -0.0540   -1.4447 C   0  0  0  0  0  0  0  0  0  0  0  0
    0.8564    1.1574   -0.8610 C   0  0  0  0  0  0  0  0  0  0  0  0
    0.1900    1.5588   -0.1054 H   0  0  0  0  0  0  0  0  0  0  0  0
    1.9807    1.7861   -1.3593 N   0  0  0  0  0  0  0  0  0  0  0  0
    2.2793    2.7057   -1.0690 H   0  0  0  0  0  0  0  0  0  0  0  0
    2.6351    0.9989   -2.2828 C   0  0  0  0  0  0  0  0  0  0  0  0
    3.8087    1.1733   -3.0302 C   0  0  0  0  0  0  0  0  0  0  0  0
    4.3874    2.0804   -2.9368 H   0  0  0  0  0  0  0  0  0  0  0  0
    4.2200    0.1520   -3.9036 C   0  0  0  0  0  0  0  0  0  0  0  0
    5.1220    0.2694   -4.4890 H   0  0  0  0  0  0  0  0  0  0  0  0
    3.4528   -1.0214   -4.0208 C   0  0  0  0  0  0  0  0  0  0  0  0
    3.7684   -1.8010   -4.7002 H   0  0  0  0  0  0  0  0  0  0  0  0
    2.2738   -1.1850   -3.2661 C   0  0  0  0  0  0  0  0  0  0  0  0
    1.6866   -2.0857   -3.3755 H   0  0  0  0  0  0  0  0  0  0  0  0
    1.8371   -0.1806   -2.3754 C   0  0  0  0  0  0  0  0  0  0  0  0
   -1.7617    0.8549   -0.2106 C   0  0  0  0  0  0  0  0  0  0  0  0
   -2.5726    1.1871   -1.0741 O   0  0  0  0  0  0  0  0  0  0  0  0
   -1.1941    1.7377    0.6223 N   0  0  0  0  0  0  0  0  0  0  0  0
   -0.4976    1.3916    1.2669 H   0  0  0  0  0  0  0  0  0  0  0  0
   -1.4666    3.1722    0.6095 C   0  0  0  0  0  0  0  0  0  0  0  0
   -2.5439    3.3427    0.6539 H   0  0  0  0  0  0  0  0  0  0  0  0
   -0.9893    3.6529    1.4644 H   0  0  0  0  0  0  0  0  0  0  0  0
   -1.0808    3.6095   -0.3129 H   0  0  0  0  0  0  0  0  0  0  0  0
  5  6  2  0  0  0  0
  5  7  1  0  0  0  0
  2  3  1  0  0  0  0
  2  4  1  0  0  0  0
  2  5  1  0  0  0  0
  1  2  1  0  0  0  0
 29 30  2  0  0  0  0
 29 31  1  0  0  0  0
 26 27  1  0  0  0  0
 26 28  2  0  0  0  0
 24 25  1  0  0  0  0
 24 26  1  0  0  0  0
 22 23  1  0  0  0  0
 22 24  2  0  0  0  0
 20 21  1  0  0  0  0
 20 22  1  0  0  0  0
 19 20  2  0  0  0  0
 19 28  1  0  0  0  0
 17 18  1  0  0  0  0
 17 19  1  0  0  0  0
 15 16  1  0  0  0  0
 15 17  1  0  0  0  0
 14 15  2  0  0  0  0
 14 28  1  0  0  0  0
 11 12  1  0  0  0  0
 11 13  1  0  0  0  0
 11 14  1  0  0  0  0
  9 10  1  0  0  0  0
  9 11  1  0  0  0  0
  9 29  1  0  0  0  0
  7  8  1  0  0  0  0
  7  9  1  0  0  0  0
 33 34  1  0  0  0  0
 33 35  1  0  0  0  0
 33 36  1  0  0  0  0
 31 32  1  0  0  0  0
 31 33  1  0  0  0  0
M  END
$$$$
default_name
  -OEChem-02102213163D

 36 37  0     1  0  0  0  0  0999 V2000
   -4.0843   -4.0736    1.2944 H   0  0  0  0  0  0  0  0  0  0  0  0
   -4.0342   -3.2816    0.5484 C   0  0  0  0  0  0  0  0  0  0  0  0
   -4.8842   -2.6126    0.6694 H   0  0  0  0  0  0  0  0  0  0  0  0
   -4.0433   -3.7186   -0.4486 H   0  0  0  0  0  0  0  0  0  0  0  0
   -2.7532   -2.5046    0.7444 C   0  0  0  0  0  0  0  0  0  0  0  0
   -1.9803   -2.8096    1.6434 O   0  0  0  0  0  0  0  0  0  0  0  0
   -2.5332   -1.4966   -0.0966 N   0  0  0  0  0  0  0  0  0  0  0  0
   -3.2312   -1.2816   -0.7936 H   0  0  0  0  0  0  0  0  0  0  0  0
   -1.3593   -0.6196   -0.0536 C   0  0  1  0  0  0  0  0  0  0  0  0
   -0.8788   -0.7266    0.9196 H   0  0  0  0  0  0  0  0  0  0  0  0
   -0.3559   -1.0533   -1.1339 C   0  0  0  0  0  0  0  0  0  0  0  0
    0.1270   -1.9785   -0.8142 H   0  0  0  0  0  0  0  0  0  0  0  0
   -0.9053   -1.2678   -2.0521 H   0  0  0  0  0  0  0  0  0  0  0  0
    0.7169   -0.0540   -1.4447 C   0  0  0  0  0  0  0  0  0  0  0  0
    1.0366    1.0184   -0.6861 C   0  0  0  0  0  0  0  0  0  0  0  0
    0.5359    1.2936    0.2357 H   0  0  0  0  0  0  0  0  0  0  0  0
    2.1026    1.6878   -1.2543 N   0  0  0  0  0  0  0  0  0  0  0  0
    2.5093    2.5236   -0.8605 H   0  0  0  0  0  0  0  0  0  0  0  0
    2.5365    1.0664   -2.4061 C   0  0  0  0  0  0  0  0  0  0  0  0
    3.5775    1.3356   -3.3061 C   0  0  0  0  0  0  0  0  0  0  0  0
    4.2258    2.1862   -3.1547 H   0  0  0  0  0  0  0  0  0  0  0  0
    3.7643    0.4842   -4.4085 C   0  0  0  0  0  0  0  0  0  0  0  0
    4.5614    0.6768   -5.1138 H   0  0  0  0  0  0  0  0  0  0  0  0
    2.9081   -0.6160   -4.5974 C   0  0  0  0  0  0  0  0  0  0  0  0
    3.0502   -1.2636   -5.4515 H   0  0  0  0  0  0  0  0  0  0  0  0
    1.8637   -0.8759   -3.6875 C   0  0  0  0  0  0  0  0  0  0  0  0
    1.2049   -1.7167   -3.8517 H   0  0  0  0  0  0  0  0  0  0  0  0
    1.6537   -0.0433   -2.5669 C   0  0  0  0  0  0  0  0  0  0  0  0
   -1.7617    0.8549   -0.2106 C   0  0  0  0  0  0  0  0  0  0  0  0
   -2.5726    1.1871   -1.0741 O   0  0  0  0  0  0  0  0  0  0  0  0
   -1.1941    1.7377    0.6223 N   0  0  0  0  0  0  0  0  0  0  0  0
   -0.4976    1.3916    1.2669 H   0  0  0  0  0  0  0  0  0  0  0  0
   -1.4666    3.1722    0.6095 C   0  0  0  0  0  0  0  0  0  0  0  0
   -2.5439    3.3427    0.6539 H   0  0  0  0  0  0  0  0  0  0  0  0
   -0.9893    3.6529    1.4644 H   0  0  0  0  0  0  0  0  0  0  0  0
   -1.0808    3.6095   -0.3129 H   0  0  0  0  0  0  0  0  0  0  0  0
  5  6  2  0  0  0  0
  5  7  1  0  0  0  0
  2  3  1  0  0  0  0
  2  4  1  0  0  0  0
  2  5  1  0  0  0  0
  1  2  1  0  0  0  0
 29 30  2  0  0  0  0
 29 31  1  0  0  0  0
 26 27  1  0  0  0  0
 26 28  2  0  0  0  0
 24 25  1  0  0  0  0
 24 26  1  0  0  0  0
 22 23  1  0  0  0  0
 22 24  2  0  0  0  0
 20 21  1  0  0  0  0
 20 22  1  0  0  0  0
 19 20  2  0  0  0  0
 19 28  1  0  0  0  0
 17 18  1  0  0  0  0
 17 19  1  0  0  0  0
 15 16  1  0  0  0  0
 15 17  1  0  0  0  0
 14 15  2  0  0  0  0
 14 28  1  0  0  0  0
 11 12  1  0  0  0  0
 11 13  1  0  0  0  0
 11 14  1  0  0  0  0
  9 10  1  0  0  0  0
  9 11  1  0  0  0  0
  9 29  1  0  0  0  0
  7  8  1  0  0  0  0
  7  9  1  0  0  0  0
 33 34  1  0  0  0  0
 33 35  1  0  0  0  0
 33 36  1  0  0  0  0
 31 32  1  0  0  0  0
 31 33  1  0  0  0  0
M  END
$$$$
default_name
  -OEChem-02102213163D

 36 37  0     1  0  0  0  0  0999 V2000
   -4.0843   -4.0736    1.2944 H   0  0  0  0  0  0  0  0  0  0  0  0
   -4.0342   -3.2816    0.5484 C   0  0  0  0  0  0  0  0  0  0  0  0
   -4.8842   -2.6126    0.6694 H   0  0  0  0  0  0  0  0  0  0  0  0
   -4.0433   -3.7186   -0.4486 H   0  0  0  0  0  0  0  0  0  0  0  0
   -2.7532   -2.5046    0.7444 C   0  0  0  0  0  0  0  0  0  0  0  0
   -1.9803   -2.8096    1.6434 O   0  0  0  0  0  0  0  0  0  0  0  0
   -2.5332   -1.4966   -0.0966 N   0  0  0  0  0  0  0  0  0  0  0  0
   -3.2312   -1.2816   -0.7936 H   0  0  0  0  0  0  0  0  0  0  0  0
   -1.3593   -0.6196   -0.0536 C   0  0  1  0  0  0  0  0  0  0  0  0
   -0.8788   -0.7266    0.9196 H   0  0  0  0  0  0  0  0  0  0  0  0
   -0.3559   -1.0533   -1.1339 C   0  0  0  0  0  0  0  0  0  0  0  0
    0.1270   -1.9785   -0.8142 H   0  0  0  0  0  0  0  0  0  0  0  0
   -0.9053   -1.2678   -2.0521 H   0  0  0  0  0  0  0  0  0  0  0  0
    0.7169   -0.0540   -1.4447 C   0  0  0  0  0  0  0  0  0  0  0  0
    1.2333    0.8420   -0.5740 C   0  0  0  0  0  0  0  0  0  0  0  0
    0.9147    0.9556    0.4564 H   0  0  0  0  0  0  0  0  0  0  0  0
    2.2333    1.5668   -1.1922 N   0  0  0  0  0  0  0  0  0  0  0  0
    2.7577    2.2968   -0.7326 H   0  0  0  0  0  0  0  0  0  0  0  0
    2.4235    1.1598   -2.4956 C   0  0  0  0  0  0  0  0  0  0  0  0
    3.3154    1.5559   -3.5026 C   0  0  0  0  0  0  0  0  0  0  0  0
    4.0377    2.3374   -3.3178 H   0  0  0  0  0  0  0  0  0  0  0  0
    3.2548    0.9231   -4.7560 C   0  0  0  0  0  0  0  0  0  0  0  0
    3.9340    1.2162   -5.5451 H   0  0  0  0  0  0  0  0  0  0  0  0
    2.3042   -0.0884   -4.9853 C   0  0  0  0  0  0  0  0  0  0  0  0
    2.2556   -0.5668   -5.9537 H   0  0  0  0  0  0  0  0  0  0  0  0
    1.4115   -0.4771   -3.9664 C   0  0  0  0  0  0  0  0  0  0  0  0
    0.6773   -1.2463   -4.1601 H   0  0  0  0  0  0  0  0  0  0  0  0
    1.4509    0.1347   -2.6948 C   0  0  0  0  0  0  0  0  0  0  0  0
   -1.7617    0.8549   -0.2106 C   0  0  0  0  0  0  0  0  0  0  0  0
   -2.5726    1.1871   -1.0741 O   0  0  0  0  0  0  0  0  0  0  0  0
   -1.1941    1.7377    0.6223 N   0  0  0  0  0  0  0  0  0  0  0  0
   -0.4976    1.3916    1.2669 H   0  0  0  0  0  0  0  0  0  0  0  0
   -1.4666    3.1722    0.6095 C   0  0  0  0  0  0  0  0  0  0  0  0
   -2.5439    3.3427    0.6539 H   0  0  0  0  0  0  0  0  0  0  0  0
   -0.9893    3.6529    1.4644 H   0  0  0  0  0  0  0  0  0  0  0  0
   -1.0808    3.6095   -0.3129 H   0  0  0  0  0  0  0  0  0  0  0  0
  5  6  2  0  0  0  0
  5  7  1  0  0  0  0
  2  3  1  0  0  0  0
  2  4  1  0  0  0  0
  2  5  1  0  0  0  0
  1  2  1  0  0  0  0
 29 30  2  0  0  0  0
 29 31  1  0  0  0  0
 26 27  1  0  0  0  0
 26 28  2  0  0  0  0
 24 25  1  0  0  0  0
 24 26  1  0  0  0  0
 22 23  1  0  0  0  0
 22 24  2  0  0  0  0
 20 21  1  0  0  0  0
 20 22  1  0  0  0  0
 19 20  2  0  0  0  0
 19 28  1  0  0  0  0
 17 18  1  0  0  0  0
 17 19  1  0  0  0  0
 15 16  1  0  0  0  0
 15 17  1  0  0  0  0
 14 15  2  0  0  0  0
 14 28  1  0  0  0  0
 11 12  1  0  0  0  0
 11 13  1  0  0  0  0
 11 14  1  0  0  0  0
  9 10  1  0  0  0  0
  9 11  1  0  0  0  0
  9 29  1  0  0  0  0
  7  8  1  0  0  0  0
  7  9  1  0  0  0  0
 33 34  1  0  0  0  0
 33 35  1  0  0  0  0
 33 36  1  0  0  0  0
 31 32  1  0  0  0  0
 31 33  1  0  0  0  0
M  END
$$$$
default_name
  -OEChem-02102213163D

 36 37  0     1  0  0  0  0  0999 V2000
   -4.0843   -4.0736    1.2944 H   0  0  0  0  0  0  0  0  0  0  0  0
   -4.0342   -3.2816    0.5484 C   0  0  0  0  0  0  0  0  0  0  0  0
   -4.8842   -2.6126    0.6694 H   0  0  0  0  0  0  0  0  0  0  0  0
   -4.0433   -3.7186   -0.4486 H   0  0  0  0  0  0  0  0  0  0  0  0
   -2.7532   -2.5046    0.7444 C   0  0  0  0  0  0  0  0  0  0  0  0
   -1.9803   -2.8096    1.6434 O   0  0  0  0  0  0  0  0  0  0  0  0
   -2.5332   -1.4966   -0.0966 N   0  0  0  0  0  0  0  0  0  0  0  0
   -3.2312   -1.2816   -0.7936 H   0  0  0  0  0  0  0  0  0  0  0  0
   -1.3593   -0.6196   -0.0536 C   0  0  1  0  0  0  0  0  0  0  0  0
   -0.8788   -0.7266    0.9196 H   0  0  0  0  0  0  0  0  0  0  0  0
   -0.3559   -1.0533   -1.1339 C   0  0  0  0  0  0  0  0  0  0  0  0
    0.1270   -1.9785   -0.8142 H   0  0  0  0  0  0  0  0  0  0  0  0
   -0.9053   -1.2678   -2.0521 H   0  0  0  0  0  0  0  0  0  0  0  0
    0.7169   -0.0540   -1.4447 C   0  0  0  0  0  0  0  0  0  0  0  0
    1.4333    0.6403   -0.5323 C   0  0  0  0  0  0  0  0  0  0  0  0
    1.3005    0.5679    0.5416 H   0  0  0  0  0  0  0  0  0  0  0  0
    2.3638    1.4314   -1.1772 N   0  0  0  0  0  0  0  0  0  0  0  0
    3.0075    2.0407   -0.6938 H   0  0  0  0  0  0  0  0  0  0  0  0
    2.3040    1.2726   -2.5454 C   0  0  0  0  0  0  0  0  0  0  0  0
    3.0400    1.8192   -3.6064 C   0  0  0  0  0  0  0  0  0  0  0  0
    3.8360    2.5238   -3.4148 H   0  0  0  0  0  0  0  0  0  0  0  0
    2.7263    1.4388   -4.9224 C   0  0  0  0  0  0  0  0  0  0  0  0
    3.2825    1.8508   -5.7535 H   0  0  0  0  0  0  0  0  0  0  0  0
    1.6824    0.5255   -5.1580 C   0  0  0  0  0  0  0  0  0  0  0  0
    1.4388    0.2420   -6.1726 H   0  0  0  0  0  0  0  0  0  0  0  0
    0.9479   -0.0160   -4.0840 C   0  0  0  0  0  0  0  0  0  0  0  0
    0.1397   -0.7063   -4.2798 H   0  0  0  0  0  0  0  0  0  0  0  0
    1.2425    0.3411   -2.7503 C   0  0  0  0  0  0  0  0  0  0  0  0
   -1.7617    0.8549   -0.2106 C   0  0  0  0  0  0  0  0  0  0  0  0
   -2.5726    1.1871   -1.0741 O   0  0  0  0  0  0  0  0  0  0  0  0
   -1.1941    1.7377    0.6223 N   0  0  0  0  0  0  0  0  0  0  0  0
   -0.4976    1.3916    1.2669 H   0  0  0  0  0  0  0  0  0  0  0  0
   -1.4666    3.1722    0.6095 C   0  0  0  0  0  0  0  0  0  0  0  0
   -2.5439    3.3427    0.6539 H   0  0  0  0  0  0  0  0  0  0  0  0
   -0.9893    3.6529    1.4644 H   0  0  0  0  0  0  0  0  0  0  0  0
   -1.0808    3.6095   -0.3129 H   0  0  0  0  0  0  0  0  0  0  0  0
  5  6  2  0  0  0  0
  5  7  1  0  0  0  0
  2  3  1  0  0  0  0
  2  4  1  0  0  0  0
  2  5  1  0  0  0  0
  1  2  1  0  0  0  0
 29 30  2  0  0  0  0
 29 31  1  0  0  0  0
 26 27  1  0  0  0  0
 26 28  2  0  0  0  0
 24 25  1  0  0  0  0
 24 26  1  0  0  0  0
 22 23  1  0  0  0  0
 22 24  2  0  0  0  0
 20 21  1  0  0  0  0
 20 22  1  0  0  0  0
 19 20  2  0  0  0  0
 19 28  1  0  0  0  0
 17 18  1  0  0  0  0
 17 19  1  0  0  0  0
 15 16  1  0  0  0  0
 15 17  1  0  0  0  0
 14 15  2  0  0  0  0
 14 28  1  0  0  0  0
 11 12  1  0  0  0  0
 11 13  1  0  0  0  0
 11 14  1  0  0  0  0
  9 10  1  0  0  0  0
  9 11  1  0  0  0  0
  9 29  1  0  0  0  0
  7  8  1  0  0  0  0
  7  9  1  0  0  0  0
 33 34  1  0  0  0  0
 33 35  1  0  0  0  0
 33 36  1  0  0  0  0
 31 32  1  0  0  0  0
 31 33  1  0  0  0  0
M  END
$$$$
default_name
  -OEChem-02102213163D

 36 37  0     1  0  0  0  0  0999 V2000
   -4.0843   -4.0736    1.2944 H   0  0  0  0  0  0  0  0  0  0  0  0
   -4.0342   -3.2816    0.5484 C   0  0  0  0  0  0  0  0  0  0  0  0
   -4.8842   -2.6126    0.6694 H   0  0  0  0  0  0  0  0  0  0  0  0
   -4.0433   -3.7186   -0.4486 H   0  0  0  0  0  0  0  0  0  0  0  0
   -2.7532   -2.5046    0.7444 C   0  0  0  0  0  0  0  0  0  0  0  0
   -1.9803   -2.8096    1.6434 O   0  0  0  0  0  0  0  0  0  0  0  0
   -2.5332   -1.4966   -0.0966 N   0  0  0  0  0  0  0  0  0  0  0  0
   -3.2312   -1.2816   -0.7936 H   0  0  0  0  0  0  0  0  0  0  0  0
   -1.3593   -0.6196   -0.0536 C   0  0  1  0  0  0  0  0  0  0  0  0
   -0.8788   -0.7266    0.9196 H   0  0  0  0  0  0  0  0  0  0  0  0
   -0.3559   -1.0533   -1.1339 C   0  0  0  0  0  0  0  0  0  0  0  0
    0.1270   -1.9785   -0.8142 H   0  0  0  0  0  0  0  0  0  0  0  0
   -0.9053   -1.2678   -2.0521 H   0  0  0  0  0  0  0  0  0  0  0  0
    0.7169   -0.0540   -1.4447 C   0  0  0  0  0  0  0  0  0  0  0  0
    1.6228    0.4270   -0.5640 C   0  0  0  0  0  0  0  0  0  0  0  0
    1.6670    0.1570    0.4854 H   0  0  0  0  0  0  0  0  0  0  0  0
    2.4851    1.2909   -1.2102 N   0  0  0  0  0  0  0  0  0  0  0  0
    3.2417    1.7727   -0.7470 H   0  0  0  0  0  0  0  0  0  0  0  0
    2.1860    1.3972   -2.5519 C   0  0  0  0  0  0  0  0  0  0  0  0
    2.7703    2.1075   -3.6104 C   0  0  0  0  0  0  0  0  0  0  0  0
    3.6344    2.7326   -3.4392 H   0  0  0  0  0  0  0  0  0  0  0  0
    2.2147    1.9961   -4.8964 C   0  0  0  0  0  0  0  0  0  0  0  0
    2.6513    2.5374   -5.7248 H   0  0  0  0  0  0  0  0  0  0  0  0
    1.0848    1.1839   -5.1038 C   0  0  0  0  0  0  0  0  0  0  0  0
    0.6555    1.1076   -6.0932 H   0  0  0  0  0  0  0  0  0  0  0  0
    0.5046    0.4760   -4.0321 C   0  0  0  0  0  0  0  0  0  0  0  0
   -0.3712   -0.1338   -4.2026 H   0  0  0  0  0  0  0  0  0  0  0  0
    1.0427    0.5620   -2.7298 C   0  0  0  0  0  0  0  0  0  0  0  0
   -1.7617    0.8549   -0.2106 C   0  0  0  0  0  0  0  0  0  0  0  0
   -2.5726    1.1871   -1.0741 O   0  0  0  0  0  0  0  0  0  0  0  0
   -1.1941    1.7377    0.6223 N   0  0  0  0  0  0  0  0  0  0  0  0
   -0.4976    1.3916    1.2669 H   0  0  0  0  0  0  0  0  0  0  0  0
   -1.4666    3.1722    0.6095 C   0  0  0  0  0  0  0  0  0  0  0  0
   -2.5439    3.3427    0.6539 H   0  0  0  0  0  0  0  0  0  0  0  0
   -0.9893    3.6529    1.4644 H   0  0  0  0  0  0  0  0  0  0  0  0
   -1.0808    3.6095   -0.3129 H   0  0  0  0  0  0  0  0  0  0  0  0
  5  6  2  0  0  0  0
  5  7  1  0  0  0  0
  2  3  1  0  0  0  0
  2  4  1  0  0  0  0
  2  5  1  0  0  0  0
  1  2  1  0  0  0  0
 29 30  2  0  0  0  0
 29 31  1  0  0  0  0
 26 27  1  0  0  0  0
 26 28  2  0  0  0  0
 24 25  1  0  0  0  0
 24 26  1  0  0  0  0
 22 23  1  0  0  0  0
 22 24  2  0  0  0  0
 20 21  1  0  0  0  0
 20 22  1  0  0  0  0
 19 20  2  0  0  0  0
 19 28  1  0  0  0  0
 17 18  1  0  0  0  0
 17 19  1  0  0  0  0
 15 16  1  0  0  0  0
 15 17  1  0  0  0  0
 14 15  2  0  0  0  0
 14 28  1  0  0  0  0
 11 12  1  0  0  0  0
 11 13  1  0  0  0  0
 11 14  1  0  0  0  0
  9 10  1  0  0  0  0
  9 11  1  0  0  0  0
  9 29  1  0  0  0  0
  7  8  1  0  0  0  0
  7  9  1  0  0  0  0
 33 34  1  0  0  0  0
 33 35  1  0  0  0  0
 33 36  1  0  0  0  0
 31 32  1  0  0  0  0
 31 33  1  0  0  0  0
M  END
$$$$
default_name
  -OEChem-02102213163D

 36 37  0     1  0  0  0  0  0999 V2000
   -4.0843   -4.0736    1.2944 H   0  0  0  0  0  0  0  0  0  0  0  0
   -4.0342   -3.2816    0.5484 C   0  0  0  0  0  0  0  0  0  0  0  0
   -4.8842   -2.6126    0.6694 H   0  0  0  0  0  0  0  0  0  0  0  0
   -4.0433   -3.7186   -0.4486 H   0  0  0  0  0  0  0  0  0  0  0  0
   -2.7532   -2.5046    0.7444 C   0  0  0  0  0  0  0  0  0  0  0  0
   -1.9803   -2.8096    1.6434 O   0  0  0  0  0  0  0  0  0  0  0  0
   -2.5332   -1.4966   -0.0966 N   0  0  0  0  0  0  0  0  0  0  0  0
   -3.2312   -1.2816   -0.7936 H   0  0  0  0  0  0  0  0  0  0  0  0
   -1.3593   -0.6196   -0.0536 C   0  0  1  0  0  0  0  0  0  0  0  0
   -0.8788   -0.7266    0.9196 H   0  0  0  0  0  0  0  0  0  0  0  0
   -0.3559   -1.0533   -1.1339 C   0  0  0  0  0  0  0  0  0  0  0  0
    0.1270   -1.9785   -0.8142 H   0  0  0  0  0  0  0  0  0  0  0  0
   -0.9053   -1.2678   -2.0521 H   0  0  0  0  0  0  0  0  0  0  0  0
    0.7169   -0.0540   -1.4447 C   0  0  0  0  0  0  0  0  0  0  0  0
    1.7889    0.2167   -0.6667 C   0  0  0  0  0  0  0  0  0  0  0  0
    1.9893   -0.2492    0.2918 H   0  0  0  0  0  0  0  0  0  0  0  0
    2.5891    1.1547   -1.2891 N   0  0  0  0  0  0  0  0  0  0  0  0
    3.4444    1.5112   -0.8884 H   0  0  0  0  0  0  0  0  0  0  0  0
    2.0777    1.5251   -2.5147 C   0  0  0  0  0  0  0  0  0  0  0  0
    2.5246    2.4013   -3.5142 C   0  0  0  0  0  0  0  0  0  0  0  0
    3.4467    2.9496   -3.3892 H   0  0  0  0  0  0  0  0  0  0  0  0
    1.7550    2.5570   -4.6798 C   0  0  0  0  0  0  0  0  0  0  0  0
    2.0834    3.2291   -5.4610 H   0  0  0  0  0  0  0  0  0  0  0  0
    0.5523    1.8419   -4.8263 C   0  0  0  0  0  0  0  0  0  0  0  0
   -0.0409    1.9710   -5.7210 H   0  0  0  0  0  0  0  0  0  0  0  0
    0.1118    0.9655   -3.8143 C   0  0  0  0  0  0  0  0  0  0  0  0
   -0.8207    0.4324   -3.9338 H   0  0  0  0  0  0  0  0  0  0  0  0
    0.8651    0.7823   -2.6345 C   0  0  0  0  0  0  0  0  0  0  0  0
   -1.7617    0.8549   -0.2106 C   0  0  0  0  0  0  0  0  0  0  0  0
   -2.5726    1.1871   -1.0741 O   0  0  0  0  0  0  0  0  0  0  0  0
   -1.1941    1.7377    0.6223 N   0  0  0  0  0  0  0  0  0  0  0  0
   -0.4976    1.3916    1.2669 H   0  0  0  0  0  0  0  0  0  0  0  0
   -1.4666    3.1722    0.6095 C   0  0  0  0  0  0  0  0  0  0  0  0
   -2.5439    3.3427    0.6539 H   0  0  0  0  0  0  0  0  0  0  0  0
   -0.9893    3.6529    1.4644 H   0  0  0  0  0  0  0  0  0  0  0  0
   -1.0808    3.6095   -0.3129 H   0  0  0  0  0  0  0  0  0  0  0  0
  5  6  2  0  0  0  0
  5  7  1  0  0  0  0
  2  3  1  0  0  0  0
  2  4  1  0  0  0  0
  2  5  1  0  0  0  0
  1  2  1  0  0  0  0
 29 30  2  0  0  0  0
 29 31  1  0  0  0  0
 26 27  1  0  0  0  0
 26 28  2  0  0  0  0
 24 25  1  0  0  0  0
 24 26  1  0  0  0  0
 22 23  1  0  0  0  0
 22 24  2  0  0  0  0
 20 21  1  0  0  0  0
 20 22  1  0  0  0  0
 19 20  2  0  0  0  0
 19 28  1  0  0  0  0
 17 18  1  0  0  0  0
 17 19  1  0  0  0  0
 15 16  1  0  0  0  0
 15 17  1  0  0  0  0
 14 15  2  0  0  0  0
 14 28  1  0  0  0  0
 11 12  1  0  0  0  0
 11 13  1  0  0  0  0
 11 14  1  0  0  0  0
  9 10  1  0  0  0  0
  9 11  1  0  0  0  0
  9 29  1  0  0  0  0
  7  8  1  0  0  0  0
  7  9  1  0  0  0  0
 33 34  1  0  0  0  0
 33 35  1  0  0  0  0
 33 36  1  0  0  0  0
 31 32  1  0  0  0  0
 31 33  1  0  0  0  0
M  END
$$$$
default_name
  -OEChem-02102213163D

 36 37  0     1  0  0  0  0  0999 V2000
   -4.0843   -4.0736    1.2944 H   0  0  0  0  0  0  0  0  0  0  0  0
   -4.0342   -3.2816    0.5484 C   0  0  0  0  0  0  0  0  0  0  0  0
   -4.8842   -2.6126    0.6694 H   0  0  0  0  0  0  0  0  0  0  0  0
   -4.0433   -3.7186   -0.4486 H   0  0  0  0  0  0  0  0  0  0  0  0
   -2.7532   -2.5046    0.7444 C   0  0  0  0  0  0  0  0  0  0  0  0
   -1.9803   -2.8096    1.6434 O   0  0  0  0  0  0  0  0  0  0  0  0
   -2.5332   -1.4966   -0.0966 N   0  0  0  0  0  0  0  0  0  0  0  0
   -3.2312   -1.2816   -0.7936 H   0  0  0  0  0  0  0  0  0  0  0  0
   -1.3593   -0.6196   -0.0536 C   0  0  1  0  0  0  0  0  0  0  0  0
   -0.8788   -0.7266    0.9196 H   0  0  0  0  0  0  0  0  0  0  0  0
   -0.3559   -1.0533   -1.1339 C   0  0  0  0  0  0  0  0  0  0  0  0
    0.1270   -1.9785   -0.8142 H   0  0  0  0  0  0  0  0  0  0  0  0
   -0.9053   -1.2678   -2.0521 H   0  0  0  0  0  0  0  0  0  0  0  0
    0.7169   -0.0540   -1.4447 C   0  0  0  0  0  0  0  0  0  0  0  0
    1.9203    0.0237   -0.8336 C   0  0  0  0  0  0  0  0  0  0  0  0
    2.2454   -0.6230   -0.0261 H   0  0  0  0  0  0  0  0  0  0  0  0
    2.6686    1.0323   -1.4085 N   0  0  0  0  0  0  0  0  0  0  0  0
    3.6017    1.2738   -1.1084 H   0  0  0  0  0  0  0  0  0  0  0  0
    1.9862    1.6476   -2.4364 C   0  0  0  0  0  0  0  0  0  0  0  0
    2.3196    2.6803   -3.3245 C   0  0  0  0  0  0  0  0  0  0  0  0
    3.2856    3.1601   -3.2684 H   0  0  0  0  0  0  0  0  0  0  0  0
    1.3784    3.0833   -4.2872 C   0  0  0  0  0  0  0  0  0  0  0  0
    1.6175    3.8789   -4.9799 H   0  0  0  0  0  0  0  0  0  0  0  0
    0.1211    2.4546   -4.3445 C   0  0  0  0  0  0  0  0  0  0  0  0
   -0.6031    2.7735   -5.0813 H   0  0  0  0  0  0  0  0  0  0  0  0
   -0.2038    1.4190   -3.4454 C   0  0  0  0  0  0  0  0  0  0  0  0
   -1.1781    0.9536   -3.4916 H   0  0  0  0  0  0  0  0  0  0  0  0
    0.7218    0.9870   -2.4710 C   0  0  0  0  0  0  0  0  0  0  0  0
   -1.7617    0.8549   -0.2106 C   0  0  0  0  0  0  0  0  0  0  0  0
   -2.5726    1.1871   -1.0741 O   0  0  0  0  0  0  0  0  0  0  0  0
   -1.1941    1.7377    0.6223 N   0  0  0  0  0  0  0  0  0  0  0  0
   -0.4976    1.3916    1.2669 H   0  0  0  0  0  0  0  0  0  0  0  0
   -1.4666    3.1722    0.6095 C   0  0  0  0  0  0  0  0  0  0  0  0
   -2.5439    3.3427    0.6539 H   0  0  0  0  0  0  0  0  0  0  0  0
   -0.9893    3.6529    1.4644 H   0  0  0  0  0  0  0  0  0  0  0  0
   -1.0808    3.6095   -0.3129 H   0  0  0  0  0  0  0  0  0  0  0  0
  5  6  2  0  0  0  0
  5  7  1  0  0  0  0
  2  3  1  0  0  0  0
  2  4  1  0  0  0  0
  2  5  1  0  0  0  0
  1  2  1  0  0  0  0
 29 30  2  0  0  0  0
 29 31  1  0  0  0  0
 26 27  1  0  0  0  0
 26 28  2  0  0  0  0
 24 25  1  0  0  0  0
 24 26  1  0  0  0  0
 22 23  1  0  0  0  0
 22 24  2  0  0  0  0
 20 21  1  0  0  0  0
 20 22  1  0  0  0  0
 19 20  2  0  0  0  0
 19 28  1  0  0  0  0
 17 18  1  0  0  0  0
 17 19  1  0  0  0  0
 15 16  1  0  0  0  0
 15 17  1  0  0  0  0
 14 15  2  0  0  0  0
 14 28  1  0  0  0  0
 11 12  1  0  0  0  0
 11 13  1  0  0  0  0
 11 14  1  0  0  0  0
  9 10  1  0  0  0  0
  9 11  1  0  0  0  0
  9 29  1  0  0  0  0
  7  8  1  0  0  0  0
  7  9  1  0  0  0  0
 33 34  1  0  0  0  0
 33 35  1  0  0  0  0
 33 36  1  0  0  0  0
 31 32  1  0  0  0  0
 31 33  1  0  0  0  0
M  END
$$$$
default_name
  -OEChem-02102213163D

 36 37  0     1  0  0  0  0  0999 V2000
   -4.0843   -4.0736    1.2944 H   0  0  0  0  0  0  0  0  0  0  0  0
   -4.0342   -3.2816    0.5484 C   0  0  0  0  0  0  0  0  0  0  0  0
   -4.8842   -2.6126    0.6694 H   0  0  0  0  0  0  0  0  0  0  0  0
   -4.0433   -3.7186   -0.4486 H   0  0  0  0  0  0  0  0  0  0  0  0
   -2.7532   -2.5046    0.7444 C   0  0  0  0  0  0  0  0  0  0  0  0
   -1.9803   -2.8096    1.6434 O   0  0  0  0  0  0  0  0  0  0  0  0
   -2.5332   -1.4966   -0.0966 N   0  0  0  0  0  0  0  0  0  0  0  0
   -3.2312   -1.2816   -0.7936 H   0  0  0  0  0  0  0  0  0  0  0  0
   -1.3593   -0.6196   -0.0536 C   0  0  1  0  0  0  0  0  0  0  0  0
   -0.8788   -0.7266    0.9196 H   0  0  0  0  0  0  0  0  0  0  0  0
   -0.3559   -1.0533   -1.1339 C   0  0  0  0  0  0  0  0  0  0  0  0
    0.1270   -1.9785   -0.8142 H   0  0  0  0  0  0  0  0  0  0  0  0
   -0.9053   -1.2678   -2.0521 H   0  0  0  0  0  0  0  0  0  0  0  0
    0.7169   -0.0540   -1.4447 C   0  0  0  0  0  0  0  0  0  0  0  0
    2.0081   -0.1389   -1.0533 C   0  0  0  0  0  0  0  0  0  0  0  0
    2.4179   -0.9390   -0.4466 H   0  0  0  0  0  0  0  0  0  0  0  0
    2.7182    0.9318   -1.5602 N   0  0  0  0  0  0  0  0  0  0  0  0
    3.7030    1.0769   -1.3920 H   0  0  0  0  0  0  0  0  0  0  0  0
    1.9180    1.7564   -2.3223 C   0  0  0  0  0  0  0  0  0  0  0  0
    2.1693    2.9258   -3.0542 C   0  0  0  0  0  0  0  0  0  0  0  0
    3.1622    3.3496   -3.0849 H   0  0  0  0  0  0  0  0  0  0  0  0
    1.1106    3.5393   -3.7456 C   0  0  0  0  0  0  0  0  0  0  0  0
    1.2854    4.4424   -4.3145 H   0  0  0  0  0  0  0  0  0  0  0  0
   -0.1793    2.9803   -3.6912 C   0  0  0  0  0  0  0  0  0  0  0  0
   -0.9926    3.4602   -4.2177 H   0  0  0  0  0  0  0  0  0  0  0  0
   -0.4207    1.8057   -2.9507 C   0  0  0  0  0  0  0  0  0  0  0  0
   -1.4191    1.3943   -2.9064 H   0  0  0  0  0  0  0  0  0  0  0  0
    0.6226    1.1621   -2.2504 C   0  0  0  0  0  0  0  0  0  0  0  0
   -1.7617    0.8549   -0.2106 C   0  0  0  0  0  0  0  0  0  0  0  0
   -2.5726    1.1871   -1.0741 O   0  0  0  0  0  0  0  0  0  0  0  0
   -1.1941    1.7377    0.6223 N   0  0  0  0  0  0  0  0  0  0  0  0
   -0.4976    1.3916    1.2669 H   0  0  0  0  0  0  0  0  0  0  0  0
   -1.4666    3.1722    0.6095 C   0  0  0  0  0  0  0  0  0  0  0  0
   -2.5439    3.3427    0.6539 H   0  0  0  0  0  0  0  0  0  0  0  0
   -0.9893    3.6529    1.4644 H   0  0  0  0  0  0  0  0  0  0  0  0
   -1.0808    3.6095   -0.3129 H   0  0  0  0  0  0  0  0  0  0  0  0
  5  6  2  0  0  0  0
  5  7  1  0  0  0  0
  2  3  1  0  0  0  0
  2  4  1  0  0  0  0
  2  5  1  0  0  0  0
  1  2  1  0  0  0  0
 29 30  2  0  0  0  0
 29 31  1  0  0  0  0
 26 27  1  0  0  0  0
 26 28  2  0  0  0  0
 24 25  1  0  0  0  0
 24 26  1  0  0  0  0
 22 23  1  0  0  0  0
 22 24  2  0  0  0  0
 20 21  1  0  0  0  0
 20 22  1  0  0  0  0
 19 20  2  0  0  0  0
 19 28  1  0  0  0  0
 17 18  1  0  0  0  0
 17 19  1  0  0  0  0
 15 16  1  0  0  0  0
 15 17  1  0  0  0  0
 14 15  2  0  0  0  0
 14 28  1  0  0  0  0
 11 12  1  0  0  0  0
 11 13  1  0  0  0  0
 11 14  1  0  0  0  0
  9 10  1  0  0  0  0
  9 11  1  0  0  0  0
  9 29  1  0  0  0  0
  7  8  1  0  0  0  0
  7  9  1  0  0  0  0
 33 34  1  0  0  0  0
 33 35  1  0  0  0  0
 33 36  1  0  0  0  0
 31 32  1  0  0  0  0
 31 33  1  0  0  0  0
M  END
$$$$
default_name
  -OEChem-02102213163D

 36 37  0     1  0  0  0  0  0999 V2000
   -4.0843   -4.0736    1.2944 H   0  0  0  0  0  0  0  0  0  0  0  0
   -4.0342   -3.2816    0.5484 C   0  0  0  0  0  0  0  0  0  0  0  0
   -4.8842   -2.6126    0.6694 H   0  0  0  0  0  0  0  0  0  0  0  0
   -4.0433   -3.7186   -0.4486 H   0  0  0  0  0  0  0  0  0  0  0  0
   -2.7532   -2.5046    0.7444 C   0  0  0  0  0  0  0  0  0  0  0  0
   -1.9803   -2.8096    1.6434 O   0  0  0  0  0  0  0  0  0  0  0  0
   -2.5332   -1.4966   -0.0966 N   0  0  0  0  0  0  0  0  0  0  0  0
   -3.2312   -1.2816   -0.7936 H   0  0  0  0  0  0  0  0  0  0  0  0
   -1.3593   -0.6196   -0.0536 C   0  0  1  0  0  0  0  0  0  0  0  0
   -0.8788   -0.7266    0.9196 H   0  0  0  0  0  0  0  0  0  0  0  0
   -0.3559   -1.0533   -1.1339 C   0  0  0  0  0  0  0  0  0  0  0  0
    0.1270   -1.9785   -0.8142 H   0  0  0  0  0  0  0  0  0  0  0  0
   -0.9053   -1.2678   -2.0521 H   0  0  0  0  0  0  0  0  0  0  0  0
    0.7169   -0.0540   -1.4447 C   0  0  0  0  0  0  0  0  0  0  0  0
    2.0463   -0.2599   -1.3107 C   0  0  0  0  0  0  0  0  0  0  0  0
    2.4949   -1.1755   -0.9411 H   0  0  0  0  0  0  0  0  0  0  0  0
    2.7345    0.8603   -1.7339 N   0  0  0  0  0  0  0  0  0  0  0  0
    3.7413    0.9338   -1.7200 H   0  0  0  0  0  0  0  0  0  0  0  0
    1.8777    1.8439   -2.1801 C   0  0  0  0  0  0  0  0  0  0  0  0
    2.0839    3.1208   -2.7217 C   0  0  0  0  0  0  0  0  0  0  0  0
    3.0849    3.5054   -2.8513 H   0  0  0  0  0  0  0  0  0  0  0  0
    0.9700    3.8936   -3.0917 C   0  0  0  0  0  0  0  0  0  0  0  0
    1.1096    4.8812   -3.5101 H   0  0  0  0  0  0  0  0  0  0  0  0
   -0.3285    3.3832   -2.9108 C   0  0  0  0  0  0  0  0  0  0  0  0
   -1.1830    3.9845   -3.1891 H   0  0  0  0  0  0  0  0  0  0  0  0
   -0.5240    2.0992   -2.3637 C   0  0  0  0  0  0  0  0  0  0  0  0
   -1.5272    1.7245   -2.2178 H   0  0  0  0  0  0  0  0  0  0  0  0
    0.5742    1.2957   -1.9878 C   0  0  0  0  0  0  0  0  0  0  0  0
   -1.7617    0.8549   -0.2106 C   0  0  0  0  0  0  0  0  0  0  0  0
   -2.5726    1.1871   -1.0741 O   0  0  0  0  0  0  0  0  0  0  0  0
   -1.1941    1.7377    0.6223 N   0  0  0  0  0  0  0  0  0  0  0  0
   -0.4976    1.3916    1.2669 H   0  0  0  0  0  0  0  0  0  0  0  0
   -1.4666    3.1722    0.6095 C   0  0  0  0  0  0  0  0  0  0  0  0
   -2.5439    3.3427    0.6539 H   0  0  0  0  0  0  0  0  0  0  0  0
   -0.9893    3.6529    1.4644 H   0  0  0  0  0  0  0  0  0  0  0  0
   -1.0808    3.6095   -0.3129 H   0  0  0  0  0  0  0  0  0  0  0  0
  5  6  2  0  0  0  0
  5  7  1  0  0  0  0
  2  3  1  0  0  0  0
  2  4  1  0  0  0  0
  2  5  1  0  0  0  0
  1  2  1  0  0  0  0
 29 30  2  0  0  0  0
 29 31  1  0  0  0  0
 26 27  1  0  0  0  0
 26 28  2  0  0  0  0
 24 25  1  0  0  0  0
 24 26  1  0  0  0  0
 22 23  1  0  0  0  0
 22 24  2  0  0  0  0
 20 21  1  0  0  0  0
 20 22  1  0  0  0  0
 19 20  2  0  0  0  0
 19 28  1  0  0  0  0
 17 18  1  0  0  0  0
 17 19  1  0  0  0  0
 15 16  1  0  0  0  0
 15 17  1  0  0  0  0
 14 15  2  0  0  0  0
 14 28  1  0  0  0  0
 11 12  1  0  0  0  0
 11 13  1  0  0  0  0
 11 14  1  0  0  0  0
  9 10  1  0  0  0  0
  9 11  1  0  0  0  0
  9 29  1  0  0  0  0
  7  8  1  0  0  0  0
  7  9  1  0  0  0  0
 33 34  1  0  0  0  0
 33 35  1  0  0  0  0
 33 36  1  0  0  0  0
 31 32  1  0  0  0  0
 31 33  1  0  0  0  0
M  END
$$$$
default_name
  -OEChem-02102213163D

 36 37  0     1  0  0  0  0  0999 V2000
   -4.0843   -4.0736    1.2944 H   0  0  0  0  0  0  0  0  0  0  0  0
   -4.0342   -3.2816    0.5484 C   0  0  0  0  0  0  0  0  0  0  0  0
   -4.8842   -2.6126    0.6694 H   0  0  0  0  0  0  0  0  0  0  0  0
   -4.0433   -3.7186   -0.4486 H   0  0  0  0  0  0  0  0  0  0  0  0
   -2.7532   -2.5046    0.7444 C   0  0  0  0  0  0  0  0  0  0  0  0
   -1.9803   -2.8096    1.6434 O   0  0  0  0  0  0  0  0  0  0  0  0
   -2.5332   -1.4966   -0.0966 N   0  0  0  0  0  0  0  0  0  0  0  0
   -3.2312   -1.2816   -0.7936 H   0  0  0  0  0  0  0  0  0  0  0  0
   -1.3593   -0.6196   -0.0536 C   0  0  1  0  0  0  0  0  0  0  0  0
   -0.8788   -0.7266    0.9196 H   0  0  0  0  0  0  0  0  0  0  0  0
   -0.3559   -1.0533   -1.1339 C   0  0  0  0  0  0  0  0  0  0  0  0
    0.1270   -1.9785   -0.8142 H   0  0  0  0  0  0  0  0  0  0  0  0
   -0.9053   -1.2678   -2.0521 H   0  0  0  0  0  0  0  0  0  0  0  0
    0.7169   -0.0540   -1.4447 C   0  0  0  0  0  0  0  0  0  0  0  0
    2.0323   -0.3312   -1.5884 C   0  0  0  0  0  0  0  0  0  0  0  0
    2.4713   -1.3164   -1.4758 H   0  0  0  0  0  0  0  0  0  0  0  0
    2.7165    0.8224   -1.9178 N   0  0  0  0  0  0  0  0  0  0  0  0
    3.7140    0.8543   -2.0699 H   0  0  0  0  0  0  0  0  0  0  0  0
    1.8679    1.9043   -2.0197 C   0  0  0  0  0  0  0  0  0  0  0  0
    2.0693    3.2522   -2.3496 C   0  0  0  0  0  0  0  0  0  0  0  0
    3.0588    3.6166   -2.5834 H   0  0  0  0  0  0  0  0  0  0  0  0
    0.9659    4.1224   -2.3702 C   0  0  0  0  0  0  0  0  0  0  0  0
    1.1023    5.1655   -2.6214 H   0  0  0  0  0  0  0  0  0  0  0  0
   -0.3164    3.6358   -2.0567 C   0  0  0  0  0  0  0  0  0  0  0  0
   -1.1612    4.3105   -2.0656 H   0  0  0  0  0  0  0  0  0  0  0  0
   -0.5068    2.2794   -1.7245 C   0  0  0  0  0  0  0  0  0  0  0  0
   -1.4950    1.9216   -1.4728 H   0  0  0  0  0  0  0  0  0  0  0  0
    0.5800    1.3787   -1.7011 C   0  0  0  0  0  0  0  0  0  0  0  0
   -1.7617    0.8549   -0.2106 C   0  0  0  0  0  0  0  0  0  0  0  0
   -2.5726    1.1871   -1.0741 O   0  0  0  0  0  0  0  0  0  0  0  0
   -1.1941    1.7377    0.6223 N   0  0  0  0  0  0  0  0  0  0  0  0
   -0.4976    1.3916    1.2669 H   0  0  0  0  0  0  0  0  0  0  0  0
   -1.4666    3.1722    0.6095 C   0  0  0  0  0  0  0  0  0  0  0  0
   -2.5439    3.3427    0.6539 H   0  0  0  0  0  0  0  0  0  0  0  0
   -0.9893    3.6529    1.4644 H   0  0  0  0  0  0  0  0  0  0  0  0
   -1.0808    3.6095   -0.3129 H   0  0  0  0  0  0  0  0  0  0  0  0
  5  6  2  0  0  0  0
  5  7  1  0  0  0  0
  2  3  1  0  0  0  0
  2  4  1  0  0  0  0
  2  5  1  0  0  0  0
  1  2  1  0  0  0  0
 29 30  2  0  0  0  0
 29 31  1  0  0  0  0
 26 27  1  0  0  0  0
 26 28  2  0  0  0  0
 24 25  1  0  0  0  0
 24 26  1  0  0  0  0
 22 23  1  0  0  0  0
 22 24  2  0  0  0  0
 20 21  1  0  0  0  0
 20 22  1  0  0  0  0
 19 20  2  0  0  0  0
 19 28  1  0  0  0  0
 17 18  1  0  0  0  0
 17 19  1  0  0  0  0
 15 16  1  0  0  0  0
 15 17  1  0  0  0  0
 14 15  2  0  0  0  0
 14 28  1  0  0  0  0
 11 12  1  0  0  0  0
 11 13  1  0  0  0  0
 11 14  1  0  0  0  0
  9 10  1  0  0  0  0
  9 11  1  0  0  0  0
  9 29  1  0  0  0  0
  7  8  1  0  0  0  0
  7  9  1  0  0  0  0
 33 34  1  0  0  0  0
 33 35  1  0  0  0  0
 33 36  1  0  0  0  0
 31 32  1  0  0  0  0
 31 33  1  0  0  0  0
M  END
$$$$
default_name
  -OEChem-02102213163D

 36 37  0     1  0  0  0  0  0999 V2000
   -4.0843   -4.0736    1.2944 H   0  0  0  0  0  0  0  0  0  0  0  0
   -4.0342   -3.2816    0.5484 C   0  0  0  0  0  0  0  0  0  0  0  0
   -4.8842   -2.6126    0.6694 H   0  0  0  0  0  0  0  0  0  0  0  0
   -4.0433   -3.7186   -0.4486 H   0  0  0  0  0  0  0  0  0  0  0  0
   -2.7532   -2.5046    0.7444 C   0  0  0  0  0  0  0  0  0  0  0  0
   -1.9803   -2.8096    1.6434 O   0  0  0  0  0  0  0  0  0  0  0  0
   -2.5332   -1.4966   -0.0966 N   0  0  0  0  0  0  0  0  0  0  0  0
   -3.2312   -1.2816   -0.7936 H   0  0  0  0  0  0  0  0  0  0  0  0
   -1.3593   -0.6196   -0.0536 C   0  0  1  0  0  0  0  0  0  0  0  0
   -0.8788   -0.7266    0.9196 H   0  0  0  0  0  0  0  0  0  0  0  0
   -0.3559   -1.0533   -1.1339 C   0  0  0  0  0  0  0  0  0  0  0  0
    0.1270   -1.9785   -0.8142 H   0  0  0  0  0  0  0  0  0  0  0  0
   -0.9053   -1.2678   -2.0521 H   0  0  0  0  0  0  0  0  0  0  0  0
    0.7169   -0.0540   -1.4447 C   0  0  0  0  0  0  0  0  0  0  0  0
    1.9669   -0.3478   -1.8674 C   0  0  0  0  0  0  0  0  0  0  0  0
    2.3487   -1.3523   -2.0144 H   0  0  0  0  0  0  0  0  0  0  0  0
    2.6653    0.8209   -2.0993 N   0  0  0  0  0  0  0  0  0  0  0  0
    3.6230    0.8437   -2.4179 H   0  0  0  0  0  0  0  0  0  0  0  0
    1.8894    1.9334   -1.8518 C   0  0  0  0  0  0  0  0  0  0  0  0
    2.1265    3.3110   -1.9634 C   0  0  0  0  0  0  0  0  0  0  0  0
    3.0859    3.6759   -2.2995 H   0  0  0  0  0  0  0  0  0  0  0  0
    1.0988    4.2098   -1.6301 C   0  0  0  0  0  0  0  0  0  0  0  0
    1.2638    5.2759   -1.7090 H   0  0  0  0  0  0  0  0  0  0  0  0
   -0.1437    3.7209   -1.1870 C   0  0  0  0  0  0  0  0  0  0  0  0
   -0.9288    4.4162   -0.9237 H   0  0  0  0  0  0  0  0  0  0  0  0
   -0.3701    2.3342   -1.0767 C   0  0  0  0  0  0  0  0  0  0  0  0
   -1.3248    1.9723   -0.7223 H   0  0  0  0  0  0  0  0  0  0  0  0
    0.6395    1.4054   -1.4097 C   0  0  0  0  0  0  0  0  0  0  0  0
   -1.7617    0.8549   -0.2106 C   0  0  0  0  0  0  0  0  0  0  0  0
   -2.5726    1.1871   -1.0741 O   0  0  0  0  0  0  0  0  0  0  0  0
   -1.1941    1.7377    0.6223 N   0  0  0  0  0  0  0  0  0  0  0  0
   -0.4976    1.3916    1.2669 H   0  0  0  0  0  0  0  0  0  0  0  0
   -1.4666    3.1722    0.6095 C   0  0  0  0  0  0  0  0  0  0  0  0
   -2.5439    3.3427    0.6539 H   0  0  0  0  0  0  0  0  0  0  0  0
   -0.9893    3.6529    1.4644 H   0  0  0  0  0  0  0  0  0  0  0  0
   -1.0808    3.6095   -0.3129 H   0  0  0  0  0  0  0  0  0  0  0  0
  5  6  2  0  0  0  0
  5  7  1  0  0  0  0
  2  3  1  0  0  0  0
  2  4  1  0  0  0  0
  2  5  1  0  0  0  0
  1  2  1  0  0  0  0
 29 30  2  0  0  0  0
 29 31  1  0  0  0  0
 26 27  1  0  0  0  0
 26 28  2  0  0  0  0
 24 25  1  0  0  0  0
 24 26  1  0  0  0  0
 22 23  1  0  0  0  0
 22 24  2  0  0  0  0
 20 21  1  0  0  0  0
 20 22  1  0  0  0  0
 19 20  2  0  0  0  0
 19 28  1  0  0  0  0
 17 18  1  0  0  0  0
 17 19  1  0  0  0  0
 15 16  1  0  0  0  0
 15 17  1  0  0  0  0
 14 15  2  0  0  0  0
 14 28  1  0  0  0  0
 11 12  1  0  0  0  0
 11 13  1  0  0  0  0
 11 14  1  0  0  0  0
  9 10  1  0  0  0  0
  9 11  1  0  0  0  0
  9 29  1  0  0  0  0
  7  8  1  0  0  0  0
  7  9  1  0  0  0  0
 33 34  1  0  0  0  0
 33 35  1  0  0  0  0
 33 36  1  0  0  0  0
 31 32  1  0  0  0  0
 31 33  1  0  0  0  0
M  END
$$$$
default_name
  -OEChem-02102213163D

 36 37  0     1  0  0  0  0  0999 V2000
   -4.0843   -4.0736    1.2944 H   0  0  0  0  0  0  0  0  0  0  0  0
   -4.0342   -3.2816    0.5484 C   0  0  0  0  0  0  0  0  0  0  0  0
   -4.8842   -2.6126    0.6694 H   0  0  0  0  0  0  0  0  0  0  0  0
   -4.0433   -3.7186   -0.4486 H   0  0  0  0  0  0  0  0  0  0  0  0
   -2.7532   -2.5046    0.7444 C   0  0  0  0  0  0  0  0  0  0  0  0
   -1.9803   -2.8096    1.6434 O   0  0  0  0  0  0  0  0  0  0  0  0
   -2.5332   -1.4966   -0.0966 N   0  0  0  0  0  0  0  0  0  0  0  0
   -3.2312   -1.2816   -0.7936 H   0  0  0  0  0  0  0  0  0  0  0  0
   -1.3593   -0.6196   -0.0536 C   0  0  1  0  0  0  0  0  0  0  0  0
   -0.8788   -0.7266    0.9196 H   0  0  0  0  0  0  0  0  0  0  0  0
   -0.3559   -1.0533   -1.1339 C   0  0  0  0  0  0  0  0  0  0  0  0
    0.1270   -1.9785   -0.8142 H   0  0  0  0  0  0  0  0  0  0  0  0
   -0.9053   -1.2678   -2.0521 H   0  0  0  0  0  0  0  0  0  0  0  0
    0.7169   -0.0540   -1.4447 C   0  0  0  0  0  0  0  0  0  0  0  0
    1.8548   -0.3087   -2.1288 C   0  0  0  0  0  0  0  0  0  0  0  0
    2.1353   -1.2805   -2.5201 H   0  0  0  0  0  0  0  0  0  0  0  0
    2.5844    0.8559   -2.2661 N   0  0  0  0  0  0  0  0  0  0  0  0
    3.4744    0.9029   -2.7403 H   0  0  0  0  0  0  0  0  0  0  0  0
    1.9407    1.9293   -1.6880 C   0  0  0  0  0  0  0  0  0  0  0  0
    2.2515    3.2931   -1.5893 C   0  0  0  0  0  0  0  0  0  0  0  0
    3.1642    3.6791   -2.0190 H   0  0  0  0  0  0  0  0  0  0  0  0
    1.3596    4.1501   -0.9221 C   0  0  0  0  0  0  0  0  0  0  0  0
    1.5832    5.2048   -0.8352 H   0  0  0  0  0  0  0  0  0  0  0  0
    0.1778    3.6327   -0.3609 C   0  0  0  0  0  0  0  0  0  0  0  0
   -0.5015    4.2941    0.1588 H   0  0  0  0  0  0  0  0  0  0  0  0
   -0.1234    2.2598   -0.4644 C   0  0  0  0  0  0  0  0  0  0  0  0
   -1.0282    1.8731   -0.0173 H   0  0  0  0  0  0  0  0  0  0  0  0
    0.7487    1.3740   -1.1336 C   0  0  0  0  0  0  0  0  0  0  0  0
   -1.7617    0.8549   -0.2106 C   0  0  0  0  0  0  0  0  0  0  0  0
   -2.5726    1.1871   -1.0741 O   0  0  0  0  0  0  0  0  0  0  0  0
   -1.1941    1.7377    0.6223 N   0  0  0  0  0  0  0  0  0  0  0  0
   -0.4976    1.3916    1.2669 H   0  0  0  0  0  0  0  0  0  0  0  0
   -1.4666    3.1722    0.6095 C   0  0  0  0  0  0  0  0  0  0  0  0
   -2.5439    3.3427    0.6539 H   0  0  0  0  0  0  0  0  0  0  0  0
   -0.9893    3.6529    1.4644 H   0  0  0  0  0  0  0  0  0  0  0  0
   -1.0808    3.6095   -0.3129 H   0  0  0  0  0  0  0  0  0  0  0  0
  5  6  2  0  0  0  0
  5  7  1  0  0  0  0
  2  3  1  0  0  0  0
  2  4  1  0  0  0  0
  2  5  1  0  0  0  0
  1  2  1  0  0  0  0
 29 30  2  0  0  0  0
 29 31  1  0  0  0  0
 26 27  1  0  0  0  0
 26 28  2  0  0  0  0
 24 25  1  0  0  0  0
 24 26  1  0  0  0  0
 22 23  1  0  0  0  0
 22 24  2  0  0  0  0
 20 21  1  0  0  0  0
 20 22  1  0  0  0  0
 19 20  2  0  0  0  0
 19 28  1  0  0  0  0
 17 18  1  0  0  0  0
 17 19  1  0  0  0  0
 15 16  1  0  0  0  0
 15 17  1  0  0  0  0
 14 15  2  0  0  0  0
 14 28  1  0  0  0  0
 11 12  1  0  0  0  0
 11 13  1  0  0  0  0
 11 14  1  0  0  0  0
  9 10  1  0  0  0  0
  9 11  1  0  0  0  0
  9 29  1  0  0  0  0
  7  8  1  0  0  0  0
  7  9  1  0  0  0  0
 33 34  1  0  0  0  0
 33 35  1  0  0  0  0
 33 36  1  0  0  0  0
 31 32  1  0  0  0  0
 31 33  1  0  0  0  0
M  END
$$$$
