
  -OEChem-03222214083D

 36 37  0     1  0  0  0  0  0999 V2000
   -3.4635   -4.4394    2.0287 H   0  0  0  0  0  0  0  0  0  0  0  0
   -3.4927   -3.7625    1.1703 C   0  0  0  0  0  0  0  0  0  0  0  0
   -4.3853   -3.1368    1.2458 H   0  0  0  0  0  0  0  0  0  0  0  0
   -3.5480   -4.3562    0.2548 H   0  0  0  0  0  0  0  0  0  0  0  0
   -2.2502   -2.8928    1.1480 C   0  0  0  0  0  0  0  0  0  0  0  0
   -1.3927   -3.0300    2.0055 O   0  0  0  0  0  0  0  0  0  0  0  0
   -2.1004   -1.9394    0.1645 N   0  0  0  0  0  0  0  0  0  0  0  0
   -2.8973   -1.7695   -0.4489 H   0  0  0  0  0  0  0  0  0  0  0  0
   -1.0284   -0.9314    0.1378 C   0  0  1  0  0  0  0  0  0  0  0  0
   -0.5204   -0.8657    1.1021 H   0  0  0  0  0  0  0  0  0  0  0  0
   -0.0490   -1.3122   -0.9823 C   0  0  0  0  0  0  0  0  0  0  0  0
    0.3265   -2.3181   -0.7668 H   0  0  0  0  0  0  0  0  0  0  0  0
   -0.6007   -1.3671   -1.9272 H   0  0  0  0  0  0  0  0  0  0  0  0
    1.1529   -0.4097   -1.1895 C   0  0  0  0  0  0  0  0  0  0  0  0
    2.0521   -0.7025   -2.1887 C   0  0  0  0  0  0  0  0  0  0  0  0
    1.9204   -1.4795   -2.9389 H   0  0  0  0  0  0  0  0  0  0  0  0
    3.1133    0.1877   -2.1054 N   0  0  0  0  0  0  0  0  0  0  0  0
    3.9104    0.2176   -2.7378 H   0  0  0  0  0  0  0  0  0  0  0  0
    2.9884    0.9598   -0.9691 C   0  0  0  0  0  0  0  0  0  0  0  0
    3.8620    1.9129   -0.4478 C   0  0  0  0  0  0  0  0  0  0  0  0
    4.7588    2.1900   -0.9908 H   0  0  0  0  0  0  0  0  0  0  0  0
    3.5793    2.4856    0.7959 C   0  0  0  0  0  0  0  0  0  0  0  0
    4.2501    3.2274    1.2193 H   0  0  0  0  0  0  0  0  0  0  0  0
    2.4517    2.0667    1.5118 C   0  0  0  0  0  0  0  0  0  0  0  0
    2.2602    2.4746    2.5000 H   0  0  0  0  0  0  0  0  0  0  0  0
    1.5860    1.1060    0.9701 C   0  0  0  0  0  0  0  0  0  0  0  0
    0.7672    0.7583    1.5837 H   0  0  0  0  0  0  0  0  0  0  0  0
    1.8150    0.5829   -0.3146 C   0  0  0  0  0  0  0  0  0  0  0  0
   -1.7132    0.4154   -0.2201 C   0  0  0  0  0  0  0  0  0  0  0  0
   -2.6267    0.4122   -1.0427 O   0  0  0  0  0  0  0  0  0  0  0  0
   -1.4422    1.6006    0.4391 N   0  0  0  0  0  0  0  0  0  0  0  0
   -0.6022    1.6262    1.0065 H   0  0  0  0  0  0  0  0  0  0  0  0
   -2.0519    2.8716    0.0676 C   0  0  0  0  0  0  0  0  0  0  0  0
   -3.1418    2.8171    0.1589 H   0  0  0  0  0  0  0  0  0  0  0  0
   -1.6915    3.6685    0.7252 H   0  0  0  0  0  0  0  0  0  0  0  0
   -1.7962    3.1315   -0.9650 H   0  0  0  0  0  0  0  0  0  0  0  0
  1  2  1  0  0  0  0
  2  3  1  0  0  0  0
  2  4  1  0  0  0  0
  2  5  1  0  0  0  0
  5  6  2  0  0  0  0
  5  7  1  0  0  0  0
  7  8  1  0  0  0  0
  7  9  1  0  0  0  0
  9 10  1  0  0  0  0
  9 11  1  0  0  0  0
  9 29  1  0  0  0  0
 11 12  1  0  0  0  0
 11 13  1  0  0  0  0
 11 14  1  0  0  0  0
 14 15  2  0  0  0  0
 14 28  1  0  0  0  0
 15 16  1  0  0  0  0
 15 17  1  0  0  0  0
 17 18  1  0  0  0  0
 17 19  1  0  0  0  0
 19 20  1  0  0  0  0
 19 28  2  0  0  0  0
 20 21  1  0  0  0  0
 20 22  2  0  0  0  0
 22 23  1  0  0  0  0
 22 24  1  0  0  0  0
 24 25  1  0  0  0  0
 24 26  2  0  0  0  0
 26 27  1  0  0  0  0
 26 28  1  0  0  0  0
 29 30  2  0  0  0  0
 29 31  1  0  0  0  0
 31 32  1  0  0  0  0
 31 33  1  0  0  0  0
 33 34  1  0  0  0  0
 33 35  1  0  0  0  0
 33 36  1  0  0  0  0
M  END
$$$$

  -OEChem-03222214083D

 36 37  0     1  0  0  0  0  0999 V2000
   -3.6978   -4.5280    1.4879 H   0  0  0  0  0  0  0  0  0  0  0  0
   -3.6723   -3.7608    0.7089 C   0  0  0  0  0  0  0  0  0  0  0  0
   -4.5397   -3.1074    0.8298 H   0  0  0  0  0  0  0  0  0  0  0  0
   -3.7247   -4.2481   -0.2676 H   0  0  0  0  0  0  0  0  0  0  0  0
   -2.3939   -2.9511    0.8148 C   0  0  0  0  0  0  0  0  0  0  0  0
   -1.5850   -3.1985    1.6944 O   0  0  0  0  0  0  0  0  0  0  0  0
   -2.1556   -1.9303   -0.0800 N   0  0  0  0  0  0  0  0  0  0  0  0
   -2.9159   -1.6760   -0.7096 H   0  0  0  0  0  0  0  0  0  0  0  0
   -1.0420   -0.9735    0.0199 C   0  0  1  0  0  0  0  0  0  0  0  0
   -0.6088   -1.0130    1.0195 H   0  0  0  0  0  0  0  0  0  0  0  0
    0.0146   -1.3277   -1.0335 C   0  0  0  0  0  0  0  0  0  0  0  0
    0.3519   -2.3506   -0.8372 H   0  0  0  0  0  0  0  0  0  0  0  0
   -0.4529   -1.3210   -2.0239 H   0  0  0  0  0  0  0  0  0  0  0  0
    1.2412   -0.4361   -1.0645 C   0  0  0  0  0  0  0  0  0  0  0  0
    2.0863   -0.4587   -2.1489 C   0  0  0  0  0  0  0  0  0  0  0  0
    1.9186   -1.0247   -3.0627 H   0  0  0  0  0  0  0  0  0  0  0  0
    3.1573    0.3847   -1.8867 N   0  0  0  0  0  0  0  0  0  0  0  0
    3.9298    0.5725   -2.5224 H   0  0  0  0  0  0  0  0  0  0  0  0
    3.0685    0.8757   -0.5992 C   0  0  0  0  0  0  0  0  0  0  0  0
    3.9491    1.7018    0.0978 C   0  0  0  0  0  0  0  0  0  0  0  0
    4.8354    2.0926   -0.3899 H   0  0  0  0  0  0  0  0  0  0  0  0
    3.6833    2.0028    1.4376 C   0  0  0  0  0  0  0  0  0  0  0  0
    4.3610    2.6413    1.9969 H   0  0  0  0  0  0  0  0  0  0  0  0
    2.5581    1.4529    2.0636 C   0  0  0  0  0  0  0  0  0  0  0  0
    2.3718    1.6594    3.1136 H   0  0  0  0  0  0  0  0  0  0  0  0
    1.6836    0.6227    1.3482 C   0  0  0  0  0  0  0  0  0  0  0  0
    0.8528    0.1810    1.8821 H   0  0  0  0  0  0  0  0  0  0  0  0
    1.9124    0.3578   -0.0141 C   0  0  0  0  0  0  0  0  0  0  0  0
   -1.5928    0.4470   -0.2491 C   0  0  0  0  0  0  0  0  0  0  0  0
   -2.4711    0.5923   -1.0957 O   0  0  0  0  0  0  0  0  0  0  0  0
   -1.2444    1.5282    0.5394 N   0  0  0  0  0  0  0  0  0  0  0  0
   -0.4072    1.4206    1.1045 H   0  0  0  0  0  0  0  0  0  0  0  0
   -1.7169    2.8813    0.2739 C   0  0  0  0  0  0  0  0  0  0  0  0
   -2.8113    2.9167    0.2868 H   0  0  0  0  0  0  0  0  0  0  0  0
   -1.3426    3.5682    1.0391 H   0  0  0  0  0  0  0  0  0  0  0  0
   -1.3640    3.2251   -0.7041 H   0  0  0  0  0  0  0  0  0  0  0  0
  1  2  1  0  0  0  0
  2  3  1  0  0  0  0
  2  4  1  0  0  0  0
  2  5  1  0  0  0  0
  5  6  2  0  0  0  0
  5  7  1  0  0  0  0
  7  8  1  0  0  0  0
  7  9  1  0  0  0  0
  9 10  1  0  0  0  0
  9 11  1  0  0  0  0
  9 29  1  0  0  0  0
 11 12  1  0  0  0  0
 11 13  1  0  0  0  0
 11 14  1  0  0  0  0
 14 15  2  0  0  0  0
 14 28  1  0  0  0  0
 15 16  1  0  0  0  0
 15 17  1  0  0  0  0
 17 18  1  0  0  0  0
 17 19  1  0  0  0  0
 19 20  1  0  0  0  0
 19 28  2  0  0  0  0
 20 21  1  0  0  0  0
 20 22  2  0  0  0  0
 22 23  1  0  0  0  0
 22 24  1  0  0  0  0
 24 25  1  0  0  0  0
 24 26  2  0  0  0  0
 26 27  1  0  0  0  0
 26 28  1  0  0  0  0
 29 30  2  0  0  0  0
 29 31  1  0  0  0  0
 31 32  1  0  0  0  0
 31 33  1  0  0  0  0
 33 34  1  0  0  0  0
 33 35  1  0  0  0  0
 33 36  1  0  0  0  0
M  END
$$$$

  -OEChem-03222214083D

 36 37  0     1  0  0  0  0  0999 V2000
   -3.7183   -4.5370    1.4906 H   0  0  0  0  0  0  0  0  0  0  0  0
   -3.6978   -3.7568    0.7245 C   0  0  0  0  0  0  0  0  0  0  0  0
   -4.5455   -3.0857    0.8828 H   0  0  0  0  0  0  0  0  0  0  0  0
   -3.7902   -4.2254   -0.2582 H   0  0  0  0  0  0  0  0  0  0  0  0
   -2.3980   -2.9789    0.8065 C   0  0  0  0  0  0  0  0  0  0  0  0
   -1.5666   -3.2681    1.6518 O   0  0  0  0  0  0  0  0  0  0  0  0
   -2.1626   -1.9449   -0.0744 N   0  0  0  0  0  0  0  0  0  0  0  0
   -2.9344   -1.6611   -0.6761 H   0  0  0  0  0  0  0  0  0  0  0  0
   -1.0194   -1.0224    0.0059 C   0  0  1  0  0  0  0  0  0  0  0  0
   -0.5811   -1.0915    0.9999 H   0  0  0  0  0  0  0  0  0  0  0  0
    0.0251   -1.3997   -1.0514 C   0  0  0  0  0  0  0  0  0  0  0  0
    0.3505   -2.4269   -0.8576 H   0  0  0  0  0  0  0  0  0  0  0  0
   -0.4411   -1.3821   -2.0422 H   0  0  0  0  0  0  0  0  0  0  0  0
    1.2516   -0.5101   -1.0560 C   0  0  0  0  0  0  0  0  0  0  0  0
    1.9583   -0.2672   -2.2097 C   0  0  0  0  0  0  0  0  0  0  0  0
    1.6938   -0.6363   -3.1986 H   0  0  0  0  0  0  0  0  0  0  0  0
    3.0340    0.5527   -1.8928 N   0  0  0  0  0  0  0  0  0  0  0  0
    3.7221    0.9044   -2.5556 H   0  0  0  0  0  0  0  0  0  0  0  0
    3.0699    0.7865   -0.5310 C   0  0  0  0  0  0  0  0  0  0  0  0
    3.9827    1.5184    0.2274 C   0  0  0  0  0  0  0  0  0  0  0  0
    4.8027    2.0384   -0.2553 H   0  0  0  0  0  0  0  0  0  0  0  0
    3.8340    1.5611    1.6179 C   0  0  0  0  0  0  0  0  0  0  0  0
    4.5378    2.1247    2.2234 H   0  0  0  0  0  0  0  0  0  0  0  0
    2.7912    0.8535    2.2289 C   0  0  0  0  0  0  0  0  0  0  0  0
    2.6950    0.8623    3.3107 H   0  0  0  0  0  0  0  0  0  0  0  0
    1.8829    0.1193    1.4537 C   0  0  0  0  0  0  0  0  0  0  0  0
    1.1177   -0.4499    1.9660 H   0  0  0  0  0  0  0  0  0  0  0  0
    1.9989    0.1108    0.0527 C   0  0  0  0  0  0  0  0  0  0  0  0
   -1.4911    0.4314   -0.2065 C   0  0  0  0  0  0  0  0  0  0  0  0
   -2.3874    0.6590   -1.0142 O   0  0  0  0  0  0  0  0  0  0  0  0
   -1.0392    1.4509    0.6110 N   0  0  0  0  0  0  0  0  0  0  0  0
   -0.1851    1.2610    1.1301 H   0  0  0  0  0  0  0  0  0  0  0  0
   -1.4248    2.8424    0.4172 C   0  0  0  0  0  0  0  0  0  0  0  0
   -2.5129    2.9511    0.4745 H   0  0  0  0  0  0  0  0  0  0  0  0
   -0.9757    3.4694    1.1935 H   0  0  0  0  0  0  0  0  0  0  0  0
   -1.0848    3.2015   -0.5598 H   0  0  0  0  0  0  0  0  0  0  0  0
  1  2  1  0  0  0  0
  2  3  1  0  0  0  0
  2  4  1  0  0  0  0
  2  5  1  0  0  0  0
  5  6  2  0  0  0  0
  5  7  1  0  0  0  0
  7  8  1  0  0  0  0
  7  9  1  0  0  0  0
  9 10  1  0  0  0  0
  9 11  1  0  0  0  0
  9 29  1  0  0  0  0
 11 12  1  0  0  0  0
 11 13  1  0  0  0  0
 11 14  1  0  0  0  0
 14 15  2  0  0  0  0
 14 28  1  0  0  0  0
 15 16  1  0  0  0  0
 15 17  1  0  0  0  0
 17 18  1  0  0  0  0
 17 19  1  0  0  0  0
 19 20  1  0  0  0  0
 19 28  2  0  0  0  0
 20 21  1  0  0  0  0
 20 22  2  0  0  0  0
 22 23  1  0  0  0  0
 22 24  1  0  0  0  0
 24 25  1  0  0  0  0
 24 26  2  0  0  0  0
 26 27  1  0  0  0  0
 26 28  1  0  0  0  0
 29 30  2  0  0  0  0
 29 31  1  0  0  0  0
 31 32  1  0  0  0  0
 31 33  1  0  0  0  0
 33 34  1  0  0  0  0
 33 35  1  0  0  0  0
 33 36  1  0  0  0  0
M  END
$$$$

  -OEChem-03222214083D

 36 37  0     1  0  0  0  0  0999 V2000
   -3.6983   -4.5037    1.5570 H   0  0  0  0  0  0  0  0  0  0  0  0
   -3.6870   -3.7267    0.7873 C   0  0  0  0  0  0  0  0  0  0  0  0
   -4.5138   -3.0365    0.9719 H   0  0  0  0  0  0  0  0  0  0  0  0
   -3.8236   -4.1967   -0.1896 H   0  0  0  0  0  0  0  0  0  0  0  0
   -2.3687   -2.9773    0.8210 C   0  0  0  0  0  0  0  0  0  0  0  0
   -1.5109   -3.2878    1.6322 O   0  0  0  0  0  0  0  0  0  0  0  0
   -2.1464   -1.9437   -0.0637 N   0  0  0  0  0  0  0  0  0  0  0  0
   -2.9329   -1.6433   -0.6374 H   0  0  0  0  0  0  0  0  0  0  0  0
   -0.9829   -1.0458   -0.0173 C   0  0  1  0  0  0  0  0  0  0  0  0
   -0.5220   -1.1187    0.9675 H   0  0  0  0  0  0  0  0  0  0  0  0
    0.0339   -1.4461   -1.0947 C   0  0  0  0  0  0  0  0  0  0  0  0
    0.3550   -2.4762   -0.9101 H   0  0  0  0  0  0  0  0  0  0  0  0
   -0.4438   -1.4171   -2.0796 H   0  0  0  0  0  0  0  0  0  0  0  0
    1.2532   -0.5521   -1.0894 C   0  0  0  0  0  0  0  0  0  0  0  0
    1.8136   -0.0256   -2.2280 C   0  0  0  0  0  0  0  0  0  0  0  0
    1.4370   -0.1663   -3.2390 H   0  0  0  0  0  0  0  0  0  0  0  0
    2.9095    0.7420   -1.8483 N   0  0  0  0  0  0  0  0  0  0  0  0
    3.5120    1.2618   -2.4833 H   0  0  0  0  0  0  0  0  0  0  0  0
    3.0942    0.6713   -0.4789 C   0  0  0  0  0  0  0  0  0  0  0  0
    4.0641    1.2494    0.3396 C   0  0  0  0  0  0  0  0  0  0  0  0
    4.8248    1.8953   -0.0849 H   0  0  0  0  0  0  0  0  0  0  0  0
    4.0488    0.9757    1.7130 C   0  0  0  0  0  0  0  0  0  0  0  0
    4.7987    1.4165    2.3635 H   0  0  0  0  0  0  0  0  0  0  0  0
    3.0785    0.1145    2.2439 C   0  0  0  0  0  0  0  0  0  0  0  0
    3.0833   -0.1175    3.3050 H   0  0  0  0  0  0  0  0  0  0  0  0
    2.1110   -0.4622    1.4096 C   0  0  0  0  0  0  0  0  0  0  0  0
    1.3950   -1.1570    1.8343 H   0  0  0  0  0  0  0  0  0  0  0  0
    2.1021   -0.1564    0.0404 C   0  0  0  0  0  0  0  0  0  0  0  0
   -1.4122    0.4229   -0.2035 C   0  0  0  0  0  0  0  0  0  0  0  0
   -2.3141    0.6944   -0.9907 O   0  0  0  0  0  0  0  0  0  0  0  0
   -0.8931    1.4114    0.6121 N   0  0  0  0  0  0  0  0  0  0  0  0
   -0.0444    1.1713    1.1203 H   0  0  0  0  0  0  0  0  0  0  0  0
   -1.2192    2.8214    0.4469 C   0  0  0  0  0  0  0  0  0  0  0  0
   -2.2983    2.9804    0.5436 H   0  0  0  0  0  0  0  0  0  0  0  0
   -0.7141    3.4168    1.2136 H   0  0  0  0  0  0  0  0  0  0  0  0
   -0.8960    3.1757   -0.5375 H   0  0  0  0  0  0  0  0  0  0  0  0
  1  2  1  0  0  0  0
  2  3  1  0  0  0  0
  2  4  1  0  0  0  0
  2  5  1  0  0  0  0
  5  6  2  0  0  0  0
  5  7  1  0  0  0  0
  7  8  1  0  0  0  0
  7  9  1  0  0  0  0
  9 10  1  0  0  0  0
  9 11  1  0  0  0  0
  9 29  1  0  0  0  0
 11 12  1  0  0  0  0
 11 13  1  0  0  0  0
 11 14  1  0  0  0  0
 14 15  2  0  0  0  0
 14 28  1  0  0  0  0
 15 16  1  0  0  0  0
 15 17  1  0  0  0  0
 17 18  1  0  0  0  0
 17 19  1  0  0  0  0
 19 20  1  0  0  0  0
 19 28  2  0  0  0  0
 20 21  1  0  0  0  0
 20 22  2  0  0  0  0
 22 23  1  0  0  0  0
 22 24  1  0  0  0  0
 24 25  1  0  0  0  0
 24 26  2  0  0  0  0
 26 27  1  0  0  0  0
 26 28  1  0  0  0  0
 29 30  2  0  0  0  0
 29 31  1  0  0  0  0
 31 32  1  0  0  0  0
 31 33  1  0  0  0  0
 33 34  1  0  0  0  0
 33 35  1  0  0  0  0
 33 36  1  0  0  0  0
M  END
$$$$

  -OEChem-03222214083D

 36 37  0     1  0  0  0  0  0999 V2000
   -3.6480   -4.4899    1.6092 H   0  0  0  0  0  0  0  0  0  0  0  0
   -3.6432   -3.7237    0.8291 C   0  0  0  0  0  0  0  0  0  0  0  0
   -4.4618   -3.0248    1.0176 H   0  0  0  0  0  0  0  0  0  0  0  0
   -3.7991   -4.2053   -0.1393 H   0  0  0  0  0  0  0  0  0  0  0  0
   -2.3185   -2.9849    0.8317 C   0  0  0  0  0  0  0  0  0  0  0  0
   -1.4366   -3.3146    1.6090 O   0  0  0  0  0  0  0  0  0  0  0  0
   -2.1136   -1.9443   -0.0490 N   0  0  0  0  0  0  0  0  0  0  0  0
   -2.9127   -1.6321   -0.5982 H   0  0  0  0  0  0  0  0  0  0  0  0
   -0.9384   -1.0610   -0.0300 C   0  0  1  0  0  0  0  0  0  0  0  0
   -0.4386   -1.1460    0.9378 H   0  0  0  0  0  0  0  0  0  0  0  0
    0.0382   -1.4712   -1.1405 C   0  0  0  0  0  0  0  0  0  0  0  0
    0.3535   -2.5076   -0.9837 H   0  0  0  0  0  0  0  0  0  0  0  0
   -0.4643   -1.4173   -2.1117 H   0  0  0  0  0  0  0  0  0  0  0  0
    1.2537   -0.5788   -1.1402 C   0  0  0  0  0  0  0  0  0  0  0  0
    1.6609    0.2131   -2.1858 C   0  0  0  0  0  0  0  0  0  0  0  0
    1.1581    0.2976   -3.1470 H   0  0  0  0  0  0  0  0  0  0  0  0
    2.8019    0.8983   -1.7760 N   0  0  0  0  0  0  0  0  0  0  0  0
    3.3255    1.5609   -2.3447 H   0  0  0  0  0  0  0  0  0  0  0  0
    3.1471    0.5331   -0.4851 C   0  0  0  0  0  0  0  0  0  0  0  0
    4.1977    0.9332    0.3405 C   0  0  0  0  0  0  0  0  0  0  0  0
    4.9161    1.6681   -0.0056 H   0  0  0  0  0  0  0  0  0  0  0  0
    4.3154    0.3685    1.6182 C   0  0  0  0  0  0  0  0  0  0  0  0
    5.1294    0.6682    2.2716 H   0  0  0  0  0  0  0  0  0  0  0  0
    3.3899   -0.5934    2.0496 C   0  0  0  0  0  0  0  0  0  0  0  0
    3.4907   -1.0412    3.0338 H   0  0  0  0  0  0  0  0  0  0  0  0
    2.3383   -0.9885    1.2113 C   0  0  0  0  0  0  0  0  0  0  0  0
    1.6369   -1.7491    1.5419 H   0  0  0  0  0  0  0  0  0  0  0  0
    2.2147   -0.4050   -0.0555 C   0  0  0  0  0  0  0  0  0  0  0  0
   -1.3545    0.4148   -0.1860 C   0  0  0  0  0  0  0  0  0  0  0  0
   -2.2646    0.7103   -0.9547 O   0  0  0  0  0  0  0  0  0  0  0  0
   -0.7973    1.3870    0.6237 N   0  0  0  0  0  0  0  0  0  0  0  0
    0.0450    1.1226    1.1305 H   0  0  0  0  0  0  0  0  0  0  0  0
   -1.1071    2.8036    0.4871 C   0  0  0  0  0  0  0  0  0  0  0  0
   -2.1822    2.9753    0.6054 H   0  0  0  0  0  0  0  0  0  0  0  0
   -0.5811    3.3795    1.2545 H   0  0  0  0  0  0  0  0  0  0  0  0
   -0.7969    3.1699   -0.4971 H   0  0  0  0  0  0  0  0  0  0  0  0
  1  2  1  0  0  0  0
  2  3  1  0  0  0  0
  2  4  1  0  0  0  0
  2  5  1  0  0  0  0
  5  6  2  0  0  0  0
  5  7  1  0  0  0  0
  7  8  1  0  0  0  0
  7  9  1  0  0  0  0
  9 10  1  0  0  0  0
  9 11  1  0  0  0  0
  9 29  1  0  0  0  0
 11 12  1  0  0  0  0
 11 13  1  0  0  0  0
 11 14  1  0  0  0  0
 14 15  2  0  0  0  0
 14 28  1  0  0  0  0
 15 16  1  0  0  0  0
 15 17  1  0  0  0  0
 17 18  1  0  0  0  0
 17 19  1  0  0  0  0
 19 20  1  0  0  0  0
 19 28  2  0  0  0  0
 20 21  1  0  0  0  0
 20 22  2  0  0  0  0
 22 23  1  0  0  0  0
 22 24  1  0  0  0  0
 24 25  1  0  0  0  0
 24 26  2  0  0  0  0
 26 27  1  0  0  0  0
 26 28  1  0  0  0  0
 29 30  2  0  0  0  0
 29 31  1  0  0  0  0
 31 32  1  0  0  0  0
 31 33  1  0  0  0  0
 33 34  1  0  0  0  0
 33 35  1  0  0  0  0
 33 36  1  0  0  0  0
M  END
$$$$

  -OEChem-03222214083D

 36 37  0     1  0  0  0  0  0999 V2000
   -3.6145   -4.5081    1.6030 H   0  0  0  0  0  0  0  0  0  0  0  0
   -3.6150   -3.7345    0.8301 C   0  0  0  0  0  0  0  0  0  0  0  0
   -4.4271   -3.0329    1.0355 H   0  0  0  0  0  0  0  0  0  0  0  0
   -3.7862   -4.2063   -0.1405 H   0  0  0  0  0  0  0  0  0  0  0  0
   -2.2862   -3.0025    0.8216 C   0  0  0  0  0  0  0  0  0  0  0  0
   -1.3933   -3.3478    1.5791 O   0  0  0  0  0  0  0  0  0  0  0  0
   -2.0900   -1.9510   -0.0480 N   0  0  0  0  0  0  0  0  0  0  0  0
   -2.8944   -1.6316   -0.5853 H   0  0  0  0  0  0  0  0  0  0  0  0
   -0.9088   -1.0755   -0.0398 C   0  0  1  0  0  0  0  0  0  0  0  0
   -0.3794   -1.1770    0.9130 H   0  0  0  0  0  0  0  0  0  0  0  0
    0.0393   -1.4823   -1.1745 C   0  0  0  0  0  0  0  0  0  0  0  0
    0.3471   -2.5254   -1.0502 H   0  0  0  0  0  0  0  0  0  0  0  0
   -0.4825   -1.3991   -2.1333 H   0  0  0  0  0  0  0  0  0  0  0  0
    1.2557   -0.5952   -1.1789 C   0  0  0  0  0  0  0  0  0  0  0  0
    1.5220    0.4200   -2.0652 C   0  0  0  0  0  0  0  0  0  0  0  0
    0.8926    0.7078   -2.9053 H   0  0  0  0  0  0  0  0  0  0  0  0
    2.7200    1.0135   -1.6725 N   0  0  0  0  0  0  0  0  0  0  0  0
    3.1744    1.7898   -2.1492 H   0  0  0  0  0  0  0  0  0  0  0  0
    3.2231    0.3893   -0.5417 C   0  0  0  0  0  0  0  0  0  0  0  0
    4.3703    0.6186    0.2179 C   0  0  0  0  0  0  0  0  0  0  0  0
    5.0572    1.4124   -0.0541 H   0  0  0  0  0  0  0  0  0  0  0  0
    4.6233   -0.1909    1.3346 C   0  0  0  0  0  0  0  0  0  0  0  0
    5.5130   -0.0246    1.9347 H   0  0  0  0  0  0  0  0  0  0  0  0
    3.7307   -1.2186    1.6766 C   0  0  0  0  0  0  0  0  0  0  0  0
    3.9314   -1.8472    2.5392 H   0  0  0  0  0  0  0  0  0  0  0  0
    2.5807   -1.4413    0.9060 C   0  0  0  0  0  0  0  0  0  0  0  0
    1.8896   -2.2392    1.1645 H   0  0  0  0  0  0  0  0  0  0  0  0
    2.3360   -0.6256   -0.2038 C   0  0  0  0  0  0  0  0  0  0  0  0
   -1.3255    0.4031   -0.1680 C   0  0  0  0  0  0  0  0  0  0  0  0
   -2.2365    0.7128   -0.9301 O   0  0  0  0  0  0  0  0  0  0  0  0
   -0.7532    1.3662    0.6419 N   0  0  0  0  0  0  0  0  0  0  0  0
    0.0854    1.0914    1.1490 H   0  0  0  0  0  0  0  0  0  0  0  0
   -1.0657    2.7844    0.5298 C   0  0  0  0  0  0  0  0  0  0  0  0
   -2.1392    2.9535    0.6654 H   0  0  0  0  0  0  0  0  0  0  0  0
   -0.5295    3.3502    1.2976 H   0  0  0  0  0  0  0  0  0  0  0  0
   -0.7696    3.1642   -0.4535 H   0  0  0  0  0  0  0  0  0  0  0  0
  1  2  1  0  0  0  0
  2  3  1  0  0  0  0
  2  4  1  0  0  0  0
  2  5  1  0  0  0  0
  5  6  2  0  0  0  0
  5  7  1  0  0  0  0
  7  8  1  0  0  0  0
  7  9  1  0  0  0  0
  9 10  1  0  0  0  0
  9 11  1  0  0  0  0
  9 29  1  0  0  0  0
 11 12  1  0  0  0  0
 11 13  1  0  0  0  0
 11 14  1  0  0  0  0
 14 15  2  0  0  0  0
 14 28  1  0  0  0  0
 15 16  1  0  0  0  0
 15 17  1  0  0  0  0
 17 18  1  0  0  0  0
 17 19  1  0  0  0  0
 19 20  1  0  0  0  0
 19 28  2  0  0  0  0
 20 21  1  0  0  0  0
 20 22  2  0  0  0  0
 22 23  1  0  0  0  0
 22 24  1  0  0  0  0
 24 25  1  0  0  0  0
 24 26  2  0  0  0  0
 26 27  1  0  0  0  0
 26 28  1  0  0  0  0
 29 30  2  0  0  0  0
 29 31  1  0  0  0  0
 31 32  1  0  0  0  0
 31 33  1  0  0  0  0
 33 34  1  0  0  0  0
 33 35  1  0  0  0  0
 33 36  1  0  0  0  0
M  END
$$$$

  -OEChem-03222214083D

 36 37  0     1  0  0  0  0  0999 V2000
   -3.6188   -4.5368    1.5469 H   0  0  0  0  0  0  0  0  0  0  0  0
   -3.6206   -3.7473    0.7899 C   0  0  0  0  0  0  0  0  0  0  0  0
   -4.4322   -3.0499    1.0113 H   0  0  0  0  0  0  0  0  0  0  0  0
   -3.7940   -4.1990   -0.1897 H   0  0  0  0  0  0  0  0  0  0  0  0
   -2.2914   -3.0153    0.7936 C   0  0  0  0  0  0  0  0  0  0  0  0
   -1.4018   -3.3685    1.5509 O   0  0  0  0  0  0  0  0  0  0  0  0
   -2.0927   -1.9525   -0.0619 N   0  0  0  0  0  0  0  0  0  0  0  0
   -2.8939   -1.6316   -0.6028 H   0  0  0  0  0  0  0  0  0  0  0  0
   -0.9105   -1.0775   -0.0441 C   0  0  1  0  0  0  0  0  0  0  0  0
   -0.3771   -1.1913    0.9057 H   0  0  0  0  0  0  0  0  0  0  0  0
    0.0368   -1.4861   -1.1795 C   0  0  0  0  0  0  0  0  0  0  0  0
    0.3318   -2.5340   -1.0653 H   0  0  0  0  0  0  0  0  0  0  0  0
   -0.4864   -1.3917   -2.1367 H   0  0  0  0  0  0  0  0  0  0  0  0
    1.2635   -0.6119   -1.1950 C   0  0  0  0  0  0  0  0  0  0  0  0
    1.4203    0.5664   -1.8858 C   0  0  0  0  0  0  0  0  0  0  0  0
    0.6829    1.0101   -2.5530 H   0  0  0  0  0  0  0  0  0  0  0  0
    2.6735    1.0807   -1.5594 N   0  0  0  0  0  0  0  0  0  0  0  0
    3.0720    1.9394   -1.9339 H   0  0  0  0  0  0  0  0  0  0  0  0
    3.3152    0.2517   -0.6525 C   0  0  0  0  0  0  0  0  0  0  0  0
    4.5597    0.3382   -0.0280 C   0  0  0  0  0  0  0  0  0  0  0  0
    5.2203    1.1724   -0.2378 H   0  0  0  0  0  0  0  0  0  0  0  0
    4.9434   -0.6661    0.8728 C   0  0  0  0  0  0  0  0  0  0  0  0
    5.9103   -0.6134    1.3647 H   0  0  0  0  0  0  0  0  0  0  0  0
    4.0792   -1.7393    1.1407 C   0  0  0  0  0  0  0  0  0  0  0  0
    4.3763   -2.5144    1.8407 H   0  0  0  0  0  0  0  0  0  0  0  0
    2.8312   -1.8172    0.5064 C   0  0  0  0  0  0  0  0  0  0  0  0
    2.1579   -2.6446    0.7113 H   0  0  0  0  0  0  0  0  0  0  0  0
    2.4619   -0.8148   -0.3956 C   0  0  0  0  0  0  0  0  0  0  0  0
   -1.3269    0.4018   -0.1535 C   0  0  0  0  0  0  0  0  0  0  0  0
   -2.2201    0.7275   -0.9294 O   0  0  0  0  0  0  0  0  0  0  0  0
   -0.7542    1.3546    0.6680 N   0  0  0  0  0  0  0  0  0  0  0  0
    0.0596    1.0650    1.2060 H   0  0  0  0  0  0  0  0  0  0  0  0
   -1.0704    2.7741    0.5854 C   0  0  0  0  0  0  0  0  0  0  0  0
   -2.1430    2.9377    0.7336 H   0  0  0  0  0  0  0  0  0  0  0  0
   -0.5288    3.3266    1.3593 H   0  0  0  0  0  0  0  0  0  0  0  0
   -0.7836    3.1736   -0.3927 H   0  0  0  0  0  0  0  0  0  0  0  0
  1  2  1  0  0  0  0
  2  3  1  0  0  0  0
  2  4  1  0  0  0  0
  2  5  1  0  0  0  0
  5  6  2  0  0  0  0
  5  7  1  0  0  0  0
  7  8  1  0  0  0  0
  7  9  1  0  0  0  0
  9 10  1  0  0  0  0
  9 11  1  0  0  0  0
  9 29  1  0  0  0  0
 11 12  1  0  0  0  0
 11 13  1  0  0  0  0
 11 14  1  0  0  0  0
 14 15  2  0  0  0  0
 14 28  1  0  0  0  0
 15 16  1  0  0  0  0
 15 17  1  0  0  0  0
 17 18  1  0  0  0  0
 17 19  1  0  0  0  0
 19 20  1  0  0  0  0
 19 28  2  0  0  0  0
 20 21  1  0  0  0  0
 20 22  2  0  0  0  0
 22 23  1  0  0  0  0
 22 24  1  0  0  0  0
 24 25  1  0  0  0  0
 24 26  2  0  0  0  0
 26 27  1  0  0  0  0
 26 28  1  0  0  0  0
 29 30  2  0  0  0  0
 29 31  1  0  0  0  0
 31 32  1  0  0  0  0
 31 33  1  0  0  0  0
 33 34  1  0  0  0  0
 33 35  1  0  0  0  0
 33 36  1  0  0  0  0
M  END
$$$$

  -OEChem-03222214083D

 36 37  0     1  0  0  0  0  0999 V2000
   -3.6227   -4.5557    1.4864 H   0  0  0  0  0  0  0  0  0  0  0  0
   -3.6117   -3.7705    0.7251 C   0  0  0  0  0  0  0  0  0  0  0  0
   -4.4521   -3.0953    0.9037 H   0  0  0  0  0  0  0  0  0  0  0  0
   -3.7264   -4.2324   -0.2585 H   0  0  0  0  0  0  0  0  0  0  0  0
   -2.3056   -3.0014    0.7861 C   0  0  0  0  0  0  0  0  0  0  0  0
   -1.4375   -3.3352    1.5760 O   0  0  0  0  0  0  0  0  0  0  0  0
   -2.1007   -1.9322   -0.0595 N   0  0  0  0  0  0  0  0  0  0  0  0
   -2.8858   -1.6319   -0.6348 H   0  0  0  0  0  0  0  0  0  0  0  0
   -0.9282   -1.0452   -0.0164 C   0  0  1  0  0  0  0  0  0  0  0  0
   -0.4072   -1.1552    0.9406 H   0  0  0  0  0  0  0  0  0  0  0  0
    0.0351   -1.4650   -1.1372 C   0  0  0  0  0  0  0  0  0  0  0  0
    0.3147   -2.5149   -1.0075 H   0  0  0  0  0  0  0  0  0  0  0  0
   -0.4796   -1.3809   -2.0999 H   0  0  0  0  0  0  0  0  0  0  0  0
    1.2779   -0.6109   -1.1772 C   0  0  0  0  0  0  0  0  0  0  0  0
    1.3766    0.6778   -1.6487 C   0  0  0  0  0  0  0  0  0  0  0  0
    0.5676    1.2466   -2.1050 H   0  0  0  0  0  0  0  0  0  0  0  0
    2.6827    1.1094   -1.4311 N   0  0  0  0  0  0  0  0  0  0  0  0
    3.0539    2.0190   -1.6976 H   0  0  0  0  0  0  0  0  0  0  0  0
    3.4215    0.1153   -0.8100 C   0  0  0  0  0  0  0  0  0  0  0  0
    4.7499    0.0720   -0.3863 C   0  0  0  0  0  0  0  0  0  0  0  0
    5.3996    0.9270   -0.5358 H   0  0  0  0  0  0  0  0  0  0  0  0
    5.2315   -1.0887    0.2357 C   0  0  0  0  0  0  0  0  0  0  0  0
    6.2637   -1.1372    0.5699 H   0  0  0  0  0  0  0  0  0  0  0  0
    4.3806   -2.1878    0.4295 C   0  0  0  0  0  0  0  0  0  0  0  0
    4.7546   -3.0848    0.9139 H   0  0  0  0  0  0  0  0  0  0  0  0
    3.0470   -2.1333   -0.0006 C   0  0  0  0  0  0  0  0  0  0  0  0
    2.3858   -2.9807    0.1515 H   0  0  0  0  0  0  0  0  0  0  0  0
    2.5773   -0.9741   -0.6275 C   0  0  0  0  0  0  0  0  0  0  0  0
   -1.3651    0.4279   -0.1269 C   0  0  0  0  0  0  0  0  0  0  0  0
   -2.2264    0.7502   -0.9387 O   0  0  0  0  0  0  0  0  0  0  0  0
   -0.8239    1.3881    0.7080 N   0  0  0  0  0  0  0  0  0  0  0  0
   -0.0544    1.0987    1.3074 H   0  0  0  0  0  0  0  0  0  0  0  0
   -1.1633    2.8032    0.6313 C   0  0  0  0  0  0  0  0  0  0  0  0
   -2.2443    2.9454    0.7336 H   0  0  0  0  0  0  0  0  0  0  0  0
   -0.6674    3.3543    1.4360 H   0  0  0  0  0  0  0  0  0  0  0  0
   -0.8409    3.2228   -0.3271 H   0  0  0  0  0  0  0  0  0  0  0  0
  1  2  1  0  0  0  0
  2  3  1  0  0  0  0
  2  4  1  0  0  0  0
  2  5  1  0  0  0  0
  5  6  2  0  0  0  0
  5  7  1  0  0  0  0
  7  8  1  0  0  0  0
  7  9  1  0  0  0  0
  9 10  1  0  0  0  0
  9 11  1  0  0  0  0
  9 29  1  0  0  0  0
 11 12  1  0  0  0  0
 11 13  1  0  0  0  0
 11 14  1  0  0  0  0
 14 15  2  0  0  0  0
 14 28  1  0  0  0  0
 15 16  1  0  0  0  0
 15 17  1  0  0  0  0
 17 18  1  0  0  0  0
 17 19  1  0  0  0  0
 19 20  1  0  0  0  0
 19 28  2  0  0  0  0
 20 21  1  0  0  0  0
 20 22  2  0  0  0  0
 22 23  1  0  0  0  0
 22 24  1  0  0  0  0
 24 25  1  0  0  0  0
 24 26  2  0  0  0  0
 26 27  1  0  0  0  0
 26 28  1  0  0  0  0
 29 30  2  0  0  0  0
 29 31  1  0  0  0  0
 31 32  1  0  0  0  0
 31 33  1  0  0  0  0
 33 34  1  0  0  0  0
 33 35  1  0  0  0  0
 33 36  1  0  0  0  0
M  END
$$$$

  -OEChem-03222214083D

 36 37  0     1  0  0  0  0  0999 V2000
   -3.5984   -4.5772    1.4106 H   0  0  0  0  0  0  0  0  0  0  0  0
   -3.5946   -3.7663    0.6768 C   0  0  0  0  0  0  0  0  0  0  0  0
   -4.4442   -3.1082    0.8746 H   0  0  0  0  0  0  0  0  0  0  0  0
   -3.6989   -4.1953   -0.3227 H   0  0  0  0  0  0  0  0  0  0  0  0
   -2.2995   -2.9824    0.7708 C   0  0  0  0  0  0  0  0  0  0  0  0
   -1.4508   -3.2990    1.5882 O   0  0  0  0  0  0  0  0  0  0  0  0
   -2.0901   -1.9081   -0.0668 N   0  0  0  0  0  0  0  0  0  0  0  0
   -2.8617   -1.6248   -0.6685 H   0  0  0  0  0  0  0  0  0  0  0  0
   -0.9316   -1.0042    0.0014 C   0  0  1  0  0  0  0  0  0  0  0  0
   -0.4283   -1.1049    0.9688 H   0  0  0  0  0  0  0  0  0  0  0  0
    0.0580   -1.4285   -1.0994 C   0  0  0  0  0  0  0  0  0  0  0  0
    0.3281   -2.4766   -0.9411 H   0  0  0  0  0  0  0  0  0  0  0  0
   -0.4444   -1.3675   -2.0703 H   0  0  0  0  0  0  0  0  0  0  0  0
    1.3177   -0.5924   -1.1670 C   0  0  0  0  0  0  0  0  0  0  0  0
    1.4180    0.7617   -1.3981 C   0  0  0  0  0  0  0  0  0  0  0  0
    0.5900    1.4302   -1.6270 H   0  0  0  0  0  0  0  0  0  0  0  0
    2.7615    1.1144   -1.3091 N   0  0  0  0  0  0  0  0  0  0  0  0
    3.1373    2.0478   -1.4631 H   0  0  0  0  0  0  0  0  0  0  0  0
    3.5307    0.0043   -1.0063 C   0  0  0  0  0  0  0  0  0  0  0  0
    4.9036   -0.1430   -0.8089 C   0  0  0  0  0  0  0  0  0  0  0  0
    5.5636    0.7132   -0.8947 H   0  0  0  0  0  0  0  0  0  0  0  0
    5.4160   -1.4095   -0.4955 C   0  0  0  0  0  0  0  0  0  0  0  0
    6.4824   -1.5394   -0.3371 H   0  0  0  0  0  0  0  0  0  0  0  0
    4.5515   -2.5090   -0.3838 C   0  0  0  0  0  0  0  0  0  0  0  0
    4.9490   -3.4889   -0.1374 H   0  0  0  0  0  0  0  0  0  0  0  0
    3.1733   -2.3484   -0.5878 C   0  0  0  0  0  0  0  0  0  0  0  0
    2.5056   -3.1991   -0.4985 H   0  0  0  0  0  0  0  0  0  0  0  0
    2.6683   -1.0817   -0.9038 C   0  0  0  0  0  0  0  0  0  0  0  0
   -1.4054    0.4562   -0.1163 C   0  0  0  0  0  0  0  0  0  0  0  0
   -2.2593    0.7594   -0.9427 O   0  0  0  0  0  0  0  0  0  0  0  0
   -0.9061    1.4289    0.7307 N   0  0  0  0  0  0  0  0  0  0  0  0
   -0.1846    1.1477    1.3906 H   0  0  0  0  0  0  0  0  0  0  0  0
   -1.3372    2.8206    0.7029 C   0  0  0  0  0  0  0  0  0  0  0  0
   -2.4162    2.8911    0.8764 H   0  0  0  0  0  0  0  0  0  0  0  0
   -0.8249    3.3904    1.4841 H   0  0  0  0  0  0  0  0  0  0  0  0
   -1.1049    3.2747   -0.2658 H   0  0  0  0  0  0  0  0  0  0  0  0
  1  2  1  0  0  0  0
  2  3  1  0  0  0  0
  2  4  1  0  0  0  0
  2  5  1  0  0  0  0
  5  6  2  0  0  0  0
  5  7  1  0  0  0  0
  7  8  1  0  0  0  0
  7  9  1  0  0  0  0
  9 10  1  0  0  0  0
  9 11  1  0  0  0  0
  9 29  1  0  0  0  0
 11 12  1  0  0  0  0
 11 13  1  0  0  0  0
 11 14  1  0  0  0  0
 14 15  2  0  0  0  0
 14 28  1  0  0  0  0
 15 16  1  0  0  0  0
 15 17  1  0  0  0  0
 17 18  1  0  0  0  0
 17 19  1  0  0  0  0
 19 20  1  0  0  0  0
 19 28  2  0  0  0  0
 20 21  1  0  0  0  0
 20 22  2  0  0  0  0
 22 23  1  0  0  0  0
 22 24  1  0  0  0  0
 24 25  1  0  0  0  0
 24 26  2  0  0  0  0
 26 27  1  0  0  0  0
 26 28  1  0  0  0  0
 29 30  2  0  0  0  0
 29 31  1  0  0  0  0
 31 32  1  0  0  0  0
 31 33  1  0  0  0  0
 33 34  1  0  0  0  0
 33 35  1  0  0  0  0
 33 36  1  0  0  0  0
M  END
$$$$

  -OEChem-03222214083D

 36 37  0     1  0  0  0  0  0999 V2000
   -3.5356   -4.6074    1.3334 H   0  0  0  0  0  0  0  0  0  0  0  0
   -3.5351   -3.7872    0.6101 C   0  0  0  0  0  0  0  0  0  0  0  0
   -4.4135   -3.1616    0.7864 H   0  0  0  0  0  0  0  0  0  0  0  0
   -3.5904   -4.2064   -0.3975 H   0  0  0  0  0  0  0  0  0  0  0  0
   -2.2721   -2.9602    0.7582 C   0  0  0  0  0  0  0  0  0  0  0  0
   -1.4506   -3.2466    1.6135 O   0  0  0  0  0  0  0  0  0  0  0  0
   -2.0611   -1.8790   -0.0703 N   0  0  0  0  0  0  0  0  0  0  0  0
   -2.8136   -1.6197   -0.7062 H   0  0  0  0  0  0  0  0  0  0  0  0
   -0.9273   -0.9473    0.0377 C   0  0  1  0  0  0  0  0  0  0  0  0
   -0.4475   -1.0352    1.0179 H   0  0  0  0  0  0  0  0  0  0  0  0
    0.0934   -1.3643   -1.0408 C   0  0  0  0  0  0  0  0  0  0  0  0
    0.3651   -2.4059   -0.8473 H   0  0  0  0  0  0  0  0  0  0  0  0
   -0.3928   -1.3338   -2.0212 H   0  0  0  0  0  0  0  0  0  0  0  0
    1.3654   -0.5429   -1.1282 C   0  0  0  0  0  0  0  0  0  0  0  0
    1.5237    0.8262   -1.1076 C   0  0  0  0  0  0  0  0  0  0  0  0
    0.7273    1.5651   -1.0885 H   0  0  0  0  0  0  0  0  0  0  0  0
    2.8858    1.1064   -1.1623 N   0  0  0  0  0  0  0  0  0  0  0  0
    3.2954    2.0376   -1.1913 H   0  0  0  0  0  0  0  0  0  0  0  0
    3.6162   -0.0667   -1.2100 C   0  0  0  0  0  0  0  0  0  0  0  0
    4.9907   -0.2969   -1.2697 C   0  0  0  0  0  0  0  0  0  0  0  0
    5.6847    0.5360   -1.2871 H   0  0  0  0  0  0  0  0  0  0  0  0
    5.4608   -1.6167   -1.3042 C   0  0  0  0  0  0  0  0  0  0  0  0
    6.5281   -1.8121   -1.3486 H   0  0  0  0  0  0  0  0  0  0  0  0
    4.5529   -2.6858   -1.2797 C   0  0  0  0  0  0  0  0  0  0  0  0
    4.9183   -3.7080   -1.3046 H   0  0  0  0  0  0  0  0  0  0  0  0
    3.1733   -2.4404   -1.2221 C   0  0  0  0  0  0  0  0  0  0  0  0
    2.4743   -3.2699   -1.2022 H   0  0  0  0  0  0  0  0  0  0  0  0
    2.7085   -1.1196   -1.1888 C   0  0  0  0  0  0  0  0  0  0  0  0
   -1.4490    0.4952   -0.0949 C   0  0  0  0  0  0  0  0  0  0  0  0
   -2.2866    0.7710   -0.9466 O   0  0  0  0  0  0  0  0  0  0  0  0
   -1.0123    1.4830    0.7702 N   0  0  0  0  0  0  0  0  0  0  0  0
   -0.3627    1.2072    1.5029 H   0  0  0  0  0  0  0  0  0  0  0  0
   -1.5330    2.8444    0.7638 C   0  0  0  0  0  0  0  0  0  0  0  0
   -2.6125    2.8428    0.9483 H   0  0  0  0  0  0  0  0  0  0  0  0
   -1.0495    3.4373    1.5462 H   0  0  0  0  0  0  0  0  0  0  0  0
   -1.3407    3.3243   -0.2014 H   0  0  0  0  0  0  0  0  0  0  0  0
  1  2  1  0  0  0  0
  2  3  1  0  0  0  0
  2  4  1  0  0  0  0
  2  5  1  0  0  0  0
  5  6  2  0  0  0  0
  5  7  1  0  0  0  0
  7  8  1  0  0  0  0
  7  9  1  0  0  0  0
  9 10  1  0  0  0  0
  9 11  1  0  0  0  0
  9 29  1  0  0  0  0
 11 12  1  0  0  0  0
 11 13  1  0  0  0  0
 11 14  1  0  0  0  0
 14 15  2  0  0  0  0
 14 28  1  0  0  0  0
 15 16  1  0  0  0  0
 15 17  1  0  0  0  0
 17 18  1  0  0  0  0
 17 19  1  0  0  0  0
 19 20  1  0  0  0  0
 19 28  2  0  0  0  0
 20 21  1  0  0  0  0
 20 22  2  0  0  0  0
 22 23  1  0  0  0  0
 22 24  1  0  0  0  0
 24 25  1  0  0  0  0
 24 26  2  0  0  0  0
 26 27  1  0  0  0  0
 26 28  1  0  0  0  0
 29 30  2  0  0  0  0
 29 31  1  0  0  0  0
 31 32  1  0  0  0  0
 31 33  1  0  0  0  0
 33 34  1  0  0  0  0
 33 35  1  0  0  0  0
 33 36  1  0  0  0  0
M  END
$$$$

  -OEChem-03222214083D

 36 37  0     1  0  0  0  0  0999 V2000
   -3.5015   -4.6325    1.2328 H   0  0  0  0  0  0  0  0  0  0  0  0
   -3.4877   -3.8034    0.5197 C   0  0  0  0  0  0  0  0  0  0  0  0
   -4.3876   -3.2004    0.6631 H   0  0  0  0  0  0  0  0  0  0  0  0
   -3.4881   -4.2116   -0.4938 H   0  0  0  0  0  0  0  0  0  0  0  0
   -2.2518   -2.9500    0.7341 C   0  0  0  0  0  0  0  0  0  0  0  0
   -1.4696   -3.2204    1.6306 O   0  0  0  0  0  0  0  0  0  0  0  0
   -2.0216   -1.8613   -0.0793 N   0  0  0  0  0  0  0  0  0  0  0  0
   -2.7461   -1.6138   -0.7518 H   0  0  0  0  0  0  0  0  0  0  0  0
   -0.9116   -0.9090    0.0855 C   0  0  1  0  0  0  0  0  0  0  0  0
   -0.4647   -0.9919    1.0815 H   0  0  0  0  0  0  0  0  0  0  0  0
    0.1432   -1.3067   -0.9690 C   0  0  0  0  0  0  0  0  0  0  0  0
    0.4192   -2.3451   -0.7606 H   0  0  0  0  0  0  0  0  0  0  0  0
   -0.3205   -1.2861   -1.9606 H   0  0  0  0  0  0  0  0  0  0  0  0
    1.4246   -0.4974   -1.0463 C   0  0  0  0  0  0  0  0  0  0  0  0
    1.6767    0.8284   -0.7636 C   0  0  0  0  0  0  0  0  0  0  0  0
    0.9530    1.5769   -0.4627 H   0  0  0  0  0  0  0  0  0  0  0  0
    3.0320    1.0680   -0.9734 N   0  0  0  0  0  0  0  0  0  0  0  0
    3.4957    1.9673   -0.8643 H   0  0  0  0  0  0  0  0  0  0  0  0
    3.6660   -0.0868   -1.3924 C   0  0  0  0  0  0  0  0  0  0  0  0
    4.9953   -0.3453   -1.7279 C   0  0  0  0  0  0  0  0  0  0  0  0
    5.7361    0.4447   -1.6775 H   0  0  0  0  0  0  0  0  0  0  0  0
    5.3589   -1.6379   -2.1298 C   0  0  0  0  0  0  0  0  0  0  0  0
    6.3896   -1.8551   -2.3937 H   0  0  0  0  0  0  0  0  0  0  0  0
    4.3916   -2.6520   -2.1917 C   0  0  0  0  0  0  0  0  0  0  0  0
    4.6743   -3.6532   -2.5028 H   0  0  0  0  0  0  0  0  0  0  0  0
    3.0587   -2.3781   -1.8532 C   0  0  0  0  0  0  0  0  0  0  0  0
    2.3116   -3.1631   -1.9031 H   0  0  0  0  0  0  0  0  0  0  0  0
    2.7013   -1.0851   -1.4516 C   0  0  0  0  0  0  0  0  0  0  0  0
   -1.4712    0.5181   -0.0694 C   0  0  0  0  0  0  0  0  0  0  0  0
   -2.2790    0.7683   -0.9572 O   0  0  0  0  0  0  0  0  0  0  0  0
   -1.1086    1.5180    0.8163 N   0  0  0  0  0  0  0  0  0  0  0  0
   -0.5339    1.2474    1.6107 H   0  0  0  0  0  0  0  0  0  0  0  0
   -1.6893    2.8550    0.7917 C   0  0  0  0  0  0  0  0  0  0  0  0
   -2.7713    2.8054    0.9530 H   0  0  0  0  0  0  0  0  0  0  0  0
   -1.2494    3.4726    1.5807 H   0  0  0  0  0  0  0  0  0  0  0  0
   -1.4978    3.3389   -0.1719 H   0  0  0  0  0  0  0  0  0  0  0  0
  1  2  1  0  0  0  0
  2  3  1  0  0  0  0
  2  4  1  0  0  0  0
  2  5  1  0  0  0  0
  5  6  2  0  0  0  0
  5  7  1  0  0  0  0
  7  8  1  0  0  0  0
  7  9  1  0  0  0  0
  9 10  1  0  0  0  0
  9 11  1  0  0  0  0
  9 29  1  0  0  0  0
 11 12  1  0  0  0  0
 11 13  1  0  0  0  0
 11 14  1  0  0  0  0
 14 15  2  0  0  0  0
 14 28  1  0  0  0  0
 15 16  1  0  0  0  0
 15 17  1  0  0  0  0
 17 18  1  0  0  0  0
 17 19  1  0  0  0  0
 19 20  1  0  0  0  0
 19 28  2  0  0  0  0
 20 21  1  0  0  0  0
 20 22  2  0  0  0  0
 22 23  1  0  0  0  0
 22 24  1  0  0  0  0
 24 25  1  0  0  0  0
 24 26  2  0  0  0  0
 26 27  1  0  0  0  0
 26 28  1  0  0  0  0
 29 30  2  0  0  0  0
 29 31  1  0  0  0  0
 31 32  1  0  0  0  0
 31 33  1  0  0  0  0
 33 34  1  0  0  0  0
 33 35  1  0  0  0  0
 33 36  1  0  0  0  0
M  END
$$$$

  -OEChem-03222214083D

 36 37  0     1  0  0  0  0  0999 V2000
   -3.5737   -4.6162    1.1492 H   0  0  0  0  0  0  0  0  0  0  0  0
   -3.5159   -3.7891    0.4360 C   0  0  0  0  0  0  0  0  0  0  0  0
   -4.4157   -3.1766    0.5328 H   0  0  0  0  0  0  0  0  0  0  0  0
   -3.4697   -4.1994   -0.5757 H   0  0  0  0  0  0  0  0  0  0  0  0
   -2.2840   -2.9473    0.7099 C   0  0  0  0  0  0  0  0  0  0  0  0
   -1.5498   -3.2217    1.6450 O   0  0  0  0  0  0  0  0  0  0  0  0
   -2.0056   -1.8611   -0.0910 N   0  0  0  0  0  0  0  0  0  0  0  0
   -2.6963   -1.6053   -0.7954 H   0  0  0  0  0  0  0  0  0  0  0  0
   -0.8930   -0.9221    0.1235 C   0  0  1  0  0  0  0  0  0  0  0  0
   -0.4752   -1.0145    1.1311 H   0  0  0  0  0  0  0  0  0  0  0  0
    0.1785   -1.3083   -0.9175 C   0  0  0  0  0  0  0  0  0  0  0  0
    0.4435   -2.3543   -0.7316 H   0  0  0  0  0  0  0  0  0  0  0  0
   -0.2679   -1.2569   -1.9161 H   0  0  0  0  0  0  0  0  0  0  0  0
    1.4718   -0.5177   -0.9542 C   0  0  0  0  0  0  0  0  0  0  0  0
    1.8237    0.6950   -0.4008 C   0  0  0  0  0  0  0  0  0  0  0  0
    1.1963    1.3429    0.1982 H   0  0  0  0  0  0  0  0  0  0  0  0
    3.1439    0.9657   -0.7516 N   0  0  0  0  0  0  0  0  0  0  0  0
    3.6645    1.8004   -0.4908 H   0  0  0  0  0  0  0  0  0  0  0  0
    3.6530   -0.0537   -1.5345 C   0  0  0  0  0  0  0  0  0  0  0  0
    4.9022   -0.2346   -2.1284 C   0  0  0  0  0  0  0  0  0  0  0  0
    5.6798    0.5109   -2.0050 H   0  0  0  0  0  0  0  0  0  0  0  0
    5.1364   -1.3902   -2.8869 C   0  0  0  0  0  0  0  0  0  0  0  0
    6.1034   -1.5446   -3.3563 H   0  0  0  0  0  0  0  0  0  0  0  0
    4.1219   -2.3473   -3.0406 C   0  0  0  0  0  0  0  0  0  0  0  0
    4.3045   -3.2417   -3.6284 H   0  0  0  0  0  0  0  0  0  0  0  0
    2.8704   -2.1528   -2.4383 C   0  0  0  0  0  0  0  0  0  0  0  0
    2.0838   -2.8908   -2.5564 H   0  0  0  0  0  0  0  0  0  0  0  0
    2.6440   -0.9964   -1.6829 C   0  0  0  0  0  0  0  0  0  0  0  0
   -1.4443    0.5076   -0.0572 C   0  0  0  0  0  0  0  0  0  0  0  0
   -2.2149    0.7529   -0.9793 O   0  0  0  0  0  0  0  0  0  0  0  0
   -1.1247    1.5139    0.8377 N   0  0  0  0  0  0  0  0  0  0  0  0
   -0.6222    1.2421    1.6786 H   0  0  0  0  0  0  0  0  0  0  0  0
   -1.7041    2.8502    0.7696 C   0  0  0  0  0  0  0  0  0  0  0  0
   -2.7923    2.8031    0.8840 H   0  0  0  0  0  0  0  0  0  0  0  0
   -1.2985    3.4793    1.5677 H   0  0  0  0  0  0  0  0  0  0  0  0
   -1.4706    3.3202   -0.1916 H   0  0  0  0  0  0  0  0  0  0  0  0
  1  2  1  0  0  0  0
  2  3  1  0  0  0  0
  2  4  1  0  0  0  0
  2  5  1  0  0  0  0
  5  6  2  0  0  0  0
  5  7  1  0  0  0  0
  7  8  1  0  0  0  0
  7  9  1  0  0  0  0
  9 10  1  0  0  0  0
  9 11  1  0  0  0  0
  9 29  1  0  0  0  0
 11 12  1  0  0  0  0
 11 13  1  0  0  0  0
 11 14  1  0  0  0  0
 14 15  2  0  0  0  0
 14 28  1  0  0  0  0
 15 16  1  0  0  0  0
 15 17  1  0  0  0  0
 17 18  1  0  0  0  0
 17 19  1  0  0  0  0
 19 20  1  0  0  0  0
 19 28  2  0  0  0  0
 20 21  1  0  0  0  0
 20 22  2  0  0  0  0
 22 23  1  0  0  0  0
 22 24  1  0  0  0  0
 24 25  1  0  0  0  0
 24 26  2  0  0  0  0
 26 27  1  0  0  0  0
 26 28  1  0  0  0  0
 29 30  2  0  0  0  0
 29 31  1  0  0  0  0
 31 32  1  0  0  0  0
 31 33  1  0  0  0  0
 33 34  1  0  0  0  0
 33 35  1  0  0  0  0
 33 36  1  0  0  0  0
M  END
$$$$

  -OEChem-03222214083D

 36 37  0     1  0  0  0  0  0999 V2000
   -3.6935   -4.5661    1.1564 H   0  0  0  0  0  0  0  0  0  0  0  0
   -3.6024   -3.7499    0.4342 C   0  0  0  0  0  0  0  0  0  0  0  0
   -4.4810   -3.1056    0.5176 H   0  0  0  0  0  0  0  0  0  0  0  0
   -3.5638   -4.1733   -0.5724 H   0  0  0  0  0  0  0  0  0  0  0  0
   -2.3440   -2.9483    0.7071 C   0  0  0  0  0  0  0  0  0  0  0  0
   -1.6204   -3.2421    1.6446 O   0  0  0  0  0  0  0  0  0  0  0  0
   -2.0292   -1.8750   -0.0976 N   0  0  0  0  0  0  0  0  0  0  0  0
   -2.7093   -1.6000   -0.8051 H   0  0  0  0  0  0  0  0  0  0  0  0
   -0.8888   -0.9706    0.1169 C   0  0  1  0  0  0  0  0  0  0  0  0
   -0.4733   -1.0771    1.1239 H   0  0  0  0  0  0  0  0  0  0  0  0
    0.1713   -1.3659   -0.9302 C   0  0  0  0  0  0  0  0  0  0  0  0
    0.4192   -2.4215   -0.7780 H   0  0  0  0  0  0  0  0  0  0  0  0
   -0.2764   -1.2741   -1.9257 H   0  0  0  0  0  0  0  0  0  0  0  0
    1.4716   -0.5898   -0.9373 C   0  0  0  0  0  0  0  0  0  0  0  0
    1.9103    0.4508   -0.1485 C   0  0  0  0  0  0  0  0  0  0  0  0
    1.3744    0.9038    0.6772 H   0  0  0  0  0  0  0  0  0  0  0  0
    3.1796    0.8204   -0.5869 N   0  0  0  0  0  0  0  0  0  0  0  0
    3.7473    1.5667   -0.1913 H   0  0  0  0  0  0  0  0  0  0  0  0
    3.5679    0.0330   -1.6561 C   0  0  0  0  0  0  0  0  0  0  0  0
    4.7275    0.0196   -2.4311 C   0  0  0  0  0  0  0  0  0  0  0  0
    5.5282    0.7221   -2.2295 H   0  0  0  0  0  0  0  0  0  0  0  0
    4.8420   -0.9116   -3.4730 C   0  0  0  0  0  0  0  0  0  0  0  0
    5.7381   -0.9328   -4.0861 H   0  0  0  0  0  0  0  0  0  0  0  0
    3.7991   -1.8158   -3.7257 C   0  0  0  0  0  0  0  0  0  0  0  0
    3.8892   -2.5364   -4.5328 H   0  0  0  0  0  0  0  0  0  0  0  0
    2.6382   -1.7915   -2.9396 C   0  0  0  0  0  0  0  0  0  0  0  0
    1.8285   -2.4874   -3.1321 H   0  0  0  0  0  0  0  0  0  0  0  0
    2.5319   -0.8583   -1.9028 C   0  0  0  0  0  0  0  0  0  0  0  0
   -1.3906    0.4776   -0.0712 C   0  0  0  0  0  0  0  0  0  0  0  0
   -2.1569    0.7401   -0.9924 O   0  0  0  0  0  0  0  0  0  0  0  0
   -1.0418    1.4787    0.8187 N   0  0  0  0  0  0  0  0  0  0  0  0
   -0.5698    1.1944    1.6720 H   0  0  0  0  0  0  0  0  0  0  0  0
   -1.5694    2.8351    0.7312 C   0  0  0  0  0  0  0  0  0  0  0  0
   -2.6582    2.8316    0.8485 H   0  0  0  0  0  0  0  0  0  0  0  0
   -1.1372    3.4606    1.5180 H   0  0  0  0  0  0  0  0  0  0  0  0
   -1.3203    3.2810   -0.2376 H   0  0  0  0  0  0  0  0  0  0  0  0
  1  2  1  0  0  0  0
  2  3  1  0  0  0  0
  2  4  1  0  0  0  0
  2  5  1  0  0  0  0
  5  6  2  0  0  0  0
  5  7  1  0  0  0  0
  7  8  1  0  0  0  0
  7  9  1  0  0  0  0
  9 10  1  0  0  0  0
  9 11  1  0  0  0  0
  9 29  1  0  0  0  0
 11 12  1  0  0  0  0
 11 13  1  0  0  0  0
 11 14  1  0  0  0  0
 14 15  2  0  0  0  0
 14 28  1  0  0  0  0
 15 16  1  0  0  0  0
 15 17  1  0  0  0  0
 17 18  1  0  0  0  0
 17 19  1  0  0  0  0
 19 20  1  0  0  0  0
 19 28  2  0  0  0  0
 20 21  1  0  0  0  0
 20 22  2  0  0  0  0
 22 23  1  0  0  0  0
 22 24  1  0  0  0  0
 24 25  1  0  0  0  0
 24 26  2  0  0  0  0
 26 27  1  0  0  0  0
 26 28  1  0  0  0  0
 29 30  2  0  0  0  0
 29 31  1  0  0  0  0
 31 32  1  0  0  0  0
 31 33  1  0  0  0  0
 33 34  1  0  0  0  0
 33 35  1  0  0  0  0
 33 36  1  0  0  0  0
M  END
$$$$

  -OEChem-03222214083D

 36 37  0     1  0  0  0  0  0999 V2000
   -3.7831   -4.5189    1.2453 H   0  0  0  0  0  0  0  0  0  0  0  0
   -3.6894   -3.7136    0.5114 C   0  0  0  0  0  0  0  0  0  0  0  0
   -4.5430   -3.0396    0.6167 H   0  0  0  0  0  0  0  0  0  0  0  0
   -3.6981   -4.1483   -0.4910 H   0  0  0  0  0  0  0  0  0  0  0  0
   -2.3963   -2.9523    0.7337 C   0  0  0  0  0  0  0  0  0  0  0  0
   -1.6547   -3.2605    1.6526 O   0  0  0  0  0  0  0  0  0  0  0  0
   -2.0699   -1.8985   -0.0923 N   0  0  0  0  0  0  0  0  0  0  0  0
   -2.7639   -1.6036   -0.7778 H   0  0  0  0  0  0  0  0  0  0  0  0
   -0.8967   -1.0286    0.0837 C   0  0  1  0  0  0  0  0  0  0  0  0
   -0.4669   -1.1416    1.0839 H   0  0  0  0  0  0  0  0  0  0  0  0
    0.1376   -1.4437   -0.9790 C   0  0  0  0  0  0  0  0  0  0  0  0
    0.3736   -2.5045   -0.8481 H   0  0  0  0  0  0  0  0  0  0  0  0
   -0.3227   -1.3280   -1.9660 H   0  0  0  0  0  0  0  0  0  0  0  0
    1.4382   -0.6703   -0.9750 C   0  0  0  0  0  0  0  0  0  0  0  0
    1.9661    0.1581   -0.0094 C   0  0  0  0  0  0  0  0  0  0  0  0
    1.5247    0.3728    0.9587 H   0  0  0  0  0  0  0  0  0  0  0  0
    3.1772    0.6559   -0.4846 N   0  0  0  0  0  0  0  0  0  0  0  0
    3.7941    1.2910    0.0176 H   0  0  0  0  0  0  0  0  0  0  0  0
    3.4369    0.1600   -1.7505 C   0  0  0  0  0  0  0  0  0  0  0  0
    4.5012    0.3640   -2.6290 C   0  0  0  0  0  0  0  0  0  0  0  0
    5.3213    1.0171   -2.3523 H   0  0  0  0  0  0  0  0  0  0  0  0
    4.4944   -0.2846   -3.8722 C   0  0  0  0  0  0  0  0  0  0  0  0
    5.3153   -0.1339   -4.5669 H   0  0  0  0  0  0  0  0  0  0  0  0
    3.4278   -1.1277   -4.2201 C   0  0  0  0  0  0  0  0  0  0  0  0
    3.4252   -1.6292   -5.1831 H   0  0  0  0  0  0  0  0  0  0  0  0
    2.3636   -1.3243   -3.3282 C   0  0  0  0  0  0  0  0  0  0  0  0
    1.5365   -1.9743   -3.5937 H   0  0  0  0  0  0  0  0  0  0  0  0
    2.3775   -0.6722   -2.0905 C   0  0  0  0  0  0  0  0  0  0  0  0
   -1.3439    0.4377   -0.1064 C   0  0  0  0  0  0  0  0  0  0  0  0
   -2.1398    0.7174   -0.9973 O   0  0  0  0  0  0  0  0  0  0  0  0
   -0.9330    1.4327    0.7634 N   0  0  0  0  0  0  0  0  0  0  0  0
   -0.4020    1.1508    1.5809 H   0  0  0  0  0  0  0  0  0  0  0  0
   -1.3886    2.8142    0.6635 C   0  0  0  0  0  0  0  0  0  0  0  0
   -2.4740    2.8704    0.7964 H   0  0  0  0  0  0  0  0  0  0  0  0
   -0.9125    3.4271    1.4348 H   0  0  0  0  0  0  0  0  0  0  0  0
   -1.1310    3.2322   -0.3155 H   0  0  0  0  0  0  0  0  0  0  0  0
  1  2  1  0  0  0  0
  2  3  1  0  0  0  0
  2  4  1  0  0  0  0
  2  5  1  0  0  0  0
  5  6  2  0  0  0  0
  5  7  1  0  0  0  0
  7  8  1  0  0  0  0
  7  9  1  0  0  0  0
  9 10  1  0  0  0  0
  9 11  1  0  0  0  0
  9 29  1  0  0  0  0
 11 12  1  0  0  0  0
 11 13  1  0  0  0  0
 11 14  1  0  0  0  0
 14 15  2  0  0  0  0
 14 28  1  0  0  0  0
 15 16  1  0  0  0  0
 15 17  1  0  0  0  0
 17 18  1  0  0  0  0
 17 19  1  0  0  0  0
 19 20  1  0  0  0  0
 19 28  2  0  0  0  0
 20 21  1  0  0  0  0
 20 22  2  0  0  0  0
 22 23  1  0  0  0  0
 22 24  1  0  0  0  0
 24 25  1  0  0  0  0
 24 26  2  0  0  0  0
 26 27  1  0  0  0  0
 26 28  1  0  0  0  0
 29 30  2  0  0  0  0
 29 31  1  0  0  0  0
 31 32  1  0  0  0  0
 31 33  1  0  0  0  0
 33 34  1  0  0  0  0
 33 35  1  0  0  0  0
 33 36  1  0  0  0  0
M  END
$$$$

  -OEChem-03222214083D

 36 37  0     1  0  0  0  0  0999 V2000
   -3.8157   -4.4934    1.3442 H   0  0  0  0  0  0  0  0  0  0  0  0
   -3.7349   -3.6949    0.6013 C   0  0  0  0  0  0  0  0  0  0  0  0
   -4.5693   -3.0025    0.7364 H   0  0  0  0  0  0  0  0  0  0  0  0
   -3.7933   -4.1358   -0.3969 H   0  0  0  0  0  0  0  0  0  0  0  0
   -2.4185   -2.9593    0.7662 C   0  0  0  0  0  0  0  0  0  0  0  0
   -1.6437   -3.2824    1.6524 O   0  0  0  0  0  0  0  0  0  0  0  0
   -2.1022   -1.9201   -0.0818 N   0  0  0  0  0  0  0  0  0  0  0  0
   -2.8217   -1.6060   -0.7316 H   0  0  0  0  0  0  0  0  0  0  0  0
   -0.9085   -1.0712    0.0472 C   0  0  1  0  0  0  0  0  0  0  0  0
   -0.4596   -1.1833    1.0386 H   0  0  0  0  0  0  0  0  0  0  0  0
    0.0966   -1.5055   -1.0324 C   0  0  0  0  0  0  0  0  0  0  0  0
    0.3319   -2.5669   -0.9047 H   0  0  0  0  0  0  0  0  0  0  0  0
   -0.3811   -1.3889   -2.0106 H   0  0  0  0  0  0  0  0  0  0  0  0
    1.3910   -0.7246   -1.0311 C   0  0  0  0  0  0  0  0  0  0  0  0
    2.0266   -0.1339    0.0381 C   0  0  0  0  0  0  0  0  0  0  0  0
    1.6990   -0.1720    1.0734 H   0  0  0  0  0  0  0  0  0  0  0  0
    3.1744    0.4927   -0.4401 N   0  0  0  0  0  0  0  0  0  0  0  0
    3.8544    0.9949    0.1269 H   0  0  0  0  0  0  0  0  0  0  0  0
    3.2867    0.3118   -1.8082 C   0  0  0  0  0  0  0  0  0  0  0  0
    4.2484    0.7381   -2.7244 C   0  0  0  0  0  0  0  0  0  0  0  0
    5.0980    1.3244   -2.3928 H   0  0  0  0  0  0  0  0  0  0  0  0
    4.1010    0.3988   -4.0767 C   0  0  0  0  0  0  0  0  0  0  0  0
    4.8411    0.7243   -4.8019 H   0  0  0  0  0  0  0  0  0  0  0  0
    2.9978   -0.3609   -4.4948 C   0  0  0  0  0  0  0  0  0  0  0  0
    2.8855   -0.6218   -5.5426 H   0  0  0  0  0  0  0  0  0  0  0  0
    2.0388   -0.7852   -3.5639 C   0  0  0  0  0  0  0  0  0  0  0  0
    1.1854   -1.3735   -3.8844 H   0  0  0  0  0  0  0  0  0  0  0  0
    2.1929   -0.4425   -2.2161 C   0  0  0  0  0  0  0  0  0  0  0  0
   -1.3207    0.4057   -0.1411 C   0  0  0  0  0  0  0  0  0  0  0  0
   -2.1624    0.6946   -0.9862 O   0  0  0  0  0  0  0  0  0  0  0  0
   -0.8528    1.3942    0.7064 N   0  0  0  0  0  0  0  0  0  0  0  0
   -0.1833    1.1273    1.4199 H   0  0  0  0  0  0  0  0  0  0  0  0
   -1.2350    2.7957    0.5879 C   0  0  0  0  0  0  0  0  0  0  0  0
   -2.3211    2.9070    0.6735 H   0  0  0  0  0  0  0  0  0  0  0  0
   -0.7650    3.3839    1.3819 H   0  0  0  0  0  0  0  0  0  0  0  0
   -0.9143    3.1990   -0.3784 H   0  0  0  0  0  0  0  0  0  0  0  0
  1  2  1  0  0  0  0
  2  3  1  0  0  0  0
  2  4  1  0  0  0  0
  2  5  1  0  0  0  0
  5  6  2  0  0  0  0
  5  7  1  0  0  0  0
  7  8  1  0  0  0  0
  7  9  1  0  0  0  0
  9 10  1  0  0  0  0
  9 11  1  0  0  0  0
  9 29  1  0  0  0  0
 11 12  1  0  0  0  0
 11 13  1  0  0  0  0
 11 14  1  0  0  0  0
 14 15  2  0  0  0  0
 14 28  1  0  0  0  0
 15 16  1  0  0  0  0
 15 17  1  0  0  0  0
 17 18  1  0  0  0  0
 17 19  1  0  0  0  0
 19 20  1  0  0  0  0
 19 28  2  0  0  0  0
 20 21  1  0  0  0  0
 20 22  2  0  0  0  0
 22 23  1  0  0  0  0
 22 24  1  0  0  0  0
 24 25  1  0  0  0  0
 24 26  2  0  0  0  0
 26 27  1  0  0  0  0
 26 28  1  0  0  0  0
 29 30  2  0  0  0  0
 29 31  1  0  0  0  0
 31 32  1  0  0  0  0
 31 33  1  0  0  0  0
 33 34  1  0  0  0  0
 33 35  1  0  0  0  0
 33 36  1  0  0  0  0
M  END
$$$$

  -OEChem-03222214083D

 36 37  0     1  0  0  0  0  0999 V2000
   -3.8674   -4.4122    1.5172 H   0  0  0  0  0  0  0  0  0  0  0  0
   -3.7945   -3.6359    0.7504 C   0  0  0  0  0  0  0  0  0  0  0  0
   -4.5771   -2.8938    0.9255 H   0  0  0  0  0  0  0  0  0  0  0  0
   -3.9480   -4.0936   -0.2299 H   0  0  0  0  0  0  0  0  0  0  0  0
   -2.4309   -2.9737    0.8063 C   0  0  0  0  0  0  0  0  0  0  0  0
   -1.6141   -3.3239    1.6435 O   0  0  0  0  0  0  0  0  0  0  0  0
   -2.1214   -1.9647   -0.0800 N   0  0  0  0  0  0  0  0  0  0  0  0
   -2.8715   -1.6184   -0.6769 H   0  0  0  0  0  0  0  0  0  0  0  0
   -0.9028   -1.1448   -0.0125 C   0  0  1  0  0  0  0  0  0  0  0  0
   -0.4363   -1.2413    0.9723 H   0  0  0  0  0  0  0  0  0  0  0  0
    0.0790   -1.6069   -1.0989 C   0  0  0  0  0  0  0  0  0  0  0  0
    0.3166   -2.6654   -0.9530 H   0  0  0  0  0  0  0  0  0  0  0  0
   -0.4045   -1.5088   -2.0757 H   0  0  0  0  0  0  0  0  0  0  0  0
    1.3633   -0.8114   -1.0907 C   0  0  0  0  0  0  0  0  0  0  0  0
    2.1073   -0.4704    0.0163 C   0  0  0  0  0  0  0  0  0  0  0  0
    1.8991   -0.7784    1.0386 H   0  0  0  0  0  0  0  0  0  0  0  0
    3.1765    0.3110   -0.4128 N   0  0  0  0  0  0  0  0  0  0  0  0
    3.9172    0.6782    0.1815 H   0  0  0  0  0  0  0  0  0  0  0  0
    3.1216    0.4871   -1.7856 C   0  0  0  0  0  0  0  0  0  0  0  0
    3.9522    1.1847   -2.6627 C   0  0  0  0  0  0  0  0  0  0  0  0
    4.8235    1.7109   -2.2891 H   0  0  0  0  0  0  0  0  0  0  0  0
    3.6441    1.1971   -4.0301 C   0  0  0  0  0  0  0  0  0  0  0  0
    4.2806    1.7368   -4.7247 H   0  0  0  0  0  0  0  0  0  0  0  0
    2.5129    0.5143   -4.5024 C   0  0  0  0  0  0  0  0  0  0  0  0
    2.2753    0.5273   -5.5619 H   0  0  0  0  0  0  0  0  0  0  0  0
    1.6865   -0.1854   -3.6111 C   0  0  0  0  0  0  0  0  0  0  0  0
    0.8104   -0.7126   -3.9743 H   0  0  0  0  0  0  0  0  0  0  0  0
    2.0020   -0.1960   -2.2480 C   0  0  0  0  0  0  0  0  0  0  0  0
   -1.2781    0.3386   -0.2236 C   0  0  0  0  0  0  0  0  0  0  0  0
   -2.1693    0.6265   -1.0175 O   0  0  0  0  0  0  0  0  0  0  0  0
   -0.7501    1.3295    0.5839 N   0  0  0  0  0  0  0  0  0  0  0  0
    0.0489    1.0791    1.1573 H   0  0  0  0  0  0  0  0  0  0  0  0
   -1.0654    2.7413    0.4088 C   0  0  0  0  0  0  0  0  0  0  0  0
   -2.1370    2.9150    0.5526 H   0  0  0  0  0  0  0  0  0  0  0  0
   -0.5177    3.3440    1.1394 H   0  0  0  0  0  0  0  0  0  0  0  0
   -0.7851    3.0747   -0.5960 H   0  0  0  0  0  0  0  0  0  0  0  0
  1  2  1  0  0  0  0
  2  3  1  0  0  0  0
  2  4  1  0  0  0  0
  2  5  1  0  0  0  0
  5  6  2  0  0  0  0
  5  7  1  0  0  0  0
  7  8  1  0  0  0  0
  7  9  1  0  0  0  0
  9 10  1  0  0  0  0
  9 11  1  0  0  0  0
  9 29  1  0  0  0  0
 11 12  1  0  0  0  0
 11 13  1  0  0  0  0
 11 14  1  0  0  0  0
 14 15  2  0  0  0  0
 14 28  1  0  0  0  0
 15 16  1  0  0  0  0
 15 17  1  0  0  0  0
 17 18  1  0  0  0  0
 17 19  1  0  0  0  0
 19 20  1  0  0  0  0
 19 28  2  0  0  0  0
 20 21  1  0  0  0  0
 20 22  2  0  0  0  0
 22 23  1  0  0  0  0
 22 24  1  0  0  0  0
 24 25  1  0  0  0  0
 24 26  2  0  0  0  0
 26 27  1  0  0  0  0
 26 28  1  0  0  0  0
 29 30  2  0  0  0  0
 29 31  1  0  0  0  0
 31 32  1  0  0  0  0
 31 33  1  0  0  0  0
 33 34  1  0  0  0  0
 33 35  1  0  0  0  0
 33 36  1  0  0  0  0
M  END
$$$$

  -OEChem-03222214083D

 36 37  0     1  0  0  0  0  0999 V2000
   -3.8518   -4.3894    1.5783 H   0  0  0  0  0  0  0  0  0  0  0  0
   -3.7911   -3.6172    0.8063 C   0  0  0  0  0  0  0  0  0  0  0  0
   -4.5659   -2.8698    0.9932 H   0  0  0  0  0  0  0  0  0  0  0  0
   -3.9668   -4.0791   -0.1682 H   0  0  0  0  0  0  0  0  0  0  0  0
   -2.4233   -2.9619    0.8299 C   0  0  0  0  0  0  0  0  0  0  0  0
   -1.5918   -3.3097    1.6536 O   0  0  0  0  0  0  0  0  0  0  0  0
   -2.1217   -1.9730   -0.0814 N   0  0  0  0  0  0  0  0  0  0  0  0
   -2.8802   -1.6296   -0.6692 H   0  0  0  0  0  0  0  0  0  0  0  0
   -0.8926   -1.1670   -0.0556 C   0  0  1  0  0  0  0  0  0  0  0  0
   -0.4081   -1.2494    0.9221 H   0  0  0  0  0  0  0  0  0  0  0  0
    0.0682   -1.6599   -1.1443 C   0  0  0  0  0  0  0  0  0  0  0  0
    0.3088   -2.7134   -0.9687 H   0  0  0  0  0  0  0  0  0  0  0  0
   -0.4160   -1.5903   -2.1233 H   0  0  0  0  0  0  0  0  0  0  0  0
    1.3429   -0.8541   -1.1412 C   0  0  0  0  0  0  0  0  0  0  0  0
    2.2202   -0.7448   -0.0876 C   0  0  0  0  0  0  0  0  0  0  0  0
    2.1425   -1.2801    0.8572 H   0  0  0  0  0  0  0  0  0  0  0  0
    3.2138    0.1582   -0.4568 N   0  0  0  0  0  0  0  0  0  0  0  0
    4.0224    0.4100    0.1086 H   0  0  0  0  0  0  0  0  0  0  0  0
    2.9701    0.6474   -1.7304 C   0  0  0  0  0  0  0  0  0  0  0  0
    3.6604    1.5687   -2.5178 C   0  0  0  0  0  0  0  0  0  0  0  0
    4.5694    2.0308   -2.1495 H   0  0  0  0  0  0  0  0  0  0  0  0
    3.1612    1.8914   -3.7876 C   0  0  0  0  0  0  0  0  0  0  0  0
    3.6869    2.6079   -4.4117 H   0  0  0  0  0  0  0  0  0  0  0  0
    1.9799    1.2929   -4.2523 C   0  0  0  0  0  0  0  0  0  0  0  0
    1.5913    1.5484   -5.2338 H   0  0  0  0  0  0  0  0  0  0  0  0
    1.2957    0.3664   -3.4527 C   0  0  0  0  0  0  0  0  0  0  0  0
    0.3787   -0.0925   -3.8077 H   0  0  0  0  0  0  0  0  0  0  0  0
    1.8053    0.0437   -2.1907 C   0  0  0  0  0  0  0  0  0  0  0  0
   -1.2415    0.3197   -0.2851 C   0  0  0  0  0  0  0  0  0  0  0  0
   -2.1387    0.6123   -1.0705 O   0  0  0  0  0  0  0  0  0  0  0  0
   -0.6738    1.3098    0.4956 N   0  0  0  0  0  0  0  0  0  0  0  0
    0.1550    1.0496    1.0218 H   0  0  0  0  0  0  0  0  0  0  0  0
   -0.9317    2.7268    0.2740 C   0  0  0  0  0  0  0  0  0  0  0  0
   -2.0012    2.9420    0.3690 H   0  0  0  0  0  0  0  0  0  0  0  0
   -0.3937    3.3283    1.0129 H   0  0  0  0  0  0  0  0  0  0  0  0
   -0.5986    3.0244   -0.7259 H   0  0  0  0  0  0  0  0  0  0  0  0
  1  2  1  0  0  0  0
  2  3  1  0  0  0  0
  2  4  1  0  0  0  0
  2  5  1  0  0  0  0
  5  6  2  0  0  0  0
  5  7  1  0  0  0  0
  7  8  1  0  0  0  0
  7  9  1  0  0  0  0
  9 10  1  0  0  0  0
  9 11  1  0  0  0  0
  9 29  1  0  0  0  0
 11 12  1  0  0  0  0
 11 13  1  0  0  0  0
 11 14  1  0  0  0  0
 14 15  2  0  0  0  0
 14 28  1  0  0  0  0
 15 16  1  0  0  0  0
 15 17  1  0  0  0  0
 17 18  1  0  0  0  0
 17 19  1  0  0  0  0
 19 20  1  0  0  0  0
 19 28  2  0  0  0  0
 20 21  1  0  0  0  0
 20 22  2  0  0  0  0
 22 23  1  0  0  0  0
 22 24  1  0  0  0  0
 24 25  1  0  0  0  0
 24 26  2  0  0  0  0
 26 27  1  0  0  0  0
 26 28  1  0  0  0  0
 29 30  2  0  0  0  0
 29 31  1  0  0  0  0
 31 32  1  0  0  0  0
 31 33  1  0  0  0  0
 33 34  1  0  0  0  0
 33 35  1  0  0  0  0
 33 36  1  0  0  0  0
M  END
$$$$

  -OEChem-03222214083D

 36 37  0     1  0  0  0  0  0999 V2000
   -3.8239   -4.3705    1.6226 H   0  0  0  0  0  0  0  0  0  0  0  0
   -3.7773   -3.6026    0.8452 C   0  0  0  0  0  0  0  0  0  0  0  0
   -4.5407   -2.8480    1.0490 H   0  0  0  0  0  0  0  0  0  0  0  0
   -3.9831   -4.0679   -0.1217 H   0  0  0  0  0  0  0  0  0  0  0  0
   -2.4040   -2.9586    0.8287 C   0  0  0  0  0  0  0  0  0  0  0  0
   -1.5530   -3.3120    1.6298 O   0  0  0  0  0  0  0  0  0  0  0  0
   -2.1193   -1.9740   -0.0928 N   0  0  0  0  0  0  0  0  0  0  0  0
   -2.8898   -1.6290   -0.6639 H   0  0  0  0  0  0  0  0  0  0  0  0
   -0.8891   -1.1692   -0.0920 C   0  0  1  0  0  0  0  0  0  0  0  0
   -0.3881   -1.2462    0.8782 H   0  0  0  0  0  0  0  0  0  0  0  0
    0.0598   -1.6670   -1.1882 C   0  0  0  0  0  0  0  0  0  0  0  0
    0.3063   -2.7170   -1.0008 H   0  0  0  0  0  0  0  0  0  0  0  0
   -0.4261   -1.6109   -2.1673 H   0  0  0  0  0  0  0  0  0  0  0  0
    1.3258   -0.8499   -1.1917 C   0  0  0  0  0  0  0  0  0  0  0  0
    2.3426   -0.9536   -0.2731 C   0  0  0  0  0  0  0  0  0  0  0  0
    2.3923   -1.6819    0.5346 H   0  0  0  0  0  0  0  0  0  0  0  0
    3.2775    0.0363   -0.5668 N   0  0  0  0  0  0  0  0  0  0  0  0
    4.1559    0.1826   -0.0726 H   0  0  0  0  0  0  0  0  0  0  0  0
    2.8569    0.7919   -1.6499 C   0  0  0  0  0  0  0  0  0  0  0  0
    3.4269    1.8893   -2.2953 C   0  0  0  0  0  0  0  0  0  0  0  0
    4.3811    2.2840   -1.9642 H   0  0  0  0  0  0  0  0  0  0  0  0
    2.7475    2.4768   -3.3721 C   0  0  0  0  0  0  0  0  0  0  0  0
    3.1781    3.3325   -3.8838 H   0  0  0  0  0  0  0  0  0  0  0  0
    1.5087    1.9638   -3.7868 C   0  0  0  0  0  0  0  0  0  0  0  0
    0.9794    2.4238   -4.6159 H   0  0  0  0  0  0  0  0  0  0  0  0
    0.9471    0.8583   -3.1324 C   0  0  0  0  0  0  0  0  0  0  0  0
   -0.0163    0.4657   -3.4430 H   0  0  0  0  0  0  0  0  0  0  0  0
    1.6368    0.2727   -2.0662 C   0  0  0  0  0  0  0  0  0  0  0  0
   -1.2388    0.3169   -0.3210 C   0  0  0  0  0  0  0  0  0  0  0  0
   -2.1344    0.6097   -1.1087 O   0  0  0  0  0  0  0  0  0  0  0  0
   -0.6541    1.3072    0.4466 N   0  0  0  0  0  0  0  0  0  0  0  0
    0.1846    1.0388    0.9537 H   0  0  0  0  0  0  0  0  0  0  0  0
   -0.8663    2.7239    0.1802 C   0  0  0  0  0  0  0  0  0  0  0  0
   -1.9296    2.9744    0.2550 H   0  0  0  0  0  0  0  0  0  0  0  0
   -0.3188    3.3304    0.9078 H   0  0  0  0  0  0  0  0  0  0  0  0
   -0.5114    2.9808   -0.8236 H   0  0  0  0  0  0  0  0  0  0  0  0
  1  2  1  0  0  0  0
  2  3  1  0  0  0  0
  2  4  1  0  0  0  0
  2  5  1  0  0  0  0
  5  6  2  0  0  0  0
  5  7  1  0  0  0  0
  7  8  1  0  0  0  0
  7  9  1  0  0  0  0
  9 10  1  0  0  0  0
  9 11  1  0  0  0  0
  9 29  1  0  0  0  0
 11 12  1  0  0  0  0
 11 13  1  0  0  0  0
 11 14  1  0  0  0  0
 14 15  2  0  0  0  0
 14 28  1  0  0  0  0
 15 16  1  0  0  0  0
 15 17  1  0  0  0  0
 17 18  1  0  0  0  0
 17 19  1  0  0  0  0
 19 20  1  0  0  0  0
 19 28  2  0  0  0  0
 20 21  1  0  0  0  0
 20 22  2  0  0  0  0
 22 23  1  0  0  0  0
 22 24  1  0  0  0  0
 24 25  1  0  0  0  0
 24 26  2  0  0  0  0
 26 27  1  0  0  0  0
 26 28  1  0  0  0  0
 29 30  2  0  0  0  0
 29 31  1  0  0  0  0
 31 32  1  0  0  0  0
 31 33  1  0  0  0  0
 33 34  1  0  0  0  0
 33 35  1  0  0  0  0
 33 36  1  0  0  0  0
M  END
$$$$

  -OEChem-03222214083D

 36 37  0     1  0  0  0  0  0999 V2000
   -3.7811   -4.4232    1.5579 H   0  0  0  0  0  0  0  0  0  0  0  0
   -3.7453   -3.6459    0.7895 C   0  0  0  0  0  0  0  0  0  0  0  0
   -4.5245   -2.9088    0.9977 H   0  0  0  0  0  0  0  0  0  0  0  0
   -3.9367   -4.1037   -0.1840 H   0  0  0  0  0  0  0  0  0  0  0  0
   -2.3850   -2.9746    0.7875 C   0  0  0  0  0  0  0  0  0  0  0  0
   -1.5192   -3.3439    1.5652 O   0  0  0  0  0  0  0  0  0  0  0  0
   -2.1295   -1.9471   -0.0948 N   0  0  0  0  0  0  0  0  0  0  0  0
   -2.9130   -1.5964   -0.6443 H   0  0  0  0  0  0  0  0  0  0  0  0
   -0.9178   -1.1143   -0.0715 C   0  0  1  0  0  0  0  0  0  0  0  0
   -0.4109   -1.2133    0.8937 H   0  0  0  0  0  0  0  0  0  0  0  0
    0.0394   -1.5768   -1.1779 C   0  0  0  0  0  0  0  0  0  0  0  0
    0.2973   -2.6268   -1.0067 H   0  0  0  0  0  0  0  0  0  0  0  0
   -0.4500   -1.5116   -2.1549 H   0  0  0  0  0  0  0  0  0  0  0  0
    1.2984   -0.7483   -1.1855 C   0  0  0  0  0  0  0  0  0  0  0  0
    2.4388   -1.0341   -0.4751 C   0  0  0  0  0  0  0  0  0  0  0  0
    2.5800   -1.8998    0.1694 H   0  0  0  0  0  0  0  0  0  0  0  0
    3.3599   -0.0210   -0.7312 N   0  0  0  0  0  0  0  0  0  0  0  0
    4.3059    0.0226   -0.3570 H   0  0  0  0  0  0  0  0  0  0  0  0
    2.8234    0.9098   -1.6069 C   0  0  0  0  0  0  0  0  0  0  0  0
    3.3484    2.0802   -2.1554 C   0  0  0  0  0  0  0  0  0  0  0  0
    4.3553    2.3974   -1.9073 H   0  0  0  0  0  0  0  0  0  0  0  0
    2.5583    2.8390   -3.0306 C   0  0  0  0  0  0  0  0  0  0  0  0
    2.9535    3.7522   -3.4657 H   0  0  0  0  0  0  0  0  0  0  0  0
    1.2572    2.4193   -3.3464 C   0  0  0  0  0  0  0  0  0  0  0  0
    0.6456    3.0075   -4.0237 H   0  0  0  0  0  0  0  0  0  0  0  0
    0.7404    1.2405   -2.7909 C   0  0  0  0  0  0  0  0  0  0  0  0
   -0.2684    0.9166   -3.0304 H   0  0  0  0  0  0  0  0  0  0  0  0
    1.5352    0.4899   -1.9180 C   0  0  0  0  0  0  0  0  0  0  0  0
   -1.3041    0.3698   -0.2375 C   0  0  0  0  0  0  0  0  0  0  0  0
   -2.2168    0.6733   -1.0012 O   0  0  0  0  0  0  0  0  0  0  0  0
   -0.7355    1.3411    0.5655 N   0  0  0  0  0  0  0  0  0  0  0  0
    0.1093    1.0732    1.0632 H   0  0  0  0  0  0  0  0  0  0  0  0
   -1.0035    2.7616    0.3836 C   0  0  0  0  0  0  0  0  0  0  0  0
   -2.0744    2.9670    0.4843 H   0  0  0  0  0  0  0  0  0  0  0  0
   -0.4695    3.3454    1.1393 H   0  0  0  0  0  0  0  0  0  0  0  0
   -0.6722    3.0894   -0.6073 H   0  0  0  0  0  0  0  0  0  0  0  0
  1  2  1  0  0  0  0
  2  3  1  0  0  0  0
  2  4  1  0  0  0  0
  2  5  1  0  0  0  0
  5  6  2  0  0  0  0
  5  7  1  0  0  0  0
  7  8  1  0  0  0  0
  7  9  1  0  0  0  0
  9 10  1  0  0  0  0
  9 11  1  0  0  0  0
  9 29  1  0  0  0  0
 11 12  1  0  0  0  0
 11 13  1  0  0  0  0
 11 14  1  0  0  0  0
 14 15  2  0  0  0  0
 14 28  1  0  0  0  0
 15 16  1  0  0  0  0
 15 17  1  0  0  0  0
 17 18  1  0  0  0  0
 17 19  1  0  0  0  0
 19 20  1  0  0  0  0
 19 28  2  0  0  0  0
 20 21  1  0  0  0  0
 20 22  2  0  0  0  0
 22 23  1  0  0  0  0
 22 24  1  0  0  0  0
 24 25  1  0  0  0  0
 24 26  2  0  0  0  0
 26 27  1  0  0  0  0
 26 28  1  0  0  0  0
 29 30  2  0  0  0  0
 29 31  1  0  0  0  0
 31 32  1  0  0  0  0
 31 33  1  0  0  0  0
 33 34  1  0  0  0  0
 33 35  1  0  0  0  0
 33 36  1  0  0  0  0
M  END
$$$$

  -OEChem-03222214083D

 36 37  0     1  0  0  0  0  0999 V2000
   -3.7482   -4.4906    1.4716 H   0  0  0  0  0  0  0  0  0  0  0  0
   -3.7220   -3.6956    0.7211 C   0  0  0  0  0  0  0  0  0  0  0  0
   -4.5140   -2.9761    0.9432 H   0  0  0  0  0  0  0  0  0  0  0  0
   -3.9029   -4.1335   -0.2635 H   0  0  0  0  0  0  0  0  0  0  0  0
   -2.3721   -3.0038    0.7393 C   0  0  0  0  0  0  0  0  0  0  0  0
   -1.4893   -3.4027    1.4822 O   0  0  0  0  0  0  0  0  0  0  0  0
   -2.1456   -1.9256   -0.0886 N   0  0  0  0  0  0  0  0  0  0  0  0
   -2.9438   -1.5599   -0.6063 H   0  0  0  0  0  0  0  0  0  0  0  0
   -0.9542   -1.0652   -0.0285 C   0  0  1  0  0  0  0  0  0  0  0  0
   -0.4506   -1.1943    0.9351 H   0  0  0  0  0  0  0  0  0  0  0  0
    0.0232   -1.4857   -1.1374 C   0  0  0  0  0  0  0  0  0  0  0  0
    0.2893   -2.5377   -0.9915 H   0  0  0  0  0  0  0  0  0  0  0  0
   -0.4653   -1.4014   -2.1134 H   0  0  0  0  0  0  0  0  0  0  0  0
    1.2778   -0.6473   -1.1399 C   0  0  0  0  0  0  0  0  0  0  0  0
    2.4987   -1.0780   -0.6795 C   0  0  0  0  0  0  0  0  0  0  0  0
    2.6945   -2.0478   -0.2259 H   0  0  0  0  0  0  0  0  0  0  0  0
    3.4182   -0.0539   -0.8892 N   0  0  0  0  0  0  0  0  0  0  0  0
    4.4079   -0.0948   -0.6538 H   0  0  0  0  0  0  0  0  0  0  0  0
    2.8130    1.0112   -1.5350 C   0  0  0  0  0  0  0  0  0  0  0  0
    3.3247    2.2293   -1.9832 C   0  0  0  0  0  0  0  0  0  0  0  0
    4.3679    2.4773   -1.8223 H   0  0  0  0  0  0  0  0  0  0  0  0
    2.4761    3.1218   -2.6522 C   0  0  0  0  0  0  0  0  0  0  0  0
    2.8604    4.0726   -3.0093 H   0  0  0  0  0  0  0  0  0  0  0  0
    1.1335    2.7818   -2.8727 C   0  0  0  0  0  0  0  0  0  0  0  0
    0.4787    3.4680   -3.4013 H   0  0  0  0  0  0  0  0  0  0  0  0
    0.6316    1.5544   -2.4184 C   0  0  0  0  0  0  0  0  0  0  0  0
   -0.4054    1.2909   -2.6022 H   0  0  0  0  0  0  0  0  0  0  0  0
    1.4772    0.6754   -1.7303 C   0  0  0  0  0  0  0  0  0  0  0  0
   -1.3781    0.4143   -0.1151 C   0  0  0  0  0  0  0  0  0  0  0  0
   -2.3157    0.7325   -0.8419 O   0  0  0  0  0  0  0  0  0  0  0  0
   -0.8274    1.3552    0.7354 N   0  0  0  0  0  0  0  0  0  0  0  0
    0.0276    1.0842    1.2138 H   0  0  0  0  0  0  0  0  0  0  0  0
   -1.1616    2.7721    0.6692 C   0  0  0  0  0  0  0  0  0  0  0  0
   -2.2396    2.9198    0.7928 H   0  0  0  0  0  0  0  0  0  0  0  0
   -0.6476    3.3174    1.4663 H   0  0  0  0  0  0  0  0  0  0  0  0
   -0.8554    3.1937   -0.2937 H   0  0  0  0  0  0  0  0  0  0  0  0
  1  2  1  0  0  0  0
  2  3  1  0  0  0  0
  2  4  1  0  0  0  0
  2  5  1  0  0  0  0
  5  6  2  0  0  0  0
  5  7  1  0  0  0  0
  7  8  1  0  0  0  0
  7  9  1  0  0  0  0
  9 10  1  0  0  0  0
  9 11  1  0  0  0  0
  9 29  1  0  0  0  0
 11 12  1  0  0  0  0
 11 13  1  0  0  0  0
 11 14  1  0  0  0  0
 14 15  2  0  0  0  0
 14 28  1  0  0  0  0
 15 16  1  0  0  0  0
 15 17  1  0  0  0  0
 17 18  1  0  0  0  0
 17 19  1  0  0  0  0
 19 20  1  0  0  0  0
 19 28  2  0  0  0  0
 20 21  1  0  0  0  0
 20 22  2  0  0  0  0
 22 23  1  0  0  0  0
 22 24  1  0  0  0  0
 24 25  1  0  0  0  0
 24 26  2  0  0  0  0
 26 27  1  0  0  0  0
 26 28  1  0  0  0  0
 29 30  2  0  0  0  0
 29 31  1  0  0  0  0
 31 32  1  0  0  0  0
 31 33  1  0  0  0  0
 33 34  1  0  0  0  0
 33 35  1  0  0  0  0
 33 36  1  0  0  0  0
M  END
$$$$

  -OEChem-03222214083D

 36 37  0     1  0  0  0  0  0999 V2000
   -3.7090   -4.5756    1.3678 H   0  0  0  0  0  0  0  0  0  0  0  0
   -3.6922   -3.7614    0.6378 C   0  0  0  0  0  0  0  0  0  0  0  0
   -4.5063   -3.0688    0.8650 H   0  0  0  0  0  0  0  0  0  0  0  0
   -3.8459   -4.1791   -0.3601 H   0  0  0  0  0  0  0  0  0  0  0  0
   -2.3617   -3.0351    0.6955 C   0  0  0  0  0  0  0  0  0  0  0  0
   -1.4715   -3.4463    1.4227 O   0  0  0  0  0  0  0  0  0  0  0  0
   -2.1598   -1.9133   -0.0792 N   0  0  0  0  0  0  0  0  0  0  0  0
   -2.9650   -1.5436   -0.5829 H   0  0  0  0  0  0  0  0  0  0  0  0
   -0.9927   -1.0246    0.0308 C   0  0  1  0  0  0  0  0  0  0  0  0
   -0.5029   -1.1774    0.9981 H   0  0  0  0  0  0  0  0  0  0  0  0
    0.0165   -1.4082   -1.0674 C   0  0  0  0  0  0  0  0  0  0  0  0
    0.2838   -2.4627   -0.9433 H   0  0  0  0  0  0  0  0  0  0  0  0
   -0.4661   -1.3057   -2.0447 H   0  0  0  0  0  0  0  0  0  0  0  0
    1.2751   -0.5697   -1.0698 C   0  0  0  0  0  0  0  0  0  0  0  0
    2.5254   -1.1128   -0.8884 C   0  0  0  0  0  0  0  0  0  0  0  0
    2.7290   -2.1535   -0.6441 H   0  0  0  0  0  0  0  0  0  0  0  0
    3.4651   -0.1004   -1.0455 N   0  0  0  0  0  0  0  0  0  0  0  0
    4.4735   -0.2146   -0.9646 H   0  0  0  0  0  0  0  0  0  0  0  0
    2.8413    1.0716   -1.4308 C   0  0  0  0  0  0  0  0  0  0  0  0
    3.3746    2.3171   -1.7612 C   0  0  0  0  0  0  0  0  0  0  0  0
    4.4426    2.4909   -1.6913 H   0  0  0  0  0  0  0  0  0  0  0  0
    2.5152    3.3317   -2.2003 C   0  0  0  0  0  0  0  0  0  0  0  0
    2.9141    4.3065   -2.4644 H   0  0  0  0  0  0  0  0  0  0  0  0
    1.1423    3.0789   -2.3238 C   0  0  0  0  0  0  0  0  0  0  0  0
    0.4773    3.8554   -2.6895 H   0  0  0  0  0  0  0  0  0  0  0  0
    0.6217    1.8212   -1.9893 C   0  0  0  0  0  0  0  0  0  0  0  0
   -0.4376    1.6336   -2.1240 H   0  0  0  0  0  0  0  0  0  0  0  0
    1.4733    0.8197   -1.5017 C   0  0  0  0  0  0  0  0  0  0  0  0
   -1.4628    0.4415    0.0100 C   0  0  0  0  0  0  0  0  0  0  0  0
   -2.4161    0.7621   -0.6949 O   0  0  0  0  0  0  0  0  0  0  0  0
   -0.9473    1.3572    0.9089 N   0  0  0  0  0  0  0  0  0  0  0  0
   -0.0931    1.0906    1.3916 H   0  0  0  0  0  0  0  0  0  0  0  0
   -1.3633    2.7532    0.9520 C   0  0  0  0  0  0  0  0  0  0  0  0
   -2.4423    2.8271    1.1235 H   0  0  0  0  0  0  0  0  0  0  0  0
   -0.8502    3.2743    1.7659 H   0  0  0  0  0  0  0  0  0  0  0  0
   -1.1201    3.2558    0.0104 H   0  0  0  0  0  0  0  0  0  0  0  0
  1  2  1  0  0  0  0
  2  3  1  0  0  0  0
  2  4  1  0  0  0  0
  2  5  1  0  0  0  0
  5  6  2  0  0  0  0
  5  7  1  0  0  0  0
  7  8  1  0  0  0  0
  7  9  1  0  0  0  0
  9 10  1  0  0  0  0
  9 11  1  0  0  0  0
  9 29  1  0  0  0  0
 11 12  1  0  0  0  0
 11 13  1  0  0  0  0
 11 14  1  0  0  0  0
 14 15  2  0  0  0  0
 14 28  1  0  0  0  0
 15 16  1  0  0  0  0
 15 17  1  0  0  0  0
 17 18  1  0  0  0  0
 17 19  1  0  0  0  0
 19 20  1  0  0  0  0
 19 28  2  0  0  0  0
 20 21  1  0  0  0  0
 20 22  2  0  0  0  0
 22 23  1  0  0  0  0
 22 24  1  0  0  0  0
 24 25  1  0  0  0  0
 24 26  2  0  0  0  0
 26 27  1  0  0  0  0
 26 28  1  0  0  0  0
 29 30  2  0  0  0  0
 29 31  1  0  0  0  0
 31 32  1  0  0  0  0
 31 33  1  0  0  0  0
 33 34  1  0  0  0  0
 33 35  1  0  0  0  0
 33 36  1  0  0  0  0
M  END
$$$$

  -OEChem-03222214083D

 36 37  0     1  0  0  0  0  0999 V2000
   -3.6532   -4.7059    1.1787 H   0  0  0  0  0  0  0  0  0  0  0  0
   -3.6563   -3.8388    0.5122 C   0  0  0  0  0  0  0  0  0  0  0  0
   -4.5038   -3.1995    0.7708 H   0  0  0  0  0  0  0  0  0  0  0  0
   -3.7706   -4.1857   -0.5175 H   0  0  0  0  0  0  0  0  0  0  0  0
   -2.3596   -3.0648    0.6549 C   0  0  0  0  0  0  0  0  0  0  0  0
   -1.4868   -3.4671    1.4073 O   0  0  0  0  0  0  0  0  0  0  0  0
   -2.1682   -1.9100   -0.0727 N   0  0  0  0  0  0  0  0  0  0  0  0
   -2.9640   -1.5534   -0.6003 H   0  0  0  0  0  0  0  0  0  0  0  0
   -1.0327   -0.9904    0.1032 C   0  0  1  0  0  0  0  0  0  0  0  0
   -0.5719   -1.1562    1.0823 H   0  0  0  0  0  0  0  0  0  0  0  0
    0.0225   -1.3482   -0.9639 C   0  0  0  0  0  0  0  0  0  0  0  0
    0.2855   -2.4046   -0.8452 H   0  0  0  0  0  0  0  0  0  0  0  0
   -0.4437   -1.2389   -1.9484 H   0  0  0  0  0  0  0  0  0  0  0  0
    1.2936   -0.5205   -0.9702 C   0  0  0  0  0  0  0  0  0  0  0  0
    2.5195   -1.1376   -1.0764 C   0  0  0  0  0  0  0  0  0  0  0  0
    2.6835   -2.2129   -1.0465 H   0  0  0  0  0  0  0  0  0  0  0  0
    3.5007   -0.1612   -1.1812 N   0  0  0  0  0  0  0  0  0  0  0  0
    4.5011   -0.3347   -1.2551 H   0  0  0  0  0  0  0  0  0  0  0  0
    2.9140    1.0827   -1.2924 C   0  0  0  0  0  0  0  0  0  0  0  0
    3.5031    2.3288   -1.5043 C   0  0  0  0  0  0  0  0  0  0  0  0
    4.5826    2.4264   -1.5383 H   0  0  0  0  0  0  0  0  0  0  0  0
    2.6819    3.4445   -1.6984 C   0  0  0  0  0  0  0  0  0  0  0  0
    3.1217    4.4228   -1.8687 H   0  0  0  0  0  0  0  0  0  0  0  0
    1.2906    3.2881   -1.7106 C   0  0  0  0  0  0  0  0  0  0  0  0
    0.6505    4.1440   -1.9021 H   0  0  0  0  0  0  0  0  0  0  0  0
    0.7176    2.0264   -1.4976 C   0  0  0  0  0  0  0  0  0  0  0  0
   -0.3577    1.9307   -1.5734 H   0  0  0  0  0  0  0  0  0  0  0  0
    1.5307    0.9136   -1.2291 C   0  0  0  0  0  0  0  0  0  0  0  0
   -1.5552    0.4554    0.1178 C   0  0  0  0  0  0  0  0  0  0  0  0
   -2.4956    0.7716   -0.6054 O   0  0  0  0  0  0  0  0  0  0  0  0
   -1.0989    1.3541    1.0650 N   0  0  0  0  0  0  0  0  0  0  0  0
   -0.2732    1.0875    1.5951 H   0  0  0  0  0  0  0  0  0  0  0  0
   -1.6122    2.7113    1.2021 C   0  0  0  0  0  0  0  0  0  0  0  0
   -2.6745    2.6933    1.4668 H   0  0  0  0  0  0  0  0  0  0  0  0
   -1.0691    3.2414    1.9903 H   0  0  0  0  0  0  0  0  0  0  0  0
   -1.4914    3.2672    0.2667 H   0  0  0  0  0  0  0  0  0  0  0  0
  1  2  1  0  0  0  0
  2  3  1  0  0  0  0
  2  4  1  0  0  0  0
  2  5  1  0  0  0  0
  5  6  2  0  0  0  0
  5  7  1  0  0  0  0
  7  8  1  0  0  0  0
  7  9  1  0  0  0  0
  9 10  1  0  0  0  0
  9 11  1  0  0  0  0
  9 29  1  0  0  0  0
 11 12  1  0  0  0  0
 11 13  1  0  0  0  0
 11 14  1  0  0  0  0
 14 15  2  0  0  0  0
 14 28  1  0  0  0  0
 15 16  1  0  0  0  0
 15 17  1  0  0  0  0
 17 18  1  0  0  0  0
 17 19  1  0  0  0  0
 19 20  1  0  0  0  0
 19 28  2  0  0  0  0
 20 21  1  0  0  0  0
 20 22  2  0  0  0  0
 22 23  1  0  0  0  0
 22 24  1  0  0  0  0
 24 25  1  0  0  0  0
 24 26  2  0  0  0  0
 26 27  1  0  0  0  0
 26 28  1  0  0  0  0
 29 30  2  0  0  0  0
 29 31  1  0  0  0  0
 31 32  1  0  0  0  0
 31 33  1  0  0  0  0
 33 34  1  0  0  0  0
 33 35  1  0  0  0  0
 33 36  1  0  0  0  0
M  END
$$$$

  -OEChem-03222214083D

 36 37  0     1  0  0  0  0  0999 V2000
   -3.5825   -4.8035    1.0586 H   0  0  0  0  0  0  0  0  0  0  0  0
   -3.5957   -3.9141    0.4225 C   0  0  0  0  0  0  0  0  0  0  0  0
   -4.4737   -3.3141    0.6741 H   0  0  0  0  0  0  0  0  0  0  0  0
   -3.6646   -4.2283   -0.6217 H   0  0  0  0  0  0  0  0  0  0  0  0
   -2.3333   -3.1006    0.6354 C   0  0  0  0  0  0  0  0  0  0  0  0
   -1.4746   -3.4941    1.4081 O   0  0  0  0  0  0  0  0  0  0  0  0
   -2.1584   -1.9173   -0.0494 N   0  0  0  0  0  0  0  0  0  0  0  0
   -2.9461   -1.5742   -0.5979 H   0  0  0  0  0  0  0  0  0  0  0  0
   -1.0586   -0.9670    0.1862 C   0  0  1  0  0  0  0  0  0  0  0  0
   -0.6159   -1.1447    1.1717 H   0  0  0  0  0  0  0  0  0  0  0  0
    0.0225   -1.3014   -0.8677 C   0  0  0  0  0  0  0  0  0  0  0  0
    0.2800   -2.3599   -0.7536 H   0  0  0  0  0  0  0  0  0  0  0  0
   -0.4445   -1.1883   -1.8516 H   0  0  0  0  0  0  0  0  0  0  0  0
    1.3148   -0.5002   -0.9119 C   0  0  0  0  0  0  0  0  0  0  0  0
    2.4559   -1.1425   -1.3408 C   0  0  0  0  0  0  0  0  0  0  0  0
    2.5340   -2.2096   -1.5391 H   0  0  0  0  0  0  0  0  0  0  0  0
    3.4926   -0.2246   -1.4094 N   0  0  0  0  0  0  0  0  0  0  0  0
    4.4537   -0.4356   -1.6703 H   0  0  0  0  0  0  0  0  0  0  0  0
    3.0017    1.0448   -1.1965 C   0  0  0  0  0  0  0  0  0  0  0  0
    3.6701    2.2662   -1.2748 C   0  0  0  0  0  0  0  0  0  0  0  0
    4.7402    2.2962   -1.4468 H   0  0  0  0  0  0  0  0  0  0  0  0
    2.9354    3.4495   -1.1616 C   0  0  0  0  0  0  0  0  0  0  0  0
    3.4343    4.4119   -1.2254 H   0  0  0  0  0  0  0  0  0  0  0  0
    1.5454    3.3867   -1.0169 C   0  0  0  0  0  0  0  0  0  0  0  0
    0.9626    4.3024   -0.9852 H   0  0  0  0  0  0  0  0  0  0  0  0
    0.8961    2.1462   -0.9434 C   0  0  0  0  0  0  0  0  0  0  0  0
   -0.1828    2.1474   -0.9226 H   0  0  0  0  0  0  0  0  0  0  0  0
    1.6285    0.9476   -0.9606 C   0  0  0  0  0  0  0  0  0  0  0  0
   -1.6394    0.4543    0.2288 C   0  0  0  0  0  0  0  0  0  0  0  0
   -2.5515    0.7702   -0.5290 O   0  0  0  0  0  0  0  0  0  0  0  0
   -1.2436    1.3356    1.2199 N   0  0  0  0  0  0  0  0  0  0  0  0
   -0.4724    1.0495    1.8181 H   0  0  0  0  0  0  0  0  0  0  0  0
   -1.8495    2.6452    1.4279 C   0  0  0  0  0  0  0  0  0  0  0  0
   -2.8915    2.5369    1.7464 H   0  0  0  0  0  0  0  0  0  0  0  0
   -1.3045    3.1927    2.2028 H   0  0  0  0  0  0  0  0  0  0  0  0
   -1.8226    3.2363    0.5065 H   0  0  0  0  0  0  0  0  0  0  0  0
  1  2  1  0  0  0  0
  2  3  1  0  0  0  0
  2  4  1  0  0  0  0
  2  5  1  0  0  0  0
  5  6  2  0  0  0  0
  5  7  1  0  0  0  0
  7  8  1  0  0  0  0
  7  9  1  0  0  0  0
  9 10  1  0  0  0  0
  9 11  1  0  0  0  0
  9 29  1  0  0  0  0
 11 12  1  0  0  0  0
 11 13  1  0  0  0  0
 11 14  1  0  0  0  0
 14 15  2  0  0  0  0
 14 28  1  0  0  0  0
 15 16  1  0  0  0  0
 15 17  1  0  0  0  0
 17 18  1  0  0  0  0
 17 19  1  0  0  0  0
 19 20  1  0  0  0  0
 19 28  2  0  0  0  0
 20 21  1  0  0  0  0
 20 22  2  0  0  0  0
 22 23  1  0  0  0  0
 22 24  1  0  0  0  0
 24 25  1  0  0  0  0
 24 26  2  0  0  0  0
 26 27  1  0  0  0  0
 26 28  1  0  0  0  0
 29 30  2  0  0  0  0
 29 31  1  0  0  0  0
 31 32  1  0  0  0  0
 31 33  1  0  0  0  0
 33 34  1  0  0  0  0
 33 35  1  0  0  0  0
 33 36  1  0  0  0  0
M  END
$$$$

  -OEChem-03222214083D

 36 37  0     1  0  0  0  0  0999 V2000
   -3.2946   -4.7541    1.4493 H   0  0  0  0  0  0  0  0  0  0  0  0
   -3.3694   -3.9419    0.7208 C   0  0  0  0  0  0  0  0  0  0  0  0
   -4.2921   -3.3863    0.9058 H   0  0  0  0  0  0  0  0  0  0  0  0
   -3.4054   -4.3712   -0.2834 H   0  0  0  0  0  0  0  0  0  0  0  0
   -2.1734   -3.0172    0.8454 C   0  0  0  0  0  0  0  0  0  0  0  0
   -1.3171   -3.2332    1.6872 O   0  0  0  0  0  0  0  0  0  0  0  0
   -2.0641   -1.9222    0.0168 N   0  0  0  0  0  0  0  0  0  0  0  0
   -2.8578   -1.7045   -0.5860 H   0  0  0  0  0  0  0  0  0  0  0  0
   -1.0264   -0.8842    0.1397 C   0  0  1  0  0  0  0  0  0  0  0  0
   -0.4823   -0.9155    1.0889 H   0  0  0  0  0  0  0  0  0  0  0  0
   -0.0949   -1.1333   -1.0662 C   0  0  0  0  0  0  0  0  0  0  0  0
    0.2541   -2.1689   -0.9870 H   0  0  0  0  0  0  0  0  0  0  0  0
   -0.7047   -1.0703   -1.9742 H   0  0  0  0  0  0  0  0  0  0  0  0
    1.1354   -0.2744   -1.3127 C   0  0  0  0  0  0  0  0  0  0  0  0
    2.0649   -0.7434   -2.2150 C   0  0  0  0  0  0  0  0  0  0  0  0
    1.9379   -1.6273   -2.8366 H   0  0  0  0  0  0  0  0  0  0  0  0
    3.1469    0.1236   -2.2411 N   0  0  0  0  0  0  0  0  0  0  0  0
    3.9643    0.0328   -2.8405 H   0  0  0  0  0  0  0  0  0  0  0  0
    3.0020    1.0757   -1.2556 C   0  0  0  0  0  0  0  0  0  0  0  0
    3.8841    2.0838   -0.8682 C   0  0  0  0  0  0  0  0  0  0  0  0
    4.8043    2.2482   -1.4176 H   0  0  0  0  0  0  0  0  0  0  0  0
    3.5772    2.8597    0.2536 C   0  0  0  0  0  0  0  0  0  0  0  0
    4.2523    3.6480    0.5737 H   0  0  0  0  0  0  0  0  0  0  0  0
    2.4171    2.5854    0.9866 C   0  0  0  0  0  0  0  0  0  0  0  0
    2.2002    3.1536    1.8861 H   0  0  0  0  0  0  0  0  0  0  0  0
    1.5478    1.5643    0.5769 C   0  0  0  0  0  0  0  0  0  0  0  0
    0.7116    1.3216    1.2065 H   0  0  0  0  0  0  0  0  0  0  0  0
    1.7972    0.8344   -0.5923 C   0  0  0  0  0  0  0  0  0  0  0  0
   -1.8210    0.4425   -0.0168 C   0  0  0  0  0  0  0  0  0  0  0  0
   -2.6962    0.5171   -0.8770 O   0  0  0  0  0  0  0  0  0  0  0  0
   -1.6400    1.5381    0.8062 N   0  0  0  0  0  0  0  0  0  0  0  0
   -1.0158    1.4278    1.5981 H   0  0  0  0  0  0  0  0  0  0  0  0
   -2.4039    2.7742    0.6869 C   0  0  0  0  0  0  0  0  0  0  0  0
   -3.4624    2.5934    0.9014 H   0  0  0  0  0  0  0  0  0  0  0  0
   -2.0281    3.5192    1.3948 H   0  0  0  0  0  0  0  0  0  0  0  0
   -2.3128    3.1854   -0.3242 H   0  0  0  0  0  0  0  0  0  0  0  0
  1  2  1  0  0  0  0
  2  3  1  0  0  0  0
  2  4  1  0  0  0  0
  2  5  1  0  0  0  0
  5  6  2  0  0  0  0
  5  7  1  0  0  0  0
  7  8  1  0  0  0  0
  7  9  1  0  0  0  0
  9 10  1  0  0  0  0
  9 11  1  0  0  0  0
  9 29  1  0  0  0  0
 11 12  1  0  0  0  0
 11 13  1  0  0  0  0
 11 14  1  0  0  0  0
 14 15  2  0  0  0  0
 14 28  1  0  0  0  0
 15 16  1  0  0  0  0
 15 17  1  0  0  0  0
 17 18  1  0  0  0  0
 17 19  1  0  0  0  0
 19 20  1  0  0  0  0
 19 28  2  0  0  0  0
 20 21  1  0  0  0  0
 20 22  2  0  0  0  0
 22 23  1  0  0  0  0
 22 24  1  0  0  0  0
 24 25  1  0  0  0  0
 24 26  2  0  0  0  0
 26 27  1  0  0  0  0
 26 28  1  0  0  0  0
 29 30  2  0  0  0  0
 29 31  1  0  0  0  0
 31 32  1  0  0  0  0
 31 33  1  0  0  0  0
 33 34  1  0  0  0  0
 33 35  1  0  0  0  0
 33 36  1  0  0  0  0
M  END
$$$$

  -OEChem-03222214083D

 36 37  0     1  0  0  0  0  0999 V2000
   -3.8205   -4.2469    1.5166 H   0  0  0  0  0  0  0  0  0  0  0  0
   -3.6421   -3.6570    0.6131 C   0  0  0  0  0  0  0  0  0  0  0  0
   -4.5500   -3.0987    0.3726 H   0  0  0  0  0  0  0  0  0  0  0  0
   -3.4105   -4.3361   -0.2109 H   0  0  0  0  0  0  0  0  0  0  0  0
   -2.4859   -2.6999    0.8336 C   0  0  0  0  0  0  0  0  0  0  0  0
   -1.8586   -2.7317    1.8793 O   0  0  0  0  0  0  0  0  0  0  0  0
   -2.1578   -1.7865   -0.1453 N   0  0  0  0  0  0  0  0  0  0  0  0
   -2.7578   -1.7379   -0.9666 H   0  0  0  0  0  0  0  0  0  0  0  0
   -1.0798   -0.7888   -0.0402 C   0  0  1  0  0  0  0  0  0  0  0  0
   -0.7135   -0.7064    0.9838 H   0  0  0  0  0  0  0  0  0  0  0  0
    0.0361   -1.2936   -0.9813 C   0  0  0  0  0  0  0  0  0  0  0  0
    0.1513   -2.3674   -0.7991 H   0  0  0  0  0  0  0  0  0  0  0  0
   -0.2988   -1.1821   -2.0183 H   0  0  0  0  0  0  0  0  0  0  0  0
    1.4293   -0.7045   -0.8697 C   0  0  0  0  0  0  0  0  0  0  0  0
    2.4114   -1.1598   -1.7193 C   0  0  0  0  0  0  0  0  0  0  0  0
    2.2607   -1.8828   -2.5180 H   0  0  0  0  0  0  0  0  0  0  0  0
    3.6032   -0.5236   -1.4011 N   0  0  0  0  0  0  0  0  0  0  0  0
    4.4923   -0.6607   -1.8769 H   0  0  0  0  0  0  0  0  0  0  0  0
    3.4221    0.2903   -0.3009 C   0  0  0  0  0  0  0  0  0  0  0  0
    4.3459    1.0774    0.3861 C   0  0  0  0  0  0  0  0  0  0  0  0
    5.3736    1.1383    0.0461 H   0  0  0  0  0  0  0  0  0  0  0  0
    3.9312    1.7741    1.5262 C   0  0  0  0  0  0  0  0  0  0  0  0
    4.6375    2.3894    2.0756 H   0  0  0  0  0  0  0  0  0  0  0  0
    2.6077    1.6562    1.9688 C   0  0  0  0  0  0  0  0  0  0  0  0
    2.2893    2.1748    2.8680 H   0  0  0  0  0  0  0  0  0  0  0  0
    1.6949    0.8597    1.2627 C   0  0  0  0  0  0  0  0  0  0  0  0
    0.6935    0.7524    1.6447 H   0  0  0  0  0  0  0  0  0  0  0  0
    2.0885    0.1904    0.0975 C   0  0  0  0  0  0  0  0  0  0  0  0
   -1.6376    0.5649   -0.5491 C   0  0  0  0  0  0  0  0  0  0  0  0
   -2.2037    0.6189   -1.6335 O   0  0  0  0  0  0  0  0  0  0  0  0
   -1.4847    1.7999    0.0407 N   0  0  0  0  0  0  0  0  0  0  0  0
   -1.8538    2.5436   -0.5470 H   0  0  0  0  0  0  0  0  0  0  0  0
   -1.5687    2.0112    1.4809 C   0  0  0  0  0  0  0  0  0  0  0  0
   -2.4971    2.5379    1.7236 H   0  0  0  0  0  0  0  0  0  0  0  0
   -1.5667    1.0679    2.0355 H   0  0  0  0  0  0  0  0  0  0  0  0
   -0.7258    2.6200    1.8229 H   0  0  0  0  0  0  0  0  0  0  0  0
  1  2  1  0  0  0  0
  2  3  1  0  0  0  0
  2  4  1  0  0  0  0
  2  5  1  0  0  0  0
  5  6  2  0  0  0  0
  5  7  1  0  0  0  0
  7  8  1  0  0  0  0
  7  9  1  0  0  0  0
  9 10  1  0  0  0  0
  9 11  1  0  0  0  0
  9 29  1  0  0  0  0
 11 12  1  0  0  0  0
 11 13  1  0  0  0  0
 11 14  1  0  0  0  0
 14 15  2  0  0  0  0
 14 28  1  0  0  0  0
 15 16  1  0  0  0  0
 15 17  1  0  0  0  0
 17 18  1  0  0  0  0
 17 19  1  0  0  0  0
 19 20  1  0  0  0  0
 19 28  2  0  0  0  0
 20 21  1  0  0  0  0
 20 22  2  0  0  0  0
 22 23  1  0  0  0  0
 22 24  1  0  0  0  0
 24 25  1  0  0  0  0
 24 26  2  0  0  0  0
 26 27  1  0  0  0  0
 26 28  1  0  0  0  0
 29 30  2  0  0  0  0
 29 31  1  0  0  0  0
 31 32  1  0  0  0  0
 31 33  1  0  0  0  0
 33 34  1  0  0  0  0
 33 35  1  0  0  0  0
 33 36  1  0  0  0  0
M  END
$$$$

  -OEChem-03222214083D

 36 37  0     1  0  0  0  0  0999 V2000
   -3.7754   -4.5613    1.4057 H   0  0  0  0  0  0  0  0  0  0  0  0
   -3.7375   -3.7722    0.6496 C   0  0  0  0  0  0  0  0  0  0  0  0
   -4.5903   -3.1046    0.7944 H   0  0  0  0  0  0  0  0  0  0  0  0
   -3.8050   -4.2298   -0.3402 H   0  0  0  0  0  0  0  0  0  0  0  0
   -2.4421   -2.9924    0.7726 C   0  0  0  0  0  0  0  0  0  0  0  0
   -1.6366   -3.2830    1.6420 O   0  0  0  0  0  0  0  0  0  0  0  0
   -2.1864   -1.9522   -0.0957 N   0  0  0  0  0  0  0  0  0  0  0  0
   -2.9398   -1.6744   -0.7227 H   0  0  0  0  0  0  0  0  0  0  0  0
   -1.0457   -1.0280    0.0096 C   0  0  1  0  0  0  0  0  0  0  0  0
   -0.6358   -1.1196    1.0120 H   0  0  0  0  0  0  0  0  0  0  0  0
    0.0288   -1.3958   -1.0173 C   0  0  0  0  0  0  0  0  0  0  0  0
    0.1672   -2.4814   -0.9811 H   0  0  0  0  0  0  0  0  0  0  0  0
   -0.3311   -1.1467   -2.0213 H   0  0  0  0  0  0  0  0  0  0  0  0
    1.3923   -0.7658   -0.7963 C   0  0  0  0  0  0  0  0  0  0  0  0
    2.3131   -0.7789   -1.8174 C   0  0  0  0  0  0  0  0  0  0  0  0
    2.1429   -1.1898   -2.8102 H   0  0  0  0  0  0  0  0  0  0  0  0
    3.4690   -0.1546   -1.3720 N   0  0  0  0  0  0  0  0  0  0  0  0
    4.3138   -0.0137   -1.9223 H   0  0  0  0  0  0  0  0  0  0  0  0
    3.3274    0.2150   -0.0495 C   0  0  0  0  0  0  0  0  0  0  0  0
    4.2482    0.8393    0.7906 C   0  0  0  0  0  0  0  0  0  0  0  0
    5.2238    1.1286    0.4159 H   0  0  0  0  0  0  0  0  0  0  0  0
    3.9012    1.0763    2.1236 C   0  0  0  0  0  0  0  0  0  0  0  0
    4.6072    1.5588    2.7932 H   0  0  0  0  0  0  0  0  0  0  0  0
    2.6491    0.6683    2.5973 C   0  0  0  0  0  0  0  0  0  0  0  0
    2.3899    0.8272    3.6400 H   0  0  0  0  0  0  0  0  0  0  0  0
    1.7349    0.0399    1.7398 C   0  0  0  0  0  0  0  0  0  0  0  0
    0.7987   -0.2893    2.1694 H   0  0  0  0  0  0  0  0  0  0  0  0
    2.0570   -0.1701    0.3849 C   0  0  0  0  0  0  0  0  0  0  0  0
   -1.4934    0.4323   -0.2018 C   0  0  0  0  0  0  0  0  0  0  0  0
   -2.3672    0.6743   -1.0290 O   0  0  0  0  0  0  0  0  0  0  0  0
   -1.0479    1.4451    0.6275 N   0  0  0  0  0  0  0  0  0  0  0  0
   -0.2158    1.2442    1.1767 H   0  0  0  0  0  0  0  0  0  0  0  0
   -1.4261    2.8399    0.4395 C   0  0  0  0  0  0  0  0  0  0  0  0
   -2.5143    2.9532    0.4873 H   0  0  0  0  0  0  0  0  0  0  0  0
   -0.9818    3.4602    1.2239 H   0  0  0  0  0  0  0  0  0  0  0  0
   -1.0756    3.2039   -0.5319 H   0  0  0  0  0  0  0  0  0  0  0  0
  1  2  1  0  0  0  0
  2  3  1  0  0  0  0
  2  4  1  0  0  0  0
  2  5  1  0  0  0  0
  5  6  2  0  0  0  0
  5  7  1  0  0  0  0
  7  8  1  0  0  0  0
  7  9  1  0  0  0  0
  9 10  1  0  0  0  0
  9 11  1  0  0  0  0
  9 29  1  0  0  0  0
 11 12  1  0  0  0  0
 11 13  1  0  0  0  0
 11 14  1  0  0  0  0
 14 15  2  0  0  0  0
 14 28  1  0  0  0  0
 15 16  1  0  0  0  0
 15 17  1  0  0  0  0
 17 18  1  0  0  0  0
 17 19  1  0  0  0  0
 19 20  1  0  0  0  0
 19 28  2  0  0  0  0
 20 21  1  0  0  0  0
 20 22  2  0  0  0  0
 22 23  1  0  0  0  0
 22 24  1  0  0  0  0
 24 25  1  0  0  0  0
 24 26  2  0  0  0  0
 26 27  1  0  0  0  0
 26 28  1  0  0  0  0
 29 30  2  0  0  0  0
 29 31  1  0  0  0  0
 31 32  1  0  0  0  0
 31 33  1  0  0  0  0
 33 34  1  0  0  0  0
 33 35  1  0  0  0  0
 33 36  1  0  0  0  0
M  END
$$$$

  -OEChem-03222214083D

 36 37  0     1  0  0  0  0  0999 V2000
   -3.7663   -4.5401    1.4580 H   0  0  0  0  0  0  0  0  0  0  0  0
   -3.7410   -3.7542    0.6977 C   0  0  0  0  0  0  0  0  0  0  0  0
   -4.5839   -3.0785    0.8613 H   0  0  0  0  0  0  0  0  0  0  0  0
   -3.8375   -4.2152   -0.2882 H   0  0  0  0  0  0  0  0  0  0  0  0
   -2.4364   -2.9850    0.7847 C   0  0  0  0  0  0  0  0  0  0  0  0
   -1.6099   -3.2817    1.6326 O   0  0  0  0  0  0  0  0  0  0  0  0
   -2.1945   -1.9476   -0.0911 N   0  0  0  0  0  0  0  0  0  0  0  0
   -2.9599   -1.6640   -0.7004 H   0  0  0  0  0  0  0  0  0  0  0  0
   -1.0385   -1.0407   -0.0152 C   0  0  1  0  0  0  0  0  0  0  0  0
   -0.6253   -1.1231    0.9850 H   0  0  0  0  0  0  0  0  0  0  0  0
    0.0239   -1.4336   -1.0478 C   0  0  0  0  0  0  0  0  0  0  0  0
    0.1620   -2.5184   -0.9970 H   0  0  0  0  0  0  0  0  0  0  0  0
   -0.3352   -1.1950   -2.0545 H   0  0  0  0  0  0  0  0  0  0  0  0
    1.3782   -0.7948   -0.8111 C   0  0  0  0  0  0  0  0  0  0  0  0
    2.2165   -0.5124   -1.8636 C   0  0  0  0  0  0  0  0  0  0  0  0
    1.9889   -0.6864   -2.9133 H   0  0  0  0  0  0  0  0  0  0  0  0
    3.3706    0.0680   -1.3549 N   0  0  0  0  0  0  0  0  0  0  0  0
    4.1624    0.3897   -1.9079 H   0  0  0  0  0  0  0  0  0  0  0  0
    3.3160    0.1034    0.0251 C   0  0  0  0  0  0  0  0  0  0  0  0
    4.2596    0.5690    0.9396 C   0  0  0  0  0  0  0  0  0  0  0  0
    5.1865    1.0118    0.5928 H   0  0  0  0  0  0  0  0  0  0  0  0
    4.0003    0.4447    2.3082 C   0  0  0  0  0  0  0  0  0  0  0  0
    4.7251    0.8000    3.0349 H   0  0  0  0  0  0  0  0  0  0  0  0
    2.8151   -0.1635    2.7388 C   0  0  0  0  0  0  0  0  0  0  0  0
    2.6274   -0.2900    3.8010 H   0  0  0  0  0  0  0  0  0  0  0  0
    1.8764   -0.6284    1.8073 C   0  0  0  0  0  0  0  0  0  0  0  0
    0.9990   -1.1369    2.1872 H   0  0  0  0  0  0  0  0  0  0  0  0
    2.1067   -0.4633    0.4292 C   0  0  0  0  0  0  0  0  0  0  0  0
   -1.4351    0.4338   -0.2069 C   0  0  0  0  0  0  0  0  0  0  0  0
   -2.3093    0.7244   -1.0173 O   0  0  0  0  0  0  0  0  0  0  0  0
   -0.9195    1.4084    0.6272 N   0  0  0  0  0  0  0  0  0  0  0  0
   -0.1037    1.1465    1.1771 H   0  0  0  0  0  0  0  0  0  0  0  0
   -1.2241    2.8245    0.4731 C   0  0  0  0  0  0  0  0  0  0  0  0
   -2.3020    2.9975    0.5593 H   0  0  0  0  0  0  0  0  0  0  0  0
   -0.7197    3.4051    1.2515 H   0  0  0  0  0  0  0  0  0  0  0  0
   -0.8852    3.1844   -0.5039 H   0  0  0  0  0  0  0  0  0  0  0  0
  1  2  1  0  0  0  0
  2  3  1  0  0  0  0
  2  4  1  0  0  0  0
  2  5  1  0  0  0  0
  5  6  2  0  0  0  0
  5  7  1  0  0  0  0
  7  8  1  0  0  0  0
  7  9  1  0  0  0  0
  9 10  1  0  0  0  0
  9 11  1  0  0  0  0
  9 29  1  0  0  0  0
 11 12  1  0  0  0  0
 11 13  1  0  0  0  0
 11 14  1  0  0  0  0
 14 15  2  0  0  0  0
 14 28  1  0  0  0  0
 15 16  1  0  0  0  0
 15 17  1  0  0  0  0
 17 18  1  0  0  0  0
 17 19  1  0  0  0  0
 19 20  1  0  0  0  0
 19 28  2  0  0  0  0
 20 21  1  0  0  0  0
 20 22  2  0  0  0  0
 22 23  1  0  0  0  0
 22 24  1  0  0  0  0
 24 25  1  0  0  0  0
 24 26  2  0  0  0  0
 26 27  1  0  0  0  0
 26 28  1  0  0  0  0
 29 30  2  0  0  0  0
 29 31  1  0  0  0  0
 31 32  1  0  0  0  0
 31 33  1  0  0  0  0
 33 34  1  0  0  0  0
 33 35  1  0  0  0  0
 33 36  1  0  0  0  0
M  END
$$$$

  -OEChem-03222214083D

 36 37  0     1  0  0  0  0  0999 V2000
   -3.6570   -4.5161    1.5746 H   0  0  0  0  0  0  0  0  0  0  0  0
   -3.6617   -3.7370    0.8072 C   0  0  0  0  0  0  0  0  0  0  0  0
   -4.5035   -3.0655    0.9924 H   0  0  0  0  0  0  0  0  0  0  0  0
   -3.7870   -4.2075   -0.1710 H   0  0  0  0  0  0  0  0  0  0  0  0
   -2.3601   -2.9587    0.8452 C   0  0  0  0  0  0  0  0  0  0  0  0
   -1.5072   -3.2379    1.6732 O   0  0  0  0  0  0  0  0  0  0  0  0
   -2.1469   -1.9346   -0.0537 N   0  0  0  0  0  0  0  0  0  0  0  0
   -2.9275   -1.6639   -0.6494 H   0  0  0  0  0  0  0  0  0  0  0  0
   -0.9920   -1.0247   -0.0171 C   0  0  1  0  0  0  0  0  0  0  0  0
   -0.5430   -1.0783    0.9736 H   0  0  0  0  0  0  0  0  0  0  0  0
    0.0373   -1.4298   -1.0813 C   0  0  0  0  0  0  0  0  0  0  0  0
    0.1847   -2.5135   -1.0328 H   0  0  0  0  0  0  0  0  0  0  0  0
   -0.3409   -1.1909   -2.0809 H   0  0  0  0  0  0  0  0  0  0  0  0
    1.3752   -0.7687   -0.8482 C   0  0  0  0  0  0  0  0  0  0  0  0
    2.1177   -0.1765   -1.8413 C   0  0  0  0  0  0  0  0  0  0  0  0
    1.8143   -0.0773   -2.8817 H   0  0  0  0  0  0  0  0  0  0  0  0
    3.2954    0.2947   -1.2699 N   0  0  0  0  0  0  0  0  0  0  0  0
    4.0374    0.7822   -1.7681 H   0  0  0  0  0  0  0  0  0  0  0  0
    3.3515   -0.0523    0.0686 C   0  0  0  0  0  0  0  0  0  0  0  0
    4.3423    0.1641    1.0259 C   0  0  0  0  0  0  0  0  0  0  0  0
    5.2406    0.7144    0.7691 H   0  0  0  0  0  0  0  0  0  0  0  0
    4.1685   -0.3515    2.3166 C   0  0  0  0  0  0  0  0  0  0  0  0
    4.9325   -0.1953    3.0725 H   0  0  0  0  0  0  0  0  0  0  0  0
    3.0183   -1.0907    2.6258 C   0  0  0  0  0  0  0  0  0  0  0  0
    2.8951   -1.5136    3.6186 H   0  0  0  0  0  0  0  0  0  0  0  0
    2.0301   -1.3021    1.6544 C   0  0  0  0  0  0  0  0  0  0  0  0
    1.1656   -1.9104    1.9027 H   0  0  0  0  0  0  0  0  0  0  0  0
    2.1863   -0.7507    0.3735 C   0  0  0  0  0  0  0  0  0  0  0  0
   -1.4048    0.4439   -0.2206 C   0  0  0  0  0  0  0  0  0  0  0  0
   -2.2865    0.7212   -1.0274 O   0  0  0  0  0  0  0  0  0  0  0  0
   -0.8773    1.4332    0.5878 N   0  0  0  0  0  0  0  0  0  0  0  0
   -0.0752    1.1758    1.1592 H   0  0  0  0  0  0  0  0  0  0  0  0
   -1.2042    2.8447    0.4378 C   0  0  0  0  0  0  0  0  0  0  0  0
   -2.2818    3.0032    0.5502 H   0  0  0  0  0  0  0  0  0  0  0  0
   -0.6886    3.4341    1.2022 H   0  0  0  0  0  0  0  0  0  0  0  0
   -0.8945    3.2071   -0.5480 H   0  0  0  0  0  0  0  0  0  0  0  0
  1  2  1  0  0  0  0
  2  3  1  0  0  0  0
  2  4  1  0  0  0  0
  2  5  1  0  0  0  0
  5  6  2  0  0  0  0
  5  7  1  0  0  0  0
  7  8  1  0  0  0  0
  7  9  1  0  0  0  0
  9 10  1  0  0  0  0
  9 11  1  0  0  0  0
  9 29  1  0  0  0  0
 11 12  1  0  0  0  0
 11 13  1  0  0  0  0
 11 14  1  0  0  0  0
 14 15  2  0  0  0  0
 14 28  1  0  0  0  0
 15 16  1  0  0  0  0
 15 17  1  0  0  0  0
 17 18  1  0  0  0  0
 17 19  1  0  0  0  0
 19 20  1  0  0  0  0
 19 28  2  0  0  0  0
 20 21  1  0  0  0  0
 20 22  2  0  0  0  0
 22 23  1  0  0  0  0
 22 24  1  0  0  0  0
 24 25  1  0  0  0  0
 24 26  2  0  0  0  0
 26 27  1  0  0  0  0
 26 28  1  0  0  0  0
 29 30  2  0  0  0  0
 29 31  1  0  0  0  0
 31 32  1  0  0  0  0
 31 33  1  0  0  0  0
 33 34  1  0  0  0  0
 33 35  1  0  0  0  0
 33 36  1  0  0  0  0
M  END
$$$$

  -OEChem-03222214083D

 36 37  0     1  0  0  0  0  0999 V2000
   -3.6303   -4.5133    1.6053 H   0  0  0  0  0  0  0  0  0  0  0  0
   -3.6313   -3.7466    0.8257 C   0  0  0  0  0  0  0  0  0  0  0  0
   -4.4580   -3.0569    1.0121 H   0  0  0  0  0  0  0  0  0  0  0  0
   -3.7789   -4.2295   -0.1433 H   0  0  0  0  0  0  0  0  0  0  0  0
   -2.3145   -2.9936    0.8332 C   0  0  0  0  0  0  0  0  0  0  0  0
   -1.4314   -3.3168    1.6119 O   0  0  0  0  0  0  0  0  0  0  0  0
   -2.1182   -1.9499   -0.0462 N   0  0  0  0  0  0  0  0  0  0  0  0
   -2.9172   -1.6504   -0.6023 H   0  0  0  0  0  0  0  0  0  0  0  0
   -0.9490   -1.0582   -0.0305 C   0  0  1  0  0  0  0  0  0  0  0  0
   -0.4576   -1.1459    0.9414 H   0  0  0  0  0  0  0  0  0  0  0  0
    0.0365   -1.4645   -1.1339 C   0  0  0  0  0  0  0  0  0  0  0  0
    0.1706   -2.5510   -1.1210 H   0  0  0  0  0  0  0  0  0  0  0  0
   -0.3639   -1.1897   -2.1153 H   0  0  0  0  0  0  0  0  0  0  0  0
    1.3775   -0.8151   -0.9069 C   0  0  0  0  0  0  0  0  0  0  0  0
    2.0047    0.0434   -1.7764 C   0  0  0  0  0  0  0  0  0  0  0  0
    1.6094    0.3696   -2.7364 H   0  0  0  0  0  0  0  0  0  0  0  0
    3.2115    0.4253   -1.1949 N   0  0  0  0  0  0  0  0  0  0  0  0
    3.8942    1.0529   -1.6151 H   0  0  0  0  0  0  0  0  0  0  0  0
    3.3795   -0.2055    0.0273 C   0  0  0  0  0  0  0  0  0  0  0  0
    4.4148   -0.1568    0.9608 C   0  0  0  0  0  0  0  0  0  0  0  0
    5.2807    0.4718    0.7851 H   0  0  0  0  0  0  0  0  0  0  0  0
    4.3235   -0.9350    2.1235 C   0  0  0  0  0  0  0  0  0  0  0  0
    5.1223   -0.9094    2.8588 H   0  0  0  0  0  0  0  0  0  0  0  0
    3.2056   -1.7564    2.3339 C   0  0  0  0  0  0  0  0  0  0  0  0
    3.1401   -2.3682    3.2288 H   0  0  0  0  0  0  0  0  0  0  0  0
    2.1713   -1.7985    1.3888 C   0  0  0  0  0  0  0  0  0  0  0  0
    1.3144   -2.4480    1.5477 H   0  0  0  0  0  0  0  0  0  0  0  0
    2.2612   -1.0042    0.2389 C   0  0  0  0  0  0  0  0  0  0  0  0
   -1.3448    0.4212   -0.1816 C   0  0  0  0  0  0  0  0  0  0  0  0
   -2.2423    0.7344   -0.9572 O   0  0  0  0  0  0  0  0  0  0  0  0
   -0.7722    1.3819    0.6305 N   0  0  0  0  0  0  0  0  0  0  0  0
    0.0377    1.0949    1.1766 H   0  0  0  0  0  0  0  0  0  0  0  0
   -1.0803    2.8016    0.5261 C   0  0  0  0  0  0  0  0  0  0  0  0
   -2.1527    2.9731    0.6660 H   0  0  0  0  0  0  0  0  0  0  0  0
   -0.5398    3.3620    1.2948 H   0  0  0  0  0  0  0  0  0  0  0  0
   -0.7863    3.1854   -0.4561 H   0  0  0  0  0  0  0  0  0  0  0  0
  1  2  1  0  0  0  0
  2  3  1  0  0  0  0
  2  4  1  0  0  0  0
  2  5  1  0  0  0  0
  5  6  2  0  0  0  0
  5  7  1  0  0  0  0
  7  8  1  0  0  0  0
  7  9  1  0  0  0  0
  9 10  1  0  0  0  0
  9 11  1  0  0  0  0
  9 29  1  0  0  0  0
 11 12  1  0  0  0  0
 11 13  1  0  0  0  0
 11 14  1  0  0  0  0
 14 15  2  0  0  0  0
 14 28  1  0  0  0  0
 15 16  1  0  0  0  0
 15 17  1  0  0  0  0
 17 18  1  0  0  0  0
 17 19  1  0  0  0  0
 19 20  1  0  0  0  0
 19 28  2  0  0  0  0
 20 21  1  0  0  0  0
 20 22  2  0  0  0  0
 22 23  1  0  0  0  0
 22 24  1  0  0  0  0
 24 25  1  0  0  0  0
 24 26  2  0  0  0  0
 26 27  1  0  0  0  0
 26 28  1  0  0  0  0
 29 30  2  0  0  0  0
 29 31  1  0  0  0  0
 31 32  1  0  0  0  0
 31 33  1  0  0  0  0
 33 34  1  0  0  0  0
 33 35  1  0  0  0  0
 33 36  1  0  0  0  0
M  END
$$$$

  -OEChem-03222214083D

 36 37  0     1  0  0  0  0  0999 V2000
   -3.5990   -4.5400    1.5874 H   0  0  0  0  0  0  0  0  0  0  0  0
   -3.6100   -3.7577    0.8232 C   0  0  0  0  0  0  0  0  0  0  0  0
   -4.4177   -3.0572    1.0489 H   0  0  0  0  0  0  0  0  0  0  0  0
   -3.7969   -4.2184   -0.1498 H   0  0  0  0  0  0  0  0  0  0  0  0
   -2.2807   -3.0268    0.8038 C   0  0  0  0  0  0  0  0  0  0  0  0
   -1.3803   -3.3787    1.5494 O   0  0  0  0  0  0  0  0  0  0  0  0
   -2.0955   -1.9669   -0.0587 N   0  0  0  0  0  0  0  0  0  0  0  0
   -2.9046   -1.6501   -0.5898 H   0  0  0  0  0  0  0  0  0  0  0  0
   -0.9188   -1.0849   -0.0533 C   0  0  1  0  0  0  0  0  0  0  0  0
   -0.3971   -1.1999    0.9021 H   0  0  0  0  0  0  0  0  0  0  0  0
    0.0371   -1.4838   -1.1829 C   0  0  0  0  0  0  0  0  0  0  0  0
    0.1614   -2.5714   -1.2035 H   0  0  0  0  0  0  0  0  0  0  0  0
   -0.3782   -1.1773   -2.1484 H   0  0  0  0  0  0  0  0  0  0  0  0
    1.3806   -0.8427   -0.9602 C   0  0  0  0  0  0  0  0  0  0  0  0
    1.8939    0.2321   -1.6449 C   0  0  0  0  0  0  0  0  0  0  0  0
    1.4017    0.7549   -2.4629 H   0  0  0  0  0  0  0  0  0  0  0  0
    3.1378    0.5264   -1.0893 N   0  0  0  0  0  0  0  0  0  0  0  0
    3.7628    1.2658   -1.4043 H   0  0  0  0  0  0  0  0  0  0  0  0
    3.4252   -0.3490   -0.0535 C   0  0  0  0  0  0  0  0  0  0  0  0
    4.5256   -0.4583    0.7969 C   0  0  0  0  0  0  0  0  0  0  0  0
    5.3621    0.2248    0.6998 H   0  0  0  0  0  0  0  0  0  0  0  0
    4.5346   -1.4619    1.7767 C   0  0  0  0  0  0  0  0  0  0  0  0
    5.3846   -1.5599    2.4455 H   0  0  0  0  0  0  0  0  0  0  0  0
    3.4469   -2.3415    1.8944 C   0  0  0  0  0  0  0  0  0  0  0  0
    3.4543   -3.1183    2.6534 H   0  0  0  0  0  0  0  0  0  0  0  0
    2.3466   -2.2239    1.0335 C   0  0  0  0  0  0  0  0  0  0  0  0
    1.5019   -2.9024    1.1222 H   0  0  0  0  0  0  0  0  0  0  0  0
    2.3489   -1.2205    0.0588 C   0  0  0  0  0  0  0  0  0  0  0  0
   -1.3091    0.3995   -0.1655 C   0  0  0  0  0  0  0  0  0  0  0  0
   -2.2140    0.7350   -0.9227 O   0  0  0  0  0  0  0  0  0  0  0  0
   -0.7133    1.3431    0.6501 N   0  0  0  0  0  0  0  0  0  0  0  0
    0.0915    1.0383    1.1937 H   0  0  0  0  0  0  0  0  0  0  0  0
   -1.0221    2.7655    0.5874 C   0  0  0  0  0  0  0  0  0  0  0  0
   -2.0882    2.9354    0.7717 H   0  0  0  0  0  0  0  0  0  0  0  0
   -0.4513    3.3092    1.3463 H   0  0  0  0  0  0  0  0  0  0  0  0
   -0.7647    3.1703   -0.3968 H   0  0  0  0  0  0  0  0  0  0  0  0
  1  2  1  0  0  0  0
  2  3  1  0  0  0  0
  2  4  1  0  0  0  0
  2  5  1  0  0  0  0
  5  6  2  0  0  0  0
  5  7  1  0  0  0  0
  7  8  1  0  0  0  0
  7  9  1  0  0  0  0
  9 10  1  0  0  0  0
  9 11  1  0  0  0  0
  9 29  1  0  0  0  0
 11 12  1  0  0  0  0
 11 13  1  0  0  0  0
 11 14  1  0  0  0  0
 14 15  2  0  0  0  0
 14 28  1  0  0  0  0
 15 16  1  0  0  0  0
 15 17  1  0  0  0  0
 17 18  1  0  0  0  0
 17 19  1  0  0  0  0
 19 20  1  0  0  0  0
 19 28  2  0  0  0  0
 20 21  1  0  0  0  0
 20 22  2  0  0  0  0
 22 23  1  0  0  0  0
 22 24  1  0  0  0  0
 24 25  1  0  0  0  0
 24 26  2  0  0  0  0
 26 27  1  0  0  0  0
 26 28  1  0  0  0  0
 29 30  2  0  0  0  0
 29 31  1  0  0  0  0
 31 32  1  0  0  0  0
 31 33  1  0  0  0  0
 33 34  1  0  0  0  0
 33 35  1  0  0  0  0
 33 36  1  0  0  0  0
M  END
$$$$

  -OEChem-03222214083D

 36 37  0     1  0  0  0  0  0999 V2000
   -3.5967   -4.5614    1.5324 H   0  0  0  0  0  0  0  0  0  0  0  0
   -3.6103   -3.7638    0.7843 C   0  0  0  0  0  0  0  0  0  0  0  0
   -4.4135   -3.0648    1.0301 H   0  0  0  0  0  0  0  0  0  0  0  0
   -3.8063   -4.2037   -0.1965 H   0  0  0  0  0  0  0  0  0  0  0  0
   -2.2778   -3.0384    0.7696 C   0  0  0  0  0  0  0  0  0  0  0  0
   -1.3741   -3.4082    1.5019 O   0  0  0  0  0  0  0  0  0  0  0  0
   -2.0928   -1.9664   -0.0776 N   0  0  0  0  0  0  0  0  0  0  0  0
   -2.9023   -1.6424   -0.6036 H   0  0  0  0  0  0  0  0  0  0  0  0
   -0.9121   -1.0893   -0.0692 C   0  0  1  0  0  0  0  0  0  0  0  0
   -0.3792   -1.2209    0.8787 H   0  0  0  0  0  0  0  0  0  0  0  0
    0.0326   -1.4919   -1.2072 C   0  0  0  0  0  0  0  0  0  0  0  0
    0.1420   -2.5805   -1.2422 H   0  0  0  0  0  0  0  0  0  0  0  0
   -0.3872   -1.1707   -2.1661 H   0  0  0  0  0  0  0  0  0  0  0  0
    1.3856   -0.8664   -0.9991 C   0  0  0  0  0  0  0  0  0  0  0  0
    1.8008    0.3570   -1.4683 C   0  0  0  0  0  0  0  0  0  0  0  0
    1.2158    1.0231   -2.1004 H   0  0  0  0  0  0  0  0  0  0  0  0
    3.0874    0.5786   -0.9811 N   0  0  0  0  0  0  0  0  0  0  0  0
    3.6615    1.3945   -1.1845 H   0  0  0  0  0  0  0  0  0  0  0  0
    3.4909   -0.4806   -0.1826 C   0  0  0  0  0  0  0  0  0  0  0  0
    4.6653   -0.7156    0.5325 C   0  0  0  0  0  0  0  0  0  0  0  0
    5.4743    0.0058    0.5088 H   0  0  0  0  0  0  0  0  0  0  0  0
    4.7832   -1.8933    1.2849 C   0  0  0  0  0  0  0  0  0  0  0  0
    5.6912   -2.0898    1.8473 H   0  0  0  0  0  0  0  0  0  0  0  0
    3.7271   -2.8175    1.3171 C   0  0  0  0  0  0  0  0  0  0  0  0
    3.8169   -3.7255    1.9059 H   0  0  0  0  0  0  0  0  0  0  0  0
    2.5519   -2.5731    0.5923 C   0  0  0  0  0  0  0  0  0  0  0  0
    1.7284   -3.2816    0.6197 H   0  0  0  0  0  0  0  0  0  0  0  0
    2.4493   -1.4004   -0.1627 C   0  0  0  0  0  0  0  0  0  0  0  0
   -1.3005    0.3972   -0.1568 C   0  0  0  0  0  0  0  0  0  0  0  0
   -2.2007    0.7495   -0.9115 O   0  0  0  0  0  0  0  0  0  0  0  0
   -0.6963    1.3275    0.6678 N   0  0  0  0  0  0  0  0  0  0  0  0
    0.0882    1.0057    1.2309 H   0  0  0  0  0  0  0  0  0  0  0  0
   -1.0156    2.7487    0.6469 C   0  0  0  0  0  0  0  0  0  0  0  0
   -2.0768    2.9065    0.8665 H   0  0  0  0  0  0  0  0  0  0  0  0
   -0.4254    3.2785    1.4009 H   0  0  0  0  0  0  0  0  0  0  0  0
   -0.7906    3.1777   -0.3349 H   0  0  0  0  0  0  0  0  0  0  0  0
  1  2  1  0  0  0  0
  2  3  1  0  0  0  0
  2  4  1  0  0  0  0
  2  5  1  0  0  0  0
  5  6  2  0  0  0  0
  5  7  1  0  0  0  0
  7  8  1  0  0  0  0
  7  9  1  0  0  0  0
  9 10  1  0  0  0  0
  9 11  1  0  0  0  0
  9 29  1  0  0  0  0
 11 12  1  0  0  0  0
 11 13  1  0  0  0  0
 11 14  1  0  0  0  0
 14 15  2  0  0  0  0
 14 28  1  0  0  0  0
 15 16  1  0  0  0  0
 15 17  1  0  0  0  0
 17 18  1  0  0  0  0
 17 19  1  0  0  0  0
 19 20  1  0  0  0  0
 19 28  2  0  0  0  0
 20 21  1  0  0  0  0
 20 22  2  0  0  0  0
 22 23  1  0  0  0  0
 22 24  1  0  0  0  0
 24 25  1  0  0  0  0
 24 26  2  0  0  0  0
 26 27  1  0  0  0  0
 26 28  1  0  0  0  0
 29 30  2  0  0  0  0
 29 31  1  0  0  0  0
 31 32  1  0  0  0  0
 31 33  1  0  0  0  0
 33 34  1  0  0  0  0
 33 35  1  0  0  0  0
 33 36  1  0  0  0  0
M  END
$$$$

  -OEChem-03222214083D

 36 37  0     1  0  0  0  0  0999 V2000
   -3.6260   -4.5606    1.4707 H   0  0  0  0  0  0  0  0  0  0  0  0
   -3.6240   -3.7592    0.7266 C   0  0  0  0  0  0  0  0  0  0  0  0
   -4.4468   -3.0742    0.9450 H   0  0  0  0  0  0  0  0  0  0  0  0
   -3.7756   -4.1967   -0.2630 H   0  0  0  0  0  0  0  0  0  0  0  0
   -2.3036   -3.0132    0.7655 C   0  0  0  0  0  0  0  0  0  0  0  0
   -1.4283   -3.3629    1.5403 O   0  0  0  0  0  0  0  0  0  0  0  0
   -2.0985   -1.9432   -0.0795 N   0  0  0  0  0  0  0  0  0  0  0  0
   -2.8882   -1.6361   -0.6445 H   0  0  0  0  0  0  0  0  0  0  0  0
   -0.9205   -1.0624   -0.0493 C   0  0  1  0  0  0  0  0  0  0  0  0
   -0.4004   -1.1885    0.9064 H   0  0  0  0  0  0  0  0  0  0  0  0
    0.0387   -1.4799   -1.1725 C   0  0  0  0  0  0  0  0  0  0  0  0
    0.1312   -2.5701   -1.1949 H   0  0  0  0  0  0  0  0  0  0  0  0
   -0.3710   -1.1669   -2.1385 H   0  0  0  0  0  0  0  0  0  0  0  0
    1.4054   -0.8732   -0.9811 C   0  0  0  0  0  0  0  0  0  0  0  0
    1.7581    0.4357   -1.2137 C   0  0  0  0  0  0  0  0  0  0  0  0
    1.1036    1.2039   -1.6220 H   0  0  0  0  0  0  0  0  0  0  0  0
    3.0901    0.5886   -0.8374 N   0  0  0  0  0  0  0  0  0  0  0  0
    3.6314    1.4466   -0.9206 H   0  0  0  0  0  0  0  0  0  0  0  0
    3.5906   -0.6045   -0.3419 C   0  0  0  0  0  0  0  0  0  0  0  0
    4.8447   -0.9469    0.1643 C   0  0  0  0  0  0  0  0  0  0  0  0
    5.6381   -0.2090    0.2059 H   0  0  0  0  0  0  0  0  0  0  0  0
    5.0634   -2.2545    0.6210 C   0  0  0  0  0  0  0  0  0  0  0  0
    6.0343   -2.5360    1.0178 H   0  0  0  0  0  0  0  0  0  0  0  0
    4.0269   -3.1994    0.5711 C   0  0  0  0  0  0  0  0  0  0  0  0
    4.1950   -4.2096    0.9323 H   0  0  0  0  0  0  0  0  0  0  0  0
    2.7709   -2.8446    0.0581 C   0  0  0  0  0  0  0  0  0  0  0  0
    1.9653   -3.5717    0.0250 H   0  0  0  0  0  0  0  0  0  0  0  0
    2.5652   -1.5410   -0.4058 C   0  0  0  0  0  0  0  0  0  0  0  0
   -1.3254    0.4189   -0.1519 C   0  0  0  0  0  0  0  0  0  0  0  0
   -2.2038    0.7595   -0.9365 O   0  0  0  0  0  0  0  0  0  0  0  0
   -0.7525    1.3630    0.6800 N   0  0  0  0  0  0  0  0  0  0  0  0
   -0.0161    1.0462    1.3069 H   0  0  0  0  0  0  0  0  0  0  0  0
   -1.1204    2.7729    0.6728 C   0  0  0  0  0  0  0  0  0  0  0  0
   -2.1847    2.8924    0.9013 H   0  0  0  0  0  0  0  0  0  0  0  0
   -0.5430    3.3173    1.4263 H   0  0  0  0  0  0  0  0  0  0  0  0
   -0.9172    3.2173   -0.3071 H   0  0  0  0  0  0  0  0  0  0  0  0
  1  2  1  0  0  0  0
  2  3  1  0  0  0  0
  2  4  1  0  0  0  0
  2  5  1  0  0  0  0
  5  6  2  0  0  0  0
  5  7  1  0  0  0  0
  7  8  1  0  0  0  0
  7  9  1  0  0  0  0
  9 10  1  0  0  0  0
  9 11  1  0  0  0  0
  9 29  1  0  0  0  0
 11 12  1  0  0  0  0
 11 13  1  0  0  0  0
 11 14  1  0  0  0  0
 14 15  2  0  0  0  0
 14 28  1  0  0  0  0
 15 16  1  0  0  0  0
 15 17  1  0  0  0  0
 17 18  1  0  0  0  0
 17 19  1  0  0  0  0
 19 20  1  0  0  0  0
 19 28  2  0  0  0  0
 20 21  1  0  0  0  0
 20 22  2  0  0  0  0
 22 23  1  0  0  0  0
 22 24  1  0  0  0  0
 24 25  1  0  0  0  0
 24 26  2  0  0  0  0
 26 27  1  0  0  0  0
 26 28  1  0  0  0  0
 29 30  2  0  0  0  0
 29 31  1  0  0  0  0
 31 32  1  0  0  0  0
 31 33  1  0  0  0  0
 33 34  1  0  0  0  0
 33 35  1  0  0  0  0
 33 36  1  0  0  0  0
M  END
$$$$

  -OEChem-03222214083D

 36 37  0     1  0  0  0  0  0999 V2000
   -3.6174   -4.5681    1.4285 H   0  0  0  0  0  0  0  0  0  0  0  0
   -3.6023   -3.7732    0.6772 C   0  0  0  0  0  0  0  0  0  0  0  0
   -4.4576   -3.1139    0.8438 H   0  0  0  0  0  0  0  0  0  0  0  0
   -3.6856   -4.2243   -0.3144 H   0  0  0  0  0  0  0  0  0  0  0  0
   -2.3116   -2.9830    0.7783 C   0  0  0  0  0  0  0  0  0  0  0  0
   -1.4714   -3.2926    1.6067 O   0  0  0  0  0  0  0  0  0  0  0  0
   -2.0941   -1.9158   -0.0672 N   0  0  0  0  0  0  0  0  0  0  0  0
   -2.8589   -1.6393   -0.6803 H   0  0  0  0  0  0  0  0  0  0  0  0
   -0.9290   -1.0190   -0.0057 C   0  0  1  0  0  0  0  0  0  0  0  0
   -0.4284   -1.1290    0.9622 H   0  0  0  0  0  0  0  0  0  0  0  0
    0.0549   -1.4458   -1.1097 C   0  0  0  0  0  0  0  0  0  0  0  0
    0.1373   -2.5364   -1.1067 H   0  0  0  0  0  0  0  0  0  0  0  0
   -0.3423   -1.1544   -2.0875 H   0  0  0  0  0  0  0  0  0  0  0  0
    1.4359   -0.8554   -0.9400 C   0  0  0  0  0  0  0  0  0  0  0  0
    1.7754    0.4784   -0.9156 C   0  0  0  0  0  0  0  0  0  0  0  0
    1.0947    1.3111   -1.0796 H   0  0  0  0  0  0  0  0  0  0  0  0
    3.1426    0.5677   -0.6696 N   0  0  0  0  0  0  0  0  0  0  0  0
    3.6786    1.4318   -0.6222 H   0  0  0  0  0  0  0  0  0  0  0  0
    3.6880   -0.6961   -0.5213 C   0  0  0  0  0  0  0  0  0  0  0  0
    4.9922   -1.1158   -0.2590 C   0  0  0  0  0  0  0  0  0  0  0  0
    5.7873   -0.3887   -0.1376 H   0  0  0  0  0  0  0  0  0  0  0  0
    5.2596   -2.4876   -0.1520 C   0  0  0  0  0  0  0  0  0  0  0  0
    6.2697   -2.8298    0.0526 H   0  0  0  0  0  0  0  0  0  0  0  0
    4.2222   -3.4196   -0.3057 C   0  0  0  0  0  0  0  0  0  0  0  0
    4.4304   -4.4818   -0.2190 H   0  0  0  0  0  0  0  0  0  0  0  0
    2.9149   -2.9852   -0.5686 C   0  0  0  0  0  0  0  0  0  0  0  0
    2.1125   -3.7068   -0.6820 H   0  0  0  0  0  0  0  0  0  0  0  0
    2.6557   -1.6141   -0.6795 C   0  0  0  0  0  0  0  0  0  0  0  0
   -1.3705    0.4505   -0.1325 C   0  0  0  0  0  0  0  0  0  0  0  0
   -2.2147    0.7672   -0.9629 O   0  0  0  0  0  0  0  0  0  0  0  0
   -0.8508    1.4172    0.7096 N   0  0  0  0  0  0  0  0  0  0  0  0
   -0.1821    1.1124    1.4133 H   0  0  0  0  0  0  0  0  0  0  0  0
   -1.2598    2.8158    0.6792 C   0  0  0  0  0  0  0  0  0  0  0  0
   -2.3412    2.9034    0.8278 H   0  0  0  0  0  0  0  0  0  0  0  0
   -0.7567    3.3739    1.4747 H   0  0  0  0  0  0  0  0  0  0  0  0
   -0.9976    3.2703   -0.2818 H   0  0  0  0  0  0  0  0  0  0  0  0
  1  2  1  0  0  0  0
  2  3  1  0  0  0  0
  2  4  1  0  0  0  0
  2  5  1  0  0  0  0
  5  6  2  0  0  0  0
  5  7  1  0  0  0  0
  7  8  1  0  0  0  0
  7  9  1  0  0  0  0
  9 10  1  0  0  0  0
  9 11  1  0  0  0  0
  9 29  1  0  0  0  0
 11 12  1  0  0  0  0
 11 13  1  0  0  0  0
 11 14  1  0  0  0  0
 14 15  2  0  0  0  0
 14 28  1  0  0  0  0
 15 16  1  0  0  0  0
 15 17  1  0  0  0  0
 17 18  1  0  0  0  0
 17 19  1  0  0  0  0
 19 20  1  0  0  0  0
 19 28  2  0  0  0  0
 20 21  1  0  0  0  0
 20 22  2  0  0  0  0
 22 23  1  0  0  0  0
 22 24  1  0  0  0  0
 24 25  1  0  0  0  0
 24 26  2  0  0  0  0
 26 27  1  0  0  0  0
 26 28  1  0  0  0  0
 29 30  2  0  0  0  0
 29 31  1  0  0  0  0
 31 32  1  0  0  0  0
 31 33  1  0  0  0  0
 33 34  1  0  0  0  0
 33 35  1  0  0  0  0
 33 36  1  0  0  0  0
M  END
$$$$

  -OEChem-03222214083D

 36 37  0     1  0  0  0  0  0999 V2000
   -3.6022   -4.5802    1.3401 H   0  0  0  0  0  0  0  0  0  0  0  0
   -3.5753   -3.7702    0.6058 C   0  0  0  0  0  0  0  0  0  0  0  0
   -4.4525   -3.1348    0.7493 H   0  0  0  0  0  0  0  0  0  0  0  0
   -3.6067   -4.2031   -0.3969 H   0  0  0  0  0  0  0  0  0  0  0  0
   -2.3098   -2.9515    0.7769 C   0  0  0  0  0  0  0  0  0  0  0  0
   -1.5195   -3.2269    1.6644 O   0  0  0  0  0  0  0  0  0  0  0  0
   -2.0652   -1.8879   -0.0650 N   0  0  0  0  0  0  0  0  0  0  0  0
   -2.7946   -1.6387   -0.7308 H   0  0  0  0  0  0  0  0  0  0  0  0
   -0.9186   -0.9714    0.0442 C   0  0  1  0  0  0  0  0  0  0  0  0
   -0.4509   -1.0639    1.0298 H   0  0  0  0  0  0  0  0  0  0  0  0
    0.1015   -1.4029   -1.0284 C   0  0  0  0  0  0  0  0  0  0  0  0
    0.1807   -2.4934   -0.9916 H   0  0  0  0  0  0  0  0  0  0  0  0
   -0.2779   -1.1402   -2.0213 H   0  0  0  0  0  0  0  0  0  0  0  0
    1.4951   -0.8307   -0.8689 C   0  0  0  0  0  0  0  0  0  0  0  0
    1.8664    0.4650   -0.5843 C   0  0  0  0  0  0  0  0  0  0  0  0
    1.1999    1.3158   -0.4824 H   0  0  0  0  0  0  0  0  0  0  0  0
    3.2547    0.5080   -0.4956 N   0  0  0  0  0  0  0  0  0  0  0  0
    3.8099    1.3431   -0.3209 H   0  0  0  0  0  0  0  0  0  0  0  0
    3.7888   -0.7488   -0.7147 C   0  0  0  0  0  0  0  0  0  0  0  0
    5.1082   -1.2012   -0.7284 C   0  0  0  0  0  0  0  0  0  0  0  0
    5.9249   -0.5118   -0.5452 H   0  0  0  0  0  0  0  0  0  0  0  0
    5.3622   -2.5564   -0.9791 C   0  0  0  0  0  0  0  0  0  0  0  0
    6.3839   -2.9240   -0.9910 H   0  0  0  0  0  0  0  0  0  0  0  0
    4.2968   -3.4389   -1.2122 C   0  0  0  0  0  0  0  0  0  0  0  0
    4.4948   -4.4893   -1.4030 H   0  0  0  0  0  0  0  0  0  0  0  0
    2.9750   -2.9705   -1.1983 C   0  0  0  0  0  0  0  0  0  0  0  0
    2.1534   -3.6558   -1.3778 H   0  0  0  0  0  0  0  0  0  0  0  0
    2.7267   -1.6150   -0.9489 C   0  0  0  0  0  0  0  0  0  0  0  0
   -1.4016    0.4818   -0.1205 C   0  0  0  0  0  0  0  0  0  0  0  0
   -2.2164    0.7614   -0.9926 O   0  0  0  0  0  0  0  0  0  0  0  0
   -0.9561    1.4747    0.7341 N   0  0  0  0  0  0  0  0  0  0  0  0
   -0.3758    1.1851    1.5177 H   0  0  0  0  0  0  0  0  0  0  0  0
   -1.4562    2.8436    0.6964 C   0  0  0  0  0  0  0  0  0  0  0  0
   -2.5361    2.8619    0.8770 H   0  0  0  0  0  0  0  0  0  0  0  0
   -0.9659    3.4466    1.4668 H   0  0  0  0  0  0  0  0  0  0  0  0
   -1.2540    3.2995   -0.2785 H   0  0  0  0  0  0  0  0  0  0  0  0
  1  2  1  0  0  0  0
  2  3  1  0  0  0  0
  2  4  1  0  0  0  0
  2  5  1  0  0  0  0
  5  6  2  0  0  0  0
  5  7  1  0  0  0  0
  7  8  1  0  0  0  0
  7  9  1  0  0  0  0
  9 10  1  0  0  0  0
  9 11  1  0  0  0  0
  9 29  1  0  0  0  0
 11 12  1  0  0  0  0
 11 13  1  0  0  0  0
 11 14  1  0  0  0  0
 14 15  2  0  0  0  0
 14 28  1  0  0  0  0
 15 16  1  0  0  0  0
 15 17  1  0  0  0  0
 17 18  1  0  0  0  0
 17 19  1  0  0  0  0
 19 20  1  0  0  0  0
 19 28  2  0  0  0  0
 20 21  1  0  0  0  0
 20 22  2  0  0  0  0
 22 23  1  0  0  0  0
 22 24  1  0  0  0  0
 24 25  1  0  0  0  0
 24 26  2  0  0  0  0
 26 27  1  0  0  0  0
 26 28  1  0  0  0  0
 29 30  2  0  0  0  0
 29 31  1  0  0  0  0
 31 32  1  0  0  0  0
 31 33  1  0  0  0  0
 33 34  1  0  0  0  0
 33 35  1  0  0  0  0
 33 36  1  0  0  0  0
M  END
$$$$

  -OEChem-03222214083D

 36 37  0     1  0  0  0  0  0999 V2000
   -3.6237   -4.5852    1.2697 H   0  0  0  0  0  0  0  0  0  0  0  0
   -3.5724   -3.7728    0.5394 C   0  0  0  0  0  0  0  0  0  0  0  0
   -4.4627   -3.1480    0.6441 H   0  0  0  0  0  0  0  0  0  0  0  0
   -3.5534   -4.2037   -0.4645 H   0  0  0  0  0  0  0  0  0  0  0  0
   -2.3253   -2.9405    0.7702 C   0  0  0  0  0  0  0  0  0  0  0  0
   -1.5839   -3.1968    1.7045 O   0  0  0  0  0  0  0  0  0  0  0  0
   -2.0438   -1.8823   -0.0671 N   0  0  0  0  0  0  0  0  0  0  0  0
   -2.7372   -1.6431   -0.7743 H   0  0  0  0  0  0  0  0  0  0  0  0
   -0.9080   -0.9599    0.0943 C   0  0  1  0  0  0  0  0  0  0  0  0
   -0.4783   -1.0443    1.0978 H   0  0  0  0  0  0  0  0  0  0  0  0
    0.1476   -1.3817   -0.9486 C   0  0  0  0  0  0  0  0  0  0  0  0
    0.2278   -2.4726   -0.9036 H   0  0  0  0  0  0  0  0  0  0  0  0
   -0.2044   -1.1233   -1.9527 H   0  0  0  0  0  0  0  0  0  0  0  0
    1.5452   -0.8254   -0.7645 C   0  0  0  0  0  0  0  0  0  0  0  0
    1.9629    0.3639   -0.2081 C   0  0  0  0  0  0  0  0  0  0  0  0
    1.3303    1.1469    0.1930 H   0  0  0  0  0  0  0  0  0  0  0  0
    3.3529    0.4092   -0.2755 N   0  0  0  0  0  0  0  0  0  0  0  0
    3.9352    1.1792    0.0467 H   0  0  0  0  0  0  0  0  0  0  0  0
    3.8434   -0.7368   -0.8743 C   0  0  0  0  0  0  0  0  0  0  0  0
    5.1448   -1.1454   -1.1666 C   0  0  0  0  0  0  0  0  0  0  0  0
    5.9875   -0.5125   -0.9116 H   0  0  0  0  0  0  0  0  0  0  0  0
    5.3471   -2.3831   -1.7926 C   0  0  0  0  0  0  0  0  0  0  0  0
    6.3544   -2.7155   -2.0253 H   0  0  0  0  0  0  0  0  0  0  0  0
    4.2490   -3.1932   -2.1181 C   0  0  0  0  0  0  0  0  0  0  0  0
    4.4074   -4.1524   -2.6018 H   0  0  0  0  0  0  0  0  0  0  0  0
    2.9457   -2.7694   -1.8205 C   0  0  0  0  0  0  0  0  0  0  0  0
    2.0969   -3.3957   -2.0735 H   0  0  0  0  0  0  0  0  0  0  0  0
    2.7502   -1.5328   -1.1939 C   0  0  0  0  0  0  0  0  0  0  0  0
   -1.4060    0.4851   -0.1089 C   0  0  0  0  0  0  0  0  0  0  0  0
   -2.1797    0.7402   -1.0254 O   0  0  0  0  0  0  0  0  0  0  0  0
   -1.0253    1.4977    0.7540 N   0  0  0  0  0  0  0  0  0  0  0  0
   -0.5257    1.2224    1.5954 H   0  0  0  0  0  0  0  0  0  0  0  0
   -1.5495    2.8555    0.6646 C   0  0  0  0  0  0  0  0  0  0  0  0
   -2.6370    2.8566    0.7937 H   0  0  0  0  0  0  0  0  0  0  0  0
   -1.1073    3.4839    1.4437 H   0  0  0  0  0  0  0  0  0  0  0  0
   -1.3097    3.2951   -0.3094 H   0  0  0  0  0  0  0  0  0  0  0  0
  1  2  1  0  0  0  0
  2  3  1  0  0  0  0
  2  4  1  0  0  0  0
  2  5  1  0  0  0  0
  5  6  2  0  0  0  0
  5  7  1  0  0  0  0
  7  8  1  0  0  0  0
  7  9  1  0  0  0  0
  9 10  1  0  0  0  0
  9 11  1  0  0  0  0
  9 29  1  0  0  0  0
 11 12  1  0  0  0  0
 11 13  1  0  0  0  0
 11 14  1  0  0  0  0
 14 15  2  0  0  0  0
 14 28  1  0  0  0  0
 15 16  1  0  0  0  0
 15 17  1  0  0  0  0
 17 18  1  0  0  0  0
 17 19  1  0  0  0  0
 19 20  1  0  0  0  0
 19 28  2  0  0  0  0
 20 21  1  0  0  0  0
 20 22  2  0  0  0  0
 22 23  1  0  0  0  0
 22 24  1  0  0  0  0
 24 25  1  0  0  0  0
 24 26  2  0  0  0  0
 26 27  1  0  0  0  0
 26 28  1  0  0  0  0
 29 30  2  0  0  0  0
 29 31  1  0  0  0  0
 31 32  1  0  0  0  0
 31 33  1  0  0  0  0
 33 34  1  0  0  0  0
 33 35  1  0  0  0  0
 33 36  1  0  0  0  0
M  END
$$$$

  -OEChem-03222214083D

 36 37  0     1  0  0  0  0  0999 V2000
   -3.7089   -4.5607    1.2416 H   0  0  0  0  0  0  0  0  0  0  0  0
   -3.6267   -3.7538    0.5081 C   0  0  0  0  0  0  0  0  0  0  0  0
   -4.5075   -3.1124    0.5896 H   0  0  0  0  0  0  0  0  0  0  0  0
   -3.5934   -4.1908   -0.4929 H   0  0  0  0  0  0  0  0  0  0  0  0
   -2.3696   -2.9431    0.7614 C   0  0  0  0  0  0  0  0  0  0  0  0
   -1.6544   -3.2053    1.7145 O   0  0  0  0  0  0  0  0  0  0  0  0
   -2.0523   -1.8936   -0.0739 N   0  0  0  0  0  0  0  0  0  0  0  0
   -2.7287   -1.6433   -0.7936 H   0  0  0  0  0  0  0  0  0  0  0  0
   -0.9044   -0.9906    0.1059 C   0  0  1  0  0  0  0  0  0  0  0  0
   -0.4916   -1.0830    1.1154 H   0  0  0  0  0  0  0  0  0  0  0  0
    0.1596   -1.4087   -0.9284 C   0  0  0  0  0  0  0  0  0  0  0  0
    0.2357   -2.5009   -0.9021 H   0  0  0  0  0  0  0  0  0  0  0  0
   -0.1774   -1.1290   -1.9321 H   0  0  0  0  0  0  0  0  0  0  0  0
    1.5574   -0.8674   -0.7145 C   0  0  0  0  0  0  0  0  0  0  0  0
    2.0089    0.1550    0.0910 C   0  0  0  0  0  0  0  0  0  0  0  0
    1.4073    0.7676    0.7521 H   0  0  0  0  0  0  0  0  0  0  0  0
    3.3848    0.2725   -0.0911 N   0  0  0  0  0  0  0  0  0  0  0  0
    3.9869    0.9488    0.3736 H   0  0  0  0  0  0  0  0  0  0  0  0
    3.8300   -0.6583   -1.0127 C   0  0  0  0  0  0  0  0  0  0  0  0
    5.0989   -0.9271   -1.5262 C   0  0  0  0  0  0  0  0  0  0  0  0
    5.9558   -0.3501   -1.1972 H   0  0  0  0  0  0  0  0  0  0  0  0
    5.2502   -1.9502   -2.4727 C   0  0  0  0  0  0  0  0  0  0  0  0
    6.2319   -2.1700   -2.8816 H   0  0  0  0  0  0  0  0  0  0  0  0
    4.1342   -2.6898   -2.8929 C   0  0  0  0  0  0  0  0  0  0  0  0
    4.2531   -3.4812   -3.6267 H   0  0  0  0  0  0  0  0  0  0  0  0
    2.8639   -2.4097   -2.3691 C   0  0  0  0  0  0  0  0  0  0  0  0
    1.9980   -2.9780   -2.6923 H   0  0  0  0  0  0  0  0  0  0  0  0
    2.7216   -1.3873   -1.4246 C   0  0  0  0  0  0  0  0  0  0  0  0
   -1.3729    0.4630   -0.1132 C   0  0  0  0  0  0  0  0  0  0  0  0
   -2.1305    0.7235   -1.0418 O   0  0  0  0  0  0  0  0  0  0  0  0
   -0.9929    1.4751    0.7505 N   0  0  0  0  0  0  0  0  0  0  0  0
   -0.5285    1.1976    1.6101 H   0  0  0  0  0  0  0  0  0  0  0  0
   -1.4885    2.8415    0.6358 C   0  0  0  0  0  0  0  0  0  0  0  0
   -2.5768    2.8659    0.7549 H   0  0  0  0  0  0  0  0  0  0  0  0
   -1.0403    3.4726    1.4092 H   0  0  0  0  0  0  0  0  0  0  0  0
   -1.2314    3.2618   -0.3423 H   0  0  0  0  0  0  0  0  0  0  0  0
  1  2  1  0  0  0  0
  2  3  1  0  0  0  0
  2  4  1  0  0  0  0
  2  5  1  0  0  0  0
  5  6  2  0  0  0  0
  5  7  1  0  0  0  0
  7  8  1  0  0  0  0
  7  9  1  0  0  0  0
  9 10  1  0  0  0  0
  9 11  1  0  0  0  0
  9 29  1  0  0  0  0
 11 12  1  0  0  0  0
 11 13  1  0  0  0  0
 11 14  1  0  0  0  0
 14 15  2  0  0  0  0
 14 28  1  0  0  0  0
 15 16  1  0  0  0  0
 15 17  1  0  0  0  0
 17 18  1  0  0  0  0
 17 19  1  0  0  0  0
 19 20  1  0  0  0  0
 19 28  2  0  0  0  0
 20 21  1  0  0  0  0
 20 22  2  0  0  0  0
 22 23  1  0  0  0  0
 22 24  1  0  0  0  0
 24 25  1  0  0  0  0
 24 26  2  0  0  0  0
 26 27  1  0  0  0  0
 26 28  1  0  0  0  0
 29 30  2  0  0  0  0
 29 31  1  0  0  0  0
 31 32  1  0  0  0  0
 31 33  1  0  0  0  0
 33 34  1  0  0  0  0
 33 35  1  0  0  0  0
 33 36  1  0  0  0  0
M  END
$$$$

  -OEChem-03222214083D

 36 37  0     1  0  0  0  0  0999 V2000
   -3.7824   -4.5366    1.2727 H   0  0  0  0  0  0  0  0  0  0  0  0
   -3.6970   -3.7304    0.5388 C   0  0  0  0  0  0  0  0  0  0  0  0
   -4.5562   -3.0638    0.6453 H   0  0  0  0  0  0  0  0  0  0  0  0
   -3.7037   -4.1658   -0.4633 H   0  0  0  0  0  0  0  0  0  0  0  0
   -2.4109   -2.9571    0.7605 C   0  0  0  0  0  0  0  0  0  0  0  0
   -1.6778   -3.2448    1.6927 O   0  0  0  0  0  0  0  0  0  0  0  0
   -2.0841   -1.9148   -0.0805 N   0  0  0  0  0  0  0  0  0  0  0  0
   -2.7702   -1.6427   -0.7829 H   0  0  0  0  0  0  0  0  0  0  0  0
   -0.9149   -1.0375    0.0853 C   0  0  1  0  0  0  0  0  0  0  0  0
   -0.4999   -1.1446    1.0922 H   0  0  0  0  0  0  0  0  0  0  0  0
    0.1361   -1.4600   -0.9581 C   0  0  0  0  0  0  0  0  0  0  0  0
    0.2027   -2.5529   -0.9590 H   0  0  0  0  0  0  0  0  0  0  0  0
   -0.2012   -1.1521   -1.9535 H   0  0  0  0  0  0  0  0  0  0  0  0
    1.5331   -0.9272   -0.7279 C   0  0  0  0  0  0  0  0  0  0  0  0
    2.0185   -0.1187    0.2763 C   0  0  0  0  0  0  0  0  0  0  0  0
    1.4545    0.2612    1.1216 H   0  0  0  0  0  0  0  0  0  0  0  0
    3.3682    0.1153    0.0260 N   0  0  0  0  0  0  0  0  0  0  0  0
    3.9892    0.6745    0.6068 H   0  0  0  0  0  0  0  0  0  0  0  0
    3.7604   -0.5284   -1.1343 C   0  0  0  0  0  0  0  0  0  0  0  0
    4.9883   -0.5919   -1.7925 C   0  0  0  0  0  0  0  0  0  0  0  0
    5.8512   -0.0719   -1.3915 H   0  0  0  0  0  0  0  0  0  0  0  0
    5.0902   -1.3349   -2.9771 C   0  0  0  0  0  0  0  0  0  0  0  0
    6.0401   -1.3928   -3.5002 H   0  0  0  0  0  0  0  0  0  0  0  0
    3.9664   -2.0034   -3.4873 C   0  0  0  0  0  0  0  0  0  0  0  0
    4.0476   -2.5778   -4.4051 H   0  0  0  0  0  0  0  0  0  0  0  0
    2.7375   -1.9326   -2.8153 C   0  0  0  0  0  0  0  0  0  0  0  0
    1.8656   -2.4479   -3.2048 H   0  0  0  0  0  0  0  0  0  0  0  0
    2.6452   -1.1890   -1.6339 C   0  0  0  0  0  0  0  0  0  0  0  0
   -1.3386    0.4317   -0.1249 C   0  0  0  0  0  0  0  0  0  0  0  0
   -2.1114    0.7134   -1.0347 O   0  0  0  0  0  0  0  0  0  0  0  0
   -0.9175    1.4320    0.7336 N   0  0  0  0  0  0  0  0  0  0  0  0
   -0.4077    1.1523    1.5650 H   0  0  0  0  0  0  0  0  0  0  0  0
   -1.3387    2.8219    0.6037 C   0  0  0  0  0  0  0  0  0  0  0  0
   -2.4272    2.9040    0.6914 H   0  0  0  0  0  0  0  0  0  0  0  0
   -0.8819    3.4309    1.3898 H   0  0  0  0  0  0  0  0  0  0  0  0
   -1.0318    3.2255   -0.3671 H   0  0  0  0  0  0  0  0  0  0  0  0
  1  2  1  0  0  0  0
  2  3  1  0  0  0  0
  2  4  1  0  0  0  0
  2  5  1  0  0  0  0
  5  6  2  0  0  0  0
  5  7  1  0  0  0  0
  7  8  1  0  0  0  0
  7  9  1  0  0  0  0
  9 10  1  0  0  0  0
  9 11  1  0  0  0  0
  9 29  1  0  0  0  0
 11 12  1  0  0  0  0
 11 13  1  0  0  0  0
 11 14  1  0  0  0  0
 14 15  2  0  0  0  0
 14 28  1  0  0  0  0
 15 16  1  0  0  0  0
 15 17  1  0  0  0  0
 17 18  1  0  0  0  0
 17 19  1  0  0  0  0
 19 20  1  0  0  0  0
 19 28  2  0  0  0  0
 20 21  1  0  0  0  0
 20 22  2  0  0  0  0
 22 23  1  0  0  0  0
 22 24  1  0  0  0  0
 24 25  1  0  0  0  0
 24 26  2  0  0  0  0
 26 27  1  0  0  0  0
 26 28  1  0  0  0  0
 29 30  2  0  0  0  0
 29 31  1  0  0  0  0
 31 32  1  0  0  0  0
 31 33  1  0  0  0  0
 33 34  1  0  0  0  0
 33 35  1  0  0  0  0
 33 36  1  0  0  0  0
M  END
$$$$

  -OEChem-03222214083D

 36 37  0     1  0  0  0  0  0999 V2000
   -3.8222   -4.5184    1.3170 H   0  0  0  0  0  0  0  0  0  0  0  0
   -3.7394   -3.7173    0.5771 C   0  0  0  0  0  0  0  0  0  0  0  0
   -4.5822   -3.0331    0.7023 H   0  0  0  0  0  0  0  0  0  0  0  0
   -3.7799   -4.1566   -0.4227 H   0  0  0  0  0  0  0  0  0  0  0  0
   -2.4331   -2.9685    0.7621 C   0  0  0  0  0  0  0  0  0  0  0  0
   -1.6748   -3.2770    1.6674 O   0  0  0  0  0  0  0  0  0  0  0  0
   -2.1137   -1.9281   -0.0841 N   0  0  0  0  0  0  0  0  0  0  0  0
   -2.8216   -1.6332   -0.7550 H   0  0  0  0  0  0  0  0  0  0  0  0
   -0.9286   -1.0677    0.0539 C   0  0  1  0  0  0  0  0  0  0  0  0
   -0.5057   -1.1841    1.0554 H   0  0  0  0  0  0  0  0  0  0  0  0
    0.1075   -1.4914   -1.0016 C   0  0  0  0  0  0  0  0  0  0  0  0
    0.1721   -2.5842   -1.0205 H   0  0  0  0  0  0  0  0  0  0  0  0
   -0.2407   -1.1665   -1.9877 H   0  0  0  0  0  0  0  0  0  0  0  0
    1.5035   -0.9558   -0.7691 C   0  0  0  0  0  0  0  0  0  0  0  0
    2.0472   -0.3911    0.3641 C   0  0  0  0  0  0  0  0  0  0  0  0
    1.5462   -0.2651    1.3194 H   0  0  0  0  0  0  0  0  0  0  0  0
    3.3633   -0.0361    0.0778 N   0  0  0  0  0  0  0  0  0  0  0  0
    4.0197    0.3809    0.7348 H   0  0  0  0  0  0  0  0  0  0  0  0
    3.6768   -0.3651   -1.2298 C   0  0  0  0  0  0  0  0  0  0  0  0
    4.8486   -0.2151   -1.9719 C   0  0  0  0  0  0  0  0  0  0  0  0
    5.7273    0.2339   -1.5227 H   0  0  0  0  0  0  0  0  0  0  0  0
    4.8744   -0.6531   -3.3036 C   0  0  0  0  0  0  0  0  0  0  0  0
    5.7795   -0.5432   -3.8935 H   0  0  0  0  0  0  0  0  0  0  0  0
    3.7322   -1.2346   -3.8752 C   0  0  0  0  0  0  0  0  0  0  0  0
    3.7542   -1.5737   -4.9065 H   0  0  0  0  0  0  0  0  0  0  0  0
    2.5606   -1.3805   -3.1186 C   0  0  0  0  0  0  0  0  0  0  0  0
    1.6751   -1.8299   -3.5560 H   0  0  0  0  0  0  0  0  0  0  0  0
    2.5435   -0.9406   -1.7908 C   0  0  0  0  0  0  0  0  0  0  0  0
   -1.3235    0.4112   -0.1388 C   0  0  0  0  0  0  0  0  0  0  0  0
   -2.1435    0.7093   -1.0011 O   0  0  0  0  0  0  0  0  0  0  0  0
   -0.8553    1.3946    0.7141 N   0  0  0  0  0  0  0  0  0  0  0  0
   -0.2115    1.1181    1.4476 H   0  0  0  0  0  0  0  0  0  0  0  0
   -1.2231    2.7999    0.5920 C   0  0  0  0  0  0  0  0  0  0  0  0
   -2.3088    2.9211    0.6686 H   0  0  0  0  0  0  0  0  0  0  0  0
   -0.7540    3.3842    1.3893 H   0  0  0  0  0  0  0  0  0  0  0  0
   -0.8904    3.1994   -0.3719 H   0  0  0  0  0  0  0  0  0  0  0  0
  1  2  1  0  0  0  0
  2  3  1  0  0  0  0
  2  4  1  0  0  0  0
  2  5  1  0  0  0  0
  5  6  2  0  0  0  0
  5  7  1  0  0  0  0
  7  8  1  0  0  0  0
  7  9  1  0  0  0  0
  9 10  1  0  0  0  0
  9 11  1  0  0  0  0
  9 29  1  0  0  0  0
 11 12  1  0  0  0  0
 11 13  1  0  0  0  0
 11 14  1  0  0  0  0
 14 15  2  0  0  0  0
 14 28  1  0  0  0  0
 15 16  1  0  0  0  0
 15 17  1  0  0  0  0
 17 18  1  0  0  0  0
 17 19  1  0  0  0  0
 19 20  1  0  0  0  0
 19 28  2  0  0  0  0
 20 21  1  0  0  0  0
 20 22  2  0  0  0  0
 22 23  1  0  0  0  0
 22 24  1  0  0  0  0
 24 25  1  0  0  0  0
 24 26  2  0  0  0  0
 26 27  1  0  0  0  0
 26 28  1  0  0  0  0
 29 30  2  0  0  0  0
 29 31  1  0  0  0  0
 31 32  1  0  0  0  0
 31 33  1  0  0  0  0
 33 34  1  0  0  0  0
 33 35  1  0  0  0  0
 33 36  1  0  0  0  0
M  END
$$$$

  -OEChem-03222214083D

 36 37  0     1  0  0  0  0  0999 V2000
   -3.8697   -4.4712    1.4199 H   0  0  0  0  0  0  0  0  0  0  0  0
   -3.7900   -3.6846    0.6645 C   0  0  0  0  0  0  0  0  0  0  0  0
   -4.6028   -2.9696    0.8128 H   0  0  0  0  0  0  0  0  0  0  0  0
   -3.8866   -4.1362   -0.3258 H   0  0  0  0  0  0  0  0  0  0  0  0
   -2.4523   -2.9798    0.7838 C   0  0  0  0  0  0  0  0  0  0  0  0
   -1.6581   -3.3163    1.6478 O   0  0  0  0  0  0  0  0  0  0  0  0
   -2.1422   -1.9512   -0.0800 N   0  0  0  0  0  0  0  0  0  0  0  0
   -2.8771   -1.6279   -0.7075 H   0  0  0  0  0  0  0  0  0  0  0  0
   -0.9360   -1.1152    0.0140 C   0  0  1  0  0  0  0  0  0  0  0  0
   -0.4988   -1.2325    1.0086 H   0  0  0  0  0  0  0  0  0  0  0  0
    0.0758   -1.5540   -1.0560 C   0  0  0  0  0  0  0  0  0  0  0  0
    0.1346   -2.6471   -1.0762 H   0  0  0  0  0  0  0  0  0  0  0  0
   -0.2852   -1.2273   -2.0365 H   0  0  0  0  0  0  0  0  0  0  0  0
    1.4704   -1.0157   -0.8221 C   0  0  0  0  0  0  0  0  0  0  0  0
    2.0792   -0.7162    0.3775 C   0  0  0  0  0  0  0  0  0  0  0  0
    1.6537   -0.8708    1.3661 H   0  0  0  0  0  0  0  0  0  0  0  0
    3.3476   -0.2135    0.1005 N   0  0  0  0  0  0  0  0  0  0  0  0
    4.0409    0.0574    0.7952 H   0  0  0  0  0  0  0  0  0  0  0  0
    3.5640   -0.1823   -1.2666 C   0  0  0  0  0  0  0  0  0  0  0  0
    4.6622    0.2295   -2.0220 C   0  0  0  0  0  0  0  0  0  0  0  0
    5.5523    0.6089   -1.5327 H   0  0  0  0  0  0  0  0  0  0  0  0
    4.5989    0.1464   -3.4199 C   0  0  0  0  0  0  0  0  0  0  0  0
    5.4456    0.4635   -4.0213 H   0  0  0  0  0  0  0  0  0  0  0  0
    3.4426   -0.3467   -4.0434 C   0  0  0  0  0  0  0  0  0  0  0  0
    3.3961   -0.4098   -5.1265 H   0  0  0  0  0  0  0  0  0  0  0  0
    2.3457   -0.7592   -3.2729 C   0  0  0  0  0  0  0  0  0  0  0  0
    1.4506   -1.1417   -3.7524 H   0  0  0  0  0  0  0  0  0  0  0  0
    2.4164   -0.6736   -1.8782 C   0  0  0  0  0  0  0  0  0  0  0  0
   -1.2940    0.3731   -0.1731 C   0  0  0  0  0  0  0  0  0  0  0  0
   -2.1596    0.6862   -0.9843 O   0  0  0  0  0  0  0  0  0  0  0  0
   -0.7675    1.3427    0.6604 N   0  0  0  0  0  0  0  0  0  0  0  0
   -0.0009    1.0683    1.2662 H   0  0  0  0  0  0  0  0  0  0  0  0
   -1.0770    2.7602    0.5228 C   0  0  0  0  0  0  0  0  0  0  0  0
   -2.1513    2.9316    0.6491 H   0  0  0  0  0  0  0  0  0  0  0  0
   -0.5441    3.3388    1.2836 H   0  0  0  0  0  0  0  0  0  0  0  0
   -0.7747    3.1240   -0.4649 H   0  0  0  0  0  0  0  0  0  0  0  0
  1  2  1  0  0  0  0
  2  3  1  0  0  0  0
  2  4  1  0  0  0  0
  2  5  1  0  0  0  0
  5  6  2  0  0  0  0
  5  7  1  0  0  0  0
  7  8  1  0  0  0  0
  7  9  1  0  0  0  0
  9 10  1  0  0  0  0
  9 11  1  0  0  0  0
  9 29  1  0  0  0  0
 11 12  1  0  0  0  0
 11 13  1  0  0  0  0
 11 14  1  0  0  0  0
 14 15  2  0  0  0  0
 14 28  1  0  0  0  0
 15 16  1  0  0  0  0
 15 17  1  0  0  0  0
 17 18  1  0  0  0  0
 17 19  1  0  0  0  0
 19 20  1  0  0  0  0
 19 28  2  0  0  0  0
 20 21  1  0  0  0  0
 20 22  2  0  0  0  0
 22 23  1  0  0  0  0
 22 24  1  0  0  0  0
 24 25  1  0  0  0  0
 24 26  2  0  0  0  0
 26 27  1  0  0  0  0
 26 28  1  0  0  0  0
 29 30  2  0  0  0  0
 29 31  1  0  0  0  0
 31 32  1  0  0  0  0
 31 33  1  0  0  0  0
 33 34  1  0  0  0  0
 33 35  1  0  0  0  0
 33 36  1  0  0  0  0
M  END
$$$$

  -OEChem-03222214083D

 36 37  0     1  0  0  0  0  0999 V2000
   -3.8757   -4.4157    1.5439 H   0  0  0  0  0  0  0  0  0  0  0  0
   -3.8127   -3.6388    0.7769 C   0  0  0  0  0  0  0  0  0  0  0  0
   -4.5881   -2.8927    0.9673 H   0  0  0  0  0  0  0  0  0  0  0  0
   -3.9862   -4.0944   -0.2009 H   0  0  0  0  0  0  0  0  0  0  0  0
   -2.4449   -2.9836    0.8072 C   0  0  0  0  0  0  0  0  0  0  0  0
   -1.6114   -3.3447    1.6235 O   0  0  0  0  0  0  0  0  0  0  0  0
   -2.1498   -1.9725   -0.0823 N   0  0  0  0  0  0  0  0  0  0  0  0
   -2.9101   -1.6247   -0.6648 H   0  0  0  0  0  0  0  0  0  0  0  0
   -0.9253   -1.1595   -0.0404 C   0  0  1  0  0  0  0  0  0  0  0  0
   -0.4619   -1.2682    0.9437 H   0  0  0  0  0  0  0  0  0  0  0  0
    0.0531   -1.6218   -1.1294 C   0  0  0  0  0  0  0  0  0  0  0  0
    0.1078   -2.7151   -1.1335 H   0  0  0  0  0  0  0  0  0  0  0  0
   -0.3200   -1.3081   -2.1093 H   0  0  0  0  0  0  0  0  0  0  0  0
    1.4443   -1.0789   -0.8999 C   0  0  0  0  0  0  0  0  0  0  0  0
    2.1309   -1.0507    0.2936 C   0  0  0  0  0  0  0  0  0  0  0  0
    1.7870   -1.4782    1.2338 H   0  0  0  0  0  0  0  0  0  0  0  0
    3.3430   -0.4029    0.0728 N   0  0  0  0  0  0  0  0  0  0  0  0
    4.0774   -0.2720    0.7660 H   0  0  0  0  0  0  0  0  0  0  0  0
    3.4398   -0.0025   -1.2492 C   0  0  0  0  0  0  0  0  0  0  0  0
    4.4451    0.6754   -1.9382 C   0  0  0  0  0  0  0  0  0  0  0  0
    5.3511    0.9788   -1.4254 H   0  0  0  0  0  0  0  0  0  0  0  0
    4.2670    0.9595   -3.2993 C   0  0  0  0  0  0  0  0  0  0  0  0
    5.0404    1.4876   -3.8490 H   0  0  0  0  0  0  0  0  0  0  0  0
    3.0898    0.5626   -3.9520 C   0  0  0  0  0  0  0  0  0  0  0  0
    2.9526    0.7848   -5.0059 H   0  0  0  0  0  0  0  0  0  0  0  0
    2.0877   -0.1216   -3.2491 C   0  0  0  0  0  0  0  0  0  0  0  0
    1.1777   -0.4290   -3.7538 H   0  0  0  0  0  0  0  0  0  0  0  0
    2.2732   -0.4030   -1.8912 C   0  0  0  0  0  0  0  0  0  0  0  0
   -1.2545    0.3343   -0.2337 C   0  0  0  0  0  0  0  0  0  0  0  0
   -2.1498    0.6572   -1.0084 O   0  0  0  0  0  0  0  0  0  0  0  0
   -0.6743    1.2970    0.5714 N   0  0  0  0  0  0  0  0  0  0  0  0
    0.1382    1.0131    1.1112 H   0  0  0  0  0  0  0  0  0  0  0  0
   -0.9470    2.7209    0.4210 C   0  0  0  0  0  0  0  0  0  0  0  0
   -2.0078    2.9287    0.5963 H   0  0  0  0  0  0  0  0  0  0  0  0
   -0.3601    3.2962    1.1433 H   0  0  0  0  0  0  0  0  0  0  0  0
   -0.6830    3.0576   -0.5871 H   0  0  0  0  0  0  0  0  0  0  0  0
  1  2  1  0  0  0  0
  2  3  1  0  0  0  0
  2  4  1  0  0  0  0
  2  5  1  0  0  0  0
  5  6  2  0  0  0  0
  5  7  1  0  0  0  0
  7  8  1  0  0  0  0
  7  9  1  0  0  0  0
  9 10  1  0  0  0  0
  9 11  1  0  0  0  0
  9 29  1  0  0  0  0
 11 12  1  0  0  0  0
 11 13  1  0  0  0  0
 11 14  1  0  0  0  0
 14 15  2  0  0  0  0
 14 28  1  0  0  0  0
 15 16  1  0  0  0  0
 15 17  1  0  0  0  0
 17 18  1  0  0  0  0
 17 19  1  0  0  0  0
 19 20  1  0  0  0  0
 19 28  2  0  0  0  0
 20 21  1  0  0  0  0
 20 22  2  0  0  0  0
 22 23  1  0  0  0  0
 22 24  1  0  0  0  0
 24 25  1  0  0  0  0
 24 26  2  0  0  0  0
 26 27  1  0  0  0  0
 26 28  1  0  0  0  0
 29 30  2  0  0  0  0
 29 31  1  0  0  0  0
 31 32  1  0  0  0  0
 31 33  1  0  0  0  0
 33 34  1  0  0  0  0
 33 35  1  0  0  0  0
 33 36  1  0  0  0  0
M  END
$$$$

  -OEChem-03222214083D

 36 37  0     1  0  0  0  0  0999 V2000
   -3.8333   -4.4093    1.5976 H   0  0  0  0  0  0  0  0  0  0  0  0
   -3.7927   -3.6301    0.8312 C   0  0  0  0  0  0  0  0  0  0  0  0
   -4.5594   -2.8822    1.0475 H   0  0  0  0  0  0  0  0  0  0  0  0
   -3.9984   -4.0823   -0.1420 H   0  0  0  0  0  0  0  0  0  0  0  0
   -2.4228   -2.9791    0.8210 C   0  0  0  0  0  0  0  0  0  0  0  0
   -1.5651   -3.3473    1.6084 O   0  0  0  0  0  0  0  0  0  0  0  0
   -2.1479   -1.9755   -0.0832 N   0  0  0  0  0  0  0  0  0  0  0  0
   -2.9229   -1.6258   -0.6445 H   0  0  0  0  0  0  0  0  0  0  0  0
   -0.9165   -1.1725   -0.0837 C   0  0  1  0  0  0  0  0  0  0  0  0
   -0.4245   -1.2783    0.8876 H   0  0  0  0  0  0  0  0  0  0  0  0
    0.0316   -1.6534   -1.1877 C   0  0  0  0  0  0  0  0  0  0  0  0
    0.0882   -2.7465   -1.1693 H   0  0  0  0  0  0  0  0  0  0  0  0
   -0.3512   -1.3596   -2.1699 H   0  0  0  0  0  0  0  0  0  0  0  0
    1.4153   -1.0983   -0.9654 C   0  0  0  0  0  0  0  0  0  0  0  0
    2.2015   -1.3173    0.1417 C   0  0  0  0  0  0  0  0  0  0  0  0
    1.9505   -1.9736    0.9740 H   0  0  0  0  0  0  0  0  0  0  0  0
    3.3584   -0.5567   -0.0048 N   0  0  0  0  0  0  0  0  0  0  0  0
    4.1423   -0.5460    0.6451 H   0  0  0  0  0  0  0  0  0  0  0  0
    3.3138    0.1655   -1.1867 C   0  0  0  0  0  0  0  0  0  0  0  0
    4.2147    1.0630   -1.7601 C   0  0  0  0  0  0  0  0  0  0  0  0
    5.1517    1.2903   -1.2643 H   0  0  0  0  0  0  0  0  0  0  0  0
    3.8913    1.6677   -2.9830 C   0  0  0  0  0  0  0  0  0  0  0  0
    4.5824    2.3688   -3.4417 H   0  0  0  0  0  0  0  0  0  0  0  0
    2.6739    1.3704   -3.6148 C   0  0  0  0  0  0  0  0  0  0  0  0
    2.4236    1.8432   -4.5597 H   0  0  0  0  0  0  0  0  0  0  0  0
    1.7775    0.4641   -3.0308 C   0  0  0  0  0  0  0  0  0  0  0  0
    0.8345    0.2352   -3.5166 H   0  0  0  0  0  0  0  0  0  0  0  0
    2.1110   -0.1401   -1.8141 C   0  0  0  0  0  0  0  0  0  0  0  0
   -1.2238    0.3256   -0.2749 C   0  0  0  0  0  0  0  0  0  0  0  0
   -2.1249    0.6629   -1.0365 O   0  0  0  0  0  0  0  0  0  0  0  0
   -0.6000    1.2779    0.5096 N   0  0  0  0  0  0  0  0  0  0  0  0
    0.2283    0.9737    1.0144 H   0  0  0  0  0  0  0  0  0  0  0  0
   -0.8093    2.7081    0.3252 C   0  0  0  0  0  0  0  0  0  0  0  0
   -1.8653    2.9624    0.4640 H   0  0  0  0  0  0  0  0  0  0  0  0
   -0.2211    3.2730    1.0547 H   0  0  0  0  0  0  0  0  0  0  0  0
   -0.5014    3.0137   -0.6803 H   0  0  0  0  0  0  0  0  0  0  0  0
  1  2  1  0  0  0  0
  2  3  1  0  0  0  0
  2  4  1  0  0  0  0
  2  5  1  0  0  0  0
  5  6  2  0  0  0  0
  5  7  1  0  0  0  0
  7  8  1  0  0  0  0
  7  9  1  0  0  0  0
  9 10  1  0  0  0  0
  9 11  1  0  0  0  0
  9 29  1  0  0  0  0
 11 12  1  0  0  0  0
 11 13  1  0  0  0  0
 11 14  1  0  0  0  0
 14 15  2  0  0  0  0
 14 28  1  0  0  0  0
 15 16  1  0  0  0  0
 15 17  1  0  0  0  0
 17 18  1  0  0  0  0
 17 19  1  0  0  0  0
 19 20  1  0  0  0  0
 19 28  2  0  0  0  0
 20 21  1  0  0  0  0
 20 22  2  0  0  0  0
 22 23  1  0  0  0  0
 22 24  1  0  0  0  0
 24 25  1  0  0  0  0
 24 26  2  0  0  0  0
 26 27  1  0  0  0  0
 26 28  1  0  0  0  0
 29 30  2  0  0  0  0
 29 31  1  0  0  0  0
 31 32  1  0  0  0  0
 31 33  1  0  0  0  0
 33 34  1  0  0  0  0
 33 35  1  0  0  0  0
 33 36  1  0  0  0  0
M  END
$$$$

  -OEChem-03222214083D

 36 37  0     1  0  0  0  0  0999 V2000
   -3.7965   -4.3903    1.6309 H   0  0  0  0  0  0  0  0  0  0  0  0
   -3.7687   -3.6121    0.8630 C   0  0  0  0  0  0  0  0  0  0  0  0
   -4.5224   -2.8571    1.0995 H   0  0  0  0  0  0  0  0  0  0  0  0
   -4.0046   -4.0630   -0.1040 H   0  0  0  0  0  0  0  0  0  0  0  0
   -2.3933   -2.9736    0.8156 C   0  0  0  0  0  0  0  0  0  0  0  0
   -1.5174   -3.3524    1.5776 O   0  0  0  0  0  0  0  0  0  0  0  0
   -2.1351   -1.9696   -0.0931 N   0  0  0  0  0  0  0  0  0  0  0  0
   -2.9214   -1.6164   -0.6362 H   0  0  0  0  0  0  0  0  0  0  0  0
   -0.9031   -1.1676   -0.1158 C   0  0  1  0  0  0  0  0  0  0  0  0
   -0.3888   -1.2744    0.8449 H   0  0  0  0  0  0  0  0  0  0  0  0
    0.0251   -1.6520   -1.2338 C   0  0  0  0  0  0  0  0  0  0  0  0
    0.0836   -2.7449   -1.2063 H   0  0  0  0  0  0  0  0  0  0  0  0
   -0.3636   -1.3662   -2.2165 H   0  0  0  0  0  0  0  0  0  0  0  0
    1.4040   -1.0881   -1.0178 C   0  0  0  0  0  0  0  0  0  0  0  0
    2.3060   -1.5199   -0.0755 C   0  0  0  0  0  0  0  0  0  0  0  0
    2.1603   -2.3643    0.5966 H   0  0  0  0  0  0  0  0  0  0  0  0
    3.4141   -0.6783   -0.1384 N   0  0  0  0  0  0  0  0  0  0  0  0
    4.2549   -0.7699    0.4289 H   0  0  0  0  0  0  0  0  0  0  0  0
    3.2203    0.3049   -1.0958 C   0  0  0  0  0  0  0  0  0  0  0  0
    4.0193    1.3708   -1.5086 C   0  0  0  0  0  0  0  0  0  0  0  0
    4.9947    1.5279   -1.0618 H   0  0  0  0  0  0  0  0  0  0  0  0
    3.5432    2.2358   -2.5041 C   0  0  0  0  0  0  0  0  0  0  0  0
    4.1549    3.0697   -2.8359 H   0  0  0  0  0  0  0  0  0  0  0  0
    2.2758    2.0278   -3.0704 C   0  0  0  0  0  0  0  0  0  0  0  0
    1.9065    2.7019   -3.8373 H   0  0  0  0  0  0  0  0  0  0  0  0
    1.4824    0.9509   -2.6504 C   0  0  0  0  0  0  0  0  0  0  0  0
    0.4985    0.7906   -3.0810 H   0  0  0  0  0  0  0  0  0  0  0  0
    1.9704    0.0877   -1.6639 C   0  0  0  0  0  0  0  0  0  0  0  0
   -1.2120    0.3308   -0.3000 C   0  0  0  0  0  0  0  0  0  0  0  0
   -2.1075    0.6721   -1.0668 O   0  0  0  0  0  0  0  0  0  0  0  0
   -0.5732    1.2820    0.4734 N   0  0  0  0  0  0  0  0  0  0  0  0
    0.2615    0.9716    0.9643 H   0  0  0  0  0  0  0  0  0  0  0  0
   -0.7489    2.7121    0.2576 C   0  0  0  0  0  0  0  0  0  0  0  0
   -1.7991    2.9941    0.3868 H   0  0  0  0  0  0  0  0  0  0  0  0
   -0.1497    3.2781    0.9773 H   0  0  0  0  0  0  0  0  0  0  0  0
   -0.4298    2.9880   -0.7530 H   0  0  0  0  0  0  0  0  0  0  0  0
  1  2  1  0  0  0  0
  2  3  1  0  0  0  0
  2  4  1  0  0  0  0
  2  5  1  0  0  0  0
  5  6  2  0  0  0  0
  5  7  1  0  0  0  0
  7  8  1  0  0  0  0
  7  9  1  0  0  0  0
  9 10  1  0  0  0  0
  9 11  1  0  0  0  0
  9 29  1  0  0  0  0
 11 12  1  0  0  0  0
 11 13  1  0  0  0  0
 11 14  1  0  0  0  0
 14 15  2  0  0  0  0
 14 28  1  0  0  0  0
 15 16  1  0  0  0  0
 15 17  1  0  0  0  0
 17 18  1  0  0  0  0
 17 19  1  0  0  0  0
 19 20  1  0  0  0  0
 19 28  2  0  0  0  0
 20 21  1  0  0  0  0
 20 22  2  0  0  0  0
 22 23  1  0  0  0  0
 22 24  1  0  0  0  0
 24 25  1  0  0  0  0
 24 26  2  0  0  0  0
 26 27  1  0  0  0  0
 26 28  1  0  0  0  0
 29 30  2  0  0  0  0
 29 31  1  0  0  0  0
 31 32  1  0  0  0  0
 31 33  1  0  0  0  0
 33 34  1  0  0  0  0
 33 35  1  0  0  0  0
 33 36  1  0  0  0  0
M  END
$$$$

  -OEChem-03222214083D

 36 37  0     1  0  0  0  0  0999 V2000
   -3.7707   -4.4226    1.5630 H   0  0  0  0  0  0  0  0  0  0  0  0
   -3.7432   -3.6444    0.7951 C   0  0  0  0  0  0  0  0  0  0  0  0
   -4.5132   -2.9021    1.0190 H   0  0  0  0  0  0  0  0  0  0  0  0
   -3.9560   -4.0992   -0.1754 H   0  0  0  0  0  0  0  0  0  0  0  0
   -2.3777   -2.9838    0.7695 C   0  0  0  0  0  0  0  0  0  0  0  0
   -1.4942   -3.3779    1.5143 O   0  0  0  0  0  0  0  0  0  0  0  0
   -2.1366   -1.9434   -0.1020 N   0  0  0  0  0  0  0  0  0  0  0  0
   -2.9295   -1.5850   -0.6319 H   0  0  0  0  0  0  0  0  0  0  0  0
   -0.9217   -1.1147   -0.0938 C   0  0  1  0  0  0  0  0  0  0  0  0
   -0.4103   -1.2384    0.8665 H   0  0  0  0  0  0  0  0  0  0  0  0
    0.0249   -1.5727   -1.2096 C   0  0  0  0  0  0  0  0  0  0  0  0
    0.0940   -2.6652   -1.1943 H   0  0  0  0  0  0  0  0  0  0  0  0
   -0.3608   -1.2795   -2.1913 H   0  0  0  0  0  0  0  0  0  0  0  0
    1.3980   -0.9961   -0.9885 C   0  0  0  0  0  0  0  0  0  0  0  0
    2.4069   -1.5858   -0.2670 C   0  0  0  0  0  0  0  0  0  0  0  0
    2.3451   -2.5525    0.2299 H   0  0  0  0  0  0  0  0  0  0  0  0
    3.4956   -0.7165   -0.2808 N   0  0  0  0  0  0  0  0  0  0  0  0
    4.3944   -0.8942    0.1635 H   0  0  0  0  0  0  0  0  0  0  0  0
    3.1977    0.4214   -1.0141 C   0  0  0  0  0  0  0  0  0  0  0  0
    3.9482    1.5584   -1.3140 C   0  0  0  0  0  0  0  0  0  0  0  0
    4.9633    1.6563   -0.9456 H   0  0  0  0  0  0  0  0  0  0  0  0
    3.3740    2.5690   -2.0984 C   0  0  0  0  0  0  0  0  0  0  0  0
    3.9472    3.4588   -2.3411 H   0  0  0  0  0  0  0  0  0  0  0  0
    2.0610    2.4306   -2.5738 C   0  0  0  0  0  0  0  0  0  0  0  0
    1.6183    3.2126   -3.1835 H   0  0  0  0  0  0  0  0  0  0  0  0
    1.3162    1.2833   -2.2668 C   0  0  0  0  0  0  0  0  0  0  0  0
    0.2993    1.1738   -2.6324 H   0  0  0  0  0  0  0  0  0  0  0  0
    1.8955    0.2823   -1.4797 C   0  0  0  0  0  0  0  0  0  0  0  0
   -1.2669    0.3806   -0.2274 C   0  0  0  0  0  0  0  0  0  0  0  0
   -2.1697    0.7274   -0.9829 O   0  0  0  0  0  0  0  0  0  0  0  0
   -0.6525    1.3191    0.5808 N   0  0  0  0  0  0  0  0  0  0  0  0
    0.1866    1.0122    1.0669 H   0  0  0  0  0  0  0  0  0  0  0  0
   -0.8816    2.7511    0.4405 C   0  0  0  0  0  0  0  0  0  0  0  0
   -1.9422    2.9861    0.5780 H   0  0  0  0  0  0  0  0  0  0  0  0
   -0.3077    3.2996    1.1934 H   0  0  0  0  0  0  0  0  0  0  0  0
   -0.5692    3.0934   -0.5515 H   0  0  0  0  0  0  0  0  0  0  0  0
  1  2  1  0  0  0  0
  2  3  1  0  0  0  0
  2  4  1  0  0  0  0
  2  5  1  0  0  0  0
  5  6  2  0  0  0  0
  5  7  1  0  0  0  0
  7  8  1  0  0  0  0
  7  9  1  0  0  0  0
  9 10  1  0  0  0  0
  9 11  1  0  0  0  0
  9 29  1  0  0  0  0
 11 12  1  0  0  0  0
 11 13  1  0  0  0  0
 11 14  1  0  0  0  0
 14 15  2  0  0  0  0
 14 28  1  0  0  0  0
 15 16  1  0  0  0  0
 15 17  1  0  0  0  0
 17 18  1  0  0  0  0
 17 19  1  0  0  0  0
 19 20  1  0  0  0  0
 19 28  2  0  0  0  0
 20 21  1  0  0  0  0
 20 22  2  0  0  0  0
 22 23  1  0  0  0  0
 22 24  1  0  0  0  0
 24 25  1  0  0  0  0
 24 26  2  0  0  0  0
 26 27  1  0  0  0  0
 26 28  1  0  0  0  0
 29 30  2  0  0  0  0
 29 31  1  0  0  0  0
 31 32  1  0  0  0  0
 31 33  1  0  0  0  0
 33 34  1  0  0  0  0
 33 35  1  0  0  0  0
 33 36  1  0  0  0  0
M  END
$$$$

  -OEChem-03222214083D

 36 37  0     1  0  0  0  0  0999 V2000
   -3.7533   -4.4916    1.4473 H   0  0  0  0  0  0  0  0  0  0  0  0
   -3.7215   -3.6987    0.6949 C   0  0  0  0  0  0  0  0  0  0  0  0
   -4.5184   -2.9815    0.9060 H   0  0  0  0  0  0  0  0  0  0  0  0
   -3.8897   -4.1406   -0.2902 H   0  0  0  0  0  0  0  0  0  0  0  0
   -2.3745   -3.0017    0.7266 C   0  0  0  0  0  0  0  0  0  0  0  0
   -1.4954   -3.4038    1.4720 O   0  0  0  0  0  0  0  0  0  0  0  0
   -2.1455   -1.9202   -0.0968 N   0  0  0  0  0  0  0  0  0  0  0  0
   -2.9393   -1.5603   -0.6245 H   0  0  0  0  0  0  0  0  0  0  0  0
   -0.9536   -1.0604   -0.0341 C   0  0  1  0  0  0  0  0  0  0  0  0
   -0.4576   -1.2039    0.9316 H   0  0  0  0  0  0  0  0  0  0  0  0
    0.0252   -1.4849   -1.1395 C   0  0  0  0  0  0  0  0  0  0  0  0
    0.1023   -2.5772   -1.1459 H   0  0  0  0  0  0  0  0  0  0  0  0
   -0.3529   -1.1755   -2.1193 H   0  0  0  0  0  0  0  0  0  0  0  0
    1.3967   -0.9027   -0.9099 C   0  0  0  0  0  0  0  0  0  0  0  0
    2.4804   -1.6097   -0.4482 C   0  0  0  0  0  0  0  0  0  0  0  0
    2.4688   -2.6558   -0.1475 H   0  0  0  0  0  0  0  0  0  0  0  0
    3.5704   -0.7437   -0.4191 N   0  0  0  0  0  0  0  0  0  0  0  0
    4.5116   -0.9935   -0.1220 H   0  0  0  0  0  0  0  0  0  0  0  0
    3.2124    0.4980   -0.9164 C   0  0  0  0  0  0  0  0  0  0  0  0
    3.9562    1.6604   -1.1187 C   0  0  0  0  0  0  0  0  0  0  0  0
    5.0053    1.6932   -0.8464 H   0  0  0  0  0  0  0  0  0  0  0  0
    3.3330    2.7791   -1.6885 C   0  0  0  0  0  0  0  0  0  0  0  0
    3.8995    3.6907   -1.8544 H   0  0  0  0  0  0  0  0  0  0  0  0
    1.9814    2.7172   -2.0592 C   0  0  0  0  0  0  0  0  0  0  0  0
    1.5027    3.5790   -2.5149 H   0  0  0  0  0  0  0  0  0  0  0  0
    1.2452    1.5425   -1.8515 C   0  0  0  0  0  0  0  0  0  0  0  0
    0.2038    1.4932   -2.1543 H   0  0  0  0  0  0  0  0  0  0  0  0
    1.8651    0.4370   -1.2569 C   0  0  0  0  0  0  0  0  0  0  0  0
   -1.3483    0.4254   -0.1140 C   0  0  0  0  0  0  0  0  0  0  0  0
   -2.2531    0.7729   -0.8666 O   0  0  0  0  0  0  0  0  0  0  0  0
   -0.7799    1.3500    0.7424 N   0  0  0  0  0  0  0  0  0  0  0  0
    0.0537    1.0527    1.2437 H   0  0  0  0  0  0  0  0  0  0  0  0
   -1.0987    2.7712    0.7061 C   0  0  0  0  0  0  0  0  0  0  0  0
   -2.1728    2.9278    0.8511 H   0  0  0  0  0  0  0  0  0  0  0  0
   -0.5646    3.2970    1.5034 H   0  0  0  0  0  0  0  0  0  0  0  0
   -0.8048    3.2060   -0.2546 H   0  0  0  0  0  0  0  0  0  0  0  0
  1  2  1  0  0  0  0
  2  3  1  0  0  0  0
  2  4  1  0  0  0  0
  2  5  1  0  0  0  0
  5  6  2  0  0  0  0
  5  7  1  0  0  0  0
  7  8  1  0  0  0  0
  7  9  1  0  0  0  0
  9 10  1  0  0  0  0
  9 11  1  0  0  0  0
  9 29  1  0  0  0  0
 11 12  1  0  0  0  0
 11 13  1  0  0  0  0
 11 14  1  0  0  0  0
 14 15  2  0  0  0  0
 14 28  1  0  0  0  0
 15 16  1  0  0  0  0
 15 17  1  0  0  0  0
 17 18  1  0  0  0  0
 17 19  1  0  0  0  0
 19 20  1  0  0  0  0
 19 28  2  0  0  0  0
 20 21  1  0  0  0  0
 20 22  2  0  0  0  0
 22 23  1  0  0  0  0
 22 24  1  0  0  0  0
 24 25  1  0  0  0  0
 24 26  2  0  0  0  0
 26 27  1  0  0  0  0
 26 28  1  0  0  0  0
 29 30  2  0  0  0  0
 29 31  1  0  0  0  0
 31 32  1  0  0  0  0
 31 33  1  0  0  0  0
 33 34  1  0  0  0  0
 33 35  1  0  0  0  0
 33 36  1  0  0  0  0
M  END
$$$$

  -OEChem-03222214083D

 36 37  0     1  0  0  0  0  0999 V2000
   -3.7399   -4.5627    1.3314 H   0  0  0  0  0  0  0  0  0  0  0  0
   -3.7050   -3.7516    0.5986 C   0  0  0  0  0  0  0  0  0  0  0  0
   -4.5229   -3.0566    0.8043 H   0  0  0  0  0  0  0  0  0  0  0  0
   -3.8364   -4.1728   -0.4011 H   0  0  0  0  0  0  0  0  0  0  0  0
   -2.3746   -3.0276    0.6846 C   0  0  0  0  0  0  0  0  0  0  0  0
   -1.5069   -3.4329    1.4412 O   0  0  0  0  0  0  0  0  0  0  0  0
   -2.1507   -1.9134   -0.0953 N   0  0  0  0  0  0  0  0  0  0  0  0
   -2.9387   -1.5555   -0.6333 H   0  0  0  0  0  0  0  0  0  0  0  0
   -0.9846   -1.0247    0.0320 C   0  0  1  0  0  0  0  0  0  0  0  0
   -0.5133   -1.1796    1.0084 H   0  0  0  0  0  0  0  0  0  0  0  0
    0.0340   -1.4228   -1.0521 C   0  0  0  0  0  0  0  0  0  0  0  0
    0.1122   -2.5148   -1.0810 H   0  0  0  0  0  0  0  0  0  0  0  0
   -0.3314   -1.0954   -2.0308 H   0  0  0  0  0  0  0  0  0  0  0  0
    1.4101   -0.8443   -0.8166 C   0  0  0  0  0  0  0  0  0  0  0  0
    2.5290   -1.6240   -0.6413 C   0  0  0  0  0  0  0  0  0  0  0  0
    2.5321   -2.7093   -0.5618 H   0  0  0  0  0  0  0  0  0  0  0  0
    3.6328   -0.7832   -0.5511 N   0  0  0  0  0  0  0  0  0  0  0  0
    4.5936   -1.0864   -0.4050 H   0  0  0  0  0  0  0  0  0  0  0  0
    3.2528    0.5265   -0.7789 C   0  0  0  0  0  0  0  0  0  0  0  0
    4.0132    1.6929   -0.8568 C   0  0  0  0  0  0  0  0  0  0  0  0
    5.0826    1.6615   -0.6793 H   0  0  0  0  0  0  0  0  0  0  0  0
    3.3810    2.8979   -1.1876 C   0  0  0  0  0  0  0  0  0  0  0  0
    3.9598    3.8143   -1.2562 H   0  0  0  0  0  0  0  0  0  0  0  0
    2.0058    2.9137   -1.4588 C   0  0  0  0  0  0  0  0  0  0  0  0
    1.5199    3.8412   -1.7461 H   0  0  0  0  0  0  0  0  0  0  0  0
    1.2555    1.7323   -1.3772 C   0  0  0  0  0  0  0  0  0  0  0  0
    0.2008    1.7537   -1.6288 H   0  0  0  0  0  0  0  0  0  0  0  0
    1.8769    0.5357   -0.9938 C   0  0  0  0  0  0  0  0  0  0  0  0
   -1.4385    0.4448   -0.0130 C   0  0  0  0  0  0  0  0  0  0  0  0
   -2.3361    0.7813   -0.7791 O   0  0  0  0  0  0  0  0  0  0  0  0
   -0.9361    1.3644    0.8893 N   0  0  0  0  0  0  0  0  0  0  0  0
   -0.1258    1.0799    1.4347 H   0  0  0  0  0  0  0  0  0  0  0  0
   -1.3528    2.7605    0.9286 C   0  0  0  0  0  0  0  0  0  0  0  0
   -2.4290    2.8334    1.1170 H   0  0  0  0  0  0  0  0  0  0  0  0
   -0.8263    3.2876    1.7301 H   0  0  0  0  0  0  0  0  0  0  0  0
   -1.1264    3.2577   -0.0202 H   0  0  0  0  0  0  0  0  0  0  0  0
  1  2  1  0  0  0  0
  2  3  1  0  0  0  0
  2  4  1  0  0  0  0
  2  5  1  0  0  0  0
  5  6  2  0  0  0  0
  5  7  1  0  0  0  0
  7  8  1  0  0  0  0
  7  9  1  0  0  0  0
  9 10  1  0  0  0  0
  9 11  1  0  0  0  0
  9 29  1  0  0  0  0
 11 12  1  0  0  0  0
 11 13  1  0  0  0  0
 11 14  1  0  0  0  0
 14 15  2  0  0  0  0
 14 28  1  0  0  0  0
 15 16  1  0  0  0  0
 15 17  1  0  0  0  0
 17 18  1  0  0  0  0
 17 19  1  0  0  0  0
 19 20  1  0  0  0  0
 19 28  2  0  0  0  0
 20 21  1  0  0  0  0
 20 22  2  0  0  0  0
 22 23  1  0  0  0  0
 22 24  1  0  0  0  0
 24 25  1  0  0  0  0
 24 26  2  0  0  0  0
 26 27  1  0  0  0  0
 26 28  1  0  0  0  0
 29 30  2  0  0  0  0
 29 31  1  0  0  0  0
 31 32  1  0  0  0  0
 31 33  1  0  0  0  0
 33 34  1  0  0  0  0
 33 35  1  0  0  0  0
 33 36  1  0  0  0  0
M  END
$$$$

  -OEChem-03222214083D

 36 37  0     1  0  0  0  0  0999 V2000
   -3.7169   -4.6774    1.1242 H   0  0  0  0  0  0  0  0  0  0  0  0
   -3.6864   -3.8156    0.4517 C   0  0  0  0  0  0  0  0  0  0  0  0
   -4.5420   -3.1710    0.6671 H   0  0  0  0  0  0  0  0  0  0  0  0
   -3.7560   -4.1699   -0.5795 H   0  0  0  0  0  0  0  0  0  0  0  0
   -2.3942   -3.0452    0.6473 C   0  0  0  0  0  0  0  0  0  0  0  0
   -1.5666   -3.4349    1.4551 O   0  0  0  0  0  0  0  0  0  0  0  0
   -2.1578   -1.9076   -0.0947 N   0  0  0  0  0  0  0  0  0  0  0  0
   -2.9196   -1.5647   -0.6784 H   0  0  0  0  0  0  0  0  0  0  0  0
   -1.0233   -0.9915    0.1105 C   0  0  1  0  0  0  0  0  0  0  0  0
   -0.5965   -1.1494    1.1067 H   0  0  0  0  0  0  0  0  0  0  0  0
    0.0489   -1.3842   -0.9290 C   0  0  0  0  0  0  0  0  0  0  0  0
    0.1205   -2.4767   -0.9605 H   0  0  0  0  0  0  0  0  0  0  0  0
   -0.2909   -1.0530   -1.9156 H   0  0  0  0  0  0  0  0  0  0  0  0
    1.4368   -0.8241   -0.6918 C   0  0  0  0  0  0  0  0  0  0  0  0
    2.5501   -1.6259   -0.8032 C   0  0  0  0  0  0  0  0  0  0  0  0
    2.5325   -2.7051   -0.9419 H   0  0  0  0  0  0  0  0  0  0  0  0
    3.6820   -0.8351   -0.6549 N   0  0  0  0  0  0  0  0  0  0  0  0
    4.6427   -1.1714   -0.6680 H   0  0  0  0  0  0  0  0  0  0  0  0
    3.3209    0.4958   -0.6037 C   0  0  0  0  0  0  0  0  0  0  0  0
    4.1196    1.6377   -0.5530 C   0  0  0  0  0  0  0  0  0  0  0  0
    5.1973    1.5499   -0.4716 H   0  0  0  0  0  0  0  0  0  0  0  0
    3.5130    2.8953   -0.6379 C   0  0  0  0  0  0  0  0  0  0  0  0
    4.1192    3.7957   -0.6043 H   0  0  0  0  0  0  0  0  0  0  0  0
    2.1261    2.9869   -0.8112 C   0  0  0  0  0  0  0  0  0  0  0  0
    1.6575    3.9597   -0.9267 H   0  0  0  0  0  0  0  0  0  0  0  0
    1.3410    1.8262   -0.8610 C   0  0  0  0  0  0  0  0  0  0  0  0
    0.2830    1.9231   -1.0664 H   0  0  0  0  0  0  0  0  0  0  0  0
    1.9310    0.5648   -0.6930 C   0  0  0  0  0  0  0  0  0  0  0  0
   -1.5322    0.4589    0.0699 C   0  0  0  0  0  0  0  0  0  0  0  0
   -2.3988    0.7815   -0.7365 O   0  0  0  0  0  0  0  0  0  0  0  0
   -1.1117    1.3748    1.0173 N   0  0  0  0  0  0  0  0  0  0  0  0
   -0.3530    1.0922    1.6334 H   0  0  0  0  0  0  0  0  0  0  0  0
   -1.6184    2.7387    1.1018 C   0  0  0  0  0  0  0  0  0  0  0  0
   -2.6901    2.7347    1.3266 H   0  0  0  0  0  0  0  0  0  0  0  0
   -1.1001    3.2844    1.8961 H   0  0  0  0  0  0  0  0  0  0  0  0
   -1.4581    3.2693    0.1575 H   0  0  0  0  0  0  0  0  0  0  0  0
  1  2  1  0  0  0  0
  2  3  1  0  0  0  0
  2  4  1  0  0  0  0
  2  5  1  0  0  0  0
  5  6  2  0  0  0  0
  5  7  1  0  0  0  0
  7  8  1  0  0  0  0
  7  9  1  0  0  0  0
  9 10  1  0  0  0  0
  9 11  1  0  0  0  0
  9 29  1  0  0  0  0
 11 12  1  0  0  0  0
 11 13  1  0  0  0  0
 11 14  1  0  0  0  0
 14 15  2  0  0  0  0
 14 28  1  0  0  0  0
 15 16  1  0  0  0  0
 15 17  1  0  0  0  0
 17 18  1  0  0  0  0
 17 19  1  0  0  0  0
 19 20  1  0  0  0  0
 19 28  2  0  0  0  0
 20 21  1  0  0  0  0
 20 22  2  0  0  0  0
 22 23  1  0  0  0  0
 22 24  1  0  0  0  0
 24 25  1  0  0  0  0
 24 26  2  0  0  0  0
 26 27  1  0  0  0  0
 26 28  1  0  0  0  0
 29 30  2  0  0  0  0
 29 31  1  0  0  0  0
 31 32  1  0  0  0  0
 31 33  1  0  0  0  0
 33 34  1  0  0  0  0
 33 35  1  0  0  0  0
 33 36  1  0  0  0  0
M  END
$$$$

  -OEChem-03222214083D

 36 37  0     1  0  0  0  0  0999 V2000
   -3.7198   -4.7116    0.9790 H   0  0  0  0  0  0  0  0  0  0  0  0
   -3.6607   -3.8506    0.3074 C   0  0  0  0  0  0  0  0  0  0  0  0
   -4.5507   -3.2325    0.4482 H   0  0  0  0  0  0  0  0  0  0  0  0
   -3.6345   -4.2098   -0.7242 H   0  0  0  0  0  0  0  0  0  0  0  0
   -2.4142   -3.0386    0.6056 C   0  0  0  0  0  0  0  0  0  0  0  0
   -1.6605   -3.3822    1.5014 O   0  0  0  0  0  0  0  0  0  0  0  0
   -2.1409   -1.9088   -0.1352 N   0  0  0  0  0  0  0  0  0  0  0  0
   -2.8532   -1.6011   -0.7963 H   0  0  0  0  0  0  0  0  0  0  0  0
   -1.0616   -0.9498    0.1597 C   0  0  1  0  0  0  0  0  0  0  0  0
   -0.7103   -1.0657    1.1903 H   0  0  0  0  0  0  0  0  0  0  0  0
    0.0852   -1.3631   -0.7972 C   0  0  0  0  0  0  0  0  0  0  0  0
    0.1486   -2.4570   -0.7945 H   0  0  0  0  0  0  0  0  0  0  0  0
   -0.2105   -1.0623   -1.8076 H   0  0  0  0  0  0  0  0  0  0  0  0
    1.4913   -0.8328   -0.5635 C   0  0  0  0  0  0  0  0  0  0  0  0
    2.5552   -1.6244   -0.9382 C   0  0  0  0  0  0  0  0  0  0  0  0
    2.4745   -2.6485   -1.2966 H   0  0  0  0  0  0  0  0  0  0  0  0
    3.7348   -0.9319   -0.7089 N   0  0  0  0  0  0  0  0  0  0  0  0
    4.6734   -1.2949   -0.8611 H   0  0  0  0  0  0  0  0  0  0  0  0
    3.4477    0.3650   -0.3431 C   0  0  0  0  0  0  0  0  0  0  0  0
    4.3197    1.4273   -0.1085 C   0  0  0  0  0  0  0  0  0  0  0  0
    5.3924    1.2694   -0.1207 H   0  0  0  0  0  0  0  0  0  0  0  0
    3.7902    2.7022    0.1120 C   0  0  0  0  0  0  0  0  0  0  0  0
    4.4521    3.5441    0.2927 H   0  0  0  0  0  0  0  0  0  0  0  0
    2.4055    2.8958    0.0458 C   0  0  0  0  0  0  0  0  0  0  0  0
    1.9930    3.8943    0.1560 H   0  0  0  0  0  0  0  0  0  0  0  0
    1.5506    1.8103   -0.1938 C   0  0  0  0  0  0  0  0  0  0  0  0
    0.5027    2.0104   -0.3390 H   0  0  0  0  0  0  0  0  0  0  0  0
    2.0593    0.5102   -0.3179 C   0  0  0  0  0  0  0  0  0  0  0  0
   -1.6537    0.4649    0.0236 C   0  0  0  0  0  0  0  0  0  0  0  0
   -2.4403    0.7151   -0.8844 O   0  0  0  0  0  0  0  0  0  0  0  0
   -1.3949    1.4328    0.9773 N   0  0  0  0  0  0  0  0  0  0  0  0
   -0.7473    1.1927    1.7242 H   0  0  0  0  0  0  0  0  0  0  0  0
   -2.0105    2.7544    0.9710 C   0  0  0  0  0  0  0  0  0  0  0  0
   -3.0956    2.6712    1.0912 H   0  0  0  0  0  0  0  0  0  0  0  0
   -1.6164    3.3588    1.7936 H   0  0  0  0  0  0  0  0  0  0  0  0
   -1.7987    3.2731    0.0301 H   0  0  0  0  0  0  0  0  0  0  0  0
  1  2  1  0  0  0  0
  2  3  1  0  0  0  0
  2  4  1  0  0  0  0
  2  5  1  0  0  0  0
  5  6  2  0  0  0  0
  5  7  1  0  0  0  0
  7  8  1  0  0  0  0
  7  9  1  0  0  0  0
  9 10  1  0  0  0  0
  9 11  1  0  0  0  0
  9 29  1  0  0  0  0
 11 12  1  0  0  0  0
 11 13  1  0  0  0  0
 11 14  1  0  0  0  0
 14 15  2  0  0  0  0
 14 28  1  0  0  0  0
 15 16  1  0  0  0  0
 15 17  1  0  0  0  0
 17 18  1  0  0  0  0
 17 19  1  0  0  0  0
 19 20  1  0  0  0  0
 19 28  2  0  0  0  0
 20 21  1  0  0  0  0
 20 22  2  0  0  0  0
 22 23  1  0  0  0  0
 22 24  1  0  0  0  0
 24 25  1  0  0  0  0
 24 26  2  0  0  0  0
 26 27  1  0  0  0  0
 26 28  1  0  0  0  0
 29 30  2  0  0  0  0
 29 31  1  0  0  0  0
 31 32  1  0  0  0  0
 31 33  1  0  0  0  0
 33 34  1  0  0  0  0
 33 35  1  0  0  0  0
 33 36  1  0  0  0  0
M  END
$$$$

  -OEChem-03222214083D

 36 37  0     1  0  0  0  0  0999 V2000
   -3.3855   -4.5748    1.8730 H   0  0  0  0  0  0  0  0  0  0  0  0
   -3.4297   -3.8462    1.0587 C   0  0  0  0  0  0  0  0  0  0  0  0
   -4.3298   -3.2382    1.1785 H   0  0  0  0  0  0  0  0  0  0  0  0
   -3.4843   -4.3828    0.1084 H   0  0  0  0  0  0  0  0  0  0  0  0
   -2.1988   -2.9598    1.0827 C   0  0  0  0  0  0  0  0  0  0  0  0
   -1.3347   -3.1357    1.9259 O   0  0  0  0  0  0  0  0  0  0  0  0
   -2.0703   -1.9457    0.1592 N   0  0  0  0  0  0  0  0  0  0  0  0
   -2.8725   -1.7537   -0.4402 H   0  0  0  0  0  0  0  0  0  0  0  0
   -1.0005   -0.9341    0.1671 C   0  0  1  0  0  0  0  0  0  0  0  0
   -0.4605   -0.9264    1.1174 H   0  0  0  0  0  0  0  0  0  0  0  0
   -0.0593   -1.2541   -1.0076 C   0  0  0  0  0  0  0  0  0  0  0  0
    0.1073   -2.3367   -1.0079 H   0  0  0  0  0  0  0  0  0  0  0  0
   -0.5718   -1.0108   -1.9445 H   0  0  0  0  0  0  0  0  0  0  0  0
    1.3119   -0.6027   -1.0392 C   0  0  0  0  0  0  0  0  0  0  0  0
    2.2582   -1.1063   -1.9025 C   0  0  0  0  0  0  0  0  0  0  0  0
    2.0804   -1.8921   -2.6337 H   0  0  0  0  0  0  0  0  0  0  0  0
    3.4436   -0.4092   -1.7195 N   0  0  0  0  0  0  0  0  0  0  0  0
    4.3045   -0.5590   -2.2413 H   0  0  0  0  0  0  0  0  0  0  0  0
    3.3161    0.4587   -0.6553 C   0  0  0  0  0  0  0  0  0  0  0  0
    4.2718    1.2941   -0.0788 C   0  0  0  0  0  0  0  0  0  0  0  0
    5.2636    1.3716   -0.5104 H   0  0  0  0  0  0  0  0  0  0  0  0
    3.9406    2.0093    1.0760 C   0  0  0  0  0  0  0  0  0  0  0  0
    4.6733    2.6618    1.5417 H   0  0  0  0  0  0  0  0  0  0  0  0
    2.6747    1.8480    1.6515 C   0  0  0  0  0  0  0  0  0  0  0  0
    2.4332    2.3658    2.5749 H   0  0  0  0  0  0  0  0  0  0  0  0
    1.7293    1.0015    1.0546 C   0  0  0  0  0  0  0  0  0  0  0  0
    0.7949    0.8401    1.5659 H   0  0  0  0  0  0  0  0  0  0  0  0
    2.0222    0.3365   -0.1459 C   0  0  0  0  0  0  0  0  0  0  0  0
   -1.7008    0.4278   -0.0904 C   0  0  0  0  0  0  0  0  0  0  0  0
   -2.6141    0.4742   -0.9116 O   0  0  0  0  0  0  0  0  0  0  0  0
   -1.4275    1.5784    0.6266 N   0  0  0  0  0  0  0  0  0  0  0  0
   -0.6692    1.5486    1.2975 H   0  0  0  0  0  0  0  0  0  0  0  0
   -2.0789    2.8574    0.3703 C   0  0  0  0  0  0  0  0  0  0  0  0
   -3.1592    2.7772    0.5302 H   0  0  0  0  0  0  0  0  0  0  0  0
   -1.6859    3.6234    1.0458 H   0  0  0  0  0  0  0  0  0  0  0  0
   -1.8975    3.1794   -0.6607 H   0  0  0  0  0  0  0  0  0  0  0  0
  1  2  1  0  0  0  0
  2  3  1  0  0  0  0
  2  4  1  0  0  0  0
  2  5  1  0  0  0  0
  5  6  2  0  0  0  0
  5  7  1  0  0  0  0
  7  8  1  0  0  0  0
  7  9  1  0  0  0  0
  9 10  1  0  0  0  0
  9 11  1  0  0  0  0
  9 29  1  0  0  0  0
 11 12  1  0  0  0  0
 11 13  1  0  0  0  0
 11 14  1  0  0  0  0
 14 15  2  0  0  0  0
 14 28  1  0  0  0  0
 15 16  1  0  0  0  0
 15 17  1  0  0  0  0
 17 18  1  0  0  0  0
 17 19  1  0  0  0  0
 19 20  1  0  0  0  0
 19 28  2  0  0  0  0
 20 21  1  0  0  0  0
 20 22  2  0  0  0  0
 22 23  1  0  0  0  0
 22 24  1  0  0  0  0
 24 25  1  0  0  0  0
 24 26  2  0  0  0  0
 26 27  1  0  0  0  0
 26 28  1  0  0  0  0
 29 30  2  0  0  0  0
 29 31  1  0  0  0  0
 31 32  1  0  0  0  0
 31 33  1  0  0  0  0
 33 34  1  0  0  0  0
 33 35  1  0  0  0  0
 33 36  1  0  0  0  0
M  END
$$$$

  -OEChem-03222214083D

 36 37  0     1  0  0  0  0  0999 V2000
   -3.8168   -4.5624    1.3609 H   0  0  0  0  0  0  0  0  0  0  0  0
   -3.7640   -3.7687    0.6103 C   0  0  0  0  0  0  0  0  0  0  0  0
   -4.6175   -3.0998    0.7446 H   0  0  0  0  0  0  0  0  0  0  0  0
   -3.8157   -4.2201   -0.3834 H   0  0  0  0  0  0  0  0  0  0  0  0
   -2.4687   -2.9931    0.7595 C   0  0  0  0  0  0  0  0  0  0  0  0
   -1.6805   -3.2901    1.6421 O   0  0  0  0  0  0  0  0  0  0  0  0
   -2.1957   -1.9500   -0.1002 N   0  0  0  0  0  0  0  0  0  0  0  0
   -2.9372   -1.6707   -0.7405 H   0  0  0  0  0  0  0  0  0  0  0  0
   -1.0479   -1.0345    0.0158 C   0  0  1  0  0  0  0  0  0  0  0  0
   -0.6513   -1.1401    1.0227 H   0  0  0  0  0  0  0  0  0  0  0  0
    0.0410   -1.4066   -0.9977 C   0  0  0  0  0  0  0  0  0  0  0  0
   -0.0088   -2.4882   -1.1620 H   0  0  0  0  0  0  0  0  0  0  0  0
   -0.1790   -0.9277   -1.9579 H   0  0  0  0  0  0  0  0  0  0  0  0
    1.4734   -1.0942   -0.6002 C   0  0  0  0  0  0  0  0  0  0  0  0
    2.4824   -1.4087   -1.4802 C   0  0  0  0  0  0  0  0  0  0  0  0
    2.3430   -1.8726   -2.4544 H   0  0  0  0  0  0  0  0  0  0  0  0
    3.6886   -1.0072   -0.9266 N   0  0  0  0  0  0  0  0  0  0  0  0
    4.6029   -1.1134   -1.3613 H   0  0  0  0  0  0  0  0  0  0  0  0
    3.4760   -0.4618    0.3233 C   0  0  0  0  0  0  0  0  0  0  0  0
    4.4099    0.0507    1.2226 C   0  0  0  0  0  0  0  0  0  0  0  0
    5.4633    0.0719    0.9665 H   0  0  0  0  0  0  0  0  0  0  0  0
    3.9707    0.5277    2.4605 C   0  0  0  0  0  0  0  0  0  0  0  0
    4.6841    0.9275    3.1751 H   0  0  0  0  0  0  0  0  0  0  0  0
    2.6103    0.4698    2.7824 C   0  0  0  0  0  0  0  0  0  0  0  0
    2.2719    0.8187    3.7537 H   0  0  0  0  0  0  0  0  0  0  0  0
    1.6845   -0.0507    1.8671 C   0  0  0  0  0  0  0  0  0  0  0  0
    0.6536   -0.1031    2.1867 H   0  0  0  0  0  0  0  0  0  0  0  0
    2.1077   -0.5070    0.6034 C   0  0  0  0  0  0  0  0  0  0  0  0
   -1.4803    0.4317   -0.1916 C   0  0  0  0  0  0  0  0  0  0  0  0
   -2.3417    0.6854   -1.0280 O   0  0  0  0  0  0  0  0  0  0  0  0
   -1.0338    1.4411    0.6413 N   0  0  0  0  0  0  0  0  0  0  0  0
   -0.2174    1.2335    1.2095 H   0  0  0  0  0  0  0  0  0  0  0  0
   -1.4092    2.8380    0.4618 C   0  0  0  0  0  0  0  0  0  0  0  0
   -2.4972    2.9533    0.5106 H   0  0  0  0  0  0  0  0  0  0  0  0
   -0.9634    3.4516    1.2504 H   0  0  0  0  0  0  0  0  0  0  0  0
   -1.0581    3.2086   -0.5070 H   0  0  0  0  0  0  0  0  0  0  0  0
  1  2  1  0  0  0  0
  2  3  1  0  0  0  0
  2  4  1  0  0  0  0
  2  5  1  0  0  0  0
  5  6  2  0  0  0  0
  5  7  1  0  0  0  0
  7  8  1  0  0  0  0
  7  9  1  0  0  0  0
  9 10  1  0  0  0  0
  9 11  1  0  0  0  0
  9 29  1  0  0  0  0
 11 12  1  0  0  0  0
 11 13  1  0  0  0  0
 11 14  1  0  0  0  0
 14 15  2  0  0  0  0
 14 28  1  0  0  0  0
 15 16  1  0  0  0  0
 15 17  1  0  0  0  0
 17 18  1  0  0  0  0
 17 19  1  0  0  0  0
 19 20  1  0  0  0  0
 19 28  2  0  0  0  0
 20 21  1  0  0  0  0
 20 22  2  0  0  0  0
 22 23  1  0  0  0  0
 22 24  1  0  0  0  0
 24 25  1  0  0  0  0
 24 26  2  0  0  0  0
 26 27  1  0  0  0  0
 26 28  1  0  0  0  0
 29 30  2  0  0  0  0
 29 31  1  0  0  0  0
 31 32  1  0  0  0  0
 31 33  1  0  0  0  0
 33 34  1  0  0  0  0
 33 35  1  0  0  0  0
 33 36  1  0  0  0  0
M  END
$$$$

  -OEChem-03222214083D

 36 37  0     1  0  0  0  0  0999 V2000
   -3.8438   -4.5766    1.3254 H   0  0  0  0  0  0  0  0  0  0  0  0
   -3.7955   -3.7736    0.5846 C   0  0  0  0  0  0  0  0  0  0  0  0
   -4.6531   -3.1116    0.7259 H   0  0  0  0  0  0  0  0  0  0  0  0
   -3.8437   -4.2135   -0.4144 H   0  0  0  0  0  0  0  0  0  0  0  0
   -2.5057   -2.9912    0.7443 C   0  0  0  0  0  0  0  0  0  0  0  0
   -1.7253   -3.2798    1.6369 O   0  0  0  0  0  0  0  0  0  0  0  0
   -2.2305   -1.9483   -0.1152 N   0  0  0  0  0  0  0  0  0  0  0  0
   -2.9623   -1.6802   -0.7706 H   0  0  0  0  0  0  0  0  0  0  0  0
   -1.0747   -1.0429   -0.0055 C   0  0  1  0  0  0  0  0  0  0  0  0
   -0.6985   -1.1409    1.0051 H   0  0  0  0  0  0  0  0  0  0  0  0
    0.0269   -1.4377   -0.9966 C   0  0  0  0  0  0  0  0  0  0  0  0
   -0.0193   -2.5237   -1.1283 H   0  0  0  0  0  0  0  0  0  0  0  0
   -0.1818   -0.9870   -1.9729 H   0  0  0  0  0  0  0  0  0  0  0  0
    1.4523   -1.1207   -0.5777 C   0  0  0  0  0  0  0  0  0  0  0  0
    2.4403   -1.1545   -1.5340 C   0  0  0  0  0  0  0  0  0  0  0  0
    2.2879   -1.3890   -2.5853 H   0  0  0  0  0  0  0  0  0  0  0  0
    3.6419   -0.8065   -0.9362 N   0  0  0  0  0  0  0  0  0  0  0  0
    4.5422   -0.7485   -1.4078 H   0  0  0  0  0  0  0  0  0  0  0  0
    3.4508   -0.5841    0.4122 C   0  0  0  0  0  0  0  0  0  0  0  0
    4.3914   -0.2316    1.3786 C   0  0  0  0  0  0  0  0  0  0  0  0
    5.4279   -0.0725    1.1027 H   0  0  0  0  0  0  0  0  0  0  0  0
    3.9823   -0.0974    2.7078 C   0  0  0  0  0  0  0  0  0  0  0  0
    4.7015    0.1729    3.4753 H   0  0  0  0  0  0  0  0  0  0  0  0
    2.6460   -0.3336    3.0481 C   0  0  0  0  0  0  0  0  0  0  0  0
    2.3320   -0.2555    4.0848 H   0  0  0  0  0  0  0  0  0  0  0  0
    1.7121   -0.6880    2.0641 C   0  0  0  0  0  0  0  0  0  0  0  0
    0.7053   -0.8969    2.3988 H   0  0  0  0  0  0  0  0  0  0  0  0
    2.1022   -0.7935    0.7138 C   0  0  0  0  0  0  0  0  0  0  0  0
   -1.4524    0.4354   -0.1996 C   0  0  0  0  0  0  0  0  0  0  0  0
   -2.2956    0.7395   -1.0369 O   0  0  0  0  0  0  0  0  0  0  0  0
   -0.9509    1.4011    0.6531 N   0  0  0  0  0  0  0  0  0  0  0  0
   -0.1733    1.1257    1.2487 H   0  0  0  0  0  0  0  0  0  0  0  0
   -1.2550    2.8193    0.5164 C   0  0  0  0  0  0  0  0  0  0  0  0
   -2.3340    2.9898    0.5921 H   0  0  0  0  0  0  0  0  0  0  0  0
   -0.7606    3.3884    1.3096 H   0  0  0  0  0  0  0  0  0  0  0  0
   -0.9048    3.1952   -0.4506 H   0  0  0  0  0  0  0  0  0  0  0  0
  1  2  1  0  0  0  0
  2  3  1  0  0  0  0
  2  4  1  0  0  0  0
  2  5  1  0  0  0  0
  5  6  2  0  0  0  0
  5  7  1  0  0  0  0
  7  8  1  0  0  0  0
  7  9  1  0  0  0  0
  9 10  1  0  0  0  0
  9 11  1  0  0  0  0
  9 29  1  0  0  0  0
 11 12  1  0  0  0  0
 11 13  1  0  0  0  0
 11 14  1  0  0  0  0
 14 15  2  0  0  0  0
 14 28  1  0  0  0  0
 15 16  1  0  0  0  0
 15 17  1  0  0  0  0
 17 18  1  0  0  0  0
 17 19  1  0  0  0  0
 19 20  1  0  0  0  0
 19 28  2  0  0  0  0
 20 21  1  0  0  0  0
 20 22  2  0  0  0  0
 22 23  1  0  0  0  0
 22 24  1  0  0  0  0
 24 25  1  0  0  0  0
 24 26  2  0  0  0  0
 26 27  1  0  0  0  0
 26 28  1  0  0  0  0
 29 30  2  0  0  0  0
 29 31  1  0  0  0  0
 31 32  1  0  0  0  0
 31 33  1  0  0  0  0
 33 34  1  0  0  0  0
 33 35  1  0  0  0  0
 33 36  1  0  0  0  0
M  END
$$$$

  -OEChem-03222214083D

 36 37  0     1  0  0  0  0  0999 V2000
   -3.7202   -4.4965    1.5251 H   0  0  0  0  0  0  0  0  0  0  0  0
   -3.6975   -3.7264    0.7490 C   0  0  0  0  0  0  0  0  0  0  0  0
   -4.5623   -3.0710    0.8771 H   0  0  0  0  0  0  0  0  0  0  0  0
   -3.7567   -4.2107   -0.2288 H   0  0  0  0  0  0  0  0  0  0  0  0
   -2.4168   -2.9200    0.8512 C   0  0  0  0  0  0  0  0  0  0  0  0
   -1.6143   -3.1602    1.7390 O   0  0  0  0  0  0  0  0  0  0  0  0
   -2.1719   -1.9102   -0.0551 N   0  0  0  0  0  0  0  0  0  0  0  0
   -2.9184   -1.6750   -0.7065 H   0  0  0  0  0  0  0  0  0  0  0  0
   -1.0287   -0.9862    0.0072 C   0  0  1  0  0  0  0  0  0  0  0  0
   -0.6239   -1.0101    1.0152 H   0  0  0  0  0  0  0  0  0  0  0  0
    0.0473   -1.3922   -1.0138 C   0  0  0  0  0  0  0  0  0  0  0  0
    0.0192   -2.4813   -1.1209 H   0  0  0  0  0  0  0  0  0  0  0  0
   -0.1845   -0.9658   -1.9958 H   0  0  0  0  0  0  0  0  0  0  0  0
    1.4599   -1.0356   -0.6015 C   0  0  0  0  0  0  0  0  0  0  0  0
    2.4248   -0.7400   -1.5354 C   0  0  0  0  0  0  0  0  0  0  0  0
    2.2610   -0.6736   -2.6090 H   0  0  0  0  0  0  0  0  0  0  0  0
    3.6199   -0.5079   -0.8666 N   0  0  0  0  0  0  0  0  0  0  0  0
    4.5038   -0.2598   -1.3063 H   0  0  0  0  0  0  0  0  0  0  0  0
    3.4612   -0.7454    0.4854 C   0  0  0  0  0  0  0  0  0  0  0  0
    4.3959   -0.6923    1.5189 C   0  0  0  0  0  0  0  0  0  0  0  0
    5.4165   -0.3857    1.3194 H   0  0  0  0  0  0  0  0  0  0  0  0
    4.0034   -1.0577    2.8112 C   0  0  0  0  0  0  0  0  0  0  0  0
    4.7186   -1.0258    3.6278 H   0  0  0  0  0  0  0  0  0  0  0  0
    2.6931   -1.4946    3.0434 C   0  0  0  0  0  0  0  0  0  0  0  0
    2.3957   -1.8133    4.0381 H   0  0  0  0  0  0  0  0  0  0  0  0
    1.7648   -1.5434    1.9940 C   0  0  0  0  0  0  0  0  0  0  0  0
    0.7757   -1.9371    2.2009 H   0  0  0  0  0  0  0  0  0  0  0  0
    2.1375   -1.1253    0.7045 C   0  0  0  0  0  0  0  0  0  0  0  0
   -1.4498    0.4721   -0.2427 C   0  0  0  0  0  0  0  0  0  0  0  0
   -2.2945    0.7228   -1.0964 O   0  0  0  0  0  0  0  0  0  0  0  0
   -0.9673    1.4863    0.5629 N   0  0  0  0  0  0  0  0  0  0  0  0
   -0.2183    1.2472    1.2088 H   0  0  0  0  0  0  0  0  0  0  0  0
   -1.3212    2.8879    0.3830 C   0  0  0  0  0  0  0  0  0  0  0  0
   -2.4042    3.0248    0.4701 H   0  0  0  0  0  0  0  0  0  0  0  0
   -0.8344    3.5009    1.1476 H   0  0  0  0  0  0  0  0  0  0  0  0
   -0.9988    3.2405   -0.6022 H   0  0  0  0  0  0  0  0  0  0  0  0
  1  2  1  0  0  0  0
  2  3  1  0  0  0  0
  2  4  1  0  0  0  0
  2  5  1  0  0  0  0
  5  6  2  0  0  0  0
  5  7  1  0  0  0  0
  7  8  1  0  0  0  0
  7  9  1  0  0  0  0
  9 10  1  0  0  0  0
  9 11  1  0  0  0  0
  9 29  1  0  0  0  0
 11 12  1  0  0  0  0
 11 13  1  0  0  0  0
 11 14  1  0  0  0  0
 14 15  2  0  0  0  0
 14 28  1  0  0  0  0
 15 16  1  0  0  0  0
 15 17  1  0  0  0  0
 17 18  1  0  0  0  0
 17 19  1  0  0  0  0
 19 20  1  0  0  0  0
 19 28  2  0  0  0  0
 20 21  1  0  0  0  0
 20 22  2  0  0  0  0
 22 23  1  0  0  0  0
 22 24  1  0  0  0  0
 24 25  1  0  0  0  0
 24 26  2  0  0  0  0
 26 27  1  0  0  0  0
 26 28  1  0  0  0  0
 29 30  2  0  0  0  0
 29 31  1  0  0  0  0
 31 32  1  0  0  0  0
 31 33  1  0  0  0  0
 33 34  1  0  0  0  0
 33 35  1  0  0  0  0
 33 36  1  0  0  0  0
M  END
$$$$

  -OEChem-03222214083D

 36 37  0     1  0  0  0  0  0999 V2000
   -3.7329   -4.5240    1.5044 H   0  0  0  0  0  0  0  0  0  0  0  0
   -3.7029   -3.7397    0.7430 C   0  0  0  0  0  0  0  0  0  0  0  0
   -4.5566   -3.0737    0.8899 H   0  0  0  0  0  0  0  0  0  0  0  0
   -3.7764   -4.2043   -0.2432 H   0  0  0  0  0  0  0  0  0  0  0  0
   -2.4089   -2.9554    0.8512 C   0  0  0  0  0  0  0  0  0  0  0  0
   -1.6033   -3.2304    1.7249 O   0  0  0  0  0  0  0  0  0  0  0  0
   -2.1591   -1.9279   -0.0335 N   0  0  0  0  0  0  0  0  0  0  0  0
   -2.9086   -1.6754   -0.6749 H   0  0  0  0  0  0  0  0  0  0  0  0
   -0.9982   -1.0238    0.0138 C   0  0  1  0  0  0  0  0  0  0  0  0
   -0.5572   -1.0836    1.0099 H   0  0  0  0  0  0  0  0  0  0  0  0
    0.0431   -1.4338   -1.0419 C   0  0  0  0  0  0  0  0  0  0  0  0
    0.0004   -2.5201   -1.1703 H   0  0  0  0  0  0  0  0  0  0  0  0
   -0.1997   -0.9827   -2.0101 H   0  0  0  0  0  0  0  0  0  0  0  0
    1.4574   -1.0931   -0.6325 C   0  0  0  0  0  0  0  0  0  0  0  0
    2.3619   -0.5031   -1.4829 C   0  0  0  0  0  0  0  0  0  0  0  0
    2.1541   -0.1892   -2.5039 H   0  0  0  0  0  0  0  0  0  0  0  0
    3.5663   -0.3653   -0.8010 N   0  0  0  0  0  0  0  0  0  0  0  0
    4.4189    0.0370   -1.1850 H   0  0  0  0  0  0  0  0  0  0  0  0
    3.4649   -0.9152    0.4645 C   0  0  0  0  0  0  0  0  0  0  0  0
    4.4109   -1.0397    1.4818 C   0  0  0  0  0  0  0  0  0  0  0  0
    5.4130   -0.6468    1.3495 H   0  0  0  0  0  0  0  0  0  0  0  0
    4.0523   -1.6886    2.6702 C   0  0  0  0  0  0  0  0  0  0  0  0
    4.7770   -1.7958    3.4718 H   0  0  0  0  0  0  0  0  0  0  0  0
    2.7617   -2.2159    2.8176 C   0  0  0  0  0  0  0  0  0  0  0  0
    2.4878   -2.7367    3.7305 H   0  0  0  0  0  0  0  0  0  0  0  0
    1.8215   -2.0851    1.7862 C   0  0  0  0  0  0  0  0  0  0  0  0
    0.8366   -2.5238    1.9056 H   0  0  0  0  0  0  0  0  0  0  0  0
    2.1704   -1.4076    0.6095 C   0  0  0  0  0  0  0  0  0  0  0  0
   -1.3945    0.4474   -0.1938 C   0  0  0  0  0  0  0  0  0  0  0  0
   -2.2477    0.7362   -1.0264 O   0  0  0  0  0  0  0  0  0  0  0  0
   -0.8669    1.4326    0.6193 N   0  0  0  0  0  0  0  0  0  0  0  0
   -0.1195    1.1588    1.2535 H   0  0  0  0  0  0  0  0  0  0  0  0
   -1.1965    2.8451    0.4846 C   0  0  0  0  0  0  0  0  0  0  0  0
   -2.2730    3.0012    0.6112 H   0  0  0  0  0  0  0  0  0  0  0  0
   -0.6718    3.4291    1.2469 H   0  0  0  0  0  0  0  0  0  0  0  0
   -0.8994    3.2156   -0.5019 H   0  0  0  0  0  0  0  0  0  0  0  0
  1  2  1  0  0  0  0
  2  3  1  0  0  0  0
  2  4  1  0  0  0  0
  2  5  1  0  0  0  0
  5  6  2  0  0  0  0
  5  7  1  0  0  0  0
  7  8  1  0  0  0  0
  7  9  1  0  0  0  0
  9 10  1  0  0  0  0
  9 11  1  0  0  0  0
  9 29  1  0  0  0  0
 11 12  1  0  0  0  0
 11 13  1  0  0  0  0
 11 14  1  0  0  0  0
 14 15  2  0  0  0  0
 14 28  1  0  0  0  0
 15 16  1  0  0  0  0
 15 17  1  0  0  0  0
 17 18  1  0  0  0  0
 17 19  1  0  0  0  0
 19 20  1  0  0  0  0
 19 28  2  0  0  0  0
 20 21  1  0  0  0  0
 20 22  2  0  0  0  0
 22 23  1  0  0  0  0
 22 24  1  0  0  0  0
 24 25  1  0  0  0  0
 24 26  2  0  0  0  0
 26 27  1  0  0  0  0
 26 28  1  0  0  0  0
 29 30  2  0  0  0  0
 29 31  1  0  0  0  0
 31 32  1  0  0  0  0
 31 33  1  0  0  0  0
 33 34  1  0  0  0  0
 33 35  1  0  0  0  0
 33 36  1  0  0  0  0
M  END
$$$$

  -OEChem-03222214083D

 36 37  0     1  0  0  0  0  0999 V2000
   -3.7243   -4.5404    1.5114 H   0  0  0  0  0  0  0  0  0  0  0  0
   -3.6902   -3.7599    0.7462 C   0  0  0  0  0  0  0  0  0  0  0  0
   -4.5315   -3.0797    0.8992 H   0  0  0  0  0  0  0  0  0  0  0  0
   -3.7817   -4.2273   -0.2372 H   0  0  0  0  0  0  0  0  0  0  0  0
   -2.3826   -2.9964    0.8372 C   0  0  0  0  0  0  0  0  0  0  0  0
   -1.5576   -3.3066    1.6799 O   0  0  0  0  0  0  0  0  0  0  0  0
   -2.1436   -1.9503   -0.0285 N   0  0  0  0  0  0  0  0  0  0  0  0
   -2.9085   -1.6735   -0.6410 H   0  0  0  0  0  0  0  0  0  0  0  0
   -0.9679   -1.0639   -0.0013 C   0  0  1  0  0  0  0  0  0  0  0  0
   -0.4893   -1.1625    0.9775 H   0  0  0  0  0  0  0  0  0  0  0  0
    0.0341   -1.4716   -1.0945 C   0  0  0  0  0  0  0  0  0  0  0  0
   -0.0242   -2.5532   -1.2534 H   0  0  0  0  0  0  0  0  0  0  0  0
   -0.2216   -0.9878   -2.0431 H   0  0  0  0  0  0  0  0  0  0  0  0
    1.4510   -1.1446   -0.6927 C   0  0  0  0  0  0  0  0  0  0  0  0
    2.2779   -0.2974   -1.3906 C   0  0  0  0  0  0  0  0  0  0  0  0
    2.0117    0.2342   -2.3020 H   0  0  0  0  0  0  0  0  0  0  0  0
    3.4944   -0.2387   -0.7160 N   0  0  0  0  0  0  0  0  0  0  0  0
    4.3045    0.3046   -1.0078 H   0  0  0  0  0  0  0  0  0  0  0  0
    3.4670   -1.0621    0.3971 C   0  0  0  0  0  0  0  0  0  0  0  0
    4.4348   -1.3424    1.3616 C   0  0  0  0  0  0  0  0  0  0  0  0
    5.4087   -0.8684    1.3131 H   0  0  0  0  0  0  0  0  0  0  0  0
    4.1326   -2.2467    2.3894 C   0  0  0  0  0  0  0  0  0  0  0  0
    4.8745   -2.4757    3.1489 H   0  0  0  0  0  0  0  0  0  0  0  0
    2.8733   -2.8636    2.4333 C   0  0  0  0  0  0  0  0  0  0  0  0
    2.6392   -3.5713    3.2232 H   0  0  0  0  0  0  0  0  0  0  0  0
    1.9102   -2.5745    1.4568 C   0  0  0  0  0  0  0  0  0  0  0  0
    0.9417   -3.0623    1.4874 H   0  0  0  0  0  0  0  0  0  0  0  0
    2.2115   -1.6589    0.4428 C   0  0  0  0  0  0  0  0  0  0  0  0
   -1.3428    0.4191   -0.1594 C   0  0  0  0  0  0  0  0  0  0  0  0
   -2.2106    0.7460   -0.9621 O   0  0  0  0  0  0  0  0  0  0  0  0
   -0.7685    1.3743    0.6580 N   0  0  0  0  0  0  0  0  0  0  0  0
   -0.0190    1.0675    1.2743 H   0  0  0  0  0  0  0  0  0  0  0  0
   -1.0794    2.7953    0.5755 C   0  0  0  0  0  0  0  0  0  0  0  0
   -2.1513    2.9627    0.7247 H   0  0  0  0  0  0  0  0  0  0  0  0
   -0.5346    3.3458    1.3484 H   0  0  0  0  0  0  0  0  0  0  0  0
   -0.7920    3.1946   -0.4027 H   0  0  0  0  0  0  0  0  0  0  0  0
  1  2  1  0  0  0  0
  2  3  1  0  0  0  0
  2  4  1  0  0  0  0
  2  5  1  0  0  0  0
  5  6  2  0  0  0  0
  5  7  1  0  0  0  0
  7  8  1  0  0  0  0
  7  9  1  0  0  0  0
  9 10  1  0  0  0  0
  9 11  1  0  0  0  0
  9 29  1  0  0  0  0
 11 12  1  0  0  0  0
 11 13  1  0  0  0  0
 11 14  1  0  0  0  0
 14 15  2  0  0  0  0
 14 28  1  0  0  0  0
 15 16  1  0  0  0  0
 15 17  1  0  0  0  0
 17 18  1  0  0  0  0
 17 19  1  0  0  0  0
 19 20  1  0  0  0  0
 19 28  2  0  0  0  0
 20 21  1  0  0  0  0
 20 22  2  0  0  0  0
 22 23  1  0  0  0  0
 22 24  1  0  0  0  0
 24 25  1  0  0  0  0
 24 26  2  0  0  0  0
 26 27  1  0  0  0  0
 26 28  1  0  0  0  0
 29 30  2  0  0  0  0
 29 31  1  0  0  0  0
 31 32  1  0  0  0  0
 31 33  1  0  0  0  0
 33 34  1  0  0  0  0
 33 35  1  0  0  0  0
 33 36  1  0  0  0  0
M  END
$$$$

  -OEChem-03222214083D

 36 37  0     1  0  0  0  0  0999 V2000
   -3.6560   -4.5597    1.5299 H   0  0  0  0  0  0  0  0  0  0  0  0
   -3.6406   -3.7800    0.7630 C   0  0  0  0  0  0  0  0  0  0  0  0
   -4.4743   -3.0962    0.9401 H   0  0  0  0  0  0  0  0  0  0  0  0
   -3.7631   -4.2478   -0.2169 H   0  0  0  0  0  0  0  0  0  0  0  0
   -2.3272   -3.0222    0.8141 C   0  0  0  0  0  0  0  0  0  0  0  0
   -1.4657   -3.3561    1.6106 O   0  0  0  0  0  0  0  0  0  0  0  0
   -2.1164   -1.9629   -0.0432 N   0  0  0  0  0  0  0  0  0  0  0  0
   -2.9026   -1.6686   -0.6195 H   0  0  0  0  0  0  0  0  0  0  0  0
   -0.9384   -1.0797   -0.0304 C   0  0  1  0  0  0  0  0  0  0  0  0
   -0.4332   -1.1982    0.9341 H   0  0  0  0  0  0  0  0  0  0  0  0
    0.0361   -1.4827   -1.1480 C   0  0  0  0  0  0  0  0  0  0  0  0
   -0.0282   -2.5603   -1.3298 H   0  0  0  0  0  0  0  0  0  0  0  0
   -0.2294   -0.9764   -2.0820 H   0  0  0  0  0  0  0  0  0  0  0  0
    1.4519   -1.1577   -0.7513 C   0  0  0  0  0  0  0  0  0  0  0  0
    2.1992   -0.1108   -1.2346 C   0  0  0  0  0  0  0  0  0  0  0  0
    1.8705    0.6091   -1.9814 H   0  0  0  0  0  0  0  0  0  0  0  0
    3.4359   -0.1455   -0.5944 N   0  0  0  0  0  0  0  0  0  0  0  0
    4.2051    0.4994   -0.7634 H   0  0  0  0  0  0  0  0  0  0  0  0
    3.4891   -1.2053    0.2971 C   0  0  0  0  0  0  0  0  0  0  0  0
    4.4944   -1.6489    1.1570 C   0  0  0  0  0  0  0  0  0  0  0  0
    5.4463   -1.1314    1.2003 H   0  0  0  0  0  0  0  0  0  0  0  0
    4.2573   -2.7716    1.9632 C   0  0  0  0  0  0  0  0  0  0  0  0
    5.0295   -3.1290    2.6378 H   0  0  0  0  0  0  0  0  0  0  0  0
    3.0220   -3.4345    1.9004 C   0  0  0  0  0  0  0  0  0  0  0  0
    2.8363   -4.3021    2.5263 H   0  0  0  0  0  0  0  0  0  0  0  0
    2.0201   -2.9814    1.0309 C   0  0  0  0  0  0  0  0  0  0  0  0
    1.0629   -3.4919    0.9815 H   0  0  0  0  0  0  0  0  0  0  0  0
    2.2659   -1.8622    0.2294 C   0  0  0  0  0  0  0  0  0  0  0  0
   -1.3142    0.4067   -0.1529 C   0  0  0  0  0  0  0  0  0  0  0  0
   -2.1998    0.7481   -0.9293 O   0  0  0  0  0  0  0  0  0  0  0  0
   -0.7196    1.3497    0.6646 N   0  0  0  0  0  0  0  0  0  0  0  0
    0.0300    1.0309    1.2746 H   0  0  0  0  0  0  0  0  0  0  0  0
   -1.0488    2.7687    0.6274 C   0  0  0  0  0  0  0  0  0  0  0  0
   -2.1203    2.9185    0.7972 H   0  0  0  0  0  0  0  0  0  0  0  0
   -0.4991    3.3046    1.4072 H   0  0  0  0  0  0  0  0  0  0  0  0
   -0.7819    3.1984   -0.3436 H   0  0  0  0  0  0  0  0  0  0  0  0
  1  2  1  0  0  0  0
  2  3  1  0  0  0  0
  2  4  1  0  0  0  0
  2  5  1  0  0  0  0
  5  6  2  0  0  0  0
  5  7  1  0  0  0  0
  7  8  1  0  0  0  0
  7  9  1  0  0  0  0
  9 10  1  0  0  0  0
  9 11  1  0  0  0  0
  9 29  1  0  0  0  0
 11 12  1  0  0  0  0
 11 13  1  0  0  0  0
 11 14  1  0  0  0  0
 14 15  2  0  0  0  0
 14 28  1  0  0  0  0
 15 16  1  0  0  0  0
 15 17  1  0  0  0  0
 17 18  1  0  0  0  0
 17 19  1  0  0  0  0
 19 20  1  0  0  0  0
 19 28  2  0  0  0  0
 20 21  1  0  0  0  0
 20 22  2  0  0  0  0
 22 23  1  0  0  0  0
 22 24  1  0  0  0  0
 24 25  1  0  0  0  0
 24 26  2  0  0  0  0
 26 27  1  0  0  0  0
 26 28  1  0  0  0  0
 29 30  2  0  0  0  0
 29 31  1  0  0  0  0
 31 32  1  0  0  0  0
 31 33  1  0  0  0  0
 33 34  1  0  0  0  0
 33 35  1  0  0  0  0
 33 36  1  0  0  0  0
M  END
$$$$

  -OEChem-03222214083D

 36 37  0     1  0  0  0  0  0999 V2000
   -3.6111   -4.5855    1.4905 H   0  0  0  0  0  0  0  0  0  0  0  0
   -3.6189   -3.7823    0.7484 C   0  0  0  0  0  0  0  0  0  0  0  0
   -4.4268   -3.0876    0.9904 H   0  0  0  0  0  0  0  0  0  0  0  0
   -3.8024   -4.2154   -0.2376 H   0  0  0  0  0  0  0  0  0  0  0  0
   -2.2892   -3.0522    0.7528 C   0  0  0  0  0  0  0  0  0  0  0  0
   -1.3920   -3.4254    1.4907 O   0  0  0  0  0  0  0  0  0  0  0  0
   -2.1017   -1.9744   -0.0865 N   0  0  0  0  0  0  0  0  0  0  0  0
   -2.9076   -1.6562   -0.6213 H   0  0  0  0  0  0  0  0  0  0  0  0
   -0.9230   -1.0935   -0.0777 C   0  0  1  0  0  0  0  0  0  0  0  0
   -0.4021   -1.2332    0.8761 H   0  0  0  0  0  0  0  0  0  0  0  0
    0.0331   -1.4932   -1.2092 C   0  0  0  0  0  0  0  0  0  0  0  0
   -0.0406   -2.5670   -1.4089 H   0  0  0  0  0  0  0  0  0  0  0  0
   -0.2378   -0.9698   -2.1322 H   0  0  0  0  0  0  0  0  0  0  0  0
    1.4507   -1.1735   -0.8192 C   0  0  0  0  0  0  0  0  0  0  0  0
    2.1083    0.0090   -1.0592 C   0  0  0  0  0  0  0  0  0  0  0  0
    1.7030    0.8577   -1.6071 H   0  0  0  0  0  0  0  0  0  0  0  0
    3.3715   -0.0878   -0.4795 N   0  0  0  0  0  0  0  0  0  0  0  0
    4.0947    0.6275   -0.5184 H   0  0  0  0  0  0  0  0  0  0  0  0
    3.5183   -1.3108    0.1565 C   0  0  0  0  0  0  0  0  0  0  0  0
    4.5739   -1.8636    0.8820 C   0  0  0  0  0  0  0  0  0  0  0  0
    5.4976   -1.3107    1.0123 H   0  0  0  0  0  0  0  0  0  0  0  0
    4.4221   -3.1395    1.4444 C   0  0  0  0  0  0  0  0  0  0  0  0
    5.2344   -3.5824    2.0129 H   0  0  0  0  0  0  0  0  0  0  0  0
    3.2178   -3.8420    1.2814 C   0  0  0  0  0  0  0  0  0  0  0  0
    3.0959   -4.8240    1.7284 H   0  0  0  0  0  0  0  0  0  0  0  0
    2.1648   -3.2788    0.5467 C   0  0  0  0  0  0  0  0  0  0  0  0
    1.2262   -3.8130    0.4289 H   0  0  0  0  0  0  0  0  0  0  0  0
    2.3323   -2.0128   -0.0228 C   0  0  0  0  0  0  0  0  0  0  0  0
   -1.2935    0.3965   -0.1575 C   0  0  0  0  0  0  0  0  0  0  0  0
   -2.1900    0.7633   -0.9088 O   0  0  0  0  0  0  0  0  0  0  0  0
   -0.6757    1.3143    0.6711 N   0  0  0  0  0  0  0  0  0  0  0  0
    0.0576    0.9675    1.2857 H   0  0  0  0  0  0  0  0  0  0  0  0
   -1.0136    2.7313    0.6979 C   0  0  0  0  0  0  0  0  0  0  0  0
   -2.0667    2.8695    0.9644 H   0  0  0  0  0  0  0  0  0  0  0  0
   -0.3989    3.2513    1.4389 H   0  0  0  0  0  0  0  0  0  0  0  0
   -0.8345    3.1870   -0.2815 H   0  0  0  0  0  0  0  0  0  0  0  0
  1  2  1  0  0  0  0
  2  3  1  0  0  0  0
  2  4  1  0  0  0  0
  2  5  1  0  0  0  0
  5  6  2  0  0  0  0
  5  7  1  0  0  0  0
  7  8  1  0  0  0  0
  7  9  1  0  0  0  0
  9 10  1  0  0  0  0
  9 11  1  0  0  0  0
  9 29  1  0  0  0  0
 11 12  1  0  0  0  0
 11 13  1  0  0  0  0
 11 14  1  0  0  0  0
 14 15  2  0  0  0  0
 14 28  1  0  0  0  0
 15 16  1  0  0  0  0
 15 17  1  0  0  0  0
 17 18  1  0  0  0  0
 17 19  1  0  0  0  0
 19 20  1  0  0  0  0
 19 28  2  0  0  0  0
 20 21  1  0  0  0  0
 20 22  2  0  0  0  0
 22 23  1  0  0  0  0
 22 24  1  0  0  0  0
 24 25  1  0  0  0  0
 24 26  2  0  0  0  0
 26 27  1  0  0  0  0
 26 28  1  0  0  0  0
 29 30  2  0  0  0  0
 29 31  1  0  0  0  0
 31 32  1  0  0  0  0
 31 33  1  0  0  0  0
 33 34  1  0  0  0  0
 33 35  1  0  0  0  0
 33 36  1  0  0  0  0
M  END
$$$$

  -OEChem-03222214083D

 36 37  0     1  0  0  0  0  0999 V2000
   -3.6371   -4.5702    1.4559 H   0  0  0  0  0  0  0  0  0  0  0  0
   -3.6310   -3.7704    0.7099 C   0  0  0  0  0  0  0  0  0  0  0  0
   -4.4561   -3.0859    0.9212 H   0  0  0  0  0  0  0  0  0  0  0  0
   -3.7759   -4.2107   -0.2795 H   0  0  0  0  0  0  0  0  0  0  0  0
   -2.3118   -3.0228    0.7555 C   0  0  0  0  0  0  0  0  0  0  0  0
   -1.4408   -3.3733    1.5342 O   0  0  0  0  0  0  0  0  0  0  0  0
   -2.1064   -1.9509   -0.0872 N   0  0  0  0  0  0  0  0  0  0  0  0
   -2.8941   -1.6485   -0.6573 H   0  0  0  0  0  0  0  0  0  0  0  0
   -0.9265   -1.0717   -0.0638 C   0  0  1  0  0  0  0  0  0  0  0  0
   -0.4128   -1.2067    0.8947 H   0  0  0  0  0  0  0  0  0  0  0  0
    0.0377   -1.4835   -1.1865 C   0  0  0  0  0  0  0  0  0  0  0  0
   -0.0509   -2.5564   -1.3825 H   0  0  0  0  0  0  0  0  0  0  0  0
   -0.2229   -0.9630   -2.1140 H   0  0  0  0  0  0  0  0  0  0  0  0
    1.4628   -1.1788   -0.8046 C   0  0  0  0  0  0  0  0  0  0  0  0
    2.0469    0.0658   -0.7880 C   0  0  0  0  0  0  0  0  0  0  0  0
    1.5698    0.9927   -1.1005 H   0  0  0  0  0  0  0  0  0  0  0  0
    3.3473   -0.0840   -0.3129 N   0  0  0  0  0  0  0  0  0  0  0  0
    4.0297    0.6645   -0.2134 H   0  0  0  0  0  0  0  0  0  0  0  0
    3.5953   -1.4106    0.0015 C   0  0  0  0  0  0  0  0  0  0  0  0
    4.7249   -2.0479    0.5154 C   0  0  0  0  0  0  0  0  0  0  0  0
    5.6244   -1.4810    0.7278 H   0  0  0  0  0  0  0  0  0  0  0  0
    4.6793   -3.4283    0.7576 C   0  0  0  0  0  0  0  0  0  0  0  0
    5.5504   -3.9386    1.1577 H   0  0  0  0  0  0  0  0  0  0  0  0
    3.5061   -4.1509    0.4908 C   0  0  0  0  0  0  0  0  0  0  0  0
    3.4681   -5.2176    0.6895 H   0  0  0  0  0  0  0  0  0  0  0  0
    2.3775   -3.5001   -0.0280 C   0  0  0  0  0  0  0  0  0  0  0  0
    1.4645   -4.0537   -0.2245 H   0  0  0  0  0  0  0  0  0  0  0  0
    2.4370   -2.1258   -0.2804 C   0  0  0  0  0  0  0  0  0  0  0  0
   -1.3067    0.4153   -0.1605 C   0  0  0  0  0  0  0  0  0  0  0  0
   -2.1828    0.7729   -0.9396 O   0  0  0  0  0  0  0  0  0  0  0  0
   -0.7111    1.3453    0.6716 N   0  0  0  0  0  0  0  0  0  0  0  0
   -0.0313    0.9997    1.3451 H   0  0  0  0  0  0  0  0  0  0  0  0
   -1.0843    2.7537    0.6997 C   0  0  0  0  0  0  0  0  0  0  0  0
   -2.1388    2.8659    0.9732 H   0  0  0  0  0  0  0  0  0  0  0  0
   -0.4776    3.2901    1.4355 H   0  0  0  0  0  0  0  0  0  0  0  0
   -0.9233    3.2130   -0.2812 H   0  0  0  0  0  0  0  0  0  0  0  0
  1  2  1  0  0  0  0
  2  3  1  0  0  0  0
  2  4  1  0  0  0  0
  2  5  1  0  0  0  0
  5  6  2  0  0  0  0
  5  7  1  0  0  0  0
  7  8  1  0  0  0  0
  7  9  1  0  0  0  0
  9 10  1  0  0  0  0
  9 11  1  0  0  0  0
  9 29  1  0  0  0  0
 11 12  1  0  0  0  0
 11 13  1  0  0  0  0
 11 14  1  0  0  0  0
 14 15  2  0  0  0  0
 14 28  1  0  0  0  0
 15 16  1  0  0  0  0
 15 17  1  0  0  0  0
 17 18  1  0  0  0  0
 17 19  1  0  0  0  0
 19 20  1  0  0  0  0
 19 28  2  0  0  0  0
 20 21  1  0  0  0  0
 20 22  2  0  0  0  0
 22 23  1  0  0  0  0
 22 24  1  0  0  0  0
 24 25  1  0  0  0  0
 24 26  2  0  0  0  0
 26 27  1  0  0  0  0
 26 28  1  0  0  0  0
 29 30  2  0  0  0  0
 29 31  1  0  0  0  0
 31 32  1  0  0  0  0
 31 33  1  0  0  0  0
 33 34  1  0  0  0  0
 33 35  1  0  0  0  0
 33 36  1  0  0  0  0
M  END
$$$$

  -OEChem-03222214083D

 36 37  0     1  0  0  0  0  0999 V2000
   -3.6556   -4.5573    1.4187 H   0  0  0  0  0  0  0  0  0  0  0  0
   -3.6327   -3.7606    0.6698 C   0  0  0  0  0  0  0  0  0  0  0  0
   -4.4853   -3.0976    0.8354 H   0  0  0  0  0  0  0  0  0  0  0  0
   -3.7147   -4.2089   -0.3233 H   0  0  0  0  0  0  0  0  0  0  0  0
   -2.3376   -2.9783    0.7795 C   0  0  0  0  0  0  0  0  0  0  0  0
   -1.5149   -3.2815    1.6273 O   0  0  0  0  0  0  0  0  0  0  0  0
   -2.1037   -1.9198   -0.0728 N   0  0  0  0  0  0  0  0  0  0  0  0
   -2.8566   -1.6508   -0.7034 H   0  0  0  0  0  0  0  0  0  0  0  0
   -0.9287   -1.0348   -0.0178 C   0  0  1  0  0  0  0  0  0  0  0  0
   -0.4385   -1.1507    0.9550 H   0  0  0  0  0  0  0  0  0  0  0  0
    0.0607   -1.4627   -1.1175 C   0  0  0  0  0  0  0  0  0  0  0  0
   -0.0398   -2.5377   -1.2930 H   0  0  0  0  0  0  0  0  0  0  0  0
   -0.1827   -0.9608   -2.0598 H   0  0  0  0  0  0  0  0  0  0  0  0
    1.4953   -1.1757   -0.7439 C   0  0  0  0  0  0  0  0  0  0  0  0
    2.0413    0.0552   -0.4602 C   0  0  0  0  0  0  0  0  0  0  0  0
    1.5206    1.0085   -0.5149 H   0  0  0  0  0  0  0  0  0  0  0  0
    3.3781   -0.1385   -0.1225 N   0  0  0  0  0  0  0  0  0  0  0  0
    4.0409    0.5970    0.1138 H   0  0  0  0  0  0  0  0  0  0  0  0
    3.6953   -1.4857   -0.1702 C   0  0  0  0  0  0  0  0  0  0  0  0
    4.8855   -2.1658    0.0885 C   0  0  0  0  0  0  0  0  0  0  0  0
    5.7756   -1.6201    0.3807 H   0  0  0  0  0  0  0  0  0  0  0  0
    4.9134   -3.5624   -0.0300 C   0  0  0  0  0  0  0  0  0  0  0  0
    5.8314   -4.1065    0.1714 H   0  0  0  0  0  0  0  0  0  0  0  0
    3.7544   -4.2595   -0.4033 C   0  0  0  0  0  0  0  0  0  0  0  0
    3.7759   -5.3417   -0.4888 H   0  0  0  0  0  0  0  0  0  0  0  0
    2.5646   -3.5644   -0.6627 C   0  0  0  0  0  0  0  0  0  0  0  0
    1.6667   -4.1043   -0.9441 H   0  0  0  0  0  0  0  0  0  0  0  0
    2.5453   -2.1697   -0.5483 C   0  0  0  0  0  0  0  0  0  0  0  0
   -1.3348    0.4429   -0.1558 C   0  0  0  0  0  0  0  0  0  0  0  0
   -2.1757    0.7715   -0.9847 O   0  0  0  0  0  0  0  0  0  0  0  0
   -0.7921    1.4009    0.6815 N   0  0  0  0  0  0  0  0  0  0  0  0
   -0.1913    1.0716    1.4335 H   0  0  0  0  0  0  0  0  0  0  0  0
   -1.2152    2.7956    0.6769 C   0  0  0  0  0  0  0  0  0  0  0  0
   -2.2789    2.8743    0.9250 H   0  0  0  0  0  0  0  0  0  0  0  0
   -0.6441    3.3661    1.4157 H   0  0  0  0  0  0  0  0  0  0  0  0
   -1.0489    3.2436   -0.3085 H   0  0  0  0  0  0  0  0  0  0  0  0
  1  2  1  0  0  0  0
  2  3  1  0  0  0  0
  2  4  1  0  0  0  0
  2  5  1  0  0  0  0
  5  6  2  0  0  0  0
  5  7  1  0  0  0  0
  7  8  1  0  0  0  0
  7  9  1  0  0  0  0
  9 10  1  0  0  0  0
  9 11  1  0  0  0  0
  9 29  1  0  0  0  0
 11 12  1  0  0  0  0
 11 13  1  0  0  0  0
 11 14  1  0  0  0  0
 14 15  2  0  0  0  0
 14 28  1  0  0  0  0
 15 16  1  0  0  0  0
 15 17  1  0  0  0  0
 17 18  1  0  0  0  0
 17 19  1  0  0  0  0
 19 20  1  0  0  0  0
 19 28  2  0  0  0  0
 20 21  1  0  0  0  0
 20 22  2  0  0  0  0
 22 23  1  0  0  0  0
 22 24  1  0  0  0  0
 24 25  1  0  0  0  0
 24 26  2  0  0  0  0
 26 27  1  0  0  0  0
 26 28  1  0  0  0  0
 29 30  2  0  0  0  0
 29 31  1  0  0  0  0
 31 32  1  0  0  0  0
 31 33  1  0  0  0  0
 33 34  1  0  0  0  0
 33 35  1  0  0  0  0
 33 36  1  0  0  0  0
M  END
$$$$

  -OEChem-03222214083D

 36 37  0     1  0  0  0  0  0999 V2000
   -3.6688   -4.5586    1.3726 H   0  0  0  0  0  0  0  0  0  0  0  0
   -3.6276   -3.7585    0.6280 C   0  0  0  0  0  0  0  0  0  0  0  0
   -4.5010   -3.1143    0.7544 H   0  0  0  0  0  0  0  0  0  0  0  0
   -3.6528   -4.2045   -0.3691 H   0  0  0  0  0  0  0  0  0  0  0  0
   -2.3564   -2.9494    0.8012 C   0  0  0  0  0  0  0  0  0  0  0  0
   -1.5834   -3.2166    1.7061 O   0  0  0  0  0  0  0  0  0  0  0  0
   -2.0902   -1.9024   -0.0553 N   0  0  0  0  0  0  0  0  0  0  0  0
   -2.8050   -1.6607   -0.7392 H   0  0  0  0  0  0  0  0  0  0  0  0
   -0.9240   -1.0093    0.0393 C   0  0  1  0  0  0  0  0  0  0  0  0
   -0.4616   -1.1091    1.0269 H   0  0  0  0  0  0  0  0  0  0  0  0
    0.0934   -1.4436   -1.0358 C   0  0  0  0  0  0  0  0  0  0  0  0
   -0.0114   -2.5216   -1.1889 H   0  0  0  0  0  0  0  0  0  0  0  0
   -0.1338   -0.9610   -1.9920 H   0  0  0  0  0  0  0  0  0  0  0  0
    1.5340   -1.1737   -0.6633 C   0  0  0  0  0  0  0  0  0  0  0  0
    2.0664   -0.0305   -0.1106 C   0  0  0  0  0  0  0  0  0  0  0  0
    1.5255    0.8838    0.1132 H   0  0  0  0  0  0  0  0  0  0  0  0
    3.4288   -0.2410    0.0824 N   0  0  0  0  0  0  0  0  0  0  0  0
    4.0836    0.4376    0.4649 H   0  0  0  0  0  0  0  0  0  0  0  0
    3.7834   -1.5107   -0.3379 C   0  0  0  0  0  0  0  0  0  0  0  0
    5.0117   -2.1717   -0.3463 C   0  0  0  0  0  0  0  0  0  0  0  0
    5.9023   -1.6767    0.0240 H   0  0  0  0  0  0  0  0  0  0  0  0
    5.0780   -3.4826   -0.8376 C   0  0  0  0  0  0  0  0  0  0  0  0
    6.0266   -4.0111   -0.8489 H   0  0  0  0  0  0  0  0  0  0  0  0
    3.9190   -4.1133   -1.3142 C   0  0  0  0  0  0  0  0  0  0  0  0
    3.9717   -5.1294   -1.6933 H   0  0  0  0  0  0  0  0  0  0  0  0
    2.6905   -3.4370   -1.3017 C   0  0  0  0  0  0  0  0  0  0  0  0
    1.7946   -3.9262   -1.6686 H   0  0  0  0  0  0  0  0  0  0  0  0
    2.6306   -2.1277   -0.8101 C   0  0  0  0  0  0  0  0  0  0  0  0
   -1.3570    0.4575   -0.1419 C   0  0  0  0  0  0  0  0  0  0  0  0
   -2.1564    0.7529   -1.0231 O   0  0  0  0  0  0  0  0  0  0  0  0
   -0.8776    1.4456    0.6993 N   0  0  0  0  0  0  0  0  0  0  0  0
   -0.3501    1.1414    1.5134 H   0  0  0  0  0  0  0  0  0  0  0  0
   -1.3293    2.8302    0.6353 C   0  0  0  0  0  0  0  0  0  0  0  0
   -2.4089    2.8906    0.8089 H   0  0  0  0  0  0  0  0  0  0  0  0
   -0.8218    3.4293    1.3975 H   0  0  0  0  0  0  0  0  0  0  0  0
   -1.1058    3.2611   -0.3464 H   0  0  0  0  0  0  0  0  0  0  0  0
  1  2  1  0  0  0  0
  2  3  1  0  0  0  0
  2  4  1  0  0  0  0
  2  5  1  0  0  0  0
  5  6  2  0  0  0  0
  5  7  1  0  0  0  0
  7  8  1  0  0  0  0
  7  9  1  0  0  0  0
  9 10  1  0  0  0  0
  9 11  1  0  0  0  0
  9 29  1  0  0  0  0
 11 12  1  0  0  0  0
 11 13  1  0  0  0  0
 11 14  1  0  0  0  0
 14 15  2  0  0  0  0
 14 28  1  0  0  0  0
 15 16  1  0  0  0  0
 15 17  1  0  0  0  0
 17 18  1  0  0  0  0
 17 19  1  0  0  0  0
 19 20  1  0  0  0  0
 19 28  2  0  0  0  0
 20 21  1  0  0  0  0
 20 22  2  0  0  0  0
 22 23  1  0  0  0  0
 22 24  1  0  0  0  0
 24 25  1  0  0  0  0
 24 26  2  0  0  0  0
 26 27  1  0  0  0  0
 26 28  1  0  0  0  0
 29 30  2  0  0  0  0
 29 31  1  0  0  0  0
 31 32  1  0  0  0  0
 31 33  1  0  0  0  0
 33 34  1  0  0  0  0
 33 35  1  0  0  0  0
 33 36  1  0  0  0  0
M  END
$$$$

  -OEChem-03222214083D

 36 37  0     1  0  0  0  0  0999 V2000
   -3.7212   -4.5494    1.3365 H   0  0  0  0  0  0  0  0  0  0  0  0
   -3.6574   -3.7507    0.5921 C   0  0  0  0  0  0  0  0  0  0  0  0
   -4.5337   -3.1056    0.6916 H   0  0  0  0  0  0  0  0  0  0  0  0
   -3.6534   -4.1987   -0.4045 H   0  0  0  0  0  0  0  0  0  0  0  0
   -2.3917   -2.9414    0.8023 C   0  0  0  0  0  0  0  0  0  0  0  0
   -1.6569   -3.1934    1.7428 O   0  0  0  0  0  0  0  0  0  0  0  0
   -2.0918   -1.9044   -0.0552 N   0  0  0  0  0  0  0  0  0  0  0  0
   -2.7783   -1.6711   -0.7705 H   0  0  0  0  0  0  0  0  0  0  0  0
   -0.9254   -1.0150    0.0706 C   0  0  1  0  0  0  0  0  0  0  0  0
   -0.4942   -1.1095    1.0724 H   0  0  0  0  0  0  0  0  0  0  0  0
    0.1200   -1.4501   -0.9782 C   0  0  0  0  0  0  0  0  0  0  0  0
    0.0179   -2.5302   -1.1236 H   0  0  0  0  0  0  0  0  0  0  0  0
   -0.0867   -0.9751   -1.9429 H   0  0  0  0  0  0  0  0  0  0  0  0
    1.5593   -1.1942   -0.5877 C   0  0  0  0  0  0  0  0  0  0  0  0
    2.0788   -0.2035    0.2156 C   0  0  0  0  0  0  0  0  0  0  0  0
    1.5166    0.5826    0.7083 H   0  0  0  0  0  0  0  0  0  0  0  0
    3.4594   -0.3757    0.2734 N   0  0  0  0  0  0  0  0  0  0  0  0
    4.1073    0.2116    0.7942 H   0  0  0  0  0  0  0  0  0  0  0  0
    3.8407   -1.4651   -0.4898 C   0  0  0  0  0  0  0  0  0  0  0  0
    5.0921   -2.0259   -0.7458 C   0  0  0  0  0  0  0  0  0  0  0  0
    5.9849   -1.5950   -0.3068 H   0  0  0  0  0  0  0  0  0  0  0  0
    5.1788   -3.1513   -1.5770 C   0  0  0  0  0  0  0  0  0  0  0  0
    6.1459   -3.5999   -1.7841 H   0  0  0  0  0  0  0  0  0  0  0  0
    4.0170   -3.6993   -2.1414 C   0  0  0  0  0  0  0  0  0  0  0  0
    4.0864   -4.5711   -2.7849 H   0  0  0  0  0  0  0  0  0  0  0  0
    2.7650   -3.1255   -1.8768 C   0  0  0  0  0  0  0  0  0  0  0  0
    1.8657   -3.5479   -2.3123 H   0  0  0  0  0  0  0  0  0  0  0  0
    2.6857   -2.0030   -1.0448 C   0  0  0  0  0  0  0  0  0  0  0  0
   -1.3521    0.4508   -0.1408 C   0  0  0  0  0  0  0  0  0  0  0  0
   -2.1268    0.7331   -1.0482 O   0  0  0  0  0  0  0  0  0  0  0  0
   -0.9039    1.4517    0.7030 N   0  0  0  0  0  0  0  0  0  0  0  0
   -0.4218    1.1605    1.5484 H   0  0  0  0  0  0  0  0  0  0  0  0
   -1.3531    2.8349    0.5977 C   0  0  0  0  0  0  0  0  0  0  0  0
   -2.4363    2.8993    0.7455 H   0  0  0  0  0  0  0  0  0  0  0  0
   -0.8621    3.4510    1.3571 H   0  0  0  0  0  0  0  0  0  0  0  0
   -1.1069    3.2431   -0.3883 H   0  0  0  0  0  0  0  0  0  0  0  0
  1  2  1  0  0  0  0
  2  3  1  0  0  0  0
  2  4  1  0  0  0  0
  2  5  1  0  0  0  0
  5  6  2  0  0  0  0
  5  7  1  0  0  0  0
  7  8  1  0  0  0  0
  7  9  1  0  0  0  0
  9 10  1  0  0  0  0
  9 11  1  0  0  0  0
  9 29  1  0  0  0  0
 11 12  1  0  0  0  0
 11 13  1  0  0  0  0
 11 14  1  0  0  0  0
 14 15  2  0  0  0  0
 14 28  1  0  0  0  0
 15 16  1  0  0  0  0
 15 17  1  0  0  0  0
 17 18  1  0  0  0  0
 17 19  1  0  0  0  0
 19 20  1  0  0  0  0
 19 28  2  0  0  0  0
 20 21  1  0  0  0  0
 20 22  2  0  0  0  0
 22 23  1  0  0  0  0
 22 24  1  0  0  0  0
 24 25  1  0  0  0  0
 24 26  2  0  0  0  0
 26 27  1  0  0  0  0
 26 28  1  0  0  0  0
 29 30  2  0  0  0  0
 29 31  1  0  0  0  0
 31 32  1  0  0  0  0
 31 33  1  0  0  0  0
 33 34  1  0  0  0  0
 33 35  1  0  0  0  0
 33 36  1  0  0  0  0
M  END
$$$$

  -OEChem-03222214083D

 36 37  0     1  0  0  0  0  0999 V2000
   -3.7714   -4.5474    1.3179 H   0  0  0  0  0  0  0  0  0  0  0  0
   -3.7008   -3.7433    0.5800 C   0  0  0  0  0  0  0  0  0  0  0  0
   -4.5690   -3.0887    0.6877 H   0  0  0  0  0  0  0  0  0  0  0  0
   -3.7054   -4.1831   -0.4202 H   0  0  0  0  0  0  0  0  0  0  0  0
   -2.4250   -2.9506    0.7926 C   0  0  0  0  0  0  0  0  0  0  0  0
   -1.6923   -3.2154    1.7315 O   0  0  0  0  0  0  0  0  0  0  0  0
   -2.1098   -1.9172   -0.0640 N   0  0  0  0  0  0  0  0  0  0  0  0
   -2.7980   -1.6662   -0.7719 H   0  0  0  0  0  0  0  0  0  0  0  0
   -0.9358   -1.0392    0.0696 C   0  0  1  0  0  0  0  0  0  0  0  0
   -0.5216   -1.1399    1.0773 H   0  0  0  0  0  0  0  0  0  0  0  0
    0.1204   -1.4728   -0.9680 C   0  0  0  0  0  0  0  0  0  0  0  0
    0.0193   -2.5518   -1.1243 H   0  0  0  0  0  0  0  0  0  0  0  0
   -0.0758   -0.9875   -1.9298 H   0  0  0  0  0  0  0  0  0  0  0  0
    1.5576   -1.2256   -0.5637 C   0  0  0  0  0  0  0  0  0  0  0  0
    2.0643   -0.4375    0.4461 C   0  0  0  0  0  0  0  0  0  0  0  0
    1.4856    0.1475    1.1532 H   0  0  0  0  0  0  0  0  0  0  0  0
    3.4538   -0.5243    0.4045 N   0  0  0  0  0  0  0  0  0  0  0  0
    4.0952   -0.0526    1.0386 H   0  0  0  0  0  0  0  0  0  0  0  0
    3.8528   -1.3561   -0.6270 C   0  0  0  0  0  0  0  0  0  0  0  0
    5.1162   -1.7506   -1.0673 C   0  0  0  0  0  0  0  0  0  0  0  0
    6.0074   -1.3899   -0.5661 H   0  0  0  0  0  0  0  0  0  0  0  0
    5.2175   -2.6177   -2.1642 C   0  0  0  0  0  0  0  0  0  0  0  0
    6.1946   -2.9334   -2.5177 H   0  0  0  0  0  0  0  0  0  0  0  0
    4.0574   -3.0781   -2.8057 C   0  0  0  0  0  0  0  0  0  0  0  0
    4.1380   -3.7485   -3.6560 H   0  0  0  0  0  0  0  0  0  0  0  0
    2.7929   -2.6752   -2.3524 C   0  0  0  0  0  0  0  0  0  0  0  0
    1.8933   -3.0284   -2.8455 H   0  0  0  0  0  0  0  0  0  0  0  0
    2.7007   -1.8112   -1.2560 C   0  0  0  0  0  0  0  0  0  0  0  0
   -1.3383    0.4333   -0.1448 C   0  0  0  0  0  0  0  0  0  0  0  0
   -2.1175    0.7233   -1.0461 O   0  0  0  0  0  0  0  0  0  0  0  0
   -0.8818    1.4286    0.7010 N   0  0  0  0  0  0  0  0  0  0  0  0
   -0.3691    1.1405    1.5280 H   0  0  0  0  0  0  0  0  0  0  0  0
   -1.2901    2.8230    0.5803 C   0  0  0  0  0  0  0  0  0  0  0  0
   -2.3766    2.9158    0.6811 H   0  0  0  0  0  0  0  0  0  0  0  0
   -0.8174    3.4249    1.3625 H   0  0  0  0  0  0  0  0  0  0  0  0
   -0.9907    3.2261   -0.3929 H   0  0  0  0  0  0  0  0  0  0  0  0
  1  2  1  0  0  0  0
  2  3  1  0  0  0  0
  2  4  1  0  0  0  0
  2  5  1  0  0  0  0
  5  6  2  0  0  0  0
  5  7  1  0  0  0  0
  7  8  1  0  0  0  0
  7  9  1  0  0  0  0
  9 10  1  0  0  0  0
  9 11  1  0  0  0  0
  9 29  1  0  0  0  0
 11 12  1  0  0  0  0
 11 13  1  0  0  0  0
 11 14  1  0  0  0  0
 14 15  2  0  0  0  0
 14 28  1  0  0  0  0
 15 16  1  0  0  0  0
 15 17  1  0  0  0  0
 17 18  1  0  0  0  0
 17 19  1  0  0  0  0
 19 20  1  0  0  0  0
 19 28  2  0  0  0  0
 20 21  1  0  0  0  0
 20 22  2  0  0  0  0
 22 23  1  0  0  0  0
 22 24  1  0  0  0  0
 24 25  1  0  0  0  0
 24 26  2  0  0  0  0
 26 27  1  0  0  0  0
 26 28  1  0  0  0  0
 29 30  2  0  0  0  0
 29 31  1  0  0  0  0
 31 32  1  0  0  0  0
 31 33  1  0  0  0  0
 33 34  1  0  0  0  0
 33 35  1  0  0  0  0
 33 36  1  0  0  0  0
M  END
$$$$

  -OEChem-03222214083D

 36 37  0     1  0  0  0  0  0999 V2000
   -3.8218   -4.5343    1.3165 H   0  0  0  0  0  0  0  0  0  0  0  0
   -3.7418   -3.7322    0.5773 C   0  0  0  0  0  0  0  0  0  0  0  0
   -4.5946   -3.0591    0.6935 H   0  0  0  0  0  0  0  0  0  0  0  0
   -3.7670   -4.1719   -0.4226 H   0  0  0  0  0  0  0  0  0  0  0  0
   -2.4468   -2.9669    0.7749 C   0  0  0  0  0  0  0  0  0  0  0  0
   -1.7020   -3.2557    1.6975 O   0  0  0  0  0  0  0  0  0  0  0  0
   -2.1267   -1.9311   -0.0773 N   0  0  0  0  0  0  0  0  0  0  0  0
   -2.8254   -1.6564   -0.7659 H   0  0  0  0  0  0  0  0  0  0  0  0
   -0.9457   -1.0630    0.0566 C   0  0  1  0  0  0  0  0  0  0  0  0
   -0.5437   -1.1723    1.0672 H   0  0  0  0  0  0  0  0  0  0  0  0
    0.1139   -1.4920   -0.9777 C   0  0  0  0  0  0  0  0  0  0  0  0
    0.0129   -2.5678   -1.1546 H   0  0  0  0  0  0  0  0  0  0  0  0
   -0.0787   -0.9884   -1.9310 H   0  0  0  0  0  0  0  0  0  0  0  0
    1.5501   -1.2497   -0.5655 C   0  0  0  0  0  0  0  0  0  0  0  0
    2.0612   -0.7052    0.5929 C   0  0  0  0  0  0  0  0  0  0  0  0
    1.4877   -0.3678    1.4509 H   0  0  0  0  0  0  0  0  0  0  0  0
    3.4494   -0.6795    0.4800 N   0  0  0  0  0  0  0  0  0  0  0  0
    4.0947   -0.3488    1.1944 H   0  0  0  0  0  0  0  0  0  0  0  0
    3.8428   -1.2014   -0.7401 C   0  0  0  0  0  0  0  0  0  0  0  0
    5.1020   -1.3899   -1.3099 C   0  0  0  0  0  0  0  0  0  0  0  0
    5.9962   -1.1028   -0.7682 H   0  0  0  0  0  0  0  0  0  0  0  0
    5.1951   -1.9560   -2.5893 C   0  0  0  0  0  0  0  0  0  0  0  0
    6.1689   -2.1104   -3.0445 H   0  0  0  0  0  0  0  0  0  0  0  0
    4.0314   -2.3257   -3.2814 C   0  0  0  0  0  0  0  0  0  0  0  0
    4.1057   -2.7650   -4.2716 H   0  0  0  0  0  0  0  0  0  0  0  0
    2.7714   -2.1316   -2.6975 C   0  0  0  0  0  0  0  0  0  0  0  0
    1.8685   -2.4165   -3.2275 H   0  0  0  0  0  0  0  0  0  0  0  0
    2.6880   -1.5669   -1.4205 C   0  0  0  0  0  0  0  0  0  0  0  0
   -1.3282    0.4162   -0.1471 C   0  0  0  0  0  0  0  0  0  0  0  0
   -2.1327    0.7172   -1.0225 O   0  0  0  0  0  0  0  0  0  0  0  0
   -0.8549    1.4000    0.7023 N   0  0  0  0  0  0  0  0  0  0  0  0
   -0.2378    1.1180    1.4565 H   0  0  0  0  0  0  0  0  0  0  0  0
   -1.2195    2.8059    0.5783 C   0  0  0  0  0  0  0  0  0  0  0  0
   -2.3041    2.9309    0.6643 H   0  0  0  0  0  0  0  0  0  0  0  0
   -0.7409    3.3919    1.3690 H   0  0  0  0  0  0  0  0  0  0  0  0
   -0.8944    3.2009   -0.3900 H   0  0  0  0  0  0  0  0  0  0  0  0
  1  2  1  0  0  0  0
  2  3  1  0  0  0  0
  2  4  1  0  0  0  0
  2  5  1  0  0  0  0
  5  6  2  0  0  0  0
  5  7  1  0  0  0  0
  7  8  1  0  0  0  0
  7  9  1  0  0  0  0
  9 10  1  0  0  0  0
  9 11  1  0  0  0  0
  9 29  1  0  0  0  0
 11 12  1  0  0  0  0
 11 13  1  0  0  0  0
 11 14  1  0  0  0  0
 14 15  2  0  0  0  0
 14 28  1  0  0  0  0
 15 16  1  0  0  0  0
 15 17  1  0  0  0  0
 17 18  1  0  0  0  0
 17 19  1  0  0  0  0
 19 20  1  0  0  0  0
 19 28  2  0  0  0  0
 20 21  1  0  0  0  0
 20 22  2  0  0  0  0
 22 23  1  0  0  0  0
 22 24  1  0  0  0  0
 24 25  1  0  0  0  0
 24 26  2  0  0  0  0
 26 27  1  0  0  0  0
 26 28  1  0  0  0  0
 29 30  2  0  0  0  0
 29 31  1  0  0  0  0
 31 32  1  0  0  0  0
 31 33  1  0  0  0  0
 33 34  1  0  0  0  0
 33 35  1  0  0  0  0
 33 36  1  0  0  0  0
M  END
$$$$

  -OEChem-03222214083D

 36 37  0     1  0  0  0  0  0999 V2000
   -3.8693   -4.5061    1.3567 H   0  0  0  0  0  0  0  0  0  0  0  0
   -3.7832   -3.7147    0.6070 C   0  0  0  0  0  0  0  0  0  0  0  0
   -4.6218   -3.0244    0.7259 H   0  0  0  0  0  0  0  0  0  0  0  0
   -3.8286   -4.1658   -0.3871 H   0  0  0  0  0  0  0  0  0  0  0  0
   -2.4713   -2.9723    0.7781 C   0  0  0  0  0  0  0  0  0  0  0  0
   -1.7077   -3.2811    1.6791 O   0  0  0  0  0  0  0  0  0  0  0  0
   -2.1514   -1.9408   -0.0794 N   0  0  0  0  0  0  0  0  0  0  0  0
   -2.8637   -1.6452   -0.7449 H   0  0  0  0  0  0  0  0  0  0  0  0
   -0.9555   -1.0916    0.0362 C   0  0  1  0  0  0  0  0  0  0  0  0
   -0.5532   -1.2045    1.0448 H   0  0  0  0  0  0  0  0  0  0  0  0
    0.0932   -1.5273   -1.0052 C   0  0  0  0  0  0  0  0  0  0  0  0
   -0.0159   -2.5997   -1.1970 H   0  0  0  0  0  0  0  0  0  0  0  0
   -0.1014   -1.0089   -1.9502 H   0  0  0  0  0  0  0  0  0  0  0  0
    1.5309   -1.2939   -0.5912 C   0  0  0  0  0  0  0  0  0  0  0  0
    2.0566   -1.0182    0.6537 C   0  0  0  0  0  0  0  0  0  0  0  0
    1.5036   -0.9602    1.5877 H   0  0  0  0  0  0  0  0  0  0  0  0
    3.4328   -0.8584    0.5121 N   0  0  0  0  0  0  0  0  0  0  0  0
    4.0876   -0.6835    1.2716 H   0  0  0  0  0  0  0  0  0  0  0  0
    3.8041   -1.0253   -0.8107 C   0  0  0  0  0  0  0  0  0  0  0  0
    5.0467   -0.9672   -1.4423 C   0  0  0  0  0  0  0  0  0  0  0  0
    5.9429   -0.7587   -0.8688 H   0  0  0  0  0  0  0  0  0  0  0  0
    5.1205   -1.1816   -2.8258 C   0  0  0  0  0  0  0  0  0  0  0  0
    6.0806   -1.1382   -3.3315 H   0  0  0  0  0  0  0  0  0  0  0  0
    3.9544   -1.4519   -3.5583 C   0  0  0  0  0  0  0  0  0  0  0  0
    4.0133   -1.6168   -4.6299 H   0  0  0  0  0  0  0  0  0  0  0  0
    2.7116   -1.5111   -2.9113 C   0  0  0  0  0  0  0  0  0  0  0  0
    1.8083   -1.7219   -3.4741 H   0  0  0  0  0  0  0  0  0  0  0  0
    2.6468   -1.2958   -1.5304 C   0  0  0  0  0  0  0  0  0  0  0  0
   -1.3095    0.3956   -0.1583 C   0  0  0  0  0  0  0  0  0  0  0  0
   -2.1459    0.7111   -0.9981 O   0  0  0  0  0  0  0  0  0  0  0  0
   -0.7995    1.3645    0.6863 N   0  0  0  0  0  0  0  0  0  0  0  0
   -0.0827    1.0818    1.3472 H   0  0  0  0  0  0  0  0  0  0  0  0
   -1.1232    2.7803    0.5622 C   0  0  0  0  0  0  0  0  0  0  0  0
   -2.2010    2.9385    0.6745 H   0  0  0  0  0  0  0  0  0  0  0  0
   -0.6085    3.3551    1.3379 H   0  0  0  0  0  0  0  0  0  0  0  0
   -0.8108    3.1613   -0.4158 H   0  0  0  0  0  0  0  0  0  0  0  0
  1  2  1  0  0  0  0
  2  3  1  0  0  0  0
  2  4  1  0  0  0  0
  2  5  1  0  0  0  0
  5  6  2  0  0  0  0
  5  7  1  0  0  0  0
  7  8  1  0  0  0  0
  7  9  1  0  0  0  0
  9 10  1  0  0  0  0
  9 11  1  0  0  0  0
  9 29  1  0  0  0  0
 11 12  1  0  0  0  0
 11 13  1  0  0  0  0
 11 14  1  0  0  0  0
 14 15  2  0  0  0  0
 14 28  1  0  0  0  0
 15 16  1  0  0  0  0
 15 17  1  0  0  0  0
 17 18  1  0  0  0  0
 17 19  1  0  0  0  0
 19 20  1  0  0  0  0
 19 28  2  0  0  0  0
 20 21  1  0  0  0  0
 20 22  2  0  0  0  0
 22 23  1  0  0  0  0
 22 24  1  0  0  0  0
 24 25  1  0  0  0  0
 24 26  2  0  0  0  0
 26 27  1  0  0  0  0
 26 28  1  0  0  0  0
 29 30  2  0  0  0  0
 29 31  1  0  0  0  0
 31 32  1  0  0  0  0
 31 33  1  0  0  0  0
 33 34  1  0  0  0  0
 33 35  1  0  0  0  0
 33 36  1  0  0  0  0
M  END
$$$$

  -OEChem-03222214083D

 36 37  0     1  0  0  0  0  0999 V2000
   -3.8846   -4.4729    1.4299 H   0  0  0  0  0  0  0  0  0  0  0  0
   -3.8084   -3.6870    0.6733 C   0  0  0  0  0  0  0  0  0  0  0  0
   -4.6206   -2.9718    0.8240 H   0  0  0  0  0  0  0  0  0  0  0  0
   -3.9098   -4.1395   -0.3160 H   0  0  0  0  0  0  0  0  0  0  0  0
   -2.4701   -2.9821    0.7849 C   0  0  0  0  0  0  0  0  0  0  0  0
   -1.6698   -3.3202    1.6430 O   0  0  0  0  0  0  0  0  0  0  0  0
   -2.1660   -1.9530   -0.0808 N   0  0  0  0  0  0  0  0  0  0  0  0
   -2.9031   -1.6332   -0.7071 H   0  0  0  0  0  0  0  0  0  0  0  0
   -0.9567   -1.1200    0.0022 C   0  0  1  0  0  0  0  0  0  0  0  0
   -0.5339   -1.2348    1.0018 H   0  0  0  0  0  0  0  0  0  0  0  0
    0.0637   -1.5646   -1.0619 C   0  0  0  0  0  0  0  0  0  0  0  0
   -0.0541   -2.6355   -1.2563 H   0  0  0  0  0  0  0  0  0  0  0  0
   -0.1467   -1.0410   -2.0001 H   0  0  0  0  0  0  0  0  0  0  0  0
    1.5039   -1.3355   -0.6569 C   0  0  0  0  0  0  0  0  0  0  0  0
    2.0525   -1.3426    0.6079 C   0  0  0  0  0  0  0  0  0  0  0  0
    1.5263   -1.5722    1.5323 H   0  0  0  0  0  0  0  0  0  0  0  0
    3.4063   -1.0399    0.4895 N   0  0  0  0  0  0  0  0  0  0  0  0
    4.0745   -1.0164    1.2573 H   0  0  0  0  0  0  0  0  0  0  0  0
    3.7389   -0.8339   -0.8382 C   0  0  0  0  0  0  0  0  0  0  0  0
    4.9505   -0.5151   -1.4516 C   0  0  0  0  0  0  0  0  0  0  0  0
    5.8474   -0.3855   -0.8561 H   0  0  0  0  0  0  0  0  0  0  0  0
    4.9920   -0.3644   -2.8447 C   0  0  0  0  0  0  0  0  0  0  0  0
    5.9282   -0.1163   -3.3359 H   0  0  0  0  0  0  0  0  0  0  0  0
    3.8252   -0.5350   -3.6052 C   0  0  0  0  0  0  0  0  0  0  0  0
    3.8597   -0.4185   -4.6841 H   0  0  0  0  0  0  0  0  0  0  0  0
    2.6136   -0.8583   -2.9771 C   0  0  0  0  0  0  0  0  0  0  0  0
    1.7110   -0.9935   -3.5639 H   0  0  0  0  0  0  0  0  0  0  0  0
    2.5800   -1.0071   -1.5860 C   0  0  0  0  0  0  0  0  0  0  0  0
   -1.2886    0.3737   -0.1769 C   0  0  0  0  0  0  0  0  0  0  0  0
   -2.1501    0.7070   -0.9839 O   0  0  0  0  0  0  0  0  0  0  0  0
   -0.7346    1.3269    0.6577 N   0  0  0  0  0  0  0  0  0  0  0  0
    0.0298    1.0316    1.2581 H   0  0  0  0  0  0  0  0  0  0  0  0
   -1.0218    2.7508    0.5389 C   0  0  0  0  0  0  0  0  0  0  0  0
   -2.0912    2.9391    0.6809 H   0  0  0  0  0  0  0  0  0  0  0  0
   -0.4697    3.3122    1.2987 H   0  0  0  0  0  0  0  0  0  0  0  0
   -0.7260    3.1205   -0.4486 H   0  0  0  0  0  0  0  0  0  0  0  0
  1  2  1  0  0  0  0
  2  3  1  0  0  0  0
  2  4  1  0  0  0  0
  2  5  1  0  0  0  0
  5  6  2  0  0  0  0
  5  7  1  0  0  0  0
  7  8  1  0  0  0  0
  7  9  1  0  0  0  0
  9 10  1  0  0  0  0
  9 11  1  0  0  0  0
  9 29  1  0  0  0  0
 11 12  1  0  0  0  0
 11 13  1  0  0  0  0
 11 14  1  0  0  0  0
 14 15  2  0  0  0  0
 14 28  1  0  0  0  0
 15 16  1  0  0  0  0
 15 17  1  0  0  0  0
 17 18  1  0  0  0  0
 17 19  1  0  0  0  0
 19 20  1  0  0  0  0
 19 28  2  0  0  0  0
 20 21  1  0  0  0  0
 20 22  2  0  0  0  0
 22 23  1  0  0  0  0
 22 24  1  0  0  0  0
 24 25  1  0  0  0  0
 24 26  2  0  0  0  0
 26 27  1  0  0  0  0
 26 28  1  0  0  0  0
 29 30  2  0  0  0  0
 29 31  1  0  0  0  0
 31 32  1  0  0  0  0
 31 33  1  0  0  0  0
 33 34  1  0  0  0  0
 33 35  1  0  0  0  0
 33 36  1  0  0  0  0
M  END
$$$$

  -OEChem-03222214083D

 36 37  0     1  0  0  0  0  0999 V2000
   -3.8531   -4.4433    1.5309 H   0  0  0  0  0  0  0  0  0  0  0  0
   -3.8035   -3.6621    0.7671 C   0  0  0  0  0  0  0  0  0  0  0  0
   -4.5872   -2.9267    0.9643 H   0  0  0  0  0  0  0  0  0  0  0  0
   -3.9764   -4.1156   -0.2119 H   0  0  0  0  0  0  0  0  0  0  0  0
   -2.4438   -2.9899    0.7933 C   0  0  0  0  0  0  0  0  0  0  0  0
   -1.5962   -3.3545    1.5936 O   0  0  0  0  0  0  0  0  0  0  0  0
   -2.1698   -1.9627   -0.0849 N   0  0  0  0  0  0  0  0  0  0  0  0
   -2.9382   -1.6178   -0.6584 H   0  0  0  0  0  0  0  0  0  0  0  0
   -0.9489   -1.1435   -0.0503 C   0  0  1  0  0  0  0  0  0  0  0  0
   -0.4886   -1.2597    0.9338 H   0  0  0  0  0  0  0  0  0  0  0  0
    0.0316   -1.5967   -1.1456 C   0  0  0  0  0  0  0  0  0  0  0  0
   -0.0922   -2.6689   -1.3281 H   0  0  0  0  0  0  0  0  0  0  0  0
   -0.1986   -1.0804   -2.0828 H   0  0  0  0  0  0  0  0  0  0  0  0
    1.4711   -1.3620   -0.7514 C   0  0  0  0  0  0  0  0  0  0  0  0
    2.0509   -1.6500    0.4638 C   0  0  0  0  0  0  0  0  0  0  0  0
    1.5566   -2.1434    1.2997 H   0  0  0  0  0  0  0  0  0  0  0  0
    3.3739   -1.2191    0.4174 N   0  0  0  0  0  0  0  0  0  0  0  0
    4.0573   -1.3358    1.1631 H   0  0  0  0  0  0  0  0  0  0  0  0
    3.6518   -0.6501   -0.8143 C   0  0  0  0  0  0  0  0  0  0  0  0
    4.8173   -0.0835   -1.3310 C   0  0  0  0  0  0  0  0  0  0  0  0
    5.7181   -0.0398   -0.7288 H   0  0  0  0  0  0  0  0  0  0  0  0
    4.8073    0.4278   -2.6363 C   0  0  0  0  0  0  0  0  0  0  0  0
    5.7070    0.8721   -3.0519 H   0  0  0  0  0  0  0  0  0  0  0  0
    3.6359    0.3661   -3.4064 C   0  0  0  0  0  0  0  0  0  0  0  0
    3.6300    0.7627   -4.4172 H   0  0  0  0  0  0  0  0  0  0  0  0
    2.4710   -0.2073   -2.8766 C   0  0  0  0  0  0  0  0  0  0  0  0
    1.5656   -0.2561   -3.4724 H   0  0  0  0  0  0  0  0  0  0  0  0
    2.4887   -0.7171   -1.5737 C   0  0  0  0  0  0  0  0  0  0  0  0
   -1.2645    0.3548   -0.2116 C   0  0  0  0  0  0  0  0  0  0  0  0
   -2.1592    0.7035   -0.9750 O   0  0  0  0  0  0  0  0  0  0  0  0
   -0.6595    1.2931    0.6037 N   0  0  0  0  0  0  0  0  0  0  0  0
    0.1385    0.9823    1.1516 H   0  0  0  0  0  0  0  0  0  0  0  0
   -0.9253    2.7223    0.5020 C   0  0  0  0  0  0  0  0  0  0  0  0
   -1.9833    2.9299    0.6939 H   0  0  0  0  0  0  0  0  0  0  0  0
   -0.3281    3.2710    1.2367 H   0  0  0  0  0  0  0  0  0  0  0  0
   -0.6694    3.0898   -0.4972 H   0  0  0  0  0  0  0  0  0  0  0  0
  1  2  1  0  0  0  0
  2  3  1  0  0  0  0
  2  4  1  0  0  0  0
  2  5  1  0  0  0  0
  5  6  2  0  0  0  0
  5  7  1  0  0  0  0
  7  8  1  0  0  0  0
  7  9  1  0  0  0  0
  9 10  1  0  0  0  0
  9 11  1  0  0  0  0
  9 29  1  0  0  0  0
 11 12  1  0  0  0  0
 11 13  1  0  0  0  0
 11 14  1  0  0  0  0
 14 15  2  0  0  0  0
 14 28  1  0  0  0  0
 15 16  1  0  0  0  0
 15 17  1  0  0  0  0
 17 18  1  0  0  0  0
 17 19  1  0  0  0  0
 19 20  1  0  0  0  0
 19 28  2  0  0  0  0
 20 21  1  0  0  0  0
 20 22  2  0  0  0  0
 22 23  1  0  0  0  0
 22 24  1  0  0  0  0
 24 25  1  0  0  0  0
 24 26  2  0  0  0  0
 26 27  1  0  0  0  0
 26 28  1  0  0  0  0
 29 30  2  0  0  0  0
 29 31  1  0  0  0  0
 31 32  1  0  0  0  0
 31 33  1  0  0  0  0
 33 34  1  0  0  0  0
 33 35  1  0  0  0  0
 33 36  1  0  0  0  0
M  END
$$$$

  -OEChem-03222214083D

 36 37  0     1  0  0  0  0  0999 V2000
   -3.8028   -4.4376    1.5923 H   0  0  0  0  0  0  0  0  0  0  0  0
   -3.7823   -3.6433    0.8410 C   0  0  0  0  0  0  0  0  0  0  0  0
   -4.5416   -2.8996    1.0943 H   0  0  0  0  0  0  0  0  0  0  0  0
   -4.0166   -4.0759   -0.1347 H   0  0  0  0  0  0  0  0  0  0  0  0
   -2.4119   -2.9936    0.8042 C   0  0  0  0  0  0  0  0  0  0  0  0
   -1.5306   -3.3813    1.5560 O   0  0  0  0  0  0  0  0  0  0  0  0
   -2.1621   -1.9700   -0.0854 N   0  0  0  0  0  0  0  0  0  0  0  0
   -2.9513   -1.6116   -0.6207 H   0  0  0  0  0  0  0  0  0  0  0  0
   -0.9315   -1.1649   -0.1007 C   0  0  1  0  0  0  0  0  0  0  0  0
   -0.4325   -1.2870    0.8652 H   0  0  0  0  0  0  0  0  0  0  0  0
    0.0073   -1.6307   -1.2229 C   0  0  0  0  0  0  0  0  0  0  0  0
   -0.1212   -2.7057   -1.3849 H   0  0  0  0  0  0  0  0  0  0  0  0
   -0.2377   -1.1285   -2.1641 H   0  0  0  0  0  0  0  0  0  0  0  0
    1.4431   -1.3881   -0.8367 C   0  0  0  0  0  0  0  0  0  0  0  0
    2.0844   -1.9264    0.2543 C   0  0  0  0  0  0  0  0  0  0  0  0
    1.6508   -2.6464    0.9480 H   0  0  0  0  0  0  0  0  0  0  0  0
    3.3652   -1.3820    0.3008 N   0  0  0  0  0  0  0  0  0  0  0  0
    4.0788   -1.6171    0.9880 H   0  0  0  0  0  0  0  0  0  0  0  0
    3.5450   -0.4822   -0.7377 C   0  0  0  0  0  0  0  0  0  0  0  0
    4.6328    0.3129   -1.0988 C   0  0  0  0  0  0  0  0  0  0  0  0
    5.5514    0.2771   -0.5235 H   0  0  0  0  0  0  0  0  0  0  0  0
    4.5214    1.1578   -2.2122 C   0  0  0  0  0  0  0  0  0  0  0  0
    5.3600    1.7825   -2.5050 H   0  0  0  0  0  0  0  0  0  0  0  0
    3.3274    1.1981   -2.9485 C   0  0  0  0  0  0  0  0  0  0  0  0
    3.2432    1.8550   -3.8090 H   0  0  0  0  0  0  0  0  0  0  0  0
    2.2417    0.3911   -2.5791 C   0  0  0  0  0  0  0  0  0  0  0  0
    1.3177    0.4207   -3.1477 H   0  0  0  0  0  0  0  0  0  0  0  0
    2.3628   -0.4524   -1.4695 C   0  0  0  0  0  0  0  0  0  0  0  0
   -1.2233    0.3391   -0.2506 C   0  0  0  0  0  0  0  0  0  0  0  0
   -2.1320    0.7067   -0.9881 O   0  0  0  0  0  0  0  0  0  0  0  0
   -0.5673    1.2640    0.5399 N   0  0  0  0  0  0  0  0  0  0  0  0
    0.2515    0.9339    1.0448 H   0  0  0  0  0  0  0  0  0  0  0  0
   -0.7782    2.7006    0.4183 C   0  0  0  0  0  0  0  0  0  0  0  0
   -1.8243    2.9534    0.6204 H   0  0  0  0  0  0  0  0  0  0  0  0
   -0.1500    3.2361    1.1364 H   0  0  0  0  0  0  0  0  0  0  0  0
   -0.5212    3.0419   -0.5899 H   0  0  0  0  0  0  0  0  0  0  0  0
  1  2  1  0  0  0  0
  2  3  1  0  0  0  0
  2  4  1  0  0  0  0
  2  5  1  0  0  0  0
  5  6  2  0  0  0  0
  5  7  1  0  0  0  0
  7  8  1  0  0  0  0
  7  9  1  0  0  0  0
  9 10  1  0  0  0  0
  9 11  1  0  0  0  0
  9 29  1  0  0  0  0
 11 12  1  0  0  0  0
 11 13  1  0  0  0  0
 11 14  1  0  0  0  0
 14 15  2  0  0  0  0
 14 28  1  0  0  0  0
 15 16  1  0  0  0  0
 15 17  1  0  0  0  0
 17 18  1  0  0  0  0
 17 19  1  0  0  0  0
 19 20  1  0  0  0  0
 19 28  2  0  0  0  0
 20 21  1  0  0  0  0
 20 22  2  0  0  0  0
 22 23  1  0  0  0  0
 22 24  1  0  0  0  0
 24 25  1  0  0  0  0
 24 26  2  0  0  0  0
 26 27  1  0  0  0  0
 26 28  1  0  0  0  0
 29 30  2  0  0  0  0
 29 31  1  0  0  0  0
 31 32  1  0  0  0  0
 31 33  1  0  0  0  0
 33 34  1  0  0  0  0
 33 35  1  0  0  0  0
 33 36  1  0  0  0  0
M  END
$$$$

  -OEChem-03222214083D

 36 37  0     1  0  0  0  0  0999 V2000
   -3.7609   -4.4148    1.6238 H   0  0  0  0  0  0  0  0  0  0  0  0
   -3.7514   -3.6242    0.8682 C   0  0  0  0  0  0  0  0  0  0  0  0
   -4.4919   -2.8681    1.1402 H   0  0  0  0  0  0  0  0  0  0  0  0
   -4.0203   -4.0569   -0.0984 H   0  0  0  0  0  0  0  0  0  0  0  0
   -2.3740   -2.9941    0.7883 C   0  0  0  0  0  0  0  0  0  0  0  0
   -1.4712   -3.4039    1.5018 O   0  0  0  0  0  0  0  0  0  0  0  0
   -2.1445   -1.9644   -0.0993 N   0  0  0  0  0  0  0  0  0  0  0  0
   -2.9490   -1.5943   -0.6030 H   0  0  0  0  0  0  0  0  0  0  0  0
   -0.9151   -1.1583   -0.1370 C   0  0  1  0  0  0  0  0  0  0  0  0
   -0.3939   -1.2887    0.8172 H   0  0  0  0  0  0  0  0  0  0  0  0
    0.0051   -1.6242   -1.2714 C   0  0  0  0  0  0  0  0  0  0  0  0
   -0.1202   -2.7013   -1.4222 H   0  0  0  0  0  0  0  0  0  0  0  0
   -0.2469   -1.1300   -2.2151 H   0  0  0  0  0  0  0  0  0  0  0  0
    1.4359   -1.3673   -0.8850 C   0  0  0  0  0  0  0  0  0  0  0  0
    2.1665   -2.1011    0.0181 C   0  0  0  0  0  0  0  0  0  0  0  0
    1.8161   -2.9939    0.5349 H   0  0  0  0  0  0  0  0  0  0  0  0
    3.4064   -1.4807    0.1552 N   0  0  0  0  0  0  0  0  0  0  0  0
    4.1640   -1.8088    0.7512 H   0  0  0  0  0  0  0  0  0  0  0  0
    3.4670   -0.3415   -0.6323 C   0  0  0  0  0  0  0  0  0  0  0  0
    4.4699    0.6102   -0.8160 C   0  0  0  0  0  0  0  0  0  0  0  0
    5.4161    0.5146   -0.2949 H   0  0  0  0  0  0  0  0  0  0  0  0
    4.2363    1.6910   -1.6783 C   0  0  0  0  0  0  0  0  0  0  0  0
    5.0083    2.4392   -1.8309 H   0  0  0  0  0  0  0  0  0  0  0  0
    3.0056    1.8085   -2.3429 C   0  0  0  0  0  0  0  0  0  0  0  0
    2.8256    2.6477   -3.0080 H   0  0  0  0  0  0  0  0  0  0  0  0
    2.0052    0.8448   -2.1528 C   0  0  0  0  0  0  0  0  0  0  0  0
    1.0509    0.9349   -2.6627 H   0  0  0  0  0  0  0  0  0  0  0  0
    2.2501   -0.2329   -1.2955 C   0  0  0  0  0  0  0  0  0  0  0  0
   -1.2044    0.3473   -0.2702 C   0  0  0  0  0  0  0  0  0  0  0  0
   -2.1188    0.7253   -0.9953 O   0  0  0  0  0  0  0  0  0  0  0  0
   -0.5270    1.2630    0.5125 N   0  0  0  0  0  0  0  0  0  0  0  0
    0.3027    0.9226    0.9933 H   0  0  0  0  0  0  0  0  0  0  0  0
   -0.7195    2.7022    0.3934 C   0  0  0  0  0  0  0  0  0  0  0  0
   -1.7582    2.9699    0.6140 H   0  0  0  0  0  0  0  0  0  0  0  0
   -0.0708    3.2289    1.0999 H   0  0  0  0  0  0  0  0  0  0  0  0
   -0.4752    3.0393   -0.6195 H   0  0  0  0  0  0  0  0  0  0  0  0
  1  2  1  0  0  0  0
  2  3  1  0  0  0  0
  2  4  1  0  0  0  0
  2  5  1  0  0  0  0
  5  6  2  0  0  0  0
  5  7  1  0  0  0  0
  7  8  1  0  0  0  0
  7  9  1  0  0  0  0
  9 10  1  0  0  0  0
  9 11  1  0  0  0  0
  9 29  1  0  0  0  0
 11 12  1  0  0  0  0
 11 13  1  0  0  0  0
 11 14  1  0  0  0  0
 14 15  2  0  0  0  0
 14 28  1  0  0  0  0
 15 16  1  0  0  0  0
 15 17  1  0  0  0  0
 17 18  1  0  0  0  0
 17 19  1  0  0  0  0
 19 20  1  0  0  0  0
 19 28  2  0  0  0  0
 20 21  1  0  0  0  0
 20 22  2  0  0  0  0
 22 23  1  0  0  0  0
 22 24  1  0  0  0  0
 24 25  1  0  0  0  0
 24 26  2  0  0  0  0
 26 27  1  0  0  0  0
 26 28  1  0  0  0  0
 29 30  2  0  0  0  0
 29 31  1  0  0  0  0
 31 32  1  0  0  0  0
 31 33  1  0  0  0  0
 33 34  1  0  0  0  0
 33 35  1  0  0  0  0
 33 36  1  0  0  0  0
M  END
$$$$

  -OEChem-03222214083D

 36 37  0     1  0  0  0  0  0999 V2000
   -3.7441   -4.4492    1.5534 H   0  0  0  0  0  0  0  0  0  0  0  0
   -3.7292   -3.6587    0.7979 C   0  0  0  0  0  0  0  0  0  0  0  0
   -4.4953   -2.9202    1.0467 H   0  0  0  0  0  0  0  0  0  0  0  0
   -3.9587   -4.0977   -0.1760 H   0  0  0  0  0  0  0  0  0  0  0  0
   -2.3641   -2.9979    0.7588 C   0  0  0  0  0  0  0  0  0  0  0  0
   -1.4642   -3.4115    1.4728 O   0  0  0  0  0  0  0  0  0  0  0  0
   -2.1406   -1.9427   -0.1000 N   0  0  0  0  0  0  0  0  0  0  0  0
   -2.9448   -1.5779   -0.6077 H   0  0  0  0  0  0  0  0  0  0  0  0
   -0.9264   -1.1120   -0.1062 C   0  0  1  0  0  0  0  0  0  0  0  0
   -0.4106   -1.2531    0.8499 H   0  0  0  0  0  0  0  0  0  0  0  0
    0.0132   -1.5571   -1.2347 C   0  0  0  0  0  0  0  0  0  0  0  0
   -0.1019   -2.6336   -1.3973 H   0  0  0  0  0  0  0  0  0  0  0  0
   -0.2327   -1.0558   -2.1764 H   0  0  0  0  0  0  0  0  0  0  0  0
    1.4393   -1.2866   -0.8385 C   0  0  0  0  0  0  0  0  0  0  0  0
    2.2654   -2.1578   -0.1719 C   0  0  0  0  0  0  0  0  0  0  0  0
    1.9945   -3.1616    0.1520 H   0  0  0  0  0  0  0  0  0  0  0  0
    3.4835   -1.5107    0.0243 N   0  0  0  0  0  0  0  0  0  0  0  0
    4.2933   -1.9144    0.4909 H   0  0  0  0  0  0  0  0  0  0  0  0
    3.4476   -0.2350   -0.5167 C   0  0  0  0  0  0  0  0  0  0  0  0
    4.4048    0.7781   -0.5734 C   0  0  0  0  0  0  0  0  0  0  0  0
    5.3869    0.6264   -0.1393 H   0  0  0  0  0  0  0  0  0  0  0  0
    4.0814    1.9896   -1.2009 C   0  0  0  0  0  0  0  0  0  0  0  0
    4.8179    2.7859   -1.2540 H   0  0  0  0  0  0  0  0  0  0  0  0
    2.8096    2.1723   -1.7652 C   0  0  0  0  0  0  0  0  0  0  0  0
    2.5628    3.1099   -2.2542 H   0  0  0  0  0  0  0  0  0  0  0  0
    1.8562    1.1462   -1.7049 C   0  0  0  0  0  0  0  0  0  0  0  0
    0.8729    1.2831   -2.1449 H   0  0  0  0  0  0  0  0  0  0  0  0
    2.1854   -0.0569   -1.0711 C   0  0  0  0  0  0  0  0  0  0  0  0
   -1.2495    0.3888   -0.2081 C   0  0  0  0  0  0  0  0  0  0  0  0
   -2.1560    0.7647   -0.9437 O   0  0  0  0  0  0  0  0  0  0  0  0
   -0.6022    1.3022    0.6024 N   0  0  0  0  0  0  0  0  0  0  0  0
    0.2256    0.9690    1.0916 H   0  0  0  0  0  0  0  0  0  0  0  0
   -0.8281    2.7390    0.5189 C   0  0  0  0  0  0  0  0  0  0  0  0
   -1.8808    2.9738    0.7081 H   0  0  0  0  0  0  0  0  0  0  0  0
   -0.2203    3.2598    1.2651 H   0  0  0  0  0  0  0  0  0  0  0  0
   -0.5550    3.1127   -0.4733 H   0  0  0  0  0  0  0  0  0  0  0  0
  1  2  1  0  0  0  0
  2  3  1  0  0  0  0
  2  4  1  0  0  0  0
  2  5  1  0  0  0  0
  5  6  2  0  0  0  0
  5  7  1  0  0  0  0
  7  8  1  0  0  0  0
  7  9  1  0  0  0  0
  9 10  1  0  0  0  0
  9 11  1  0  0  0  0
  9 29  1  0  0  0  0
 11 12  1  0  0  0  0
 11 13  1  0  0  0  0
 11 14  1  0  0  0  0
 14 15  2  0  0  0  0
 14 28  1  0  0  0  0
 15 16  1  0  0  0  0
 15 17  1  0  0  0  0
 17 18  1  0  0  0  0
 17 19  1  0  0  0  0
 19 20  1  0  0  0  0
 19 28  2  0  0  0  0
 20 21  1  0  0  0  0
 20 22  2  0  0  0  0
 22 23  1  0  0  0  0
 22 24  1  0  0  0  0
 24 25  1  0  0  0  0
 24 26  2  0  0  0  0
 26 27  1  0  0  0  0
 26 28  1  0  0  0  0
 29 30  2  0  0  0  0
 29 31  1  0  0  0  0
 31 32  1  0  0  0  0
 31 33  1  0  0  0  0
 33 34  1  0  0  0  0
 33 35  1  0  0  0  0
 33 36  1  0  0  0  0
M  END
$$$$

  -OEChem-03222214083D

 36 37  0     1  0  0  0  0  0999 V2000
   -3.7441   -4.4985    1.4423 H   0  0  0  0  0  0  0  0  0  0  0  0
   -3.7181   -3.6992    0.6964 C   0  0  0  0  0  0  0  0  0  0  0  0
   -4.5104   -2.9816    0.9226 H   0  0  0  0  0  0  0  0  0  0  0  0
   -3.8981   -4.1317   -0.2907 H   0  0  0  0  0  0  0  0  0  0  0  0
   -2.3686   -3.0067    0.7200 C   0  0  0  0  0  0  0  0  0  0  0  0
   -1.4861   -3.4155    1.4574 O   0  0  0  0  0  0  0  0  0  0  0  0
   -2.1421   -1.9230   -0.1015 N   0  0  0  0  0  0  0  0  0  0  0  0
   -2.9356   -1.5661   -0.6314 H   0  0  0  0  0  0  0  0  0  0  0  0
   -0.9478   -1.0646   -0.0455 C   0  0  1  0  0  0  0  0  0  0  0  0
   -0.4545   -1.2161    0.9208 H   0  0  0  0  0  0  0  0  0  0  0  0
    0.0284   -1.4885   -1.1558 C   0  0  0  0  0  0  0  0  0  0  0  0
   -0.0783   -2.5623   -1.3408 H   0  0  0  0  0  0  0  0  0  0  0  0
   -0.2036   -0.9708   -2.0920 H   0  0  0  0  0  0  0  0  0  0  0  0
    1.4520   -1.2169   -0.7453 C   0  0  0  0  0  0  0  0  0  0  0  0
    2.3540   -2.1728   -0.3461 C   0  0  0  0  0  0  0  0  0  0  0  0
    2.1384   -3.2338   -0.2324 H   0  0  0  0  0  0  0  0  0  0  0  0
    3.5645   -1.5324   -0.0934 N   0  0  0  0  0  0  0  0  0  0  0  0
    4.4153   -1.9910    0.2266 H   0  0  0  0  0  0  0  0  0  0  0  0
    3.4643   -0.1814   -0.3813 C   0  0  0  0  0  0  0  0  0  0  0  0
    4.4027    0.8488   -0.3212 C   0  0  0  0  0  0  0  0  0  0  0  0
    5.4115    0.6492    0.0228 H   0  0  0  0  0  0  0  0  0  0  0  0
    4.0277    2.1390   -0.7212 C   0  0  0  0  0  0  0  0  0  0  0  0
    4.7491    2.9500   -0.6834 H   0  0  0  0  0  0  0  0  0  0  0  0
    2.7260    2.3797   -1.1857 C   0  0  0  0  0  0  0  0  0  0  0  0
    2.4415    3.3757   -1.5113 H   0  0  0  0  0  0  0  0  0  0  0  0
    1.7921    1.3359   -1.2410 C   0  0  0  0  0  0  0  0  0  0  0  0
    0.7919    1.5207   -1.6196 H   0  0  0  0  0  0  0  0  0  0  0  0
    2.1639    0.0557   -0.8144 C   0  0  0  0  0  0  0  0  0  0  0  0
   -1.3244    0.4255   -0.1178 C   0  0  0  0  0  0  0  0  0  0  0  0
   -2.2186    0.7897   -0.8740 O   0  0  0  0  0  0  0  0  0  0  0  0
   -0.7395    1.3410    0.7373 N   0  0  0  0  0  0  0  0  0  0  0  0
    0.0709    1.0234    1.2649 H   0  0  0  0  0  0  0  0  0  0  0  0
   -1.0443    2.7657    0.7146 C   0  0  0  0  0  0  0  0  0  0  0  0
   -2.1124    2.9327    0.8888 H   0  0  0  0  0  0  0  0  0  0  0  0
   -0.4832    3.2835    1.4985 H   0  0  0  0  0  0  0  0  0  0  0  0
   -0.7719    3.2009   -0.2524 H   0  0  0  0  0  0  0  0  0  0  0  0
  1  2  1  0  0  0  0
  2  3  1  0  0  0  0
  2  4  1  0  0  0  0
  2  5  1  0  0  0  0
  5  6  2  0  0  0  0
  5  7  1  0  0  0  0
  7  8  1  0  0  0  0
  7  9  1  0  0  0  0
  9 10  1  0  0  0  0
  9 11  1  0  0  0  0
  9 29  1  0  0  0  0
 11 12  1  0  0  0  0
 11 13  1  0  0  0  0
 11 14  1  0  0  0  0
 14 15  2  0  0  0  0
 14 28  1  0  0  0  0
 15 16  1  0  0  0  0
 15 17  1  0  0  0  0
 17 18  1  0  0  0  0
 17 19  1  0  0  0  0
 19 20  1  0  0  0  0
 19 28  2  0  0  0  0
 20 21  1  0  0  0  0
 20 22  2  0  0  0  0
 22 23  1  0  0  0  0
 22 24  1  0  0  0  0
 24 25  1  0  0  0  0
 24 26  2  0  0  0  0
 26 27  1  0  0  0  0
 26 28  1  0  0  0  0
 29 30  2  0  0  0  0
 29 31  1  0  0  0  0
 31 32  1  0  0  0  0
 31 33  1  0  0  0  0
 33 34  1  0  0  0  0
 33 35  1  0  0  0  0
 33 36  1  0  0  0  0
M  END
$$$$

  -OEChem-03222214083D

 36 37  0     1  0  0  0  0  0999 V2000
   -3.7595   -4.5532    1.3108 H   0  0  0  0  0  0  0  0  0  0  0  0
   -3.7154   -3.7363    0.5851 C   0  0  0  0  0  0  0  0  0  0  0  0
   -4.5311   -3.0388    0.7907 H   0  0  0  0  0  0  0  0  0  0  0  0
   -3.8418   -4.1494   -0.4184 H   0  0  0  0  0  0  0  0  0  0  0  0
   -2.3827   -3.0183    0.6849 C   0  0  0  0  0  0  0  0  0  0  0  0
   -1.5286   -3.4211    1.4578 O   0  0  0  0  0  0  0  0  0  0  0  0
   -2.1422   -1.9132   -0.1036 N   0  0  0  0  0  0  0  0  0  0  0  0
   -2.9197   -1.5591   -0.6589 H   0  0  0  0  0  0  0  0  0  0  0  0
   -0.9713   -1.0299    0.0250 C   0  0  1  0  0  0  0  0  0  0  0  0
   -0.5115   -1.1832    1.0074 H   0  0  0  0  0  0  0  0  0  0  0  0
    0.0489   -1.4429   -1.0556 C   0  0  0  0  0  0  0  0  0  0  0  0
   -0.0562   -2.5128   -1.2634 H   0  0  0  0  0  0  0  0  0  0  0  0
   -0.1631   -0.9090   -1.9876 H   0  0  0  0  0  0  0  0  0  0  0  0
    1.4749   -1.1807   -0.6347 C   0  0  0  0  0  0  0  0  0  0  0  0
    2.4258   -2.1669   -0.5212 C   0  0  0  0  0  0  0  0  0  0  0  0
    2.2400   -3.2335   -0.6295 H   0  0  0  0  0  0  0  0  0  0  0  0
    3.6378   -1.5624   -0.2041 N   0  0  0  0  0  0  0  0  0  0  0  0
    4.5141   -2.0529   -0.0374 H   0  0  0  0  0  0  0  0  0  0  0  0
    3.5020   -0.1862   -0.2173 C   0  0  0  0  0  0  0  0  0  0  0  0
    4.4426    0.8254   -0.0250 C   0  0  0  0  0  0  0  0  0  0  0  0
    5.4679    0.5777    0.2265 H   0  0  0  0  0  0  0  0  0  0  0  0
    4.0491    2.1605   -0.1804 C   0  0  0  0  0  0  0  0  0  0  0  0
    4.7704    2.9598   -0.0378 H   0  0  0  0  0  0  0  0  0  0  0  0
    2.7308    2.4621   -0.5504 C   0  0  0  0  0  0  0  0  0  0  0  0
    2.4339    3.4953   -0.7035 H   0  0  0  0  0  0  0  0  0  0  0  0
    1.7974    1.4334   -0.7405 C   0  0  0  0  0  0  0  0  0  0  0  0
    0.7949    1.6757   -1.0735 H   0  0  0  0  0  0  0  0  0  0  0  0
    2.1759    0.1018   -0.5285 C   0  0  0  0  0  0  0  0  0  0  0  0
   -1.4120    0.4430   -0.0399 C   0  0  0  0  0  0  0  0  0  0  0  0
   -2.2863    0.7819   -0.8307 O   0  0  0  0  0  0  0  0  0  0  0  0
   -0.9120    1.3692    0.8569 N   0  0  0  0  0  0  0  0  0  0  0  0
   -0.1420    1.0706    1.4519 H   0  0  0  0  0  0  0  0  0  0  0  0
   -1.3191    2.7684    0.8797 C   0  0  0  0  0  0  0  0  0  0  0  0
   -2.3966    2.8509    1.0567 H   0  0  0  0  0  0  0  0  0  0  0  0
   -0.7970    3.3002    1.6810 H   0  0  0  0  0  0  0  0  0  0  0  0
   -1.0797    3.2538   -0.0721 H   0  0  0  0  0  0  0  0  0  0  0  0
  1  2  1  0  0  0  0
  2  3  1  0  0  0  0
  2  4  1  0  0  0  0
  2  5  1  0  0  0  0
  5  6  2  0  0  0  0
  5  7  1  0  0  0  0
  7  8  1  0  0  0  0
  7  9  1  0  0  0  0
  9 10  1  0  0  0  0
  9 11  1  0  0  0  0
  9 29  1  0  0  0  0
 11 12  1  0  0  0  0
 11 13  1  0  0  0  0
 11 14  1  0  0  0  0
 14 15  2  0  0  0  0
 14 28  1  0  0  0  0
 15 16  1  0  0  0  0
 15 17  1  0  0  0  0
 17 18  1  0  0  0  0
 17 19  1  0  0  0  0
 19 20  1  0  0  0  0
 19 28  2  0  0  0  0
 20 21  1  0  0  0  0
 20 22  2  0  0  0  0
 22 23  1  0  0  0  0
 22 24  1  0  0  0  0
 24 25  1  0  0  0  0
 24 26  2  0  0  0  0
 26 27  1  0  0  0  0
 26 28  1  0  0  0  0
 29 30  2  0  0  0  0
 29 31  1  0  0  0  0
 31 32  1  0  0  0  0
 31 33  1  0  0  0  0
 33 34  1  0  0  0  0
 33 35  1  0  0  0  0
 33 36  1  0  0  0  0
M  END
$$$$

  -OEChem-03222214083D

 36 37  0     1  0  0  0  0  0999 V2000
   -3.7623   -4.6264    1.1555 H   0  0  0  0  0  0  0  0  0  0  0  0
   -3.7074   -3.7819    0.4627 C   0  0  0  0  0  0  0  0  0  0  0  0
   -4.5572   -3.1200    0.6466 H   0  0  0  0  0  0  0  0  0  0  0  0
   -3.7641   -4.1610   -0.5605 H   0  0  0  0  0  0  0  0  0  0  0  0
   -2.4086   -3.0242    0.6631 C   0  0  0  0  0  0  0  0  0  0  0  0
   -1.6060   -3.4003    1.5015 O   0  0  0  0  0  0  0  0  0  0  0  0
   -2.1430   -1.9095   -0.1032 N   0  0  0  0  0  0  0  0  0  0  0  0
   -2.8877   -1.5752   -0.7134 H   0  0  0  0  0  0  0  0  0  0  0  0
   -1.0028   -0.9996    0.1028 C   0  0  1  0  0  0  0  0  0  0  0  0
   -0.5857   -1.1408    1.1057 H   0  0  0  0  0  0  0  0  0  0  0  0
    0.0654   -1.4150   -0.9376 C   0  0  0  0  0  0  0  0  0  0  0  0
   -0.0429   -2.4826   -1.1576 H   0  0  0  0  0  0  0  0  0  0  0  0
   -0.1257   -0.8752   -1.8706 H   0  0  0  0  0  0  0  0  0  0  0  0
    1.5021   -1.1728   -0.5220 C   0  0  0  0  0  0  0  0  0  0  0  0
    2.4696   -2.1341   -0.7063 C   0  0  0  0  0  0  0  0  0  0  0  0
    2.2848   -3.1504   -1.0476 H   0  0  0  0  0  0  0  0  0  0  0  0
    3.6964   -1.6045   -0.3266 N   0  0  0  0  0  0  0  0  0  0  0  0
    4.5822   -2.1058   -0.3299 H   0  0  0  0  0  0  0  0  0  0  0  0
    3.5585   -0.2623   -0.0355 C   0  0  0  0  0  0  0  0  0  0  0  0
    4.5223    0.6865    0.3039 C   0  0  0  0  0  0  0  0  0  0  0  0
    5.5557    0.3904    0.4455 H   0  0  0  0  0  0  0  0  0  0  0  0
    4.1418    2.0269    0.4312 C   0  0  0  0  0  0  0  0  0  0  0  0
    4.8801    2.7802    0.6900 H   0  0  0  0  0  0  0  0  0  0  0  0
    2.8151    2.3990    0.1787 C   0  0  0  0  0  0  0  0  0  0  0  0
    2.5288    3.4452    0.2272 H   0  0  0  0  0  0  0  0  0  0  0  0
    1.8614    1.4288   -0.1621 C   0  0  0  0  0  0  0  0  0  0  0  0
    0.8652    1.7462   -0.4330 H   0  0  0  0  0  0  0  0  0  0  0  0
    2.2171    0.0748   -0.2091 C   0  0  0  0  0  0  0  0  0  0  0  0
   -1.5128    0.4504    0.0090 C   0  0  0  0  0  0  0  0  0  0  0  0
   -2.3390    0.7521   -0.8462 O   0  0  0  0  0  0  0  0  0  0  0  0
   -1.1218    1.4004    0.9345 N   0  0  0  0  0  0  0  0  0  0  0  0
   -0.4323    1.1204    1.6287 H   0  0  0  0  0  0  0  0  0  0  0  0
   -1.6172    2.7712    0.9415 C   0  0  0  0  0  0  0  0  0  0  0  0
   -2.7022    2.7859    1.0891 H   0  0  0  0  0  0  0  0  0  0  0  0
   -1.1501    3.3368    1.7534 H   0  0  0  0  0  0  0  0  0  0  0  0
   -1.3829    3.2689   -0.0053 H   0  0  0  0  0  0  0  0  0  0  0  0
  1  2  1  0  0  0  0
  2  3  1  0  0  0  0
  2  4  1  0  0  0  0
  2  5  1  0  0  0  0
  5  6  2  0  0  0  0
  5  7  1  0  0  0  0
  7  8  1  0  0  0  0
  7  9  1  0  0  0  0
  9 10  1  0  0  0  0
  9 11  1  0  0  0  0
  9 29  1  0  0  0  0
 11 12  1  0  0  0  0
 11 13  1  0  0  0  0
 11 14  1  0  0  0  0
 14 15  2  0  0  0  0
 14 28  1  0  0  0  0
 15 16  1  0  0  0  0
 15 17  1  0  0  0  0
 17 18  1  0  0  0  0
 17 19  1  0  0  0  0
 19 20  1  0  0  0  0
 19 28  2  0  0  0  0
 20 21  1  0  0  0  0
 20 22  2  0  0  0  0
 22 23  1  0  0  0  0
 22 24  1  0  0  0  0
 24 25  1  0  0  0  0
 24 26  2  0  0  0  0
 26 27  1  0  0  0  0
 26 28  1  0  0  0  0
 29 30  2  0  0  0  0
 29 31  1  0  0  0  0
 31 32  1  0  0  0  0
 31 33  1  0  0  0  0
 33 34  1  0  0  0  0
 33 35  1  0  0  0  0
 33 36  1  0  0  0  0
M  END
$$$$

  -OEChem-03222214083D

 36 37  0     1  0  0  0  0  0999 V2000
   -3.6965   -4.5599    1.3424 H   0  0  0  0  0  0  0  0  0  0  0  0
   -3.6230   -3.7846    0.5748 C   0  0  0  0  0  0  0  0  0  0  0  0
   -4.5193   -3.1612    0.6165 H   0  0  0  0  0  0  0  0  0  0  0  0
   -3.5660   -4.2639   -0.4054 H   0  0  0  0  0  0  0  0  0  0  0  0
   -2.3888   -2.9342    0.8085 C   0  0  0  0  0  0  0  0  0  0  0  0
   -1.6582   -3.1651    1.7576 O   0  0  0  0  0  0  0  0  0  0  0  0
   -2.1054   -1.8913   -0.0462 N   0  0  0  0  0  0  0  0  0  0  0  0
   -2.8004   -1.6619   -0.7559 H   0  0  0  0  0  0  0  0  0  0  0  0
   -1.0062   -0.9271    0.1386 C   0  0  1  0  0  0  0  0  0  0  0  0
   -0.5947   -0.9607    1.1527 H   0  0  0  0  0  0  0  0  0  0  0  0
    0.0701   -1.3261   -0.9009 C   0  0  0  0  0  0  0  0  0  0  0  0
   -0.0252   -2.4004   -1.0925 H   0  0  0  0  0  0  0  0  0  0  0  0
   -0.1640   -0.8200   -1.8434 H   0  0  0  0  0  0  0  0  0  0  0  0
    1.5387   -1.0686   -0.5984 C   0  0  0  0  0  0  0  0  0  0  0  0
    2.4699   -1.9238   -1.1455 C   0  0  0  0  0  0  0  0  0  0  0  0
    2.2384   -2.7826   -1.7719 H   0  0  0  0  0  0  0  0  0  0  0  0
    3.7374   -1.5089   -0.7651 N   0  0  0  0  0  0  0  0  0  0  0  0
    4.6111   -1.9643   -1.0201 H   0  0  0  0  0  0  0  0  0  0  0  0
    3.6442   -0.3820    0.0242 C   0  0  0  0  0  0  0  0  0  0  0  0
    4.6607    0.3670    0.6159 C   0  0  0  0  0  0  0  0  0  0  0  0
    5.6988    0.0839    0.4826 H   0  0  0  0  0  0  0  0  0  0  0  0
    4.3217    1.4866    1.3813 C   0  0  0  0  0  0  0  0  0  0  0  0
    5.0996    2.0826    1.8493 H   0  0  0  0  0  0  0  0  0  0  0  0
    2.9753    1.8355    1.5399 C   0  0  0  0  0  0  0  0  0  0  0  0
    2.7097    2.7053    2.1331 H   0  0  0  0  0  0  0  0  0  0  0  0
    1.9701    1.0678    0.9345 C   0  0  0  0  0  0  0  0  0  0  0  0
    0.9475    1.3615    1.0719 H   0  0  0  0  0  0  0  0  0  0  0  0
    2.2934   -0.0558    0.1653 C   0  0  0  0  0  0  0  0  0  0  0  0
   -1.6261    0.4629   -0.1457 C   0  0  0  0  0  0  0  0  0  0  0  0
   -2.3863    0.5968   -1.1011 O   0  0  0  0  0  0  0  0  0  0  0  0
   -1.3967    1.5579    0.6647 N   0  0  0  0  0  0  0  0  0  0  0  0
   -0.8876    1.3958    1.5287 H   0  0  0  0  0  0  0  0  0  0  0  0
   -2.0066    2.8636    0.4443 C   0  0  0  0  0  0  0  0  0  0  0  0
   -3.0948    2.8011    0.5488 H   0  0  0  0  0  0  0  0  0  0  0  0
   -1.6279    3.5853    1.1744 H   0  0  0  0  0  0  0  0  0  0  0  0
   -1.7683    3.2332   -0.5587 H   0  0  0  0  0  0  0  0  0  0  0  0
  1  2  1  0  0  0  0
  2  3  1  0  0  0  0
  2  4  1  0  0  0  0
  2  5  1  0  0  0  0
  5  6  2  0  0  0  0
  5  7  1  0  0  0  0
  7  8  1  0  0  0  0
  7  9  1  0  0  0  0
  9 10  1  0  0  0  0
  9 11  1  0  0  0  0
  9 29  1  0  0  0  0
 11 12  1  0  0  0  0
 11 13  1  0  0  0  0
 11 14  1  0  0  0  0
 14 15  2  0  0  0  0
 14 28  1  0  0  0  0
 15 16  1  0  0  0  0
 15 17  1  0  0  0  0
 17 18  1  0  0  0  0
 17 19  1  0  0  0  0
 19 20  1  0  0  0  0
 19 28  2  0  0  0  0
 20 21  1  0  0  0  0
 20 22  2  0  0  0  0
 22 23  1  0  0  0  0
 22 24  1  0  0  0  0
 24 25  1  0  0  0  0
 24 26  2  0  0  0  0
 26 27  1  0  0  0  0
 26 28  1  0  0  0  0
 29 30  2  0  0  0  0
 29 31  1  0  0  0  0
 31 32  1  0  0  0  0
 31 33  1  0  0  0  0
 33 34  1  0  0  0  0
 33 35  1  0  0  0  0
 33 36  1  0  0  0  0
M  END
$$$$

  -OEChem-03222214083D

 36 37  0     1  0  0  0  0  0999 V2000
   -3.7375   -4.4997    1.4367 H   0  0  0  0  0  0  0  0  0  0  0  0
   -3.6868   -3.7285    0.6629 C   0  0  0  0  0  0  0  0  0  0  0  0
   -4.5544   -3.0720    0.7627 H   0  0  0  0  0  0  0  0  0  0  0  0
   -3.7135   -4.2109   -0.3171 H   0  0  0  0  0  0  0  0  0  0  0  0
   -2.4084   -2.9251    0.8097 C   0  0  0  0  0  0  0  0  0  0  0  0
   -1.6273   -3.1832    1.7104 O   0  0  0  0  0  0  0  0  0  0  0  0
   -2.1423   -1.8984   -0.0707 N   0  0  0  0  0  0  0  0  0  0  0  0
   -2.8808   -1.6413   -0.7243 H   0  0  0  0  0  0  0  0  0  0  0  0
   -1.0130   -0.9604    0.0455 C   0  0  1  0  0  0  0  0  0  0  0  0
   -0.5862   -1.0255    1.0478 H   0  0  0  0  0  0  0  0  0  0  0  0
    0.0481   -1.3130   -1.0108 C   0  0  0  0  0  0  0  0  0  0  0  0
   -0.0115   -2.3901   -1.2004 H   0  0  0  0  0  0  0  0  0  0  0  0
   -0.2021   -0.8128   -1.9526 H   0  0  0  0  0  0  0  0  0  0  0  0
    1.4974   -1.0091   -0.6743 C   0  0  0  0  0  0  0  0  0  0  0  0
    2.4875   -1.5786   -1.4412 C   0  0  0  0  0  0  0  0  0  0  0  0
    2.3198   -2.2182   -2.3050 H   0  0  0  0  0  0  0  0  0  0  0  0
    3.7176   -1.1654   -0.9510 N   0  0  0  0  0  0  0  0  0  0  0  0
    4.6243   -1.4283   -1.3316 H   0  0  0  0  0  0  0  0  0  0  0  0
    3.5386   -0.3858    0.1738 C   0  0  0  0  0  0  0  0  0  0  0  0
    4.4968    0.2020    0.9987 C   0  0  0  0  0  0  0  0  0  0  0  0
    5.5520    0.1078    0.7671 H   0  0  0  0  0  0  0  0  0  0  0  0
    4.0788    0.9000    2.1356 C   0  0  0  0  0  0  0  0  0  0  0  0
    4.8116    1.3601    2.7920 H   0  0  0  0  0  0  0  0  0  0  0  0
    2.7145    0.9777    2.4389 C   0  0  0  0  0  0  0  0  0  0  0  0
    2.3923    1.4904    3.3404 H   0  0  0  0  0  0  0  0  0  0  0  0
    1.7659    0.3798    1.5969 C   0  0  0  0  0  0  0  0  0  0  0  0
    0.7312    0.4156    1.8983 H   0  0  0  0  0  0  0  0  0  0  0  0
    2.1686   -0.2833    0.4253 C   0  0  0  0  0  0  0  0  0  0  0  0
   -1.5431    0.4707   -0.2144 C   0  0  0  0  0  0  0  0  0  0  0  0
   -2.3893    0.6364   -1.0889 O   0  0  0  0  0  0  0  0  0  0  0  0
   -1.1972    1.5525    0.5744 N   0  0  0  0  0  0  0  0  0  0  0  0
   -0.4322    1.4267    1.2275 H   0  0  0  0  0  0  0  0  0  0  0  0
   -1.6785    2.9060    0.3260 C   0  0  0  0  0  0  0  0  0  0  0  0
   -2.7727    2.9376    0.3588 H   0  0  0  0  0  0  0  0  0  0  0  0
   -1.2925    3.5895    1.0884 H   0  0  0  0  0  0  0  0  0  0  0  0
   -1.3442    3.2569   -0.6560 H   0  0  0  0  0  0  0  0  0  0  0  0
  1  2  1  0  0  0  0
  2  3  1  0  0  0  0
  2  4  1  0  0  0  0
  2  5  1  0  0  0  0
  5  6  2  0  0  0  0
  5  7  1  0  0  0  0
  7  8  1  0  0  0  0
  7  9  1  0  0  0  0
  9 10  1  0  0  0  0
  9 11  1  0  0  0  0
  9 29  1  0  0  0  0
 11 12  1  0  0  0  0
 11 13  1  0  0  0  0
 11 14  1  0  0  0  0
 14 15  2  0  0  0  0
 14 28  1  0  0  0  0
 15 16  1  0  0  0  0
 15 17  1  0  0  0  0
 17 18  1  0  0  0  0
 17 19  1  0  0  0  0
 19 20  1  0  0  0  0
 19 28  2  0  0  0  0
 20 21  1  0  0  0  0
 20 22  2  0  0  0  0
 22 23  1  0  0  0  0
 22 24  1  0  0  0  0
 24 25  1  0  0  0  0
 24 26  2  0  0  0  0
 26 27  1  0  0  0  0
 26 28  1  0  0  0  0
 29 30  2  0  0  0  0
 29 31  1  0  0  0  0
 31 32  1  0  0  0  0
 31 33  1  0  0  0  0
 33 34  1  0  0  0  0
 33 35  1  0  0  0  0
 33 36  1  0  0  0  0
M  END
$$$$

  -OEChem-03222214083D

 36 37  0     1  0  0  0  0  0999 V2000
   -3.9205   -4.5758    1.2461 H   0  0  0  0  0  0  0  0  0  0  0  0
   -3.8460   -3.7673    0.5136 C   0  0  0  0  0  0  0  0  0  0  0  0
   -4.7018   -3.0995    0.6377 H   0  0  0  0  0  0  0  0  0  0  0  0
   -3.8707   -4.1987   -0.4900 H   0  0  0  0  0  0  0  0  0  0  0  0
   -2.5542   -2.9976    0.7152 C   0  0  0  0  0  0  0  0  0  0  0  0
   -1.8035   -3.3004    1.6278 O   0  0  0  0  0  0  0  0  0  0  0  0
   -2.2478   -1.9483   -0.1261 N   0  0  0  0  0  0  0  0  0  0  0  0
   -2.9600   -1.6674   -0.7976 H   0  0  0  0  0  0  0  0  0  0  0  0
   -1.0796   -1.0614    0.0103 C   0  0  1  0  0  0  0  0  0  0  0  0
   -0.7207   -1.1816    1.0259 H   0  0  0  0  0  0  0  0  0  0  0  0
    0.0352   -1.4662   -0.9682 C   0  0  0  0  0  0  0  0  0  0  0  0
   -0.1890   -2.4715   -1.3403 H   0  0  0  0  0  0  0  0  0  0  0  0
    0.0138   -0.7993   -1.8369 H   0  0  0  0  0  0  0  0  0  0  0  0
    1.4536   -1.5153   -0.4240 C   0  0  0  0  0  0  0  0  0  0  0  0
    2.4632   -1.8763   -1.2861 C   0  0  0  0  0  0  0  0  0  0  0  0
    2.3251   -2.1724   -2.3239 H   0  0  0  0  0  0  0  0  0  0  0  0
    3.6724   -1.7747   -0.6162 N   0  0  0  0  0  0  0  0  0  0  0  0
    4.5870   -1.9842   -1.0105 H   0  0  0  0  0  0  0  0  0  0  0  0
    3.4593   -1.3428    0.6769 C   0  0  0  0  0  0  0  0  0  0  0  0
    4.3995   -1.0993    1.6769 C   0  0  0  0  0  0  0  0  0  0  0  0
    5.4562   -1.2460    1.4833 H   0  0  0  0  0  0  0  0  0  0  0  0
    3.9614   -0.6663    2.9307 C   0  0  0  0  0  0  0  0  0  0  0  0
    4.6790   -0.4734    3.7229 H   0  0  0  0  0  0  0  0  0  0  0  0
    2.5931   -0.4924    3.1636 C   0  0  0  0  0  0  0  0  0  0  0  0
    2.2509   -0.1695    4.1424 H   0  0  0  0  0  0  0  0  0  0  0  0
    1.6600   -0.7424    2.1469 C   0  0  0  0  0  0  0  0  0  0  0  0
    0.6181   -0.6079    2.3990 H   0  0  0  0  0  0  0  0  0  0  0  0
    2.0861   -1.1672    0.8721 C   0  0  0  0  0  0  0  0  0  0  0  0
   -1.4435    0.4226   -0.1735 C   0  0  0  0  0  0  0  0  0  0  0  0
   -2.2647    0.7409   -1.0270 O   0  0  0  0  0  0  0  0  0  0  0  0
   -0.9502    1.3814    0.6919 N   0  0  0  0  0  0  0  0  0  0  0  0
   -0.1978    1.0988    1.3146 H   0  0  0  0  0  0  0  0  0  0  0  0
   -1.2582    2.8002    0.5670 C   0  0  0  0  0  0  0  0  0  0  0  0
   -2.3391    2.9652    0.6293 H   0  0  0  0  0  0  0  0  0  0  0  0
   -0.7776    3.3631    1.3730 H   0  0  0  0  0  0  0  0  0  0  0  0
   -0.8965    3.1877   -0.3912 H   0  0  0  0  0  0  0  0  0  0  0  0
  1  2  1  0  0  0  0
  2  3  1  0  0  0  0
  2  4  1  0  0  0  0
  2  5  1  0  0  0  0
  5  6  2  0  0  0  0
  5  7  1  0  0  0  0
  7  8  1  0  0  0  0
  7  9  1  0  0  0  0
  9 10  1  0  0  0  0
  9 11  1  0  0  0  0
  9 29  1  0  0  0  0
 11 12  1  0  0  0  0
 11 13  1  0  0  0  0
 11 14  1  0  0  0  0
 14 15  2  0  0  0  0
 14 28  1  0  0  0  0
 15 16  1  0  0  0  0
 15 17  1  0  0  0  0
 17 18  1  0  0  0  0
 17 19  1  0  0  0  0
 19 20  1  0  0  0  0
 19 28  2  0  0  0  0
 20 21  1  0  0  0  0
 20 22  2  0  0  0  0
 22 23  1  0  0  0  0
 22 24  1  0  0  0  0
 24 25  1  0  0  0  0
 24 26  2  0  0  0  0
 26 27  1  0  0  0  0
 26 28  1  0  0  0  0
 29 30  2  0  0  0  0
 29 31  1  0  0  0  0
 31 32  1  0  0  0  0
 31 33  1  0  0  0  0
 33 34  1  0  0  0  0
 33 35  1  0  0  0  0
 33 36  1  0  0  0  0
M  END
$$$$

  -OEChem-03222214083D

 36 37  0     1  0  0  0  0  0999 V2000
   -3.7957   -4.4860    1.4513 H   0  0  0  0  0  0  0  0  0  0  0  0
   -3.7445   -3.7183    0.6742 C   0  0  0  0  0  0  0  0  0  0  0  0
   -4.6235   -3.0746    0.7561 H   0  0  0  0  0  0  0  0  0  0  0  0
   -3.7481   -4.2071   -0.3030 H   0  0  0  0  0  0  0  0  0  0  0  0
   -2.4815   -2.8936    0.8368 C   0  0  0  0  0  0  0  0  0  0  0  0
   -1.7341   -3.1050    1.7779 O   0  0  0  0  0  0  0  0  0  0  0  0
   -2.1996   -1.8909   -0.0669 N   0  0  0  0  0  0  0  0  0  0  0  0
   -2.9084   -1.6767   -0.7660 H   0  0  0  0  0  0  0  0  0  0  0  0
   -1.0523   -0.9730    0.0227 C   0  0  1  0  0  0  0  0  0  0  0  0
   -0.6776   -0.9842    1.0394 H   0  0  0  0  0  0  0  0  0  0  0  0
    0.0574   -1.3876   -0.9633 C   0  0  0  0  0  0  0  0  0  0  0  0
   -0.1447   -2.4151   -1.2830 H   0  0  0  0  0  0  0  0  0  0  0  0
    0.0072   -0.7650   -1.8632 H   0  0  0  0  0  0  0  0  0  0  0  0
    1.4776   -1.3866   -0.4276 C   0  0  0  0  0  0  0  0  0  0  0  0
    2.5255   -1.4317   -1.3177 C   0  0  0  0  0  0  0  0  0  0  0  0
    2.4280   -1.4250   -2.4013 H   0  0  0  0  0  0  0  0  0  0  0  0
    3.7123   -1.4435   -0.5998 N   0  0  0  0  0  0  0  0  0  0  0  0
    4.6468   -1.4670   -1.0021 H   0  0  0  0  0  0  0  0  0  0  0  0
    3.4436   -1.4940    0.7530 C   0  0  0  0  0  0  0  0  0  0  0  0
    4.3350   -1.5656    1.8224 C   0  0  0  0  0  0  0  0  0  0  0  0
    5.4047   -1.5422    1.6476 H   0  0  0  0  0  0  0  0  0  0  0  0
    3.8309   -1.6862    3.1205 C   0  0  0  0  0  0  0  0  0  0  0  0
    4.5094   -1.7484    3.9661 H   0  0  0  0  0  0  0  0  0  0  0  0
    2.4479   -1.7580    3.3229 C   0  0  0  0  0  0  0  0  0  0  0  0
    2.0530   -1.8887    4.3259 H   0  0  0  0  0  0  0  0  0  0  0  0
    1.5651   -1.6837    2.2362 C   0  0  0  0  0  0  0  0  0  0  0  0
    0.5092   -1.7998    2.4451 H   0  0  0  0  0  0  0  0  0  0  0  0
    2.0580   -1.5090    0.9287 C   0  0  0  0  0  0  0  0  0  0  0  0
   -1.4672    0.4833   -0.2514 C   0  0  0  0  0  0  0  0  0  0  0  0
   -2.2727    0.7291   -1.1432 O   0  0  0  0  0  0  0  0  0  0  0  0
   -1.0093    1.5052    0.5593 N   0  0  0  0  0  0  0  0  0  0  0  0
   -0.3116    1.2671    1.2602 H   0  0  0  0  0  0  0  0  0  0  0  0
   -1.3625    2.9051    0.3628 C   0  0  0  0  0  0  0  0  0  0  0  0
   -2.4469    3.0408    0.4319 H   0  0  0  0  0  0  0  0  0  0  0  0
   -0.8884    3.5251    1.1298 H   0  0  0  0  0  0  0  0  0  0  0  0
   -1.0248    3.2509   -0.6198 H   0  0  0  0  0  0  0  0  0  0  0  0
  1  2  1  0  0  0  0
  2  3  1  0  0  0  0
  2  4  1  0  0  0  0
  2  5  1  0  0  0  0
  5  6  2  0  0  0  0
  5  7  1  0  0  0  0
  7  8  1  0  0  0  0
  7  9  1  0  0  0  0
  9 10  1  0  0  0  0
  9 11  1  0  0  0  0
  9 29  1  0  0  0  0
 11 12  1  0  0  0  0
 11 13  1  0  0  0  0
 11 14  1  0  0  0  0
 14 15  2  0  0  0  0
 14 28  1  0  0  0  0
 15 16  1  0  0  0  0
 15 17  1  0  0  0  0
 17 18  1  0  0  0  0
 17 19  1  0  0  0  0
 19 20  1  0  0  0  0
 19 28  2  0  0  0  0
 20 21  1  0  0  0  0
 20 22  2  0  0  0  0
 22 23  1  0  0  0  0
 22 24  1  0  0  0  0
 24 25  1  0  0  0  0
 24 26  2  0  0  0  0
 26 27  1  0  0  0  0
 26 28  1  0  0  0  0
 29 30  2  0  0  0  0
 29 31  1  0  0  0  0
 31 32  1  0  0  0  0
 31 33  1  0  0  0  0
 33 34  1  0  0  0  0
 33 35  1  0  0  0  0
 33 36  1  0  0  0  0
M  END
$$$$

  -OEChem-03222214083D

 36 37  0     1  0  0  0  0  0999 V2000
   -3.8923   -4.4980    1.3690 H   0  0  0  0  0  0  0  0  0  0  0  0
   -3.8006   -3.7131    0.6131 C   0  0  0  0  0  0  0  0  0  0  0  0
   -4.6696   -3.0542    0.6822 H   0  0  0  0  0  0  0  0  0  0  0  0
   -3.7812   -4.1778   -0.3756 H   0  0  0  0  0  0  0  0  0  0  0  0
   -2.5280   -2.9180    0.8366 C   0  0  0  0  0  0  0  0  0  0  0  0
   -1.8221   -3.1628    1.7992 O   0  0  0  0  0  0  0  0  0  0  0  0
   -2.2038   -1.9012   -0.0352 N   0  0  0  0  0  0  0  0  0  0  0  0
   -2.8909   -1.6762   -0.7522 H   0  0  0  0  0  0  0  0  0  0  0  0
   -1.0369   -1.0051    0.0583 C   0  0  1  0  0  0  0  0  0  0  0  0
   -0.6402   -1.0491    1.0721 H   0  0  0  0  0  0  0  0  0  0  0  0
    0.0505   -1.4253   -0.9536 C   0  0  0  0  0  0  0  0  0  0  0  0
   -0.1711   -2.4460   -1.2815 H   0  0  0  0  0  0  0  0  0  0  0  0
   -0.0029   -0.7923   -1.8462 H   0  0  0  0  0  0  0  0  0  0  0  0
    1.4724   -1.4554   -0.4282 C   0  0  0  0  0  0  0  0  0  0  0  0
    2.5265   -1.1980   -1.2742 C   0  0  0  0  0  0  0  0  0  0  0  0
    2.4375   -0.9370   -2.3266 H   0  0  0  0  0  0  0  0  0  0  0  0
    3.7062   -1.3053   -0.5502 N   0  0  0  0  0  0  0  0  0  0  0  0
    4.6434   -1.1669   -0.9223 H   0  0  0  0  0  0  0  0  0  0  0  0
    3.4306   -1.6825    0.7497 C   0  0  0  0  0  0  0  0  0  0  0  0
    4.3018   -1.9334    1.8091 C   0  0  0  0  0  0  0  0  0  0  0  0
    5.3717   -1.8150    1.6790 H   0  0  0  0  0  0  0  0  0  0  0  0
    3.7771   -2.3491    3.0377 C   0  0  0  0  0  0  0  0  0  0  0  0
    4.4401   -2.5511    3.8738 H   0  0  0  0  0  0  0  0  0  0  0  0
    2.3943   -2.5207    3.1807 C   0  0  0  0  0  0  0  0  0  0  0  0
    1.9833   -2.8633    4.1256 H   0  0  0  0  0  0  0  0  0  0  0  0
    1.5327   -2.2639    2.1051 C   0  0  0  0  0  0  0  0  0  0  0  0
    0.4731   -2.4339    2.2407 H   0  0  0  0  0  0  0  0  0  0  0  0
    2.0481   -1.8175    0.8787 C   0  0  0  0  0  0  0  0  0  0  0  0
   -1.4262    0.4622   -0.1924 C   0  0  0  0  0  0  0  0  0  0  0  0
   -2.2266    0.7357   -1.0807 O   0  0  0  0  0  0  0  0  0  0  0  0
   -0.9441    1.4650    0.6277 N   0  0  0  0  0  0  0  0  0  0  0  0
   -0.2597    1.2031    1.3332 H   0  0  0  0  0  0  0  0  0  0  0  0
   -1.2782    2.8727    0.4547 C   0  0  0  0  0  0  0  0  0  0  0  0
   -2.3590    3.0239    0.5444 H   0  0  0  0  0  0  0  0  0  0  0  0
   -0.7808    3.4758    1.2204 H   0  0  0  0  0  0  0  0  0  0  0  0
   -0.9529    3.2255   -0.5296 H   0  0  0  0  0  0  0  0  0  0  0  0
  1  2  1  0  0  0  0
  2  3  1  0  0  0  0
  2  4  1  0  0  0  0
  2  5  1  0  0  0  0
  5  6  2  0  0  0  0
  5  7  1  0  0  0  0
  7  8  1  0  0  0  0
  7  9  1  0  0  0  0
  9 10  1  0  0  0  0
  9 11  1  0  0  0  0
  9 29  1  0  0  0  0
 11 12  1  0  0  0  0
 11 13  1  0  0  0  0
 11 14  1  0  0  0  0
 14 15  2  0  0  0  0
 14 28  1  0  0  0  0
 15 16  1  0  0  0  0
 15 17  1  0  0  0  0
 17 18  1  0  0  0  0
 17 19  1  0  0  0  0
 19 20  1  0  0  0  0
 19 28  2  0  0  0  0
 20 21  1  0  0  0  0
 20 22  2  0  0  0  0
 22 23  1  0  0  0  0
 22 24  1  0  0  0  0
 24 25  1  0  0  0  0
 24 26  2  0  0  0  0
 26 27  1  0  0  0  0
 26 28  1  0  0  0  0
 29 30  2  0  0  0  0
 29 31  1  0  0  0  0
 31 32  1  0  0  0  0
 31 33  1  0  0  0  0
 33 34  1  0  0  0  0
 33 35  1  0  0  0  0
 33 36  1  0  0  0  0
M  END
$$$$

  -OEChem-03222214083D

 36 37  0     1  0  0  0  0  0999 V2000
   -3.9111   -4.5197    1.3554 H   0  0  0  0  0  0  0  0  0  0  0  0
   -3.8011   -3.7374    0.5990 C   0  0  0  0  0  0  0  0  0  0  0  0
   -4.6811   -3.0904    0.6306 H   0  0  0  0  0  0  0  0  0  0  0  0
   -3.7367   -4.2074   -0.3853 H   0  0  0  0  0  0  0  0  0  0  0  0
   -2.5496   -2.9233    0.8685 C   0  0  0  0  0  0  0  0  0  0  0  0
   -1.9010   -3.1358    1.8768 O   0  0  0  0  0  0  0  0  0  0  0  0
   -2.2057   -1.9046    0.0064 N   0  0  0  0  0  0  0  0  0  0  0  0
   -2.8660   -1.7011   -0.7412 H   0  0  0  0  0  0  0  0  0  0  0  0
   -1.0206   -1.0291    0.0823 C   0  0  1  0  0  0  0  0  0  0  0  0
   -0.5896   -1.1045    1.0845 H   0  0  0  0  0  0  0  0  0  0  0  0
    0.0348   -1.4487   -0.9672 C   0  0  0  0  0  0  0  0  0  0  0  0
   -0.2054   -2.4602   -1.3101 H   0  0  0  0  0  0  0  0  0  0  0  0
   -0.0262   -0.7982   -1.8465 H   0  0  0  0  0  0  0  0  0  0  0  0
    1.4598   -1.4989   -0.4575 C   0  0  0  0  0  0  0  0  0  0  0  0
    2.4977   -0.9597   -1.1823 C   0  0  0  0  0  0  0  0  0  0  0  0
    2.3996   -0.4555   -2.1415 H   0  0  0  0  0  0  0  0  0  0  0  0
    3.6753   -1.1565   -0.4706 N   0  0  0  0  0  0  0  0  0  0  0  0
    4.6030   -0.8635   -0.7699 H   0  0  0  0  0  0  0  0  0  0  0  0
    3.4146   -1.8491    0.6971 C   0  0  0  0  0  0  0  0  0  0  0  0
    4.2750   -2.2815    1.7066 C   0  0  0  0  0  0  0  0  0  0  0  0
    5.3365   -2.0678    1.6513 H   0  0  0  0  0  0  0  0  0  0  0  0
    3.7498   -2.9987    2.7885 C   0  0  0  0  0  0  0  0  0  0  0  0
    4.4037   -3.3433    3.5839 H   0  0  0  0  0  0  0  0  0  0  0  0
    2.3780   -3.2802    2.8384 C   0  0  0  0  0  0  0  0  0  0  0  0
    1.9674   -3.8458    3.6697 H   0  0  0  0  0  0  0  0  0  0  0  0
    1.5282   -2.8390    1.8145 C   0  0  0  0  0  0  0  0  0  0  0  0
    0.4760   -3.0798    1.8563 H   0  0  0  0  0  0  0  0  0  0  0  0
    2.0454   -2.1038    0.7432 C   0  0  0  0  0  0  0  0  0  0  0  0
   -1.3881    0.4464   -0.1530 C   0  0  0  0  0  0  0  0  0  0  0  0
   -2.1829    0.7447   -1.0384 O   0  0  0  0  0  0  0  0  0  0  0  0
   -0.8707    1.4324    0.6655 N   0  0  0  0  0  0  0  0  0  0  0  0
   -0.2063    1.1455    1.3804 H   0  0  0  0  0  0  0  0  0  0  0  0
   -1.1860    2.8471    0.5188 C   0  0  0  0  0  0  0  0  0  0  0  0
   -2.2612    3.0153    0.6403 H   0  0  0  0  0  0  0  0  0  0  0  0
   -0.6574    3.4316    1.2778 H   0  0  0  0  0  0  0  0  0  0  0  0
   -0.8814    3.2069   -0.4694 H   0  0  0  0  0  0  0  0  0  0  0  0
  1  2  1  0  0  0  0
  2  3  1  0  0  0  0
  2  4  1  0  0  0  0
  2  5  1  0  0  0  0
  5  6  2  0  0  0  0
  5  7  1  0  0  0  0
  7  8  1  0  0  0  0
  7  9  1  0  0  0  0
  9 10  1  0  0  0  0
  9 11  1  0  0  0  0
  9 29  1  0  0  0  0
 11 12  1  0  0  0  0
 11 13  1  0  0  0  0
 11 14  1  0  0  0  0
 14 15  2  0  0  0  0
 14 28  1  0  0  0  0
 15 16  1  0  0  0  0
 15 17  1  0  0  0  0
 17 18  1  0  0  0  0
 17 19  1  0  0  0  0
 19 20  1  0  0  0  0
 19 28  2  0  0  0  0
 20 21  1  0  0  0  0
 20 22  2  0  0  0  0
 22 23  1  0  0  0  0
 22 24  1  0  0  0  0
 24 25  1  0  0  0  0
 24 26  2  0  0  0  0
 26 27  1  0  0  0  0
 26 28  1  0  0  0  0
 29 30  2  0  0  0  0
 29 31  1  0  0  0  0
 31 32  1  0  0  0  0
 31 33  1  0  0  0  0
 33 34  1  0  0  0  0
 33 35  1  0  0  0  0
 33 36  1  0  0  0  0
M  END
$$$$

  -OEChem-03222214083D

 36 37  0     1  0  0  0  0  0999 V2000
   -3.8130   -4.5268    1.4552 H   0  0  0  0  0  0  0  0  0  0  0  0
   -3.7296   -3.7553    0.6845 C   0  0  0  0  0  0  0  0  0  0  0  0
   -4.6124   -3.1131    0.7320 H   0  0  0  0  0  0  0  0  0  0  0  0
   -3.6906   -4.2394   -0.2944 H   0  0  0  0  0  0  0  0  0  0  0  0
   -2.4764   -2.9295    0.9046 C   0  0  0  0  0  0  0  0  0  0  0  0
   -1.7847   -3.1334    1.8868 O   0  0  0  0  0  0  0  0  0  0  0  0
   -2.1720   -1.9126    0.0259 N   0  0  0  0  0  0  0  0  0  0  0  0
   -2.8568   -1.7141   -0.7006 H   0  0  0  0  0  0  0  0  0  0  0  0
   -0.9861   -1.0380    0.0666 C   0  0  1  0  0  0  0  0  0  0  0  0
   -0.5231   -1.1179    1.0559 H   0  0  0  0  0  0  0  0  0  0  0  0
    0.0403   -1.4556   -1.0109 C   0  0  0  0  0  0  0  0  0  0  0  0
   -0.1987   -2.4646   -1.3618 H   0  0  0  0  0  0  0  0  0  0  0  0
   -0.0268   -0.7946   -1.8818 H   0  0  0  0  0  0  0  0  0  0  0  0
    1.4563   -1.4889   -0.4883 C   0  0  0  0  0  0  0  0  0  0  0  0
    2.4682   -0.7124   -1.0020 C   0  0  0  0  0  0  0  0  0  0  0  0
    2.3605    0.0093   -1.8091 H   0  0  0  0  0  0  0  0  0  0  0  0
    3.6333   -1.0053   -0.3000 N   0  0  0  0  0  0  0  0  0  0  0  0
    4.5446   -0.5834   -0.4661 H   0  0  0  0  0  0  0  0  0  0  0  0
    3.3910   -1.9947    0.6369 C   0  0  0  0  0  0  0  0  0  0  0  0
    4.2391   -2.6262    1.5469 C   0  0  0  0  0  0  0  0  0  0  0  0
    5.2837   -2.3430    1.6101 H   0  0  0  0  0  0  0  0  0  0  0  0
    3.7238   -3.6334    2.3738 C   0  0  0  0  0  0  0  0  0  0  0  0
    4.3693   -4.1343    3.0891 H   0  0  0  0  0  0  0  0  0  0  0  0
    2.3747   -4.0018    2.2706 C   0  0  0  0  0  0  0  0  0  0  0  0
    1.9738   -4.7879    2.9035 H   0  0  0  0  0  0  0  0  0  0  0  0
    1.5358   -3.3597    1.3493 C   0  0  0  0  0  0  0  0  0  0  0  0
    0.4999   -3.6594    1.2591 H   0  0  0  0  0  0  0  0  0  0  0  0
    2.0463   -2.3400    0.5419 C   0  0  0  0  0  0  0  0  0  0  0  0
   -1.3600    0.4380   -0.1551 C   0  0  0  0  0  0  0  0  0  0  0  0
   -2.1758    0.7393   -1.0200 O   0  0  0  0  0  0  0  0  0  0  0  0
   -0.8178    1.4230    0.6485 N   0  0  0  0  0  0  0  0  0  0  0  0
   -0.1559    1.1309    1.3634 H   0  0  0  0  0  0  0  0  0  0  0  0
   -1.1534    2.8356    0.5274 C   0  0  0  0  0  0  0  0  0  0  0  0
   -2.2241    2.9914    0.6968 H   0  0  0  0  0  0  0  0  0  0  0  0
   -0.5981    3.4200    1.2674 H   0  0  0  0  0  0  0  0  0  0  0  0
   -0.8958    3.2064   -0.4702 H   0  0  0  0  0  0  0  0  0  0  0  0
  1  2  1  0  0  0  0
  2  3  1  0  0  0  0
  2  4  1  0  0  0  0
  2  5  1  0  0  0  0
  5  6  2  0  0  0  0
  5  7  1  0  0  0  0
  7  8  1  0  0  0  0
  7  9  1  0  0  0  0
  9 10  1  0  0  0  0
  9 11  1  0  0  0  0
  9 29  1  0  0  0  0
 11 12  1  0  0  0  0
 11 13  1  0  0  0  0
 11 14  1  0  0  0  0
 14 15  2  0  0  0  0
 14 28  1  0  0  0  0
 15 16  1  0  0  0  0
 15 17  1  0  0  0  0
 17 18  1  0  0  0  0
 17 19  1  0  0  0  0
 19 20  1  0  0  0  0
 19 28  2  0  0  0  0
 20 21  1  0  0  0  0
 20 22  2  0  0  0  0
 22 23  1  0  0  0  0
 22 24  1  0  0  0  0
 24 25  1  0  0  0  0
 24 26  2  0  0  0  0
 26 27  1  0  0  0  0
 26 28  1  0  0  0  0
 29 30  2  0  0  0  0
 29 31  1  0  0  0  0
 31 32  1  0  0  0  0
 31 33  1  0  0  0  0
 33 34  1  0  0  0  0
 33 35  1  0  0  0  0
 33 36  1  0  0  0  0
M  END
$$$$

  -OEChem-03222214083D

 36 37  0     1  0  0  0  0  0999 V2000
   -3.7423   -4.5578    1.4698 H   0  0  0  0  0  0  0  0  0  0  0  0
   -3.6934   -3.7718    0.7111 C   0  0  0  0  0  0  0  0  0  0  0  0
   -4.5491   -3.1045    0.8398 H   0  0  0  0  0  0  0  0  0  0  0  0
   -3.7450   -4.2335   -0.2778 H   0  0  0  0  0  0  0  0  0  0  0  0
   -2.4008   -2.9902    0.8509 C   0  0  0  0  0  0  0  0  0  0  0  0
   -1.6163   -3.2723    1.7401 O   0  0  0  0  0  0  0  0  0  0  0  0
   -2.1428   -1.9466   -0.0119 N   0  0  0  0  0  0  0  0  0  0  0  0
   -2.8803   -1.6969   -0.6677 H   0  0  0  0  0  0  0  0  0  0  0  0
   -0.9587   -1.0705    0.0143 C   0  0  1  0  0  0  0  0  0  0  0  0
   -0.4719   -1.1764    0.9901 H   0  0  0  0  0  0  0  0  0  0  0  0
    0.0403   -1.4780   -1.0880 C   0  0  0  0  0  0  0  0  0  0  0  0
   -0.2020   -2.4785   -1.4604 H   0  0  0  0  0  0  0  0  0  0  0  0
   -0.0332   -0.7941   -1.9405 H   0  0  0  0  0  0  0  0  0  0  0  0
    1.4533   -1.5078   -0.5652 C   0  0  0  0  0  0  0  0  0  0  0  0
    2.4064   -0.5547   -0.8345 C   0  0  0  0  0  0  0  0  0  0  0  0
    2.2601    0.3266   -1.4557 H   0  0  0  0  0  0  0  0  0  0  0  0
    3.5748   -0.9237   -0.1729 N   0  0  0  0  0  0  0  0  0  0  0  0
    4.4555   -0.4140   -0.2003 H   0  0  0  0  0  0  0  0  0  0  0  0
    3.3834   -2.1120    0.5128 C   0  0  0  0  0  0  0  0  0  0  0  0
    4.2436   -2.8720    1.3056 C   0  0  0  0  0  0  0  0  0  0  0  0
    5.2644   -2.5473    1.4724 H   0  0  0  0  0  0  0  0  0  0  0  0
    3.7697   -4.0580    1.8836 C   0  0  0  0  0  0  0  0  0  0  0  0
    4.4253   -4.6596    2.5058 H   0  0  0  0  0  0  0  0  0  0  0  0
    2.4467   -4.4684    1.6598 C   0  0  0  0  0  0  0  0  0  0  0  0
    2.0766   -5.3849    2.1092 H   0  0  0  0  0  0  0  0  0  0  0  0
    1.5933   -3.6967    0.8593 C   0  0  0  0  0  0  0  0  0  0  0  0
    0.5708   -4.0132    0.6856 H   0  0  0  0  0  0  0  0  0  0  0  0
    2.0705   -2.5129    0.2904 C   0  0  0  0  0  0  0  0  0  0  0  0
   -1.3333    0.4124   -0.1469 C   0  0  0  0  0  0  0  0  0  0  0  0
   -2.1804    0.7428   -0.9695 O   0  0  0  0  0  0  0  0  0  0  0  0
   -0.7595    1.3702    0.6680 N   0  0  0  0  0  0  0  0  0  0  0  0
   -0.0837    1.0522    1.3585 H   0  0  0  0  0  0  0  0  0  0  0  0
   -1.0959    2.7865    0.6042 C   0  0  0  0  0  0  0  0  0  0  0  0
   -2.1623    2.9372    0.8027 H   0  0  0  0  0  0  0  0  0  0  0  0
   -0.5234    3.3442    1.3517 H   0  0  0  0  0  0  0  0  0  0  0  0
   -0.8602    3.1926   -0.3851 H   0  0  0  0  0  0  0  0  0  0  0  0
  1  2  1  0  0  0  0
  2  3  1  0  0  0  0
  2  4  1  0  0  0  0
  2  5  1  0  0  0  0
  5  6  2  0  0  0  0
  5  7  1  0  0  0  0
  7  8  1  0  0  0  0
  7  9  1  0  0  0  0
  9 10  1  0  0  0  0
  9 11  1  0  0  0  0
  9 29  1  0  0  0  0
 11 12  1  0  0  0  0
 11 13  1  0  0  0  0
 11 14  1  0  0  0  0
 14 15  2  0  0  0  0
 14 28  1  0  0  0  0
 15 16  1  0  0  0  0
 15 17  1  0  0  0  0
 17 18  1  0  0  0  0
 17 19  1  0  0  0  0
 19 20  1  0  0  0  0
 19 28  2  0  0  0  0
 20 21  1  0  0  0  0
 20 22  2  0  0  0  0
 22 23  1  0  0  0  0
 22 24  1  0  0  0  0
 24 25  1  0  0  0  0
 24 26  2  0  0  0  0
 26 27  1  0  0  0  0
 26 28  1  0  0  0  0
 29 30  2  0  0  0  0
 29 31  1  0  0  0  0
 31 32  1  0  0  0  0
 31 33  1  0  0  0  0
 33 34  1  0  0  0  0
 33 35  1  0  0  0  0
 33 36  1  0  0  0  0
M  END
$$$$

  -OEChem-03222214083D

 36 37  0     1  0  0  0  0  0999 V2000
   -3.6539   -4.5909    1.4469 H   0  0  0  0  0  0  0  0  0  0  0  0
   -3.6438   -3.7864    0.7061 C   0  0  0  0  0  0  0  0  0  0  0  0
   -4.4764   -3.1091    0.9109 H   0  0  0  0  0  0  0  0  0  0  0  0
   -3.7716   -4.2215   -0.2880 H   0  0  0  0  0  0  0  0  0  0  0  0
   -2.3312   -3.0294    0.7752 C   0  0  0  0  0  0  0  0  0  0  0  0
   -1.4786   -3.3671    1.5787 O   0  0  0  0  0  0  0  0  0  0  0  0
   -2.1161   -1.9621   -0.0706 N   0  0  0  0  0  0  0  0  0  0  0  0
   -2.8950   -1.6711   -0.6580 H   0  0  0  0  0  0  0  0  0  0  0  0
   -0.9353   -1.0827   -0.0517 C   0  0  1  0  0  0  0  0  0  0  0  0
   -0.4324   -1.2107    0.9134 H   0  0  0  0  0  0  0  0  0  0  0  0
    0.0420   -1.4863   -1.1707 C   0  0  0  0  0  0  0  0  0  0  0  0
   -0.2071   -2.4804   -1.5554 H   0  0  0  0  0  0  0  0  0  0  0  0
   -0.0355   -0.7885   -2.0113 H   0  0  0  0  0  0  0  0  0  0  0  0
    1.4553   -1.5161   -0.6530 C   0  0  0  0  0  0  0  0  0  0  0  0
    2.3303   -0.4566   -0.6605 C   0  0  0  0  0  0  0  0  0  0  0  0
    2.1260    0.5290   -1.0737 H   0  0  0  0  0  0  0  0  0  0  0  0
    3.5120   -0.8810   -0.0573 N   0  0  0  0  0  0  0  0  0  0  0  0
    4.3504   -0.3163    0.0621 H   0  0  0  0  0  0  0  0  0  0  0  0
    3.3954   -2.1985    0.3571 C   0  0  0  0  0  0  0  0  0  0  0  0
    4.2866   -3.0505    1.0100 C   0  0  0  0  0  0  0  0  0  0  0  0
    5.2805   -2.7062    1.2724 H   0  0  0  0  0  0  0  0  0  0  0  0
    3.8772   -4.3536    1.3274 C   0  0  0  0  0  0  0  0  0  0  0  0
    4.5580   -5.0282    1.8379 H   0  0  0  0  0  0  0  0  0  0  0  0
    2.5837   -4.7850    0.9945 C   0  0  0  0  0  0  0  0  0  0  0  0
    2.2611   -5.7892    1.2520 H   0  0  0  0  0  0  0  0  0  0  0  0
    1.6979   -3.9205    0.3361 C   0  0  0  0  0  0  0  0  0  0  0  0
    0.6914   -4.2441    0.0902 H   0  0  0  0  0  0  0  0  0  0  0  0
    2.1191   -2.6279    0.0121 C   0  0  0  0  0  0  0  0  0  0  0  0
   -1.3072    0.4052   -0.1587 C   0  0  0  0  0  0  0  0  0  0  0  0
   -2.1834    0.7622   -0.9380 O   0  0  0  0  0  0  0  0  0  0  0  0
   -0.7057    1.3344    0.6695 N   0  0  0  0  0  0  0  0  0  0  0  0
   -0.0318    0.9868    1.3474 H   0  0  0  0  0  0  0  0  0  0  0  0
   -1.0730    2.7442    0.6945 C   0  0  0  0  0  0  0  0  0  0  0  0
   -2.1228    2.8613    0.9832 H   0  0  0  0  0  0  0  0  0  0  0  0
   -0.4533    3.2830    1.4177 H   0  0  0  0  0  0  0  0  0  0  0  0
   -0.9253    3.1965   -0.2918 H   0  0  0  0  0  0  0  0  0  0  0  0
  1  2  1  0  0  0  0
  2  3  1  0  0  0  0
  2  4  1  0  0  0  0
  2  5  1  0  0  0  0
  5  6  2  0  0  0  0
  5  7  1  0  0  0  0
  7  8  1  0  0  0  0
  7  9  1  0  0  0  0
  9 10  1  0  0  0  0
  9 11  1  0  0  0  0
  9 29  1  0  0  0  0
 11 12  1  0  0  0  0
 11 13  1  0  0  0  0
 11 14  1  0  0  0  0
 14 15  2  0  0  0  0
 14 28  1  0  0  0  0
 15 16  1  0  0  0  0
 15 17  1  0  0  0  0
 17 18  1  0  0  0  0
 17 19  1  0  0  0  0
 19 20  1  0  0  0  0
 19 28  2  0  0  0  0
 20 21  1  0  0  0  0
 20 22  2  0  0  0  0
 22 23  1  0  0  0  0
 22 24  1  0  0  0  0
 24 25  1  0  0  0  0
 24 26  2  0  0  0  0
 26 27  1  0  0  0  0
 26 28  1  0  0  0  0
 29 30  2  0  0  0  0
 29 31  1  0  0  0  0
 31 32  1  0  0  0  0
 31 33  1  0  0  0  0
 33 34  1  0  0  0  0
 33 35  1  0  0  0  0
 33 36  1  0  0  0  0
M  END
$$$$

  -OEChem-03222214083D

 36 37  0     1  0  0  0  0  0999 V2000
   -3.6387   -4.5871    1.4308 H   0  0  0  0  0  0  0  0  0  0  0  0
   -3.6303   -3.7843    0.6880 C   0  0  0  0  0  0  0  0  0  0  0  0
   -4.4685   -3.1122    0.8874 H   0  0  0  0  0  0  0  0  0  0  0  0
   -3.7511   -4.2229   -0.3055 H   0  0  0  0  0  0  0  0  0  0  0  0
   -2.3225   -3.0188    0.7606 C   0  0  0  0  0  0  0  0  0  0  0  0
   -1.4719   -3.3480    1.5699 O   0  0  0  0  0  0  0  0  0  0  0  0
   -2.1100   -1.9501   -0.0844 N   0  0  0  0  0  0  0  0  0  0  0  0
   -2.8850   -1.6649   -0.6800 H   0  0  0  0  0  0  0  0  0  0  0  0
   -0.9299   -1.0702   -0.0590 C   0  0  1  0  0  0  0  0  0  0  0  0
   -0.4270   -1.1998    0.9058 H   0  0  0  0  0  0  0  0  0  0  0  0
    0.0461   -1.4758   -1.1790 C   0  0  0  0  0  0  0  0  0  0  0  0
   -0.2121   -2.4656   -1.5679 H   0  0  0  0  0  0  0  0  0  0  0  0
   -0.0261   -0.7758   -2.0180 H   0  0  0  0  0  0  0  0  0  0  0  0
    1.4616   -1.5123   -0.6662 C   0  0  0  0  0  0  0  0  0  0  0  0
    2.2497   -0.4174   -0.4013 C   0  0  0  0  0  0  0  0  0  0  0  0
    1.9693    0.6197   -0.5726 H   0  0  0  0  0  0  0  0  0  0  0  0
    3.4607   -0.8815    0.1068 N   0  0  0  0  0  0  0  0  0  0  0  0
    4.2507   -0.2995    0.3771 H   0  0  0  0  0  0  0  0  0  0  0  0
    3.4464   -2.2645    0.1973 C   0  0  0  0  0  0  0  0  0  0  0  0
    4.3991   -3.1764    0.6528 C   0  0  0  0  0  0  0  0  0  0  0  0
    5.3615   -2.8296    1.0119 H   0  0  0  0  0  0  0  0  0  0  0  0
    4.0926   -4.5449    0.6469 C   0  0  0  0  0  0  0  0  0  0  0  0
    4.8226   -5.2666    1.0009 H   0  0  0  0  0  0  0  0  0  0  0  0
    2.8389   -4.9829    0.1932 C   0  0  0  0  0  0  0  0  0  0  0  0
    2.5978   -6.0413    0.2001 H   0  0  0  0  0  0  0  0  0  0  0  0
    1.8900   -4.0573   -0.2633 C   0  0  0  0  0  0  0  0  0  0  0  0
    0.9140   -4.3896   -0.6017 H   0  0  0  0  0  0  0  0  0  0  0  0
    2.2091   -2.6960   -0.2667 C   0  0  0  0  0  0  0  0  0  0  0  0
   -1.3067    0.4167   -0.1638 C   0  0  0  0  0  0  0  0  0  0  0  0
   -2.1760    0.7741   -0.9505 O   0  0  0  0  0  0  0  0  0  0  0  0
   -0.7112    1.3457    0.6693 N   0  0  0  0  0  0  0  0  0  0  0  0
   -0.0780    0.9908    1.3815 H   0  0  0  0  0  0  0  0  0  0  0  0
   -1.0991    2.7500    0.7064 C   0  0  0  0  0  0  0  0  0  0  0  0
   -2.1405    2.8513    1.0295 H   0  0  0  0  0  0  0  0  0  0  0  0
   -0.4636    3.2988    1.4079 H   0  0  0  0  0  0  0  0  0  0  0  0
   -0.9911    3.2043   -0.2842 H   0  0  0  0  0  0  0  0  0  0  0  0
  1  2  1  0  0  0  0
  2  3  1  0  0  0  0
  2  4  1  0  0  0  0
  2  5  1  0  0  0  0
  5  6  2  0  0  0  0
  5  7  1  0  0  0  0
  7  8  1  0  0  0  0
  7  9  1  0  0  0  0
  9 10  1  0  0  0  0
  9 11  1  0  0  0  0
  9 29  1  0  0  0  0
 11 12  1  0  0  0  0
 11 13  1  0  0  0  0
 11 14  1  0  0  0  0
 14 15  2  0  0  0  0
 14 28  1  0  0  0  0
 15 16  1  0  0  0  0
 15 17  1  0  0  0  0
 17 18  1  0  0  0  0
 17 19  1  0  0  0  0
 19 20  1  0  0  0  0
 19 28  2  0  0  0  0
 20 21  1  0  0  0  0
 20 22  2  0  0  0  0
 22 23  1  0  0  0  0
 22 24  1  0  0  0  0
 24 25  1  0  0  0  0
 24 26  2  0  0  0  0
 26 27  1  0  0  0  0
 26 28  1  0  0  0  0
 29 30  2  0  0  0  0
 29 31  1  0  0  0  0
 31 32  1  0  0  0  0
 31 33  1  0  0  0  0
 33 34  1  0  0  0  0
 33 35  1  0  0  0  0
 33 36  1  0  0  0  0
M  END
$$$$

  -OEChem-03222214083D

 36 37  0     1  0  0  0  0  0999 V2000
   -3.6884   -4.5606    1.4213 H   0  0  0  0  0  0  0  0  0  0  0  0
   -3.6557   -3.7677    0.6688 C   0  0  0  0  0  0  0  0  0  0  0  0
   -4.5162   -3.1101    0.8126 H   0  0  0  0  0  0  0  0  0  0  0  0
   -3.7130   -4.2219   -0.3232 H   0  0  0  0  0  0  0  0  0  0  0  0
   -2.3691   -2.9749    0.8010 C   0  0  0  0  0  0  0  0  0  0  0  0
   -1.5686   -3.2590    1.6761 O   0  0  0  0  0  0  0  0  0  0  0  0
   -2.1230   -1.9241   -0.0576 N   0  0  0  0  0  0  0  0  0  0  0  0
   -2.8597   -1.6711   -0.7133 H   0  0  0  0  0  0  0  0  0  0  0  0
   -0.9400   -1.0491   -0.0084 C   0  0  1  0  0  0  0  0  0  0  0  0
   -0.4584   -1.1639    0.9687 H   0  0  0  0  0  0  0  0  0  0  0  0
    0.0542   -1.4737   -1.1090 C   0  0  0  0  0  0  0  0  0  0  0  0
   -0.2168   -2.4647   -1.4846 H   0  0  0  0  0  0  0  0  0  0  0  0
    0.0005   -0.7879   -1.9609 H   0  0  0  0  0  0  0  0  0  0  0  0
    1.4713   -1.5287   -0.5952 C   0  0  0  0  0  0  0  0  0  0  0  0
    2.1812   -0.4781   -0.0617 C   0  0  0  0  0  0  0  0  0  0  0  0
    1.8252    0.5450    0.0321 H   0  0  0  0  0  0  0  0  0  0  0  0
    3.4326   -0.9590    0.3142 N   0  0  0  0  0  0  0  0  0  0  0  0
    4.1783   -0.4058    0.7309 H   0  0  0  0  0  0  0  0  0  0  0  0
    3.5307   -2.3127    0.0374 C   0  0  0  0  0  0  0  0  0  0  0  0
    4.5671   -3.2247    0.2369 C   0  0  0  0  0  0  0  0  0  0  0  0
    5.5024   -2.9021    0.6804 H   0  0  0  0  0  0  0  0  0  0  0  0
    4.3817   -4.5622   -0.1400 C   0  0  0  0  0  0  0  0  0  0  0  0
    5.1786   -5.2842    0.0116 H   0  0  0  0  0  0  0  0  0  0  0  0
    3.1657   -4.9702   -0.7089 C   0  0  0  0  0  0  0  0  0  0  0  0
    3.0227   -6.0073   -0.9961 H   0  0  0  0  0  0  0  0  0  0  0  0
    2.1312   -4.0439   -0.9044 C   0  0  0  0  0  0  0  0  0  0  0  0
    1.1882   -4.3595   -1.3377 H   0  0  0  0  0  0  0  0  0  0  0  0
    2.3247   -2.7097   -0.5296 C   0  0  0  0  0  0  0  0  0  0  0  0
   -1.3230    0.4335   -0.1564 C   0  0  0  0  0  0  0  0  0  0  0  0
   -2.1491    0.7709   -0.9967 O   0  0  0  0  0  0  0  0  0  0  0  0
   -0.7647    1.3865    0.6762 N   0  0  0  0  0  0  0  0  0  0  0  0
   -0.2000    1.0491    1.4513 H   0  0  0  0  0  0  0  0  0  0  0  0
   -1.1581    2.7899    0.6530 C   0  0  0  0  0  0  0  0  0  0  0  0
   -2.2208    2.8943    0.8958 H   0  0  0  0  0  0  0  0  0  0  0  0
   -0.5774    3.3576    1.3864 H   0  0  0  0  0  0  0  0  0  0  0  0
   -0.9787    3.2220   -0.3372 H   0  0  0  0  0  0  0  0  0  0  0  0
  1  2  1  0  0  0  0
  2  3  1  0  0  0  0
  2  4  1  0  0  0  0
  2  5  1  0  0  0  0
  5  6  2  0  0  0  0
  5  7  1  0  0  0  0
  7  8  1  0  0  0  0
  7  9  1  0  0  0  0
  9 10  1  0  0  0  0
  9 11  1  0  0  0  0
  9 29  1  0  0  0  0
 11 12  1  0  0  0  0
 11 13  1  0  0  0  0
 11 14  1  0  0  0  0
 14 15  2  0  0  0  0
 14 28  1  0  0  0  0
 15 16  1  0  0  0  0
 15 17  1  0  0  0  0
 17 18  1  0  0  0  0
 17 19  1  0  0  0  0
 19 20  1  0  0  0  0
 19 28  2  0  0  0  0
 20 21  1  0  0  0  0
 20 22  2  0  0  0  0
 22 23  1  0  0  0  0
 22 24  1  0  0  0  0
 24 25  1  0  0  0  0
 24 26  2  0  0  0  0
 26 27  1  0  0  0  0
 26 28  1  0  0  0  0
 29 30  2  0  0  0  0
 29 31  1  0  0  0  0
 31 32  1  0  0  0  0
 31 33  1  0  0  0  0
 33 34  1  0  0  0  0
 33 35  1  0  0  0  0
 33 36  1  0  0  0  0
M  END
$$$$

  -OEChem-03222214083D

 36 37  0     1  0  0  0  0  0999 V2000
   -3.7178   -4.5539    1.3988 H   0  0  0  0  0  0  0  0  0  0  0  0
   -3.6718   -3.7591    0.6490 C   0  0  0  0  0  0  0  0  0  0  0  0
   -4.5443   -3.1122    0.7674 H   0  0  0  0  0  0  0  0  0  0  0  0
   -3.6940   -4.2125   -0.3449 H   0  0  0  0  0  0  0  0  0  0  0  0
   -2.3994   -2.9512    0.8217 C   0  0  0  0  0  0  0  0  0  0  0  0
   -1.6373   -3.2070    1.7391 O   0  0  0  0  0  0  0  0  0  0  0  0
   -2.1256   -1.9134   -0.0442 N   0  0  0  0  0  0  0  0  0  0  0  0
   -2.8355   -1.6776   -0.7348 H   0  0  0  0  0  0  0  0  0  0  0  0
   -0.9436   -1.0386    0.0306 C   0  0  1  0  0  0  0  0  0  0  0  0
   -0.4871   -1.1412    1.0203 H   0  0  0  0  0  0  0  0  0  0  0  0
    0.0740   -1.4746   -1.0477 C   0  0  0  0  0  0  0  0  0  0  0  0
   -0.1996   -2.4713   -1.4064 H   0  0  0  0  0  0  0  0  0  0  0  0
    0.0321   -0.8047   -1.9132 H   0  0  0  0  0  0  0  0  0  0  0  0
    1.4934   -1.5426   -0.5336 C   0  0  0  0  0  0  0  0  0  0  0  0
    2.1394   -0.6151    0.2519 C   0  0  0  0  0  0  0  0  0  0  0  0
    1.7191    0.3237    0.6016 H   0  0  0  0  0  0  0  0  0  0  0  0
    3.4261   -1.0861    0.4997 N   0  0  0  0  0  0  0  0  0  0  0  0
    4.1338   -0.6108    1.0555 H   0  0  0  0  0  0  0  0  0  0  0  0
    3.6177   -2.3090   -0.1204 C   0  0  0  0  0  0  0  0  0  0  0  0
    4.7218   -3.1603   -0.1640 C   0  0  0  0  0  0  0  0  0  0  0  0
    5.6365   -2.8969    0.3551 H   0  0  0  0  0  0  0  0  0  0  0  0
    4.6320   -4.3588   -0.8853 C   0  0  0  0  0  0  0  0  0  0  0  0
    5.4830   -5.0320   -0.9280 H   0  0  0  0  0  0  0  0  0  0  0  0
    3.4424   -4.6903   -1.5514 C   0  0  0  0  0  0  0  0  0  0  0  0
    3.3737   -5.6199   -2.1079 H   0  0  0  0  0  0  0  0  0  0  0  0
    2.3390   -3.8262   -1.4992 C   0  0  0  0  0  0  0  0  0  0  0  0
    1.4185   -4.0837   -2.0119 H   0  0  0  0  0  0  0  0  0  0  0  0
    2.4357   -2.6306   -0.7780 C   0  0  0  0  0  0  0  0  0  0  0  0
   -1.3340    0.4394   -0.1523 C   0  0  0  0  0  0  0  0  0  0  0  0
   -2.1326    0.7560   -1.0267 O   0  0  0  0  0  0  0  0  0  0  0  0
   -0.8128    1.4132    0.6807 N   0  0  0  0  0  0  0  0  0  0  0  0
   -0.2929    1.0960    1.4939 H   0  0  0  0  0  0  0  0  0  0  0  0
   -1.2110    2.8139    0.6090 C   0  0  0  0  0  0  0  0  0  0  0  0
   -2.2863    2.9178    0.7887 H   0  0  0  0  0  0  0  0  0  0  0  0
   -0.6760    3.3977    1.3641 H   0  0  0  0  0  0  0  0  0  0  0  0
   -0.9764    3.2286   -0.3770 H   0  0  0  0  0  0  0  0  0  0  0  0
  1  2  1  0  0  0  0
  2  3  1  0  0  0  0
  2  4  1  0  0  0  0
  2  5  1  0  0  0  0
  5  6  2  0  0  0  0
  5  7  1  0  0  0  0
  7  8  1  0  0  0  0
  7  9  1  0  0  0  0
  9 10  1  0  0  0  0
  9 11  1  0  0  0  0
  9 29  1  0  0  0  0
 11 12  1  0  0  0  0
 11 13  1  0  0  0  0
 11 14  1  0  0  0  0
 14 15  2  0  0  0  0
 14 28  1  0  0  0  0
 15 16  1  0  0  0  0
 15 17  1  0  0  0  0
 17 18  1  0  0  0  0
 17 19  1  0  0  0  0
 19 20  1  0  0  0  0
 19 28  2  0  0  0  0
 20 21  1  0  0  0  0
 20 22  2  0  0  0  0
 22 23  1  0  0  0  0
 22 24  1  0  0  0  0
 24 25  1  0  0  0  0
 24 26  2  0  0  0  0
 26 27  1  0  0  0  0
 26 28  1  0  0  0  0
 29 30  2  0  0  0  0
 29 31  1  0  0  0  0
 31 32  1  0  0  0  0
 31 33  1  0  0  0  0
 33 34  1  0  0  0  0
 33 35  1  0  0  0  0
 33 36  1  0  0  0  0
M  END
$$$$

  -OEChem-03222214083D

 36 37  0     1  0  0  0  0  0999 V2000
   -3.7604   -4.5468    1.3705 H   0  0  0  0  0  0  0  0  0  0  0  0
   -3.7004   -3.7486    0.6253 C   0  0  0  0  0  0  0  0  0  0  0  0
   -4.5746   -3.1015    0.7300 H   0  0  0  0  0  0  0  0  0  0  0  0
   -3.7041   -4.1971   -0.3710 H   0  0  0  0  0  0  0  0  0  0  0  0
   -2.4311   -2.9425    0.8253 C   0  0  0  0  0  0  0  0  0  0  0  0
   -1.6944   -3.1910    1.7655 O   0  0  0  0  0  0  0  0  0  0  0  0
   -2.1298   -1.9151   -0.0437 N   0  0  0  0  0  0  0  0  0  0  0  0
   -2.8215   -1.6808   -0.7535 H   0  0  0  0  0  0  0  0  0  0  0  0
   -0.9472   -1.0439    0.0555 C   0  0  1  0  0  0  0  0  0  0  0  0
   -0.5216   -1.1386    1.0587 H   0  0  0  0  0  0  0  0  0  0  0  0
    0.0965   -1.4852   -0.9962 C   0  0  0  0  0  0  0  0  0  0  0  0
   -0.1730   -2.4861   -1.3478 H   0  0  0  0  0  0  0  0  0  0  0  0
    0.0685   -0.8248   -1.8693 H   0  0  0  0  0  0  0  0  0  0  0  0
    1.5133   -1.5638   -0.4734 C   0  0  0  0  0  0  0  0  0  0  0  0
    2.1015   -0.8244    0.5282 C   0  0  0  0  0  0  0  0  0  0  0  0
    1.6195   -0.0473    1.1134 H   0  0  0  0  0  0  0  0  0  0  0  0
    3.4231   -1.2454    0.6527 N   0  0  0  0  0  0  0  0  0  0  0  0
    4.0979   -0.8851    1.3240 H   0  0  0  0  0  0  0  0  0  0  0  0
    3.6974   -2.2463   -0.2633 C   0  0  0  0  0  0  0  0  0  0  0  0
    4.8594   -2.9730   -0.5233 C   0  0  0  0  0  0  0  0  0  0  0  0
    5.7599   -2.7880    0.0515 H   0  0  0  0  0  0  0  0  0  0  0  0
    4.8465   -3.9431   -1.5353 C   0  0  0  0  0  0  0  0  0  0  0  0
    5.7436   -4.5164   -1.7490 H   0  0  0  0  0  0  0  0  0  0  0  0
    3.6753   -4.1739   -2.2726 C   0  0  0  0  0  0  0  0  0  0  0  0
    3.6670   -4.9254   -3.0559 H   0  0  0  0  0  0  0  0  0  0  0  0
    2.5132   -3.4378   -2.0007 C   0  0  0  0  0  0  0  0  0  0  0  0
    1.6062   -3.6150   -2.5688 H   0  0  0  0  0  0  0  0  0  0  0  0
    2.5333   -2.4721   -0.9880 C   0  0  0  0  0  0  0  0  0  0  0  0
   -1.3334    0.4323   -0.1546 C   0  0  0  0  0  0  0  0  0  0  0  0
   -2.1202    0.7333   -1.0453 O   0  0  0  0  0  0  0  0  0  0  0  0
   -0.8390    1.4200    0.6783 N   0  0  0  0  0  0  0  0  0  0  0  0
   -0.3090    1.1233    1.4917 H   0  0  0  0  0  0  0  0  0  0  0  0
   -1.2337    2.8196    0.5719 C   0  0  0  0  0  0  0  0  0  0  0  0
   -2.3141    2.9266    0.7156 H   0  0  0  0  0  0  0  0  0  0  0  0
   -0.7222    3.4153    1.3341 H   0  0  0  0  0  0  0  0  0  0  0  0
   -0.9683    3.2186   -0.4129 H   0  0  0  0  0  0  0  0  0  0  0  0
  1  2  1  0  0  0  0
  2  3  1  0  0  0  0
  2  4  1  0  0  0  0
  2  5  1  0  0  0  0
  5  6  2  0  0  0  0
  5  7  1  0  0  0  0
  7  8  1  0  0  0  0
  7  9  1  0  0  0  0
  9 10  1  0  0  0  0
  9 11  1  0  0  0  0
  9 29  1  0  0  0  0
 11 12  1  0  0  0  0
 11 13  1  0  0  0  0
 11 14  1  0  0  0  0
 14 15  2  0  0  0  0
 14 28  1  0  0  0  0
 15 16  1  0  0  0  0
 15 17  1  0  0  0  0
 17 18  1  0  0  0  0
 17 19  1  0  0  0  0
 19 20  1  0  0  0  0
 19 28  2  0  0  0  0
 20 21  1  0  0  0  0
 20 22  2  0  0  0  0
 22 23  1  0  0  0  0
 22 24  1  0  0  0  0
 24 25  1  0  0  0  0
 24 26  2  0  0  0  0
 26 27  1  0  0  0  0
 26 28  1  0  0  0  0
 29 30  2  0  0  0  0
 29 31  1  0  0  0  0
 31 32  1  0  0  0  0
 31 33  1  0  0  0  0
 33 34  1  0  0  0  0
 33 35  1  0  0  0  0
 33 36  1  0  0  0  0
M  END
$$$$

  -OEChem-03222214083D

 36 37  0     1  0  0  0  0  0999 V2000
   -3.8118   -4.5384    1.3425 H   0  0  0  0  0  0  0  0  0  0  0  0
   -3.7372   -3.7373    0.6019 C   0  0  0  0  0  0  0  0  0  0  0  0
   -4.6015   -3.0773    0.7073 H   0  0  0  0  0  0  0  0  0  0  0  0
   -3.7449   -4.1805   -0.3968 H   0  0  0  0  0  0  0  0  0  0  0  0
   -2.4567   -2.9509    0.8098 C   0  0  0  0  0  0  0  0  0  0  0  0
   -1.7272   -3.2112    1.7528 O   0  0  0  0  0  0  0  0  0  0  0  0
   -2.1377   -1.9253   -0.0549 N   0  0  0  0  0  0  0  0  0  0  0  0
   -2.8256   -1.6759   -0.7633 H   0  0  0  0  0  0  0  0  0  0  0  0
   -0.9540   -1.0587    0.0624 C   0  0  1  0  0  0  0  0  0  0  0  0
   -0.5547   -1.1530    1.0752 H   0  0  0  0  0  0  0  0  0  0  0  0
    0.1094   -1.4989   -0.9697 C   0  0  0  0  0  0  0  0  0  0  0  0
   -0.1537   -2.4982   -1.3316 H   0  0  0  0  0  0  0  0  0  0  0  0
    0.0937   -0.8326   -1.8388 H   0  0  0  0  0  0  0  0  0  0  0  0
    1.5241   -1.5852   -0.4390 C   0  0  0  0  0  0  0  0  0  0  0  0
    2.0631   -1.0806    0.7247 C   0  0  0  0  0  0  0  0  0  0  0  0
    1.5297   -0.5260    1.4910 H   0  0  0  0  0  0  0  0  0  0  0  0
    3.4154   -1.4127    0.7510 N   0  0  0  0  0  0  0  0  0  0  0  0
    4.0631   -1.1906    1.5040 H   0  0  0  0  0  0  0  0  0  0  0  0
    3.7589   -2.1255   -0.3846 C   0  0  0  0  0  0  0  0  0  0  0  0
    4.9699   -2.6727   -0.8094 C   0  0  0  0  0  0  0  0  0  0  0  0
    5.8607   -2.5693   -0.2001 H   0  0  0  0  0  0  0  0  0  0  0  0
    5.0188   -3.3567   -2.0324 C   0  0  0  0  0  0  0  0  0  0  0  0
    5.9544   -3.7882   -2.3759 H   0  0  0  0  0  0  0  0  0  0  0  0
    3.8599   -3.4847   -2.8135 C   0  0  0  0  0  0  0  0  0  0  0  0
    3.8999   -4.0150   -3.7600 H   0  0  0  0  0  0  0  0  0  0  0  0
    2.6484   -2.9309   -2.3752 C   0  0  0  0  0  0  0  0  0  0  0  0
    1.7497   -3.0282   -2.9751 H   0  0  0  0  0  0  0  0  0  0  0  0
    2.6080   -2.2513   -1.1529 C   0  0  0  0  0  0  0  0  0  0  0  0
   -1.3321    0.4189   -0.1551 C   0  0  0  0  0  0  0  0  0  0  0  0
   -2.1237    0.7169   -1.0428 O   0  0  0  0  0  0  0  0  0  0  0  0
   -0.8489    1.4079    0.6824 N   0  0  0  0  0  0  0  0  0  0  0  0
   -0.2526    1.1254    1.4536 H   0  0  0  0  0  0  0  0  0  0  0  0
   -1.2172    2.8125    0.5544 C   0  0  0  0  0  0  0  0  0  0  0  0
   -2.3001    2.9369    0.6609 H   0  0  0  0  0  0  0  0  0  0  0  0
   -0.7239    3.4054    1.3305 H   0  0  0  0  0  0  0  0  0  0  0  0
   -0.9113    3.2002   -0.4229 H   0  0  0  0  0  0  0  0  0  0  0  0
  1  2  1  0  0  0  0
  2  3  1  0  0  0  0
  2  4  1  0  0  0  0
  2  5  1  0  0  0  0
  5  6  2  0  0  0  0
  5  7  1  0  0  0  0
  7  8  1  0  0  0  0
  7  9  1  0  0  0  0
  9 10  1  0  0  0  0
  9 11  1  0  0  0  0
  9 29  1  0  0  0  0
 11 12  1  0  0  0  0
 11 13  1  0  0  0  0
 11 14  1  0  0  0  0
 14 15  2  0  0  0  0
 14 28  1  0  0  0  0
 15 16  1  0  0  0  0
 15 17  1  0  0  0  0
 17 18  1  0  0  0  0
 17 19  1  0  0  0  0
 19 20  1  0  0  0  0
 19 28  2  0  0  0  0
 20 21  1  0  0  0  0
 20 22  2  0  0  0  0
 22 23  1  0  0  0  0
 22 24  1  0  0  0  0
 24 25  1  0  0  0  0
 24 26  2  0  0  0  0
 26 27  1  0  0  0  0
 26 28  1  0  0  0  0
 29 30  2  0  0  0  0
 29 31  1  0  0  0  0
 31 32  1  0  0  0  0
 31 33  1  0  0  0  0
 33 34  1  0  0  0  0
 33 35  1  0  0  0  0
 33 36  1  0  0  0  0
M  END
$$$$

  -OEChem-03222214083D

 36 37  0     1  0  0  0  0  0999 V2000
   -3.8486   -4.5231    1.3345 H   0  0  0  0  0  0  0  0  0  0  0  0
   -3.7678   -3.7241    0.5921 C   0  0  0  0  0  0  0  0  0  0  0  0
   -4.6248   -3.0549    0.6990 H   0  0  0  0  0  0  0  0  0  0  0  0
   -3.7838   -4.1689   -0.4059 H   0  0  0  0  0  0  0  0  0  0  0  0
   -2.4779   -2.9520    0.7945 C   0  0  0  0  0  0  0  0  0  0  0  0
   -1.7426   -3.2260    1.7296 O   0  0  0  0  0  0  0  0  0  0  0  0
   -2.1509   -1.9278   -0.0691 N   0  0  0  0  0  0  0  0  0  0  0  0
   -2.8418   -1.6623   -0.7689 H   0  0  0  0  0  0  0  0  0  0  0  0
   -0.9606   -1.0714    0.0561 C   0  0  1  0  0  0  0  0  0  0  0  0
   -0.5770   -1.1648    1.0732 H   0  0  0  0  0  0  0  0  0  0  0  0
    0.1092   -1.5157   -0.9674 C   0  0  0  0  0  0  0  0  0  0  0  0
   -0.1553   -2.5082   -1.3466 H   0  0  0  0  0  0  0  0  0  0  0  0
    0.1028   -0.8363   -1.8266 H   0  0  0  0  0  0  0  0  0  0  0  0
    1.5227   -1.6154   -0.4332 C   0  0  0  0  0  0  0  0  0  0  0  0
    2.0218   -1.3745    0.8297 C   0  0  0  0  0  0  0  0  0  0  0  0
    1.4487   -1.0842    1.7059 H   0  0  0  0  0  0  0  0  0  0  0  0
    3.3975   -1.5911    0.7960 N   0  0  0  0  0  0  0  0  0  0  0  0
    4.0250   -1.5208    1.5944 H   0  0  0  0  0  0  0  0  0  0  0  0
    3.7957   -1.9697   -0.4741 C   0  0  0  0  0  0  0  0  0  0  0  0
    5.0464   -2.2949   -1.0000 C   0  0  0  0  0  0  0  0  0  0  0  0
    5.9281   -2.2726   -0.3691 H   0  0  0  0  0  0  0  0  0  0  0  0
    5.1472   -2.6504   -2.3526 C   0  0  0  0  0  0  0  0  0  0  0  0
    6.1139   -2.9064   -2.7761 H   0  0  0  0  0  0  0  0  0  0  0  0
    3.9995   -2.6773   -3.1599 C   0  0  0  0  0  0  0  0  0  0  0  0
    4.0795   -2.9544   -4.2066 H   0  0  0  0  0  0  0  0  0  0  0  0
    2.7480   -2.3489   -2.6191 C   0  0  0  0  0  0  0  0  0  0  0  0
    1.8578   -2.3705   -3.2389 H   0  0  0  0  0  0  0  0  0  0  0  0
    2.6566   -1.9952   -1.2687 C   0  0  0  0  0  0  0  0  0  0  0  0
   -1.3227    0.4108   -0.1592 C   0  0  0  0  0  0  0  0  0  0  0  0
   -2.1239    0.7168   -1.0358 O   0  0  0  0  0  0  0  0  0  0  0  0
   -0.8326    1.3914    0.6837 N   0  0  0  0  0  0  0  0  0  0  0  0
   -0.1818    1.1089    1.4099 H   0  0  0  0  0  0  0  0  0  0  0  0
   -1.1788    2.8016    0.5561 C   0  0  0  0  0  0  0  0  0  0  0  0
   -2.2612    2.9408    0.6475 H   0  0  0  0  0  0  0  0  0  0  0  0
   -0.6889    3.3838    1.3424 H   0  0  0  0  0  0  0  0  0  0  0  0
   -0.8541    3.1896   -0.4152 H   0  0  0  0  0  0  0  0  0  0  0  0
  1  2  1  0  0  0  0
  2  3  1  0  0  0  0
  2  4  1  0  0  0  0
  2  5  1  0  0  0  0
  5  6  2  0  0  0  0
  5  7  1  0  0  0  0
  7  8  1  0  0  0  0
  7  9  1  0  0  0  0
  9 10  1  0  0  0  0
  9 11  1  0  0  0  0
  9 29  1  0  0  0  0
 11 12  1  0  0  0  0
 11 13  1  0  0  0  0
 11 14  1  0  0  0  0
 14 15  2  0  0  0  0
 14 28  1  0  0  0  0
 15 16  1  0  0  0  0
 15 17  1  0  0  0  0
 17 18  1  0  0  0  0
 17 19  1  0  0  0  0
 19 20  1  0  0  0  0
 19 28  2  0  0  0  0
 20 21  1  0  0  0  0
 20 22  2  0  0  0  0
 22 23  1  0  0  0  0
 22 24  1  0  0  0  0
 24 25  1  0  0  0  0
 24 26  2  0  0  0  0
 26 27  1  0  0  0  0
 26 28  1  0  0  0  0
 29 30  2  0  0  0  0
 29 31  1  0  0  0  0
 31 32  1  0  0  0  0
 31 33  1  0  0  0  0
 33 34  1  0  0  0  0
 33 35  1  0  0  0  0
 33 36  1  0  0  0  0
M  END
$$$$

  -OEChem-03222214083D

 36 37  0     1  0  0  0  0  0999 V2000
   -3.9013   -4.4744    1.3962 H   0  0  0  0  0  0  0  0  0  0  0  0
   -3.8111   -3.6968    0.6325 C   0  0  0  0  0  0  0  0  0  0  0  0
   -4.6413   -2.9951    0.7443 H   0  0  0  0  0  0  0  0  0  0  0  0
   -3.8672   -4.1640   -0.3537 H   0  0  0  0  0  0  0  0  0  0  0  0
   -2.4906   -2.9660    0.7848 C   0  0  0  0  0  0  0  0  0  0  0  0
   -1.7211   -3.2754    1.6812 O   0  0  0  0  0  0  0  0  0  0  0  0
   -2.1705   -1.9404   -0.0796 N   0  0  0  0  0  0  0  0  0  0  0  0
   -2.8837   -1.6420   -0.7429 H   0  0  0  0  0  0  0  0  0  0  0  0
   -0.9675   -1.1013    0.0318 C   0  0  1  0  0  0  0  0  0  0  0  0
   -0.5754   -1.1977    1.0446 H   0  0  0  0  0  0  0  0  0  0  0  0
    0.0869   -1.5463   -1.0057 C   0  0  0  0  0  0  0  0  0  0  0  0
   -0.1876   -2.5288   -1.4030 H   0  0  0  0  0  0  0  0  0  0  0  0
    0.0793   -0.8494   -1.8507 H   0  0  0  0  0  0  0  0  0  0  0  0
    1.5008   -1.6602   -0.4755 C   0  0  0  0  0  0  0  0  0  0  0  0
    1.9591   -1.7015    0.8249 C   0  0  0  0  0  0  0  0  0  0  0  0
    1.3472   -1.7058    1.7241 H   0  0  0  0  0  0  0  0  0  0  0  0
    3.3493   -1.7757    0.7876 N   0  0  0  0  0  0  0  0  0  0  0  0
    3.9561   -1.8589    1.6006 H   0  0  0  0  0  0  0  0  0  0  0  0
    3.7970   -1.7818   -0.5218 C   0  0  0  0  0  0  0  0  0  0  0  0
    5.0798   -1.8482   -1.0658 C   0  0  0  0  0  0  0  0  0  0  0  0
    5.9464   -1.9062   -0.4168 H   0  0  0  0  0  0  0  0  0  0  0  0
    5.2318   -1.8395   -2.4596 C   0  0  0  0  0  0  0  0  0  0  0  0
    6.2242   -1.8912   -2.8974 H   0  0  0  0  0  0  0  0  0  0  0  0
    4.1026   -1.7661   -3.2897 C   0  0  0  0  0  0  0  0  0  0  0  0
    4.2219   -1.7613   -4.3689 H   0  0  0  0  0  0  0  0  0  0  0  0
    2.8182   -1.7014   -2.7307 C   0  0  0  0  0  0  0  0  0  0  0  0
    1.9427   -1.6480   -3.3695 H   0  0  0  0  0  0  0  0  0  0  0  0
    2.6754   -1.7103   -1.3390 C   0  0  0  0  0  0  0  0  0  0  0  0
   -1.3096    0.3879   -0.1650 C   0  0  0  0  0  0  0  0  0  0  0  0
   -2.1352    0.7123   -1.0119 O   0  0  0  0  0  0  0  0  0  0  0  0
   -0.7877    1.3510    0.6787 N   0  0  0  0  0  0  0  0  0  0  0  0
   -0.0790    1.0572    1.3447 H   0  0  0  0  0  0  0  0  0  0  0  0
   -1.0895    2.7713    0.5520 C   0  0  0  0  0  0  0  0  0  0  0  0
   -2.1641    2.9468    0.6695 H   0  0  0  0  0  0  0  0  0  0  0  0
   -0.5610    3.3401    1.3230 H   0  0  0  0  0  0  0  0  0  0  0  0
   -0.7763    3.1437   -0.4290 H   0  0  0  0  0  0  0  0  0  0  0  0
  1  2  1  0  0  0  0
  2  3  1  0  0  0  0
  2  4  1  0  0  0  0
  2  5  1  0  0  0  0
  5  6  2  0  0  0  0
  5  7  1  0  0  0  0
  7  8  1  0  0  0  0
  7  9  1  0  0  0  0
  9 10  1  0  0  0  0
  9 11  1  0  0  0  0
  9 29  1  0  0  0  0
 11 12  1  0  0  0  0
 11 13  1  0  0  0  0
 11 14  1  0  0  0  0
 14 15  2  0  0  0  0
 14 28  1  0  0  0  0
 15 16  1  0  0  0  0
 15 17  1  0  0  0  0
 17 18  1  0  0  0  0
 17 19  1  0  0  0  0
 19 20  1  0  0  0  0
 19 28  2  0  0  0  0
 20 21  1  0  0  0  0
 20 22  2  0  0  0  0
 22 23  1  0  0  0  0
 22 24  1  0  0  0  0
 24 25  1  0  0  0  0
 24 26  2  0  0  0  0
 26 27  1  0  0  0  0
 26 28  1  0  0  0  0
 29 30  2  0  0  0  0
 29 31  1  0  0  0  0
 31 32  1  0  0  0  0
 31 33  1  0  0  0  0
 33 34  1  0  0  0  0
 33 35  1  0  0  0  0
 33 36  1  0  0  0  0
M  END
$$$$

  -OEChem-03222214083D

 36 37  0     1  0  0  0  0  0999 V2000
   -3.8726   -4.4593    1.4689 H   0  0  0  0  0  0  0  0  0  0  0  0
   -3.8082   -3.6809    0.7035 C   0  0  0  0  0  0  0  0  0  0  0  0
   -4.6176   -2.9640    0.8608 H   0  0  0  0  0  0  0  0  0  0  0  0
   -3.9254   -4.1431   -0.2797 H   0  0  0  0  0  0  0  0  0  0  0  0
   -2.4679   -2.9759    0.7875 C   0  0  0  0  0  0  0  0  0  0  0  0
   -1.6489   -3.3166    1.6278 O   0  0  0  0  0  0  0  0  0  0  0  0
   -2.1793   -1.9448   -0.0813 N   0  0  0  0  0  0  0  0  0  0  0  0
   -2.9273   -1.6169   -0.6904 H   0  0  0  0  0  0  0  0  0  0  0  0
   -0.9657   -1.1176   -0.0072 C   0  0  1  0  0  0  0  0  0  0  0  0
   -0.5385   -1.2197    0.9918 H   0  0  0  0  0  0  0  0  0  0  0  0
    0.0499   -1.5607   -1.0829 C   0  0  0  0  0  0  0  0  0  0  0  0
   -0.2379   -2.5379   -1.4835 H   0  0  0  0  0  0  0  0  0  0  0  0
    0.0226   -0.8544   -1.9191 H   0  0  0  0  0  0  0  0  0  0  0  0
    1.4686   -1.6804   -0.5710 C   0  0  0  0  0  0  0  0  0  0  0  0
    1.8907   -2.0074    0.6998 C   0  0  0  0  0  0  0  0  0  0  0  0
    1.2476   -2.2895    1.5324 H   0  0  0  0  0  0  0  0  0  0  0  0
    3.2816   -1.9536    0.7157 N   0  0  0  0  0  0  0  0  0  0  0  0
    3.8693   -2.1892    1.5127 H   0  0  0  0  0  0  0  0  0  0  0  0
    3.7643   -1.5943   -0.5309 C   0  0  0  0  0  0  0  0  0  0  0  0
    5.0641   -1.4167   -1.0054 C   0  0  0  0  0  0  0  0  0  0  0  0
    5.9124   -1.5661   -0.3464 H   0  0  0  0  0  0  0  0  0  0  0  0
    5.2578   -1.0451   -2.3432 C   0  0  0  0  0  0  0  0  0  0  0  0
    6.2639   -0.9037   -2.7268 H   0  0  0  0  0  0  0  0  0  0  0  0
    4.1529   -0.8580   -3.1875 C   0  0  0  0  0  0  0  0  0  0  0  0
    4.3051   -0.5717   -4.2237 H   0  0  0  0  0  0  0  0  0  0  0  0
    2.8510   -1.0421   -2.6995 C   0  0  0  0  0  0  0  0  0  0  0  0
    1.9963   -0.9012   -3.3529 H   0  0  0  0  0  0  0  0  0  0  0  0
    2.6651   -1.4127   -1.3628 C   0  0  0  0  0  0  0  0  0  0  0  0
   -1.2990    0.3771   -0.1744 C   0  0  0  0  0  0  0  0  0  0  0  0
   -2.1619    0.7188   -0.9762 O   0  0  0  0  0  0  0  0  0  0  0  0
   -0.7332    1.3229    0.6603 N   0  0  0  0  0  0  0  0  0  0  0  0
    0.0209    1.0157    1.2687 H   0  0  0  0  0  0  0  0  0  0  0  0
   -1.0210    2.7484    0.5623 C   0  0  0  0  0  0  0  0  0  0  0  0
   -2.0878    2.9363    0.7231 H   0  0  0  0  0  0  0  0  0  0  0  0
   -0.4562    3.3003    1.3197 H   0  0  0  0  0  0  0  0  0  0  0  0
   -0.7406    3.1294   -0.4253 H   0  0  0  0  0  0  0  0  0  0  0  0
  1  2  1  0  0  0  0
  2  3  1  0  0  0  0
  2  4  1  0  0  0  0
  2  5  1  0  0  0  0
  5  6  2  0  0  0  0
  5  7  1  0  0  0  0
  7  8  1  0  0  0  0
  7  9  1  0  0  0  0
  9 10  1  0  0  0  0
  9 11  1  0  0  0  0
  9 29  1  0  0  0  0
 11 12  1  0  0  0  0
 11 13  1  0  0  0  0
 11 14  1  0  0  0  0
 14 15  2  0  0  0  0
 14 28  1  0  0  0  0
 15 16  1  0  0  0  0
 15 17  1  0  0  0  0
 17 18  1  0  0  0  0
 17 19  1  0  0  0  0
 19 20  1  0  0  0  0
 19 28  2  0  0  0  0
 20 21  1  0  0  0  0
 20 22  2  0  0  0  0
 22 23  1  0  0  0  0
 22 24  1  0  0  0  0
 24 25  1  0  0  0  0
 24 26  2  0  0  0  0
 26 27  1  0  0  0  0
 26 28  1  0  0  0  0
 29 30  2  0  0  0  0
 29 31  1  0  0  0  0
 31 32  1  0  0  0  0
 31 33  1  0  0  0  0
 33 34  1  0  0  0  0
 33 35  1  0  0  0  0
 33 36  1  0  0  0  0
M  END
$$$$

  -OEChem-03222214083D

 36 37  0     1  0  0  0  0  0999 V2000
   -3.8187   -4.4362    1.5471 H   0  0  0  0  0  0  0  0  0  0  0  0
   -3.7805   -3.6602    0.7776 C   0  0  0  0  0  0  0  0  0  0  0  0
   -4.5599   -2.9223    0.9828 H   0  0  0  0  0  0  0  0  0  0  0  0
   -3.9694   -4.1195   -0.1957 H   0  0  0  0  0  0  0  0  0  0  0  0
   -2.4201   -2.9898    0.7787 C   0  0  0  0  0  0  0  0  0  0  0  0
   -1.5517   -3.3671    1.5513 O   0  0  0  0  0  0  0  0  0  0  0  0
   -2.1677   -1.9508   -0.0917 N   0  0  0  0  0  0  0  0  0  0  0  0
   -2.9485   -1.5994   -0.6440 H   0  0  0  0  0  0  0  0  0  0  0  0
   -0.9505   -1.1263   -0.0595 C   0  0  1  0  0  0  0  0  0  0  0  0
   -0.4819   -1.2387    0.9212 H   0  0  0  0  0  0  0  0  0  0  0  0
    0.0244   -1.5690   -1.1695 C   0  0  0  0  0  0  0  0  0  0  0  0
   -0.2690   -2.5513   -1.5536 H   0  0  0  0  0  0  0  0  0  0  0  0
   -0.0262   -0.8696   -2.0100 H   0  0  0  0  0  0  0  0  0  0  0  0
    1.4442   -1.6789   -0.6682 C   0  0  0  0  0  0  0  0  0  0  0  0
    1.8531   -2.2707    0.5059 C   0  0  0  0  0  0  0  0  0  0  0  0
    1.2020   -2.7815    1.2158 H   0  0  0  0  0  0  0  0  0  0  0  0
    3.2324   -2.1094    0.6043 N   0  0  0  0  0  0  0  0  0  0  0  0
    3.8132   -2.4723    1.3576 H   0  0  0  0  0  0  0  0  0  0  0  0
    3.7158   -1.4162   -0.4931 C   0  0  0  0  0  0  0  0  0  0  0  0
    5.0062   -1.0178   -0.8416 C   0  0  0  0  0  0  0  0  0  0  0  0
    5.8443   -1.2538   -0.1954 H   0  0  0  0  0  0  0  0  0  0  0  0
    5.2034   -0.3108   -2.0360 C   0  0  0  0  0  0  0  0  0  0  0  0
    6.2026    0.0054   -2.3204 H   0  0  0  0  0  0  0  0  0  0  0  0
    4.1112   -0.0121   -2.8652 C   0  0  0  0  0  0  0  0  0  0  0  0
    4.2667    0.5349   -3.7903 H   0  0  0  0  0  0  0  0  0  0  0  0
    2.8184   -0.4201   -2.5056 C   0  0  0  0  0  0  0  0  0  0  0  0
    1.9736   -0.1924   -3.1474 H   0  0  0  0  0  0  0  0  0  0  0  0
    2.6297   -1.1259   -1.3121 C   0  0  0  0  0  0  0  0  0  0  0  0
   -1.2817    0.3710   -0.1976 C   0  0  0  0  0  0  0  0  0  0  0  0
   -2.1774    0.7253   -0.9569 O   0  0  0  0  0  0  0  0  0  0  0  0
   -0.6761    1.3032    0.6239 N   0  0  0  0  0  0  0  0  0  0  0  0
    0.0949    0.9831    1.2044 H   0  0  0  0  0  0  0  0  0  0  0  0
   -0.9804    2.7276    0.5786 C   0  0  0  0  0  0  0  0  0  0  0  0
   -2.0393    2.8999    0.7984 H   0  0  0  0  0  0  0  0  0  0  0  0
   -0.3830    3.2650    1.3213 H   0  0  0  0  0  0  0  0  0  0  0  0
   -0.7537    3.1376   -0.4111 H   0  0  0  0  0  0  0  0  0  0  0  0
  1  2  1  0  0  0  0
  2  3  1  0  0  0  0
  2  4  1  0  0  0  0
  2  5  1  0  0  0  0
  5  6  2  0  0  0  0
  5  7  1  0  0  0  0
  7  8  1  0  0  0  0
  7  9  1  0  0  0  0
  9 10  1  0  0  0  0
  9 11  1  0  0  0  0
  9 29  1  0  0  0  0
 11 12  1  0  0  0  0
 11 13  1  0  0  0  0
 11 14  1  0  0  0  0
 14 15  2  0  0  0  0
 14 28  1  0  0  0  0
 15 16  1  0  0  0  0
 15 17  1  0  0  0  0
 17 18  1  0  0  0  0
 17 19  1  0  0  0  0
 19 20  1  0  0  0  0
 19 28  2  0  0  0  0
 20 21  1  0  0  0  0
 20 22  2  0  0  0  0
 22 23  1  0  0  0  0
 22 24  1  0  0  0  0
 24 25  1  0  0  0  0
 24 26  2  0  0  0  0
 26 27  1  0  0  0  0
 26 28  1  0  0  0  0
 29 30  2  0  0  0  0
 29 31  1  0  0  0  0
 31 32  1  0  0  0  0
 31 33  1  0  0  0  0
 33 34  1  0  0  0  0
 33 35  1  0  0  0  0
 33 36  1  0  0  0  0
M  END
$$$$

  -OEChem-03222214083D

 36 37  0     1  0  0  0  0  0999 V2000
   -3.7506   -4.4640    1.5750 H   0  0  0  0  0  0  0  0  0  0  0  0
   -3.7480   -3.6629    0.8305 C   0  0  0  0  0  0  0  0  0  0  0  0
   -4.5048   -2.9242    1.1057 H   0  0  0  0  0  0  0  0  0  0  0  0
   -3.9996   -4.0869   -0.1446 H   0  0  0  0  0  0  0  0  0  0  0  0
   -2.3811   -3.0082    0.7724 C   0  0  0  0  0  0  0  0  0  0  0  0
   -1.4758   -3.4168    1.4840 O   0  0  0  0  0  0  0  0  0  0  0  0
   -2.1603   -1.9604   -0.0961 N   0  0  0  0  0  0  0  0  0  0  0  0
   -2.9653   -1.5922   -0.6005 H   0  0  0  0  0  0  0  0  0  0  0  0
   -0.9406   -1.1388   -0.1056 C   0  0  1  0  0  0  0  0  0  0  0  0
   -0.4364   -1.2666    0.8572 H   0  0  0  0  0  0  0  0  0  0  0  0
   -0.0005   -1.5813   -1.2406 C   0  0  0  0  0  0  0  0  0  0  0  0
   -0.2966   -2.5708   -1.6036 H   0  0  0  0  0  0  0  0  0  0  0  0
   -0.0680   -0.8946   -2.0903 H   0  0  0  0  0  0  0  0  0  0  0  0
    1.4172   -1.6757   -0.7416 C   0  0  0  0  0  0  0  0  0  0  0  0
    1.8545   -2.4963    0.2717 C   0  0  0  0  0  0  0  0  0  0  0  0
    1.2344   -3.2082    0.8176 H   0  0  0  0  0  0  0  0  0  0  0  0
    3.2090   -2.2365    0.4666 N   0  0  0  0  0  0  0  0  0  0  0  0
    3.8039   -2.7076    1.1452 H   0  0  0  0  0  0  0  0  0  0  0  0
    3.6412   -1.2458   -0.4015 C   0  0  0  0  0  0  0  0  0  0  0  0
    4.8873   -0.6442   -0.5789 C   0  0  0  0  0  0  0  0  0  0  0  0
    5.7337   -0.9511    0.0255 H   0  0  0  0  0  0  0  0  0  0  0  0
    5.0297    0.3609   -1.5463 C   0  0  0  0  0  0  0  0  0  0  0  0
    5.9940    0.8376   -1.6957 H   0  0  0  0  0  0  0  0  0  0  0  0
    3.9277    0.7519   -2.3224 C   0  0  0  0  0  0  0  0  0  0  0  0
    4.0407    1.5307   -3.0707 H   0  0  0  0  0  0  0  0  0  0  0  0
    2.6803    0.1387   -2.1374 C   0  0  0  0  0  0  0  0  0  0  0  0
    1.8269    0.4386   -2.7369 H   0  0  0  0  0  0  0  0  0  0  0  0
    2.5480   -0.8652   -1.1723 C   0  0  0  0  0  0  0  0  0  0  0  0
   -1.2552    0.3634   -0.2146 C   0  0  0  0  0  0  0  0  0  0  0  0
   -2.1720    0.7388   -0.9374 O   0  0  0  0  0  0  0  0  0  0  0  0
   -0.6031    1.2773    0.5916 N   0  0  0  0  0  0  0  0  0  0  0  0
    0.1939    0.9392    1.1256 H   0  0  0  0  0  0  0  0  0  0  0  0
   -0.8600    2.7108    0.5428 C   0  0  0  0  0  0  0  0  0  0  0  0
   -1.9033    2.9222    0.7996 H   0  0  0  0  0  0  0  0  0  0  0  0
   -0.2166    3.2339    1.2567 H   0  0  0  0  0  0  0  0  0  0  0  0
   -0.6565    3.1026   -0.4592 H   0  0  0  0  0  0  0  0  0  0  0  0
  1  2  1  0  0  0  0
  2  3  1  0  0  0  0
  2  4  1  0  0  0  0
  2  5  1  0  0  0  0
  5  6  2  0  0  0  0
  5  7  1  0  0  0  0
  7  8  1  0  0  0  0
  7  9  1  0  0  0  0
  9 10  1  0  0  0  0
  9 11  1  0  0  0  0
  9 29  1  0  0  0  0
 11 12  1  0  0  0  0
 11 13  1  0  0  0  0
 11 14  1  0  0  0  0
 14 15  2  0  0  0  0
 14 28  1  0  0  0  0
 15 16  1  0  0  0  0
 15 17  1  0  0  0  0
 17 18  1  0  0  0  0
 17 19  1  0  0  0  0
 19 20  1  0  0  0  0
 19 28  2  0  0  0  0
 20 21  1  0  0  0  0
 20 22  2  0  0  0  0
 22 23  1  0  0  0  0
 22 24  1  0  0  0  0
 24 25  1  0  0  0  0
 24 26  2  0  0  0  0
 26 27  1  0  0  0  0
 26 28  1  0  0  0  0
 29 30  2  0  0  0  0
 29 31  1  0  0  0  0
 31 32  1  0  0  0  0
 31 33  1  0  0  0  0
 33 34  1  0  0  0  0
 33 35  1  0  0  0  0
 33 36  1  0  0  0  0
M  END
$$$$

  -OEChem-03222214083D

 36 37  0     1  0  0  0  0  0999 V2000
   -3.7034   -4.4605    1.6043 H   0  0  0  0  0  0  0  0  0  0  0  0
   -3.7198   -3.6498    0.8704 C   0  0  0  0  0  0  0  0  0  0  0  0
   -4.4506   -2.9022    1.1881 H   0  0  0  0  0  0  0  0  0  0  0  0
   -4.0222   -4.0566   -0.0977 H   0  0  0  0  0  0  0  0  0  0  0  0
   -2.3458   -3.0164    0.7602 C   0  0  0  0  0  0  0  0  0  0  0  0
   -1.4170   -3.4523    1.4233 O   0  0  0  0  0  0  0  0  0  0  0  0
   -2.1463   -1.9619   -0.1057 N   0  0  0  0  0  0  0  0  0  0  0  0
   -2.9679   -1.5796   -0.5708 H   0  0  0  0  0  0  0  0  0  0  0  0
   -0.9244   -1.1435   -0.1482 C   0  0  1  0  0  0  0  0  0  0  0  0
   -0.3966   -1.2850    0.8010 H   0  0  0  0  0  0  0  0  0  0  0  0
   -0.0074   -1.5864   -1.2986 C   0  0  0  0  0  0  0  0  0  0  0  0
   -0.3061   -2.5809   -1.6454 H   0  0  0  0  0  0  0  0  0  0  0  0
   -0.0840   -0.9091   -2.1554 H   0  0  0  0  0  0  0  0  0  0  0  0
    1.4085   -1.6672   -0.7991 C   0  0  0  0  0  0  0  0  0  0  0  0
    1.9177   -2.6608    0.0012 C   0  0  0  0  0  0  0  0  0  0  0  0
    1.3670   -3.5353    0.3470 H   0  0  0  0  0  0  0  0  0  0  0  0
    3.2346   -2.3199    0.3023 N   0  0  0  0  0  0  0  0  0  0  0  0
    3.8642   -2.8724    0.8808 H   0  0  0  0  0  0  0  0  0  0  0  0
    3.5647   -1.1043   -0.2765 C   0  0  0  0  0  0  0  0  0  0  0  0
    4.7350   -0.3458   -0.2453 C   0  0  0  0  0  0  0  0  0  0  0  0
    5.6018   -0.7020    0.3002 H   0  0  0  0  0  0  0  0  0  0  0  0
    4.7728    0.8809   -0.9236 C   0  0  0  0  0  0  0  0  0  0  0  0
    5.6775    1.4814   -0.9069 H   0  0  0  0  0  0  0  0  0  0  0  0
    3.6431    1.3340   -1.6227 C   0  0  0  0  0  0  0  0  0  0  0  0
    3.6751    2.2844   -2.1468 H   0  0  0  0  0  0  0  0  0  0  0  0
    2.4724    0.5626   -1.6496 C   0  0  0  0  0  0  0  0  0  0  0  0
    1.5964    0.9095   -2.1887 H   0  0  0  0  0  0  0  0  0  0  0  0
    2.4457   -0.6610   -0.9726 C   0  0  0  0  0  0  0  0  0  0  0  0
   -1.2198    0.3632   -0.2362 C   0  0  0  0  0  0  0  0  0  0  0  0
   -2.1479    0.7589   -0.9330 O   0  0  0  0  0  0  0  0  0  0  0  0
   -0.5277    1.2590    0.5567 N   0  0  0  0  0  0  0  0  0  0  0  0
    0.2856    0.9021    1.0536 H   0  0  0  0  0  0  0  0  0  0  0  0
   -0.7479    2.6985    0.5144 C   0  0  0  0  0  0  0  0  0  0  0  0
   -1.7745    2.9376    0.8107 H   0  0  0  0  0  0  0  0  0  0  0  0
   -0.0636    3.2048    1.2019 H   0  0  0  0  0  0  0  0  0  0  0  0
   -0.5724    3.0841   -0.4953 H   0  0  0  0  0  0  0  0  0  0  0  0
  1  2  1  0  0  0  0
  2  3  1  0  0  0  0
  2  4  1  0  0  0  0
  2  5  1  0  0  0  0
  5  6  2  0  0  0  0
  5  7  1  0  0  0  0
  7  8  1  0  0  0  0
  7  9  1  0  0  0  0
  9 10  1  0  0  0  0
  9 11  1  0  0  0  0
  9 29  1  0  0  0  0
 11 12  1  0  0  0  0
 11 13  1  0  0  0  0
 11 14  1  0  0  0  0
 14 15  2  0  0  0  0
 14 28  1  0  0  0  0
 15 16  1  0  0  0  0
 15 17  1  0  0  0  0
 17 18  1  0  0  0  0
 17 19  1  0  0  0  0
 19 20  1  0  0  0  0
 19 28  2  0  0  0  0
 20 21  1  0  0  0  0
 20 22  2  0  0  0  0
 22 23  1  0  0  0  0
 22 24  1  0  0  0  0
 24 25  1  0  0  0  0
 24 26  2  0  0  0  0
 26 27  1  0  0  0  0
 26 28  1  0  0  0  0
 29 30  2  0  0  0  0
 29 31  1  0  0  0  0
 31 32  1  0  0  0  0
 31 33  1  0  0  0  0
 33 34  1  0  0  0  0
 33 35  1  0  0  0  0
 33 36  1  0  0  0  0
M  END
$$$$

  -OEChem-03222214083D

 36 37  0     1  0  0  0  0  0999 V2000
   -3.7143   -4.4498    1.5646 H   0  0  0  0  0  0  0  0  0  0  0  0
   -3.7111   -3.6577    0.8107 C   0  0  0  0  0  0  0  0  0  0  0  0
   -4.4601   -2.9102    1.0831 H   0  0  0  0  0  0  0  0  0  0  0  0
   -3.9738   -4.0905   -0.1576 H   0  0  0  0  0  0  0  0  0  0  0  0
   -2.3397   -3.0136    0.7350 C   0  0  0  0  0  0  0  0  0  0  0  0
   -1.4208   -3.4523    1.4089 O   0  0  0  0  0  0  0  0  0  0  0  0
   -2.1348   -1.9446   -0.1111 N   0  0  0  0  0  0  0  0  0  0  0  0
   -2.9528   -1.5647   -0.5847 H   0  0  0  0  0  0  0  0  0  0  0  0
   -0.9211   -1.1128   -0.1279 C   0  0  1  0  0  0  0  0  0  0  0  0
   -0.4021   -1.2637    0.8252 H   0  0  0  0  0  0  0  0  0  0  0  0
    0.0151   -1.5456   -1.2677 C   0  0  0  0  0  0  0  0  0  0  0  0
   -0.2732   -2.5402   -1.6230 H   0  0  0  0  0  0  0  0  0  0  0  0
   -0.0534   -0.8637   -2.1216 H   0  0  0  0  0  0  0  0  0  0  0  0
    1.4258   -1.6168   -0.7519 C   0  0  0  0  0  0  0  0  0  0  0  0
    2.0294   -2.7185   -0.1977 C   0  0  0  0  0  0  0  0  0  0  0  0
    1.5607   -3.6918   -0.0608 H   0  0  0  0  0  0  0  0  0  0  0  0
    3.3177   -2.3430    0.1788 N   0  0  0  0  0  0  0  0  0  0  0  0
    3.9971   -2.9529    0.6291 H   0  0  0  0  0  0  0  0  0  0  0  0
    3.5442   -1.0104   -0.1295 C   0  0  0  0  0  0  0  0  0  0  0  0
    4.6552   -0.1866    0.0532 C   0  0  0  0  0  0  0  0  0  0  0  0
    5.5551   -0.5779    0.5148 H   0  0  0  0  0  0  0  0  0  0  0  0
    4.5931    1.1492   -0.3693 C   0  0  0  0  0  0  0  0  0  0  0  0
    5.4519    1.8003   -0.2353 H   0  0  0  0  0  0  0  0  0  0  0  0
    3.4251    1.6444   -0.9696 C   0  0  0  0  0  0  0  0  0  0  0  0
    3.3817    2.6772   -1.3016 H   0  0  0  0  0  0  0  0  0  0  0  0
    2.3142    0.8083   -1.1482 C   0  0  0  0  0  0  0  0  0  0  0  0
    1.4111    1.1861   -1.6173 H   0  0  0  0  0  0  0  0  0  0  0  0
    2.3840   -0.5212   -0.7188 C   0  0  0  0  0  0  0  0  0  0  0  0
   -1.2368    0.3905   -0.1990 C   0  0  0  0  0  0  0  0  0  0  0  0
   -2.1606    0.7846   -0.9023 O   0  0  0  0  0  0  0  0  0  0  0  0
   -0.5666    1.2846    0.6147 N   0  0  0  0  0  0  0  0  0  0  0  0
    0.2420    0.9310    1.1224 H   0  0  0  0  0  0  0  0  0  0  0  0
   -0.8157    2.7199    0.6020 C   0  0  0  0  0  0  0  0  0  0  0  0
   -1.8568    2.9300    0.8684 H   0  0  0  0  0  0  0  0  0  0  0  0
   -0.1668    3.2218    1.3260 H   0  0  0  0  0  0  0  0  0  0  0  0
   -0.6137    3.1351   -0.3908 H   0  0  0  0  0  0  0  0  0  0  0  0
  1  2  1  0  0  0  0
  2  3  1  0  0  0  0
  2  4  1  0  0  0  0
  2  5  1  0  0  0  0
  5  6  2  0  0  0  0
  5  7  1  0  0  0  0
  7  8  1  0  0  0  0
  7  9  1  0  0  0  0
  9 10  1  0  0  0  0
  9 11  1  0  0  0  0
  9 29  1  0  0  0  0
 11 12  1  0  0  0  0
 11 13  1  0  0  0  0
 11 14  1  0  0  0  0
 14 15  2  0  0  0  0
 14 28  1  0  0  0  0
 15 16  1  0  0  0  0
 15 17  1  0  0  0  0
 17 18  1  0  0  0  0
 17 19  1  0  0  0  0
 19 20  1  0  0  0  0
 19 28  2  0  0  0  0
 20 21  1  0  0  0  0
 20 22  2  0  0  0  0
 22 23  1  0  0  0  0
 22 24  1  0  0  0  0
 24 25  1  0  0  0  0
 24 26  2  0  0  0  0
 26 27  1  0  0  0  0
 26 28  1  0  0  0  0
 29 30  2  0  0  0  0
 29 31  1  0  0  0  0
 31 32  1  0  0  0  0
 31 33  1  0  0  0  0
 33 34  1  0  0  0  0
 33 35  1  0  0  0  0
 33 36  1  0  0  0  0
M  END
$$$$

  -OEChem-03222214083D

 36 37  0     1  0  0  0  0  0999 V2000
   -3.7358   -4.4906    1.4570 H   0  0  0  0  0  0  0  0  0  0  0  0
   -3.7078   -3.6947    0.7075 C   0  0  0  0  0  0  0  0  0  0  0  0
   -4.4961   -2.9723    0.9327 H   0  0  0  0  0  0  0  0  0  0  0  0
   -3.8925   -4.1309   -0.2771 H   0  0  0  0  0  0  0  0  0  0  0  0
   -2.3549   -3.0084    0.7231 C   0  0  0  0  0  0  0  0  0  0  0  0
   -1.4670   -3.4274    1.4479 O   0  0  0  0  0  0  0  0  0  0  0  0
   -2.1313   -1.9248   -0.0993 N   0  0  0  0  0  0  0  0  0  0  0  0
   -2.9294   -1.5633   -0.6188 H   0  0  0  0  0  0  0  0  0  0  0  0
   -0.9337   -1.0701   -0.0561 C   0  0  1  0  0  0  0  0  0  0  0  0
   -0.4370   -1.2207    0.9090 H   0  0  0  0  0  0  0  0  0  0  0  0
    0.0346   -1.4912   -1.1782 C   0  0  0  0  0  0  0  0  0  0  0  0
   -0.2467   -2.4789   -1.5577 H   0  0  0  0  0  0  0  0  0  0  0  0
   -0.0181   -0.7940   -2.0208 H   0  0  0  0  0  0  0  0  0  0  0  0
    1.4432   -1.5657   -0.6520 C   0  0  0  0  0  0  0  0  0  0  0  0
    2.1307   -2.7214   -0.3734 C   0  0  0  0  0  0  0  0  0  0  0  0
    1.7292   -3.7296   -0.4569 H   0  0  0  0  0  0  0  0  0  0  0  0
    3.4023   -2.3587    0.0647 N   0  0  0  0  0  0  0  0  0  0  0  0
    4.1264   -3.0082    0.3645 H   0  0  0  0  0  0  0  0  0  0  0  0
    3.5528   -0.9819    0.0255 C   0  0  0  0  0  0  0  0  0  0  0  0
    4.6347   -0.1584    0.3382 C   0  0  0  0  0  0  0  0  0  0  0  0
    5.5606   -0.5882    0.7042 H   0  0  0  0  0  0  0  0  0  0  0  0
    4.5118    1.2272    0.1634 C   0  0  0  0  0  0  0  0  0  0  0  0
    5.3471    1.8800    0.3994 H   0  0  0  0  0  0  0  0  0  0  0  0
    3.3163    1.7698   -0.3316 C   0  0  0  0  0  0  0  0  0  0  0  0
    3.2295    2.8414   -0.4837 H   0  0  0  0  0  0  0  0  0  0  0  0
    2.2362    0.9319   -0.6416 C   0  0  0  0  0  0  0  0  0  0  0  0
    1.3214    1.3503   -1.0476 H   0  0  0  0  0  0  0  0  0  0  0  0
    2.3559   -0.4475   -0.4392 C   0  0  0  0  0  0  0  0  0  0  0  0
   -1.3026    0.4217   -0.1242 C   0  0  0  0  0  0  0  0  0  0  0  0
   -2.1990    0.7923   -0.8742 O   0  0  0  0  0  0  0  0  0  0  0  0
   -0.7031    1.3329    0.7252 N   0  0  0  0  0  0  0  0  0  0  0  0
    0.0694    0.9964    1.2966 H   0  0  0  0  0  0  0  0  0  0  0  0
   -1.0151    2.7563    0.7277 C   0  0  0  0  0  0  0  0  0  0  0  0
   -2.0802    2.9158    0.9263 H   0  0  0  0  0  0  0  0  0  0  0  0
   -0.4399    3.2668    1.5061 H   0  0  0  0  0  0  0  0  0  0  0  0
   -0.7652    3.2051   -0.2392 H   0  0  0  0  0  0  0  0  0  0  0  0
  1  2  1  0  0  0  0
  2  3  1  0  0  0  0
  2  4  1  0  0  0  0
  2  5  1  0  0  0  0
  5  6  2  0  0  0  0
  5  7  1  0  0  0  0
  7  8  1  0  0  0  0
  7  9  1  0  0  0  0
  9 10  1  0  0  0  0
  9 11  1  0  0  0  0
  9 29  1  0  0  0  0
 11 12  1  0  0  0  0
 11 13  1  0  0  0  0
 11 14  1  0  0  0  0
 14 15  2  0  0  0  0
 14 28  1  0  0  0  0
 15 16  1  0  0  0  0
 15 17  1  0  0  0  0
 17 18  1  0  0  0  0
 17 19  1  0  0  0  0
 19 20  1  0  0  0  0
 19 28  2  0  0  0  0
 20 21  1  0  0  0  0
 20 22  2  0  0  0  0
 22 23  1  0  0  0  0
 22 24  1  0  0  0  0
 24 25  1  0  0  0  0
 24 26  2  0  0  0  0
 26 27  1  0  0  0  0
 26 28  1  0  0  0  0
 29 30  2  0  0  0  0
 29 31  1  0  0  0  0
 31 32  1  0  0  0  0
 31 33  1  0  0  0  0
 33 34  1  0  0  0  0
 33 35  1  0  0  0  0
 33 36  1  0  0  0  0
M  END
$$$$

  -OEChem-03222214083D

 36 37  0     1  0  0  0  0  0999 V2000
   -3.7596   -4.5361    1.3300 H   0  0  0  0  0  0  0  0  0  0  0  0
   -3.7130   -3.7201    0.6034 C   0  0  0  0  0  0  0  0  0  0  0  0
   -4.5298   -3.0228    0.8052 H   0  0  0  0  0  0  0  0  0  0  0  0
   -3.8351   -4.1337   -0.4004 H   0  0  0  0  0  0  0  0  0  0  0  0
   -2.3806   -3.0024    0.7086 C   0  0  0  0  0  0  0  0  0  0  0  0
   -1.5394   -3.3929    1.5012 O   0  0  0  0  0  0  0  0  0  0  0  0
   -2.1287   -1.9116   -0.0957 N   0  0  0  0  0  0  0  0  0  0  0  0
   -2.8973   -1.5686   -0.6699 H   0  0  0  0  0  0  0  0  0  0  0  0
   -0.9494   -1.0368    0.0176 C   0  0  1  0  0  0  0  0  0  0  0  0
   -0.4846   -1.1802    0.9994 H   0  0  0  0  0  0  0  0  0  0  0  0
    0.0573   -1.4561   -1.0776 C   0  0  0  0  0  0  0  0  0  0  0  0
   -0.2205   -2.4340   -1.4847 H   0  0  0  0  0  0  0  0  0  0  0  0
    0.0262   -0.7431   -1.9078 H   0  0  0  0  0  0  0  0  0  0  0  0
    1.4663   -1.5439   -0.5441 C   0  0  0  0  0  0  0  0  0  0  0  0
    2.2231   -2.6912   -0.5520 C   0  0  0  0  0  0  0  0  0  0  0  0
    1.8738   -3.6732   -0.8642 H   0  0  0  0  0  0  0  0  0  0  0  0
    3.4817   -2.3779   -0.0483 N   0  0  0  0  0  0  0  0  0  0  0  0
    4.2403   -3.0414    0.0932 H   0  0  0  0  0  0  0  0  0  0  0  0
    3.5736   -1.0198    0.1986 C   0  0  0  0  0  0  0  0  0  0  0  0
    4.6371   -0.2410    0.6540 C   0  0  0  0  0  0  0  0  0  0  0  0
    5.5790   -0.7059    0.9229 H   0  0  0  0  0  0  0  0  0  0  0  0
    4.4766    1.1479    0.7432 C   0  0  0  0  0  0  0  0  0  0  0  0
    5.2963    1.7683    1.0935 H   0  0  0  0  0  0  0  0  0  0  0  0
    3.2667    1.7391    0.3526 C   0  0  0  0  0  0  0  0  0  0  0  0
    3.1547    2.8186    0.3898 H   0  0  0  0  0  0  0  0  0  0  0  0
    2.2071    0.9425   -0.1031 C   0  0  0  0  0  0  0  0  0  0  0  0
    1.2964    1.4117   -0.4531 H   0  0  0  0  0  0  0  0  0  0  0  0
    2.3499   -0.4495   -0.1394 C   0  0  0  0  0  0  0  0  0  0  0  0
   -1.3817    0.4380   -0.0699 C   0  0  0  0  0  0  0  0  0  0  0  0
   -2.2403    0.7731   -0.8790 O   0  0  0  0  0  0  0  0  0  0  0  0
   -0.8767    1.3768    0.8103 N   0  0  0  0  0  0  0  0  0  0  0  0
   -0.1682    1.0645    1.4710 H   0  0  0  0  0  0  0  0  0  0  0  0
   -1.2815    2.7766    0.8145 C   0  0  0  0  0  0  0  0  0  0  0  0
   -2.3611    2.8631    0.9767 H   0  0  0  0  0  0  0  0  0  0  0  0
   -0.7682    3.3158    1.6165 H   0  0  0  0  0  0  0  0  0  0  0  0
   -1.0284    3.2511   -0.1393 H   0  0  0  0  0  0  0  0  0  0  0  0
  1  2  1  0  0  0  0
  2  3  1  0  0  0  0
  2  4  1  0  0  0  0
  2  5  1  0  0  0  0
  5  6  2  0  0  0  0
  5  7  1  0  0  0  0
  7  8  1  0  0  0  0
  7  9  1  0  0  0  0
  9 10  1  0  0  0  0
  9 11  1  0  0  0  0
  9 29  1  0  0  0  0
 11 12  1  0  0  0  0
 11 13  1  0  0  0  0
 11 14  1  0  0  0  0
 14 15  2  0  0  0  0
 14 28  1  0  0  0  0
 15 16  1  0  0  0  0
 15 17  1  0  0  0  0
 17 18  1  0  0  0  0
 17 19  1  0  0  0  0
 19 20  1  0  0  0  0
 19 28  2  0  0  0  0
 20 21  1  0  0  0  0
 20 22  2  0  0  0  0
 22 23  1  0  0  0  0
 22 24  1  0  0  0  0
 24 25  1  0  0  0  0
 24 26  2  0  0  0  0
 26 27  1  0  0  0  0
 26 28  1  0  0  0  0
 29 30  2  0  0  0  0
 29 31  1  0  0  0  0
 31 32  1  0  0  0  0
 31 33  1  0  0  0  0
 33 34  1  0  0  0  0
 33 35  1  0  0  0  0
 33 36  1  0  0  0  0
M  END
$$$$

  -OEChem-03222214083D

 36 37  0     1  0  0  0  0  0999 V2000
   -3.7629   -4.5648    1.2583 H   0  0  0  0  0  0  0  0  0  0  0  0
   -3.6977   -3.7446    0.5380 C   0  0  0  0  0  0  0  0  0  0  0  0
   -4.5541   -3.0812    0.6808 H   0  0  0  0  0  0  0  0  0  0  0  0
   -3.7309   -4.1597   -0.4721 H   0  0  0  0  0  0  0  0  0  0  0  0
   -2.4064   -2.9745    0.7387 C   0  0  0  0  0  0  0  0  0  0  0  0
   -1.6305   -3.3052    1.6197 O   0  0  0  0  0  0  0  0  0  0  0  0
   -2.1208   -1.8991   -0.0746 N   0  0  0  0  0  0  0  0  0  0  0  0
   -2.8462   -1.5968   -0.7233 H   0  0  0  0  0  0  0  0  0  0  0  0
   -0.9671   -0.9986    0.0932 C   0  0  1  0  0  0  0  0  0  0  0  0
   -0.5326   -1.1057    1.0929 H   0  0  0  0  0  0  0  0  0  0  0  0
    0.0738   -1.4184   -0.9752 C   0  0  0  0  0  0  0  0  0  0  0  0
   -0.2042   -2.3877   -1.4021 H   0  0  0  0  0  0  0  0  0  0  0  0
    0.0506   -0.6954   -1.7972 H   0  0  0  0  0  0  0  0  0  0  0  0
    1.4987   -1.5193   -0.4708 C   0  0  0  0  0  0  0  0  0  0  0  0
    2.2995   -2.5914   -0.7916 C   0  0  0  0  0  0  0  0  0  0  0  0
    1.9781   -3.4697   -1.3471 H   0  0  0  0  0  0  0  0  0  0  0  0
    3.5597   -2.3767   -0.2469 N   0  0  0  0  0  0  0  0  0  0  0  0
    4.3444   -3.0223   -0.3023 H   0  0  0  0  0  0  0  0  0  0  0  0
    3.6128   -1.1298    0.3445 C   0  0  0  0  0  0  0  0  0  0  0  0
    4.6739   -0.4697    0.9634 C   0  0  0  0  0  0  0  0  0  0  0  0
    5.6324   -0.9631    1.0794 H   0  0  0  0  0  0  0  0  0  0  0  0
    4.4891    0.8426    1.4137 C   0  0  0  0  0  0  0  0  0  0  0  0
    5.3057    1.3725    1.8953 H   0  0  0  0  0  0  0  0  0  0  0  0
    3.2583    1.4810    1.2124 C   0  0  0  0  0  0  0  0  0  0  0  0
    3.1266    2.5116    1.5275 H   0  0  0  0  0  0  0  0  0  0  0  0
    2.2037    0.8004    0.5877 C   0  0  0  0  0  0  0  0  0  0  0  0
    1.2854    1.3263    0.3839 H   0  0  0  0  0  0  0  0  0  0  0  0
    2.3635   -0.5313    0.1887 C   0  0  0  0  0  0  0  0  0  0  0  0
   -1.4787    0.4478   -0.0703 C   0  0  0  0  0  0  0  0  0  0  0  0
   -2.2792    0.7095   -0.9628 O   0  0  0  0  0  0  0  0  0  0  0  0
   -1.0978    1.4501    0.8017 N   0  0  0  0  0  0  0  0  0  0  0  0
   -0.5003    1.1862    1.5814 H   0  0  0  0  0  0  0  0  0  0  0  0
   -1.5961    2.8177    0.7242 C   0  0  0  0  0  0  0  0  0  0  0  0
   -2.6868    2.8353    0.8201 H   0  0  0  0  0  0  0  0  0  0  0  0
   -1.1686    3.4213    1.5305 H   0  0  0  0  0  0  0  0  0  0  0  0
   -1.3185    3.2727   -0.2324 H   0  0  0  0  0  0  0  0  0  0  0  0
  1  2  1  0  0  0  0
  2  3  1  0  0  0  0
  2  4  1  0  0  0  0
  2  5  1  0  0  0  0
  5  6  2  0  0  0  0
  5  7  1  0  0  0  0
  7  8  1  0  0  0  0
  7  9  1  0  0  0  0
  9 10  1  0  0  0  0
  9 11  1  0  0  0  0
  9 29  1  0  0  0  0
 11 12  1  0  0  0  0
 11 13  1  0  0  0  0
 11 14  1  0  0  0  0
 14 15  2  0  0  0  0
 14 28  1  0  0  0  0
 15 16  1  0  0  0  0
 15 17  1  0  0  0  0
 17 18  1  0  0  0  0
 17 19  1  0  0  0  0
 19 20  1  0  0  0  0
 19 28  2  0  0  0  0
 20 21  1  0  0  0  0
 20 22  2  0  0  0  0
 22 23  1  0  0  0  0
 22 24  1  0  0  0  0
 24 25  1  0  0  0  0
 24 26  2  0  0  0  0
 26 27  1  0  0  0  0
 26 28  1  0  0  0  0
 29 30  2  0  0  0  0
 29 31  1  0  0  0  0
 31 32  1  0  0  0  0
 31 33  1  0  0  0  0
 33 34  1  0  0  0  0
 33 35  1  0  0  0  0
 33 36  1  0  0  0  0
M  END
$$$$

  -OEChem-03222214083D

 36 37  0     1  0  0  0  0  0999 V2000
   -3.7961   -4.4553    1.3787 H   0  0  0  0  0  0  0  0  0  0  0  0
   -3.7080   -3.6837    0.6087 C   0  0  0  0  0  0  0  0  0  0  0  0
   -4.5698   -3.0157    0.6796 H   0  0  0  0  0  0  0  0  0  0  0  0
   -3.7067   -4.1640   -0.3727 H   0  0  0  0  0  0  0  0  0  0  0  0
   -2.4257   -2.8969    0.8024 C   0  0  0  0  0  0  0  0  0  0  0  0
   -1.6890   -3.1543    1.7396 O   0  0  0  0  0  0  0  0  0  0  0  0
   -2.1140   -1.8748   -0.0680 N   0  0  0  0  0  0  0  0  0  0  0  0
   -2.8142   -1.6199   -0.7632 H   0  0  0  0  0  0  0  0  0  0  0  0
   -0.9645   -0.9652    0.0784 C   0  0  1  0  0  0  0  0  0  0  0  0
   -0.5471   -1.0213    1.0884 H   0  0  0  0  0  0  0  0  0  0  0  0
    0.0965   -1.3843   -0.9680 C   0  0  0  0  0  0  0  0  0  0  0  0
   -0.1739   -2.3629   -1.3787 H   0  0  0  0  0  0  0  0  0  0  0  0
    0.0655   -0.6790   -1.8052 H   0  0  0  0  0  0  0  0  0  0  0  0
    1.5357   -1.4704   -0.4944 C   0  0  0  0  0  0  0  0  0  0  0  0
    2.3989   -2.3673   -1.0820 C   0  0  0  0  0  0  0  0  0  0  0  0
    2.1347   -3.0654   -1.8731 H   0  0  0  0  0  0  0  0  0  0  0  0
    3.6496   -2.2247   -0.4965 N   0  0  0  0  0  0  0  0  0  0  0  0
    4.4764   -2.7715   -0.7268 H   0  0  0  0  0  0  0  0  0  0  0  0
    3.6116   -1.2322    0.4623 C   0  0  0  0  0  0  0  0  0  0  0  0
    4.6267   -0.7487    1.2872 C   0  0  0  0  0  0  0  0  0  0  0  0
    5.6255   -1.1668    1.2284 H   0  0  0  0  0  0  0  0  0  0  0  0
    4.3378    0.2811    2.1889 C   0  0  0  0  0  0  0  0  0  0  0  0
    5.1160    0.6698    2.8387 H   0  0  0  0  0  0  0  0  0  0  0  0
    3.0417    0.8077    2.2514 C   0  0  0  0  0  0  0  0  0  0  0  0
    2.8173    1.6054    2.9529 H   0  0  0  0  0  0  0  0  0  0  0  0
    2.0342    0.3067    1.4144 C   0  0  0  0  0  0  0  0  0  0  0  0
    1.0442    0.7224    1.4825 H   0  0  0  0  0  0  0  0  0  0  0  0
    2.3138   -0.7223    0.5071 C   0  0  0  0  0  0  0  0  0  0  0  0
   -1.4806    0.4680   -0.1932 C   0  0  0  0  0  0  0  0  0  0  0  0
   -2.2535    0.6575   -1.1282 O   0  0  0  0  0  0  0  0  0  0  0  0
   -1.1430    1.5410    0.6103 N   0  0  0  0  0  0  0  0  0  0  0  0
   -0.6292    1.3400    1.4621 H   0  0  0  0  0  0  0  0  0  0  0  0
   -1.6764    2.8841    0.4184 C   0  0  0  0  0  0  0  0  0  0  0  0
   -2.7666    2.8831    0.5214 H   0  0  0  0  0  0  0  0  0  0  0  0
   -1.2583    3.5664    1.1648 H   0  0  0  0  0  0  0  0  0  0  0  0
   -1.4162    3.2609   -0.5764 H   0  0  0  0  0  0  0  0  0  0  0  0
  1  2  1  0  0  0  0
  2  3  1  0  0  0  0
  2  4  1  0  0  0  0
  2  5  1  0  0  0  0
  5  6  2  0  0  0  0
  5  7  1  0  0  0  0
  7  8  1  0  0  0  0
  7  9  1  0  0  0  0
  9 10  1  0  0  0  0
  9 11  1  0  0  0  0
  9 29  1  0  0  0  0
 11 12  1  0  0  0  0
 11 13  1  0  0  0  0
 11 14  1  0  0  0  0
 14 15  2  0  0  0  0
 14 28  1  0  0  0  0
 15 16  1  0  0  0  0
 15 17  1  0  0  0  0
 17 18  1  0  0  0  0
 17 19  1  0  0  0  0
 19 20  1  0  0  0  0
 19 28  2  0  0  0  0
 20 21  1  0  0  0  0
 20 22  2  0  0  0  0
 22 23  1  0  0  0  0
 22 24  1  0  0  0  0
 24 25  1  0  0  0  0
 24 26  2  0  0  0  0
 26 27  1  0  0  0  0
 26 28  1  0  0  0  0
 29 30  2  0  0  0  0
 29 31  1  0  0  0  0
 31 32  1  0  0  0  0
 31 33  1  0  0  0  0
 33 34  1  0  0  0  0
 33 35  1  0  0  0  0
 33 36  1  0  0  0  0
M  END
$$$$

  -OEChem-03222214083D

 36 37  0     1  0  0  0  0  0999 V2000
   -3.8321   -4.5428    1.3498 H   0  0  0  0  0  0  0  0  0  0  0  0
   -3.7658   -3.7479    0.6015 C   0  0  0  0  0  0  0  0  0  0  0  0
   -4.6226   -3.0801    0.7201 H   0  0  0  0  0  0  0  0  0  0  0  0
   -3.7975   -4.1982   -0.3936 H   0  0  0  0  0  0  0  0  0  0  0  0
   -2.4749   -2.9708    0.7768 C   0  0  0  0  0  0  0  0  0  0  0  0
   -1.7098   -3.2602    1.6815 O   0  0  0  0  0  0  0  0  0  0  0  0
   -2.1830   -1.9324   -0.0821 N   0  0  0  0  0  0  0  0  0  0  0  0
   -2.9072   -1.6585   -0.7441 H   0  0  0  0  0  0  0  0  0  0  0  0
   -1.0279   -1.0273    0.0444 C   0  0  1  0  0  0  0  0  0  0  0  0
   -0.6330   -1.1250    1.0550 H   0  0  0  0  0  0  0  0  0  0  0  0
    0.0584   -1.4111   -0.9783 C   0  0  0  0  0  0  0  0  0  0  0  0
   -0.1756   -2.4036   -1.3774 H   0  0  0  0  0  0  0  0  0  0  0  0
    0.0178   -0.7173   -1.8249 H   0  0  0  0  0  0  0  0  0  0  0  0
    1.4894   -1.4589   -0.4732 C   0  0  0  0  0  0  0  0  0  0  0  0
    2.4469   -2.0859   -1.2366 C   0  0  0  0  0  0  0  0  0  0  0  0
    2.2633   -2.5888   -2.1835 H   0  0  0  0  0  0  0  0  0  0  0  0
    3.6743   -1.9450   -0.6057 N   0  0  0  0  0  0  0  0  0  0  0  0
    4.5595   -2.3163   -0.9443 H   0  0  0  0  0  0  0  0  0  0  0  0
    3.5228   -1.2344    0.5680 C   0  0  0  0  0  0  0  0  0  0  0  0
    4.4886   -0.8661    1.5036 C   0  0  0  0  0  0  0  0  0  0  0  0
    5.5284   -1.1331    1.3517 H   0  0  0  0  0  0  0  0  0  0  0  0
    4.0972   -0.1535    2.6406 C   0  0  0  0  0  0  0  0  0  0  0  0
    4.8356    0.1387    3.3815 H   0  0  0  0  0  0  0  0  0  0  0  0
    2.7483    0.1709    2.8259 C   0  0  0  0  0  0  0  0  0  0  0  0
    2.4421    0.7099    3.7176 H   0  0  0  0  0  0  0  0  0  0  0  0
    1.7902   -0.2070    1.8741 C   0  0  0  0  0  0  0  0  0  0  0  0
    0.7595    0.0419    2.0736 H   0  0  0  0  0  0  0  0  0  0  0  0
    2.1727   -0.9095    0.7178 C   0  0  0  0  0  0  0  0  0  0  0  0
   -1.4709    0.4354   -0.1748 C   0  0  0  0  0  0  0  0  0  0  0  0
   -2.3024    0.6818   -1.0430 O   0  0  0  0  0  0  0  0  0  0  0  0
   -1.0457    1.4583    0.6529 N   0  0  0  0  0  0  0  0  0  0  0  0
   -0.2937    1.2499    1.3015 H   0  0  0  0  0  0  0  0  0  0  0  0
   -1.4363    2.8500    0.4650 C   0  0  0  0  0  0  0  0  0  0  0  0
   -2.5258    2.9524    0.5072 H   0  0  0  0  0  0  0  0  0  0  0  0
   -1.0021    3.4737    1.2523 H   0  0  0  0  0  0  0  0  0  0  0  0
   -1.0841    3.2190   -0.5039 H   0  0  0  0  0  0  0  0  0  0  0  0
  1  2  1  0  0  0  0
  2  3  1  0  0  0  0
  2  4  1  0  0  0  0
  2  5  1  0  0  0  0
  5  6  2  0  0  0  0
  5  7  1  0  0  0  0
  7  8  1  0  0  0  0
  7  9  1  0  0  0  0
  9 10  1  0  0  0  0
  9 11  1  0  0  0  0
  9 29  1  0  0  0  0
 11 12  1  0  0  0  0
 11 13  1  0  0  0  0
 11 14  1  0  0  0  0
 14 15  2  0  0  0  0
 14 28  1  0  0  0  0
 15 16  1  0  0  0  0
 15 17  1  0  0  0  0
 17 18  1  0  0  0  0
 17 19  1  0  0  0  0
 19 20  1  0  0  0  0
 19 28  2  0  0  0  0
 20 21  1  0  0  0  0
 20 22  2  0  0  0  0
 22 23  1  0  0  0  0
 22 24  1  0  0  0  0
 24 25  1  0  0  0  0
 24 26  2  0  0  0  0
 26 27  1  0  0  0  0
 26 28  1  0  0  0  0
 29 30  2  0  0  0  0
 29 31  1  0  0  0  0
 31 32  1  0  0  0  0
 31 33  1  0  0  0  0
 33 34  1  0  0  0  0
 33 35  1  0  0  0  0
 33 36  1  0  0  0  0
M  END
$$$$

  -OEChem-03222214083D

 36 37  0     1  0  0  0  0  0999 V2000
   -3.8354   -4.4528    1.4261 H   0  0  0  0  0  0  0  0  0  0  0  0
   -3.7523   -3.7013    0.6360 C   0  0  0  0  0  0  0  0  0  0  0  0
   -4.6445   -3.0709    0.6529 H   0  0  0  0  0  0  0  0  0  0  0  0
   -3.6919   -4.2108   -0.3286 H   0  0  0  0  0  0  0  0  0  0  0  0
   -2.5138   -2.8522    0.8508 C   0  0  0  0  0  0  0  0  0  0  0  0
   -1.8207   -3.0249    1.8402 O   0  0  0  0  0  0  0  0  0  0  0  0
   -2.1991   -1.8646   -0.0582 N   0  0  0  0  0  0  0  0  0  0  0  0
   -2.8691   -1.6768   -0.8015 H   0  0  0  0  0  0  0  0  0  0  0  0
   -1.0450   -0.9582    0.0525 C   0  0  1  0  0  0  0  0  0  0  0  0
   -0.6829   -0.9522    1.0724 H   0  0  0  0  0  0  0  0  0  0  0  0
    0.0741   -1.3883   -0.9197 C   0  0  0  0  0  0  0  0  0  0  0  0
   -0.2782   -2.2548   -1.4888 H   0  0  0  0  0  0  0  0  0  0  0  0
    0.2412   -0.5893   -1.6505 H   0  0  0  0  0  0  0  0  0  0  0  0
    1.4275   -1.7582   -0.3343 C   0  0  0  0  0  0  0  0  0  0  0  0
    2.4214   -2.1364   -1.2078 C   0  0  0  0  0  0  0  0  0  0  0  0
    2.3224   -2.1745   -2.2904 H   0  0  0  0  0  0  0  0  0  0  0  0
    3.5637   -2.4277   -0.4790 N   0  0  0  0  0  0  0  0  0  0  0  0
    4.4534   -2.7321   -0.8682 H   0  0  0  0  0  0  0  0  0  0  0  0
    3.3065   -2.2946    0.8699 C   0  0  0  0  0  0  0  0  0  0  0  0
    4.1668   -2.5199    1.9436 C   0  0  0  0  0  0  0  0  0  0  0  0
    5.1949   -2.8167    1.7691 H   0  0  0  0  0  0  0  0  0  0  0  0
    3.6822   -2.3693    3.2453 C   0  0  0  0  0  0  0  0  0  0  0  0
    4.3354   -2.5430    4.0951 H   0  0  0  0  0  0  0  0  0  0  0  0
    2.3441   -2.0162    3.4484 C   0  0  0  0  0  0  0  0  0  0  0  0
    1.9570   -1.9256    4.4589 H   0  0  0  0  0  0  0  0  0  0  0  0
    1.4915   -1.7960    2.3569 C   0  0  0  0  0  0  0  0  0  0  0  0
    0.4584   -1.5703    2.5829 H   0  0  0  0  0  0  0  0  0  0  0  0
    1.9738   -1.9059    1.0370 C   0  0  0  0  0  0  0  0  0  0  0  0
   -1.4699    0.4904   -0.2554 C   0  0  0  0  0  0  0  0  0  0  0  0
   -2.2453    0.7148   -1.1791 O   0  0  0  0  0  0  0  0  0  0  0  0
   -1.0458    1.5329    0.5475 N   0  0  0  0  0  0  0  0  0  0  0  0
   -0.3912    1.3138    1.2941 H   0  0  0  0  0  0  0  0  0  0  0  0
   -1.4321    2.9214    0.3312 C   0  0  0  0  0  0  0  0  0  0  0  0
   -2.5212    3.0277    0.3752 H   0  0  0  0  0  0  0  0  0  0  0  0
   -0.9922    3.5602    1.1032 H   0  0  0  0  0  0  0  0  0  0  0  0
   -1.0826    3.2689   -0.6466 H   0  0  0  0  0  0  0  0  0  0  0  0
  1  2  1  0  0  0  0
  2  3  1  0  0  0  0
  2  4  1  0  0  0  0
  2  5  1  0  0  0  0
  5  6  2  0  0  0  0
  5  7  1  0  0  0  0
  7  8  1  0  0  0  0
  7  9  1  0  0  0  0
  9 10  1  0  0  0  0
  9 11  1  0  0  0  0
  9 29  1  0  0  0  0
 11 12  1  0  0  0  0
 11 13  1  0  0  0  0
 11 14  1  0  0  0  0
 14 15  2  0  0  0  0
 14 28  1  0  0  0  0
 15 16  1  0  0  0  0
 15 17  1  0  0  0  0
 17 18  1  0  0  0  0
 17 19  1  0  0  0  0
 19 20  1  0  0  0  0
 19 28  2  0  0  0  0
 20 21  1  0  0  0  0
 20 22  2  0  0  0  0
 22 23  1  0  0  0  0
 22 24  1  0  0  0  0
 24 25  1  0  0  0  0
 24 26  2  0  0  0  0
 26 27  1  0  0  0  0
 26 28  1  0  0  0  0
 29 30  2  0  0  0  0
 29 31  1  0  0  0  0
 31 32  1  0  0  0  0
 31 33  1  0  0  0  0
 33 34  1  0  0  0  0
 33 35  1  0  0  0  0
 33 36  1  0  0  0  0
M  END
$$$$

  -OEChem-03222214083D

 36 37  0     1  0  0  0  0  0999 V2000
   -3.9721   -4.4572    1.3102 H   0  0  0  0  0  0  0  0  0  0  0  0
   -3.8469   -3.6798    0.5513 C   0  0  0  0  0  0  0  0  0  0  0  0
   -4.7221   -3.0259    0.5681 H   0  0  0  0  0  0  0  0  0  0  0  0
   -3.7734   -4.1552   -0.4297 H   0  0  0  0  0  0  0  0  0  0  0  0
   -2.5930   -2.8739    0.8321 C   0  0  0  0  0  0  0  0  0  0  0  0
   -1.9546   -3.0855    1.8478 O   0  0  0  0  0  0  0  0  0  0  0  0
   -2.2212   -1.8736   -0.0397 N   0  0  0  0  0  0  0  0  0  0  0  0
   -2.8616   -1.6693   -0.8044 H   0  0  0  0  0  0  0  0  0  0  0  0
   -1.0484   -0.9897    0.0887 C   0  0  1  0  0  0  0  0  0  0  0  0
   -0.6788   -1.0086    1.1113 H   0  0  0  0  0  0  0  0  0  0  0  0
    0.0631   -1.4245   -0.8946 C   0  0  0  0  0  0  0  0  0  0  0  0
   -0.3037   -2.2850   -1.4633 H   0  0  0  0  0  0  0  0  0  0  0  0
    0.2342   -0.6264   -1.6254 H   0  0  0  0  0  0  0  0  0  0  0  0
    1.4093   -1.8268   -0.3175 C   0  0  0  0  0  0  0  0  0  0  0  0
    2.4883   -1.9084   -1.1678 C   0  0  0  0  0  0  0  0  0  0  0  0
    2.4610   -1.7013   -2.2355 H   0  0  0  0  0  0  0  0  0  0  0  0
    3.6048   -2.2770   -0.4320 N   0  0  0  0  0  0  0  0  0  0  0  0
    4.5415   -2.4145   -0.8055 H   0  0  0  0  0  0  0  0  0  0  0  0
    3.2560   -2.4642    0.8903 C   0  0  0  0  0  0  0  0  0  0  0  0
    4.0573   -2.8486    1.9650 C   0  0  0  0  0  0  0  0  0  0  0  0
    5.1163   -3.0313    1.8221 H   0  0  0  0  0  0  0  0  0  0  0  0
    3.4749   -3.0025    3.2264 C   0  0  0  0  0  0  0  0  0  0  0  0
    4.0812   -3.3049    4.0751 H   0  0  0  0  0  0  0  0  0  0  0  0
    2.1028   -2.7780    3.3875 C   0  0  0  0  0  0  0  0  0  0  0  0
    1.6404   -2.9122    4.3608 H   0  0  0  0  0  0  0  0  0  0  0  0
    1.3125   -2.3913    2.2960 C   0  0  0  0  0  0  0  0  0  0  0  0
    0.2548   -2.2525    2.4673 H   0  0  0  0  0  0  0  0  0  0  0  0
    1.8882   -2.2145    1.0264 C   0  0  0  0  0  0  0  0  0  0  0  0
   -1.4413    0.4703   -0.2037 C   0  0  0  0  0  0  0  0  0  0  0  0
   -2.1912    0.7239   -1.1408 O   0  0  0  0  0  0  0  0  0  0  0  0
   -1.0004    1.4931    0.6150 N   0  0  0  0  0  0  0  0  0  0  0  0
   -0.3735    1.2475    1.3771 H   0  0  0  0  0  0  0  0  0  0  0  0
   -1.3369    2.8942    0.3996 C   0  0  0  0  0  0  0  0  0  0  0  0
   -2.4204    3.0412    0.4568 H   0  0  0  0  0  0  0  0  0  0  0  0
   -0.8625    3.5180    1.1632 H   0  0  0  0  0  0  0  0  0  0  0  0
   -0.9868    3.2252   -0.5837 H   0  0  0  0  0  0  0  0  0  0  0  0
  1  2  1  0  0  0  0
  2  3  1  0  0  0  0
  2  4  1  0  0  0  0
  2  5  1  0  0  0  0
  5  6  2  0  0  0  0
  5  7  1  0  0  0  0
  7  8  1  0  0  0  0
  7  9  1  0  0  0  0
  9 10  1  0  0  0  0
  9 11  1  0  0  0  0
  9 29  1  0  0  0  0
 11 12  1  0  0  0  0
 11 13  1  0  0  0  0
 11 14  1  0  0  0  0
 14 15  2  0  0  0  0
 14 28  1  0  0  0  0
 15 16  1  0  0  0  0
 15 17  1  0  0  0  0
 17 18  1  0  0  0  0
 17 19  1  0  0  0  0
 19 20  1  0  0  0  0
 19 28  2  0  0  0  0
 20 21  1  0  0  0  0
 20 22  2  0  0  0  0
 22 23  1  0  0  0  0
 22 24  1  0  0  0  0
 24 25  1  0  0  0  0
 24 26  2  0  0  0  0
 26 27  1  0  0  0  0
 26 28  1  0  0  0  0
 29 30  2  0  0  0  0
 29 31  1  0  0  0  0
 31 32  1  0  0  0  0
 31 33  1  0  0  0  0
 33 34  1  0  0  0  0
 33 35  1  0  0  0  0
 33 36  1  0  0  0  0
M  END
$$$$

  -OEChem-03222214083D

 36 37  0     1  0  0  0  0  0999 V2000
   -4.0695   -4.4535    1.2396 H   0  0  0  0  0  0  0  0  0  0  0  0
   -3.8714   -3.7005    0.4715 C   0  0  0  0  0  0  0  0  0  0  0  0
   -4.7568   -3.0699    0.3593 H   0  0  0  0  0  0  0  0  0  0  0  0
   -3.6713   -4.2092   -0.4747 H   0  0  0  0  0  0  0  0  0  0  0  0
   -2.6779   -2.8513    0.8671 C   0  0  0  0  0  0  0  0  0  0  0  0
   -2.1837   -2.9889    1.9707 O   0  0  0  0  0  0  0  0  0  0  0  0
   -2.2458   -1.8583    0.0155 N   0  0  0  0  0  0  0  0  0  0  0  0
   -2.8071   -1.7120   -0.8209 H   0  0  0  0  0  0  0  0  0  0  0  0
   -1.0517   -0.9987    0.1483 C   0  0  1  0  0  0  0  0  0  0  0  0
   -0.6643   -1.0477    1.1691 H   0  0  0  0  0  0  0  0  0  0  0  0
    0.0408   -1.4442   -0.8600 C   0  0  0  0  0  0  0  0  0  0  0  0
   -0.3517   -2.2946   -1.4266 H   0  0  0  0  0  0  0  0  0  0  0  0
    0.2106   -0.6464   -1.5919 H   0  0  0  0  0  0  0  0  0  0  0  0
    1.3894   -1.8837   -0.3182 C   0  0  0  0  0  0  0  0  0  0  0  0
    2.5163   -1.6873   -1.0857 C   0  0  0  0  0  0  0  0  0  0  0  0
    2.5308   -1.2376   -2.0765 H   0  0  0  0  0  0  0  0  0  0  0  0
    3.6179   -2.1581   -0.3850 N   0  0  0  0  0  0  0  0  0  0  0  0
    4.5805   -2.1461   -0.7155 H   0  0  0  0  0  0  0  0  0  0  0  0
    3.2182   -2.6628    0.8359 C   0  0  0  0  0  0  0  0  0  0  0  0
    3.9789   -3.2353    1.8551 C   0  0  0  0  0  0  0  0  0  0  0  0
    5.0530   -3.3362    1.7467 H   0  0  0  0  0  0  0  0  0  0  0  0
    3.3366   -3.6777    3.0166 C   0  0  0  0  0  0  0  0  0  0  0  0
    3.9105   -4.1275    3.8213 H   0  0  0  0  0  0  0  0  0  0  0  0
    1.9484   -3.5398    3.1372 C   0  0  0  0  0  0  0  0  0  0  0  0
    1.4420   -3.8824    4.0347 H   0  0  0  0  0  0  0  0  0  0  0  0
    1.2022   -2.9625    2.1006 C   0  0  0  0  0  0  0  0  0  0  0  0
    0.1358   -2.8683    2.2206 H   0  0  0  0  0  0  0  0  0  0  0  0
    1.8340   -2.5171    0.9340 C   0  0  0  0  0  0  0  0  0  0  0  0
   -1.4121    0.4688   -0.1534 C   0  0  0  0  0  0  0  0  0  0  0  0
   -2.1285    0.7371   -1.1125 O   0  0  0  0  0  0  0  0  0  0  0  0
   -0.9558    1.4864    0.6633 N   0  0  0  0  0  0  0  0  0  0  0  0
   -0.3831    1.2263    1.4623 H   0  0  0  0  0  0  0  0  0  0  0  0
   -1.2797    2.8916    0.4516 C   0  0  0  0  0  0  0  0  0  0  0  0
   -2.3606    3.0509    0.5237 H   0  0  0  0  0  0  0  0  0  0  0  0
   -0.7876    3.5109    1.2076 H   0  0  0  0  0  0  0  0  0  0  0  0
   -0.9401    3.2192   -0.5366 H   0  0  0  0  0  0  0  0  0  0  0  0
  1  2  1  0  0  0  0
  2  3  1  0  0  0  0
  2  4  1  0  0  0  0
  2  5  1  0  0  0  0
  5  6  2  0  0  0  0
  5  7  1  0  0  0  0
  7  8  1  0  0  0  0
  7  9  1  0  0  0  0
  9 10  1  0  0  0  0
  9 11  1  0  0  0  0
  9 29  1  0  0  0  0
 11 12  1  0  0  0  0
 11 13  1  0  0  0  0
 11 14  1  0  0  0  0
 14 15  2  0  0  0  0
 14 28  1  0  0  0  0
 15 16  1  0  0  0  0
 15 17  1  0  0  0  0
 17 18  1  0  0  0  0
 17 19  1  0  0  0  0
 19 20  1  0  0  0  0
 19 28  2  0  0  0  0
 20 21  1  0  0  0  0
 20 22  2  0  0  0  0
 22 23  1  0  0  0  0
 22 24  1  0  0  0  0
 24 25  1  0  0  0  0
 24 26  2  0  0  0  0
 26 27  1  0  0  0  0
 26 28  1  0  0  0  0
 29 30  2  0  0  0  0
 29 31  1  0  0  0  0
 31 32  1  0  0  0  0
 31 33  1  0  0  0  0
 33 34  1  0  0  0  0
 33 35  1  0  0  0  0
 33 36  1  0  0  0  0
M  END
$$$$

  -OEChem-03222214083D

 36 37  0     1  0  0  0  0  0999 V2000
   -3.9307   -4.4607    1.4072 H   0  0  0  0  0  0  0  0  0  0  0  0
   -3.7568   -3.7438    0.5998 C   0  0  0  0  0  0  0  0  0  0  0  0
   -4.6701   -3.1656    0.4396 H   0  0  0  0  0  0  0  0  0  0  0  0
   -3.5157   -4.2942   -0.3129 H   0  0  0  0  0  0  0  0  0  0  0  0
   -2.6136   -2.8150    0.9627 C   0  0  0  0  0  0  0  0  0  0  0  0
   -2.1400   -2.8489    2.0852 O   0  0  0  0  0  0  0  0  0  0  0  0
   -2.2137   -1.8485    0.0671 N   0  0  0  0  0  0  0  0  0  0  0  0
   -2.7629   -1.7644   -0.7855 H   0  0  0  0  0  0  0  0  0  0  0  0
   -1.0236   -0.9818    0.1643 C   0  0  1  0  0  0  0  0  0  0  0  0
   -0.6148   -1.0123    1.1798 H   0  0  0  0  0  0  0  0  0  0  0  0
    0.0697   -1.4066   -0.8559 C   0  0  0  0  0  0  0  0  0  0  0  0
   -0.3031   -2.2694   -1.4165 H   0  0  0  0  0  0  0  0  0  0  0  0
    0.2297   -0.6116   -1.5929 H   0  0  0  0  0  0  0  0  0  0  0  0
    1.4115   -1.8093   -0.2787 C   0  0  0  0  0  0  0  0  0  0  0  0
    2.5845   -1.3447   -0.8301 C   0  0  0  0  0  0  0  0  0  0  0  0
    2.6543   -0.6458   -1.6609 H   0  0  0  0  0  0  0  0  0  0  0  0
    3.6497   -1.9061   -0.1368 N   0  0  0  0  0  0  0  0  0  0  0  0
    4.6352   -1.7377   -0.3276 H   0  0  0  0  0  0  0  0  0  0  0  0
    3.1798   -2.7780    0.8261 C   0  0  0  0  0  0  0  0  0  0  0  0
    3.8703   -3.5861    1.7295 C   0  0  0  0  0  0  0  0  0  0  0  0
    4.9539   -3.5687    1.7638 H   0  0  0  0  0  0  0  0  0  0  0  0
    3.1448   -4.4248    2.5842 C   0  0  0  0  0  0  0  0  0  0  0  0
    3.6644   -5.0604    3.2949 H   0  0  0  0  0  0  0  0  0  0  0  0
    1.7457   -4.4530    2.5099 C   0  0  0  0  0  0  0  0  0  0  0  0
    1.1776   -5.1116    3.1599 H   0  0  0  0  0  0  0  0  0  0  0  0
    1.0707   -3.6354    1.5931 C   0  0  0  0  0  0  0  0  0  0  0  0
   -0.0038   -3.6870    1.5233 H   0  0  0  0  0  0  0  0  0  0  0  0
    1.7877   -2.7728    0.7607 C   0  0  0  0  0  0  0  0  0  0  0  0
   -1.4093    0.4723   -0.1724 C   0  0  0  0  0  0  0  0  0  0  0  0
   -2.1300    0.7091   -1.1369 O   0  0  0  0  0  0  0  0  0  0  0  0
   -0.9558    1.5157    0.6127 N   0  0  0  0  0  0  0  0  0  0  0  0
   -0.4028    1.2782    1.4324 H   0  0  0  0  0  0  0  0  0  0  0  0
   -1.3205    2.9080    0.3842 C   0  0  0  0  0  0  0  0  0  0  0  0
   -2.4037    3.0404    0.4771 H   0  0  0  0  0  0  0  0  0  0  0  0
   -0.8289    3.5530    1.1188 H   0  0  0  0  0  0  0  0  0  0  0  0
   -1.0100    3.2260   -0.6166 H   0  0  0  0  0  0  0  0  0  0  0  0
  1  2  1  0  0  0  0
  2  3  1  0  0  0  0
  2  4  1  0  0  0  0
  2  5  1  0  0  0  0
  5  6  2  0  0  0  0
  5  7  1  0  0  0  0
  7  8  1  0  0  0  0
  7  9  1  0  0  0  0
  9 10  1  0  0  0  0
  9 11  1  0  0  0  0
  9 29  1  0  0  0  0
 11 12  1  0  0  0  0
 11 13  1  0  0  0  0
 11 14  1  0  0  0  0
 14 15  2  0  0  0  0
 14 28  1  0  0  0  0
 15 16  1  0  0  0  0
 15 17  1  0  0  0  0
 17 18  1  0  0  0  0
 17 19  1  0  0  0  0
 19 20  1  0  0  0  0
 19 28  2  0  0  0  0
 20 21  1  0  0  0  0
 20 22  2  0  0  0  0
 22 23  1  0  0  0  0
 22 24  1  0  0  0  0
 24 25  1  0  0  0  0
 24 26  2  0  0  0  0
 26 27  1  0  0  0  0
 26 28  1  0  0  0  0
 29 30  2  0  0  0  0
 29 31  1  0  0  0  0
 31 32  1  0  0  0  0
 31 33  1  0  0  0  0
 33 34  1  0  0  0  0
 33 35  1  0  0  0  0
 33 36  1  0  0  0  0
M  END
$$$$

  -OEChem-03222214083D

 36 37  0     1  0  0  0  0  0999 V2000
   -3.8533   -4.4538    1.5264 H   0  0  0  0  0  0  0  0  0  0  0  0
   -3.7422   -3.7141    0.7287 C   0  0  0  0  0  0  0  0  0  0  0  0
   -4.6389   -3.0905    0.6978 H   0  0  0  0  0  0  0  0  0  0  0  0
   -3.6373   -4.2383   -0.2242 H   0  0  0  0  0  0  0  0  0  0  0  0
   -2.5214   -2.8509    0.9830 C   0  0  0  0  0  0  0  0  0  0  0  0
   -1.8940   -2.9808    2.0199 O   0  0  0  0  0  0  0  0  0  0  0  0
   -2.1813   -1.8718    0.0755 N   0  0  0  0  0  0  0  0  0  0  0  0
   -2.8198   -1.7229   -0.7031 H   0  0  0  0  0  0  0  0  0  0  0  0
   -0.9852   -1.0118    0.1233 C   0  0  1  0  0  0  0  0  0  0  0  0
   -0.5374   -1.0561    1.1218 H   0  0  0  0  0  0  0  0  0  0  0  0
    0.0661   -1.4409   -0.9332 C   0  0  0  0  0  0  0  0  0  0  0  0
   -0.3165   -2.3000   -1.4934 H   0  0  0  0  0  0  0  0  0  0  0  0
    0.2234   -0.6396   -1.6635 H   0  0  0  0  0  0  0  0  0  0  0  0
    1.3985   -1.8341   -0.3395 C   0  0  0  0  0  0  0  0  0  0  0  0
    2.5742   -1.1885   -0.6450 C   0  0  0  0  0  0  0  0  0  0  0  0
    2.6657   -0.3201   -1.2939 H   0  0  0  0  0  0  0  0  0  0  0  0
    3.6083   -1.8321    0.0267 N   0  0  0  0  0  0  0  0  0  0  0  0
    4.5913   -1.5715   -0.0124 H   0  0  0  0  0  0  0  0  0  0  0  0
    3.1193   -2.9257    0.7186 C   0  0  0  0  0  0  0  0  0  0  0  0
    3.7699   -3.8829    1.4977 C   0  0  0  0  0  0  0  0  0  0  0  0
    4.8398   -3.8211    1.6620 H   0  0  0  0  0  0  0  0  0  0  0  0
    3.0230   -4.9275    2.0584 C   0  0  0  0  0  0  0  0  0  0  0  0
    3.5116   -5.6790    2.6714 H   0  0  0  0  0  0  0  0  0  0  0  0
    1.6440   -5.0081    1.8187 C   0  0  0  0  0  0  0  0  0  0  0  0
    1.0637   -5.8218    2.2426 H   0  0  0  0  0  0  0  0  0  0  0  0
    1.0063   -4.0393    1.0317 C   0  0  0  0  0  0  0  0  0  0  0  0
   -0.0539   -4.1174    0.8327 H   0  0  0  0  0  0  0  0  0  0  0  0
    1.7458   -2.9803    0.4989 C   0  0  0  0  0  0  0  0  0  0  0  0
   -1.3707    0.4513   -0.1648 C   0  0  0  0  0  0  0  0  0  0  0  0
   -2.1467    0.7131   -1.0781 O   0  0  0  0  0  0  0  0  0  0  0  0
   -0.8630    1.4732    0.6154 N   0  0  0  0  0  0  0  0  0  0  0  0
   -0.2683    1.2119    1.3978 H   0  0  0  0  0  0  0  0  0  0  0  0
   -1.2232    2.8740    0.4370 C   0  0  0  0  0  0  0  0  0  0  0  0
   -2.2971    3.0170    0.5962 H   0  0  0  0  0  0  0  0  0  0  0  0
   -0.6810    3.4971    1.1547 H   0  0  0  0  0  0  0  0  0  0  0  0
   -0.9680    3.2101   -0.5735 H   0  0  0  0  0  0  0  0  0  0  0  0
  1  2  1  0  0  0  0
  2  3  1  0  0  0  0
  2  4  1  0  0  0  0
  2  5  1  0  0  0  0
  5  6  2  0  0  0  0
  5  7  1  0  0  0  0
  7  8  1  0  0  0  0
  7  9  1  0  0  0  0
  9 10  1  0  0  0  0
  9 11  1  0  0  0  0
  9 29  1  0  0  0  0
 11 12  1  0  0  0  0
 11 13  1  0  0  0  0
 11 14  1  0  0  0  0
 14 15  2  0  0  0  0
 14 28  1  0  0  0  0
 15 16  1  0  0  0  0
 15 17  1  0  0  0  0
 17 18  1  0  0  0  0
 17 19  1  0  0  0  0
 19 20  1  0  0  0  0
 19 28  2  0  0  0  0
 20 21  1  0  0  0  0
 20 22  2  0  0  0  0
 22 23  1  0  0  0  0
 22 24  1  0  0  0  0
 24 25  1  0  0  0  0
 24 26  2  0  0  0  0
 26 27  1  0  0  0  0
 26 28  1  0  0  0  0
 29 30  2  0  0  0  0
 29 31  1  0  0  0  0
 31 32  1  0  0  0  0
 31 33  1  0  0  0  0
 33 34  1  0  0  0  0
 33 35  1  0  0  0  0
 33 36  1  0  0  0  0
M  END
$$$$

  -OEChem-03222214083D

 36 37  0     1  0  0  0  0  0999 V2000
   -3.7744   -4.5179    1.4935 H   0  0  0  0  0  0  0  0  0  0  0  0
   -3.7038   -3.7454    0.7227 C   0  0  0  0  0  0  0  0  0  0  0  0
   -4.5786   -3.0946    0.7949 H   0  0  0  0  0  0  0  0  0  0  0  0
   -3.6956   -4.2268   -0.2581 H   0  0  0  0  0  0  0  0  0  0  0  0
   -2.4372   -2.9323    0.9113 C   0  0  0  0  0  0  0  0  0  0  0  0
   -1.7108   -3.1554    1.8641 O   0  0  0  0  0  0  0  0  0  0  0  0
   -2.1447   -1.9168    0.0268 N   0  0  0  0  0  0  0  0  0  0  0  0
   -2.8433   -1.7040   -0.6825 H   0  0  0  0  0  0  0  0  0  0  0  0
   -0.9552   -1.0484    0.0673 C   0  0  1  0  0  0  0  0  0  0  0  0
   -0.4831   -1.1224    1.0534 H   0  0  0  0  0  0  0  0  0  0  0  0
    0.0635   -1.4668   -1.0188 C   0  0  0  0  0  0  0  0  0  0  0  0
   -0.3265   -2.3129   -1.5934 H   0  0  0  0  0  0  0  0  0  0  0  0
    0.2159   -0.6487   -1.7311 H   0  0  0  0  0  0  0  0  0  0  0  0
    1.3945   -1.8612   -0.4309 C   0  0  0  0  0  0  0  0  0  0  0  0
    2.5267   -1.0821   -0.4750 C   0  0  0  0  0  0  0  0  0  0  0  0
    2.5949   -0.0909   -0.9184 H   0  0  0  0  0  0  0  0  0  0  0  0
    3.5552   -1.7901    0.1403 N   0  0  0  0  0  0  0  0  0  0  0  0
    4.5135   -1.4655    0.2491 H   0  0  0  0  0  0  0  0  0  0  0  0
    3.0994   -3.0276    0.5632 C   0  0  0  0  0  0  0  0  0  0  0  0
    3.7501   -4.0791    1.2091 C   0  0  0  0  0  0  0  0  0  0  0  0
    4.7987   -3.9955    1.4718 H   0  0  0  0  0  0  0  0  0  0  0  0
    3.0300   -5.2426    1.5133 C   0  0  0  0  0  0  0  0  0  0  0  0
    3.5204   -6.0687    2.0195 H   0  0  0  0  0  0  0  0  0  0  0  0
    1.6746   -5.3402    1.1646 C   0  0  0  0  0  0  0  0  0  0  0  0
    1.1147   -6.2388    1.4038 H   0  0  0  0  0  0  0  0  0  0  0  0
    1.0343   -4.2768    0.5128 C   0  0  0  0  0  0  0  0  0  0  0  0
   -0.0130   -4.3499    0.2438 H   0  0  0  0  0  0  0  0  0  0  0  0
    1.7544   -3.1155    0.2201 C   0  0  0  0  0  0  0  0  0  0  0  0
   -1.3466    0.4242   -0.1508 C   0  0  0  0  0  0  0  0  0  0  0  0
   -2.1567    0.7194   -1.0228 O   0  0  0  0  0  0  0  0  0  0  0  0
   -0.8134    1.4163    0.6508 N   0  0  0  0  0  0  0  0  0  0  0  0
   -0.2000    1.1263    1.4081 H   0  0  0  0  0  0  0  0  0  0  0  0
   -1.1832    2.8215    0.5376 C   0  0  0  0  0  0  0  0  0  0  0  0
   -2.2511    2.9542    0.7401 H   0  0  0  0  0  0  0  0  0  0  0  0
   -0.6175    3.4210    1.2571 H   0  0  0  0  0  0  0  0  0  0  0  0
   -0.9654    3.1945   -0.4687 H   0  0  0  0  0  0  0  0  0  0  0  0
  1  2  1  0  0  0  0
  2  3  1  0  0  0  0
  2  4  1  0  0  0  0
  2  5  1  0  0  0  0
  5  6  2  0  0  0  0
  5  7  1  0  0  0  0
  7  8  1  0  0  0  0
  7  9  1  0  0  0  0
  9 10  1  0  0  0  0
  9 11  1  0  0  0  0
  9 29  1  0  0  0  0
 11 12  1  0  0  0  0
 11 13  1  0  0  0  0
 11 14  1  0  0  0  0
 14 15  2  0  0  0  0
 14 28  1  0  0  0  0
 15 16  1  0  0  0  0
 15 17  1  0  0  0  0
 17 18  1  0  0  0  0
 17 19  1  0  0  0  0
 19 20  1  0  0  0  0
 19 28  2  0  0  0  0
 20 21  1  0  0  0  0
 20 22  2  0  0  0  0
 22 23  1  0  0  0  0
 22 24  1  0  0  0  0
 24 25  1  0  0  0  0
 24 26  2  0  0  0  0
 26 27  1  0  0  0  0
 26 28  1  0  0  0  0
 29 30  2  0  0  0  0
 29 31  1  0  0  0  0
 31 32  1  0  0  0  0
 31 33  1  0  0  0  0
 33 34  1  0  0  0  0
 33 35  1  0  0  0  0
 33 36  1  0  0  0  0
M  END
$$$$

  -OEChem-03222214083D

 36 37  0     1  0  0  0  0  0999 V2000
   -3.6610   -4.5823    1.4541 H   0  0  0  0  0  0  0  0  0  0  0  0
   -3.6336   -3.7897    0.7010 C   0  0  0  0  0  0  0  0  0  0  0  0
   -4.4993   -3.1385    0.8437 H   0  0  0  0  0  0  0  0  0  0  0  0
   -3.6871   -4.2451   -0.2908 H   0  0  0  0  0  0  0  0  0  0  0  0
   -2.3530   -2.9875    0.8346 C   0  0  0  0  0  0  0  0  0  0  0  0
   -1.5577   -3.2621    1.7167 O   0  0  0  0  0  0  0  0  0  0  0  0
   -2.1092   -1.9419   -0.0303 N   0  0  0  0  0  0  0  0  0  0  0  0
   -2.8494   -1.6932   -0.6836 H   0  0  0  0  0  0  0  0  0  0  0  0
   -0.9287   -1.0623    0.0066 C   0  0  1  0  0  0  0  0  0  0  0  0
   -0.4385   -1.1591    0.9818 H   0  0  0  0  0  0  0  0  0  0  0  0
    0.0639   -1.4696   -1.1031 C   0  0  0  0  0  0  0  0  0  0  0  0
   -0.3327   -2.3052   -1.6883 H   0  0  0  0  0  0  0  0  0  0  0  0
    0.2108   -0.6385   -1.8009 H   0  0  0  0  0  0  0  0  0  0  0  0
    1.3969   -1.8631   -0.5249 C   0  0  0  0  0  0  0  0  0  0  0  0
    2.4530   -1.0134   -0.2981 C   0  0  0  0  0  0  0  0  0  0  0  0
    2.4683    0.0509   -0.5225 H   0  0  0  0  0  0  0  0  0  0  0  0
    3.4878   -1.7648    0.2542 N   0  0  0  0  0  0  0  0  0  0  0  0
    4.4017   -1.4058    0.5217 H   0  0  0  0  0  0  0  0  0  0  0  0
    3.1004   -3.0883    0.3944 C   0  0  0  0  0  0  0  0  0  0  0  0
    3.7712   -4.2043    0.8950 C   0  0  0  0  0  0  0  0  0  0  0  0
    4.7883   -4.1131    1.2587 H   0  0  0  0  0  0  0  0  0  0  0  0
    3.1110   -5.4408    0.9262 C   0  0  0  0  0  0  0  0  0  0  0  0
    3.6182   -6.3177    1.3169 H   0  0  0  0  0  0  0  0  0  0  0  0
    1.7909   -5.5453    0.4610 C   0  0  0  0  0  0  0  0  0  0  0  0
    1.2760   -6.5005    0.4957 H   0  0  0  0  0  0  0  0  0  0  0  0
    1.1277   -4.4164   -0.0408 C   0  0  0  0  0  0  0  0  0  0  0  0
    0.1025   -4.4875   -0.3875 H   0  0  0  0  0  0  0  0  0  0  0  0
    1.7962   -3.1893   -0.0757 C   0  0  0  0  0  0  0  0  0  0  0  0
   -1.3275    0.4154   -0.1514 C   0  0  0  0  0  0  0  0  0  0  0  0
   -2.1670    0.7368   -0.9851 O   0  0  0  0  0  0  0  0  0  0  0  0
   -0.7738    1.3800    0.6699 N   0  0  0  0  0  0  0  0  0  0  0  0
   -0.1490    1.0626    1.4066 H   0  0  0  0  0  0  0  0  0  0  0  0
   -1.1626    2.7840    0.6299 C   0  0  0  0  0  0  0  0  0  0  0  0
   -2.2281    2.8933    0.8578 H   0  0  0  0  0  0  0  0  0  0  0  0
   -0.5907    3.3557    1.3671 H   0  0  0  0  0  0  0  0  0  0  0  0
   -0.9684    3.2073   -0.3612 H   0  0  0  0  0  0  0  0  0  0  0  0
  1  2  1  0  0  0  0
  2  3  1  0  0  0  0
  2  4  1  0  0  0  0
  2  5  1  0  0  0  0
  5  6  2  0  0  0  0
  5  7  1  0  0  0  0
  7  8  1  0  0  0  0
  7  9  1  0  0  0  0
  9 10  1  0  0  0  0
  9 11  1  0  0  0  0
  9 29  1  0  0  0  0
 11 12  1  0  0  0  0
 11 13  1  0  0  0  0
 11 14  1  0  0  0  0
 14 15  2  0  0  0  0
 14 28  1  0  0  0  0
 15 16  1  0  0  0  0
 15 17  1  0  0  0  0
 17 18  1  0  0  0  0
 17 19  1  0  0  0  0
 19 20  1  0  0  0  0
 19 28  2  0  0  0  0
 20 21  1  0  0  0  0
 20 22  2  0  0  0  0
 22 23  1  0  0  0  0
 22 24  1  0  0  0  0
 24 25  1  0  0  0  0
 24 26  2  0  0  0  0
 26 27  1  0  0  0  0
 26 28  1  0  0  0  0
 29 30  2  0  0  0  0
 29 31  1  0  0  0  0
 31 32  1  0  0  0  0
 31 33  1  0  0  0  0
 33 34  1  0  0  0  0
 33 35  1  0  0  0  0
 33 36  1  0  0  0  0
M  END
$$$$

  -OEChem-03222214083D

 36 37  0     1  0  0  0  0  0999 V2000
   -3.6483   -4.5870    1.4285 H   0  0  0  0  0  0  0  0  0  0  0  0
   -3.6213   -3.7932    0.6766 C   0  0  0  0  0  0  0  0  0  0  0  0
   -4.4917   -3.1474    0.8153 H   0  0  0  0  0  0  0  0  0  0  0  0
   -3.6661   -4.2473   -0.3162 H   0  0  0  0  0  0  0  0  0  0  0  0
   -2.3463   -2.9834    0.8185 C   0  0  0  0  0  0  0  0  0  0  0  0
   -1.5565   -3.2484    1.7088 O   0  0  0  0  0  0  0  0  0  0  0  0
   -2.1048   -1.9346   -0.0433 N   0  0  0  0  0  0  0  0  0  0  0  0
   -2.8387   -1.6928   -0.7059 H   0  0  0  0  0  0  0  0  0  0  0  0
   -0.9247   -1.0556    0.0015 C   0  0  1  0  0  0  0  0  0  0  0  0
   -0.4358   -1.1569    0.9766 H   0  0  0  0  0  0  0  0  0  0  0  0
    0.0647   -1.4651   -1.1108 C   0  0  0  0  0  0  0  0  0  0  0  0
   -0.3400   -2.2934   -1.7004 H   0  0  0  0  0  0  0  0  0  0  0  0
    0.2179   -0.6320   -1.8051 H   0  0  0  0  0  0  0  0  0  0  0  0
    1.3978   -1.8672   -0.5371 C   0  0  0  0  0  0  0  0  0  0  0  0
    2.3515   -1.0106   -0.0405 C   0  0  0  0  0  0  0  0  0  0  0  0
    2.2789    0.0744   -0.0215 H   0  0  0  0  0  0  0  0  0  0  0  0
    3.4172   -1.7832    0.4147 N   0  0  0  0  0  0  0  0  0  0  0  0
    4.2729   -1.4234    0.8317 H   0  0  0  0  0  0  0  0  0  0  0  0
    3.1479   -3.1303    0.2318 C   0  0  0  0  0  0  0  0  0  0  0  0
    3.8878   -4.2738    0.5337 C   0  0  0  0  0  0  0  0  0  0  0  0
    4.8663   -4.1871    0.9923 H   0  0  0  0  0  0  0  0  0  0  0  0
    3.3471   -5.5339    0.2416 C   0  0  0  0  0  0  0  0  0  0  0  0
    3.9097   -6.4330    0.4742 H   0  0  0  0  0  0  0  0  0  0  0  0
    2.0760   -5.6354   -0.3443 C   0  0  0  0  0  0  0  0  0  0  0  0
    1.6563   -6.6125   -0.5627 H   0  0  0  0  0  0  0  0  0  0  0  0
    1.3417   -4.4787   -0.6430 C   0  0  0  0  0  0  0  0  0  0  0  0
    0.3542   -4.5526   -1.0854 H   0  0  0  0  0  0  0  0  0  0  0  0
    1.8915   -3.2255   -0.3556 C   0  0  0  0  0  0  0  0  0  0  0  0
   -1.3233    0.4230   -0.1507 C   0  0  0  0  0  0  0  0  0  0  0  0
   -2.1538    0.7497   -0.9911 O   0  0  0  0  0  0  0  0  0  0  0  0
   -0.7728    1.3844    0.6771 N   0  0  0  0  0  0  0  0  0  0  0  0
   -0.1765    1.0605    1.4338 H   0  0  0  0  0  0  0  0  0  0  0  0
   -1.1694    2.7866    0.6437 C   0  0  0  0  0  0  0  0  0  0  0  0
   -2.2366    2.8891    0.8671 H   0  0  0  0  0  0  0  0  0  0  0  0
   -0.6040    3.3570    1.3869 H   0  0  0  0  0  0  0  0  0  0  0  0
   -0.9729    3.2167   -0.3442 H   0  0  0  0  0  0  0  0  0  0  0  0
  1  2  1  0  0  0  0
  2  3  1  0  0  0  0
  2  4  1  0  0  0  0
  2  5  1  0  0  0  0
  5  6  2  0  0  0  0
  5  7  1  0  0  0  0
  7  8  1  0  0  0  0
  7  9  1  0  0  0  0
  9 10  1  0  0  0  0
  9 11  1  0  0  0  0
  9 29  1  0  0  0  0
 11 12  1  0  0  0  0
 11 13  1  0  0  0  0
 11 14  1  0  0  0  0
 14 15  2  0  0  0  0
 14 28  1  0  0  0  0
 15 16  1  0  0  0  0
 15 17  1  0  0  0  0
 17 18  1  0  0  0  0
 17 19  1  0  0  0  0
 19 20  1  0  0  0  0
 19 28  2  0  0  0  0
 20 21  1  0  0  0  0
 20 22  2  0  0  0  0
 22 23  1  0  0  0  0
 22 24  1  0  0  0  0
 24 25  1  0  0  0  0
 24 26  2  0  0  0  0
 26 27  1  0  0  0  0
 26 28  1  0  0  0  0
 29 30  2  0  0  0  0
 29 31  1  0  0  0  0
 31 32  1  0  0  0  0
 31 33  1  0  0  0  0
 33 34  1  0  0  0  0
 33 35  1  0  0  0  0
 33 36  1  0  0  0  0
M  END
$$$$

  -OEChem-03222214083D

 36 37  0     1  0  0  0  0  0999 V2000
   -3.6815   -4.5694    1.4191 H   0  0  0  0  0  0  0  0  0  0  0  0
   -3.6420   -3.7768    0.6668 C   0  0  0  0  0  0  0  0  0  0  0  0
   -4.5222   -3.1393    0.7797 H   0  0  0  0  0  0  0  0  0  0  0  0
   -3.6546   -4.2334   -0.3259 H   0  0  0  0  0  0  0  0  0  0  0  0
   -2.3797   -2.9541    0.8421 C   0  0  0  0  0  0  0  0  0  0  0  0
   -1.6223   -3.1938    1.7676 O   0  0  0  0  0  0  0  0  0  0  0  0
   -2.1151   -1.9175   -0.0279 N   0  0  0  0  0  0  0  0  0  0  0  0
   -2.8246   -1.6932   -0.7226 H   0  0  0  0  0  0  0  0  0  0  0  0
   -0.9302   -1.0462    0.0311 C   0  0  1  0  0  0  0  0  0  0  0  0
   -0.4568   -1.1399    1.0139 H   0  0  0  0  0  0  0  0  0  0  0  0
    0.0702   -1.4683   -1.0691 C   0  0  0  0  0  0  0  0  0  0  0  0
   -0.3451   -2.2940   -1.6543 H   0  0  0  0  0  0  0  0  0  0  0  0
    0.2371   -0.6430   -1.7694 H   0  0  0  0  0  0  0  0  0  0  0  0
    1.4018   -1.8850   -0.4957 C   0  0  0  0  0  0  0  0  0  0  0  0
    2.2434   -1.1020    0.2594 C   0  0  0  0  0  0  0  0  0  0  0  0
    2.0689   -0.0637    0.5294 H   0  0  0  0  0  0  0  0  0  0  0  0
    3.3506   -1.8743    0.6012 N   0  0  0  0  0  0  0  0  0  0  0  0
    4.1377   -1.5630    1.1662 H   0  0  0  0  0  0  0  0  0  0  0  0
    3.2264   -3.1504    0.0770 C   0  0  0  0  0  0  0  0  0  0  0  0
    4.0611   -4.2654    0.1512 C   0  0  0  0  0  0  0  0  0  0  0  0
    4.9958   -4.2126    0.6979 H   0  0  0  0  0  0  0  0  0  0  0  0
    3.6738   -5.4518   -0.4872 C   0  0  0  0  0  0  0  0  0  0  0  0
    4.3134   -6.3280   -0.4371 H   0  0  0  0  0  0  0  0  0  0  0  0
    2.4587   -5.5093   -1.1872 C   0  0  0  0  0  0  0  0  0  0  0  0
    2.1586   -6.4303   -1.6774 H   0  0  0  0  0  0  0  0  0  0  0  0
    1.6271   -4.3819   -1.2523 C   0  0  0  0  0  0  0  0  0  0  0  0
    0.6850   -4.4261   -1.7877 H   0  0  0  0  0  0  0  0  0  0  0  0
    2.0221   -3.1998   -0.6162 C   0  0  0  0  0  0  0  0  0  0  0  0
   -1.3280    0.4305   -0.1476 C   0  0  0  0  0  0  0  0  0  0  0  0
   -2.1371    0.7444   -1.0134 O   0  0  0  0  0  0  0  0  0  0  0  0
   -0.7979    1.4063    0.6769 N   0  0  0  0  0  0  0  0  0  0  0  0
   -0.2373    1.0950    1.4650 H   0  0  0  0  0  0  0  0  0  0  0  0
   -1.1932    2.8080    0.6061 C   0  0  0  0  0  0  0  0  0  0  0  0
   -2.2621    2.9166    0.8178 H   0  0  0  0  0  0  0  0  0  0  0  0
   -0.6332    3.3962    1.3394 H   0  0  0  0  0  0  0  0  0  0  0  0
   -0.9884    3.2148   -0.3900 H   0  0  0  0  0  0  0  0  0  0  0  0
  1  2  1  0  0  0  0
  2  3  1  0  0  0  0
  2  4  1  0  0  0  0
  2  5  1  0  0  0  0
  5  6  2  0  0  0  0
  5  7  1  0  0  0  0
  7  8  1  0  0  0  0
  7  9  1  0  0  0  0
  9 10  1  0  0  0  0
  9 11  1  0  0  0  0
  9 29  1  0  0  0  0
 11 12  1  0  0  0  0
 11 13  1  0  0  0  0
 11 14  1  0  0  0  0
 14 15  2  0  0  0  0
 14 28  1  0  0  0  0
 15 16  1  0  0  0  0
 15 17  1  0  0  0  0
 17 18  1  0  0  0  0
 17 19  1  0  0  0  0
 19 20  1  0  0  0  0
 19 28  2  0  0  0  0
 20 21  1  0  0  0  0
 20 22  2  0  0  0  0
 22 23  1  0  0  0  0
 22 24  1  0  0  0  0
 24 25  1  0  0  0  0
 24 26  2  0  0  0  0
 26 27  1  0  0  0  0
 26 28  1  0  0  0  0
 29 30  2  0  0  0  0
 29 31  1  0  0  0  0
 31 32  1  0  0  0  0
 31 33  1  0  0  0  0
 33 34  1  0  0  0  0
 33 35  1  0  0  0  0
 33 36  1  0  0  0  0
M  END
$$$$

  -OEChem-03222214083D

 36 37  0     1  0  0  0  0  0999 V2000
   -3.7304   -4.5503    1.4099 H   0  0  0  0  0  0  0  0  0  0  0  0
   -3.6782   -3.7575    0.6583 C   0  0  0  0  0  0  0  0  0  0  0  0
   -4.5607   -3.1206    0.7548 H   0  0  0  0  0  0  0  0  0  0  0  0
   -3.6731   -4.2145   -0.3341 H   0  0  0  0  0  0  0  0  0  0  0  0
   -2.4198   -2.9339    0.8554 C   0  0  0  0  0  0  0  0  0  0  0  0
   -1.6880   -3.1594    1.8052 O   0  0  0  0  0  0  0  0  0  0  0  0
   -2.1291   -1.9104   -0.0217 N   0  0  0  0  0  0  0  0  0  0  0  0
   -2.8204   -1.6900   -0.7360 H   0  0  0  0  0  0  0  0  0  0  0  0
   -0.9407   -1.0456    0.0562 C   0  0  1  0  0  0  0  0  0  0  0  0
   -0.4957   -1.1296    1.0521 H   0  0  0  0  0  0  0  0  0  0  0  0
    0.0823   -1.4825   -1.0200 C   0  0  0  0  0  0  0  0  0  0  0  0
   -0.3344   -2.3166   -1.5924 H   0  0  0  0  0  0  0  0  0  0  0  0
    0.2599   -0.6719   -1.7344 H   0  0  0  0  0  0  0  0  0  0  0  0
    1.4121   -1.9098   -0.4434 C   0  0  0  0  0  0  0  0  0  0  0  0
    2.1401   -1.2741    0.5364 C   0  0  0  0  0  0  0  0  0  0  0  0
    1.8577   -0.3544    1.0407 H   0  0  0  0  0  0  0  0  0  0  0  0
    3.2976   -2.0153    0.7584 N   0  0  0  0  0  0  0  0  0  0  0  0
    4.0186   -1.7956    1.4420 H   0  0  0  0  0  0  0  0  0  0  0  0
    3.3246   -3.1239   -0.0704 C   0  0  0  0  0  0  0  0  0  0  0  0
    4.2600   -4.1488   -0.2139 C   0  0  0  0  0  0  0  0  0  0  0  0
    5.1565   -4.1596    0.3957 H   0  0  0  0  0  0  0  0  0  0  0  0
    4.0246   -5.1615   -1.1541 C   0  0  0  0  0  0  0  0  0  0  0  0
    4.7438   -5.9658   -1.2769 H   0  0  0  0  0  0  0  0  0  0  0  0
    2.8601   -5.1370   -1.9365 C   0  0  0  0  0  0  0  0  0  0  0  0
    2.6795   -5.9222   -2.6641 H   0  0  0  0  0  0  0  0  0  0  0  0
    1.9263   -4.1023   -1.7811 C   0  0  0  0  0  0  0  0  0  0  0  0
    1.0252   -4.0840   -2.3843 H   0  0  0  0  0  0  0  0  0  0  0  0
    2.1672   -3.0945   -0.8402 C   0  0  0  0  0  0  0  0  0  0  0  0
   -1.3325    0.4295   -0.1515 C   0  0  0  0  0  0  0  0  0  0  0  0
   -2.1262    0.7307   -1.0360 O   0  0  0  0  0  0  0  0  0  0  0  0
   -0.8231    1.4177    0.6716 N   0  0  0  0  0  0  0  0  0  0  0  0
   -0.2657    1.1225    1.4674 H   0  0  0  0  0  0  0  0  0  0  0  0
   -1.2118    2.8190    0.5684 C   0  0  0  0  0  0  0  0  0  0  0  0
   -2.2882    2.9330    0.7353 H   0  0  0  0  0  0  0  0  0  0  0  0
   -0.6805    3.4145    1.3172 H   0  0  0  0  0  0  0  0  0  0  0  0
   -0.9650    3.2127   -0.4233 H   0  0  0  0  0  0  0  0  0  0  0  0
  1  2  1  0  0  0  0
  2  3  1  0  0  0  0
  2  4  1  0  0  0  0
  2  5  1  0  0  0  0
  5  6  2  0  0  0  0
  5  7  1  0  0  0  0
  7  8  1  0  0  0  0
  7  9  1  0  0  0  0
  9 10  1  0  0  0  0
  9 11  1  0  0  0  0
  9 29  1  0  0  0  0
 11 12  1  0  0  0  0
 11 13  1  0  0  0  0
 11 14  1  0  0  0  0
 14 15  2  0  0  0  0
 14 28  1  0  0  0  0
 15 16  1  0  0  0  0
 15 17  1  0  0  0  0
 17 18  1  0  0  0  0
 17 19  1  0  0  0  0
 19 20  1  0  0  0  0
 19 28  2  0  0  0  0
 20 21  1  0  0  0  0
 20 22  2  0  0  0  0
 22 23  1  0  0  0  0
 22 24  1  0  0  0  0
 24 25  1  0  0  0  0
 24 26  2  0  0  0  0
 26 27  1  0  0  0  0
 26 28  1  0  0  0  0
 29 30  2  0  0  0  0
 29 31  1  0  0  0  0
 31 32  1  0  0  0  0
 31 33  1  0  0  0  0
 33 34  1  0  0  0  0
 33 35  1  0  0  0  0
 33 36  1  0  0  0  0
M  END
$$$$

  -OEChem-03222214083D

 36 37  0     1  0  0  0  0  0999 V2000
   -3.7746   -4.5443    1.3829 H   0  0  0  0  0  0  0  0  0  0  0  0
   -3.7125   -3.7444    0.6395 C   0  0  0  0  0  0  0  0  0  0  0  0
   -4.5910   -3.1020    0.7373 H   0  0  0  0  0  0  0  0  0  0  0  0
   -3.7049   -4.1913   -0.3577 H   0  0  0  0  0  0  0  0  0  0  0  0
   -2.4498   -2.9309    0.8511 C   0  0  0  0  0  0  0  0  0  0  0  0
   -1.7314   -3.1595    1.8107 O   0  0  0  0  0  0  0  0  0  0  0  0
   -2.1362   -1.9150   -0.0270 N   0  0  0  0  0  0  0  0  0  0  0  0
   -2.8140   -1.6924   -0.7536 H   0  0  0  0  0  0  0  0  0  0  0  0
   -0.9478   -1.0524    0.0744 C   0  0  1  0  0  0  0  0  0  0  0  0
   -0.5344   -1.1268    1.0833 H   0  0  0  0  0  0  0  0  0  0  0  0
    0.1012   -1.4949   -0.9748 C   0  0  0  0  0  0  0  0  0  0  0  0
   -0.3078   -2.3342   -1.5457 H   0  0  0  0  0  0  0  0  0  0  0  0
    0.2876   -0.6899   -1.6937 H   0  0  0  0  0  0  0  0  0  0  0  0
    1.4292   -1.9287   -0.3936 C   0  0  0  0  0  0  0  0  0  0  0  0
    2.0504   -1.5045    0.7607 C   0  0  0  0  0  0  0  0  0  0  0  0
    1.6629   -0.7712    1.4623 H   0  0  0  0  0  0  0  0  0  0  0  0
    3.2604   -2.1852    0.8725 N   0  0  0  0  0  0  0  0  0  0  0  0
    3.9208   -2.0934    1.6414 H   0  0  0  0  0  0  0  0  0  0  0  0
    3.4291   -3.0456   -0.1983 C   0  0  0  0  0  0  0  0  0  0  0  0
    4.4577   -3.9298   -0.5243 C   0  0  0  0  0  0  0  0  0  0  0  0
    5.3219   -4.0260    0.1234 H   0  0  0  0  0  0  0  0  0  0  0  0
    4.3570   -4.6919   -1.6966 C   0  0  0  0  0  0  0  0  0  0  0  0
    5.1486   -5.3864   -1.9618 H   0  0  0  0  0  0  0  0  0  0  0  0
    3.2332   -4.5596   -2.5264 C   0  0  0  0  0  0  0  0  0  0  0  0
    3.1567   -5.1515   -3.4334 H   0  0  0  0  0  0  0  0  0  0  0  0
    2.2057   -3.6676   -2.1871 C   0  0  0  0  0  0  0  0  0  0  0  0
    1.3354   -3.5657   -2.8264 H   0  0  0  0  0  0  0  0  0  0  0  0
    2.3115   -2.9124   -1.0137 C   0  0  0  0  0  0  0  0  0  0  0  0
   -1.3341    0.4215   -0.1547 C   0  0  0  0  0  0  0  0  0  0  0  0
   -2.1192    0.7119   -1.0506 O   0  0  0  0  0  0  0  0  0  0  0  0
   -0.8471    1.4190    0.6703 N   0  0  0  0  0  0  0  0  0  0  0  0
   -0.2625    1.1416    1.4527 H   0  0  0  0  0  0  0  0  0  0  0  0
   -1.2210    2.8213    0.5325 C   0  0  0  0  0  0  0  0  0  0  0  0
   -2.3031    2.9433    0.6491 H   0  0  0  0  0  0  0  0  0  0  0  0
   -0.7206    3.4228    1.2975 H   0  0  0  0  0  0  0  0  0  0  0  0
   -0.9275    3.2011   -0.4521 H   0  0  0  0  0  0  0  0  0  0  0  0
  1  2  1  0  0  0  0
  2  3  1  0  0  0  0
  2  4  1  0  0  0  0
  2  5  1  0  0  0  0
  5  6  2  0  0  0  0
  5  7  1  0  0  0  0
  7  8  1  0  0  0  0
  7  9  1  0  0  0  0
  9 10  1  0  0  0  0
  9 11  1  0  0  0  0
  9 29  1  0  0  0  0
 11 12  1  0  0  0  0
 11 13  1  0  0  0  0
 11 14  1  0  0  0  0
 14 15  2  0  0  0  0
 14 28  1  0  0  0  0
 15 16  1  0  0  0  0
 15 17  1  0  0  0  0
 17 18  1  0  0  0  0
 17 19  1  0  0  0  0
 19 20  1  0  0  0  0
 19 28  2  0  0  0  0
 20 21  1  0  0  0  0
 20 22  2  0  0  0  0
 22 23  1  0  0  0  0
 22 24  1  0  0  0  0
 24 25  1  0  0  0  0
 24 26  2  0  0  0  0
 26 27  1  0  0  0  0
 26 28  1  0  0  0  0
 29 30  2  0  0  0  0
 29 31  1  0  0  0  0
 31 32  1  0  0  0  0
 31 33  1  0  0  0  0
 33 34  1  0  0  0  0
 33 35  1  0  0  0  0
 33 36  1  0  0  0  0
M  END
$$$$

  -OEChem-03222214083D

 36 37  0     1  0  0  0  0  0999 V2000
   -3.8535   -4.4917    1.4050 H   0  0  0  0  0  0  0  0  0  0  0  0
   -3.7658   -3.7157    0.6393 C   0  0  0  0  0  0  0  0  0  0  0  0
   -4.6304   -3.0513    0.7096 H   0  0  0  0  0  0  0  0  0  0  0  0
   -3.7582   -4.1921   -0.3441 H   0  0  0  0  0  0  0  0  0  0  0  0
   -2.4871   -2.9255    0.8423 C   0  0  0  0  0  0  0  0  0  0  0  0
   -1.7721   -3.1616    1.8033 O   0  0  0  0  0  0  0  0  0  0  0  0
   -2.1534   -1.9203   -0.0408 N   0  0  0  0  0  0  0  0  0  0  0  0
   -2.8269   -1.6824   -0.7666 H   0  0  0  0  0  0  0  0  0  0  0  0
   -0.9571   -1.0717    0.0756 C   0  0  1  0  0  0  0  0  0  0  0  0
   -0.5690   -1.1368    1.0932 H   0  0  0  0  0  0  0  0  0  0  0  0
    0.1085   -1.5255   -0.9517 C   0  0  0  0  0  0  0  0  0  0  0  0
   -0.2962   -2.3615   -1.5313 H   0  0  0  0  0  0  0  0  0  0  0  0
    0.3121   -0.7200   -1.6653 H   0  0  0  0  0  0  0  0  0  0  0  0
    1.4287   -1.9741   -0.3614 C   0  0  0  0  0  0  0  0  0  0  0  0
    1.9447   -1.7978    0.9052 C   0  0  0  0  0  0  0  0  0  0  0  0
    1.4526   -1.3048    1.7389 H   0  0  0  0  0  0  0  0  0  0  0  0
    3.2080   -2.3833    0.9401 N   0  0  0  0  0  0  0  0  0  0  0  0
    3.8092   -2.4381    1.7594 H   0  0  0  0  0  0  0  0  0  0  0  0
    3.5203   -2.9299   -0.2922 C   0  0  0  0  0  0  0  0  0  0  0  0
    4.6484   -3.6119   -0.7487 C   0  0  0  0  0  0  0  0  0  0  0  0
    5.4834   -3.7953   -0.0815 H   0  0  0  0  0  0  0  0  0  0  0  0
    4.6868   -4.0550   -2.0783 C   0  0  0  0  0  0  0  0  0  0  0  0
    5.5580   -4.5876   -2.4475 H   0  0  0  0  0  0  0  0  0  0  0  0
    3.6006   -3.8106   -2.9326 C   0  0  0  0  0  0  0  0  0  0  0  0
    3.6331   -4.1531   -3.9623 H   0  0  0  0  0  0  0  0  0  0  0  0
    2.4710   -3.1267   -2.4607 C   0  0  0  0  0  0  0  0  0  0  0  0
    1.6283   -2.9375   -3.1174 H   0  0  0  0  0  0  0  0  0  0  0  0
    2.4395   -2.6906   -1.1317 C   0  0  0  0  0  0  0  0  0  0  0  0
   -1.3254    0.4049   -0.1693 C   0  0  0  0  0  0  0  0  0  0  0  0
   -2.1081    0.6951   -1.0676 O   0  0  0  0  0  0  0  0  0  0  0  0
   -0.8416    1.4022    0.6578 N   0  0  0  0  0  0  0  0  0  0  0  0
   -0.2190    1.1300    1.4125 H   0  0  0  0  0  0  0  0  0  0  0  0
   -1.1974    2.8080    0.5095 C   0  0  0  0  0  0  0  0  0  0  0  0
   -2.2781    2.9444    0.6221 H   0  0  0  0  0  0  0  0  0  0  0  0
   -0.6924    3.4077    1.2728 H   0  0  0  0  0  0  0  0  0  0  0  0
   -0.8956    3.1779   -0.4761 H   0  0  0  0  0  0  0  0  0  0  0  0
  1  2  1  0  0  0  0
  2  3  1  0  0  0  0
  2  4  1  0  0  0  0
  2  5  1  0  0  0  0
  5  6  2  0  0  0  0
  5  7  1  0  0  0  0
  7  8  1  0  0  0  0
  7  9  1  0  0  0  0
  9 10  1  0  0  0  0
  9 11  1  0  0  0  0
  9 29  1  0  0  0  0
 11 12  1  0  0  0  0
 11 13  1  0  0  0  0
 11 14  1  0  0  0  0
 14 15  2  0  0  0  0
 14 28  1  0  0  0  0
 15 16  1  0  0  0  0
 15 17  1  0  0  0  0
 17 18  1  0  0  0  0
 17 19  1  0  0  0  0
 19 20  1  0  0  0  0
 19 28  2  0  0  0  0
 20 21  1  0  0  0  0
 20 22  2  0  0  0  0
 22 23  1  0  0  0  0
 22 24  1  0  0  0  0
 24 25  1  0  0  0  0
 24 26  2  0  0  0  0
 26 27  1  0  0  0  0
 26 28  1  0  0  0  0
 29 30  2  0  0  0  0
 29 31  1  0  0  0  0
 31 32  1  0  0  0  0
 31 33  1  0  0  0  0
 33 34  1  0  0  0  0
 33 35  1  0  0  0  0
 33 36  1  0  0  0  0
M  END
$$$$

  -OEChem-03222214083D

 36 37  0     1  0  0  0  0  0999 V2000
   -3.9186   -4.4518    1.4129 H   0  0  0  0  0  0  0  0  0  0  0  0
   -3.8119   -3.6856    0.6399 C   0  0  0  0  0  0  0  0  0  0  0  0
   -4.6547   -2.9938    0.7101 H   0  0  0  0  0  0  0  0  0  0  0  0
   -3.8266   -4.1690   -0.3399 H   0  0  0  0  0  0  0  0  0  0  0  0
   -2.5074   -2.9345    0.8261 C   0  0  0  0  0  0  0  0  0  0  0  0
   -1.7738   -3.2048    1.7645 O   0  0  0  0  0  0  0  0  0  0  0  0
   -2.1670   -1.9275   -0.0520 N   0  0  0  0  0  0  0  0  0  0  0  0
   -2.8545   -1.6572   -0.7534 H   0  0  0  0  0  0  0  0  0  0  0  0
   -0.9623   -1.0923    0.0672 C   0  0  1  0  0  0  0  0  0  0  0  0
   -0.5771   -1.1575    1.0849 H   0  0  0  0  0  0  0  0  0  0  0  0
    0.1009   -1.5476   -0.9614 C   0  0  0  0  0  0  0  0  0  0  0  0
   -0.3058   -2.3700   -1.5590 H   0  0  0  0  0  0  0  0  0  0  0  0
    0.3124   -0.7292   -1.6579 H   0  0  0  0  0  0  0  0  0  0  0  0
    1.4191   -2.0121   -0.3775 C   0  0  0  0  0  0  0  0  0  0  0  0
    1.8360   -2.1009    0.9344 C   0  0  0  0  0  0  0  0  0  0  0  0
    1.2415   -1.8821    1.8179 H   0  0  0  0  0  0  0  0  0  0  0  0
    3.1519   -2.5571    0.9367 N   0  0  0  0  0  0  0  0  0  0  0  0
    3.7036   -2.7547    1.7688 H   0  0  0  0  0  0  0  0  0  0  0  0
    3.5937   -2.7642   -0.3582 C   0  0  0  0  0  0  0  0  0  0  0  0
    4.8130   -3.2140   -0.8656 C   0  0  0  0  0  0  0  0  0  0  0  0
    5.6232   -3.4715   -0.1926 H   0  0  0  0  0  0  0  0  0  0  0  0
    4.9750   -3.3286   -2.2536 C   0  0  0  0  0  0  0  0  0  0  0  0
    5.9184   -3.6780   -2.6626 H   0  0  0  0  0  0  0  0  0  0  0  0
    3.9192   -2.9927   -3.1147 C   0  0  0  0  0  0  0  0  0  0  0  0
    4.0468   -3.0825   -4.1891 H   0  0  0  0  0  0  0  0  0  0  0  0
    2.6979   -2.5431   -2.5922 C   0  0  0  0  0  0  0  0  0  0  0  0
    1.8781   -2.2844   -3.2543 H   0  0  0  0  0  0  0  0  0  0  0  0
    2.5441   -2.4332   -1.2059 C   0  0  0  0  0  0  0  0  0  0  0  0
   -1.3179    0.3887   -0.1679 C   0  0  0  0  0  0  0  0  0  0  0  0
   -2.1105    0.6902   -1.0539 O   0  0  0  0  0  0  0  0  0  0  0  0
   -0.8220    1.3748    0.6648 N   0  0  0  0  0  0  0  0  0  0  0  0
   -0.1635    1.0958    1.3863 H   0  0  0  0  0  0  0  0  0  0  0  0
   -1.1481    2.7875    0.5147 C   0  0  0  0  0  0  0  0  0  0  0  0
   -2.2265    2.9456    0.6211 H   0  0  0  0  0  0  0  0  0  0  0  0
   -0.6357    3.3772    1.2809 H   0  0  0  0  0  0  0  0  0  0  0  0
   -0.8331    3.1511   -0.4691 H   0  0  0  0  0  0  0  0  0  0  0  0
  1  2  1  0  0  0  0
  2  3  1  0  0  0  0
  2  4  1  0  0  0  0
  2  5  1  0  0  0  0
  5  6  2  0  0  0  0
  5  7  1  0  0  0  0
  7  8  1  0  0  0  0
  7  9  1  0  0  0  0
  9 10  1  0  0  0  0
  9 11  1  0  0  0  0
  9 29  1  0  0  0  0
 11 12  1  0  0  0  0
 11 13  1  0  0  0  0
 11 14  1  0  0  0  0
 14 15  2  0  0  0  0
 14 28  1  0  0  0  0
 15 16  1  0  0  0  0
 15 17  1  0  0  0  0
 17 18  1  0  0  0  0
 17 19  1  0  0  0  0
 19 20  1  0  0  0  0
 19 28  2  0  0  0  0
 20 21  1  0  0  0  0
 20 22  2  0  0  0  0
 22 23  1  0  0  0  0
 22 24  1  0  0  0  0
 24 25  1  0  0  0  0
 24 26  2  0  0  0  0
 26 27  1  0  0  0  0
 26 28  1  0  0  0  0
 29 30  2  0  0  0  0
 29 31  1  0  0  0  0
 31 32  1  0  0  0  0
 31 33  1  0  0  0  0
 33 34  1  0  0  0  0
 33 35  1  0  0  0  0
 33 36  1  0  0  0  0
M  END
$$$$

  -OEChem-03222214083D

 36 37  0     1  0  0  0  0  0999 V2000
   -3.9131   -4.4350    1.4475 H   0  0  0  0  0  0  0  0  0  0  0  0
   -3.8200   -3.6661    0.6755 C   0  0  0  0  0  0  0  0  0  0  0  0
   -4.6439   -2.9566    0.7833 H   0  0  0  0  0  0  0  0  0  0  0  0
   -3.8839   -4.1427   -0.3057 H   0  0  0  0  0  0  0  0  0  0  0  0
   -2.4933   -2.9442    0.8137 C   0  0  0  0  0  0  0  0  0  0  0  0
   -1.7196   -3.2489    1.7091 O   0  0  0  0  0  0  0  0  0  0  0  0
   -2.1722   -1.9286   -0.0616 N   0  0  0  0  0  0  0  0  0  0  0  0
   -2.8854   -1.6287   -0.7244 H   0  0  0  0  0  0  0  0  0  0  0  0
   -0.9582   -1.1055    0.0395 C   0  0  1  0  0  0  0  0  0  0  0  0
   -0.5470   -1.1778    1.0471 H   0  0  0  0  0  0  0  0  0  0  0  0
    0.0772   -1.5547   -1.0186 C   0  0  0  0  0  0  0  0  0  0  0  0
   -0.3423   -2.3596   -1.6303 H   0  0  0  0  0  0  0  0  0  0  0  0
    0.2853   -0.7207   -1.6970 H   0  0  0  0  0  0  0  0  0  0  0  0
    1.3960   -2.0344   -0.4508 C   0  0  0  0  0  0  0  0  0  0  0  0
    1.7147   -2.3932    0.8422 C   0  0  0  0  0  0  0  0  0  0  0  0
    1.0246   -2.4425    1.6829 H   0  0  0  0  0  0  0  0  0  0  0  0
    3.0663   -2.7278    0.8731 N   0  0  0  0  0  0  0  0  0  0  0  0
    3.5667   -3.0718    1.6899 H   0  0  0  0  0  0  0  0  0  0  0  0
    3.6267   -2.5887   -0.3847 C   0  0  0  0  0  0  0  0  0  0  0  0
    4.9220   -2.8059   -0.8547 C   0  0  0  0  0  0  0  0  0  0  0  0
    5.6985   -3.1466   -0.1789 H   0  0  0  0  0  0  0  0  0  0  0  0
    5.2044   -2.5784   -2.2090 C   0  0  0  0  0  0  0  0  0  0  0  0
    6.2084   -2.7434   -2.5883 H   0  0  0  0  0  0  0  0  0  0  0  0
    4.1913   -2.1383   -3.0745 C   0  0  0  0  0  0  0  0  0  0  0  0
    4.4125   -1.9632   -4.1230 H   0  0  0  0  0  0  0  0  0  0  0  0
    2.8921   -1.9256   -2.5905 C   0  0  0  0  0  0  0  0  0  0  0  0
    2.1049   -1.5885   -3.2571 H   0  0  0  0  0  0  0  0  0  0  0  0
    2.6185   -2.1558   -1.2377 C   0  0  0  0  0  0  0  0  0  0  0  0
   -1.3101    0.3810   -0.1659 C   0  0  0  0  0  0  0  0  0  0  0  0
   -2.1305    0.6992   -1.0203 O   0  0  0  0  0  0  0  0  0  0  0  0
   -0.7864    1.3512    0.6685 N   0  0  0  0  0  0  0  0  0  0  0  0
   -0.0945    1.0593    1.3533 H   0  0  0  0  0  0  0  0  0  0  0  0
   -1.1014    2.7688    0.5442 C   0  0  0  0  0  0  0  0  0  0  0  0
   -2.1758    2.9358    0.6745 H   0  0  0  0  0  0  0  0  0  0  0  0
   -0.5680    3.3430    1.3080 H   0  0  0  0  0  0  0  0  0  0  0  0
   -0.8036    3.1419   -0.4413 H   0  0  0  0  0  0  0  0  0  0  0  0
  1  2  1  0  0  0  0
  2  3  1  0  0  0  0
  2  4  1  0  0  0  0
  2  5  1  0  0  0  0
  5  6  2  0  0  0  0
  5  7  1  0  0  0  0
  7  8  1  0  0  0  0
  7  9  1  0  0  0  0
  9 10  1  0  0  0  0
  9 11  1  0  0  0  0
  9 29  1  0  0  0  0
 11 12  1  0  0  0  0
 11 13  1  0  0  0  0
 11 14  1  0  0  0  0
 14 15  2  0  0  0  0
 14 28  1  0  0  0  0
 15 16  1  0  0  0  0
 15 17  1  0  0  0  0
 17 18  1  0  0  0  0
 17 19  1  0  0  0  0
 19 20  1  0  0  0  0
 19 28  2  0  0  0  0
 20 21  1  0  0  0  0
 20 22  2  0  0  0  0
 22 23  1  0  0  0  0
 22 24  1  0  0  0  0
 24 25  1  0  0  0  0
 24 26  2  0  0  0  0
 26 27  1  0  0  0  0
 26 28  1  0  0  0  0
 29 30  2  0  0  0  0
 29 31  1  0  0  0  0
 31 32  1  0  0  0  0
 31 33  1  0  0  0  0
 33 34  1  0  0  0  0
 33 35  1  0  0  0  0
 33 36  1  0  0  0  0
M  END
$$$$

  -OEChem-03222214083D

 36 37  0     1  0  0  0  0  0999 V2000
   -3.8700   -4.4506    1.4685 H   0  0  0  0  0  0  0  0  0  0  0  0
   -3.7973   -3.6730    0.7030 C   0  0  0  0  0  0  0  0  0  0  0  0
   -4.6112   -2.9585    0.8485 H   0  0  0  0  0  0  0  0  0  0  0  0
   -3.9003   -4.1367   -0.2810 H   0  0  0  0  0  0  0  0  0  0  0  0
   -2.4600   -2.9642    0.8031 C   0  0  0  0  0  0  0  0  0  0  0  0
   -1.6502   -3.3023    1.6532 O   0  0  0  0  0  0  0  0  0  0  0  0
   -2.1662   -1.9316   -0.0618 N   0  0  0  0  0  0  0  0  0  0  0  0
   -2.9067   -1.6119   -0.6843 H   0  0  0  0  0  0  0  0  0  0  0  0
   -0.9518   -1.1049    0.0115 C   0  0  1  0  0  0  0  0  0  0  0  0
   -0.5050   -1.1942    1.0045 H   0  0  0  0  0  0  0  0  0  0  0  0
    0.0535   -1.5375   -1.0812 C   0  0  0  0  0  0  0  0  0  0  0  0
   -0.3719   -2.3396   -1.6925 H   0  0  0  0  0  0  0  0  0  0  0  0
    0.2398   -0.6940   -1.7538 H   0  0  0  0  0  0  0  0  0  0  0  0
    1.3801   -2.0108   -0.5311 C   0  0  0  0  0  0  0  0  0  0  0  0
    1.6240   -2.6271    0.6769 C   0  0  0  0  0  0  0  0  0  0  0  0
    0.8714   -2.9025    1.4150 H   0  0  0  0  0  0  0  0  0  0  0  0
    2.9935   -2.8606    0.7680 N   0  0  0  0  0  0  0  0  0  0  0  0
    3.4564   -3.3348    1.5407 H   0  0  0  0  0  0  0  0  0  0  0  0
    3.6374   -2.4036   -0.3691 C   0  0  0  0  0  0  0  0  0  0  0  0
    4.9813   -2.4181   -0.7424 C   0  0  0  0  0  0  0  0  0  0  0  0
    5.7273   -2.8446   -0.0812 H   0  0  0  0  0  0  0  0  0  0  0  0
    5.3517   -1.8756   -1.9808 C   0  0  0  0  0  0  0  0  0  0  0  0
    6.3943   -1.8798   -2.2847 H   0  0  0  0  0  0  0  0  0  0  0  0
    4.3765   -1.3290   -2.8290 C   0  0  0  0  0  0  0  0  0  0  0  0
    4.6657   -0.9112   -3.7885 H   0  0  0  0  0  0  0  0  0  0  0  0
    3.0280   -1.3228   -2.4436 C   0  0  0  0  0  0  0  0  0  0  0  0
    2.2720   -0.9055   -3.1005 H   0  0  0  0  0  0  0  0  0  0  0  0
    2.6661   -1.8648   -1.2053 C   0  0  0  0  0  0  0  0  0  0  0  0
   -1.3096    0.3845   -0.1564 C   0  0  0  0  0  0  0  0  0  0  0  0
   -2.1627    0.7152   -0.9732 O   0  0  0  0  0  0  0  0  0  0  0  0
   -0.7577    1.3404    0.6759 N   0  0  0  0  0  0  0  0  0  0  0  0
   -0.0386    1.0369    1.3272 H   0  0  0  0  0  0  0  0  0  0  0  0
   -1.0757    2.7601    0.5862 C   0  0  0  0  0  0  0  0  0  0  0  0
   -2.1462    2.9243    0.7482 H   0  0  0  0  0  0  0  0  0  0  0  0
   -0.5220    3.3197    1.3463 H   0  0  0  0  0  0  0  0  0  0  0  0
   -0.8039    3.1525   -0.3994 H   0  0  0  0  0  0  0  0  0  0  0  0
  1  2  1  0  0  0  0
  2  3  1  0  0  0  0
  2  4  1  0  0  0  0
  2  5  1  0  0  0  0
  5  6  2  0  0  0  0
  5  7  1  0  0  0  0
  7  8  1  0  0  0  0
  7  9  1  0  0  0  0
  9 10  1  0  0  0  0
  9 11  1  0  0  0  0
  9 29  1  0  0  0  0
 11 12  1  0  0  0  0
 11 13  1  0  0  0  0
 11 14  1  0  0  0  0
 14 15  2  0  0  0  0
 14 28  1  0  0  0  0
 15 16  1  0  0  0  0
 15 17  1  0  0  0  0
 17 18  1  0  0  0  0
 17 19  1  0  0  0  0
 19 20  1  0  0  0  0
 19 28  2  0  0  0  0
 20 21  1  0  0  0  0
 20 22  2  0  0  0  0
 22 23  1  0  0  0  0
 22 24  1  0  0  0  0
 24 25  1  0  0  0  0
 24 26  2  0  0  0  0
 26 27  1  0  0  0  0
 26 28  1  0  0  0  0
 29 30  2  0  0  0  0
 29 31  1  0  0  0  0
 31 32  1  0  0  0  0
 31 33  1  0  0  0  0
 33 34  1  0  0  0  0
 33 35  1  0  0  0  0
 33 36  1  0  0  0  0
M  END
$$$$

  -OEChem-03222214083D

 36 37  0     1  0  0  0  0  0999 V2000
   -3.8470   -4.4516    1.5015 H   0  0  0  0  0  0  0  0  0  0  0  0
   -3.7854   -3.6714    0.7377 C   0  0  0  0  0  0  0  0  0  0  0  0
   -4.5812   -2.9435    0.9135 H   0  0  0  0  0  0  0  0  0  0  0  0
   -3.9288   -4.1283   -0.2445 H   0  0  0  0  0  0  0  0  0  0  0  0
   -2.4337   -2.9857    0.7976 C   0  0  0  0  0  0  0  0  0  0  0  0
   -1.5996   -3.3525    1.6102 O   0  0  0  0  0  0  0  0  0  0  0  0
   -2.1585   -1.9422   -0.0599 N   0  0  0  0  0  0  0  0  0  0  0  0
   -2.9210   -1.6065   -0.6463 H   0  0  0  0  0  0  0  0  0  0  0  0
   -0.9423   -1.1139   -0.0195 C   0  0  1  0  0  0  0  0  0  0  0  0
   -0.4605   -1.2225    0.9566 H   0  0  0  0  0  0  0  0  0  0  0  0
    0.0344   -1.5358   -1.1400 C   0  0  0  0  0  0  0  0  0  0  0  0
   -0.3979   -2.3467   -1.7343 H   0  0  0  0  0  0  0  0  0  0  0  0
    0.1962   -0.6969   -1.8240 H   0  0  0  0  0  0  0  0  0  0  0  0
    1.3667   -1.9985   -0.6008 C   0  0  0  0  0  0  0  0  0  0  0  0
    1.5768   -2.8504    0.4597 C   0  0  0  0  0  0  0  0  0  0  0  0
    0.7997   -3.3323    1.0509 H   0  0  0  0  0  0  0  0  0  0  0  0
    2.9519   -2.9850    0.6308 N   0  0  0  0  0  0  0  0  0  0  0  0
    3.3994   -3.5675    1.3354 H   0  0  0  0  0  0  0  0  0  0  0  0
    3.6316   -2.2275   -0.3081 C   0  0  0  0  0  0  0  0  0  0  0  0
    4.9950   -2.0414   -0.5367 C   0  0  0  0  0  0  0  0  0  0  0  0
    5.7267   -2.5444    0.0857 H   0  0  0  0  0  0  0  0  0  0  0  0
    5.4037   -1.1984   -1.5793 C   0  0  0  0  0  0  0  0  0  0  0  0
    6.4617   -1.0449   -1.7697 H   0  0  0  0  0  0  0  0  0  0  0  0
    4.4470   -0.5540   -2.3783 C   0  0  0  0  0  0  0  0  0  0  0  0
    4.7662    0.0976   -3.1861 H   0  0  0  0  0  0  0  0  0  0  0  0
    3.0789   -0.7505   -2.1400 C   0  0  0  0  0  0  0  0  0  0  0  0
    2.3393   -0.2551   -2.7604 H   0  0  0  0  0  0  0  0  0  0  0  0
    2.6779   -1.5935   -1.0973 C   0  0  0  0  0  0  0  0  0  0  0  0
   -1.2988    0.3780   -0.1596 C   0  0  0  0  0  0  0  0  0  0  0  0
   -2.1775    0.7203   -0.9437 O   0  0  0  0  0  0  0  0  0  0  0  0
   -0.7153    1.3230    0.6634 N   0  0  0  0  0  0  0  0  0  0  0  0
    0.0243    1.0098    1.2869 H   0  0  0  0  0  0  0  0  0  0  0  0
   -1.0358    2.7436    0.6045 C   0  0  0  0  0  0  0  0  0  0  0  0
   -2.0975    2.9064    0.8182 H   0  0  0  0  0  0  0  0  0  0  0  0
   -0.4469    3.2948    1.3439 H   0  0  0  0  0  0  0  0  0  0  0  0
   -0.8099    3.1465   -0.3883 H   0  0  0  0  0  0  0  0  0  0  0  0
  1  2  1  0  0  0  0
  2  3  1  0  0  0  0
  2  4  1  0  0  0  0
  2  5  1  0  0  0  0
  5  6  2  0  0  0  0
  5  7  1  0  0  0  0
  7  8  1  0  0  0  0
  7  9  1  0  0  0  0
  9 10  1  0  0  0  0
  9 11  1  0  0  0  0
  9 29  1  0  0  0  0
 11 12  1  0  0  0  0
 11 13  1  0  0  0  0
 11 14  1  0  0  0  0
 14 15  2  0  0  0  0
 14 28  1  0  0  0  0
 15 16  1  0  0  0  0
 15 17  1  0  0  0  0
 17 18  1  0  0  0  0
 17 19  1  0  0  0  0
 19 20  1  0  0  0  0
 19 28  2  0  0  0  0
 20 21  1  0  0  0  0
 20 22  2  0  0  0  0
 22 23  1  0  0  0  0
 22 24  1  0  0  0  0
 24 25  1  0  0  0  0
 24 26  2  0  0  0  0
 26 27  1  0  0  0  0
 26 28  1  0  0  0  0
 29 30  2  0  0  0  0
 29 31  1  0  0  0  0
 31 32  1  0  0  0  0
 31 33  1  0  0  0  0
 33 34  1  0  0  0  0
 33 35  1  0  0  0  0
 33 36  1  0  0  0  0
M  END
$$$$

  -OEChem-03222214083D

 36 37  0     1  0  0  0  0  0999 V2000
   -3.7881   -4.4565    1.5417 H   0  0  0  0  0  0  0  0  0  0  0  0
   -3.7541   -3.6675    0.7854 C   0  0  0  0  0  0  0  0  0  0  0  0
   -4.5268   -2.9292    1.0129 H   0  0  0  0  0  0  0  0  0  0  0  0
   -3.9582   -4.1082   -0.1934 H   0  0  0  0  0  0  0  0  0  0  0  0
   -2.3894   -3.0049    0.7811 C   0  0  0  0  0  0  0  0  0  0  0  0
   -1.5155   -3.4035    1.5348 O   0  0  0  0  0  0  0  0  0  0  0  0
   -2.1459   -1.9516   -0.0739 N   0  0  0  0  0  0  0  0  0  0  0  0
   -2.9359   -1.5974   -0.6111 H   0  0  0  0  0  0  0  0  0  0  0  0
   -0.9298   -1.1215   -0.0693 C   0  0  1  0  0  0  0  0  0  0  0  0
   -0.4191   -1.2451    0.8913 H   0  0  0  0  0  0  0  0  0  0  0  0
    0.0179   -1.5389   -1.2123 C   0  0  0  0  0  0  0  0  0  0  0  0
   -0.4207   -2.3644   -1.7820 H   0  0  0  0  0  0  0  0  0  0  0  0
    0.1601   -0.7113   -1.9143 H   0  0  0  0  0  0  0  0  0  0  0  0
    1.3516   -1.9872   -0.6727 C   0  0  0  0  0  0  0  0  0  0  0  0
    1.5642   -3.0343    0.1927 C   0  0  0  0  0  0  0  0  0  0  0  0
    0.7931   -3.6925    0.5902 H   0  0  0  0  0  0  0  0  0  0  0  0
    2.9281   -3.0814    0.4706 N   0  0  0  0  0  0  0  0  0  0  0  0
    3.3760   -3.7572    1.0863 H   0  0  0  0  0  0  0  0  0  0  0  0
    3.5935   -2.0685   -0.2006 C   0  0  0  0  0  0  0  0  0  0  0  0
    4.9403   -1.7070   -0.2344 C   0  0  0  0  0  0  0  0  0  0  0  0
    5.6712   -2.2695    0.3359 H   0  0  0  0  0  0  0  0  0  0  0  0
    5.3340   -0.6098   -1.0133 C   0  0  0  0  0  0  0  0  0  0  0  0
    6.3795   -0.3180   -1.0497 H   0  0  0  0  0  0  0  0  0  0  0  0
    4.3792    0.1113   -1.7464 C   0  0  0  0  0  0  0  0  0  0  0  0
    4.6872    0.9601   -2.3495 H   0  0  0  0  0  0  0  0  0  0  0  0
    3.0280   -0.2615   -1.7053 C   0  0  0  0  0  0  0  0  0  0  0  0
    2.2899    0.2947   -2.2735 H   0  0  0  0  0  0  0  0  0  0  0  0
    2.6429   -1.3589   -0.9269 C   0  0  0  0  0  0  0  0  0  0  0  0
   -1.2774    0.3739   -0.1798 C   0  0  0  0  0  0  0  0  0  0  0  0
   -2.1867    0.7323   -0.9205 O   0  0  0  0  0  0  0  0  0  0  0  0
   -0.6541    1.3015    0.6337 N   0  0  0  0  0  0  0  0  0  0  0  0
    0.1072    0.9723    1.2224 H   0  0  0  0  0  0  0  0  0  0  0  0
   -0.9724    2.7234    0.6186 C   0  0  0  0  0  0  0  0  0  0  0  0
   -2.0220    2.8832    0.8871 H   0  0  0  0  0  0  0  0  0  0  0  0
   -0.3465    3.2582    1.3395 H   0  0  0  0  0  0  0  0  0  0  0  0
   -0.7937    3.1461   -0.3757 H   0  0  0  0  0  0  0  0  0  0  0  0
  1  2  1  0  0  0  0
  2  3  1  0  0  0  0
  2  4  1  0  0  0  0
  2  5  1  0  0  0  0
  5  6  2  0  0  0  0
  5  7  1  0  0  0  0
  7  8  1  0  0  0  0
  7  9  1  0  0  0  0
  9 10  1  0  0  0  0
  9 11  1  0  0  0  0
  9 29  1  0  0  0  0
 11 12  1  0  0  0  0
 11 13  1  0  0  0  0
 11 14  1  0  0  0  0
 14 15  2  0  0  0  0
 14 28  1  0  0  0  0
 15 16  1  0  0  0  0
 15 17  1  0  0  0  0
 17 18  1  0  0  0  0
 17 19  1  0  0  0  0
 19 20  1  0  0  0  0
 19 28  2  0  0  0  0
 20 21  1  0  0  0  0
 20 22  2  0  0  0  0
 22 23  1  0  0  0  0
 22 24  1  0  0  0  0
 24 25  1  0  0  0  0
 24 26  2  0  0  0  0
 26 27  1  0  0  0  0
 26 28  1  0  0  0  0
 29 30  2  0  0  0  0
 29 31  1  0  0  0  0
 31 32  1  0  0  0  0
 31 33  1  0  0  0  0
 33 34  1  0  0  0  0
 33 35  1  0  0  0  0
 33 36  1  0  0  0  0
M  END
$$$$

  -OEChem-03222214083D

 36 37  0     1  0  0  0  0  0999 V2000
   -3.7064   -4.4741    1.5595 H   0  0  0  0  0  0  0  0  0  0  0  0
   -3.7088   -3.6670    0.8217 C   0  0  0  0  0  0  0  0  0  0  0  0
   -4.4556   -2.9250    1.1147 H   0  0  0  0  0  0  0  0  0  0  0  0
   -3.9789   -4.0806   -0.1530 H   0  0  0  0  0  0  0  0  0  0  0  0
   -2.3378   -3.0219    0.7488 C   0  0  0  0  0  0  0  0  0  0  0  0
   -1.4213   -3.4602    1.4258 O   0  0  0  0  0  0  0  0  0  0  0  0
   -2.1306   -1.9552   -0.0993 N   0  0  0  0  0  0  0  0  0  0  0  0
   -2.9471   -1.5794   -0.5790 H   0  0  0  0  0  0  0  0  0  0  0  0
   -0.9182   -1.1203   -0.1173 C   0  0  1  0  0  0  0  0  0  0  0  0
   -0.3910   -1.2572    0.8333 H   0  0  0  0  0  0  0  0  0  0  0  0
    0.0116   -1.5368   -1.2714 C   0  0  0  0  0  0  0  0  0  0  0  0
   -0.4291   -2.3734   -1.8229 H   0  0  0  0  0  0  0  0  0  0  0  0
    0.1465   -0.7193   -1.9866 H   0  0  0  0  0  0  0  0  0  0  0  0
    1.3427   -1.9695   -0.7208 C   0  0  0  0  0  0  0  0  0  0  0  0
    1.6027   -3.1584   -0.0843 C   0  0  0  0  0  0  0  0  0  0  0  0
    0.8753   -3.9487    0.0973 H   0  0  0  0  0  0  0  0  0  0  0  0
    2.9392   -3.1384    0.3086 N   0  0  0  0  0  0  0  0  0  0  0  0
    3.4078   -3.8824    0.8213 H   0  0  0  0  0  0  0  0  0  0  0  0
    3.5342   -1.9409   -0.0561 C   0  0  0  0  0  0  0  0  0  0  0  0
    4.8268   -1.4495    0.1279 C   0  0  0  0  0  0  0  0  0  0  0  0
    5.5726   -2.0519    0.6346 H   0  0  0  0  0  0  0  0  0  0  0  0
    5.1460   -0.1698   -0.3482 C   0  0  0  0  0  0  0  0  0  0  0  0
    6.1488    0.2242   -0.2126 H   0  0  0  0  0  0  0  0  0  0  0  0
    4.1716    0.6020   -0.9999 C   0  0  0  0  0  0  0  0  0  0  0  0
    4.4219    1.5923   -1.3681 H   0  0  0  0  0  0  0  0  0  0  0  0
    2.8752    0.0985   -1.1792 C   0  0  0  0  0  0  0  0  0  0  0  0
    2.1197    0.6925   -1.6830 H   0  0  0  0  0  0  0  0  0  0  0  0
    2.5666   -1.1801   -0.7029 C   0  0  0  0  0  0  0  0  0  0  0  0
   -1.2540    0.3787   -0.1947 C   0  0  0  0  0  0  0  0  0  0  0  0
   -2.1788    0.7578   -0.9048 O   0  0  0  0  0  0  0  0  0  0  0  0
   -0.5975    1.2857    0.6159 N   0  0  0  0  0  0  0  0  0  0  0  0
    0.1725    0.9356    1.1814 H   0  0  0  0  0  0  0  0  0  0  0  0
   -0.8950    2.7122    0.6298 C   0  0  0  0  0  0  0  0  0  0  0  0
   -1.9295    2.8843    0.9450 H   0  0  0  0  0  0  0  0  0  0  0  0
   -0.2305    3.2300    1.3281 H   0  0  0  0  0  0  0  0  0  0  0  0
   -0.7533    3.1435   -0.3667 H   0  0  0  0  0  0  0  0  0  0  0  0
  1  2  1  0  0  0  0
  2  3  1  0  0  0  0
  2  4  1  0  0  0  0
  2  5  1  0  0  0  0
  5  6  2  0  0  0  0
  5  7  1  0  0  0  0
  7  8  1  0  0  0  0
  7  9  1  0  0  0  0
  9 10  1  0  0  0  0
  9 11  1  0  0  0  0
  9 29  1  0  0  0  0
 11 12  1  0  0  0  0
 11 13  1  0  0  0  0
 11 14  1  0  0  0  0
 14 15  2  0  0  0  0
 14 28  1  0  0  0  0
 15 16  1  0  0  0  0
 15 17  1  0  0  0  0
 17 18  1  0  0  0  0
 17 19  1  0  0  0  0
 19 20  1  0  0  0  0
 19 28  2  0  0  0  0
 20 21  1  0  0  0  0
 20 22  2  0  0  0  0
 22 23  1  0  0  0  0
 22 24  1  0  0  0  0
 24 25  1  0  0  0  0
 24 26  2  0  0  0  0
 26 27  1  0  0  0  0
 26 28  1  0  0  0  0
 29 30  2  0  0  0  0
 29 31  1  0  0  0  0
 31 32  1  0  0  0  0
 31 33  1  0  0  0  0
 33 34  1  0  0  0  0
 33 35  1  0  0  0  0
 33 36  1  0  0  0  0
M  END
$$$$

  -OEChem-03222214083D

 36 37  0     1  0  0  0  0  0999 V2000
   -3.6977   -4.4622    1.5458 H   0  0  0  0  0  0  0  0  0  0  0  0
   -3.6904   -3.6708    0.7909 C   0  0  0  0  0  0  0  0  0  0  0  0
   -4.4504   -2.9301    1.0514 H   0  0  0  0  0  0  0  0  0  0  0  0
   -3.9347   -4.1072   -0.1806 H   0  0  0  0  0  0  0  0  0  0  0  0
   -2.3238   -3.0144    0.7347 C   0  0  0  0  0  0  0  0  0  0  0  0
   -1.4112   -3.4497    1.4180 O   0  0  0  0  0  0  0  0  0  0  0  0
   -2.1177   -1.9413   -0.1057 N   0  0  0  0  0  0  0  0  0  0  0  0
   -2.9324   -1.5697   -0.5910 H   0  0  0  0  0  0  0  0  0  0  0  0
   -0.9089   -1.1013   -0.1154 C   0  0  1  0  0  0  0  0  0  0  0  0
   -0.3865   -1.2447    0.8375 H   0  0  0  0  0  0  0  0  0  0  0  0
    0.0272   -1.5197   -1.2637 C   0  0  0  0  0  0  0  0  0  0  0  0
   -0.4098   -2.3582   -1.8154 H   0  0  0  0  0  0  0  0  0  0  0  0
    0.1691   -0.7039   -1.9802 H   0  0  0  0  0  0  0  0  0  0  0  0
    1.3529   -1.9453   -0.6971 C   0  0  0  0  0  0  0  0  0  0  0  0
    1.7024   -3.2152   -0.3107 C   0  0  0  0  0  0  0  0  0  0  0  0
    1.0539   -4.0884   -0.3546 H   0  0  0  0  0  0  0  0  0  0  0  0
    3.0062   -3.1581    0.1786 N   0  0  0  0  0  0  0  0  0  0  0  0
    3.5203   -3.9469    0.5652 H   0  0  0  0  0  0  0  0  0  0  0  0
    3.4935   -1.8621    0.1097 C   0  0  0  0  0  0  0  0  0  0  0  0
    4.7189   -1.3064    0.4776 C   0  0  0  0  0  0  0  0  0  0  0  0
    5.4952   -1.9314    0.9051 H   0  0  0  0  0  0  0  0  0  0  0  0
    4.9328    0.0661    0.2849 C   0  0  0  0  0  0  0  0  0  0  0  0
    5.8837    0.5102    0.5639 H   0  0  0  0  0  0  0  0  0  0  0  0
    3.9218    0.8654   -0.2712 C   0  0  0  0  0  0  0  0  0  0  0  0
    4.0931    1.9266   -0.4239 H   0  0  0  0  0  0  0  0  0  0  0  0
    2.6926    0.2973   -0.6350 C   0  0  0  0  0  0  0  0  0  0  0  0
    1.9104    0.9112   -1.0701 H   0  0  0  0  0  0  0  0  0  0  0  0
    2.4887   -1.0725   -0.4372 C   0  0  0  0  0  0  0  0  0  0  0  0
   -1.2435    0.3976   -0.1842 C   0  0  0  0  0  0  0  0  0  0  0  0
   -2.1643    0.7838   -0.8956 O   0  0  0  0  0  0  0  0  0  0  0  0
   -0.5870    1.2965    0.6357 N   0  0  0  0  0  0  0  0  0  0  0  0
    0.1654    0.9357    1.2185 H   0  0  0  0  0  0  0  0  0  0  0  0
   -0.9037    2.7176    0.6872 C   0  0  0  0  0  0  0  0  0  0  0  0
   -1.9497    2.8666    0.9751 H   0  0  0  0  0  0  0  0  0  0  0  0
   -0.2688    3.2188    1.4239 H   0  0  0  0  0  0  0  0  0  0  0  0
   -0.7362    3.1835   -0.2894 H   0  0  0  0  0  0  0  0  0  0  0  0
  1  2  1  0  0  0  0
  2  3  1  0  0  0  0
  2  4  1  0  0  0  0
  2  5  1  0  0  0  0
  5  6  2  0  0  0  0
  5  7  1  0  0  0  0
  7  8  1  0  0  0  0
  7  9  1  0  0  0  0
  9 10  1  0  0  0  0
  9 11  1  0  0  0  0
  9 29  1  0  0  0  0
 11 12  1  0  0  0  0
 11 13  1  0  0  0  0
 11 14  1  0  0  0  0
 14 15  2  0  0  0  0
 14 28  1  0  0  0  0
 15 16  1  0  0  0  0
 15 17  1  0  0  0  0
 17 18  1  0  0  0  0
 17 19  1  0  0  0  0
 19 20  1  0  0  0  0
 19 28  2  0  0  0  0
 20 21  1  0  0  0  0
 20 22  2  0  0  0  0
 22 23  1  0  0  0  0
 22 24  1  0  0  0  0
 24 25  1  0  0  0  0
 24 26  2  0  0  0  0
 26 27  1  0  0  0  0
 26 28  1  0  0  0  0
 29 30  2  0  0  0  0
 29 31  1  0  0  0  0
 31 32  1  0  0  0  0
 31 33  1  0  0  0  0
 33 34  1  0  0  0  0
 33 35  1  0  0  0  0
 33 36  1  0  0  0  0
M  END
$$$$

  -OEChem-03222214083D

 36 37  0     1  0  0  0  0  0999 V2000
   -3.7161   -4.4923    1.4695 H   0  0  0  0  0  0  0  0  0  0  0  0
   -3.6900   -3.6945    0.7221 C   0  0  0  0  0  0  0  0  0  0  0  0
   -4.4784   -2.9732    0.9504 H   0  0  0  0  0  0  0  0  0  0  0  0
   -3.8759   -4.1279   -0.2635 H   0  0  0  0  0  0  0  0  0  0  0  0
   -2.3380   -3.0068    0.7382 C   0  0  0  0  0  0  0  0  0  0  0  0
   -1.4573   -3.4149    1.4772 O   0  0  0  0  0  0  0  0  0  0  0  0
   -2.1139   -1.9281   -0.0903 N   0  0  0  0  0  0  0  0  0  0  0  0
   -2.9095   -1.5754   -0.6196 H   0  0  0  0  0  0  0  0  0  0  0  0
   -0.9138   -1.0758   -0.0578 C   0  0  1  0  0  0  0  0  0  0  0  0
   -0.4071   -1.2185    0.9035 H   0  0  0  0  0  0  0  0  0  0  0  0
    0.0429   -1.4856   -1.1961 C   0  0  0  0  0  0  0  0  0  0  0  0
   -0.3882   -2.3118   -1.7708 H   0  0  0  0  0  0  0  0  0  0  0  0
    0.1977   -0.6564   -1.8943 H   0  0  0  0  0  0  0  0  0  0  0  0
    1.3673   -1.9178   -0.6266 C   0  0  0  0  0  0  0  0  0  0  0  0
    1.8212   -3.2090   -0.5188 C   0  0  0  0  0  0  0  0  0  0  0  0
    1.2627   -4.0991   -0.8009 H   0  0  0  0  0  0  0  0  0  0  0  0
    3.0936   -3.1611    0.0473 N   0  0  0  0  0  0  0  0  0  0  0  0
    3.6625   -3.9724    0.2793 H   0  0  0  0  0  0  0  0  0  0  0  0
    3.4721   -1.8478    0.2758 C   0  0  0  0  0  0  0  0  0  0  0  0
    4.6383   -1.2956    0.8056 C   0  0  0  0  0  0  0  0  0  0  0  0
    5.4449   -1.9394    1.1383 H   0  0  0  0  0  0  0  0  0  0  0  0
    4.7551    0.0987    0.8944 C   0  0  0  0  0  0  0  0  0  0  0  0
    5.6590    0.5418    1.3018 H   0  0  0  0  0  0  0  0  0  0  0  0
    3.7109    0.9223    0.4465 C   0  0  0  0  0  0  0  0  0  0  0  0
    3.8106    2.0021    0.5024 H   0  0  0  0  0  0  0  0  0  0  0  0
    2.5426    0.3556   -0.0820 C   0  0  0  0  0  0  0  0  0  0  0  0
    1.7438    0.9907   -0.4486 H   0  0  0  0  0  0  0  0  0  0  0  0
    2.4260   -1.0368   -0.1492 C   0  0  0  0  0  0  0  0  0  0  0  0
   -1.2826    0.4155   -0.1323 C   0  0  0  0  0  0  0  0  0  0  0  0
   -2.1707    0.7872   -0.8913 O   0  0  0  0  0  0  0  0  0  0  0  0
   -0.6767    1.3288    0.7104 N   0  0  0  0  0  0  0  0  0  0  0  0
    0.0318    0.9765    1.3504 H   0  0  0  0  0  0  0  0  0  0  0  0
   -1.0112    2.7467    0.7348 C   0  0  0  0  0  0  0  0  0  0  0  0
   -2.0684    2.8874    0.9832 H   0  0  0  0  0  0  0  0  0  0  0  0
   -0.4080    3.2637    1.4873 H   0  0  0  0  0  0  0  0  0  0  0  0
   -0.8135    3.2035   -0.2405 H   0  0  0  0  0  0  0  0  0  0  0  0
  1  2  1  0  0  0  0
  2  3  1  0  0  0  0
  2  4  1  0  0  0  0
  2  5  1  0  0  0  0
  5  6  2  0  0  0  0
  5  7  1  0  0  0  0
  7  8  1  0  0  0  0
  7  9  1  0  0  0  0
  9 10  1  0  0  0  0
  9 11  1  0  0  0  0
  9 29  1  0  0  0  0
 11 12  1  0  0  0  0
 11 13  1  0  0  0  0
 11 14  1  0  0  0  0
 14 15  2  0  0  0  0
 14 28  1  0  0  0  0
 15 16  1  0  0  0  0
 15 17  1  0  0  0  0
 17 18  1  0  0  0  0
 17 19  1  0  0  0  0
 19 20  1  0  0  0  0
 19 28  2  0  0  0  0
 20 21  1  0  0  0  0
 20 22  2  0  0  0  0
 22 23  1  0  0  0  0
 22 24  1  0  0  0  0
 24 25  1  0  0  0  0
 24 26  2  0  0  0  0
 26 27  1  0  0  0  0
 26 28  1  0  0  0  0
 29 30  2  0  0  0  0
 29 31  1  0  0  0  0
 31 32  1  0  0  0  0
 31 33  1  0  0  0  0
 33 34  1  0  0  0  0
 33 35  1  0  0  0  0
 33 36  1  0  0  0  0
M  END
$$$$

  -OEChem-03222214083D

 36 37  0     1  0  0  0  0  0999 V2000
   -3.7522   -4.5152    1.3752 H   0  0  0  0  0  0  0  0  0  0  0  0
   -3.7007   -3.7064    0.6407 C   0  0  0  0  0  0  0  0  0  0  0  0
   -4.5217   -3.0097    0.8263 H   0  0  0  0  0  0  0  0  0  0  0  0
   -3.8112   -4.1315   -0.3597 H   0  0  0  0  0  0  0  0  0  0  0  0
   -2.3723   -2.9824    0.7523 C   0  0  0  0  0  0  0  0  0  0  0  0
   -1.5514   -3.3430    1.5789 O   0  0  0  0  0  0  0  0  0  0  0  0
   -2.1104   -1.9110   -0.0743 N   0  0  0  0  0  0  0  0  0  0  0  0
   -2.8670   -1.5891   -0.6754 H   0  0  0  0  0  0  0  0  0  0  0  0
   -0.9223   -1.0455    0.0157 C   0  0  1  0  0  0  0  0  0  0  0  0
   -0.4436   -1.1717    0.9933 H   0  0  0  0  0  0  0  0  0  0  0  0
    0.0662   -1.4568   -1.1000 C   0  0  0  0  0  0  0  0  0  0  0  0
   -0.3579   -2.2660   -1.7035 H   0  0  0  0  0  0  0  0  0  0  0  0
    0.2416   -0.6143   -1.7770 H   0  0  0  0  0  0  0  0  0  0  0  0
    1.3905   -1.9018   -0.5321 C   0  0  0  0  0  0  0  0  0  0  0  0
    1.9404   -3.1487   -0.7066 C   0  0  0  0  0  0  0  0  0  0  0  0
    1.4639   -3.9808   -1.2199 H   0  0  0  0  0  0  0  0  0  0  0  0
    3.1851   -3.1570   -0.0829 N   0  0  0  0  0  0  0  0  0  0  0  0
    3.8066   -3.9604   -0.0211 H   0  0  0  0  0  0  0  0  0  0  0  0
    3.4688   -1.9069    0.4390 C   0  0  0  0  0  0  0  0  0  0  0  0
    4.5897   -1.4234    1.1138 C   0  0  0  0  0  0  0  0  0  0  0  0
    5.4204   -2.0840    1.3363 H   0  0  0  0  0  0  0  0  0  0  0  0
    4.6315   -0.0733    1.4876 C   0  0  0  0  0  0  0  0  0  0  0  0
    5.4992    0.3184    2.0099 H   0  0  0  0  0  0  0  0  0  0  0  0
    3.5620    0.7764    1.1687 C   0  0  0  0  0  0  0  0  0  0  0  0
    3.6071    1.8276    1.4373 H   0  0  0  0  0  0  0  0  0  0  0  0
    2.4406    0.2754    0.4926 C   0  0  0  0  0  0  0  0  0  0  0  0
    1.6344    0.9416    0.2151 H   0  0  0  0  0  0  0  0  0  0  0  0
    2.3868   -1.0807    0.1529 C   0  0  0  0  0  0  0  0  0  0  0  0
   -1.3439    0.4310   -0.1015 C   0  0  0  0  0  0  0  0  0  0  0  0
   -2.1852    0.7598   -0.9310 O   0  0  0  0  0  0  0  0  0  0  0  0
   -0.8274    1.3841    0.7564 N   0  0  0  0  0  0  0  0  0  0  0  0
   -0.2030    1.0600    1.4912 H   0  0  0  0  0  0  0  0  0  0  0  0
   -1.2418    2.7813    0.7471 C   0  0  0  0  0  0  0  0  0  0  0  0
   -2.3134    2.8652    0.9570 H   0  0  0  0  0  0  0  0  0  0  0  0
   -0.6949    3.3424    1.5108 H   0  0  0  0  0  0  0  0  0  0  0  0
   -1.0358    3.2353   -0.2280 H   0  0  0  0  0  0  0  0  0  0  0  0
  1  2  1  0  0  0  0
  2  3  1  0  0  0  0
  2  4  1  0  0  0  0
  2  5  1  0  0  0  0
  5  6  2  0  0  0  0
  5  7  1  0  0  0  0
  7  8  1  0  0  0  0
  7  9  1  0  0  0  0
  9 10  1  0  0  0  0
  9 11  1  0  0  0  0
  9 29  1  0  0  0  0
 11 12  1  0  0  0  0
 11 13  1  0  0  0  0
 11 14  1  0  0  0  0
 14 15  2  0  0  0  0
 14 28  1  0  0  0  0
 15 16  1  0  0  0  0
 15 17  1  0  0  0  0
 17 18  1  0  0  0  0
 17 19  1  0  0  0  0
 19 20  1  0  0  0  0
 19 28  2  0  0  0  0
 20 21  1  0  0  0  0
 20 22  2  0  0  0  0
 22 23  1  0  0  0  0
 22 24  1  0  0  0  0
 24 25  1  0  0  0  0
 24 26  2  0  0  0  0
 26 27  1  0  0  0  0
 26 28  1  0  0  0  0
 29 30  2  0  0  0  0
 29 31  1  0  0  0  0
 31 32  1  0  0  0  0
 31 33  1  0  0  0  0
 33 34  1  0  0  0  0
 33 35  1  0  0  0  0
 33 36  1  0  0  0  0
M  END
$$$$

  -OEChem-03222214083D

 36 37  0     1  0  0  0  0  0999 V2000
   -3.7733   -4.5116    1.3483 H   0  0  0  0  0  0  0  0  0  0  0  0
   -3.7007   -3.7127    0.6050 C   0  0  0  0  0  0  0  0  0  0  0  0
   -4.5546   -3.0415    0.7247 H   0  0  0  0  0  0  0  0  0  0  0  0
   -3.7313   -4.1566   -0.3929 H   0  0  0  0  0  0  0  0  0  0  0  0
   -2.4061   -2.9437    0.7902 C   0  0  0  0  0  0  0  0  0  0  0  0
   -1.6436   -3.2459    1.6926 O   0  0  0  0  0  0  0  0  0  0  0  0
   -2.1108   -1.8942   -0.0529 N   0  0  0  0  0  0  0  0  0  0  0  0
   -2.8283   -1.6106   -0.7181 H   0  0  0  0  0  0  0  0  0  0  0  0
   -0.9353   -1.0157    0.0713 C   0  0  1  0  0  0  0  0  0  0  0  0
   -0.4832   -1.1121    1.0640 H   0  0  0  0  0  0  0  0  0  0  0  0
    0.0810   -1.4303   -1.0202 C   0  0  0  0  0  0  0  0  0  0  0  0
   -0.3382   -2.2268   -1.6441 H   0  0  0  0  0  0  0  0  0  0  0  0
    0.2665   -0.5789   -1.6832 H   0  0  0  0  0  0  0  0  0  0  0  0
    1.4163   -1.8808   -0.4722 C   0  0  0  0  0  0  0  0  0  0  0  0
    2.0641   -3.0065   -0.9237 C   0  0  0  0  0  0  0  0  0  0  0  0
    1.6693   -3.7071   -1.6561 H   0  0  0  0  0  0  0  0  0  0  0  0
    3.2858   -3.0972   -0.2656 N   0  0  0  0  0  0  0  0  0  0  0  0
    3.9628   -3.8483   -0.3798 H   0  0  0  0  0  0  0  0  0  0  0  0
    3.4608   -2.0067    0.5664 C   0  0  0  0  0  0  0  0  0  0  0  0
    4.5287   -1.6526    1.3906 C   0  0  0  0  0  0  0  0  0  0  0  0
    5.3962   -2.2982    1.4695 H   0  0  0  0  0  0  0  0  0  0  0  0
    4.4689   -0.4490    2.1042 C   0  0  0  0  0  0  0  0  0  0  0  0
    5.2932   -0.1582    2.7487 H   0  0  0  0  0  0  0  0  0  0  0  0
    3.3512    0.3871    1.9733 C   0  0  0  0  0  0  0  0  0  0  0  0
    3.3154    1.3287    2.5130 H   0  0  0  0  0  0  0  0  0  0  0  0
    2.2852    0.0150    1.1416 C   0  0  0  0  0  0  0  0  0  0  0  0
    1.4415    0.6782    1.0243 H   0  0  0  0  0  0  0  0  0  0  0  0
    2.3302   -1.2015    0.4514 C   0  0  0  0  0  0  0  0  0  0  0  0
   -1.3986    0.4443   -0.1146 C   0  0  0  0  0  0  0  0  0  0  0  0
   -2.1961    0.7158   -1.0066 O   0  0  0  0  0  0  0  0  0  0  0  0
   -0.9647    1.4509    0.7279 N   0  0  0  0  0  0  0  0  0  0  0  0
   -0.4220    1.1727    1.5407 H   0  0  0  0  0  0  0  0  0  0  0  0
   -1.4434    2.8254    0.6415 C   0  0  0  0  0  0  0  0  0  0  0  0
   -2.5265    2.8654    0.7978 H   0  0  0  0  0  0  0  0  0  0  0  0
   -0.9601    3.4423    1.4051 H   0  0  0  0  0  0  0  0  0  0  0  0
   -1.2131    3.2506   -0.3410 H   0  0  0  0  0  0  0  0  0  0  0  0
  1  2  1  0  0  0  0
  2  3  1  0  0  0  0
  2  4  1  0  0  0  0
  2  5  1  0  0  0  0
  5  6  2  0  0  0  0
  5  7  1  0  0  0  0
  7  8  1  0  0  0  0
  7  9  1  0  0  0  0
  9 10  1  0  0  0  0
  9 11  1  0  0  0  0
  9 29  1  0  0  0  0
 11 12  1  0  0  0  0
 11 13  1  0  0  0  0
 11 14  1  0  0  0  0
 14 15  2  0  0  0  0
 14 28  1  0  0  0  0
 15 16  1  0  0  0  0
 15 17  1  0  0  0  0
 17 18  1  0  0  0  0
 17 19  1  0  0  0  0
 19 20  1  0  0  0  0
 19 28  2  0  0  0  0
 20 21  1  0  0  0  0
 20 22  2  0  0  0  0
 22 23  1  0  0  0  0
 22 24  1  0  0  0  0
 24 25  1  0  0  0  0
 24 26  2  0  0  0  0
 26 27  1  0  0  0  0
 26 28  1  0  0  0  0
 29 30  2  0  0  0  0
 29 31  1  0  0  0  0
 31 32  1  0  0  0  0
 31 33  1  0  0  0  0
 33 34  1  0  0  0  0
 33 35  1  0  0  0  0
 33 36  1  0  0  0  0
M  END
$$$$

  -OEChem-03222214083D

 36 37  0     1  0  0  0  0  0999 V2000
   -3.8242   -4.5280    1.3282 H   0  0  0  0  0  0  0  0  0  0  0  0
   -3.7462   -3.7290    0.5857 C   0  0  0  0  0  0  0  0  0  0  0  0
   -4.6123   -3.0702    0.6842 H   0  0  0  0  0  0  0  0  0  0  0  0
   -3.7466   -4.1748   -0.4118 H   0  0  0  0  0  0  0  0  0  0  0  0
   -2.4682   -2.9403    0.8002 C   0  0  0  0  0  0  0  0  0  0  0  0
   -1.7389   -3.2105    1.7394 O   0  0  0  0  0  0  0  0  0  0  0  0
   -2.1545   -1.9056   -0.0552 N   0  0  0  0  0  0  0  0  0  0  0  0
   -2.8480   -1.6493   -0.7555 H   0  0  0  0  0  0  0  0  0  0  0  0
   -0.9839   -1.0221    0.0792 C   0  0  1  0  0  0  0  0  0  0  0  0
   -0.5701   -1.1120    1.0860 H   0  0  0  0  0  0  0  0  0  0  0  0
    0.0713   -1.4307   -0.9749 C   0  0  0  0  0  0  0  0  0  0  0  0
   -0.3278   -2.2341   -1.6027 H   0  0  0  0  0  0  0  0  0  0  0  0
    0.2571   -0.5809   -1.6402 H   0  0  0  0  0  0  0  0  0  0  0  0
    1.4148   -1.8656   -0.4260 C   0  0  0  0  0  0  0  0  0  0  0  0
    2.1885   -2.7873   -1.0921 C   0  0  0  0  0  0  0  0  0  0  0  0
    1.8984   -3.3098   -2.0008 H   0  0  0  0  0  0  0  0  0  0  0  0
    3.3879   -2.9298   -0.4059 N   0  0  0  0  0  0  0  0  0  0  0  0
    4.1428   -3.5632   -0.6602 H   0  0  0  0  0  0  0  0  0  0  0  0
    3.4165   -2.0765    0.6804 C   0  0  0  0  0  0  0  0  0  0  0  0
    4.4172   -1.8624    1.6277 C   0  0  0  0  0  0  0  0  0  0  0  0
    5.3434   -2.4243    1.5821 H   0  0  0  0  0  0  0  0  0  0  0  0
    4.2108   -0.9120    2.6338 C   0  0  0  0  0  0  0  0  0  0  0  0
    4.9790   -0.7345    3.3805 H   0  0  0  0  0  0  0  0  0  0  0  0
    3.0122   -0.1879    2.6734 C   0  0  0  0  0  0  0  0  0  0  0  0
    2.8543    0.5510    3.4531 H   0  0  0  0  0  0  0  0  0  0  0  0
    2.0166   -0.4150    1.7123 C   0  0  0  0  0  0  0  0  0  0  0  0
    1.1034    0.1585    1.7586 H   0  0  0  0  0  0  0  0  0  0  0  0
    2.2117   -1.3754    0.7097 C   0  0  0  0  0  0  0  0  0  0  0  0
   -1.4250    0.4404   -0.1416 C   0  0  0  0  0  0  0  0  0  0  0  0
   -2.2031    0.7036   -1.0530 O   0  0  0  0  0  0  0  0  0  0  0  0
   -0.9992    1.4577    0.6924 N   0  0  0  0  0  0  0  0  0  0  0  0
   -0.4218    1.2037    1.4873 H   0  0  0  0  0  0  0  0  0  0  0  0
   -1.4246    2.8444    0.5482 C   0  0  0  0  0  0  0  0  0  0  0  0
   -2.5144    2.9217    0.6220 H   0  0  0  0  0  0  0  0  0  0  0  0
   -0.9807    3.4588    1.3373 H   0  0  0  0  0  0  0  0  0  0  0  0
   -1.1070    3.2440   -0.4206 H   0  0  0  0  0  0  0  0  0  0  0  0
  1  2  1  0  0  0  0
  2  3  1  0  0  0  0
  2  4  1  0  0  0  0
  2  5  1  0  0  0  0
  5  6  2  0  0  0  0
  5  7  1  0  0  0  0
  7  8  1  0  0  0  0
  7  9  1  0  0  0  0
  9 10  1  0  0  0  0
  9 11  1  0  0  0  0
  9 29  1  0  0  0  0
 11 12  1  0  0  0  0
 11 13  1  0  0  0  0
 11 14  1  0  0  0  0
 14 15  2  0  0  0  0
 14 28  1  0  0  0  0
 15 16  1  0  0  0  0
 15 17  1  0  0  0  0
 17 18  1  0  0  0  0
 17 19  1  0  0  0  0
 19 20  1  0  0  0  0
 19 28  2  0  0  0  0
 20 21  1  0  0  0  0
 20 22  2  0  0  0  0
 22 23  1  0  0  0  0
 22 24  1  0  0  0  0
 24 25  1  0  0  0  0
 24 26  2  0  0  0  0
 26 27  1  0  0  0  0
 26 28  1  0  0  0  0
 29 30  2  0  0  0  0
 29 31  1  0  0  0  0
 31 32  1  0  0  0  0
 31 33  1  0  0  0  0
 33 34  1  0  0  0  0
 33 35  1  0  0  0  0
 33 36  1  0  0  0  0
M  END
$$$$

  -OEChem-03222214083D

 36 37  0     1  0  0  0  0  0999 V2000
   -3.9358   -4.5517    1.2443 H   0  0  0  0  0  0  0  0  0  0  0  0
   -3.8447   -3.7441    0.5123 C   0  0  0  0  0  0  0  0  0  0  0  0
   -4.7031   -3.0761    0.6157 H   0  0  0  0  0  0  0  0  0  0  0  0
   -3.8462   -4.1768   -0.4909 H   0  0  0  0  0  0  0  0  0  0  0  0
   -2.5583   -2.9733    0.7416 C   0  0  0  0  0  0  0  0  0  0  0  0
   -1.8380   -3.2612    1.6826 O   0  0  0  0  0  0  0  0  0  0  0  0
   -2.2295   -1.9324   -0.1013 N   0  0  0  0  0  0  0  0  0  0  0  0
   -2.9191   -1.6624   -0.8000 H   0  0  0  0  0  0  0  0  0  0  0  0
   -1.0555   -1.0557    0.0488 C   0  0  1  0  0  0  0  0  0  0  0  0
   -0.6925   -1.1637    1.0669 H   0  0  0  0  0  0  0  0  0  0  0  0
    0.0471   -1.4682   -0.9490 C   0  0  0  0  0  0  0  0  0  0  0  0
   -0.3240   -2.2913   -1.5685 H   0  0  0  0  0  0  0  0  0  0  0  0
    0.2409   -0.6328   -1.6303 H   0  0  0  0  0  0  0  0  0  0  0  0
    1.3831   -1.8879   -0.3628 C   0  0  0  0  0  0  0  0  0  0  0  0
    2.2823   -2.5564   -1.1612 C   0  0  0  0  0  0  0  0  0  0  0  0
    2.0936   -2.8785   -2.1828 H   0  0  0  0  0  0  0  0  0  0  0  0
    3.4574   -2.7372   -0.4466 N   0  0  0  0  0  0  0  0  0  0  0  0
    4.2892   -3.2154   -0.7858 H   0  0  0  0  0  0  0  0  0  0  0  0
    3.3460   -2.1527    0.7988 C   0  0  0  0  0  0  0  0  0  0  0  0
    4.2928   -2.0721    1.8191 C   0  0  0  0  0  0  0  0  0  0  0  0
    5.2721   -2.5206    1.6950 H   0  0  0  0  0  0  0  0  0  0  0  0
    3.9632   -1.4030    3.0012 C   0  0  0  0  0  0  0  0  0  0  0  0
    4.6869   -1.3328    3.8076 H   0  0  0  0  0  0  0  0  0  0  0  0
    2.6973   -0.8231    3.1408 C   0  0  0  0  0  0  0  0  0  0  0  0
    2.4408   -0.3048    4.0598 H   0  0  0  0  0  0  0  0  0  0  0  0
    1.7571   -0.9120    2.1043 C   0  0  0  0  0  0  0  0  0  0  0  0
    0.7951   -0.4472    2.2619 H   0  0  0  0  0  0  0  0  0  0  0  0
    2.0719   -1.5916    0.9129 C   0  0  0  0  0  0  0  0  0  0  0  0
   -1.4386    0.4225   -0.1557 C   0  0  0  0  0  0  0  0  0  0  0  0
   -2.2265    0.7248   -1.0456 O   0  0  0  0  0  0  0  0  0  0  0  0
   -0.9757    1.4021    0.7034 N   0  0  0  0  0  0  0  0  0  0  0  0
   -0.2948    1.1272    1.4050 H   0  0  0  0  0  0  0  0  0  0  0  0
   -1.3063    2.8143    0.5591 C   0  0  0  0  0  0  0  0  0  0  0  0
   -2.3900    2.9617    0.6121 H   0  0  0  0  0  0  0  0  0  0  0  0
   -0.8404    3.3956    1.3606 H   0  0  0  0  0  0  0  0  0  0  0  0
   -0.9443    3.1966   -0.4012 H   0  0  0  0  0  0  0  0  0  0  0  0
  1  2  1  0  0  0  0
  2  3  1  0  0  0  0
  2  4  1  0  0  0  0
  2  5  1  0  0  0  0
  5  6  2  0  0  0  0
  5  7  1  0  0  0  0
  7  8  1  0  0  0  0
  7  9  1  0  0  0  0
  9 10  1  0  0  0  0
  9 11  1  0  0  0  0
  9 29  1  0  0  0  0
 11 12  1  0  0  0  0
 11 13  1  0  0  0  0
 11 14  1  0  0  0  0
 14 15  2  0  0  0  0
 14 28  1  0  0  0  0
 15 16  1  0  0  0  0
 15 17  1  0  0  0  0
 17 18  1  0  0  0  0
 17 19  1  0  0  0  0
 19 20  1  0  0  0  0
 19 28  2  0  0  0  0
 20 21  1  0  0  0  0
 20 22  2  0  0  0  0
 22 23  1  0  0  0  0
 22 24  1  0  0  0  0
 24 25  1  0  0  0  0
 24 26  2  0  0  0  0
 26 27  1  0  0  0  0
 26 28  1  0  0  0  0
 29 30  2  0  0  0  0
 29 31  1  0  0  0  0
 31 32  1  0  0  0  0
 31 33  1  0  0  0  0
 33 34  1  0  0  0  0
 33 35  1  0  0  0  0
 33 36  1  0  0  0  0
M  END
$$$$

  -OEChem-03222214083D

 36 37  0     1  0  0  0  0  0999 V2000
   -3.9845   -4.4102    1.3414 H   0  0  0  0  0  0  0  0  0  0  0  0
   -3.8365   -3.6586    0.5608 C   0  0  0  0  0  0  0  0  0  0  0  0
   -4.7220   -3.0203    0.5127 H   0  0  0  0  0  0  0  0  0  0  0  0
   -3.7100   -4.1682   -0.3974 H   0  0  0  0  0  0  0  0  0  0  0  0
   -2.6104   -2.8201    0.8689 C   0  0  0  0  0  0  0  0  0  0  0  0
   -2.0264   -2.9681    1.9283 O   0  0  0  0  0  0  0  0  0  0  0  0
   -2.2139   -1.8447   -0.0200 N   0  0  0  0  0  0  0  0  0  0  0  0
   -2.8136   -1.6791   -0.8257 H   0  0  0  0  0  0  0  0  0  0  0  0
   -1.0361   -0.9715    0.1235 C   0  0  1  0  0  0  0  0  0  0  0  0
   -0.6710   -0.9643    1.1469 H   0  0  0  0  0  0  0  0  0  0  0  0
    0.0725   -1.4222   -0.8543 C   0  0  0  0  0  0  0  0  0  0  0  0
   -0.3813   -2.0375   -1.6381 H   0  0  0  0  0  0  0  0  0  0  0  0
    0.4745   -0.5345   -1.3550 H   0  0  0  0  0  0  0  0  0  0  0  0
    1.2738   -2.1703   -0.3019 C   0  0  0  0  0  0  0  0  0  0  0  0
    2.2518   -2.5639   -1.1870 C   0  0  0  0  0  0  0  0  0  0  0  0
    2.2287   -2.3957   -2.2615 H   0  0  0  0  0  0  0  0  0  0  0  0
    3.2647   -3.1913   -0.4780 N   0  0  0  0  0  0  0  0  0  0  0  0
    4.1118   -3.5880   -0.8790 H   0  0  0  0  0  0  0  0  0  0  0  0
    2.9514   -3.2155    0.8657 C   0  0  0  0  0  0  0  0  0  0  0  0
    3.6862   -3.7490    1.9241 C   0  0  0  0  0  0  0  0  0  0  0  0
    4.6457   -4.2203    1.7431 H   0  0  0  0  0  0  0  0  0  0  0  0
    3.1661   -3.6727    3.2191 C   0  0  0  0  0  0  0  0  0  0  0  0
    3.7208   -4.0856    4.0563 H   0  0  0  0  0  0  0  0  0  0  0  0
    1.9208   -3.0705    3.4300 C   0  0  0  0  0  0  0  0  0  0  0  0
    1.5045   -3.0217    4.4316 H   0  0  0  0  0  0  0  0  0  0  0  0
    1.1960   -2.5384    2.3540 C   0  0  0  0  0  0  0  0  0  0  0  0
    0.2314   -2.1031    2.5727 H   0  0  0  0  0  0  0  0  0  0  0  0
    1.7105   -2.5981    1.0462 C   0  0  0  0  0  0  0  0  0  0  0  0
   -1.4335    0.4792   -0.2141 C   0  0  0  0  0  0  0  0  0  0  0  0
   -2.1411    0.7079   -1.1898 O   0  0  0  0  0  0  0  0  0  0  0  0
   -1.0220    1.5261    0.5900 N   0  0  0  0  0  0  0  0  0  0  0  0
   -0.4473    1.3009    1.3978 H   0  0  0  0  0  0  0  0  0  0  0  0
   -1.3736    2.9178    0.3379 C   0  0  0  0  0  0  0  0  0  0  0  0
   -2.4600    3.0511    0.3704 H   0  0  0  0  0  0  0  0  0  0  0  0
   -0.9234    3.5643    1.0972 H   0  0  0  0  0  0  0  0  0  0  0  0
   -1.0083    3.2333   -0.6449 H   0  0  0  0  0  0  0  0  0  0  0  0
  1  2  1  0  0  0  0
  2  3  1  0  0  0  0
  2  4  1  0  0  0  0
  2  5  1  0  0  0  0
  5  6  2  0  0  0  0
  5  7  1  0  0  0  0
  7  8  1  0  0  0  0
  7  9  1  0  0  0  0
  9 10  1  0  0  0  0
  9 11  1  0  0  0  0
  9 29  1  0  0  0  0
 11 12  1  0  0  0  0
 11 13  1  0  0  0  0
 11 14  1  0  0  0  0
 14 15  2  0  0  0  0
 14 28  1  0  0  0  0
 15 16  1  0  0  0  0
 15 17  1  0  0  0  0
 17 18  1  0  0  0  0
 17 19  1  0  0  0  0
 19 20  1  0  0  0  0
 19 28  2  0  0  0  0
 20 21  1  0  0  0  0
 20 22  2  0  0  0  0
 22 23  1  0  0  0  0
 22 24  1  0  0  0  0
 24 25  1  0  0  0  0
 24 26  2  0  0  0  0
 26 27  1  0  0  0  0
 26 28  1  0  0  0  0
 29 30  2  0  0  0  0
 29 31  1  0  0  0  0
 31 32  1  0  0  0  0
 31 33  1  0  0  0  0
 33 34  1  0  0  0  0
 33 35  1  0  0  0  0
 33 36  1  0  0  0  0
M  END
$$$$

  -OEChem-03222214083D

 36 37  0     1  0  0  0  0  0999 V2000
   -4.1394   -4.3989    1.2010 H   0  0  0  0  0  0  0  0  0  0  0  0
   -3.9065   -3.6622    0.4270 C   0  0  0  0  0  0  0  0  0  0  0  0
   -4.7893   -3.0421    0.2529 H   0  0  0  0  0  0  0  0  0  0  0  0
   -3.6511   -4.1907   -0.4946 H   0  0  0  0  0  0  0  0  0  0  0  0
   -2.7425   -2.7941    0.8650 C   0  0  0  0  0  0  0  0  0  0  0  0
   -2.3161   -2.8898    2.0011 O   0  0  0  0  0  0  0  0  0  0  0  0
   -2.2650   -1.8254    0.0103 N   0  0  0  0  0  0  0  0  0  0  0  0
   -2.7724   -1.7082   -0.8639 H   0  0  0  0  0  0  0  0  0  0  0  0
   -1.0597   -0.9897    0.1760 C   0  0  1  0  0  0  0  0  0  0  0  0
   -0.6920   -1.0177    1.2029 H   0  0  0  0  0  0  0  0  0  0  0  0
    0.0349   -1.4653   -0.8138 C   0  0  0  0  0  0  0  0  0  0  0  0
   -0.4457   -2.0628   -1.5951 H   0  0  0  0  0  0  0  0  0  0  0  0
    0.4528   -0.5865   -1.3180 H   0  0  0  0  0  0  0  0  0  0  0  0
    1.2219   -2.2617   -0.2998 C   0  0  0  0  0  0  0  0  0  0  0  0
    2.3162   -2.3997   -1.1245 C   0  0  0  0  0  0  0  0  0  0  0  0
    2.3871   -2.0149   -2.1396 H   0  0  0  0  0  0  0  0  0  0  0  0
    3.2960   -3.1121   -0.4492 N   0  0  0  0  0  0  0  0  0  0  0  0
    4.2073   -3.3682   -0.8229 H   0  0  0  0  0  0  0  0  0  0  0  0
    2.8637   -3.4100    0.8268 C   0  0  0  0  0  0  0  0  0  0  0  0
    3.5302   -4.0862    1.8482 C   0  0  0  0  0  0  0  0  0  0  0  0
    4.5280   -4.4782    1.6866 H   0  0  0  0  0  0  0  0  0  0  0  0
    2.8955   -4.2465    3.0839 C   0  0  0  0  0  0  0  0  0  0  0  0
    3.3966   -4.7712    3.8919 H   0  0  0  0  0  0  0  0  0  0  0  0
    1.6128   -3.7201    3.2767 C   0  0  0  0  0  0  0  0  0  0  0  0
    1.1147   -3.8346    4.2348 H   0  0  0  0  0  0  0  0  0  0  0  0
    0.9612   -3.0412    2.2378 C   0  0  0  0  0  0  0  0  0  0  0  0
   -0.0181   -2.6351    2.4320 H   0  0  0  0  0  0  0  0  0  0  0  0
    1.5773   -2.8903    0.9875 C   0  0  0  0  0  0  0  0  0  0  0  0
   -1.4033    0.4735   -0.1662 C   0  0  0  0  0  0  0  0  0  0  0  0
   -2.0692    0.7290   -1.1645 O   0  0  0  0  0  0  0  0  0  0  0  0
   -0.9716    1.5041    0.6478 N   0  0  0  0  0  0  0  0  0  0  0  0
   -0.4519    1.2552    1.4854 H   0  0  0  0  0  0  0  0  0  0  0  0
   -1.2945    2.9045    0.4064 C   0  0  0  0  0  0  0  0  0  0  0  0
   -2.3787    3.0568    0.4295 H   0  0  0  0  0  0  0  0  0  0  0  0
   -0.8398    3.5353    1.1762 H   0  0  0  0  0  0  0  0  0  0  0  0
   -0.9141    3.2230   -0.5698 H   0  0  0  0  0  0  0  0  0  0  0  0
  1  2  1  0  0  0  0
  2  3  1  0  0  0  0
  2  4  1  0  0  0  0
  2  5  1  0  0  0  0
  5  6  2  0  0  0  0
  5  7  1  0  0  0  0
  7  8  1  0  0  0  0
  7  9  1  0  0  0  0
  9 10  1  0  0  0  0
  9 11  1  0  0  0  0
  9 29  1  0  0  0  0
 11 12  1  0  0  0  0
 11 13  1  0  0  0  0
 11 14  1  0  0  0  0
 14 15  2  0  0  0  0
 14 28  1  0  0  0  0
 15 16  1  0  0  0  0
 15 17  1  0  0  0  0
 17 18  1  0  0  0  0
 17 19  1  0  0  0  0
 19 20  1  0  0  0  0
 19 28  2  0  0  0  0
 20 21  1  0  0  0  0
 20 22  2  0  0  0  0
 22 23  1  0  0  0  0
 22 24  1  0  0  0  0
 24 25  1  0  0  0  0
 24 26  2  0  0  0  0
 26 27  1  0  0  0  0
 26 28  1  0  0  0  0
 29 30  2  0  0  0  0
 29 31  1  0  0  0  0
 31 32  1  0  0  0  0
 31 33  1  0  0  0  0
 33 34  1  0  0  0  0
 33 35  1  0  0  0  0
 33 36  1  0  0  0  0
M  END
$$$$

  -OEChem-03222214083D

 36 37  0     1  0  0  0  0  0999 V2000
   -4.1138   -4.2858    1.6271 H   0  0  0  0  0  0  0  0  0  0  0  0
   -3.8597   -3.6632    0.7647 C   0  0  0  0  0  0  0  0  0  0  0  0
   -4.7534   -3.1220    0.4450 H   0  0  0  0  0  0  0  0  0  0  0  0
   -3.5227   -4.3106   -0.0484 H   0  0  0  0  0  0  0  0  0  0  0  0
   -2.7637   -2.6817    1.1337 C   0  0  0  0  0  0  0  0  0  0  0  0
   -2.4105   -2.5762    2.2958 O   0  0  0  0  0  0  0  0  0  0  0  0
   -2.3077   -1.7852    0.1945 N   0  0  0  0  0  0  0  0  0  0  0  0
   -2.7855   -1.8006   -0.7034 H   0  0  0  0  0  0  0  0  0  0  0  0
   -1.0819   -0.9641    0.2588 C   0  0  1  0  0  0  0  0  0  0  0  0
   -0.6590   -0.9548    1.2683 H   0  0  0  0  0  0  0  0  0  0  0  0
   -0.0233   -1.4639   -0.7694 C   0  0  0  0  0  0  0  0  0  0  0  0
   -0.5426   -2.0937   -1.4988 H   0  0  0  0  0  0  0  0  0  0  0  0
    0.3566   -0.6034   -1.3321 H   0  0  0  0  0  0  0  0  0  0  0  0
    1.1965   -2.2444   -0.3060 C   0  0  0  0  0  0  0  0  0  0  0  0
    2.3600   -2.1331   -1.0373 C   0  0  0  0  0  0  0  0  0  0  0  0
    2.4833   -1.5250   -1.9311 H   0  0  0  0  0  0  0  0  0  0  0  0
    3.3368   -2.9233   -0.4493 N   0  0  0  0  0  0  0  0  0  0  0  0
    4.2915   -3.0345   -0.7846 H   0  0  0  0  0  0  0  0  0  0  0  0
    2.8202   -3.5569    0.6620 C   0  0  0  0  0  0  0  0  0  0  0  0
    3.4355   -4.4402    1.5492 C   0  0  0  0  0  0  0  0  0  0  0  0
    4.4744   -4.7186    1.4133 H   0  0  0  0  0  0  0  0  0  0  0  0
    2.6931   -4.9602    2.6149 C   0  0  0  0  0  0  0  0  0  0  0  0
    3.1533   -5.6488    3.3172 H   0  0  0  0  0  0  0  0  0  0  0  0
    1.3525   -4.5876    2.7724 C   0  0  0  0  0  0  0  0  0  0  0  0
    0.7691   -4.9844    3.5981 H   0  0  0  0  0  0  0  0  0  0  0  0
    0.7555   -3.6989    1.8673 C   0  0  0  0  0  0  0  0  0  0  0  0
   -0.2739   -3.4255    2.0057 H   0  0  0  0  0  0  0  0  0  0  0  0
    1.4857   -3.1718    0.7997 C   0  0  0  0  0  0  0  0  0  0  0  0
   -1.4319    0.4773   -0.1682 C   0  0  0  0  0  0  0  0  0  0  0  0
   -2.1135    0.6759   -1.1691 O   0  0  0  0  0  0  0  0  0  0  0  0
   -0.9597    1.5548    0.5580 N   0  0  0  0  0  0  0  0  0  0  0  0
   -0.4520    1.3533    1.4153 H   0  0  0  0  0  0  0  0  0  0  0  0
   -1.2888    2.9391    0.2424 C   0  0  0  0  0  0  0  0  0  0  0  0
   -2.3697    3.1008    0.3097 H   0  0  0  0  0  0  0  0  0  0  0  0
   -0.7933    3.6149    0.9460 H   0  0  0  0  0  0  0  0  0  0  0  0
   -0.9563    3.1914   -0.7699 H   0  0  0  0  0  0  0  0  0  0  0  0
  1  2  1  0  0  0  0
  2  3  1  0  0  0  0
  2  4  1  0  0  0  0
  2  5  1  0  0  0  0
  5  6  2  0  0  0  0
  5  7  1  0  0  0  0
  7  8  1  0  0  0  0
  7  9  1  0  0  0  0
  9 10  1  0  0  0  0
  9 11  1  0  0  0  0
  9 29  1  0  0  0  0
 11 12  1  0  0  0  0
 11 13  1  0  0  0  0
 11 14  1  0  0  0  0
 14 15  2  0  0  0  0
 14 28  1  0  0  0  0
 15 16  1  0  0  0  0
 15 17  1  0  0  0  0
 17 18  1  0  0  0  0
 17 19  1  0  0  0  0
 19 20  1  0  0  0  0
 19 28  2  0  0  0  0
 20 21  1  0  0  0  0
 20 22  2  0  0  0  0
 22 23  1  0  0  0  0
 22 24  1  0  0  0  0
 24 25  1  0  0  0  0
 24 26  2  0  0  0  0
 26 27  1  0  0  0  0
 26 28  1  0  0  0  0
 29 30  2  0  0  0  0
 29 31  1  0  0  0  0
 31 32  1  0  0  0  0
 31 33  1  0  0  0  0
 33 34  1  0  0  0  0
 33 35  1  0  0  0  0
 33 36  1  0  0  0  0
M  END
$$$$

  -OEChem-03222214083D

 36 37  0     1  0  0  0  0  0999 V2000
   -4.0642   -4.3009    1.5666 H   0  0  0  0  0  0  0  0  0  0  0  0
   -3.8647   -3.6179    0.7361 C   0  0  0  0  0  0  0  0  0  0  0  0
   -4.7520   -3.0043    0.5625 H   0  0  0  0  0  0  0  0  0  0  0  0
   -3.6550   -4.2063   -0.1605 H   0  0  0  0  0  0  0  0  0  0  0  0
   -2.6787   -2.7307    1.0627 C   0  0  0  0  0  0  0  0  0  0  0  0
   -2.1776   -2.7695    2.1740 O   0  0  0  0  0  0  0  0  0  0  0  0
   -2.2419   -1.8093    0.1380 N   0  0  0  0  0  0  0  0  0  0  0  0
   -2.7909   -1.7175   -0.7142 H   0  0  0  0  0  0  0  0  0  0  0  0
   -1.0280   -0.9777    0.2316 C   0  0  1  0  0  0  0  0  0  0  0  0
   -0.6320   -0.9778    1.2528 H   0  0  0  0  0  0  0  0  0  0  0  0
    0.0875   -1.4097   -0.7643 C   0  0  0  0  0  0  0  0  0  0  0  0
   -0.3684   -2.0493   -1.5265 H   0  0  0  0  0  0  0  0  0  0  0  0
    0.4704   -0.5291   -1.2925 H   0  0  0  0  0  0  0  0  0  0  0  0
    1.2825   -2.1540   -0.1995 C   0  0  0  0  0  0  0  0  0  0  0  0
    2.5587   -1.8038   -0.5830 C   0  0  0  0  0  0  0  0  0  0  0  0
    2.8116   -0.9705   -1.2354 H   0  0  0  0  0  0  0  0  0  0  0  0
    3.4582   -2.6738    0.0187 N   0  0  0  0  0  0  0  0  0  0  0  0
    4.4705   -2.6420   -0.0805 H   0  0  0  0  0  0  0  0  0  0  0  0
    2.7738   -3.6405    0.7278 C   0  0  0  0  0  0  0  0  0  0  0  0
    3.2535   -4.7356    1.4465 C   0  0  0  0  0  0  0  0  0  0  0  0
    4.3201   -4.9045    1.5427 H   0  0  0  0  0  0  0  0  0  0  0  0
    2.3385   -5.6181    2.0322 C   0  0  0  0  0  0  0  0  0  0  0  0
    2.6909   -6.4750    2.5985 H   0  0  0  0  0  0  0  0  0  0  0  0
    0.9642   -5.4020    1.8698 C   0  0  0  0  0  0  0  0  0  0  0  0
    0.2490   -6.0925    2.3059 H   0  0  0  0  0  0  0  0  0  0  0  0
    0.5041   -4.2963    1.1414 C   0  0  0  0  0  0  0  0  0  0  0  0
   -0.5548   -4.1659    0.9945 H   0  0  0  0  0  0  0  0  0  0  0  0
    1.4098   -3.3846    0.5927 C   0  0  0  0  0  0  0  0  0  0  0  0
   -1.4025    0.4655   -0.1638 C   0  0  0  0  0  0  0  0  0  0  0  0
   -2.0986    0.6725   -1.1529 O   0  0  0  0  0  0  0  0  0  0  0  0
   -0.9545    1.5346    0.5896 N   0  0  0  0  0  0  0  0  0  0  0  0
   -0.4400    1.3231    1.4406 H   0  0  0  0  0  0  0  0  0  0  0  0
   -1.3165    2.9184    0.3095 C   0  0  0  0  0  0  0  0  0  0  0  0
   -2.4003    3.0542    0.3867 H   0  0  0  0  0  0  0  0  0  0  0  0
   -0.8319    3.5886    1.0261 H   0  0  0  0  0  0  0  0  0  0  0  0
   -0.9961    3.2017   -0.6985 H   0  0  0  0  0  0  0  0  0  0  0  0
  1  2  1  0  0  0  0
  2  3  1  0  0  0  0
  2  4  1  0  0  0  0
  2  5  1  0  0  0  0
  5  6  2  0  0  0  0
  5  7  1  0  0  0  0
  7  8  1  0  0  0  0
  7  9  1  0  0  0  0
  9 10  1  0  0  0  0
  9 11  1  0  0  0  0
  9 29  1  0  0  0  0
 11 12  1  0  0  0  0
 11 13  1  0  0  0  0
 11 14  1  0  0  0  0
 14 15  2  0  0  0  0
 14 28  1  0  0  0  0
 15 16  1  0  0  0  0
 15 17  1  0  0  0  0
 17 18  1  0  0  0  0
 17 19  1  0  0  0  0
 19 20  1  0  0  0  0
 19 28  2  0  0  0  0
 20 21  1  0  0  0  0
 20 22  2  0  0  0  0
 22 23  1  0  0  0  0
 22 24  1  0  0  0  0
 24 25  1  0  0  0  0
 24 26  2  0  0  0  0
 26 27  1  0  0  0  0
 26 28  1  0  0  0  0
 29 30  2  0  0  0  0
 29 31  1  0  0  0  0
 31 32  1  0  0  0  0
 31 33  1  0  0  0  0
 33 34  1  0  0  0  0
 33 35  1  0  0  0  0
 33 36  1  0  0  0  0
M  END
$$$$

  -OEChem-03222214083D

 36 37  0     1  0  0  0  0  0999 V2000
   -3.9486   -4.3469    1.6293 H   0  0  0  0  0  0  0  0  0  0  0  0
   -3.8223   -3.6226    0.8195 C   0  0  0  0  0  0  0  0  0  0  0  0
   -4.7001   -2.9725    0.7881 H   0  0  0  0  0  0  0  0  0  0  0  0
   -3.7432   -4.1633   -0.1267 H   0  0  0  0  0  0  0  0  0  0  0  0
   -2.5723   -2.7945    1.0500 C   0  0  0  0  0  0  0  0  0  0  0  0
   -1.9395   -2.9270    2.0834 O   0  0  0  0  0  0  0  0  0  0  0  0
   -2.1975   -1.8522    0.1174 N   0  0  0  0  0  0  0  0  0  0  0  0
   -2.8280   -1.6972   -0.6666 H   0  0  0  0  0  0  0  0  0  0  0  0
   -0.9864   -1.0149    0.1704 C   0  0  1  0  0  0  0  0  0  0  0  0
   -0.5548   -1.0275    1.1770 H   0  0  0  0  0  0  0  0  0  0  0  0
    0.0892   -1.4559   -0.8573 C   0  0  0  0  0  0  0  0  0  0  0  0
   -0.3767   -2.0998   -1.6100 H   0  0  0  0  0  0  0  0  0  0  0  0
    0.4745   -0.5806   -1.3922 H   0  0  0  0  0  0  0  0  0  0  0  0
    1.2676   -2.1901   -0.2583 C   0  0  0  0  0  0  0  0  0  0  0  0
    2.5592   -1.7257   -0.3615 C   0  0  0  0  0  0  0  0  0  0  0  0
    2.8538   -0.7794   -0.8095 H   0  0  0  0  0  0  0  0  0  0  0  0
    3.4081   -2.6661    0.2110 N   0  0  0  0  0  0  0  0  0  0  0  0
    4.4199   -2.5836    0.2848 H   0  0  0  0  0  0  0  0  0  0  0  0
    2.6844   -3.7720    0.6178 C   0  0  0  0  0  0  0  0  0  0  0  0
    3.1015   -4.9722    1.1936 C   0  0  0  0  0  0  0  0  0  0  0  0
    4.1486   -5.1354    1.4220 H   0  0  0  0  0  0  0  0  0  0  0  0
    2.1510   -5.9647    1.4635 C   0  0  0  0  0  0  0  0  0  0  0  0
    2.4573   -6.9039    1.9137 H   0  0  0  0  0  0  0  0  0  0  0  0
    0.8041   -5.7483    1.1405 C   0  0  0  0  0  0  0  0  0  0  0  0
    0.0666   -6.5196    1.3398 H   0  0  0  0  0  0  0  0  0  0  0  0
    0.4029   -4.5366    0.5600 C   0  0  0  0  0  0  0  0  0  0  0  0
   -0.6331   -4.3842    0.2926 H   0  0  0  0  0  0  0  0  0  0  0  0
    1.3451   -3.5322    0.3210 C   0  0  0  0  0  0  0  0  0  0  0  0
   -1.3674    0.4380   -0.1749 C   0  0  0  0  0  0  0  0  0  0  0  0
   -2.1181    0.6702   -1.1169 O   0  0  0  0  0  0  0  0  0  0  0  0
   -0.8776    1.4862    0.5820 N   0  0  0  0  0  0  0  0  0  0  0  0
   -0.3182    1.2518    1.3978 H   0  0  0  0  0  0  0  0  0  0  0  0
   -1.2359    2.8794    0.3487 C   0  0  0  0  0  0  0  0  0  0  0  0
   -2.3109    3.0280    0.4947 H   0  0  0  0  0  0  0  0  0  0  0  0
   -0.6980    3.5294    1.0457 H   0  0  0  0  0  0  0  0  0  0  0  0
   -0.9739    3.1772   -0.6720 H   0  0  0  0  0  0  0  0  0  0  0  0
  1  2  1  0  0  0  0
  2  3  1  0  0  0  0
  2  4  1  0  0  0  0
  2  5  1  0  0  0  0
  5  6  2  0  0  0  0
  5  7  1  0  0  0  0
  7  8  1  0  0  0  0
  7  9  1  0  0  0  0
  9 10  1  0  0  0  0
  9 11  1  0  0  0  0
  9 29  1  0  0  0  0
 11 12  1  0  0  0  0
 11 13  1  0  0  0  0
 11 14  1  0  0  0  0
 14 15  2  0  0  0  0
 14 28  1  0  0  0  0
 15 16  1  0  0  0  0
 15 17  1  0  0  0  0
 17 18  1  0  0  0  0
 17 19  1  0  0  0  0
 19 20  1  0  0  0  0
 19 28  2  0  0  0  0
 20 21  1  0  0  0  0
 20 22  2  0  0  0  0
 22 23  1  0  0  0  0
 22 24  1  0  0  0  0
 24 25  1  0  0  0  0
 24 26  2  0  0  0  0
 26 27  1  0  0  0  0
 26 28  1  0  0  0  0
 29 30  2  0  0  0  0
 29 31  1  0  0  0  0
 31 32  1  0  0  0  0
 31 33  1  0  0  0  0
 33 34  1  0  0  0  0
 33 35  1  0  0  0  0
 33 36  1  0  0  0  0
M  END
$$$$

  -OEChem-03222214083D

 36 37  0     1  0  0  0  0  0999 V2000
   -3.7631   -4.4930    1.5651 H   0  0  0  0  0  0  0  0  0  0  0  0
   -3.6983   -3.7271    0.7872 C   0  0  0  0  0  0  0  0  0  0  0  0
   -4.5873   -3.0941    0.8406 H   0  0  0  0  0  0  0  0  0  0  0  0
   -3.6666   -4.2189   -0.1881 H   0  0  0  0  0  0  0  0  0  0  0  0
   -2.4512   -2.8863    0.9851 C   0  0  0  0  0  0  0  0  0  0  0  0
   -1.7538   -3.0594    1.9698 O   0  0  0  0  0  0  0  0  0  0  0  0
   -2.1434   -1.8997    0.0731 N   0  0  0  0  0  0  0  0  0  0  0  0
   -2.8180   -1.7179   -0.6673 H   0  0  0  0  0  0  0  0  0  0  0  0
   -0.9471   -1.0420    0.1145 C   0  0  1  0  0  0  0  0  0  0  0  0
   -0.4776   -1.0866    1.1033 H   0  0  0  0  0  0  0  0  0  0  0  0
    0.0774   -1.4681   -0.9637 C   0  0  0  0  0  0  0  0  0  0  0  0
   -0.4073   -2.0945   -1.7192 H   0  0  0  0  0  0  0  0  0  0  0  0
    0.4571   -0.5829   -1.4856 H   0  0  0  0  0  0  0  0  0  0  0  0
    1.2558   -2.2063   -0.3804 C   0  0  0  0  0  0  0  0  0  0  0  0
    2.5110   -1.6698   -0.2153 C   0  0  0  0  0  0  0  0  0  0  0  0
    2.7974   -0.6475   -0.4510 H   0  0  0  0  0  0  0  0  0  0  0  0
    3.3355   -2.6643    0.3028 N   0  0  0  0  0  0  0  0  0  0  0  0
    4.3202   -2.5549    0.5345 H   0  0  0  0  0  0  0  0  0  0  0  0
    2.6308   -3.8484    0.4392 C   0  0  0  0  0  0  0  0  0  0  0  0
    3.0249   -5.1088    0.8886 C   0  0  0  0  0  0  0  0  0  0  0  0
    4.0417   -5.2765    1.2252 H   0  0  0  0  0  0  0  0  0  0  0  0
    2.0900   -6.1528    0.8977 C   0  0  0  0  0  0  0  0  0  0  0  0
    2.3798   -7.1386    1.2487 H   0  0  0  0  0  0  0  0  0  0  0  0
    0.7794   -5.9251    0.4518 C   0  0  0  0  0  0  0  0  0  0  0  0
    0.0560   -6.7344    0.4581 H   0  0  0  0  0  0  0  0  0  0  0  0
    0.3976   -4.6529    0.0023 C   0  0  0  0  0  0  0  0  0  0  0  0
   -0.6123   -4.4749   -0.3462 H   0  0  0  0  0  0  0  0  0  0  0  0
    1.3292   -3.6106    0.0104 C   0  0  0  0  0  0  0  0  0  0  0  0
   -1.3482    0.4212   -0.1517 C   0  0  0  0  0  0  0  0  0  0  0  0
   -2.1324    0.6874   -1.0563 O   0  0  0  0  0  0  0  0  0  0  0  0
   -0.8376    1.4402    0.6312 N   0  0  0  0  0  0  0  0  0  0  0  0
   -0.2587    1.1752    1.4238 H   0  0  0  0  0  0  0  0  0  0  0  0
   -1.2139    2.8388    0.4676 C   0  0  0  0  0  0  0  0  0  0  0  0
   -2.2866    2.9702    0.6439 H   0  0  0  0  0  0  0  0  0  0  0  0
   -0.6665    3.4637    1.1799 H   0  0  0  0  0  0  0  0  0  0  0  0
   -0.9779    3.1829   -0.5450 H   0  0  0  0  0  0  0  0  0  0  0  0
  1  2  1  0  0  0  0
  2  3  1  0  0  0  0
  2  4  1  0  0  0  0
  2  5  1  0  0  0  0
  5  6  2  0  0  0  0
  5  7  1  0  0  0  0
  7  8  1  0  0  0  0
  7  9  1  0  0  0  0
  9 10  1  0  0  0  0
  9 11  1  0  0  0  0
  9 29  1  0  0  0  0
 11 12  1  0  0  0  0
 11 13  1  0  0  0  0
 11 14  1  0  0  0  0
 14 15  2  0  0  0  0
 14 28  1  0  0  0  0
 15 16  1  0  0  0  0
 15 17  1  0  0  0  0
 17 18  1  0  0  0  0
 17 19  1  0  0  0  0
 19 20  1  0  0  0  0
 19 28  2  0  0  0  0
 20 21  1  0  0  0  0
 20 22  2  0  0  0  0
 22 23  1  0  0  0  0
 22 24  1  0  0  0  0
 24 25  1  0  0  0  0
 24 26  2  0  0  0  0
 26 27  1  0  0  0  0
 26 28  1  0  0  0  0
 29 30  2  0  0  0  0
 29 31  1  0  0  0  0
 31 32  1  0  0  0  0
 31 33  1  0  0  0  0
 33 34  1  0  0  0  0
 33 35  1  0  0  0  0
 33 36  1  0  0  0  0
M  END
$$$$

  -OEChem-03222214083D

 36 37  0     1  0  0  0  0  0999 V2000
   -3.6163   -4.5969    1.4779 H   0  0  0  0  0  0  0  0  0  0  0  0
   -3.5874   -3.8083    0.7207 C   0  0  0  0  0  0  0  0  0  0  0  0
   -4.4872   -3.1956    0.8139 H   0  0  0  0  0  0  0  0  0  0  0  0
   -3.5702   -4.2719   -0.2684 H   0  0  0  0  0  0  0  0  0  0  0  0
   -2.3531   -2.9477    0.9109 C   0  0  0  0  0  0  0  0  0  0  0  0
   -1.6239   -3.1373    1.8694 O   0  0  0  0  0  0  0  0  0  0  0  0
   -2.0904   -1.9280    0.0208 N   0  0  0  0  0  0  0  0  0  0  0  0
   -2.7854   -1.7378   -0.6979 H   0  0  0  0  0  0  0  0  0  0  0  0
   -0.9093   -1.0509    0.0661 C   0  0  1  0  0  0  0  0  0  0  0  0
   -0.4190   -1.1165    1.0434 H   0  0  0  0  0  0  0  0  0  0  0  0
    0.0829   -1.4607   -1.0436 C   0  0  0  0  0  0  0  0  0  0  0  0
   -0.4131   -2.0703   -1.8055 H   0  0  0  0  0  0  0  0  0  0  0  0
    0.4590   -0.5662   -1.5515 H   0  0  0  0  0  0  0  0  0  0  0  0
    1.2646   -2.2013   -0.4767 C   0  0  0  0  0  0  0  0  0  0  0  0
    2.4413   -1.6376   -0.0444 C   0  0  0  0  0  0  0  0  0  0  0  0
    2.6768   -0.5760   -0.0582 H   0  0  0  0  0  0  0  0  0  0  0  0
    3.2642   -2.6684    0.4038 N   0  0  0  0  0  0  0  0  0  0  0  0
    4.1989   -2.5534    0.7891 H   0  0  0  0  0  0  0  0  0  0  0  0
    2.6259   -3.8902    0.2619 C   0  0  0  0  0  0  0  0  0  0  0  0
    3.0313   -5.1905    0.5636 C   0  0  0  0  0  0  0  0  0  0  0  0
    4.0095   -5.3722    0.9942 H   0  0  0  0  0  0  0  0  0  0  0  0
    2.1566   -6.2558    0.3062 C   0  0  0  0  0  0  0  0  0  0  0  0
    2.4575   -7.2728    0.5387 H   0  0  0  0  0  0  0  0  0  0  0  0
    0.8908   -6.0091   -0.2471 C   0  0  0  0  0  0  0  0  0  0  0  0
    0.2133   -6.8349   -0.4399 H   0  0  0  0  0  0  0  0  0  0  0  0
    0.4948   -4.6975   -0.5457 C   0  0  0  0  0  0  0  0  0  0  0  0
   -0.4839   -4.4989   -0.9677 H   0  0  0  0  0  0  0  0  0  0  0  0
    1.3732   -3.6411   -0.2866 C   0  0  0  0  0  0  0  0  0  0  0  0
   -1.3321    0.4149   -0.1441 C   0  0  0  0  0  0  0  0  0  0  0  0
   -2.1371    0.7004   -1.0239 O   0  0  0  0  0  0  0  0  0  0  0  0
   -0.8185    1.4144    0.6617 N   0  0  0  0  0  0  0  0  0  0  0  0
   -0.2273    1.1299    1.4379 H   0  0  0  0  0  0  0  0  0  0  0  0
   -1.2236    2.8110    0.5593 C   0  0  0  0  0  0  0  0  0  0  0  0
   -2.2976    2.9142    0.7465 H   0  0  0  0  0  0  0  0  0  0  0  0
   -0.6846    3.4150    1.2953 H   0  0  0  0  0  0  0  0  0  0  0  0
   -0.9998    3.2033   -0.4384 H   0  0  0  0  0  0  0  0  0  0  0  0
  1  2  1  0  0  0  0
  2  3  1  0  0  0  0
  2  4  1  0  0  0  0
  2  5  1  0  0  0  0
  5  6  2  0  0  0  0
  5  7  1  0  0  0  0
  7  8  1  0  0  0  0
  7  9  1  0  0  0  0
  9 10  1  0  0  0  0
  9 11  1  0  0  0  0
  9 29  1  0  0  0  0
 11 12  1  0  0  0  0
 11 13  1  0  0  0  0
 11 14  1  0  0  0  0
 14 15  2  0  0  0  0
 14 28  1  0  0  0  0
 15 16  1  0  0  0  0
 15 17  1  0  0  0  0
 17 18  1  0  0  0  0
 17 19  1  0  0  0  0
 19 20  1  0  0  0  0
 19 28  2  0  0  0  0
 20 21  1  0  0  0  0
 20 22  2  0  0  0  0
 22 23  1  0  0  0  0
 22 24  1  0  0  0  0
 24 25  1  0  0  0  0
 24 26  2  0  0  0  0
 26 27  1  0  0  0  0
 26 28  1  0  0  0  0
 29 30  2  0  0  0  0
 29 31  1  0  0  0  0
 31 32  1  0  0  0  0
 31 33  1  0  0  0  0
 33 34  1  0  0  0  0
 33 35  1  0  0  0  0
 33 36  1  0  0  0  0
M  END
$$$$

  -OEChem-03222214083D

 36 37  0     1  0  0  0  0  0999 V2000
   -3.6058   -4.6055    1.4360 H   0  0  0  0  0  0  0  0  0  0  0  0
   -3.5753   -3.8153    0.6805 C   0  0  0  0  0  0  0  0  0  0  0  0
   -4.4746   -3.2019    0.7748 H   0  0  0  0  0  0  0  0  0  0  0  0
   -3.5577   -4.2765   -0.3100 H   0  0  0  0  0  0  0  0  0  0  0  0
   -2.3399   -2.9570    0.8739 C   0  0  0  0  0  0  0  0  0  0  0  0
   -1.6084   -3.1536    1.8299 O   0  0  0  0  0  0  0  0  0  0  0  0
   -2.0803   -1.9278   -0.0060 N   0  0  0  0  0  0  0  0  0  0  0  0
   -2.7738   -1.7334   -0.7250 H   0  0  0  0  0  0  0  0  0  0  0  0
   -0.9023   -1.0485    0.0534 C   0  0  1  0  0  0  0  0  0  0  0  0
   -0.4158   -1.1228    1.0318 H   0  0  0  0  0  0  0  0  0  0  0  0
    0.0875   -1.4564   -1.0581 C   0  0  0  0  0  0  0  0  0  0  0  0
   -0.4126   -2.0550   -1.8258 H   0  0  0  0  0  0  0  0  0  0  0  0
    0.4704   -0.5607   -1.5588 H   0  0  0  0  0  0  0  0  0  0  0  0
    1.2671   -2.2047   -0.4958 C   0  0  0  0  0  0  0  0  0  0  0  0
    2.3207   -1.6593    0.1987 C   0  0  0  0  0  0  0  0  0  0  0  0
    2.4521   -0.6038    0.4237 H   0  0  0  0  0  0  0  0  0  0  0  0
    3.1773   -2.6992    0.5523 N   0  0  0  0  0  0  0  0  0  0  0  0
    4.0365   -2.6005    1.0883 H   0  0  0  0  0  0  0  0  0  0  0  0
    2.6778   -3.9097    0.0992 C   0  0  0  0  0  0  0  0  0  0  0  0
    3.1630   -5.2127    0.2098 C   0  0  0  0  0  0  0  0  0  0  0  0
    4.0960   -5.4064    0.7270 H   0  0  0  0  0  0  0  0  0  0  0  0
    2.4281   -6.2653   -0.3537 C   0  0  0  0  0  0  0  0  0  0  0  0
    2.7941   -7.2846   -0.2753 H   0  0  0  0  0  0  0  0  0  0  0  0
    1.2177   -6.0038   -1.0142 C   0  0  0  0  0  0  0  0  0  0  0  0
    0.6477   -6.8217   -1.4438 H   0  0  0  0  0  0  0  0  0  0  0  0
    0.7395   -4.6895   -1.1175 C   0  0  0  0  0  0  0  0  0  0  0  0
   -0.1980   -4.4827   -1.6216 H   0  0  0  0  0  0  0  0  0  0  0  0
    1.4826   -3.6444   -0.5593 C   0  0  0  0  0  0  0  0  0  0  0  0
   -1.3261    0.4191   -0.1428 C   0  0  0  0  0  0  0  0  0  0  0  0
   -2.1245    0.7125   -1.0260 O   0  0  0  0  0  0  0  0  0  0  0  0
   -0.8186    1.4121    0.6750 N   0  0  0  0  0  0  0  0  0  0  0  0
   -0.2427    1.1209    1.4599 H   0  0  0  0  0  0  0  0  0  0  0  0
   -1.2251    2.8090    0.5805 C   0  0  0  0  0  0  0  0  0  0  0  0
   -2.3014    2.9086    0.7556 H   0  0  0  0  0  0  0  0  0  0  0  0
   -0.6961    3.4075    1.3283 H   0  0  0  0  0  0  0  0  0  0  0  0
   -0.9908    3.2105   -0.4110 H   0  0  0  0  0  0  0  0  0  0  0  0
  1  2  1  0  0  0  0
  2  3  1  0  0  0  0
  2  4  1  0  0  0  0
  2  5  1  0  0  0  0
  5  6  2  0  0  0  0
  5  7  1  0  0  0  0
  7  8  1  0  0  0  0
  7  9  1  0  0  0  0
  9 10  1  0  0  0  0
  9 11  1  0  0  0  0
  9 29  1  0  0  0  0
 11 12  1  0  0  0  0
 11 13  1  0  0  0  0
 11 14  1  0  0  0  0
 14 15  2  0  0  0  0
 14 28  1  0  0  0  0
 15 16  1  0  0  0  0
 15 17  1  0  0  0  0
 17 18  1  0  0  0  0
 17 19  1  0  0  0  0
 19 20  1  0  0  0  0
 19 28  2  0  0  0  0
 20 21  1  0  0  0  0
 20 22  2  0  0  0  0
 22 23  1  0  0  0  0
 22 24  1  0  0  0  0
 24 25  1  0  0  0  0
 24 26  2  0  0  0  0
 26 27  1  0  0  0  0
 26 28  1  0  0  0  0
 29 30  2  0  0  0  0
 29 31  1  0  0  0  0
 31 32  1  0  0  0  0
 31 33  1  0  0  0  0
 33 34  1  0  0  0  0
 33 35  1  0  0  0  0
 33 36  1  0  0  0  0
M  END
$$$$

  -OEChem-03222214083D

 36 37  0     1  0  0  0  0  0999 V2000
   -3.6559   -4.5787    1.4302 H   0  0  0  0  0  0  0  0  0  0  0  0
   -3.6126   -3.7904    0.6734 C   0  0  0  0  0  0  0  0  0  0  0  0
   -4.5104   -3.1731    0.7549 H   0  0  0  0  0  0  0  0  0  0  0  0
   -3.5847   -4.2544   -0.3155 H   0  0  0  0  0  0  0  0  0  0  0  0
   -2.3759   -2.9367    0.8794 C   0  0  0  0  0  0  0  0  0  0  0  0
   -1.6594   -3.1285    1.8484 O   0  0  0  0  0  0  0  0  0  0  0  0
   -2.0959   -1.9159   -0.0043 N   0  0  0  0  0  0  0  0  0  0  0  0
   -2.7749   -1.7232   -0.7375 H   0  0  0  0  0  0  0  0  0  0  0  0
   -0.9123   -1.0457    0.0697 C   0  0  1  0  0  0  0  0  0  0  0  0
   -0.4454   -1.1156    1.0571 H   0  0  0  0  0  0  0  0  0  0  0  0
    0.0905   -1.4656   -1.0277 C   0  0  0  0  0  0  0  0  0  0  0  0
   -0.4144   -2.0615   -1.7938 H   0  0  0  0  0  0  0  0  0  0  0  0
    0.4847   -0.5774   -1.5326 H   0  0  0  0  0  0  0  0  0  0  0  0
    1.2657   -2.2254   -0.4655 C   0  0  0  0  0  0  0  0  0  0  0  0
    2.1691   -1.7700    0.4662 C   0  0  0  0  0  0  0  0  0  0  0  0
    2.1634   -0.7848    0.9252 H   0  0  0  0  0  0  0  0  0  0  0  0
    3.0808   -2.7939    0.7103 N   0  0  0  0  0  0  0  0  0  0  0  0
    3.8498   -2.7540    1.3754 H   0  0  0  0  0  0  0  0  0  0  0  0
    2.7693   -3.9072   -0.0526 C   0  0  0  0  0  0  0  0  0  0  0  0
    3.3740   -5.1606   -0.1501 C   0  0  0  0  0  0  0  0  0  0  0  0
    4.2527   -5.3913    0.4418 H   0  0  0  0  0  0  0  0  0  0  0  0
    2.8302   -6.1153   -1.0207 C   0  0  0  0  0  0  0  0  0  0  0  0
    3.2904   -7.0950   -1.1071 H   0  0  0  0  0  0  0  0  0  0  0  0
    1.6901   -5.8071   -1.7784 C   0  0  0  0  0  0  0  0  0  0  0  0
    1.2690   -6.5494   -2.4495 H   0  0  0  0  0  0  0  0  0  0  0  0
    1.0905   -4.5439   -1.6705 C   0  0  0  0  0  0  0  0  0  0  0  0
    0.2073   -4.3054   -2.2529 H   0  0  0  0  0  0  0  0  0  0  0  0
    1.6408   -3.5944   -0.8022 C   0  0  0  0  0  0  0  0  0  0  0  0
   -1.3268    0.4227   -0.1440 C   0  0  0  0  0  0  0  0  0  0  0  0
   -2.1120    0.7115   -1.0403 O   0  0  0  0  0  0  0  0  0  0  0  0
   -0.8302    1.4212    0.6739 N   0  0  0  0  0  0  0  0  0  0  0  0
   -0.2629    1.1378    1.4674 H   0  0  0  0  0  0  0  0  0  0  0  0
   -1.2265    2.8191    0.5564 C   0  0  0  0  0  0  0  0  0  0  0  0
   -2.3045    2.9277    0.7155 H   0  0  0  0  0  0  0  0  0  0  0  0
   -0.7038    3.4240    1.3036 H   0  0  0  0  0  0  0  0  0  0  0  0
   -0.9757    3.2058   -0.4371 H   0  0  0  0  0  0  0  0  0  0  0  0
  1  2  1  0  0  0  0
  2  3  1  0  0  0  0
  2  4  1  0  0  0  0
  2  5  1  0  0  0  0
  5  6  2  0  0  0  0
  5  7  1  0  0  0  0
  7  8  1  0  0  0  0
  7  9  1  0  0  0  0
  9 10  1  0  0  0  0
  9 11  1  0  0  0  0
  9 29  1  0  0  0  0
 11 12  1  0  0  0  0
 11 13  1  0  0  0  0
 11 14  1  0  0  0  0
 14 15  2  0  0  0  0
 14 28  1  0  0  0  0
 15 16  1  0  0  0  0
 15 17  1  0  0  0  0
 17 18  1  0  0  0  0
 17 19  1  0  0  0  0
 19 20  1  0  0  0  0
 19 28  2  0  0  0  0
 20 21  1  0  0  0  0
 20 22  2  0  0  0  0
 22 23  1  0  0  0  0
 22 24  1  0  0  0  0
 24 25  1  0  0  0  0
 24 26  2  0  0  0  0
 26 27  1  0  0  0  0
 26 28  1  0  0  0  0
 29 30  2  0  0  0  0
 29 31  1  0  0  0  0
 31 32  1  0  0  0  0
 31 33  1  0  0  0  0
 33 34  1  0  0  0  0
 33 35  1  0  0  0  0
 33 36  1  0  0  0  0
M  END
$$$$

  -OEChem-03222214083D

 36 37  0     1  0  0  0  0  0999 V2000
   -3.7083   -4.5561    1.4250 H   0  0  0  0  0  0  0  0  0  0  0  0
   -3.6595   -3.7646    0.6720 C   0  0  0  0  0  0  0  0  0  0  0  0
   -4.5531   -3.1416    0.7557 H   0  0  0  0  0  0  0  0  0  0  0  0
   -3.6344   -4.2243   -0.3188 H   0  0  0  0  0  0  0  0  0  0  0  0
   -2.4175   -2.9201    0.8835 C   0  0  0  0  0  0  0  0  0  0  0  0
   -1.7125   -3.1095    1.8617 O   0  0  0  0  0  0  0  0  0  0  0  0
   -2.1168   -1.9097   -0.0053 N   0  0  0  0  0  0  0  0  0  0  0  0
   -2.7855   -1.7144   -0.7477 H   0  0  0  0  0  0  0  0  0  0  0  0
   -0.9276   -1.0485    0.0822 C   0  0  1  0  0  0  0  0  0  0  0  0
   -0.4854   -1.1088    1.0800 H   0  0  0  0  0  0  0  0  0  0  0  0
    0.0943   -1.4835   -0.9936 C   0  0  0  0  0  0  0  0  0  0  0  0
   -0.4121   -2.0871   -1.7526 H   0  0  0  0  0  0  0  0  0  0  0  0
    0.4959   -0.6052   -1.5095 H   0  0  0  0  0  0  0  0  0  0  0  0
    1.2672   -2.2516   -0.4295 C   0  0  0  0  0  0  0  0  0  0  0  0
    2.0088   -1.9530    0.6913 C   0  0  0  0  0  0  0  0  0  0  0  0
    1.8508   -1.1041    1.3510 H   0  0  0  0  0  0  0  0  0  0  0  0
    2.9870   -2.9339    0.8311 N   0  0  0  0  0  0  0  0  0  0  0  0
    3.6622   -2.9889    1.5903 H   0  0  0  0  0  0  0  0  0  0  0  0
    2.8831   -3.8655   -0.1876 C   0  0  0  0  0  0  0  0  0  0  0  0
    3.6202   -5.0165   -0.4679 C   0  0  0  0  0  0  0  0  0  0  0  0
    4.4419   -5.3097    0.1761 H   0  0  0  0  0  0  0  0  0  0  0  0
    3.2837   -5.7869   -1.5896 C   0  0  0  0  0  0  0  0  0  0  0  0
    3.8476   -6.6863   -1.8186 H   0  0  0  0  0  0  0  0  0  0  0  0
    2.2187   -5.3974   -2.4157 C   0  0  0  0  0  0  0  0  0  0  0  0
    1.9603   -5.9957   -3.2840 H   0  0  0  0  0  0  0  0  0  0  0  0
    1.4849   -4.2386   -2.1229 C   0  0  0  0  0  0  0  0  0  0  0  0
    0.6604   -3.9386   -2.7605 H   0  0  0  0  0  0  0  0  0  0  0  0
    1.8243   -3.4749   -0.9998 C   0  0  0  0  0  0  0  0  0  0  0  0
   -1.3291    0.4206   -0.1511 C   0  0  0  0  0  0  0  0  0  0  0  0
   -2.1068    0.7056   -1.0551 O   0  0  0  0  0  0  0  0  0  0  0  0
   -0.8401    1.4231    0.6667 N   0  0  0  0  0  0  0  0  0  0  0  0
   -0.2616    1.1470    1.4545 H   0  0  0  0  0  0  0  0  0  0  0  0
   -1.2220    2.8233    0.5298 C   0  0  0  0  0  0  0  0  0  0  0  0
   -2.3038    2.9404    0.6534 H   0  0  0  0  0  0  0  0  0  0  0  0
   -0.7200    3.4282    1.2908 H   0  0  0  0  0  0  0  0  0  0  0  0
   -0.9362    3.2036   -0.4565 H   0  0  0  0  0  0  0  0  0  0  0  0
  1  2  1  0  0  0  0
  2  3  1  0  0  0  0
  2  4  1  0  0  0  0
  2  5  1  0  0  0  0
  5  6  2  0  0  0  0
  5  7  1  0  0  0  0
  7  8  1  0  0  0  0
  7  9  1  0  0  0  0
  9 10  1  0  0  0  0
  9 11  1  0  0  0  0
  9 29  1  0  0  0  0
 11 12  1  0  0  0  0
 11 13  1  0  0  0  0
 11 14  1  0  0  0  0
 14 15  2  0  0  0  0
 14 28  1  0  0  0  0
 15 16  1  0  0  0  0
 15 17  1  0  0  0  0
 17 18  1  0  0  0  0
 17 19  1  0  0  0  0
 19 20  1  0  0  0  0
 19 28  2  0  0  0  0
 20 21  1  0  0  0  0
 20 22  2  0  0  0  0
 22 23  1  0  0  0  0
 22 24  1  0  0  0  0
 24 25  1  0  0  0  0
 24 26  2  0  0  0  0
 26 27  1  0  0  0  0
 26 28  1  0  0  0  0
 29 30  2  0  0  0  0
 29 31  1  0  0  0  0
 31 32  1  0  0  0  0
 31 33  1  0  0  0  0
 33 34  1  0  0  0  0
 33 35  1  0  0  0  0
 33 36  1  0  0  0  0
M  END
$$$$

  -OEChem-03222214083D

 36 37  0     1  0  0  0  0  0999 V2000
   -3.8437   -4.4694    1.4718 H   0  0  0  0  0  0  0  0  0  0  0  0
   -3.7412   -3.7177    0.6842 C   0  0  0  0  0  0  0  0  0  0  0  0
   -4.6151   -3.0622    0.7064 H   0  0  0  0  0  0  0  0  0  0  0  0
   -3.6987   -4.2258   -0.2824 H   0  0  0  0  0  0  0  0  0  0  0  0
   -2.4778   -2.9056    0.8985 C   0  0  0  0  0  0  0  0  0  0  0  0
   -1.7834   -3.1048    1.8830 O   0  0  0  0  0  0  0  0  0  0  0  0
   -2.1417   -1.9139    0.0015 N   0  0  0  0  0  0  0  0  0  0  0  0
   -2.8006   -1.7048   -0.7460 H   0  0  0  0  0  0  0  0  0  0  0  0
   -0.9417   -1.0699    0.1043 C   0  0  1  0  0  0  0  0  0  0  0  0
   -0.5292   -1.1156    1.1141 H   0  0  0  0  0  0  0  0  0  0  0  0
    0.1014   -1.5223   -0.9448 C   0  0  0  0  0  0  0  0  0  0  0  0
   -0.4012   -2.1287   -1.7047 H   0  0  0  0  0  0  0  0  0  0  0  0
    0.5175   -0.6513   -1.4622 H   0  0  0  0  0  0  0  0  0  0  0  0
    1.2662   -2.3039   -0.3774 C   0  0  0  0  0  0  0  0  0  0  0  0
    1.8457   -2.2220    0.8700 C   0  0  0  0  0  0  0  0  0  0  0  0
    1.5301   -1.5727    1.6820 H   0  0  0  0  0  0  0  0  0  0  0  0
    2.8996   -3.1314    0.9140 N   0  0  0  0  0  0  0  0  0  0  0  0
    3.4837   -3.3161    1.7267 H   0  0  0  0  0  0  0  0  0  0  0  0
    3.0142   -3.7955   -0.2947 C   0  0  0  0  0  0  0  0  0  0  0  0
    3.8990   -4.7814   -0.7323 C   0  0  0  0  0  0  0  0  0  0  0  0
    4.6687   -5.1583   -0.0681 H   0  0  0  0  0  0  0  0  0  0  0  0
    3.7798   -5.2749   -2.0391 C   0  0  0  0  0  0  0  0  0  0  0  0
    4.4622   -6.0416   -2.3935 H   0  0  0  0  0  0  0  0  0  0  0  0
    2.7803   -4.7780   -2.8894 C   0  0  0  0  0  0  0  0  0  0  0  0
    2.6900   -5.1601   -3.9017 H   0  0  0  0  0  0  0  0  0  0  0  0
    1.8952   -3.7889   -2.4364 C   0  0  0  0  0  0  0  0  0  0  0  0
    1.1215   -3.4029   -3.0918 H   0  0  0  0  0  0  0  0  0  0  0  0
    2.0185   -3.3036   -1.1298 C   0  0  0  0  0  0  0  0  0  0  0  0
   -1.3237    0.3997   -0.1617 C   0  0  0  0  0  0  0  0  0  0  0  0
   -2.0917    0.6740   -1.0776 O   0  0  0  0  0  0  0  0  0  0  0  0
   -0.8452    1.4132    0.6485 N   0  0  0  0  0  0  0  0  0  0  0  0
   -0.2500    1.1527    1.4292 H   0  0  0  0  0  0  0  0  0  0  0  0
   -1.2080    2.8145    0.4751 C   0  0  0  0  0  0  0  0  0  0  0  0
   -2.2863    2.9509    0.6081 H   0  0  0  0  0  0  0  0  0  0  0  0
   -0.6879    3.4338    1.2121 H   0  0  0  0  0  0  0  0  0  0  0  0
   -0.9287    3.1616   -0.5252 H   0  0  0  0  0  0  0  0  0  0  0  0
  1  2  1  0  0  0  0
  2  3  1  0  0  0  0
  2  4  1  0  0  0  0
  2  5  1  0  0  0  0
  5  6  2  0  0  0  0
  5  7  1  0  0  0  0
  7  8  1  0  0  0  0
  7  9  1  0  0  0  0
  9 10  1  0  0  0  0
  9 11  1  0  0  0  0
  9 29  1  0  0  0  0
 11 12  1  0  0  0  0
 11 13  1  0  0  0  0
 11 14  1  0  0  0  0
 14 15  2  0  0  0  0
 14 28  1  0  0  0  0
 15 16  1  0  0  0  0
 15 17  1  0  0  0  0
 17 18  1  0  0  0  0
 17 19  1  0  0  0  0
 19 20  1  0  0  0  0
 19 28  2  0  0  0  0
 20 21  1  0  0  0  0
 20 22  2  0  0  0  0
 22 23  1  0  0  0  0
 22 24  1  0  0  0  0
 24 25  1  0  0  0  0
 24 26  2  0  0  0  0
 26 27  1  0  0  0  0
 26 28  1  0  0  0  0
 29 30  2  0  0  0  0
 29 31  1  0  0  0  0
 31 32  1  0  0  0  0
 31 33  1  0  0  0  0
 33 34  1  0  0  0  0
 33 35  1  0  0  0  0
 33 36  1  0  0  0  0
M  END
$$$$

  -OEChem-03222214083D

 36 37  0     1  0  0  0  0  0999 V2000
   -3.9279   -4.4132    1.4919 H   0  0  0  0  0  0  0  0  0  0  0  0
   -3.8046   -3.6770    0.6926 C   0  0  0  0  0  0  0  0  0  0  0  0
   -4.6556   -2.9919    0.7100 H   0  0  0  0  0  0  0  0  0  0  0  0
   -3.7849   -4.1995   -0.2668 H   0  0  0  0  0  0  0  0  0  0  0  0
   -2.5135   -2.9051    0.8878 C   0  0  0  0  0  0  0  0  0  0  0  0
   -1.8051   -3.1328    1.8568 O   0  0  0  0  0  0  0  0  0  0  0  0
   -2.1620   -1.9195   -0.0102 N   0  0  0  0  0  0  0  0  0  0  0  0
   -2.8263   -1.6838   -0.7452 H   0  0  0  0  0  0  0  0  0  0  0  0
   -0.9517   -1.0923    0.1020 C   0  0  1  0  0  0  0  0  0  0  0  0
   -0.5502   -1.1321    1.1157 H   0  0  0  0  0  0  0  0  0  0  0  0
    0.0964   -1.5551   -0.9368 C   0  0  0  0  0  0  0  0  0  0  0  0
   -0.4031   -2.1543   -1.7047 H   0  0  0  0  0  0  0  0  0  0  0  0
    0.5247   -0.6844   -1.4451 H   0  0  0  0  0  0  0  0  0  0  0  0
    1.2520   -2.3537   -0.3720 C   0  0  0  0  0  0  0  0  0  0  0  0
    1.6717   -2.5102    0.9323 C   0  0  0  0  0  0  0  0  0  0  0  0
    1.1909   -2.1022    1.8180 H   0  0  0  0  0  0  0  0  0  0  0  0
    2.8072   -3.3169    0.9239 N   0  0  0  0  0  0  0  0  0  0  0  0
    3.3063   -3.6361    1.7514 H   0  0  0  0  0  0  0  0  0  0  0  0
    3.1348   -3.6760   -0.3715 C   0  0  0  0  0  0  0  0  0  0  0  0
    4.1676   -4.4596   -0.8867 C   0  0  0  0  0  0  0  0  0  0  0  0
    4.8930   -4.9136   -0.2209 H   0  0  0  0  0  0  0  0  0  0  0  0
    4.2547   -4.6495   -2.2732 C   0  0  0  0  0  0  0  0  0  0  0  0
    5.0537   -5.2564   -2.6884 H   0  0  0  0  0  0  0  0  0  0  0  0
    3.3108   -4.0554   -3.1249 C   0  0  0  0  0  0  0  0  0  0  0  0
    3.3815   -4.2020   -4.1984 H   0  0  0  0  0  0  0  0  0  0  0  0
    2.2747   -3.2731   -2.5943 C   0  0  0  0  0  0  0  0  0  0  0  0
    1.5422   -2.8129   -3.2494 H   0  0  0  0  0  0  0  0  0  0  0  0
    2.1933   -3.0908   -1.2092 C   0  0  0  0  0  0  0  0  0  0  0  0
   -1.3159    0.3814   -0.1685 C   0  0  0  0  0  0  0  0  0  0  0  0
   -2.0835    0.6614   -1.0831 O   0  0  0  0  0  0  0  0  0  0  0  0
   -0.8328    1.3906    0.6442 N   0  0  0  0  0  0  0  0  0  0  0  0
   -0.2207    1.1279    1.4113 H   0  0  0  0  0  0  0  0  0  0  0  0
   -1.1672    2.7974    0.4577 C   0  0  0  0  0  0  0  0  0  0  0  0
   -2.2444    2.9549    0.5753 H   0  0  0  0  0  0  0  0  0  0  0  0
   -0.6453    3.4114    1.1979 H   0  0  0  0  0  0  0  0  0  0  0  0
   -0.8690    3.1332   -0.5411 H   0  0  0  0  0  0  0  0  0  0  0  0
  1  2  1  0  0  0  0
  2  3  1  0  0  0  0
  2  4  1  0  0  0  0
  2  5  1  0  0  0  0
  5  6  2  0  0  0  0
  5  7  1  0  0  0  0
  7  8  1  0  0  0  0
  7  9  1  0  0  0  0
  9 10  1  0  0  0  0
  9 11  1  0  0  0  0
  9 29  1  0  0  0  0
 11 12  1  0  0  0  0
 11 13  1  0  0  0  0
 11 14  1  0  0  0  0
 14 15  2  0  0  0  0
 14 28  1  0  0  0  0
 15 16  1  0  0  0  0
 15 17  1  0  0  0  0
 17 18  1  0  0  0  0
 17 19  1  0  0  0  0
 19 20  1  0  0  0  0
 19 28  2  0  0  0  0
 20 21  1  0  0  0  0
 20 22  2  0  0  0  0
 22 23  1  0  0  0  0
 22 24  1  0  0  0  0
 24 25  1  0  0  0  0
 24 26  2  0  0  0  0
 26 27  1  0  0  0  0
 26 28  1  0  0  0  0
 29 30  2  0  0  0  0
 29 31  1  0  0  0  0
 31 32  1  0  0  0  0
 31 33  1  0  0  0  0
 33 34  1  0  0  0  0
 33 35  1  0  0  0  0
 33 36  1  0  0  0  0
M  END
$$$$

  -OEChem-03222214083D

 36 37  0     1  0  0  0  0  0999 V2000
   -3.9468   -4.4017    1.4801 H   0  0  0  0  0  0  0  0  0  0  0  0
   -3.8280   -3.6551    0.6900 C   0  0  0  0  0  0  0  0  0  0  0  0
   -4.6649   -2.9542    0.7379 H   0  0  0  0  0  0  0  0  0  0  0  0
   -3.8410   -4.1618   -0.2781 H   0  0  0  0  0  0  0  0  0  0  0  0
   -2.5182   -2.9110    0.8667 C   0  0  0  0  0  0  0  0  0  0  0  0
   -1.7876   -3.1709    1.8112 O   0  0  0  0  0  0  0  0  0  0  0  0
   -2.1691   -1.9190   -0.0244 N   0  0  0  0  0  0  0  0  0  0  0  0
   -2.8495   -1.6555   -0.7350 H   0  0  0  0  0  0  0  0  0  0  0  0
   -0.9505   -1.1035    0.0820 C   0  0  1  0  0  0  0  0  0  0  0  0
   -0.5366   -1.1507    1.0909 H   0  0  0  0  0  0  0  0  0  0  0  0
    0.0846   -1.5643   -0.9696 C   0  0  0  0  0  0  0  0  0  0  0  0
   -0.4180   -2.1474   -1.7481 H   0  0  0  0  0  0  0  0  0  0  0  0
    0.5180   -0.6865   -1.4609 H   0  0  0  0  0  0  0  0  0  0  0  0
    1.2369   -2.3760   -0.4182 C   0  0  0  0  0  0  0  0  0  0  0  0
    1.5031   -2.7699    0.8764 C   0  0  0  0  0  0  0  0  0  0  0  0
    0.8693   -2.5990    1.7446 H   0  0  0  0  0  0  0  0  0  0  0  0
    2.7101   -3.4652    0.8722 N   0  0  0  0  0  0  0  0  0  0  0  0
    3.1329   -3.9083    1.6849 H   0  0  0  0  0  0  0  0  0  0  0  0
    3.2318   -3.5209   -0.4085 C   0  0  0  0  0  0  0  0  0  0  0  0
    4.3970   -4.0964   -0.9153 C   0  0  0  0  0  0  0  0  0  0  0  0
    5.0809   -4.6177   -0.2549 H   0  0  0  0  0  0  0  0  0  0  0  0
    4.6706   -3.9909   -2.2864 C   0  0  0  0  0  0  0  0  0  0  0  0
    5.5738   -4.4342   -2.6954 H   0  0  0  0  0  0  0  0  0  0  0  0
    3.7779   -3.3138   -3.1315 C   0  0  0  0  0  0  0  0  0  0  0  0
    3.9913   -3.2344   -4.1931 H   0  0  0  0  0  0  0  0  0  0  0  0
    2.6090   -2.7408   -2.6102 C   0  0  0  0  0  0  0  0  0  0  0  0
    1.9148   -2.2187   -3.2602 H   0  0  0  0  0  0  0  0  0  0  0  0
    2.3437   -2.8512   -1.2411 C   0  0  0  0  0  0  0  0  0  0  0  0
   -1.3053    0.3759   -0.1682 C   0  0  0  0  0  0  0  0  0  0  0  0
   -2.0903    0.6722   -1.0629 O   0  0  0  0  0  0  0  0  0  0  0  0
   -0.8021    1.3698    0.6509 N   0  0  0  0  0  0  0  0  0  0  0  0
   -0.1622    1.0933    1.3902 H   0  0  0  0  0  0  0  0  0  0  0  0
   -1.1305    2.7810    0.4925 C   0  0  0  0  0  0  0  0  0  0  0  0
   -2.2071    2.9398    0.6153 H   0  0  0  0  0  0  0  0  0  0  0  0
   -0.6053    3.3777    1.2445 H   0  0  0  0  0  0  0  0  0  0  0  0
   -0.8318    3.1349   -0.5000 H   0  0  0  0  0  0  0  0  0  0  0  0
  1  2  1  0  0  0  0
  2  3  1  0  0  0  0
  2  4  1  0  0  0  0
  2  5  1  0  0  0  0
  5  6  2  0  0  0  0
  5  7  1  0  0  0  0
  7  8  1  0  0  0  0
  7  9  1  0  0  0  0
  9 10  1  0  0  0  0
  9 11  1  0  0  0  0
  9 29  1  0  0  0  0
 11 12  1  0  0  0  0
 11 13  1  0  0  0  0
 11 14  1  0  0  0  0
 14 15  2  0  0  0  0
 14 28  1  0  0  0  0
 15 16  1  0  0  0  0
 15 17  1  0  0  0  0
 17 18  1  0  0  0  0
 17 19  1  0  0  0  0
 19 20  1  0  0  0  0
 19 28  2  0  0  0  0
 20 21  1  0  0  0  0
 20 22  2  0  0  0  0
 22 23  1  0  0  0  0
 22 24  1  0  0  0  0
 24 25  1  0  0  0  0
 24 26  2  0  0  0  0
 26 27  1  0  0  0  0
 26 28  1  0  0  0  0
 29 30  2  0  0  0  0
 29 31  1  0  0  0  0
 31 32  1  0  0  0  0
 31 33  1  0  0  0  0
 33 34  1  0  0  0  0
 33 35  1  0  0  0  0
 33 36  1  0  0  0  0
M  END
$$$$

  -OEChem-03222214083D

 36 37  0     1  0  0  0  0  0999 V2000
   -3.9386   -4.4324    1.4289 H   0  0  0  0  0  0  0  0  0  0  0  0
   -3.8173   -3.6679    0.6563 C   0  0  0  0  0  0  0  0  0  0  0  0
   -4.6573   -2.9714    0.7147 H   0  0  0  0  0  0  0  0  0  0  0  0
   -3.8233   -4.1536   -0.3225 H   0  0  0  0  0  0  0  0  0  0  0  0
   -2.5108   -2.9234    0.8562 C   0  0  0  0  0  0  0  0  0  0  0  0
   -1.7898   -3.1976    1.8028 O   0  0  0  0  0  0  0  0  0  0  0  0
   -2.1583   -1.9169   -0.0168 N   0  0  0  0  0  0  0  0  0  0  0  0
   -2.8377   -1.6511   -0.7276 H   0  0  0  0  0  0  0  0  0  0  0  0
   -0.9405   -1.0967    0.0828 C   0  0  1  0  0  0  0  0  0  0  0  0
   -0.5065   -1.1617    1.0839 H   0  0  0  0  0  0  0  0  0  0  0  0
    0.0830   -1.5407   -0.9884 C   0  0  0  0  0  0  0  0  0  0  0  0
   -0.4204   -2.1113   -1.7756 H   0  0  0  0  0  0  0  0  0  0  0  0
    0.5062   -0.6498   -1.4649 H   0  0  0  0  0  0  0  0  0  0  0  0
    1.2453   -2.3502   -0.4578 C   0  0  0  0  0  0  0  0  0  0  0  0
    1.3874   -2.9796    0.7599 C   0  0  0  0  0  0  0  0  0  0  0  0
    0.6450   -3.0141    1.5546 H   0  0  0  0  0  0  0  0  0  0  0  0
    2.6416   -3.5847    0.7848 N   0  0  0  0  0  0  0  0  0  0  0  0
    3.0056   -4.1445    1.5528 H   0  0  0  0  0  0  0  0  0  0  0  0
    3.3121   -3.3562   -0.4042 C   0  0  0  0  0  0  0  0  0  0  0  0
    4.5718   -3.7532   -0.8531 C   0  0  0  0  0  0  0  0  0  0  0  0
    5.2136   -4.3534   -0.2179 H   0  0  0  0  0  0  0  0  0  0  0  0
    4.9939   -3.3668   -2.1330 C   0  0  0  0  0  0  0  0  0  0  0  0
    5.9721   -3.6688   -2.4952 H   0  0  0  0  0  0  0  0  0  0  0  0
    4.1532   -2.5918   -2.9468 C   0  0  0  0  0  0  0  0  0  0  0  0
    4.4822   -2.2948   -3.9380 H   0  0  0  0  0  0  0  0  0  0  0  0
    2.8880   -2.2004   -2.4848 C   0  0  0  0  0  0  0  0  0  0  0  0
    2.2337   -1.6036   -3.1119 H   0  0  0  0  0  0  0  0  0  0  0  0
    2.4750   -2.5893   -1.2058 C   0  0  0  0  0  0  0  0  0  0  0  0
   -1.3031    0.3840   -0.1462 C   0  0  0  0  0  0  0  0  0  0  0  0
   -2.0957    0.6874   -1.0318 O   0  0  0  0  0  0  0  0  0  0  0  0
   -0.7927    1.3706    0.6770 N   0  0  0  0  0  0  0  0  0  0  0  0
   -0.1473    1.0868    1.4091 H   0  0  0  0  0  0  0  0  0  0  0  0
   -1.1235    2.7828    0.5345 C   0  0  0  0  0  0  0  0  0  0  0  0
   -2.1998    2.9387    0.6622 H   0  0  0  0  0  0  0  0  0  0  0  0
   -0.5968    3.3725    1.2909 H   0  0  0  0  0  0  0  0  0  0  0  0
   -0.8287    3.1478   -0.4550 H   0  0  0  0  0  0  0  0  0  0  0  0
  1  2  1  0  0  0  0
  2  3  1  0  0  0  0
  2  4  1  0  0  0  0
  2  5  1  0  0  0  0
  5  6  2  0  0  0  0
  5  7  1  0  0  0  0
  7  8  1  0  0  0  0
  7  9  1  0  0  0  0
  9 10  1  0  0  0  0
  9 11  1  0  0  0  0
  9 29  1  0  0  0  0
 11 12  1  0  0  0  0
 11 13  1  0  0  0  0
 11 14  1  0  0  0  0
 14 15  2  0  0  0  0
 14 28  1  0  0  0  0
 15 16  1  0  0  0  0
 15 17  1  0  0  0  0
 17 18  1  0  0  0  0
 17 19  1  0  0  0  0
 19 20  1  0  0  0  0
 19 28  2  0  0  0  0
 20 21  1  0  0  0  0
 20 22  2  0  0  0  0
 22 23  1  0  0  0  0
 22 24  1  0  0  0  0
 24 25  1  0  0  0  0
 24 26  2  0  0  0  0
 26 27  1  0  0  0  0
 26 28  1  0  0  0  0
 29 30  2  0  0  0  0
 29 31  1  0  0  0  0
 31 32  1  0  0  0  0
 31 33  1  0  0  0  0
 33 34  1  0  0  0  0
 33 35  1  0  0  0  0
 33 36  1  0  0  0  0
M  END
$$$$

  -OEChem-03222214083D

 36 37  0     1  0  0  0  0  0999 V2000
   -3.9253   -4.4665    1.3866 H   0  0  0  0  0  0  0  0  0  0  0  0
   -3.8055   -3.6868    0.6291 C   0  0  0  0  0  0  0  0  0  0  0  0
   -4.6544   -3.0014    0.6911 H   0  0  0  0  0  0  0  0  0  0  0  0
   -3.7948   -4.1545   -0.3583 H   0  0  0  0  0  0  0  0  0  0  0  0
   -2.5103   -2.9307    0.8569 C   0  0  0  0  0  0  0  0  0  0  0  0
   -1.8096   -3.2007    1.8187 O   0  0  0  0  0  0  0  0  0  0  0  0
   -2.1550   -1.9140   -0.0028 N   0  0  0  0  0  0  0  0  0  0  0  0
   -2.8297   -1.6556   -0.7210 H   0  0  0  0  0  0  0  0  0  0  0  0
   -0.9370   -1.0900    0.0860 C   0  0  1  0  0  0  0  0  0  0  0  0
   -0.4843   -1.1735    1.0789 H   0  0  0  0  0  0  0  0  0  0  0  0
    0.0761   -1.5184   -1.0022 C   0  0  0  0  0  0  0  0  0  0  0  0
   -0.4299   -2.0869   -1.7890 H   0  0  0  0  0  0  0  0  0  0  0  0
    0.4835   -0.6192   -1.4757 H   0  0  0  0  0  0  0  0  0  0  0  0
    1.2485   -2.3229   -0.4881 C   0  0  0  0  0  0  0  0  0  0  0  0
    1.2999   -3.1771    0.5903 C   0  0  0  0  0  0  0  0  0  0  0  0
    0.4785   -3.4108    1.2617 H   0  0  0  0  0  0  0  0  0  0  0  0
    2.5907   -3.6933    0.6672 N   0  0  0  0  0  0  0  0  0  0  0  0
    2.9126   -4.3607    1.3650 H   0  0  0  0  0  0  0  0  0  0  0  0
    3.3738   -3.1912   -0.3574 C   0  0  0  0  0  0  0  0  0  0  0  0
    4.7068   -3.4149   -0.7023 C   0  0  0  0  0  0  0  0  0  0  0  0
    5.3174   -4.0899   -0.1129 H   0  0  0  0  0  0  0  0  0  0  0  0
    5.2422   -2.7588   -1.8195 C   0  0  0  0  0  0  0  0  0  0  0  0
    6.2779   -2.9245   -2.1013 H   0  0  0  0  0  0  0  0  0  0  0  0
    4.4404   -1.8899   -2.5755 C   0  0  0  0  0  0  0  0  0  0  0  0
    4.8569   -1.3839   -3.4415 H   0  0  0  0  0  0  0  0  0  0  0  0
    3.1012   -1.6741   -2.2190 C   0  0  0  0  0  0  0  0  0  0  0  0
    2.4792   -1.0058   -2.8052 H   0  0  0  0  0  0  0  0  0  0  0  0
    2.5737   -2.3317   -1.1018 C   0  0  0  0  0  0  0  0  0  0  0  0
   -1.3028    0.3923   -0.1262 C   0  0  0  0  0  0  0  0  0  0  0  0
   -2.1071    0.7023   -0.9987 O   0  0  0  0  0  0  0  0  0  0  0  0
   -0.7809    1.3719    0.6982 N   0  0  0  0  0  0  0  0  0  0  0  0
   -0.1243    1.0820    1.4181 H   0  0  0  0  0  0  0  0  0  0  0  0
   -1.1140    2.7853    0.5728 C   0  0  0  0  0  0  0  0  0  0  0  0
   -2.1915    2.9378    0.6959 H   0  0  0  0  0  0  0  0  0  0  0  0
   -0.5938    3.3659    1.3406 H   0  0  0  0  0  0  0  0  0  0  0  0
   -0.8136    3.1637   -0.4099 H   0  0  0  0  0  0  0  0  0  0  0  0
  1  2  1  0  0  0  0
  2  3  1  0  0  0  0
  2  4  1  0  0  0  0
  2  5  1  0  0  0  0
  5  6  2  0  0  0  0
  5  7  1  0  0  0  0
  7  8  1  0  0  0  0
  7  9  1  0  0  0  0
  9 10  1  0  0  0  0
  9 11  1  0  0  0  0
  9 29  1  0  0  0  0
 11 12  1  0  0  0  0
 11 13  1  0  0  0  0
 11 14  1  0  0  0  0
 14 15  2  0  0  0  0
 14 28  1  0  0  0  0
 15 16  1  0  0  0  0
 15 17  1  0  0  0  0
 17 18  1  0  0  0  0
 17 19  1  0  0  0  0
 19 20  1  0  0  0  0
 19 28  2  0  0  0  0
 20 21  1  0  0  0  0
 20 22  2  0  0  0  0
 22 23  1  0  0  0  0
 22 24  1  0  0  0  0
 24 25  1  0  0  0  0
 24 26  2  0  0  0  0
 26 27  1  0  0  0  0
 26 28  1  0  0  0  0
 29 30  2  0  0  0  0
 29 31  1  0  0  0  0
 31 32  1  0  0  0  0
 31 33  1  0  0  0  0
 33 34  1  0  0  0  0
 33 35  1  0  0  0  0
 33 36  1  0  0  0  0
M  END
$$$$

  -OEChem-03222214083D

 36 37  0     1  0  0  0  0  0999 V2000
   -3.9166   -4.4510    1.4455 H   0  0  0  0  0  0  0  0  0  0  0  0
   -3.8065   -3.6791    0.6787 C   0  0  0  0  0  0  0  0  0  0  0  0
   -4.6356   -2.9731    0.7687 H   0  0  0  0  0  0  0  0  0  0  0  0
   -3.8452   -4.1530   -0.3051 H   0  0  0  0  0  0  0  0  0  0  0  0
   -2.4860   -2.9528    0.8533 C   0  0  0  0  0  0  0  0  0  0  0  0
   -1.7441   -3.2556    1.7735 O   0  0  0  0  0  0  0  0  0  0  0  0
   -2.1551   -1.9261   -0.0043 N   0  0  0  0  0  0  0  0  0  0  0  0
   -2.8619   -1.6407   -0.6804 H   0  0  0  0  0  0  0  0  0  0  0  0
   -0.9321   -1.1057    0.0540 C   0  0  1  0  0  0  0  0  0  0  0  0
   -0.4473   -1.2070    1.0305 H   0  0  0  0  0  0  0  0  0  0  0  0
    0.0532   -1.5137   -1.0664 C   0  0  0  0  0  0  0  0  0  0  0  0
   -0.4699   -2.0818   -1.8419 H   0  0  0  0  0  0  0  0  0  0  0  0
    0.4412   -0.6105   -1.5478 H   0  0  0  0  0  0  0  0  0  0  0  0
    1.2323   -2.3189   -0.5721 C   0  0  0  0  0  0  0  0  0  0  0  0
    1.2206   -3.3747    0.3094 C   0  0  0  0  0  0  0  0  0  0  0  0
    0.3411   -3.8017    0.7825 H   0  0  0  0  0  0  0  0  0  0  0  0
    2.5345   -3.7995    0.4863 N   0  0  0  0  0  0  0  0  0  0  0  0
    2.8247   -4.5658    1.0899 H   0  0  0  0  0  0  0  0  0  0  0  0
    3.3967   -3.0325   -0.2771 C   0  0  0  0  0  0  0  0  0  0  0  0
    4.7818   -3.0765   -0.4346 C   0  0  0  0  0  0  0  0  0  0  0  0
    5.3693   -3.8133    0.1016 H   0  0  0  0  0  0  0  0  0  0  0  0
    5.4005   -2.1593   -1.2951 C   0  0  0  0  0  0  0  0  0  0  0  0
    6.4780   -2.1830   -1.4286 H   0  0  0  0  0  0  0  0  0  0  0  0
    4.6284   -1.2123   -1.9848 C   0  0  0  0  0  0  0  0  0  0  0  0
    5.1095   -0.5042   -2.6526 H   0  0  0  0  0  0  0  0  0  0  0  0
    3.2365   -1.1781   -1.8175 C   0  0  0  0  0  0  0  0  0  0  0  0
    2.6406   -0.4475   -2.3539 H   0  0  0  0  0  0  0  0  0  0  0  0
    2.6245   -2.0961   -0.9557 C   0  0  0  0  0  0  0  0  0  0  0  0
   -1.2997    0.3800   -0.1271 C   0  0  0  0  0  0  0  0  0  0  0  0
   -2.1327    0.7038   -0.9672 O   0  0  0  0  0  0  0  0  0  0  0  0
   -0.7466    1.3463    0.6923 N   0  0  0  0  0  0  0  0  0  0  0  0
   -0.0679    1.0432    1.3861 H   0  0  0  0  0  0  0  0  0  0  0  0
   -1.0775    2.7625    0.5981 C   0  0  0  0  0  0  0  0  0  0  0  0
   -2.1465    2.9190    0.7769 H   0  0  0  0  0  0  0  0  0  0  0  0
   -0.5158    3.3326    1.3442 H   0  0  0  0  0  0  0  0  0  0  0  0
   -0.8249    3.1492   -0.3948 H   0  0  0  0  0  0  0  0  0  0  0  0
  1  2  1  0  0  0  0
  2  3  1  0  0  0  0
  2  4  1  0  0  0  0
  2  5  1  0  0  0  0
  5  6  2  0  0  0  0
  5  7  1  0  0  0  0
  7  8  1  0  0  0  0
  7  9  1  0  0  0  0
  9 10  1  0  0  0  0
  9 11  1  0  0  0  0
  9 29  1  0  0  0  0
 11 12  1  0  0  0  0
 11 13  1  0  0  0  0
 11 14  1  0  0  0  0
 14 15  2  0  0  0  0
 14 28  1  0  0  0  0
 15 16  1  0  0  0  0
 15 17  1  0  0  0  0
 17 18  1  0  0  0  0
 17 19  1  0  0  0  0
 19 20  1  0  0  0  0
 19 28  2  0  0  0  0
 20 21  1  0  0  0  0
 20 22  2  0  0  0  0
 22 23  1  0  0  0  0
 22 24  1  0  0  0  0
 24 25  1  0  0  0  0
 24 26  2  0  0  0  0
 26 27  1  0  0  0  0
 26 28  1  0  0  0  0
 29 30  2  0  0  0  0
 29 31  1  0  0  0  0
 31 32  1  0  0  0  0
 31 33  1  0  0  0  0
 33 34  1  0  0  0  0
 33 35  1  0  0  0  0
 33 36  1  0  0  0  0
M  END
$$$$

  -OEChem-03222214083D

 36 37  0     1  0  0  0  0  0999 V2000
   -3.8358   -4.4565    1.4984 H   0  0  0  0  0  0  0  0  0  0  0  0
   -3.7620   -3.6781    0.7339 C   0  0  0  0  0  0  0  0  0  0  0  0
   -4.5655   -2.9543    0.8908 H   0  0  0  0  0  0  0  0  0  0  0  0
   -3.8817   -4.1380   -0.2500 H   0  0  0  0  0  0  0  0  0  0  0  0
   -2.4157   -2.9847    0.8212 C   0  0  0  0  0  0  0  0  0  0  0  0
   -1.5991   -3.3472    1.6518 O   0  0  0  0  0  0  0  0  0  0  0  0
   -2.1336   -1.9389   -0.0303 N   0  0  0  0  0  0  0  0  0  0  0  0
   -2.8916   -1.6113   -0.6273 H   0  0  0  0  0  0  0  0  0  0  0  0
   -0.9180   -1.1071   -0.0007 C   0  0  1  0  0  0  0  0  0  0  0  0
   -0.4049   -1.2215    0.9606 H   0  0  0  0  0  0  0  0  0  0  0  0
    0.0401   -1.4993   -1.1461 C   0  0  0  0  0  0  0  0  0  0  0  0
   -0.4954   -2.0847   -1.9002 H   0  0  0  0  0  0  0  0  0  0  0  0
    0.4070   -0.5999   -1.6499 H   0  0  0  0  0  0  0  0  0  0  0  0
    1.2242   -2.2911   -0.6492 C   0  0  0  0  0  0  0  0  0  0  0  0
    1.1879   -3.4989    0.0058 C   0  0  0  0  0  0  0  0  0  0  0  0
    0.2896   -4.0595    0.2530 H   0  0  0  0  0  0  0  0  0  0  0  0
    2.4989   -3.8615    0.3026 N   0  0  0  0  0  0  0  0  0  0  0  0
    2.7726   -4.7032    0.8049 H   0  0  0  0  0  0  0  0  0  0  0  0
    3.3812   -2.8968   -0.1528 C   0  0  0  0  0  0  0  0  0  0  0  0
    4.7716   -2.8102   -0.0885 C   0  0  0  0  0  0  0  0  0  0  0  0
    5.3463   -3.5989    0.3841 H   0  0  0  0  0  0  0  0  0  0  0  0
    5.4126   -1.6937   -0.6425 C   0  0  0  0  0  0  0  0  0  0  0  0
    6.4948   -1.6141   -0.6008 H   0  0  0  0  0  0  0  0  0  0  0  0
    4.6575   -0.6802   -1.2519 C   0  0  0  0  0  0  0  0  0  0  0  0
    5.1568    0.1829   -1.6817 H   0  0  0  0  0  0  0  0  0  0  0  0
    3.2598   -0.7784   -1.3104 C   0  0  0  0  0  0  0  0  0  0  0  0
    2.6770    0.0045   -1.7837 H   0  0  0  0  0  0  0  0  0  0  0  0
    2.6259   -1.8961   -0.7550 C   0  0  0  0  0  0  0  0  0  0  0  0
   -1.2975    0.3793   -0.1385 C   0  0  0  0  0  0  0  0  0  0  0  0
   -2.1721    0.7127   -0.9312 O   0  0  0  0  0  0  0  0  0  0  0  0
   -0.7195    1.3327    0.6787 N   0  0  0  0  0  0  0  0  0  0  0  0
   -0.0090    1.0210    1.3358 H   0  0  0  0  0  0  0  0  0  0  0  0
   -1.0673    2.7474    0.6306 C   0  0  0  0  0  0  0  0  0  0  0  0
   -2.1314    2.8882    0.8471 H   0  0  0  0  0  0  0  0  0  0  0  0
   -0.4877    3.3047    1.3728 H   0  0  0  0  0  0  0  0  0  0  0  0
   -0.8508    3.1619   -0.3595 H   0  0  0  0  0  0  0  0  0  0  0  0
  1  2  1  0  0  0  0
  2  3  1  0  0  0  0
  2  4  1  0  0  0  0
  2  5  1  0  0  0  0
  5  6  2  0  0  0  0
  5  7  1  0  0  0  0
  7  8  1  0  0  0  0
  7  9  1  0  0  0  0
  9 10  1  0  0  0  0
  9 11  1  0  0  0  0
  9 29  1  0  0  0  0
 11 12  1  0  0  0  0
 11 13  1  0  0  0  0
 11 14  1  0  0  0  0
 14 15  2  0  0  0  0
 14 28  1  0  0  0  0
 15 16  1  0  0  0  0
 15 17  1  0  0  0  0
 17 18  1  0  0  0  0
 17 19  1  0  0  0  0
 19 20  1  0  0  0  0
 19 28  2  0  0  0  0
 20 21  1  0  0  0  0
 20 22  2  0  0  0  0
 22 23  1  0  0  0  0
 22 24  1  0  0  0  0
 24 25  1  0  0  0  0
 24 26  2  0  0  0  0
 26 27  1  0  0  0  0
 26 28  1  0  0  0  0
 29 30  2  0  0  0  0
 29 31  1  0  0  0  0
 31 32  1  0  0  0  0
 31 33  1  0  0  0  0
 33 34  1  0  0  0  0
 33 35  1  0  0  0  0
 33 36  1  0  0  0  0
M  END
$$$$

  -OEChem-03222214083D

 36 37  0     1  0  0  0  0  0999 V2000
   -3.7450   -4.4834    1.5022 H   0  0  0  0  0  0  0  0  0  0  0  0
   -3.7081   -3.6872    0.7535 C   0  0  0  0  0  0  0  0  0  0  0  0
   -4.4943   -2.9610    0.9738 H   0  0  0  0  0  0  0  0  0  0  0  0
   -3.8885   -4.1223   -0.2326 H   0  0  0  0  0  0  0  0  0  0  0  0
   -2.3528   -3.0064    0.7798 C   0  0  0  0  0  0  0  0  0  0  0  0
   -1.4871   -3.4062    1.5404 O   0  0  0  0  0  0  0  0  0  0  0  0
   -2.1112   -1.9436   -0.0632 N   0  0  0  0  0  0  0  0  0  0  0  0
   -2.8995   -1.5974   -0.6077 H   0  0  0  0  0  0  0  0  0  0  0  0
   -0.9053   -1.0980   -0.0484 C   0  0  1  0  0  0  0  0  0  0  0  0
   -0.3798   -1.2214    0.9051 H   0  0  0  0  0  0  0  0  0  0  0  0
    0.0377   -1.4896   -1.2025 C   0  0  0  0  0  0  0  0  0  0  0  0
   -0.5008   -2.0955   -1.9383 H   0  0  0  0  0  0  0  0  0  0  0  0
    0.3969   -0.5992   -1.7279 H   0  0  0  0  0  0  0  0  0  0  0  0
    1.2188   -2.2639   -0.6816 C   0  0  0  0  0  0  0  0  0  0  0  0
    1.2132   -3.5725   -0.2654 C   0  0  0  0  0  0  0  0  0  0  0  0
    0.3419   -4.2241   -0.2437 H   0  0  0  0  0  0  0  0  0  0  0  0
    2.5041   -3.8866    0.1532 N   0  0  0  0  0  0  0  0  0  0  0  0
    2.7883   -4.7804    0.5475 H   0  0  0  0  0  0  0  0  0  0  0  0
    3.3379   -2.7889    0.0151 C   0  0  0  0  0  0  0  0  0  0  0  0
    4.6906   -2.6081    0.3038 C   0  0  0  0  0  0  0  0  0  0  0  0
    5.2753   -3.4250    0.7122 H   0  0  0  0  0  0  0  0  0  0  0  0
    5.2806   -1.3602    0.0584 C   0  0  0  0  0  0  0  0  0  0  0  0
    6.3332   -1.2065    0.2766 H   0  0  0  0  0  0  0  0  0  0  0  0
    4.5132   -0.3107   -0.4703 C   0  0  0  0  0  0  0  0  0  0  0  0
    4.9740    0.6537   -0.6620 H   0  0  0  0  0  0  0  0  0  0  0  0
    3.1535   -0.5033   -0.7546 C   0  0  0  0  0  0  0  0  0  0  0  0
    2.5594    0.3061   -1.1654 H   0  0  0  0  0  0  0  0  0  0  0  0
    2.5726   -1.7519   -0.5067 C   0  0  0  0  0  0  0  0  0  0  0  0
   -1.2845    0.3897   -0.1512 C   0  0  0  0  0  0  0  0  0  0  0  0
   -2.1832    0.7369   -0.9098 O   0  0  0  0  0  0  0  0  0  0  0  0
   -0.6843    1.3254    0.6704 N   0  0  0  0  0  0  0  0  0  0  0  0
    0.0364    0.9967    1.3083 H   0  0  0  0  0  0  0  0  0  0  0  0
   -1.0418    2.7383    0.6723 C   0  0  0  0  0  0  0  0  0  0  0  0
   -2.0999    2.8657    0.9238 H   0  0  0  0  0  0  0  0  0  0  0  0
   -0.4435    3.2786    1.4122 H   0  0  0  0  0  0  0  0  0  0  0  0
   -0.8577    3.1814   -0.3120 H   0  0  0  0  0  0  0  0  0  0  0  0
  1  2  1  0  0  0  0
  2  3  1  0  0  0  0
  2  4  1  0  0  0  0
  2  5  1  0  0  0  0
  5  6  2  0  0  0  0
  5  7  1  0  0  0  0
  7  8  1  0  0  0  0
  7  9  1  0  0  0  0
  9 10  1  0  0  0  0
  9 11  1  0  0  0  0
  9 29  1  0  0  0  0
 11 12  1  0  0  0  0
 11 13  1  0  0  0  0
 11 14  1  0  0  0  0
 14 15  2  0  0  0  0
 14 28  1  0  0  0  0
 15 16  1  0  0  0  0
 15 17  1  0  0  0  0
 17 18  1  0  0  0  0
 17 19  1  0  0  0  0
 19 20  1  0  0  0  0
 19 28  2  0  0  0  0
 20 21  1  0  0  0  0
 20 22  2  0  0  0  0
 22 23  1  0  0  0  0
 22 24  1  0  0  0  0
 24 25  1  0  0  0  0
 24 26  2  0  0  0  0
 26 27  1  0  0  0  0
 26 28  1  0  0  0  0
 29 30  2  0  0  0  0
 29 31  1  0  0  0  0
 31 32  1  0  0  0  0
 31 33  1  0  0  0  0
 33 34  1  0  0  0  0
 33 35  1  0  0  0  0
 33 36  1  0  0  0  0
M  END
$$$$

  -OEChem-03222214083D

 36 37  0     1  0  0  0  0  0999 V2000
   -3.7029   -4.4977    1.4941 H   0  0  0  0  0  0  0  0  0  0  0  0
   -3.6773   -3.6972    0.7493 C   0  0  0  0  0  0  0  0  0  0  0  0
   -4.4660   -2.9769    0.9802 H   0  0  0  0  0  0  0  0  0  0  0  0
   -3.8634   -4.1282   -0.2375 H   0  0  0  0  0  0  0  0  0  0  0  0
   -2.3258   -3.0083    0.7675 C   0  0  0  0  0  0  0  0  0  0  0  0
   -1.4520   -3.4067    1.5192 O   0  0  0  0  0  0  0  0  0  0  0  0
   -2.0979   -1.9395   -0.0723 N   0  0  0  0  0  0  0  0  0  0  0  0
   -2.8918   -1.5948   -0.6093 H   0  0  0  0  0  0  0  0  0  0  0  0
   -0.8952   -1.0898   -0.0582 C   0  0  1  0  0  0  0  0  0  0  0  0
   -0.3675   -1.2189    0.8936 H   0  0  0  0  0  0  0  0  0  0  0  0
    0.0430   -1.4818   -1.2149 C   0  0  0  0  0  0  0  0  0  0  0  0
   -0.4976   -2.0894   -1.9476 H   0  0  0  0  0  0  0  0  0  0  0  0
    0.4065   -0.5942   -1.7429 H   0  0  0  0  0  0  0  0  0  0  0  0
    1.2200   -2.2522   -0.6837 C   0  0  0  0  0  0  0  0  0  0  0  0
    1.3044   -3.6131   -0.5262 C   0  0  0  0  0  0  0  0  0  0  0  0
    0.5121   -4.3244   -0.7493 H   0  0  0  0  0  0  0  0  0  0  0  0
    2.5628   -3.8962    0.0014 N   0  0  0  0  0  0  0  0  0  0  0  0
    2.8916   -4.8225    0.2638 H   0  0  0  0  0  0  0  0  0  0  0  0
    3.2849   -2.7279    0.1862 C   0  0  0  0  0  0  0  0  0  0  0  0
    4.5661   -2.4939    0.6856 C   0  0  0  0  0  0  0  0  0  0  0  0
    5.1836   -3.3230    1.0128 H   0  0  0  0  0  0  0  0  0  0  0  0
    5.0422   -1.1769    0.7566 C   0  0  0  0  0  0  0  0  0  0  0  0
    6.0389   -0.9817    1.1410 H   0  0  0  0  0  0  0  0  0  0  0  0
    4.2339   -0.1119    0.3292 C   0  0  0  0  0  0  0  0  0  0  0  0
    4.6076    0.9062    0.3818 H   0  0  0  0  0  0  0  0  0  0  0  0
    2.9466   -0.3584   -0.1691 C   0  0  0  0  0  0  0  0  0  0  0  0
    2.3202    0.4613   -0.5050 H   0  0  0  0  0  0  0  0  0  0  0  0
    2.4800   -1.6757   -0.2343 C   0  0  0  0  0  0  0  0  0  0  0  0
   -1.2688    0.3993   -0.1486 C   0  0  0  0  0  0  0  0  0  0  0  0
   -2.1636    0.7580   -0.9061 O   0  0  0  0  0  0  0  0  0  0  0  0
   -0.6591    1.3245    0.6782 N   0  0  0  0  0  0  0  0  0  0  0  0
    0.0393    0.9799    1.3324 H   0  0  0  0  0  0  0  0  0  0  0  0
   -1.0160    2.7372    0.7016 C   0  0  0  0  0  0  0  0  0  0  0  0
   -2.0696    2.8616    0.9727 H   0  0  0  0  0  0  0  0  0  0  0  0
   -0.4048    3.2693    1.4368 H   0  0  0  0  0  0  0  0  0  0  0  0
   -0.8485    3.1913   -0.2806 H   0  0  0  0  0  0  0  0  0  0  0  0
  1  2  1  0  0  0  0
  2  3  1  0  0  0  0
  2  4  1  0  0  0  0
  2  5  1  0  0  0  0
  5  6  2  0  0  0  0
  5  7  1  0  0  0  0
  7  8  1  0  0  0  0
  7  9  1  0  0  0  0
  9 10  1  0  0  0  0
  9 11  1  0  0  0  0
  9 29  1  0  0  0  0
 11 12  1  0  0  0  0
 11 13  1  0  0  0  0
 11 14  1  0  0  0  0
 14 15  2  0  0  0  0
 14 28  1  0  0  0  0
 15 16  1  0  0  0  0
 15 17  1  0  0  0  0
 17 18  1  0  0  0  0
 17 19  1  0  0  0  0
 19 20  1  0  0  0  0
 19 28  2  0  0  0  0
 20 21  1  0  0  0  0
 20 22  2  0  0  0  0
 22 23  1  0  0  0  0
 22 24  1  0  0  0  0
 24 25  1  0  0  0  0
 24 26  2  0  0  0  0
 26 27  1  0  0  0  0
 26 28  1  0  0  0  0
 29 30  2  0  0  0  0
 29 31  1  0  0  0  0
 31 32  1  0  0  0  0
 31 33  1  0  0  0  0
 33 34  1  0  0  0  0
 33 35  1  0  0  0  0
 33 36  1  0  0  0  0
M  END
$$$$

  -OEChem-03222214083D

 36 37  0     1  0  0  0  0  0999 V2000
   -3.7025   -4.5123    1.4587 H   0  0  0  0  0  0  0  0  0  0  0  0
   -3.6680   -3.7131    0.7130 C   0  0  0  0  0  0  0  0  0  0  0  0
   -4.4783   -3.0084    0.9146 H   0  0  0  0  0  0  0  0  0  0  0  0
   -3.8117   -4.1491   -0.2785 H   0  0  0  0  0  0  0  0  0  0  0  0
   -2.3316   -2.9979    0.7755 C   0  0  0  0  0  0  0  0  0  0  0  0
   -1.4834   -3.3669    1.5699 O   0  0  0  0  0  0  0  0  0  0  0  0
   -2.0941   -1.9289   -0.0617 N   0  0  0  0  0  0  0  0  0  0  0  0
   -2.8714   -1.6037   -0.6336 H   0  0  0  0  0  0  0  0  0  0  0  0
   -0.8947   -1.0758   -0.0282 C   0  0  1  0  0  0  0  0  0  0  0  0
   -0.3771   -1.2049    0.9289 H   0  0  0  0  0  0  0  0  0  0  0  0
    0.0529   -1.4675   -1.1793 C   0  0  0  0  0  0  0  0  0  0  0  0
   -0.4829   -2.0652   -1.9238 H   0  0  0  0  0  0  0  0  0  0  0  0
    0.4275   -0.5763   -1.6937 H   0  0  0  0  0  0  0  0  0  0  0  0
    1.2269   -2.2412   -0.6456 C   0  0  0  0  0  0  0  0  0  0  0  0
    1.4346   -3.5941   -0.7503 C   0  0  0  0  0  0  0  0  0  0  0  0
    0.7533   -4.3032   -1.2145 H   0  0  0  0  0  0  0  0  0  0  0  0
    2.6506   -3.8810   -0.1325 N   0  0  0  0  0  0  0  0  0  0  0  0
    3.0444   -4.8122   -0.0173 H   0  0  0  0  0  0  0  0  0  0  0  0
    3.2314   -2.7207    0.3545 C   0  0  0  0  0  0  0  0  0  0  0  0
    4.4274   -2.4929    1.0350 C   0  0  0  0  0  0  0  0  0  0  0  0
    5.0843   -3.3215    1.2749 H   0  0  0  0  0  0  0  0  0  0  0  0
    4.7679   -1.1825    1.3997 C   0  0  0  0  0  0  0  0  0  0  0  0
    5.6972   -0.9919    1.9281 H   0  0  0  0  0  0  0  0  0  0  0  0
    3.9128   -0.1172    1.0776 C   0  0  0  0  0  0  0  0  0  0  0  0
    4.1841    0.8970    1.3548 H   0  0  0  0  0  0  0  0  0  0  0  0
    2.7118   -0.3582    0.3949 C   0  0  0  0  0  0  0  0  0  0  0  0
    2.0531    0.4630    0.1343 H   0  0  0  0  0  0  0  0  0  0  0  0
    2.3764   -1.6702    0.0440 C   0  0  0  0  0  0  0  0  0  0  0  0
   -1.2763    0.4111   -0.1254 C   0  0  0  0  0  0  0  0  0  0  0  0
   -2.1459    0.7685   -0.9124 O   0  0  0  0  0  0  0  0  0  0  0  0
   -0.6860    1.3399    0.7116 N   0  0  0  0  0  0  0  0  0  0  0  0
   -0.0357    0.9916    1.4117 H   0  0  0  0  0  0  0  0  0  0  0  0
   -1.0518    2.7504    0.7262 C   0  0  0  0  0  0  0  0  0  0  0  0
   -2.1079    2.8697    0.9898 H   0  0  0  0  0  0  0  0  0  0  0  0
   -0.4483    3.2900    1.4623 H   0  0  0  0  0  0  0  0  0  0  0  0
   -0.8803    3.2005   -0.2572 H   0  0  0  0  0  0  0  0  0  0  0  0
  1  2  1  0  0  0  0
  2  3  1  0  0  0  0
  2  4  1  0  0  0  0
  2  5  1  0  0  0  0
  5  6  2  0  0  0  0
  5  7  1  0  0  0  0
  7  8  1  0  0  0  0
  7  9  1  0  0  0  0
  9 10  1  0  0  0  0
  9 11  1  0  0  0  0
  9 29  1  0  0  0  0
 11 12  1  0  0  0  0
 11 13  1  0  0  0  0
 11 14  1  0  0  0  0
 14 15  2  0  0  0  0
 14 28  1  0  0  0  0
 15 16  1  0  0  0  0
 15 17  1  0  0  0  0
 17 18  1  0  0  0  0
 17 19  1  0  0  0  0
 19 20  1  0  0  0  0
 19 28  2  0  0  0  0
 20 21  1  0  0  0  0
 20 22  2  0  0  0  0
 22 23  1  0  0  0  0
 22 24  1  0  0  0  0
 24 25  1  0  0  0  0
 24 26  2  0  0  0  0
 26 27  1  0  0  0  0
 26 28  1  0  0  0  0
 29 30  2  0  0  0  0
 29 31  1  0  0  0  0
 31 32  1  0  0  0  0
 31 33  1  0  0  0  0
 33 34  1  0  0  0  0
 33 35  1  0  0  0  0
 33 36  1  0  0  0  0
M  END
$$$$

  -OEChem-03222214083D

 36 37  0     1  0  0  0  0  0999 V2000
   -3.7326   -4.5290    1.4008 H   0  0  0  0  0  0  0  0  0  0  0  0
   -3.6771   -3.7322    0.6536 C   0  0  0  0  0  0  0  0  0  0  0  0
   -4.5206   -3.0533    0.7999 H   0  0  0  0  0  0  0  0  0  0  0  0
   -3.7436   -4.1779   -0.3417 H   0  0  0  0  0  0  0  0  0  0  0  0
   -2.3708   -2.9737    0.7940 C   0  0  0  0  0  0  0  0  0  0  0  0
   -1.5742   -3.2950    1.6592 O   0  0  0  0  0  0  0  0  0  0  0  0
   -2.1056   -1.9138   -0.0467 N   0  0  0  0  0  0  0  0  0  0  0  0
   -2.8489   -1.6180   -0.6765 H   0  0  0  0  0  0  0  0  0  0  0  0
   -0.9125   -1.0543    0.0271 C   0  0  1  0  0  0  0  0  0  0  0  0
   -0.4225   -1.1711    0.9993 H   0  0  0  0  0  0  0  0  0  0  0  0
    0.0617   -1.4533   -1.1025 C   0  0  0  0  0  0  0  0  0  0  0  0
   -0.4606   -2.0350   -1.8691 H   0  0  0  0  0  0  0  0  0  0  0  0
    0.4531   -0.5566   -1.5944 H   0  0  0  0  0  0  0  0  0  0  0  0
    1.2337   -2.2333   -0.5661 C   0  0  0  0  0  0  0  0  0  0  0  0
    1.5747   -3.5144   -0.9249 C   0  0  0  0  0  0  0  0  0  0  0  0
    1.0119   -4.1501   -1.6044 H   0  0  0  0  0  0  0  0  0  0  0  0
    2.7469   -3.8459   -0.2495 N   0  0  0  0  0  0  0  0  0  0  0  0
    3.2150   -4.7482   -0.2926 H   0  0  0  0  0  0  0  0  0  0  0  0
    3.1847   -2.7743    0.5112 C   0  0  0  0  0  0  0  0  0  0  0  0
    4.3012   -2.6154    1.3323 C   0  0  0  0  0  0  0  0  0  0  0  0
    4.9985   -3.4343    1.4703 H   0  0  0  0  0  0  0  0  0  0  0  0
    4.5111   -1.3843    1.9694 C   0  0  0  0  0  0  0  0  0  0  0  0
    5.3765   -1.2465    2.6107 H   0  0  0  0  0  0  0  0  0  0  0  0
    3.6095   -0.3277    1.7714 C   0  0  0  0  0  0  0  0  0  0  0  0
    3.7820    0.6277    2.2575 H   0  0  0  0  0  0  0  0  0  0  0  0
    2.4905   -0.5005    0.9443 C   0  0  0  0  0  0  0  0  0  0  0  0
    1.8032    0.3197    0.7762 H   0  0  0  0  0  0  0  0  0  0  0  0
    2.2764   -1.7377    0.3272 C   0  0  0  0  0  0  0  0  0  0  0  0
   -1.3144    0.4256   -0.1050 C   0  0  0  0  0  0  0  0  0  0  0  0
   -2.1408    0.7601   -0.9468 O   0  0  0  0  0  0  0  0  0  0  0  0
   -0.7780    1.3783    0.7418 N   0  0  0  0  0  0  0  0  0  0  0  0
   -0.1860    1.0476    1.4991 H   0  0  0  0  0  0  0  0  0  0  0  0
   -1.1696    2.7822    0.7159 C   0  0  0  0  0  0  0  0  0  0  0  0
   -2.2456    2.8847    0.8920 H   0  0  0  0  0  0  0  0  0  0  0  0
   -0.6378    3.3374    1.4946 H   0  0  0  0  0  0  0  0  0  0  0  0
   -0.9268    3.2296   -0.2537 H   0  0  0  0  0  0  0  0  0  0  0  0
  1  2  1  0  0  0  0
  2  3  1  0  0  0  0
  2  4  1  0  0  0  0
  2  5  1  0  0  0  0
  5  6  2  0  0  0  0
  5  7  1  0  0  0  0
  7  8  1  0  0  0  0
  7  9  1  0  0  0  0
  9 10  1  0  0  0  0
  9 11  1  0  0  0  0
  9 29  1  0  0  0  0
 11 12  1  0  0  0  0
 11 13  1  0  0  0  0
 11 14  1  0  0  0  0
 14 15  2  0  0  0  0
 14 28  1  0  0  0  0
 15 16  1  0  0  0  0
 15 17  1  0  0  0  0
 17 18  1  0  0  0  0
 17 19  1  0  0  0  0
 19 20  1  0  0  0  0
 19 28  2  0  0  0  0
 20 21  1  0  0  0  0
 20 22  2  0  0  0  0
 22 23  1  0  0  0  0
 22 24  1  0  0  0  0
 24 25  1  0  0  0  0
 24 26  2  0  0  0  0
 26 27  1  0  0  0  0
 26 28  1  0  0  0  0
 29 30  2  0  0  0  0
 29 31  1  0  0  0  0
 31 32  1  0  0  0  0
 31 33  1  0  0  0  0
 33 34  1  0  0  0  0
 33 35  1  0  0  0  0
 33 36  1  0  0  0  0
M  END
$$$$

  -OEChem-03222214083D

 36 37  0     1  0  0  0  0  0999 V2000
   -3.8005   -4.5392    1.3325 H   0  0  0  0  0  0  0  0  0  0  0  0
   -3.7252   -3.7346    0.5957 C   0  0  0  0  0  0  0  0  0  0  0  0
   -4.5885   -3.0740    0.7056 H   0  0  0  0  0  0  0  0  0  0  0  0
   -3.7342   -4.1728   -0.4051 H   0  0  0  0  0  0  0  0  0  0  0  0
   -2.4429   -2.9515    0.8061 C   0  0  0  0  0  0  0  0  0  0  0  0
   -1.7077   -3.2312    1.7378 O   0  0  0  0  0  0  0  0  0  0  0  0
   -2.1367   -1.9072   -0.0401 N   0  0  0  0  0  0  0  0  0  0  0  0
   -2.8369   -1.6400   -0.7294 H   0  0  0  0  0  0  0  0  0  0  0  0
   -0.9495   -1.0446    0.0753 C   0  0  1  0  0  0  0  0  0  0  0  0
   -0.5031   -1.1471    1.0684 H   0  0  0  0  0  0  0  0  0  0  0  0
    0.0656   -1.4498   -1.0170 C   0  0  0  0  0  0  0  0  0  0  0  0
   -0.4353   -2.0181   -1.8074 H   0  0  0  0  0  0  0  0  0  0  0  0
    0.4708   -0.5469   -1.4860 H   0  0  0  0  0  0  0  0  0  0  0  0
    1.2399   -2.2324   -0.4802 C   0  0  0  0  0  0  0  0  0  0  0  0
    1.7344   -3.3703   -1.0713 C   0  0  0  0  0  0  0  0  0  0  0  0
    1.3019   -3.8688   -1.9358 H   0  0  0  0  0  0  0  0  0  0  0  0
    2.8671   -3.7642   -0.3657 N   0  0  0  0  0  0  0  0  0  0  0  0
    3.4263   -4.5911   -0.5627 H   0  0  0  0  0  0  0  0  0  0  0  0
    3.1410   -2.8591    0.6445 C   0  0  0  0  0  0  0  0  0  0  0  0
    4.1764   -2.8146    1.5780 C   0  0  0  0  0  0  0  0  0  0  0  0
    4.9273   -3.5965    1.5996 H   0  0  0  0  0  0  0  0  0  0  0  0
    4.2366   -1.7438    2.4795 C   0  0  0  0  0  0  0  0  0  0  0  0
    5.0371   -1.6952    3.2120 H   0  0  0  0  0  0  0  0  0  0  0  0
    3.2690   -0.7299    2.4289 C   0  0  0  0  0  0  0  0  0  0  0  0
    3.3247    0.1040    3.1219 H   0  0  0  0  0  0  0  0  0  0  0  0
    2.2332   -0.7886    1.4855 C   0  0  0  0  0  0  0  0  0  0  0  0
    1.4988    0.0048    1.4417 H   0  0  0  0  0  0  0  0  0  0  0  0
    2.1618   -1.8708    0.5996 C   0  0  0  0  0  0  0  0  0  0  0  0
   -1.3612    0.4286   -0.1063 C   0  0  0  0  0  0  0  0  0  0  0  0
   -2.1431    0.7346   -1.0004 O   0  0  0  0  0  0  0  0  0  0  0  0
   -0.8803    1.4092    0.7419 N   0  0  0  0  0  0  0  0  0  0  0  0
   -0.3221    1.1090    1.5357 H   0  0  0  0  0  0  0  0  0  0  0  0
   -1.2758    2.8091    0.6490 C   0  0  0  0  0  0  0  0  0  0  0  0
   -2.3595    2.9109    0.7696 H   0  0  0  0  0  0  0  0  0  0  0  0
   -0.7843    3.3937    1.4326 H   0  0  0  0  0  0  0  0  0  0  0  0
   -0.9880    3.2241   -0.3227 H   0  0  0  0  0  0  0  0  0  0  0  0
  1  2  1  0  0  0  0
  2  3  1  0  0  0  0
  2  4  1  0  0  0  0
  2  5  1  0  0  0  0
  5  6  2  0  0  0  0
  5  7  1  0  0  0  0
  7  8  1  0  0  0  0
  7  9  1  0  0  0  0
  9 10  1  0  0  0  0
  9 11  1  0  0  0  0
  9 29  1  0  0  0  0
 11 12  1  0  0  0  0
 11 13  1  0  0  0  0
 11 14  1  0  0  0  0
 14 15  2  0  0  0  0
 14 28  1  0  0  0  0
 15 16  1  0  0  0  0
 15 17  1  0  0  0  0
 17 18  1  0  0  0  0
 17 19  1  0  0  0  0
 19 20  1  0  0  0  0
 19 28  2  0  0  0  0
 20 21  1  0  0  0  0
 20 22  2  0  0  0  0
 22 23  1  0  0  0  0
 22 24  1  0  0  0  0
 24 25  1  0  0  0  0
 24 26  2  0  0  0  0
 26 27  1  0  0  0  0
 26 28  1  0  0  0  0
 29 30  2  0  0  0  0
 29 31  1  0  0  0  0
 31 32  1  0  0  0  0
 31 33  1  0  0  0  0
 33 34  1  0  0  0  0
 33 35  1  0  0  0  0
 33 36  1  0  0  0  0
M  END
$$$$

  -OEChem-03222214083D

 36 37  0     1  0  0  0  0  0999 V2000
   -3.8964   -4.5451    1.2691 H   0  0  0  0  0  0  0  0  0  0  0  0
   -3.8084   -3.7365    0.5378 C   0  0  0  0  0  0  0  0  0  0  0  0
   -4.6765   -3.0800    0.6320 H   0  0  0  0  0  0  0  0  0  0  0  0
   -3.7943   -4.1699   -0.4651 H   0  0  0  0  0  0  0  0  0  0  0  0
   -2.5347   -2.9491    0.7820 C   0  0  0  0  0  0  0  0  0  0  0  0
   -1.8398   -3.2078    1.7501 O   0  0  0  0  0  0  0  0  0  0  0  0
   -2.1982   -1.9156   -0.0668 N   0  0  0  0  0  0  0  0  0  0  0  0
   -2.8695   -1.6636   -0.7895 H   0  0  0  0  0  0  0  0  0  0  0  0
   -1.0160   -1.0506    0.0811 C   0  0  1  0  0  0  0  0  0  0  0  0
   -0.6251   -1.1468    1.0933 H   0  0  0  0  0  0  0  0  0  0  0  0
    0.0516   -1.4641   -0.9558 C   0  0  0  0  0  0  0  0  0  0  0  0
   -0.4174   -2.0361   -1.7630 H   0  0  0  0  0  0  0  0  0  0  0  0
    0.4649   -0.5594   -1.4143 H   0  0  0  0  0  0  0  0  0  0  0  0
    1.2302   -2.2361   -0.4023 C   0  0  0  0  0  0  0  0  0  0  0  0
    1.8980   -3.1637   -1.1669 C   0  0  0  0  0  0  0  0  0  0  0  0
    1.6063   -3.4799   -2.1658 H   0  0  0  0  0  0  0  0  0  0  0  0
    2.9928   -3.6192   -0.4435 N   0  0  0  0  0  0  0  0  0  0  0  0
    3.6534   -4.3279   -0.7543 H   0  0  0  0  0  0  0  0  0  0  0  0
    3.0794   -2.9455    0.7598 C   0  0  0  0  0  0  0  0  0  0  0  0
    4.0306   -3.0440    1.7747 C   0  0  0  0  0  0  0  0  0  0  0  0
    4.8459   -3.7541    1.6936 H   0  0  0  0  0  0  0  0  0  0  0  0
    3.9221   -2.2101    2.8932 C   0  0  0  0  0  0  0  0  0  0  0  0
    4.6534   -2.2757    3.6932 H   0  0  0  0  0  0  0  0  0  0  0  0
    2.8737   -1.2846    2.9737 C   0  0  0  0  0  0  0  0  0  0  0  0
    2.7954   -0.6326    3.8384 H   0  0  0  0  0  0  0  0  0  0  0  0
    1.9255   -1.1970    1.9441 C   0  0  0  0  0  0  0  0  0  0  0  0
    1.1361   -0.4628    2.0271 H   0  0  0  0  0  0  0  0  0  0  0  0
    2.0139   -2.0487    0.8310 C   0  0  0  0  0  0  0  0  0  0  0  0
   -1.4059    0.4242   -0.1320 C   0  0  0  0  0  0  0  0  0  0  0  0
   -2.1602    0.7278   -1.0501 O   0  0  0  0  0  0  0  0  0  0  0  0
   -0.9449    1.4068    0.7244 N   0  0  0  0  0  0  0  0  0  0  0  0
   -0.3510    1.1185    1.4960 H   0  0  0  0  0  0  0  0  0  0  0  0
   -1.2880    2.8165    0.5866 C   0  0  0  0  0  0  0  0  0  0  0  0
   -2.3723    2.9554    0.6517 H   0  0  0  0  0  0  0  0  0  0  0  0
   -0.8165    3.3998    1.3836 H   0  0  0  0  0  0  0  0  0  0  0  0
   -0.9395    3.2026   -0.3771 H   0  0  0  0  0  0  0  0  0  0  0  0
  1  2  1  0  0  0  0
  2  3  1  0  0  0  0
  2  4  1  0  0  0  0
  2  5  1  0  0  0  0
  5  6  2  0  0  0  0
  5  7  1  0  0  0  0
  7  8  1  0  0  0  0
  7  9  1  0  0  0  0
  9 10  1  0  0  0  0
  9 11  1  0  0  0  0
  9 29  1  0  0  0  0
 11 12  1  0  0  0  0
 11 13  1  0  0  0  0
 11 14  1  0  0  0  0
 14 15  2  0  0  0  0
 14 28  1  0  0  0  0
 15 16  1  0  0  0  0
 15 17  1  0  0  0  0
 17 18  1  0  0  0  0
 17 19  1  0  0  0  0
 19 20  1  0  0  0  0
 19 28  2  0  0  0  0
 20 21  1  0  0  0  0
 20 22  2  0  0  0  0
 22 23  1  0  0  0  0
 22 24  1  0  0  0  0
 24 25  1  0  0  0  0
 24 26  2  0  0  0  0
 26 27  1  0  0  0  0
 26 28  1  0  0  0  0
 29 30  2  0  0  0  0
 29 31  1  0  0  0  0
 31 32  1  0  0  0  0
 31 33  1  0  0  0  0
 33 34  1  0  0  0  0
 33 35  1  0  0  0  0
 33 36  1  0  0  0  0
M  END
$$$$

  -OEChem-03222214083D

 36 37  0     1  0  0  0  0  0999 V2000
   -3.9204   -4.4430    1.3702 H   0  0  0  0  0  0  0  0  0  0  0  0
   -3.8004   -3.6962    0.5802 C   0  0  0  0  0  0  0  0  0  0  0  0
   -4.6820   -3.0509    0.5677 H   0  0  0  0  0  0  0  0  0  0  0  0
   -3.7193   -4.2109   -0.3802 H   0  0  0  0  0  0  0  0  0  0  0  0
   -2.5553   -2.8661    0.8307 C   0  0  0  0  0  0  0  0  0  0  0  0
   -1.8971   -3.0466    1.8420 O   0  0  0  0  0  0  0  0  0  0  0  0
   -2.2074   -1.8732   -0.0604 N   0  0  0  0  0  0  0  0  0  0  0  0
   -2.8515   -1.6761   -0.8237 H   0  0  0  0  0  0  0  0  0  0  0  0
   -1.0381   -0.9913    0.0813 C   0  0  1  0  0  0  0  0  0  0  0  0
   -0.6784   -1.0126    1.1029 H   0  0  0  0  0  0  0  0  0  0  0  0
    0.0672   -1.4276   -0.9029 C   0  0  0  0  0  0  0  0  0  0  0  0
   -0.3812   -2.0326   -1.6979 H   0  0  0  0  0  0  0  0  0  0  0  0
    0.4696   -0.5314   -1.3871 H   0  0  0  0  0  0  0  0  0  0  0  0
    1.2684   -2.1683   -0.3404 C   0  0  0  0  0  0  0  0  0  0  0  0
    2.0927   -2.8324   -1.2200 C   0  0  0  0  0  0  0  0  0  0  0  0
    1.9369   -2.9008   -2.2944 H   0  0  0  0  0  0  0  0  0  0  0  0
    3.1480   -3.3818   -0.5082 N   0  0  0  0  0  0  0  0  0  0  0  0
    3.9041   -3.9370   -0.9024 H   0  0  0  0  0  0  0  0  0  0  0  0
    3.0265   -3.0675    0.8298 C   0  0  0  0  0  0  0  0  0  0  0  0
    3.8720   -3.4087    1.8845 C   0  0  0  0  0  0  0  0  0  0  0  0
    4.7612   -4.0025    1.7052 H   0  0  0  0  0  0  0  0  0  0  0  0
    3.5561   -2.9761    3.1750 C   0  0  0  0  0  0  0  0  0  0  0  0
    4.2004   -3.2340    4.0101 H   0  0  0  0  0  0  0  0  0  0  0  0
    2.4011   -2.2152    3.3871 C   0  0  0  0  0  0  0  0  0  0  0  0
    2.1474   -1.8862    4.3902 H   0  0  0  0  0  0  0  0  0  0  0  0
    1.5607   -1.8822    2.3151 C   0  0  0  0  0  0  0  0  0  0  0  0
    0.6770   -1.3049    2.5444 H   0  0  0  0  0  0  0  0  0  0  0  0
    1.8674   -2.3065    1.0078 C   0  0  0  0  0  0  0  0  0  0  0  0
   -1.4439    0.4650   -0.2161 C   0  0  0  0  0  0  0  0  0  0  0  0
   -2.1817    0.7115   -1.1645 O   0  0  0  0  0  0  0  0  0  0  0  0
   -1.0219    1.4940    0.6053 N   0  0  0  0  0  0  0  0  0  0  0  0
   -0.4174    1.2550    1.3866 H   0  0  0  0  0  0  0  0  0  0  0  0
   -1.3923    2.8884    0.3996 C   0  0  0  0  0  0  0  0  0  0  0  0
   -2.4801    3.0071    0.4443 H   0  0  0  0  0  0  0  0  0  0  0  0
   -0.9449    3.5169    1.1757 H   0  0  0  0  0  0  0  0  0  0  0  0
   -1.0383    3.2383   -0.5757 H   0  0  0  0  0  0  0  0  0  0  0  0
  1  2  1  0  0  0  0
  2  3  1  0  0  0  0
  2  4  1  0  0  0  0
  2  5  1  0  0  0  0
  5  6  2  0  0  0  0
  5  7  1  0  0  0  0
  7  8  1  0  0  0  0
  7  9  1  0  0  0  0
  9 10  1  0  0  0  0
  9 11  1  0  0  0  0
  9 29  1  0  0  0  0
 11 12  1  0  0  0  0
 11 13  1  0  0  0  0
 11 14  1  0  0  0  0
 14 15  2  0  0  0  0
 14 28  1  0  0  0  0
 15 16  1  0  0  0  0
 15 17  1  0  0  0  0
 17 18  1  0  0  0  0
 17 19  1  0  0  0  0
 19 20  1  0  0  0  0
 19 28  2  0  0  0  0
 20 21  1  0  0  0  0
 20 22  2  0  0  0  0
 22 23  1  0  0  0  0
 22 24  1  0  0  0  0
 24 25  1  0  0  0  0
 24 26  2  0  0  0  0
 26 27  1  0  0  0  0
 26 28  1  0  0  0  0
 29 30  2  0  0  0  0
 29 31  1  0  0  0  0
 31 32  1  0  0  0  0
 31 33  1  0  0  0  0
 33 34  1  0  0  0  0
 33 35  1  0  0  0  0
 33 36  1  0  0  0  0
M  END
$$$$

  -OEChem-03222214083D

 36 37  0     1  0  0  0  0  0999 V2000
   -4.1211   -4.3805    1.2551 H   0  0  0  0  0  0  0  0  0  0  0  0
   -3.8867   -3.6644    0.4625 C   0  0  0  0  0  0  0  0  0  0  0  0
   -4.7771   -3.0679    0.2502 H   0  0  0  0  0  0  0  0  0  0  0  0
   -3.6014   -4.2168   -0.4360 H   0  0  0  0  0  0  0  0  0  0  0  0
   -2.7496   -2.7594    0.8964 C   0  0  0  0  0  0  0  0  0  0  0  0
   -2.3478   -2.8036    2.0456 O   0  0  0  0  0  0  0  0  0  0  0  0
   -2.2682   -1.8096    0.0224 N   0  0  0  0  0  0  0  0  0  0  0  0
   -2.7425   -1.7359   -0.8745 H   0  0  0  0  0  0  0  0  0  0  0  0
   -1.0601   -0.9822    0.1957 C   0  0  1  0  0  0  0  0  0  0  0  0
   -0.6935   -0.9990    1.2222 H   0  0  0  0  0  0  0  0  0  0  0  0
    0.0244   -1.4678   -0.7931 C   0  0  0  0  0  0  0  0  0  0  0  0
   -0.4673   -1.7925   -1.7163 H   0  0  0  0  0  0  0  0  0  0  0  0
    0.6439   -0.6039   -1.0583 H   0  0  0  0  0  0  0  0  0  0  0  0
    1.0006   -2.5482   -0.3658 C   0  0  0  0  0  0  0  0  0  0  0  0
    1.9506   -2.9612   -1.2723 C   0  0  0  0  0  0  0  0  0  0  0  0
    2.0258   -2.6149   -2.3009 H   0  0  0  0  0  0  0  0  0  0  0  0
    2.7778   -3.8893   -0.6573 N   0  0  0  0  0  0  0  0  0  0  0  0
    3.5607   -4.3690   -1.0964 H   0  0  0  0  0  0  0  0  0  0  0  0
    2.4091   -4.0437    0.6637 C   0  0  0  0  0  0  0  0  0  0  0  0
    2.9837   -4.8432    1.6517 C   0  0  0  0  0  0  0  0  0  0  0  0
    3.8298   -5.4803    1.4197 H   0  0  0  0  0  0  0  0  0  0  0  0
    2.4570   -4.8073    2.9465 C   0  0  0  0  0  0  0  0  0  0  0  0
    2.8873   -5.4245    3.7294 H   0  0  0  0  0  0  0  0  0  0  0  0
    1.3768   -3.9641    3.2315 C   0  0  0  0  0  0  0  0  0  0  0  0
    0.9673   -3.9252    4.2364 H   0  0  0  0  0  0  0  0  0  0  0  0
    0.8149   -3.1655    2.2256 C   0  0  0  0  0  0  0  0  0  0  0  0
   -0.0058   -2.5180    2.4949 H   0  0  0  0  0  0  0  0  0  0  0  0
    1.3153   -3.2121    0.9152 C   0  0  0  0  0  0  0  0  0  0  0  0
   -1.3885    0.4787   -0.1712 C   0  0  0  0  0  0  0  0  0  0  0  0
   -2.0205    0.7274   -1.1929 O   0  0  0  0  0  0  0  0  0  0  0  0
   -0.9625    1.5177    0.6354 N   0  0  0  0  0  0  0  0  0  0  0  0
   -0.4809    1.2767    1.4976 H   0  0  0  0  0  0  0  0  0  0  0  0
   -1.2693    2.9163    0.3647 C   0  0  0  0  0  0  0  0  0  0  0  0
   -2.3523    3.0777    0.3683 H   0  0  0  0  0  0  0  0  0  0  0  0
   -0.8211    3.5571    1.1300 H   0  0  0  0  0  0  0  0  0  0  0  0
   -0.8710    3.2136   -0.6111 H   0  0  0  0  0  0  0  0  0  0  0  0
  1  2  1  0  0  0  0
  2  3  1  0  0  0  0
  2  4  1  0  0  0  0
  2  5  1  0  0  0  0
  5  6  2  0  0  0  0
  5  7  1  0  0  0  0
  7  8  1  0  0  0  0
  7  9  1  0  0  0  0
  9 10  1  0  0  0  0
  9 11  1  0  0  0  0
  9 29  1  0  0  0  0
 11 12  1  0  0  0  0
 11 13  1  0  0  0  0
 11 14  1  0  0  0  0
 14 15  2  0  0  0  0
 14 28  1  0  0  0  0
 15 16  1  0  0  0  0
 15 17  1  0  0  0  0
 17 18  1  0  0  0  0
 17 19  1  0  0  0  0
 19 20  1  0  0  0  0
 19 28  2  0  0  0  0
 20 21  1  0  0  0  0
 20 22  2  0  0  0  0
 22 23  1  0  0  0  0
 22 24  1  0  0  0  0
 24 25  1  0  0  0  0
 24 26  2  0  0  0  0
 26 27  1  0  0  0  0
 26 28  1  0  0  0  0
 29 30  2  0  0  0  0
 29 31  1  0  0  0  0
 31 32  1  0  0  0  0
 31 33  1  0  0  0  0
 33 34  1  0  0  0  0
 33 35  1  0  0  0  0
 33 36  1  0  0  0  0
M  END
$$$$

  -OEChem-03222214083D

 36 37  0     1  0  0  0  0  0999 V2000
   -4.1245   -4.4765    1.2867 H   0  0  0  0  0  0  0  0  0  0  0  0
   -3.8448   -3.8063    0.4690 C   0  0  0  0  0  0  0  0  0  0  0  0
   -4.7423   -3.3013    0.1036 H   0  0  0  0  0  0  0  0  0  0  0  0
   -3.4131   -4.4010   -0.3396 H   0  0  0  0  0  0  0  0  0  0  0  0
   -2.8360   -2.7829    0.9543 C   0  0  0  0  0  0  0  0  0  0  0  0
   -2.6024   -2.6830    2.1462 O   0  0  0  0  0  0  0  0  0  0  0  0
   -2.3388   -1.8469    0.0760 N   0  0  0  0  0  0  0  0  0  0  0  0
   -2.7201   -1.8822   -0.8659 H   0  0  0  0  0  0  0  0  0  0  0  0
   -1.1356   -1.0082    0.2475 C   0  0  1  0  0  0  0  0  0  0  0  0
   -0.7606   -1.0284    1.2746 H   0  0  0  0  0  0  0  0  0  0  0  0
   -0.0475   -1.4788   -0.7550 C   0  0  0  0  0  0  0  0  0  0  0  0
   -0.5532   -1.8108   -1.6679 H   0  0  0  0  0  0  0  0  0  0  0  0
    0.5469   -0.6012   -1.0348 H   0  0  0  0  0  0  0  0  0  0  0  0
    0.9661   -2.5472   -0.3824 C   0  0  0  0  0  0  0  0  0  0  0  0
    2.0744   -2.6951   -1.1875 C   0  0  0  0  0  0  0  0  0  0  0  0
    2.2547   -2.1468   -2.1097 H   0  0  0  0  0  0  0  0  0  0  0  0
    2.8925   -3.6769   -0.6483 N   0  0  0  0  0  0  0  0  0  0  0  0
    3.7700   -4.0032   -1.0475 H   0  0  0  0  0  0  0  0  0  0  0  0
    2.3709   -4.1125    0.5519 C   0  0  0  0  0  0  0  0  0  0  0  0
    2.8827   -5.0444    1.4547 C   0  0  0  0  0  0  0  0  0  0  0  0
    3.8008   -5.5764    1.2323 H   0  0  0  0  0  0  0  0  0  0  0  0
    2.2029   -5.2703    2.6559 C   0  0  0  0  0  0  0  0  0  0  0  0
    2.5845   -5.9912    3.3727 H   0  0  0  0  0  0  0  0  0  0  0  0
    1.0408   -4.5434    2.9405 C   0  0  0  0  0  0  0  0  0  0  0  0
    0.5218   -4.6918    3.8828 H   0  0  0  0  0  0  0  0  0  0  0  0
    0.5467   -3.6104    2.0182 C   0  0  0  0  0  0  0  0  0  0  0  0
   -0.3184   -3.0295    2.2851 H   0  0  0  0  0  0  0  0  0  0  0  0
    1.1880   -3.4110    0.7912 C   0  0  0  0  0  0  0  0  0  0  0  0
   -1.4732    0.4437   -0.1512 C   0  0  0  0  0  0  0  0  0  0  0  0
   -2.0723    0.6734   -1.1969 O   0  0  0  0  0  0  0  0  0  0  0  0
   -1.0632    1.4985    0.6431 N   0  0  0  0  0  0  0  0  0  0  0  0
   -0.6322    1.2705    1.5350 H   0  0  0  0  0  0  0  0  0  0  0  0
   -1.3874    2.8897    0.3534 C   0  0  0  0  0  0  0  0  0  0  0  0
   -2.4726    3.0359    0.3432 H   0  0  0  0  0  0  0  0  0  0  0  0
   -0.9568    3.5445    1.1171 H   0  0  0  0  0  0  0  0  0  0  0  0
   -0.9826    3.1838   -0.6207 H   0  0  0  0  0  0  0  0  0  0  0  0
  1  2  1  0  0  0  0
  2  3  1  0  0  0  0
  2  4  1  0  0  0  0
  2  5  1  0  0  0  0
  5  6  2  0  0  0  0
  5  7  1  0  0  0  0
  7  8  1  0  0  0  0
  7  9  1  0  0  0  0
  9 10  1  0  0  0  0
  9 11  1  0  0  0  0
  9 29  1  0  0  0  0
 11 12  1  0  0  0  0
 11 13  1  0  0  0  0
 11 14  1  0  0  0  0
 14 15  2  0  0  0  0
 14 28  1  0  0  0  0
 15 16  1  0  0  0  0
 15 17  1  0  0  0  0
 17 18  1  0  0  0  0
 17 19  1  0  0  0  0
 19 20  1  0  0  0  0
 19 28  2  0  0  0  0
 20 21  1  0  0  0  0
 20 22  2  0  0  0  0
 22 23  1  0  0  0  0
 22 24  1  0  0  0  0
 24 25  1  0  0  0  0
 24 26  2  0  0  0  0
 26 27  1  0  0  0  0
 26 28  1  0  0  0  0
 29 30  2  0  0  0  0
 29 31  1  0  0  0  0
 31 32  1  0  0  0  0
 31 33  1  0  0  0  0
 33 34  1  0  0  0  0
 33 35  1  0  0  0  0
 33 36  1  0  0  0  0
M  END
$$$$

  -OEChem-03222214083D

 36 37  0     1  0  0  0  0  0999 V2000
   -4.2614   -4.2515    1.4940 H   0  0  0  0  0  0  0  0  0  0  0  0
   -4.0078   -3.5691    0.6779 C   0  0  0  0  0  0  0  0  0  0  0  0
   -4.8905   -2.9763    0.4261 H   0  0  0  0  0  0  0  0  0  0  0  0
   -3.7113   -4.1585   -0.1932 H   0  0  0  0  0  0  0  0  0  0  0  0
   -2.8724   -2.6544    1.0959 C   0  0  0  0  0  0  0  0  0  0  0  0
   -2.4976   -2.6375    2.2574 O   0  0  0  0  0  0  0  0  0  0  0  0
   -2.3497   -1.7541    0.1969 N   0  0  0  0  0  0  0  0  0  0  0  0
   -2.7982   -1.7078   -0.7154 H   0  0  0  0  0  0  0  0  0  0  0  0
   -1.1165   -0.9629    0.3618 C   0  0  1  0  0  0  0  0  0  0  0  0
   -0.7654   -0.9762    1.3988 H   0  0  0  0  0  0  0  0  0  0  0  0
    0.0341   -1.3890   -0.5982 C   0  0  0  0  0  0  0  0  0  0  0  0
   -0.4367   -1.7237   -1.5282 H   0  0  0  0  0  0  0  0  0  0  0  0
    0.6087   -0.4901   -0.8499 H   0  0  0  0  0  0  0  0  0  0  0  0
    1.0643   -2.4485   -0.2263 C   0  0  0  0  0  0  0  0  0  0  0  0
    2.3227   -2.3175   -0.7767 C   0  0  0  0  0  0  0  0  0  0  0  0
    2.6404   -1.5053   -1.4270 H   0  0  0  0  0  0  0  0  0  0  0  0
    3.1125   -3.3781   -0.3619 N   0  0  0  0  0  0  0  0  0  0  0  0
    4.0868   -3.5281   -0.6148 H   0  0  0  0  0  0  0  0  0  0  0  0
    2.3702   -4.2305    0.4262 C   0  0  0  0  0  0  0  0  0  0  0  0
    2.7562   -5.4260    1.0323 C   0  0  0  0  0  0  0  0  0  0  0  0
    3.7716   -5.7919    0.9288 H   0  0  0  0  0  0  0  0  0  0  0  0
    1.8136   -6.1473    1.7707 C   0  0  0  0  0  0  0  0  0  0  0  0
    2.0923   -7.0797    2.2525 H   0  0  0  0  0  0  0  0  0  0  0  0
    0.5049   -5.6642    1.8788 C   0  0  0  0  0  0  0  0  0  0  0  0
   -0.2359   -6.2213    2.4445 H   0  0  0  0  0  0  0  0  0  0  0  0
    0.1422   -4.4603    1.2592 C   0  0  0  0  0  0  0  0  0  0  0  0
   -0.8721   -4.1256    1.3483 H   0  0  0  0  0  0  0  0  0  0  0  0
    1.0762   -3.7146    0.5337 C   0  0  0  0  0  0  0  0  0  0  0  0
   -1.4401    0.4859   -0.0638 C   0  0  0  0  0  0  0  0  0  0  0  0
   -2.0601    0.7037   -1.1004 O   0  0  0  0  0  0  0  0  0  0  0  0
   -1.0146    1.5505    0.7091 N   0  0  0  0  0  0  0  0  0  0  0  0
   -0.5738    1.3331    1.5990 H   0  0  0  0  0  0  0  0  0  0  0  0
   -1.3463    2.9375    0.4086 C   0  0  0  0  0  0  0  0  0  0  0  0
   -2.4317    3.0818    0.4202 H   0  0  0  0  0  0  0  0  0  0  0  0
   -0.9006    3.6031    1.1539 H   0  0  0  0  0  0  0  0  0  0  0  0
   -0.9635    3.2186   -0.5780 H   0  0  0  0  0  0  0  0  0  0  0  0
  1  2  1  0  0  0  0
  2  3  1  0  0  0  0
  2  4  1  0  0  0  0
  2  5  1  0  0  0  0
  5  6  2  0  0  0  0
  5  7  1  0  0  0  0
  7  8  1  0  0  0  0
  7  9  1  0  0  0  0
  9 10  1  0  0  0  0
  9 11  1  0  0  0  0
  9 29  1  0  0  0  0
 11 12  1  0  0  0  0
 11 13  1  0  0  0  0
 11 14  1  0  0  0  0
 14 15  2  0  0  0  0
 14 28  1  0  0  0  0
 15 16  1  0  0  0  0
 15 17  1  0  0  0  0
 17 18  1  0  0  0  0
 17 19  1  0  0  0  0
 19 20  1  0  0  0  0
 19 28  2  0  0  0  0
 20 21  1  0  0  0  0
 20 22  2  0  0  0  0
 22 23  1  0  0  0  0
 22 24  1  0  0  0  0
 24 25  1  0  0  0  0
 24 26  2  0  0  0  0
 26 27  1  0  0  0  0
 26 28  1  0  0  0  0
 29 30  2  0  0  0  0
 29 31  1  0  0  0  0
 31 32  1  0  0  0  0
 31 33  1  0  0  0  0
 33 34  1  0  0  0  0
 33 35  1  0  0  0  0
 33 36  1  0  0  0  0
M  END
$$$$

  -OEChem-03222214083D

 36 37  0     1  0  0  0  0  0999 V2000
   -4.1691   -4.1111    1.7996 H   0  0  0  0  0  0  0  0  0  0  0  0
   -3.9945   -3.4277    0.9637 C   0  0  0  0  0  0  0  0  0  0  0  0
   -4.8442   -2.7456    0.8819 H   0  0  0  0  0  0  0  0  0  0  0  0
   -3.9143   -4.0112    0.0434 H   0  0  0  0  0  0  0  0  0  0  0  0
   -2.7183   -2.6397    1.1911 C   0  0  0  0  0  0  0  0  0  0  0  0
   -2.1306   -2.7294    2.2556 O   0  0  0  0  0  0  0  0  0  0  0  0
   -2.2643   -1.7805    0.2145 N   0  0  0  0  0  0  0  0  0  0  0  0
   -2.8542   -1.6495   -0.6051 H   0  0  0  0  0  0  0  0  0  0  0  0
   -1.0212   -0.9931    0.2730 C   0  0  1  0  0  0  0  0  0  0  0  0
   -0.6313   -0.9545    1.2956 H   0  0  0  0  0  0  0  0  0  0  0  0
    0.1063   -1.4631   -0.6889 C   0  0  0  0  0  0  0  0  0  0  0  0
   -0.3677   -1.8701   -1.5877 H   0  0  0  0  0  0  0  0  0  0  0  0
    0.6862   -0.5901   -1.0090 H   0  0  0  0  0  0  0  0  0  0  0  0
    1.0968   -2.4940   -0.1780 C   0  0  0  0  0  0  0  0  0  0  0  0
    2.4469   -2.3250   -0.3970 C   0  0  0  0  0  0  0  0  0  0  0  0
    2.9047   -1.4446   -0.8423 H   0  0  0  0  0  0  0  0  0  0  0  0
    3.1200   -3.4463    0.0693 N   0  0  0  0  0  0  0  0  0  0  0  0
    4.1283   -3.5830    0.0517 H   0  0  0  0  0  0  0  0  0  0  0  0
    2.2116   -4.3980    0.4857 C   0  0  0  0  0  0  0  0  0  0  0  0
    2.4231   -5.6937    0.9579 C   0  0  0  0  0  0  0  0  0  0  0  0
    3.4304   -6.0702    1.0955 H   0  0  0  0  0  0  0  0  0  0  0  0
    1.3171   -6.5050    1.2345 C   0  0  0  0  0  0  0  0  0  0  0  0
    1.4603   -7.5152    1.6057 H   0  0  0  0  0  0  0  0  0  0  0  0
    0.0242   -6.0176    1.0055 C   0  0  0  0  0  0  0  0  0  0  0  0
   -0.8361   -6.6525    1.1930 H   0  0  0  0  0  0  0  0  0  0  0  0
   -0.1642   -4.7135    0.5265 C   0  0  0  0  0  0  0  0  0  0  0  0
   -1.1614   -4.3713    0.3065 H   0  0  0  0  0  0  0  0  0  0  0  0
    0.9319   -3.8738    0.3061 C   0  0  0  0  0  0  0  0  0  0  0  0
   -1.3621    0.4389   -0.1890 C   0  0  0  0  0  0  0  0  0  0  0  0
   -2.0696    0.6179   -1.1755 O   0  0  0  0  0  0  0  0  0  0  0  0
   -0.8852    1.5304    0.5132 N   0  0  0  0  0  0  0  0  0  0  0  0
   -0.3716    1.3456    1.3708 H   0  0  0  0  0  0  0  0  0  0  0  0
   -1.2289    2.9072    0.1808 C   0  0  0  0  0  0  0  0  0  0  0  0
   -2.3090    3.0643    0.2688 H   0  0  0  0  0  0  0  0  0  0  0  0
   -0.7217    3.5982    0.8611 H   0  0  0  0  0  0  0  0  0  0  0  0
   -0.9204    3.1433   -0.8431 H   0  0  0  0  0  0  0  0  0  0  0  0
  1  2  1  0  0  0  0
  2  3  1  0  0  0  0
  2  4  1  0  0  0  0
  2  5  1  0  0  0  0
  5  6  2  0  0  0  0
  5  7  1  0  0  0  0
  7  8  1  0  0  0  0
  7  9  1  0  0  0  0
  9 10  1  0  0  0  0
  9 11  1  0  0  0  0
  9 29  1  0  0  0  0
 11 12  1  0  0  0  0
 11 13  1  0  0  0  0
 11 14  1  0  0  0  0
 14 15  2  0  0  0  0
 14 28  1  0  0  0  0
 15 16  1  0  0  0  0
 15 17  1  0  0  0  0
 17 18  1  0  0  0  0
 17 19  1  0  0  0  0
 19 20  1  0  0  0  0
 19 28  2  0  0  0  0
 20 21  1  0  0  0  0
 20 22  2  0  0  0  0
 22 23  1  0  0  0  0
 22 24  1  0  0  0  0
 24 25  1  0  0  0  0
 24 26  2  0  0  0  0
 26 27  1  0  0  0  0
 26 28  1  0  0  0  0
 29 30  2  0  0  0  0
 29 31  1  0  0  0  0
 31 32  1  0  0  0  0
 31 33  1  0  0  0  0
 33 34  1  0  0  0  0
 33 35  1  0  0  0  0
 33 36  1  0  0  0  0
M  END
$$$$

  -OEChem-03222214083D

 36 37  0     1  0  0  0  0  0999 V2000
   -3.9326   -4.3083    1.7755 H   0  0  0  0  0  0  0  0  0  0  0  0
   -3.8507   -3.5597    0.9825 C   0  0  0  0  0  0  0  0  0  0  0  0
   -4.7173   -2.8957    1.0313 H   0  0  0  0  0  0  0  0  0  0  0  0
   -3.8457   -4.0710    0.0170 H   0  0  0  0  0  0  0  0  0  0  0  0
   -2.5744   -2.7575    1.1535 C   0  0  0  0  0  0  0  0  0  0  0  0
   -1.9182   -2.8731    2.1747 O   0  0  0  0  0  0  0  0  0  0  0  0
   -2.2038   -1.8518    0.1820 N   0  0  0  0  0  0  0  0  0  0  0  0
   -2.8469   -1.7007   -0.5926 H   0  0  0  0  0  0  0  0  0  0  0  0
   -0.9820   -1.0317    0.2107 C   0  0  1  0  0  0  0  0  0  0  0  0
   -0.5464   -1.0181    1.2152 H   0  0  0  0  0  0  0  0  0  0  0  0
    0.0937   -1.4893   -0.8063 C   0  0  0  0  0  0  0  0  0  0  0  0
   -0.4008   -1.8970   -1.6939 H   0  0  0  0  0  0  0  0  0  0  0  0
    0.6726   -0.6200   -1.1368 H   0  0  0  0  0  0  0  0  0  0  0  0
    1.0696   -2.5128   -0.2731 C   0  0  0  0  0  0  0  0  0  0  0  0
    2.4266   -2.2945   -0.2036 C   0  0  0  0  0  0  0  0  0  0  0  0
    2.9258   -1.3560   -0.4325 H   0  0  0  0  0  0  0  0  0  0  0  0
    3.0363   -3.4701    0.2207 N   0  0  0  0  0  0  0  0  0  0  0  0
    4.0335   -3.5963    0.3786 H   0  0  0  0  0  0  0  0  0  0  0  0
    2.0959   -4.4774    0.3346 C   0  0  0  0  0  0  0  0  0  0  0  0
    2.2375   -5.8253    0.6642 C   0  0  0  0  0  0  0  0  0  0  0  0
    3.2099   -6.2245    0.9297 H   0  0  0  0  0  0  0  0  0  0  0  0
    1.1099   -6.6559    0.6344 C   0  0  0  0  0  0  0  0  0  0  0  0
    1.2025   -7.7072    0.8897 H   0  0  0  0  0  0  0  0  0  0  0  0
   -0.1348   -6.1322    0.2560 C   0  0  0  0  0  0  0  0  0  0  0  0
   -1.0050   -6.7798    0.2141 H   0  0  0  0  0  0  0  0  0  0  0  0
   -0.2582   -4.7749   -0.0732 C   0  0  0  0  0  0  0  0  0  0  0  0
   -1.2113   -4.3804   -0.3967 H   0  0  0  0  0  0  0  0  0  0  0  0
    0.8579   -3.9358    0.0003 C   0  0  0  0  0  0  0  0  0  0  0  0
   -1.3557    0.4122   -0.1781 C   0  0  0  0  0  0  0  0  0  0  0  0
   -2.1083    0.6201   -1.1244 O   0  0  0  0  0  0  0  0  0  0  0  0
   -0.8592    1.4812    0.5451 N   0  0  0  0  0  0  0  0  0  0  0  0
   -0.3092    1.2697    1.3734 H   0  0  0  0  0  0  0  0  0  0  0  0
   -1.2185    2.8674    0.2735 C   0  0  0  0  0  0  0  0  0  0  0  0
   -2.2919    3.0221    0.4254 H   0  0  0  0  0  0  0  0  0  0  0  0
   -0.6732    3.5373    0.9453 H   0  0  0  0  0  0  0  0  0  0  0  0
   -0.9659    3.1340   -0.7583 H   0  0  0  0  0  0  0  0  0  0  0  0
  1  2  1  0  0  0  0
  2  3  1  0  0  0  0
  2  4  1  0  0  0  0
  2  5  1  0  0  0  0
  5  6  2  0  0  0  0
  5  7  1  0  0  0  0
  7  8  1  0  0  0  0
  7  9  1  0  0  0  0
  9 10  1  0  0  0  0
  9 11  1  0  0  0  0
  9 29  1  0  0  0  0
 11 12  1  0  0  0  0
 11 13  1  0  0  0  0
 11 14  1  0  0  0  0
 14 15  2  0  0  0  0
 14 28  1  0  0  0  0
 15 16  1  0  0  0  0
 15 17  1  0  0  0  0
 17 18  1  0  0  0  0
 17 19  1  0  0  0  0
 19 20  1  0  0  0  0
 19 28  2  0  0  0  0
 20 21  1  0  0  0  0
 20 22  2  0  0  0  0
 22 23  1  0  0  0  0
 22 24  1  0  0  0  0
 24 25  1  0  0  0  0
 24 26  2  0  0  0  0
 26 27  1  0  0  0  0
 26 28  1  0  0  0  0
 29 30  2  0  0  0  0
 29 31  1  0  0  0  0
 31 32  1  0  0  0  0
 31 33  1  0  0  0  0
 33 34  1  0  0  0  0
 33 35  1  0  0  0  0
 33 36  1  0  0  0  0
M  END
$$$$

  -OEChem-03222214083D

 36 37  0     1  0  0  0  0  0999 V2000
   -3.7197   -4.4995    1.6504 H   0  0  0  0  0  0  0  0  0  0  0  0
   -3.6852   -3.7242    0.8797 C   0  0  0  0  0  0  0  0  0  0  0  0
   -4.5825   -3.1060    0.9596 H   0  0  0  0  0  0  0  0  0  0  0  0
   -3.6682   -4.2060   -0.1006 H   0  0  0  0  0  0  0  0  0  0  0  0
   -2.4475   -2.8653    1.0596 C   0  0  0  0  0  0  0  0  0  0  0  0
   -1.7651   -2.9899    2.0628 O   0  0  0  0  0  0  0  0  0  0  0  0
   -2.1405   -1.9034    0.1198 N   0  0  0  0  0  0  0  0  0  0  0  0
   -2.8030   -1.7514   -0.6375 H   0  0  0  0  0  0  0  0  0  0  0  0
   -0.9399   -1.0530    0.1504 C   0  0  1  0  0  0  0  0  0  0  0  0
   -0.4665   -1.0782    1.1378 H   0  0  0  0  0  0  0  0  0  0  0  0
    0.0830   -1.4843   -0.9237 C   0  0  0  0  0  0  0  0  0  0  0  0
   -0.4365   -1.8672   -1.8078 H   0  0  0  0  0  0  0  0  0  0  0  0
    0.6607   -0.6107   -1.2449 H   0  0  0  0  0  0  0  0  0  0  0  0
    1.0555   -2.5165   -0.4128 C   0  0  0  0  0  0  0  0  0  0  0  0
    2.3678   -2.2767   -0.0794 C   0  0  0  0  0  0  0  0  0  0  0  0
    2.8571   -1.3056   -0.0950 H   0  0  0  0  0  0  0  0  0  0  0  0
    2.9437   -3.4906    0.2857 N   0  0  0  0  0  0  0  0  0  0  0  0
    3.9021   -3.6186    0.6024 H   0  0  0  0  0  0  0  0  0  0  0  0
    2.0275   -4.5190    0.1418 C   0  0  0  0  0  0  0  0  0  0  0  0
    2.1405   -5.8933    0.3530 C   0  0  0  0  0  0  0  0  0  0  0  0
    3.0704   -6.3158    0.7166 H   0  0  0  0  0  0  0  0  0  0  0  0
    1.0392   -6.7181    0.0849 C   0  0  0  0  0  0  0  0  0  0  0  0
    1.1117   -7.7893    0.2473 H   0  0  0  0  0  0  0  0  0  0  0  0
   -0.1534   -6.1613   -0.4009 C   0  0  0  0  0  0  0  0  0  0  0  0
   -1.0017   -6.8030   -0.6174 H   0  0  0  0  0  0  0  0  0  0  0  0
   -0.2526   -4.7781   -0.6081 C   0  0  0  0  0  0  0  0  0  0  0  0
   -1.1662   -4.3446   -0.9964 H   0  0  0  0  0  0  0  0  0  0  0  0
    0.8404   -3.9569   -0.3143 C   0  0  0  0  0  0  0  0  0  0  0  0
   -1.3426    0.4029   -0.1515 C   0  0  0  0  0  0  0  0  0  0  0  0
   -2.1169    0.6472   -1.0708 O   0  0  0  0  0  0  0  0  0  0  0  0
   -0.8393    1.4421    0.6094 N   0  0  0  0  0  0  0  0  0  0  0  0
   -0.2740    1.1983    1.4180 H   0  0  0  0  0  0  0  0  0  0  0  0
   -1.2188    2.8351    0.4088 C   0  0  0  0  0  0  0  0  0  0  0  0
   -2.2920    2.9687    0.5804 H   0  0  0  0  0  0  0  0  0  0  0  0
   -0.6738    3.4798    1.1051 H   0  0  0  0  0  0  0  0  0  0  0  0
   -0.9824    3.1533   -0.6121 H   0  0  0  0  0  0  0  0  0  0  0  0
  1  2  1  0  0  0  0
  2  3  1  0  0  0  0
  2  4  1  0  0  0  0
  2  5  1  0  0  0  0
  5  6  2  0  0  0  0
  5  7  1  0  0  0  0
  7  8  1  0  0  0  0
  7  9  1  0  0  0  0
  9 10  1  0  0  0  0
  9 11  1  0  0  0  0
  9 29  1  0  0  0  0
 11 12  1  0  0  0  0
 11 13  1  0  0  0  0
 11 14  1  0  0  0  0
 14 15  2  0  0  0  0
 14 28  1  0  0  0  0
 15 16  1  0  0  0  0
 15 17  1  0  0  0  0
 17 18  1  0  0  0  0
 17 19  1  0  0  0  0
 19 20  1  0  0  0  0
 19 28  2  0  0  0  0
 20 21  1  0  0  0  0
 20 22  2  0  0  0  0
 22 23  1  0  0  0  0
 22 24  1  0  0  0  0
 24 25  1  0  0  0  0
 24 26  2  0  0  0  0
 26 27  1  0  0  0  0
 26 28  1  0  0  0  0
 29 30  2  0  0  0  0
 29 31  1  0  0  0  0
 31 32  1  0  0  0  0
 31 33  1  0  0  0  0
 33 34  1  0  0  0  0
 33 35  1  0  0  0  0
 33 36  1  0  0  0  0
M  END
$$$$

  -OEChem-03222214083D

 36 37  0     1  0  0  0  0  0999 V2000
   -3.5521   -4.6375    1.5020 H   0  0  0  0  0  0  0  0  0  0  0  0
   -3.5428   -3.8488    0.7445 C   0  0  0  0  0  0  0  0  0  0  0  0
   -4.4675   -3.2722    0.8229 H   0  0  0  0  0  0  0  0  0  0  0  0
   -3.4911   -4.3123   -0.2434 H   0  0  0  0  0  0  0  0  0  0  0  0
   -2.3460   -2.9410    0.9530 C   0  0  0  0  0  0  0  0  0  0  0  0
   -1.6497   -3.0749    1.9459 O   0  0  0  0  0  0  0  0  0  0  0  0
   -2.0851   -1.9350    0.0461 N   0  0  0  0  0  0  0  0  0  0  0  0
   -2.7538   -1.7868   -0.7062 H   0  0  0  0  0  0  0  0  0  0  0  0
   -0.9048   -1.0583    0.0920 C   0  0  1  0  0  0  0  0  0  0  0  0
   -0.4115   -1.1136    1.0680 H   0  0  0  0  0  0  0  0  0  0  0  0
    0.0866   -1.4633   -1.0164 C   0  0  0  0  0  0  0  0  0  0  0  0
   -0.4456   -1.8264   -1.9015 H   0  0  0  0  0  0  0  0  0  0  0  0
    0.6619   -0.5845   -1.3266 H   0  0  0  0  0  0  0  0  0  0  0  0
    1.0605   -2.4996   -0.5230 C   0  0  0  0  0  0  0  0  0  0  0  0
    2.2780   -2.2611    0.0682 C   0  0  0  0  0  0  0  0  0  0  0  0
    2.7041   -1.2810    0.2675 H   0  0  0  0  0  0  0  0  0  0  0  0
    2.8500   -3.4951    0.3694 N   0  0  0  0  0  0  0  0  0  0  0  0
    3.7421   -3.6337    0.8382 H   0  0  0  0  0  0  0  0  0  0  0  0
    2.0140   -4.5247   -0.0319 C   0  0  0  0  0  0  0  0  0  0  0  0
    2.1417   -5.9112    0.0517 C   0  0  0  0  0  0  0  0  0  0  0  0
    3.0221   -6.3519    0.5058 H   0  0  0  0  0  0  0  0  0  0  0  0
    1.1180   -6.7236   -0.4565 C   0  0  0  0  0  0  0  0  0  0  0  0
    1.2042   -7.8044   -0.3959 H   0  0  0  0  0  0  0  0  0  0  0  0
   -0.0163   -6.1418   -1.0436 C   0  0  0  0  0  0  0  0  0  0  0  0
   -0.8056   -6.7736   -1.4387 H   0  0  0  0  0  0  0  0  0  0  0  0
   -0.1334   -4.7467   -1.1203 C   0  0  0  0  0  0  0  0  0  0  0  0
   -1.0055   -4.2893   -1.5739 H   0  0  0  0  0  0  0  0  0  0  0  0
    0.8884   -3.9440   -0.6037 C   0  0  0  0  0  0  0  0  0  0  0  0
   -1.3302    0.4033   -0.1409 C   0  0  0  0  0  0  0  0  0  0  0  0
   -2.1175    0.6765   -1.0406 O   0  0  0  0  0  0  0  0  0  0  0  0
   -0.8283    1.4161    0.6559 N   0  0  0  0  0  0  0  0  0  0  0  0
   -0.2458    1.1466    1.4438 H   0  0  0  0  0  0  0  0  0  0  0  0
   -1.2256    2.8117    0.5176 C   0  0  0  0  0  0  0  0  0  0  0  0
   -2.3048    2.9201    0.6683 H   0  0  0  0  0  0  0  0  0  0  0  0
   -0.7090    3.4270    1.2604 H   0  0  0  0  0  0  0  0  0  0  0  0
   -0.9689    3.1858   -0.4790 H   0  0  0  0  0  0  0  0  0  0  0  0
  1  2  1  0  0  0  0
  2  3  1  0  0  0  0
  2  4  1  0  0  0  0
  2  5  1  0  0  0  0
  5  6  2  0  0  0  0
  5  7  1  0  0  0  0
  7  8  1  0  0  0  0
  7  9  1  0  0  0  0
  9 10  1  0  0  0  0
  9 11  1  0  0  0  0
  9 29  1  0  0  0  0
 11 12  1  0  0  0  0
 11 13  1  0  0  0  0
 11 14  1  0  0  0  0
 14 15  2  0  0  0  0
 14 28  1  0  0  0  0
 15 16  1  0  0  0  0
 15 17  1  0  0  0  0
 17 18  1  0  0  0  0
 17 19  1  0  0  0  0
 19 20  1  0  0  0  0
 19 28  2  0  0  0  0
 20 21  1  0  0  0  0
 20 22  2  0  0  0  0
 22 23  1  0  0  0  0
 22 24  1  0  0  0  0
 24 25  1  0  0  0  0
 24 26  2  0  0  0  0
 26 27  1  0  0  0  0
 26 28  1  0  0  0  0
 29 30  2  0  0  0  0
 29 31  1  0  0  0  0
 31 32  1  0  0  0  0
 31 33  1  0  0  0  0
 33 34  1  0  0  0  0
 33 35  1  0  0  0  0
 33 36  1  0  0  0  0
M  END
$$$$

  -OEChem-03222214083D

 36 37  0     1  0  0  0  0  0999 V2000
   -3.5617   -4.6345    1.4395 H   0  0  0  0  0  0  0  0  0  0  0  0
   -3.5243   -3.8580    0.6703 C   0  0  0  0  0  0  0  0  0  0  0  0
   -4.4496   -3.2780    0.7079 H   0  0  0  0  0  0  0  0  0  0  0  0
   -3.4403   -4.3371   -0.3081 H   0  0  0  0  0  0  0  0  0  0  0  0
   -2.3330   -2.9490    0.9050 C   0  0  0  0  0  0  0  0  0  0  0  0
   -1.6487   -3.0886    1.9061 O   0  0  0  0  0  0  0  0  0  0  0  0
   -2.0656   -1.9325    0.0125 N   0  0  0  0  0  0  0  0  0  0  0  0
   -2.7184   -1.7894   -0.7546 H   0  0  0  0  0  0  0  0  0  0  0  0
   -0.8907   -1.0510    0.0819 C   0  0  1  0  0  0  0  0  0  0  0  0
   -0.4056   -1.1138    1.0615 H   0  0  0  0  0  0  0  0  0  0  0  0
    0.0992   -1.4579   -1.0248 C   0  0  0  0  0  0  0  0  0  0  0  0
   -0.4342   -1.8076   -1.9139 H   0  0  0  0  0  0  0  0  0  0  0  0
    0.6823   -0.5820   -1.3282 H   0  0  0  0  0  0  0  0  0  0  0  0
    1.0692   -2.5021   -0.5383 C   0  0  0  0  0  0  0  0  0  0  0  0
    2.1420   -2.3023    0.2976 C   0  0  0  0  0  0  0  0  0  0  0  0
    2.4459   -1.3490    0.7229 H   0  0  0  0  0  0  0  0  0  0  0  0
    2.7557   -3.5366    0.4990 N   0  0  0  0  0  0  0  0  0  0  0  0
    3.5618   -3.7038    1.0968 H   0  0  0  0  0  0  0  0  0  0  0  0
    2.0801   -4.5296   -0.1920 C   0  0  0  0  0  0  0  0  0  0  0  0
    2.3005   -5.9033   -0.2957 C   0  0  0  0  0  0  0  0  0  0  0  0
    3.1320   -6.3639    0.2259 H   0  0  0  0  0  0  0  0  0  0  0  0
    1.4334   -6.6777   -1.0798 C   0  0  0  0  0  0  0  0  0  0  0  0
    1.5942   -7.7480   -1.1699 H   0  0  0  0  0  0  0  0  0  0  0  0
    0.3573   -6.0715   -1.7464 C   0  0  0  0  0  0  0  0  0  0  0  0
   -0.3132   -6.6740   -2.3514 H   0  0  0  0  0  0  0  0  0  0  0  0
    0.1454   -4.6899   -1.6333 C   0  0  0  0  0  0  0  0  0  0  0  0
   -0.6856   -4.2173   -2.1450 H   0  0  0  0  0  0  0  0  0  0  0  0
    1.0178   -3.9242   -0.8527 C   0  0  0  0  0  0  0  0  0  0  0  0
   -1.3186    0.4118   -0.1415 C   0  0  0  0  0  0  0  0  0  0  0  0
   -2.0920    0.6912   -1.0512 O   0  0  0  0  0  0  0  0  0  0  0  0
   -0.8317    1.4194    0.6710 N   0  0  0  0  0  0  0  0  0  0  0  0
   -0.2691    1.1442    1.4710 H   0  0  0  0  0  0  0  0  0  0  0  0
   -1.2371    2.8139    0.5425 C   0  0  0  0  0  0  0  0  0  0  0  0
   -2.3154    2.9161    0.7042 H   0  0  0  0  0  0  0  0  0  0  0  0
   -0.7159    3.4292    1.2825 H   0  0  0  0  0  0  0  0  0  0  0  0
   -0.9929    3.1944   -0.4550 H   0  0  0  0  0  0  0  0  0  0  0  0
  1  2  1  0  0  0  0
  2  3  1  0  0  0  0
  2  4  1  0  0  0  0
  2  5  1  0  0  0  0
  5  6  2  0  0  0  0
  5  7  1  0  0  0  0
  7  8  1  0  0  0  0
  7  9  1  0  0  0  0
  9 10  1  0  0  0  0
  9 11  1  0  0  0  0
  9 29  1  0  0  0  0
 11 12  1  0  0  0  0
 11 13  1  0  0  0  0
 11 14  1  0  0  0  0
 14 15  2  0  0  0  0
 14 28  1  0  0  0  0
 15 16  1  0  0  0  0
 15 17  1  0  0  0  0
 17 18  1  0  0  0  0
 17 19  1  0  0  0  0
 19 20  1  0  0  0  0
 19 28  2  0  0  0  0
 20 21  1  0  0  0  0
 20 22  2  0  0  0  0
 22 23  1  0  0  0  0
 22 24  1  0  0  0  0
 24 25  1  0  0  0  0
 24 26  2  0  0  0  0
 26 27  1  0  0  0  0
 26 28  1  0  0  0  0
 29 30  2  0  0  0  0
 29 31  1  0  0  0  0
 31 32  1  0  0  0  0
 31 33  1  0  0  0  0
 33 34  1  0  0  0  0
 33 35  1  0  0  0  0
 33 36  1  0  0  0  0
M  END
$$$$

  -OEChem-03222214083D

 36 37  0     1  0  0  0  0  0999 V2000
   -3.6301   -4.5978    1.4380 H   0  0  0  0  0  0  0  0  0  0  0  0
   -3.5840   -3.8174    0.6735 C   0  0  0  0  0  0  0  0  0  0  0  0
   -4.4967   -3.2191    0.7239 H   0  0  0  0  0  0  0  0  0  0  0  0
   -3.5193   -4.2917   -0.3086 H   0  0  0  0  0  0  0  0  0  0  0  0
   -2.3721   -2.9345    0.9022 C   0  0  0  0  0  0  0  0  0  0  0  0
   -1.6858   -3.0887    1.9001 O   0  0  0  0  0  0  0  0  0  0  0  0
   -2.0858   -1.9229    0.0100 N   0  0  0  0  0  0  0  0  0  0  0  0
   -2.7353   -1.7666   -0.7575 H   0  0  0  0  0  0  0  0  0  0  0  0
   -0.9034   -1.0529    0.0903 C   0  0  1  0  0  0  0  0  0  0  0  0
   -0.4347   -1.1138    1.0770 H   0  0  0  0  0  0  0  0  0  0  0  0
    0.0964   -1.4698   -1.0059 C   0  0  0  0  0  0  0  0  0  0  0  0
   -0.4409   -1.8158   -1.8941 H   0  0  0  0  0  0  0  0  0  0  0  0
    0.6890   -0.6013   -1.3116 H   0  0  0  0  0  0  0  0  0  0  0  0
    1.0599   -2.5240   -0.5219 C   0  0  0  0  0  0  0  0  0  0  0  0
    1.9451   -2.4153    0.5248 C   0  0  0  0  0  0  0  0  0  0  0  0
    2.0742   -1.5412    1.1575 H   0  0  0  0  0  0  0  0  0  0  0  0
    2.6291   -3.6237    0.6298 N   0  0  0  0  0  0  0  0  0  0  0  0
    3.3203   -3.8492    1.3415 H   0  0  0  0  0  0  0  0  0  0  0  0
    2.1878   -4.5125   -0.3363 C   0  0  0  0  0  0  0  0  0  0  0  0
    2.5575   -5.8268   -0.6233 C   0  0  0  0  0  0  0  0  0  0  0  0
    3.3233   -6.3196   -0.0348 H   0  0  0  0  0  0  0  0  0  0  0  0
    1.9261   -6.4984   -1.6795 C   0  0  0  0  0  0  0  0  0  0  0  0
    2.2046   -7.5213   -1.9147 H   0  0  0  0  0  0  0  0  0  0  0  0
    0.9348   -5.8505   -2.4321 C   0  0  0  0  0  0  0  0  0  0  0  0
    0.4467   -6.3734   -3.2487 H   0  0  0  0  0  0  0  0  0  0  0  0
    0.5712   -4.5296   -2.1330 C   0  0  0  0  0  0  0  0  0  0  0  0
   -0.1959   -4.0277   -2.7124 H   0  0  0  0  0  0  0  0  0  0  0  0
    1.2069   -3.8645   -1.0786 C   0  0  0  0  0  0  0  0  0  0  0  0
   -1.3185    0.4124   -0.1418 C   0  0  0  0  0  0  0  0  0  0  0  0
   -2.0861    0.6928   -1.0560 O   0  0  0  0  0  0  0  0  0  0  0  0
   -0.8340    1.4200    0.6722 N   0  0  0  0  0  0  0  0  0  0  0  0
   -0.2639    1.1482    1.4679 H   0  0  0  0  0  0  0  0  0  0  0  0
   -1.2196    2.8183    0.5269 C   0  0  0  0  0  0  0  0  0  0  0  0
   -2.2996    2.9355    0.6650 H   0  0  0  0  0  0  0  0  0  0  0  0
   -0.7067    3.4314    1.2743 H   0  0  0  0  0  0  0  0  0  0  0  0
   -0.9489    3.1886   -0.4676 H   0  0  0  0  0  0  0  0  0  0  0  0
  1  2  1  0  0  0  0
  2  3  1  0  0  0  0
  2  4  1  0  0  0  0
  2  5  1  0  0  0  0
  5  6  2  0  0  0  0
  5  7  1  0  0  0  0
  7  8  1  0  0  0  0
  7  9  1  0  0  0  0
  9 10  1  0  0  0  0
  9 11  1  0  0  0  0
  9 29  1  0  0  0  0
 11 12  1  0  0  0  0
 11 13  1  0  0  0  0
 11 14  1  0  0  0  0
 14 15  2  0  0  0  0
 14 28  1  0  0  0  0
 15 16  1  0  0  0  0
 15 17  1  0  0  0  0
 17 18  1  0  0  0  0
 17 19  1  0  0  0  0
 19 20  1  0  0  0  0
 19 28  2  0  0  0  0
 20 21  1  0  0  0  0
 20 22  2  0  0  0  0
 22 23  1  0  0  0  0
 22 24  1  0  0  0  0
 24 25  1  0  0  0  0
 24 26  2  0  0  0  0
 26 27  1  0  0  0  0
 26 28  1  0  0  0  0
 29 30  2  0  0  0  0
 29 31  1  0  0  0  0
 31 32  1  0  0  0  0
 31 33  1  0  0  0  0
 33 34  1  0  0  0  0
 33 35  1  0  0  0  0
 33 36  1  0  0  0  0
M  END
$$$$

  -OEChem-03222214083D

 36 37  0     1  0  0  0  0  0999 V2000
   -3.6987   -4.5575    1.4518 H   0  0  0  0  0  0  0  0  0  0  0  0
   -3.6415   -3.7791    0.6858 C   0  0  0  0  0  0  0  0  0  0  0  0
   -4.5454   -3.1671    0.7356 H   0  0  0  0  0  0  0  0  0  0  0  0
   -3.5851   -4.2565   -0.2956 H   0  0  0  0  0  0  0  0  0  0  0  0
   -2.4159   -2.9141    0.9118 C   0  0  0  0  0  0  0  0  0  0  0  0
   -1.7303   -3.0766    1.9095 O   0  0  0  0  0  0  0  0  0  0  0  0
   -2.1081   -1.9147    0.0129 N   0  0  0  0  0  0  0  0  0  0  0  0
   -2.7526   -1.7494   -0.7572 H   0  0  0  0  0  0  0  0  0  0  0  0
   -0.9174   -1.0573    0.1026 C   0  0  1  0  0  0  0  0  0  0  0  0
   -0.4691   -1.1071    1.0984 H   0  0  0  0  0  0  0  0  0  0  0  0
    0.0956   -1.4924   -0.9758 C   0  0  0  0  0  0  0  0  0  0  0  0
   -0.4451   -1.8438   -1.8598 H   0  0  0  0  0  0  0  0  0  0  0  0
    0.6959   -0.6322   -1.2905 H   0  0  0  0  0  0  0  0  0  0  0  0
    1.0537   -2.5554   -0.4921 C   0  0  0  0  0  0  0  0  0  0  0  0
    1.7336   -2.5987    0.7038 C   0  0  0  0  0  0  0  0  0  0  0  0
    1.6693   -1.8616    1.5001 H   0  0  0  0  0  0  0  0  0  0  0  0
    2.4992   -3.7618    0.7180 N   0  0  0  0  0  0  0  0  0  0  0  0
    3.0704   -4.0798    1.4978 H   0  0  0  0  0  0  0  0  0  0  0  0
    2.3198   -4.4709   -0.4572 C   0  0  0  0  0  0  0  0  0  0  0  0
    2.8551   -5.6806   -0.9000 C   0  0  0  0  0  0  0  0  0  0  0  0
    3.5470   -6.2333   -0.2742 H   0  0  0  0  0  0  0  0  0  0  0  0
    2.4862   -6.1701   -2.1608 C   0  0  0  0  0  0  0  0  0  0  0  0
    2.8946   -7.1106   -2.5181 H   0  0  0  0  0  0  0  0  0  0  0  0
    1.5894   -5.4460   -2.9608 C   0  0  0  0  0  0  0  0  0  0  0  0
    1.3050   -5.8274   -3.9368 H   0  0  0  0  0  0  0  0  0  0  0  0
    1.0570   -4.2317   -2.5037 C   0  0  0  0  0  0  0  0  0  0  0  0
    0.3629   -3.6723   -3.1215 H   0  0  0  0  0  0  0  0  0  0  0  0
    1.4281   -3.7498   -1.2431 C   0  0  0  0  0  0  0  0  0  0  0  0
   -1.3164    0.4095   -0.1496 C   0  0  0  0  0  0  0  0  0  0  0  0
   -2.0763    0.6865   -1.0712 O   0  0  0  0  0  0  0  0  0  0  0  0
   -0.8351    1.4215    0.6610 N   0  0  0  0  0  0  0  0  0  0  0  0
   -0.2601    1.1557    1.4550 H   0  0  0  0  0  0  0  0  0  0  0  0
   -1.2070    2.8216    0.4978 C   0  0  0  0  0  0  0  0  0  0  0  0
   -2.2879    2.9491    0.6199 H   0  0  0  0  0  0  0  0  0  0  0  0
   -0.6996    3.4371    1.2471 H   0  0  0  0  0  0  0  0  0  0  0  0
   -0.9193    3.1808   -0.4960 H   0  0  0  0  0  0  0  0  0  0  0  0
  1  2  1  0  0  0  0
  2  3  1  0  0  0  0
  2  4  1  0  0  0  0
  2  5  1  0  0  0  0
  5  6  2  0  0  0  0
  5  7  1  0  0  0  0
  7  8  1  0  0  0  0
  7  9  1  0  0  0  0
  9 10  1  0  0  0  0
  9 11  1  0  0  0  0
  9 29  1  0  0  0  0
 11 12  1  0  0  0  0
 11 13  1  0  0  0  0
 11 14  1  0  0  0  0
 14 15  2  0  0  0  0
 14 28  1  0  0  0  0
 15 16  1  0  0  0  0
 15 17  1  0  0  0  0
 17 18  1  0  0  0  0
 17 19  1  0  0  0  0
 19 20  1  0  0  0  0
 19 28  2  0  0  0  0
 20 21  1  0  0  0  0
 20 22  2  0  0  0  0
 22 23  1  0  0  0  0
 22 24  1  0  0  0  0
 24 25  1  0  0  0  0
 24 26  2  0  0  0  0
 26 27  1  0  0  0  0
 26 28  1  0  0  0  0
 29 30  2  0  0  0  0
 29 31  1  0  0  0  0
 31 32  1  0  0  0  0
 31 33  1  0  0  0  0
 33 34  1  0  0  0  0
 33 35  1  0  0  0  0
 33 36  1  0  0  0  0
M  END
$$$$

  -OEChem-03222214083D

 36 37  0     1  0  0  0  0  0999 V2000
   -3.8426   -4.4563    1.5225 H   0  0  0  0  0  0  0  0  0  0  0  0
   -3.7336   -3.7255    0.7163 C   0  0  0  0  0  0  0  0  0  0  0  0
   -4.6138   -3.0781    0.7045 H   0  0  0  0  0  0  0  0  0  0  0  0
   -3.6683   -4.2595   -0.2349 H   0  0  0  0  0  0  0  0  0  0  0  0
   -2.4822   -2.8951    0.9291 C   0  0  0  0  0  0  0  0  0  0  0  0
   -1.7909   -3.0740    1.9208 O   0  0  0  0  0  0  0  0  0  0  0  0
   -2.1493   -1.9135    0.0197 N   0  0  0  0  0  0  0  0  0  0  0  0
   -2.7954   -1.7313   -0.7454 H   0  0  0  0  0  0  0  0  0  0  0  0
   -0.9427   -1.0786    0.1091 C   0  0  1  0  0  0  0  0  0  0  0  0
   -0.5105   -1.1161    1.1114 H   0  0  0  0  0  0  0  0  0  0  0  0
    0.0794   -1.5378   -0.9505 C   0  0  0  0  0  0  0  0  0  0  0  0
   -0.4619   -1.8962   -1.8317 H   0  0  0  0  0  0  0  0  0  0  0  0
    0.6897   -0.6876   -1.2727 H   0  0  0  0  0  0  0  0  0  0  0  0
    1.0274   -2.6116   -0.4659 C   0  0  0  0  0  0  0  0  0  0  0  0
    1.4977   -2.8449    0.8078 C   0  0  0  0  0  0  0  0  0  0  0  0
    1.2216   -2.2952    1.7041 H   0  0  0  0  0  0  0  0  0  0  0  0
    2.3667   -3.9315    0.7503 N   0  0  0  0  0  0  0  0  0  0  0  0
    2.8266   -4.3570    1.5521 H   0  0  0  0  0  0  0  0  0  0  0  0
    2.4715   -4.3976   -0.5486 C   0  0  0  0  0  0  0  0  0  0  0  0
    3.2049   -5.4467   -1.1029 C   0  0  0  0  0  0  0  0  0  0  0  0
    3.8348   -6.0651   -0.4732 H   0  0  0  0  0  0  0  0  0  0  0  0
    3.1161   -5.6887   -2.4809 C   0  0  0  0  0  0  0  0  0  0  0  0
    3.6815   -6.5020   -2.9261 H   0  0  0  0  0  0  0  0  0  0  0  0
    2.2973   -4.8814   -3.2854 C   0  0  0  0  0  0  0  0  0  0  0  0
    2.2310   -5.0697   -4.3527 H   0  0  0  0  0  0  0  0  0  0  0  0
    1.5629   -3.8313   -2.7158 C   0  0  0  0  0  0  0  0  0  0  0  0
    0.9294   -3.2056   -3.3357 H   0  0  0  0  0  0  0  0  0  0  0  0
    1.6551   -3.5977   -1.3392 C   0  0  0  0  0  0  0  0  0  0  0  0
   -1.3109    0.3927   -0.1643 C   0  0  0  0  0  0  0  0  0  0  0  0
   -2.0743    0.6719   -1.0825 O   0  0  0  0  0  0  0  0  0  0  0  0
   -0.8152    1.4040    0.6385 N   0  0  0  0  0  0  0  0  0  0  0  0
   -0.2194    1.1391    1.4176 H   0  0  0  0  0  0  0  0  0  0  0  0
   -1.1619    2.8087    0.4620 C   0  0  0  0  0  0  0  0  0  0  0  0
   -2.2384    2.9567    0.5972 H   0  0  0  0  0  0  0  0  0  0  0  0
   -0.6327    3.4235    1.1963 H   0  0  0  0  0  0  0  0  0  0  0  0
   -0.8815    3.1508   -0.5398 H   0  0  0  0  0  0  0  0  0  0  0  0
  1  2  1  0  0  0  0
  2  3  1  0  0  0  0
  2  4  1  0  0  0  0
  2  5  1  0  0  0  0
  5  6  2  0  0  0  0
  5  7  1  0  0  0  0
  7  8  1  0  0  0  0
  7  9  1  0  0  0  0
  9 10  1  0  0  0  0
  9 11  1  0  0  0  0
  9 29  1  0  0  0  0
 11 12  1  0  0  0  0
 11 13  1  0  0  0  0
 11 14  1  0  0  0  0
 14 15  2  0  0  0  0
 14 28  1  0  0  0  0
 15 16  1  0  0  0  0
 15 17  1  0  0  0  0
 17 18  1  0  0  0  0
 17 19  1  0  0  0  0
 19 20  1  0  0  0  0
 19 28  2  0  0  0  0
 20 21  1  0  0  0  0
 20 22  2  0  0  0  0
 22 23  1  0  0  0  0
 22 24  1  0  0  0  0
 24 25  1  0  0  0  0
 24 26  2  0  0  0  0
 26 27  1  0  0  0  0
 26 28  1  0  0  0  0
 29 30  2  0  0  0  0
 29 31  1  0  0  0  0
 31 32  1  0  0  0  0
 31 33  1  0  0  0  0
 33 34  1  0  0  0  0
 33 35  1  0  0  0  0
 33 36  1  0  0  0  0
M  END
$$$$

  -OEChem-03222214083D

 36 37  0     1  0  0  0  0  0999 V2000
   -3.9062   -4.4281    1.5089 H   0  0  0  0  0  0  0  0  0  0  0  0
   -3.7853   -3.6926    0.7087 C   0  0  0  0  0  0  0  0  0  0  0  0
   -4.6492   -3.0236    0.7106 H   0  0  0  0  0  0  0  0  0  0  0  0
   -3.7413   -4.2179   -0.2485 H   0  0  0  0  0  0  0  0  0  0  0  0
   -2.5120   -2.8958    0.9182 C   0  0  0  0  0  0  0  0  0  0  0  0
   -1.8145   -3.1030    1.9000 O   0  0  0  0  0  0  0  0  0  0  0  0
   -2.1640   -1.9141    0.0152 N   0  0  0  0  0  0  0  0  0  0  0  0
   -2.8167   -1.7061   -0.7382 H   0  0  0  0  0  0  0  0  0  0  0  0
   -0.9489   -1.0918    0.1077 C   0  0  1  0  0  0  0  0  0  0  0  0
   -0.5169   -1.1319    1.1102 H   0  0  0  0  0  0  0  0  0  0  0  0
    0.0733   -1.5552   -0.9513 C   0  0  0  0  0  0  0  0  0  0  0  0
   -0.4648   -1.9043   -1.8387 H   0  0  0  0  0  0  0  0  0  0  0  0
    0.6884   -0.7045   -1.2628 H   0  0  0  0  0  0  0  0  0  0  0  0
    1.0189   -2.6384   -0.4818 C   0  0  0  0  0  0  0  0  0  0  0  0
    1.2868   -3.0732    0.7982 C   0  0  0  0  0  0  0  0  0  0  0  0
    0.8095   -2.7213    1.7102 H   0  0  0  0  0  0  0  0  0  0  0  0
    2.2531   -4.0722    0.7173 N   0  0  0  0  0  0  0  0  0  0  0  0
    2.6134   -4.6025    1.5075 H   0  0  0  0  0  0  0  0  0  0  0  0
    2.6182   -4.2853   -0.6004 C   0  0  0  0  0  0  0  0  0  0  0  0
    3.5285   -5.1683   -1.1809 C   0  0  0  0  0  0  0  0  0  0  0  0
    4.0988   -5.8504   -0.5606 H   0  0  0  0  0  0  0  0  0  0  0  0
    3.6937   -5.1615   -2.5729 C   0  0  0  0  0  0  0  0  0  0  0  0
    4.3983   -5.8443   -3.0383 H   0  0  0  0  0  0  0  0  0  0  0  0
    2.9495   -4.2738   -3.3653 C   0  0  0  0  0  0  0  0  0  0  0  0
    3.0800   -4.2708   -4.4433 H   0  0  0  0  0  0  0  0  0  0  0  0
    2.0358   -3.3917   -2.7696 C   0  0  0  0  0  0  0  0  0  0  0  0
    1.4574   -2.7053   -3.3791 H   0  0  0  0  0  0  0  0  0  0  0  0
    1.8746   -3.4071   -1.3796 C   0  0  0  0  0  0  0  0  0  0  0  0
   -1.3061    0.3829   -0.1620 C   0  0  0  0  0  0  0  0  0  0  0  0
   -2.0719    0.6694   -1.0759 O   0  0  0  0  0  0  0  0  0  0  0  0
   -0.8024    1.3874    0.6441 N   0  0  0  0  0  0  0  0  0  0  0  0
   -0.1974    1.1163    1.4141 H   0  0  0  0  0  0  0  0  0  0  0  0
   -1.1292    2.7966    0.4663 C   0  0  0  0  0  0  0  0  0  0  0  0
   -2.2052    2.9588    0.5893 H   0  0  0  0  0  0  0  0  0  0  0  0
   -0.6007    3.4032    1.2082 H   0  0  0  0  0  0  0  0  0  0  0  0
   -0.8332    3.1361   -0.5319 H   0  0  0  0  0  0  0  0  0  0  0  0
  1  2  1  0  0  0  0
  2  3  1  0  0  0  0
  2  4  1  0  0  0  0
  2  5  1  0  0  0  0
  5  6  2  0  0  0  0
  5  7  1  0  0  0  0
  7  8  1  0  0  0  0
  7  9  1  0  0  0  0
  9 10  1  0  0  0  0
  9 11  1  0  0  0  0
  9 29  1  0  0  0  0
 11 12  1  0  0  0  0
 11 13  1  0  0  0  0
 11 14  1  0  0  0  0
 14 15  2  0  0  0  0
 14 28  1  0  0  0  0
 15 16  1  0  0  0  0
 15 17  1  0  0  0  0
 17 18  1  0  0  0  0
 17 19  1  0  0  0  0
 19 20  1  0  0  0  0
 19 28  2  0  0  0  0
 20 21  1  0  0  0  0
 20 22  2  0  0  0  0
 22 23  1  0  0  0  0
 22 24  1  0  0  0  0
 24 25  1  0  0  0  0
 24 26  2  0  0  0  0
 26 27  1  0  0  0  0
 26 28  1  0  0  0  0
 29 30  2  0  0  0  0
 29 31  1  0  0  0  0
 31 32  1  0  0  0  0
 31 33  1  0  0  0  0
 33 34  1  0  0  0  0
 33 35  1  0  0  0  0
 33 36  1  0  0  0  0
M  END
$$$$

  -OEChem-03222214083D

 36 37  0     1  0  0  0  0  0999 V2000
   -3.9500   -4.4340    1.4404 H   0  0  0  0  0  0  0  0  0  0  0  0
   -3.8040   -3.6897    0.6525 C   0  0  0  0  0  0  0  0  0  0  0  0
   -4.6696   -3.0231    0.6321 H   0  0  0  0  0  0  0  0  0  0  0  0
   -3.7258   -4.2053   -0.3079 H   0  0  0  0  0  0  0  0  0  0  0  0
   -2.5411   -2.8915    0.9140 C   0  0  0  0  0  0  0  0  0  0  0  0
   -1.8910   -3.0929    1.9278 O   0  0  0  0  0  0  0  0  0  0  0  0
   -2.1592   -1.9095    0.0259 N   0  0  0  0  0  0  0  0  0  0  0  0
   -2.7881   -1.7079   -0.7493 H   0  0  0  0  0  0  0  0  0  0  0  0
   -0.9397   -1.0915    0.1273 C   0  0  1  0  0  0  0  0  0  0  0  0
   -0.5065   -1.1433    1.1300 H   0  0  0  0  0  0  0  0  0  0  0  0
    0.0853   -1.5534   -0.9316 C   0  0  0  0  0  0  0  0  0  0  0  0
   -0.4453   -1.8885   -1.8290 H   0  0  0  0  0  0  0  0  0  0  0  0
    0.7022   -0.6972   -1.2245 H   0  0  0  0  0  0  0  0  0  0  0  0
    1.0364   -2.6398   -0.4830 C   0  0  0  0  0  0  0  0  0  0  0  0
    1.1290   -3.2838    0.7313 C   0  0  0  0  0  0  0  0  0  0  0  0
    0.4991   -3.1114    1.6006 H   0  0  0  0  0  0  0  0  0  0  0  0
    2.1728   -4.2023    0.6501 N   0  0  0  0  0  0  0  0  0  0  0  0
    2.4540   -4.8349    1.3962 H   0  0  0  0  0  0  0  0  0  0  0  0
    2.7559   -4.1617   -0.6045 C   0  0  0  0  0  0  0  0  0  0  0  0
    3.8140   -4.8787   -1.1637 C   0  0  0  0  0  0  0  0  0  0  0  0
    4.3375   -5.6261   -0.5780 H   0  0  0  0  0  0  0  0  0  0  0  0
    4.1889   -4.6203   -2.4897 C   0  0  0  0  0  0  0  0  0  0  0  0
    5.0097   -5.1715   -2.9386 H   0  0  0  0  0  0  0  0  0  0  0  0
    3.5031   -3.6517   -3.2388 C   0  0  0  0  0  0  0  0  0  0  0  0
    3.7939   -3.4551   -4.2663 H   0  0  0  0  0  0  0  0  0  0  0  0
    2.4415   -2.9367   -2.6653 C   0  0  0  0  0  0  0  0  0  0  0  0
    1.9069   -2.1882   -3.2411 H   0  0  0  0  0  0  0  0  0  0  0  0
    2.0746   -3.2002   -1.3411 C   0  0  0  0  0  0  0  0  0  0  0  0
   -1.2900    0.3841   -0.1485 C   0  0  0  0  0  0  0  0  0  0  0  0
   -2.0447    0.6708   -1.0717 O   0  0  0  0  0  0  0  0  0  0  0  0
   -0.7909    1.3897    0.6589 N   0  0  0  0  0  0  0  0  0  0  0  0
   -0.1979    1.1182    1.4382 H   0  0  0  0  0  0  0  0  0  0  0  0
   -1.1181    2.7987    0.4784 C   0  0  0  0  0  0  0  0  0  0  0  0
   -2.1953    2.9597    0.5915 H   0  0  0  0  0  0  0  0  0  0  0  0
   -0.5974    3.4058    1.2251 H   0  0  0  0  0  0  0  0  0  0  0  0
   -0.8132    3.1391   -0.5168 H   0  0  0  0  0  0  0  0  0  0  0  0
  1  2  1  0  0  0  0
  2  3  1  0  0  0  0
  2  4  1  0  0  0  0
  2  5  1  0  0  0  0
  5  6  2  0  0  0  0
  5  7  1  0  0  0  0
  7  8  1  0  0  0  0
  7  9  1  0  0  0  0
  9 10  1  0  0  0  0
  9 11  1  0  0  0  0
  9 29  1  0  0  0  0
 11 12  1  0  0  0  0
 11 13  1  0  0  0  0
 11 14  1  0  0  0  0
 14 15  2  0  0  0  0
 14 28  1  0  0  0  0
 15 16  1  0  0  0  0
 15 17  1  0  0  0  0
 17 18  1  0  0  0  0
 17 19  1  0  0  0  0
 19 20  1  0  0  0  0
 19 28  2  0  0  0  0
 20 21  1  0  0  0  0
 20 22  2  0  0  0  0
 22 23  1  0  0  0  0
 22 24  1  0  0  0  0
 24 25  1  0  0  0  0
 24 26  2  0  0  0  0
 26 27  1  0  0  0  0
 26 28  1  0  0  0  0
 29 30  2  0  0  0  0
 29 31  1  0  0  0  0
 31 32  1  0  0  0  0
 31 33  1  0  0  0  0
 33 34  1  0  0  0  0
 33 35  1  0  0  0  0
 33 36  1  0  0  0  0
M  END
$$$$

  -OEChem-03222214083D

 36 37  0     1  0  0  0  0  0999 V2000
   -4.0046   -4.4313    1.3953 H   0  0  0  0  0  0  0  0  0  0  0  0
   -3.8323   -3.6844    0.6155 C   0  0  0  0  0  0  0  0  0  0  0  0
   -4.6964   -3.0172    0.5692 H   0  0  0  0  0  0  0  0  0  0  0  0
   -3.7239   -4.1964   -0.3438 H   0  0  0  0  0  0  0  0  0  0  0  0
   -2.5786   -2.8875    0.9211 C   0  0  0  0  0  0  0  0  0  0  0  0
   -1.9779   -3.0759    1.9664 O   0  0  0  0  0  0  0  0  0  0  0  0
   -2.1640   -1.9091    0.0444 N   0  0  0  0  0  0  0  0  0  0  0  0
   -2.7680   -1.7168   -0.7527 H   0  0  0  0  0  0  0  0  0  0  0  0
   -0.9388   -1.0977    0.1544 C   0  0  1  0  0  0  0  0  0  0  0  0
   -0.5071   -1.1615    1.1582 H   0  0  0  0  0  0  0  0  0  0  0  0
    0.0946   -1.5472   -0.9037 C   0  0  0  0  0  0  0  0  0  0  0  0
   -0.4240   -1.8621   -1.8149 H   0  0  0  0  0  0  0  0  0  0  0  0
    0.7099   -0.6813   -1.1704 H   0  0  0  0  0  0  0  0  0  0  0  0
    1.0535   -2.6357   -0.4780 C   0  0  0  0  0  0  0  0  0  0  0  0
    0.9999   -3.4911    0.5992 C   0  0  0  0  0  0  0  0  0  0  0  0
    0.2354   -3.5088    1.3690 H   0  0  0  0  0  0  0  0  0  0  0  0
    2.1096   -4.3304    0.5369 N   0  0  0  0  0  0  0  0  0  0  0  0
    2.3230   -5.0679    1.2051 H   0  0  0  0  0  0  0  0  0  0  0  0
    2.8782   -4.0336   -0.5746 C   0  0  0  0  0  0  0  0  0  0  0  0
    4.0598   -4.5892   -1.0652 C   0  0  0  0  0  0  0  0  0  0  0  0
    4.5356   -5.4108   -0.5411 H   0  0  0  0  0  0  0  0  0  0  0  0
    4.6204   -4.0725   -2.2417 C   0  0  0  0  0  0  0  0  0  0  0  0
    5.5404   -4.4949   -2.6342 H   0  0  0  0  0  0  0  0  0  0  0  0
    3.9931   -3.0117   -2.9129 C   0  0  0  0  0  0  0  0  0  0  0  0
    4.4282   -2.6146   -3.8250 H   0  0  0  0  0  0  0  0  0  0  0  0
    2.8044   -2.4629   -2.4105 C   0  0  0  0  0  0  0  0  0  0  0  0
    2.3146   -1.6446   -2.9282 H   0  0  0  0  0  0  0  0  0  0  0  0
    2.2530   -2.9825   -1.2340 C   0  0  0  0  0  0  0  0  0  0  0  0
   -1.2820    0.3779   -0.1309 C   0  0  0  0  0  0  0  0  0  0  0  0
   -2.0198    0.6635   -1.0682 O   0  0  0  0  0  0  0  0  0  0  0  0
   -0.7867    1.3847    0.6767 N   0  0  0  0  0  0  0  0  0  0  0  0
   -0.2074    1.1135    1.4665 H   0  0  0  0  0  0  0  0  0  0  0  0
   -1.0985    2.7948    0.4796 C   0  0  0  0  0  0  0  0  0  0  0  0
   -2.1747    2.9675    0.5856 H   0  0  0  0  0  0  0  0  0  0  0  0
   -0.5749    3.4049    1.2219 H   0  0  0  0  0  0  0  0  0  0  0  0
   -0.7857    3.1210   -0.5179 H   0  0  0  0  0  0  0  0  0  0  0  0
  1  2  1  0  0  0  0
  2  3  1  0  0  0  0
  2  4  1  0  0  0  0
  2  5  1  0  0  0  0
  5  6  2  0  0  0  0
  5  7  1  0  0  0  0
  7  8  1  0  0  0  0
  7  9  1  0  0  0  0
  9 10  1  0  0  0  0
  9 11  1  0  0  0  0
  9 29  1  0  0  0  0
 11 12  1  0  0  0  0
 11 13  1  0  0  0  0
 11 14  1  0  0  0  0
 14 15  2  0  0  0  0
 14 28  1  0  0  0  0
 15 16  1  0  0  0  0
 15 17  1  0  0  0  0
 17 18  1  0  0  0  0
 17 19  1  0  0  0  0
 19 20  1  0  0  0  0
 19 28  2  0  0  0  0
 20 21  1  0  0  0  0
 20 22  2  0  0  0  0
 22 23  1  0  0  0  0
 22 24  1  0  0  0  0
 24 25  1  0  0  0  0
 24 26  2  0  0  0  0
 26 27  1  0  0  0  0
 26 28  1  0  0  0  0
 29 30  2  0  0  0  0
 29 31  1  0  0  0  0
 31 32  1  0  0  0  0
 31 33  1  0  0  0  0
 33 34  1  0  0  0  0
 33 35  1  0  0  0  0
 33 36  1  0  0  0  0
M  END
$$$$

  -OEChem-03222214083D

 36 37  0     1  0  0  0  0  0999 V2000
   -4.0447   -4.4023    1.4203 H   0  0  0  0  0  0  0  0  0  0  0  0
   -3.8717   -3.6586    0.6372 C   0  0  0  0  0  0  0  0  0  0  0  0
   -4.7206   -2.9709    0.6111 H   0  0  0  0  0  0  0  0  0  0  0  0
   -3.7971   -4.1715   -0.3248 H   0  0  0  0  0  0  0  0  0  0  0  0
   -2.5923   -2.8931    0.9163 C   0  0  0  0  0  0  0  0  0  0  0  0
   -1.9674   -3.1089    1.9418 O   0  0  0  0  0  0  0  0  0  0  0  0
   -2.1813   -1.9099    0.0432 N   0  0  0  0  0  0  0  0  0  0  0  0
   -2.8050   -1.6894   -0.7314 H   0  0  0  0  0  0  0  0  0  0  0  0
   -0.9445   -1.1134    0.1395 C   0  0  1  0  0  0  0  0  0  0  0  0
   -0.4977   -1.1951    1.1357 H   0  0  0  0  0  0  0  0  0  0  0  0
    0.0802   -1.5462   -0.9360 C   0  0  0  0  0  0  0  0  0  0  0  0
   -0.4439   -1.8420   -1.8502 H   0  0  0  0  0  0  0  0  0  0  0  0
    0.6908   -0.6730   -1.1882 H   0  0  0  0  0  0  0  0  0  0  0  0
    1.0429   -2.6431   -0.5381 C   0  0  0  0  0  0  0  0  0  0  0  0
    0.8708   -3.6839    0.3451 C   0  0  0  0  0  0  0  0  0  0  0  0
   -0.0183   -3.8909    0.9291 H   0  0  0  0  0  0  0  0  0  0  0  0
    2.0444   -4.4329    0.3634 N   0  0  0  0  0  0  0  0  0  0  0  0
    2.2016   -5.2595    0.9359 H   0  0  0  0  0  0  0  0  0  0  0  0
    2.9740   -3.8952   -0.5082 C   0  0  0  0  0  0  0  0  0  0  0  0
    4.2716   -4.2868   -0.8388 C   0  0  0  0  0  0  0  0  0  0  0  0
    4.7145   -5.1598   -0.3722 H   0  0  0  0  0  0  0  0  0  0  0  0
    4.9909   -3.5393   -1.7817 C   0  0  0  0  0  0  0  0  0  0  0  0
    6.0014   -3.8330   -2.0503 H   0  0  0  0  0  0  0  0  0  0  0  0
    4.4048   -2.4140   -2.3809 C   0  0  0  0  0  0  0  0  0  0  0  0
    4.9630   -1.8382   -3.1130 H   0  0  0  0  0  0  0  0  0  0  0  0
    3.0998   -2.0305   -2.0390 C   0  0  0  0  0  0  0  0  0  0  0  0
    2.6459   -1.1623   -2.5051 H   0  0  0  0  0  0  0  0  0  0  0  0
    2.3879   -2.7795   -1.0944 C   0  0  0  0  0  0  0  0  0  0  0  0
   -1.2815    0.3680   -0.1236 C   0  0  0  0  0  0  0  0  0  0  0  0
   -2.0431    0.6693   -1.0367 O   0  0  0  0  0  0  0  0  0  0  0  0
   -0.7619    1.3610    0.6860 N   0  0  0  0  0  0  0  0  0  0  0  0
   -0.1615    1.0754    1.4549 H   0  0  0  0  0  0  0  0  0  0  0  0
   -1.0724    2.7756    0.5203 C   0  0  0  0  0  0  0  0  0  0  0  0
   -2.1465    2.9497    0.6445 H   0  0  0  0  0  0  0  0  0  0  0  0
   -0.5372    3.3695    1.2675 H   0  0  0  0  0  0  0  0  0  0  0  0
   -0.7718    3.1210   -0.4745 H   0  0  0  0  0  0  0  0  0  0  0  0
  1  2  1  0  0  0  0
  2  3  1  0  0  0  0
  2  4  1  0  0  0  0
  2  5  1  0  0  0  0
  5  6  2  0  0  0  0
  5  7  1  0  0  0  0
  7  8  1  0  0  0  0
  7  9  1  0  0  0  0
  9 10  1  0  0  0  0
  9 11  1  0  0  0  0
  9 29  1  0  0  0  0
 11 12  1  0  0  0  0
 11 13  1  0  0  0  0
 11 14  1  0  0  0  0
 14 15  2  0  0  0  0
 14 28  1  0  0  0  0
 15 16  1  0  0  0  0
 15 17  1  0  0  0  0
 17 18  1  0  0  0  0
 17 19  1  0  0  0  0
 19 20  1  0  0  0  0
 19 28  2  0  0  0  0
 20 21  1  0  0  0  0
 20 22  2  0  0  0  0
 22 23  1  0  0  0  0
 22 24  1  0  0  0  0
 24 25  1  0  0  0  0
 24 26  2  0  0  0  0
 26 27  1  0  0  0  0
 26 28  1  0  0  0  0
 29 30  2  0  0  0  0
 29 31  1  0  0  0  0
 31 32  1  0  0  0  0
 31 33  1  0  0  0  0
 33 34  1  0  0  0  0
 33 35  1  0  0  0  0
 33 36  1  0  0  0  0
M  END
$$$$

  -OEChem-03222214083D

 36 37  0     1  0  0  0  0  0999 V2000
   -4.0003   -4.4156    1.4475 H   0  0  0  0  0  0  0  0  0  0  0  0
   -3.8613   -3.6491    0.6798 C   0  0  0  0  0  0  0  0  0  0  0  0
   -4.6890   -2.9381    0.7387 H   0  0  0  0  0  0  0  0  0  0  0  0
   -3.8707   -4.1283   -0.3021 H   0  0  0  0  0  0  0  0  0  0  0  0
   -2.5434   -2.9286    0.8916 C   0  0  0  0  0  0  0  0  0  0  0  0
   -1.8400   -3.2161    1.8460 O   0  0  0  0  0  0  0  0  0  0  0  0
   -2.1721   -1.9229    0.0266 N   0  0  0  0  0  0  0  0  0  0  0  0
   -2.8514   -1.6480   -0.6812 H   0  0  0  0  0  0  0  0  0  0  0  0
   -0.9375   -1.1205    0.0973 C   0  0  1  0  0  0  0  0  0  0  0  0
   -0.4620   -1.2208    1.0788 H   0  0  0  0  0  0  0  0  0  0  0  0
    0.0658   -1.5230   -1.0084 C   0  0  0  0  0  0  0  0  0  0  0  0
   -0.4770   -1.8234   -1.9100 H   0  0  0  0  0  0  0  0  0  0  0  0
    0.6559   -0.6410   -1.2747 H   0  0  0  0  0  0  0  0  0  0  0  0
    1.0377   -2.6162   -0.6254 C   0  0  0  0  0  0  0  0  0  0  0  0
    0.7820   -3.7981    0.0295 C   0  0  0  0  0  0  0  0  0  0  0  0
   -0.1868   -4.1392    0.3785 H   0  0  0  0  0  0  0  0  0  0  0  0
    1.9856   -4.4835    0.1673 N   0  0  0  0  0  0  0  0  0  0  0  0
    2.0975   -5.3799    0.6358 H   0  0  0  0  0  0  0  0  0  0  0  0
    3.0196   -3.7614   -0.4004 C   0  0  0  0  0  0  0  0  0  0  0  0
    4.3834   -4.0311   -0.5124 C   0  0  0  0  0  0  0  0  0  0  0  0
    4.7936   -4.9493   -0.1069 H   0  0  0  0  0  0  0  0  0  0  0  0
    5.2125   -3.1027   -1.1563 C   0  0  0  0  0  0  0  0  0  0  0  0
    6.2759   -3.3001   -1.2523 H   0  0  0  0  0  0  0  0  0  0  0  0
    4.6686   -1.9200   -1.6791 C   0  0  0  0  0  0  0  0  0  0  0  0
    5.3123   -1.2036   -2.1804 H   0  0  0  0  0  0  0  0  0  0  0  0
    3.2958   -1.6597   -1.5581 C   0  0  0  0  0  0  0  0  0  0  0  0
    2.8783   -0.7452   -1.9656 H   0  0  0  0  0  0  0  0  0  0  0  0
    2.4721   -2.5897   -0.9113 C   0  0  0  0  0  0  0  0  0  0  0  0
   -1.2921    0.3638   -0.1190 C   0  0  0  0  0  0  0  0  0  0  0  0
   -2.0968    0.6790   -0.9895 O   0  0  0  0  0  0  0  0  0  0  0  0
   -0.7501    1.3418    0.6939 N   0  0  0  0  0  0  0  0  0  0  0  0
   -0.1171    1.0436    1.4314 H   0  0  0  0  0  0  0  0  0  0  0  0
   -1.0776    2.7569    0.5723 C   0  0  0  0  0  0  0  0  0  0  0  0
   -2.1495    2.9173    0.7287 H   0  0  0  0  0  0  0  0  0  0  0  0
   -0.5286    3.3374    1.3200 H   0  0  0  0  0  0  0  0  0  0  0  0
   -0.8065    3.1294   -0.4211 H   0  0  0  0  0  0  0  0  0  0  0  0
  1  2  1  0  0  0  0
  2  3  1  0  0  0  0
  2  4  1  0  0  0  0
  2  5  1  0  0  0  0
  5  6  2  0  0  0  0
  5  7  1  0  0  0  0
  7  8  1  0  0  0  0
  7  9  1  0  0  0  0
  9 10  1  0  0  0  0
  9 11  1  0  0  0  0
  9 29  1  0  0  0  0
 11 12  1  0  0  0  0
 11 13  1  0  0  0  0
 11 14  1  0  0  0  0
 14 15  2  0  0  0  0
 14 28  1  0  0  0  0
 15 16  1  0  0  0  0
 15 17  1  0  0  0  0
 17 18  1  0  0  0  0
 17 19  1  0  0  0  0
 19 20  1  0  0  0  0
 19 28  2  0  0  0  0
 20 21  1  0  0  0  0
 20 22  2  0  0  0  0
 22 23  1  0  0  0  0
 22 24  1  0  0  0  0
 24 25  1  0  0  0  0
 24 26  2  0  0  0  0
 26 27  1  0  0  0  0
 26 28  1  0  0  0  0
 29 30  2  0  0  0  0
 29 31  1  0  0  0  0
 31 32  1  0  0  0  0
 31 33  1  0  0  0  0
 33 34  1  0  0  0  0
 33 35  1  0  0  0  0
 33 36  1  0  0  0  0
M  END
$$$$

  -OEChem-03222214083D

 36 37  0     1  0  0  0  0  0999 V2000
   -3.8892   -4.4501    1.4774 H   0  0  0  0  0  0  0  0  0  0  0  0
   -3.7982   -3.6685    0.7179 C   0  0  0  0  0  0  0  0  0  0  0  0
   -4.6076   -2.9475    0.8570 H   0  0  0  0  0  0  0  0  0  0  0  0
   -3.8916   -4.1250   -0.2704 H   0  0  0  0  0  0  0  0  0  0  0  0
   -2.4562   -2.9725    0.8434 C   0  0  0  0  0  0  0  0  0  0  0  0
   -1.6723   -3.3207    1.7101 O   0  0  0  0  0  0  0  0  0  0  0  0
   -2.1439   -1.9379   -0.0114 N   0  0  0  0  0  0  0  0  0  0  0  0
   -2.8792   -1.6225   -0.6422 H   0  0  0  0  0  0  0  0  0  0  0  0
   -0.9231   -1.1128    0.0343 C   0  0  1  0  0  0  0  0  0  0  0  0
   -0.4197   -1.2266    1.0006 H   0  0  0  0  0  0  0  0  0  0  0  0
    0.0568   -1.4913   -1.0968 C   0  0  0  0  0  0  0  0  0  0  0  0
   -0.5038   -1.8185   -1.9782 H   0  0  0  0  0  0  0  0  0  0  0  0
    0.6256   -0.6059   -1.3957 H   0  0  0  0  0  0  0  0  0  0  0  0
    1.0351   -2.5691   -0.6989 C   0  0  0  0  0  0  0  0  0  0  0  0
    0.7431   -3.8461   -0.2853 C   0  0  0  0  0  0  0  0  0  0  0  0
   -0.2533   -4.2660   -0.1801 H   0  0  0  0  0  0  0  0  0  0  0  0
    1.9450   -4.4923   -0.0110 N   0  0  0  0  0  0  0  0  0  0  0  0
    2.0295   -5.4382    0.3540 H   0  0  0  0  0  0  0  0  0  0  0  0
    3.0129   -3.6443   -0.2463 C   0  0  0  0  0  0  0  0  0  0  0  0
    4.3887   -3.8317   -0.1154 C   0  0  0  0  0  0  0  0  0  0  0  0
    4.7794   -4.7840    0.2254 H   0  0  0  0  0  0  0  0  0  0  0  0
    5.2546   -2.7761   -0.4315 C   0  0  0  0  0  0  0  0  0  0  0  0
    6.3281   -2.9082   -0.3364 H   0  0  0  0  0  0  0  0  0  0  0  0
    4.7353   -1.5497   -0.8725 C   0  0  0  0  0  0  0  0  0  0  0  0
    5.4082   -0.7339   -1.1184 H   0  0  0  0  0  0  0  0  0  0  0  0
    3.3499   -1.3730   -0.9978 C   0  0  0  0  0  0  0  0  0  0  0  0
    2.9515   -0.4240   -1.3395 H   0  0  0  0  0  0  0  0  0  0  0  0
    2.4896   -2.4311   -0.6803 C   0  0  0  0  0  0  0  0  0  0  0  0
   -1.2991    0.3714   -0.1286 C   0  0  0  0  0  0  0  0  0  0  0  0
   -2.1488    0.6985   -0.9503 O   0  0  0  0  0  0  0  0  0  0  0  0
   -0.7362    1.3320    0.6907 N   0  0  0  0  0  0  0  0  0  0  0  0
   -0.0661    1.0213    1.3894 H   0  0  0  0  0  0  0  0  0  0  0  0
   -1.0898    2.7444    0.6290 C   0  0  0  0  0  0  0  0  0  0  0  0
   -2.1578    2.8812    0.8288 H   0  0  0  0  0  0  0  0  0  0  0  0
   -0.5237    3.3089    1.3761 H   0  0  0  0  0  0  0  0  0  0  0  0
   -0.8605    3.1536   -0.3605 H   0  0  0  0  0  0  0  0  0  0  0  0
  1  2  1  0  0  0  0
  2  3  1  0  0  0  0
  2  4  1  0  0  0  0
  2  5  1  0  0  0  0
  5  6  2  0  0  0  0
  5  7  1  0  0  0  0
  7  8  1  0  0  0  0
  7  9  1  0  0  0  0
  9 10  1  0  0  0  0
  9 11  1  0  0  0  0
  9 29  1  0  0  0  0
 11 12  1  0  0  0  0
 11 13  1  0  0  0  0
 11 14  1  0  0  0  0
 14 15  2  0  0  0  0
 14 28  1  0  0  0  0
 15 16  1  0  0  0  0
 15 17  1  0  0  0  0
 17 18  1  0  0  0  0
 17 19  1  0  0  0  0
 19 20  1  0  0  0  0
 19 28  2  0  0  0  0
 20 21  1  0  0  0  0
 20 22  2  0  0  0  0
 22 23  1  0  0  0  0
 22 24  1  0  0  0  0
 24 25  1  0  0  0  0
 24 26  2  0  0  0  0
 26 27  1  0  0  0  0
 26 28  1  0  0  0  0
 29 30  2  0  0  0  0
 29 31  1  0  0  0  0
 31 32  1  0  0  0  0
 31 33  1  0  0  0  0
 33 34  1  0  0  0  0
 33 35  1  0  0  0  0
 33 36  1  0  0  0  0
M  END
$$$$

  -OEChem-03222214083D

 36 37  0     1  0  0  0  0  0999 V2000
   -3.7770   -4.4803    1.4953 H   0  0  0  0  0  0  0  0  0  0  0  0
   -3.7159   -3.6966    0.7349 C   0  0  0  0  0  0  0  0  0  0  0  0
   -4.5205   -2.9775    0.9064 H   0  0  0  0  0  0  0  0  0  0  0  0
   -3.8455   -4.1505   -0.2505 H   0  0  0  0  0  0  0  0  0  0  0  0
   -2.3720   -2.9972    0.8109 C   0  0  0  0  0  0  0  0  0  0  0  0
   -1.5450   -3.3635    1.6281 O   0  0  0  0  0  0  0  0  0  0  0  0
   -2.1062   -1.9436   -0.0368 N   0  0  0  0  0  0  0  0  0  0  0  0
   -2.8724   -1.6164   -0.6229 H   0  0  0  0  0  0  0  0  0  0  0  0
   -0.9010   -1.0968   -0.0010 C   0  0  1  0  0  0  0  0  0  0  0  0
   -0.3790   -1.2159    0.9547 H   0  0  0  0  0  0  0  0  0  0  0  0
    0.0565   -1.4640   -1.1506 C   0  0  0  0  0  0  0  0  0  0  0  0
   -0.5200   -1.8068   -2.0159 H   0  0  0  0  0  0  0  0  0  0  0  0
    0.6180   -0.5815   -1.4724 H   0  0  0  0  0  0  0  0  0  0  0  0
    1.0348   -2.5315   -0.7362 C   0  0  0  0  0  0  0  0  0  0  0  0
    0.7666   -3.8690   -0.5787 C   0  0  0  0  0  0  0  0  0  0  0  0
   -0.2040   -4.3383   -0.7190 H   0  0  0  0  0  0  0  0  0  0  0  0
    1.9459   -4.4934   -0.1805 N   0  0  0  0  0  0  0  0  0  0  0  0
    2.0333   -5.4778    0.0608 H   0  0  0  0  0  0  0  0  0  0  0  0
    2.9703   -3.5674   -0.0753 C   0  0  0  0  0  0  0  0  0  0  0  0
    4.3085   -3.7044    0.2937 C   0  0  0  0  0  0  0  0  0  0  0  0
    4.7040   -4.6782    0.5602 H   0  0  0  0  0  0  0  0  0  0  0  0
    5.1311   -2.5694    0.3150 C   0  0  0  0  0  0  0  0  0  0  0  0
    6.1749   -2.6619    0.5999 H   0  0  0  0  0  0  0  0  0  0  0  0
    4.6069   -1.3147   -0.0311 C   0  0  0  0  0  0  0  0  0  0  0  0
    5.2470   -0.4380   -0.0137 H   0  0  0  0  0  0  0  0  0  0  0  0
    3.2591   -1.1891   -0.3984 C   0  0  0  0  0  0  0  0  0  0  0  0
    2.8537   -0.2193   -0.6658 H   0  0  0  0  0  0  0  0  0  0  0  0
    2.4438   -2.3266   -0.4169 C   0  0  0  0  0  0  0  0  0  0  0  0
   -1.2976    0.3846   -0.1307 C   0  0  0  0  0  0  0  0  0  0  0  0
   -2.1672    0.7145   -0.9300 O   0  0  0  0  0  0  0  0  0  0  0  0
   -0.7312    1.3388    0.6939 N   0  0  0  0  0  0  0  0  0  0  0  0
   -0.0505    1.0233    1.3802 H   0  0  0  0  0  0  0  0  0  0  0  0
   -1.1044    2.7475    0.6638 C   0  0  0  0  0  0  0  0  0  0  0  0
   -2.1731    2.8660    0.8713 H   0  0  0  0  0  0  0  0  0  0  0  0
   -0.5424    3.3041    1.4199 H   0  0  0  0  0  0  0  0  0  0  0  0
   -0.8856    3.1805   -0.3179 H   0  0  0  0  0  0  0  0  0  0  0  0
  1  2  1  0  0  0  0
  2  3  1  0  0  0  0
  2  4  1  0  0  0  0
  2  5  1  0  0  0  0
  5  6  2  0  0  0  0
  5  7  1  0  0  0  0
  7  8  1  0  0  0  0
  7  9  1  0  0  0  0
  9 10  1  0  0  0  0
  9 11  1  0  0  0  0
  9 29  1  0  0  0  0
 11 12  1  0  0  0  0
 11 13  1  0  0  0  0
 11 14  1  0  0  0  0
 14 15  2  0  0  0  0
 14 28  1  0  0  0  0
 15 16  1  0  0  0  0
 15 17  1  0  0  0  0
 17 18  1  0  0  0  0
 17 19  1  0  0  0  0
 19 20  1  0  0  0  0
 19 28  2  0  0  0  0
 20 21  1  0  0  0  0
 20 22  2  0  0  0  0
 22 23  1  0  0  0  0
 22 24  1  0  0  0  0
 24 25  1  0  0  0  0
 24 26  2  0  0  0  0
 26 27  1  0  0  0  0
 26 28  1  0  0  0  0
 29 30  2  0  0  0  0
 29 31  1  0  0  0  0
 31 32  1  0  0  0  0
 31 33  1  0  0  0  0
 33 34  1  0  0  0  0
 33 35  1  0  0  0  0
 33 36  1  0  0  0  0
M  END
$$$$

  -OEChem-03222214083D

 36 37  0     1  0  0  0  0  0999 V2000
   -3.6964   -4.5215    1.4733 H   0  0  0  0  0  0  0  0  0  0  0  0
   -3.6531   -3.7314    0.7182 C   0  0  0  0  0  0  0  0  0  0  0  0
   -4.4789   -3.0364    0.8882 H   0  0  0  0  0  0  0  0  0  0  0  0
   -3.7634   -4.1820   -0.2710 H   0  0  0  0  0  0  0  0  0  0  0  0
   -2.3295   -2.9956    0.8080 C   0  0  0  0  0  0  0  0  0  0  0  0
   -1.5028   -3.3381    1.6358 O   0  0  0  0  0  0  0  0  0  0  0  0
   -2.0829   -1.9361   -0.0386 N   0  0  0  0  0  0  0  0  0  0  0  0
   -2.8498   -1.6265   -0.6327 H   0  0  0  0  0  0  0  0  0  0  0  0
   -0.8857   -1.0790   -0.0054 C   0  0  1  0  0  0  0  0  0  0  0  0
   -0.3564   -1.1978    0.9465 H   0  0  0  0  0  0  0  0  0  0  0  0
    0.0578   -1.4495   -1.1633 C   0  0  0  0  0  0  0  0  0  0  0  0
   -0.5270   -1.7966   -2.0213 H   0  0  0  0  0  0  0  0  0  0  0  0
    0.6234   -0.5726   -1.4942 H   0  0  0  0  0  0  0  0  0  0  0  0
    1.0312   -2.5136   -0.7357 C   0  0  0  0  0  0  0  0  0  0  0  0
    0.8514   -3.8713   -0.8312 C   0  0  0  0  0  0  0  0  0  0  0  0
   -0.0370   -4.3638   -1.2185 H   0  0  0  0  0  0  0  0  0  0  0  0
    1.9925   -4.4845   -0.3181 N   0  0  0  0  0  0  0  0  0  0  0  0
    2.1203   -5.4879   -0.2095 H   0  0  0  0  0  0  0  0  0  0  0  0
    2.9026   -3.5305    0.1080 C   0  0  0  0  0  0  0  0  0  0  0  0
    4.1645   -3.6454    0.6912 C   0  0  0  0  0  0  0  0  0  0  0  0
    4.5898   -4.6243    0.8817 H   0  0  0  0  0  0  0  0  0  0  0  0
    4.8720   -2.4819    1.0249 C   0  0  0  0  0  0  0  0  0  0  0  0
    5.8559   -2.5581    1.4779 H   0  0  0  0  0  0  0  0  0  0  0  0
    4.3112   -1.2204    0.7721 C   0  0  0  0  0  0  0  0  0  0  0  0
    4.8633   -0.3215    1.0292 H   0  0  0  0  0  0  0  0  0  0  0  0
    3.0406   -1.1170    0.1875 C   0  0  0  0  0  0  0  0  0  0  0  0
    2.6050   -0.1437   -0.0113 H   0  0  0  0  0  0  0  0  0  0  0  0
    2.3410   -2.2835   -0.1401 C   0  0  0  0  0  0  0  0  0  0  0  0
   -1.2871    0.4015   -0.1255 C   0  0  0  0  0  0  0  0  0  0  0  0
   -2.1542    0.7355   -0.9258 O   0  0  0  0  0  0  0  0  0  0  0  0
   -0.7180    1.3514    0.7023 N   0  0  0  0  0  0  0  0  0  0  0  0
   -0.0540    1.0273    1.4006 H   0  0  0  0  0  0  0  0  0  0  0  0
   -1.1017    2.7573    0.6912 C   0  0  0  0  0  0  0  0  0  0  0  0
   -2.1700    2.8650    0.9065 H   0  0  0  0  0  0  0  0  0  0  0  0
   -0.5393    3.3081    1.4512 H   0  0  0  0  0  0  0  0  0  0  0  0
   -0.8916    3.2044   -0.2861 H   0  0  0  0  0  0  0  0  0  0  0  0
  1  2  1  0  0  0  0
  2  3  1  0  0  0  0
  2  4  1  0  0  0  0
  2  5  1  0  0  0  0
  5  6  2  0  0  0  0
  5  7  1  0  0  0  0
  7  8  1  0  0  0  0
  7  9  1  0  0  0  0
  9 10  1  0  0  0  0
  9 11  1  0  0  0  0
  9 29  1  0  0  0  0
 11 12  1  0  0  0  0
 11 13  1  0  0  0  0
 11 14  1  0  0  0  0
 14 15  2  0  0  0  0
 14 28  1  0  0  0  0
 15 16  1  0  0  0  0
 15 17  1  0  0  0  0
 17 18  1  0  0  0  0
 17 19  1  0  0  0  0
 19 20  1  0  0  0  0
 19 28  2  0  0  0  0
 20 21  1  0  0  0  0
 20 22  2  0  0  0  0
 22 23  1  0  0  0  0
 22 24  1  0  0  0  0
 24 25  1  0  0  0  0
 24 26  2  0  0  0  0
 26 27  1  0  0  0  0
 26 28  1  0  0  0  0
 29 30  2  0  0  0  0
 29 31  1  0  0  0  0
 31 32  1  0  0  0  0
 31 33  1  0  0  0  0
 33 34  1  0  0  0  0
 33 35  1  0  0  0  0
 33 36  1  0  0  0  0
M  END
$$$$

  -OEChem-03222214083D

 36 37  0     1  0  0  0  0  0999 V2000
   -3.6762   -4.5452    1.4443 H   0  0  0  0  0  0  0  0  0  0  0  0
   -3.6305   -3.7539    0.6907 C   0  0  0  0  0  0  0  0  0  0  0  0
   -4.4782   -3.0801    0.8359 H   0  0  0  0  0  0  0  0  0  0  0  0
   -3.6983   -4.2077   -0.3008 H   0  0  0  0  0  0  0  0  0  0  0  0
   -2.3296   -2.9841    0.8185 C   0  0  0  0  0  0  0  0  0  0  0  0
   -1.5292   -3.2888    1.6861 O   0  0  0  0  0  0  0  0  0  0  0  0
   -2.0806   -1.9268   -0.0303 N   0  0  0  0  0  0  0  0  0  0  0  0
   -2.8303   -1.6435   -0.6581 H   0  0  0  0  0  0  0  0  0  0  0  0
   -0.8876   -1.0656    0.0164 C   0  0  1  0  0  0  0  0  0  0  0  0
   -0.3680   -1.1816    0.9736 H   0  0  0  0  0  0  0  0  0  0  0  0
    0.0620   -1.4405   -1.1361 C   0  0  0  0  0  0  0  0  0  0  0  0
   -0.5159   -1.7806   -2.0015 H   0  0  0  0  0  0  0  0  0  0  0  0
    0.6371   -0.5648   -1.4550 H   0  0  0  0  0  0  0  0  0  0  0  0
    1.0319   -2.5053   -0.7015 C   0  0  0  0  0  0  0  0  0  0  0  0
    0.9916   -3.8343   -1.0442 C   0  0  0  0  0  0  0  0  0  0  0  0
    0.2309   -4.3036   -1.6633 H   0  0  0  0  0  0  0  0  0  0  0  0
    2.0817   -4.4581   -0.4407 N   0  0  0  0  0  0  0  0  0  0  0  0
    2.2860   -5.4538   -0.4815 H   0  0  0  0  0  0  0  0  0  0  0  0
    2.8278   -3.5378    0.2780 C   0  0  0  0  0  0  0  0  0  0  0  0
    3.9881   -3.6737    1.0403 C   0  0  0  0  0  0  0  0  0  0  0  0
    4.4581   -4.6445    1.1509 H   0  0  0  0  0  0  0  0  0  0  0  0
    4.5364   -2.5407    1.6583 C   0  0  0  0  0  0  0  0  0  0  0  0
    5.4396   -2.6323    2.2543 H   0  0  0  0  0  0  0  0  0  0  0  0
    3.9206   -1.2886    1.5066 C   0  0  0  0  0  0  0  0  0  0  0  0
    4.3502   -0.4134    1.9843 H   0  0  0  0  0  0  0  0  0  0  0  0
    2.7524   -1.1648    0.7405 C   0  0  0  0  0  0  0  0  0  0  0  0
    2.2751   -0.1991    0.6168 H   0  0  0  0  0  0  0  0  0  0  0  0
    2.2094   -2.3015    0.1325 C   0  0  0  0  0  0  0  0  0  0  0  0
   -1.2913    0.4135   -0.1124 C   0  0  0  0  0  0  0  0  0  0  0  0
   -2.1376    0.7461   -0.9352 O   0  0  0  0  0  0  0  0  0  0  0  0
   -0.7354    1.3663    0.7213 N   0  0  0  0  0  0  0  0  0  0  0  0
   -0.1028    1.0408    1.4474 H   0  0  0  0  0  0  0  0  0  0  0  0
   -1.1221    2.7714    0.7007 C   0  0  0  0  0  0  0  0  0  0  0  0
   -2.1929    2.8783    0.9041 H   0  0  0  0  0  0  0  0  0  0  0  0
   -0.5686    3.3266    1.4641 H   0  0  0  0  0  0  0  0  0  0  0  0
   -0.9024    3.2150   -0.2760 H   0  0  0  0  0  0  0  0  0  0  0  0
  1  2  1  0  0  0  0
  2  3  1  0  0  0  0
  2  4  1  0  0  0  0
  2  5  1  0  0  0  0
  5  6  2  0  0  0  0
  5  7  1  0  0  0  0
  7  8  1  0  0  0  0
  7  9  1  0  0  0  0
  9 10  1  0  0  0  0
  9 11  1  0  0  0  0
  9 29  1  0  0  0  0
 11 12  1  0  0  0  0
 11 13  1  0  0  0  0
 11 14  1  0  0  0  0
 14 15  2  0  0  0  0
 14 28  1  0  0  0  0
 15 16  1  0  0  0  0
 15 17  1  0  0  0  0
 17 18  1  0  0  0  0
 17 19  1  0  0  0  0
 19 20  1  0  0  0  0
 19 28  2  0  0  0  0
 20 21  1  0  0  0  0
 20 22  2  0  0  0  0
 22 23  1  0  0  0  0
 22 24  1  0  0  0  0
 24 25  1  0  0  0  0
 24 26  2  0  0  0  0
 26 27  1  0  0  0  0
 26 28  1  0  0  0  0
 29 30  2  0  0  0  0
 29 31  1  0  0  0  0
 31 32  1  0  0  0  0
 31 33  1  0  0  0  0
 33 34  1  0  0  0  0
 33 35  1  0  0  0  0
 33 36  1  0  0  0  0
M  END
$$$$

  -OEChem-03222214083D

 36 37  0     1  0  0  0  0  0999 V2000
   -3.7200   -4.5589    1.3847 H   0  0  0  0  0  0  0  0  0  0  0  0
   -3.6598   -3.7609    0.6391 C   0  0  0  0  0  0  0  0  0  0  0  0
   -4.5298   -3.1090    0.7493 H   0  0  0  0  0  0  0  0  0  0  0  0
   -3.6715   -4.2089   -0.3574 H   0  0  0  0  0  0  0  0  0  0  0  0
   -2.3850   -2.9614    0.8316 C   0  0  0  0  0  0  0  0  0  0  0  0
   -1.6383   -3.2268    1.7582 O   0  0  0  0  0  0  0  0  0  0  0  0
   -2.1045   -1.9146   -0.0205 N   0  0  0  0  0  0  0  0  0  0  0  0
   -2.8158   -1.6597   -0.7024 H   0  0  0  0  0  0  0  0  0  0  0  0
   -0.9139   -1.0534    0.0612 C   0  0  1  0  0  0  0  0  0  0  0  0
   -0.4270   -1.1599    1.0355 H   0  0  0  0  0  0  0  0  0  0  0  0
    0.0648   -1.4405   -1.0646 C   0  0  0  0  0  0  0  0  0  0  0  0
   -0.4903   -1.7676   -1.9499 H   0  0  0  0  0  0  0  0  0  0  0  0
    0.6536   -0.5649   -1.3581 H   0  0  0  0  0  0  0  0  0  0  0  0
    1.0310   -2.5086   -0.6234 C   0  0  0  0  0  0  0  0  0  0  0  0
    1.1641   -3.7510   -1.1943 C   0  0  0  0  0  0  0  0  0  0  0  0
    0.5567   -4.1398   -2.0081 H   0  0  0  0  0  0  0  0  0  0  0  0
    2.2013   -4.4101   -0.5390 N   0  0  0  0  0  0  0  0  0  0  0  0
    2.5064   -5.3621   -0.7276 H   0  0  0  0  0  0  0  0  0  0  0  0
    2.7585   -3.5895    0.4280 C   0  0  0  0  0  0  0  0  0  0  0  0
    3.8151   -3.7912    1.3164 C   0  0  0  0  0  0  0  0  0  0  0  0
    4.3436   -4.7379    1.3311 H   0  0  0  0  0  0  0  0  0  0  0  0
    4.1850   -2.7547    2.1847 C   0  0  0  0  0  0  0  0  0  0  0  0
    5.0055   -2.8977    2.8815 H   0  0  0  0  0  0  0  0  0  0  0  0
    3.4990   -1.5313    2.1514 C   0  0  0  0  0  0  0  0  0  0  0  0
    3.7917   -0.7293    2.8220 H   0  0  0  0  0  0  0  0  0  0  0  0
    2.4371   -1.3418    1.2555 C   0  0  0  0  0  0  0  0  0  0  0  0
    1.9111   -0.3949    1.2237 H   0  0  0  0  0  0  0  0  0  0  0  0
    2.0650   -2.3846    0.3997 C   0  0  0  0  0  0  0  0  0  0  0  0
   -1.3176    0.4230   -0.1011 C   0  0  0  0  0  0  0  0  0  0  0  0
   -2.1235    0.7429   -0.9684 O   0  0  0  0  0  0  0  0  0  0  0  0
   -0.7990    1.3909    0.7395 N   0  0  0  0  0  0  0  0  0  0  0  0
   -0.2049    1.0789    1.5027 H   0  0  0  0  0  0  0  0  0  0  0  0
   -1.1825    2.7958    0.6735 C   0  0  0  0  0  0  0  0  0  0  0  0
   -2.2599    2.9080    0.8344 H   0  0  0  0  0  0  0  0  0  0  0  0
   -0.6566    3.3675    1.4441 H   0  0  0  0  0  0  0  0  0  0  0  0
   -0.9260    3.2174   -0.3041 H   0  0  0  0  0  0  0  0  0  0  0  0
  1  2  1  0  0  0  0
  2  3  1  0  0  0  0
  2  4  1  0  0  0  0
  2  5  1  0  0  0  0
  5  6  2  0  0  0  0
  5  7  1  0  0  0  0
  7  8  1  0  0  0  0
  7  9  1  0  0  0  0
  9 10  1  0  0  0  0
  9 11  1  0  0  0  0
  9 29  1  0  0  0  0
 11 12  1  0  0  0  0
 11 13  1  0  0  0  0
 11 14  1  0  0  0  0
 14 15  2  0  0  0  0
 14 28  1  0  0  0  0
 15 16  1  0  0  0  0
 15 17  1  0  0  0  0
 17 18  1  0  0  0  0
 17 19  1  0  0  0  0
 19 20  1  0  0  0  0
 19 28  2  0  0  0  0
 20 21  1  0  0  0  0
 20 22  2  0  0  0  0
 22 23  1  0  0  0  0
 22 24  1  0  0  0  0
 24 25  1  0  0  0  0
 24 26  2  0  0  0  0
 26 27  1  0  0  0  0
 26 28  1  0  0  0  0
 29 30  2  0  0  0  0
 29 31  1  0  0  0  0
 31 32  1  0  0  0  0
 31 33  1  0  0  0  0
 33 34  1  0  0  0  0
 33 35  1  0  0  0  0
 33 36  1  0  0  0  0
M  END
$$$$

  -OEChem-03222214083D

 36 37  0     1  0  0  0  0  0999 V2000
   -3.8107   -4.5559    1.3166 H   0  0  0  0  0  0  0  0  0  0  0  0
   -3.7335   -3.7510    0.5802 C   0  0  0  0  0  0  0  0  0  0  0  0
   -4.6148   -3.1106    0.6631 H   0  0  0  0  0  0  0  0  0  0  0  0
   -3.7026   -4.1911   -0.4194 H   0  0  0  0  0  0  0  0  0  0  0  0
   -2.4777   -2.9368    0.8275 C   0  0  0  0  0  0  0  0  0  0  0  0
   -1.7898   -3.1669    1.8077 O   0  0  0  0  0  0  0  0  0  0  0  0
   -2.1559   -1.9055   -0.0289 N   0  0  0  0  0  0  0  0  0  0  0  0
   -2.8238   -1.6758   -0.7615 H   0  0  0  0  0  0  0  0  0  0  0  0
   -0.9682   -1.0455    0.0940 C   0  0  1  0  0  0  0  0  0  0  0  0
   -0.5348   -1.1383    1.0917 H   0  0  0  0  0  0  0  0  0  0  0  0
    0.0566   -1.4515   -0.9845 C   0  0  0  0  0  0  0  0  0  0  0  0
   -0.4640   -1.7707   -1.8932 H   0  0  0  0  0  0  0  0  0  0  0  0
    0.6566   -0.5752   -1.2513 H   0  0  0  0  0  0  0  0  0  0  0  0
    1.0233   -2.5185   -0.5304 C   0  0  0  0  0  0  0  0  0  0  0  0
    1.3589   -3.6121   -1.2922 C   0  0  0  0  0  0  0  0  0  0  0  0
    0.9215   -3.8658   -2.2549 H   0  0  0  0  0  0  0  0  0  0  0  0
    2.3427   -4.3242   -0.6141 N   0  0  0  0  0  0  0  0  0  0  0  0
    2.7660   -5.1939   -0.9300 H   0  0  0  0  0  0  0  0  0  0  0  0
    2.6870   -3.6683    0.5546 C   0  0  0  0  0  0  0  0  0  0  0  0
    3.6378   -3.9771    1.5274 C   0  0  0  0  0  0  0  0  0  0  0  0
    4.2356   -4.8775    1.4418 H   0  0  0  0  0  0  0  0  0  0  0  0
    3.8139   -3.1067    2.6102 C   0  0  0  0  0  0  0  0  0  0  0  0
    4.5493   -3.3350    3.3758 H   0  0  0  0  0  0  0  0  0  0  0  0
    3.0451   -1.9379    2.7007 C   0  0  0  0  0  0  0  0  0  0  0  0
    3.1886   -1.2606    3.5368 H   0  0  0  0  0  0  0  0  0  0  0  0
    2.0923   -1.6400    1.7158 C   0  0  0  0  0  0  0  0  0  0  0  0
    1.5141   -0.7276    1.7900 H   0  0  0  0  0  0  0  0  0  0  0  0
    1.9021   -2.5216    0.6430 C   0  0  0  0  0  0  0  0  0  0  0  0
   -1.3603    0.4290   -0.1119 C   0  0  0  0  0  0  0  0  0  0  0  0
   -2.1195    0.7368   -1.0245 O   0  0  0  0  0  0  0  0  0  0  0  0
   -0.8794    1.4103    0.7351 N   0  0  0  0  0  0  0  0  0  0  0  0
   -0.3064    1.1147    1.5202 H   0  0  0  0  0  0  0  0  0  0  0  0
   -1.2378    2.8177    0.6137 C   0  0  0  0  0  0  0  0  0  0  0  0
   -2.3211    2.9475    0.7080 H   0  0  0  0  0  0  0  0  0  0  0  0
   -0.7500    3.4013    1.4003 H   0  0  0  0  0  0  0  0  0  0  0  0
   -0.9182    3.2113   -0.3570 H   0  0  0  0  0  0  0  0  0  0  0  0
  1  2  1  0  0  0  0
  2  3  1  0  0  0  0
  2  4  1  0  0  0  0
  2  5  1  0  0  0  0
  5  6  2  0  0  0  0
  5  7  1  0  0  0  0
  7  8  1  0  0  0  0
  7  9  1  0  0  0  0
  9 10  1  0  0  0  0
  9 11  1  0  0  0  0
  9 29  1  0  0  0  0
 11 12  1  0  0  0  0
 11 13  1  0  0  0  0
 11 14  1  0  0  0  0
 14 15  2  0  0  0  0
 14 28  1  0  0  0  0
 15 16  1  0  0  0  0
 15 17  1  0  0  0  0
 17 18  1  0  0  0  0
 17 19  1  0  0  0  0
 19 20  1  0  0  0  0
 19 28  2  0  0  0  0
 20 21  1  0  0  0  0
 20 22  2  0  0  0  0
 22 23  1  0  0  0  0
 22 24  1  0  0  0  0
 24 25  1  0  0  0  0
 24 26  2  0  0  0  0
 26 27  1  0  0  0  0
 26 28  1  0  0  0  0
 29 30  2  0  0  0  0
 29 31  1  0  0  0  0
 31 32  1  0  0  0  0
 31 33  1  0  0  0  0
 33 34  1  0  0  0  0
 33 35  1  0  0  0  0
 33 36  1  0  0  0  0
M  END
$$$$

  -OEChem-03222214083D

 36 37  0     1  0  0  0  0  0999 V2000
   -3.9010   -4.4677    1.3643 H   0  0  0  0  0  0  0  0  0  0  0  0
   -3.7761   -3.7153    0.5806 C   0  0  0  0  0  0  0  0  0  0  0  0
   -4.6647   -3.0801    0.5557 H   0  0  0  0  0  0  0  0  0  0  0  0
   -3.6715   -4.2236   -0.3810 H   0  0  0  0  0  0  0  0  0  0  0  0
   -2.5453   -2.8730    0.8578 C   0  0  0  0  0  0  0  0  0  0  0  0
   -1.9120   -3.0427    1.8866 O   0  0  0  0  0  0  0  0  0  0  0  0
   -2.1898   -1.8763   -0.0257 N   0  0  0  0  0  0  0  0  0  0  0  0
   -2.8142   -1.6927   -0.8079 H   0  0  0  0  0  0  0  0  0  0  0  0
   -1.0089   -1.0109    0.1157 C   0  0  1  0  0  0  0  0  0  0  0  0
   -0.6221   -1.0564    1.1307 H   0  0  0  0  0  0  0  0  0  0  0  0
    0.0592   -1.4400   -0.9097 C   0  0  0  0  0  0  0  0  0  0  0  0
   -0.4313   -1.7657   -1.8330 H   0  0  0  0  0  0  0  0  0  0  0  0
    0.6587   -0.5596   -1.1640 H   0  0  0  0  0  0  0  0  0  0  0  0
    1.0463   -2.4932   -0.4500 C   0  0  0  0  0  0  0  0  0  0  0  0
    1.5967   -3.3710   -1.3549 C   0  0  0  0  0  0  0  0  0  0  0  0
    1.3405   -3.4261   -2.4105 H   0  0  0  0  0  0  0  0  0  0  0  0
    2.5232   -4.1625   -0.6904 N   0  0  0  0  0  0  0  0  0  0  0  0
    3.0712   -4.9108   -1.1087 H   0  0  0  0  0  0  0  0  0  0  0  0
    2.6154   -3.7722    0.6314 C   0  0  0  0  0  0  0  0  0  0  0  0
    3.4335   -4.2651    1.6472 C   0  0  0  0  0  0  0  0  0  0  0  0
    4.1102   -5.0898    1.4539 H   0  0  0  0  0  0  0  0  0  0  0  0
    3.3714   -3.6790    2.9157 C   0  0  0  0  0  0  0  0  0  0  0  0
    3.9993   -4.0514    3.7195 H   0  0  0  0  0  0  0  0  0  0  0  0
    2.5001   -2.6071    3.1446 C   0  0  0  0  0  0  0  0  0  0  0  0
    2.4537   -2.1497    4.1280 H   0  0  0  0  0  0  0  0  0  0  0  0
    1.6834   -2.1232    2.1124 C   0  0  0  0  0  0  0  0  0  0  0  0
    1.0296   -1.2897    2.3274 H   0  0  0  0  0  0  0  0  0  0  0  0
    1.7263   -2.7169    0.8396 C   0  0  0  0  0  0  0  0  0  0  0  0
   -1.4024    0.4516   -0.1660 C   0  0  0  0  0  0  0  0  0  0  0  0
   -2.1253    0.7163   -1.1210 O   0  0  0  0  0  0  0  0  0  0  0  0
   -0.9654    1.4705    0.6603 N   0  0  0  0  0  0  0  0  0  0  0  0
   -0.4001    1.2145    1.4650 H   0  0  0  0  0  0  0  0  0  0  0  0
   -1.3261    2.8693    0.4666 C   0  0  0  0  0  0  0  0  0  0  0  0
   -2.4106    2.9998    0.5423 H   0  0  0  0  0  0  0  0  0  0  0  0
   -0.8486    3.4915    1.2297 H   0  0  0  0  0  0  0  0  0  0  0  0
   -0.9966    3.2175   -0.5179 H   0  0  0  0  0  0  0  0  0  0  0  0
  1  2  1  0  0  0  0
  2  3  1  0  0  0  0
  2  4  1  0  0  0  0
  2  5  1  0  0  0  0
  5  6  2  0  0  0  0
  5  7  1  0  0  0  0
  7  8  1  0  0  0  0
  7  9  1  0  0  0  0
  9 10  1  0  0  0  0
  9 11  1  0  0  0  0
  9 29  1  0  0  0  0
 11 12  1  0  0  0  0
 11 13  1  0  0  0  0
 11 14  1  0  0  0  0
 14 15  2  0  0  0  0
 14 28  1  0  0  0  0
 15 16  1  0  0  0  0
 15 17  1  0  0  0  0
 17 18  1  0  0  0  0
 17 19  1  0  0  0  0
 19 20  1  0  0  0  0
 19 28  2  0  0  0  0
 20 21  1  0  0  0  0
 20 22  2  0  0  0  0
 22 23  1  0  0  0  0
 22 24  1  0  0  0  0
 24 25  1  0  0  0  0
 24 26  2  0  0  0  0
 26 27  1  0  0  0  0
 26 28  1  0  0  0  0
 29 30  2  0  0  0  0
 29 31  1  0  0  0  0
 31 32  1  0  0  0  0
 31 33  1  0  0  0  0
 33 34  1  0  0  0  0
 33 35  1  0  0  0  0
 33 36  1  0  0  0  0
M  END
$$$$

  -OEChem-03222214083D

 36 37  0     1  0  0  0  0  0999 V2000
   -3.9406   -4.3937    1.4199 H   0  0  0  0  0  0  0  0  0  0  0  0
   -3.7844   -3.6748    0.6107 C   0  0  0  0  0  0  0  0  0  0  0  0
   -4.6852   -3.0665    0.5001 H   0  0  0  0  0  0  0  0  0  0  0  0
   -3.6063   -4.2241   -0.3168 H   0  0  0  0  0  0  0  0  0  0  0  0
   -2.5948   -2.7868    0.9237 C   0  0  0  0  0  0  0  0  0  0  0  0
   -2.0441   -2.8709    2.0088 O   0  0  0  0  0  0  0  0  0  0  0  0
   -2.2004   -1.8291    0.0141 N   0  0  0  0  0  0  0  0  0  0  0  0
   -2.7642   -1.7174   -0.8255 H   0  0  0  0  0  0  0  0  0  0  0  0
   -1.0167   -0.9656    0.1516 C   0  0  1  0  0  0  0  0  0  0  0  0
   -0.6372   -0.9559    1.1702 H   0  0  0  0  0  0  0  0  0  0  0  0
    0.0684   -1.4222   -0.8440 C   0  0  0  0  0  0  0  0  0  0  0  0
   -0.4156   -1.7648   -1.7645 H   0  0  0  0  0  0  0  0  0  0  0  0
    0.6659   -0.5441   -1.1120 H   0  0  0  0  0  0  0  0  0  0  0  0
    1.0699   -2.4676   -0.3880 C   0  0  0  0  0  0  0  0  0  0  0  0
    1.8316   -3.1077   -1.3389 C   0  0  0  0  0  0  0  0  0  0  0  0
    1.7584   -2.9484   -2.4124 H   0  0  0  0  0  0  0  0  0  0  0  0
    2.7061   -3.9714   -0.6967 N   0  0  0  0  0  0  0  0  0  0  0  0
    3.3838   -4.5774   -1.1537 H   0  0  0  0  0  0  0  0  0  0  0  0
    2.5297   -3.8887    0.6696 C   0  0  0  0  0  0  0  0  0  0  0  0
    3.2014   -4.5713    1.6830 C   0  0  0  0  0  0  0  0  0  0  0  0
    3.9813   -5.2845    1.4410 H   0  0  0  0  0  0  0  0  0  0  0  0
    2.8526   -4.3253    3.0139 C   0  0  0  0  0  0  0  0  0  0  0  0
    3.3611   -4.8496    3.8173 H   0  0  0  0  0  0  0  0  0  0  0  0
    1.8391   -3.4054    3.3062 C   0  0  0  0  0  0  0  0  0  0  0  0
    1.5559   -3.2203    4.3377 H   0  0  0  0  0  0  0  0  0  0  0  0
    1.1744   -2.7273    2.2746 C   0  0  0  0  0  0  0  0  0  0  0  0
    0.3873   -2.0410    2.5534 H   0  0  0  0  0  0  0  0  0  0  0  0
    1.5170   -2.9624    0.9315 C   0  0  0  0  0  0  0  0  0  0  0  0
   -1.4059    0.4829   -0.2050 C   0  0  0  0  0  0  0  0  0  0  0  0
   -2.0896    0.7069   -1.1987 O   0  0  0  0  0  0  0  0  0  0  0  0
   -0.9919    1.5376    0.5875 N   0  0  0  0  0  0  0  0  0  0  0  0
   -0.4642    1.3154    1.4273 H   0  0  0  0  0  0  0  0  0  0  0  0
   -1.3510    2.9258    0.3261 C   0  0  0  0  0  0  0  0  0  0  0  0
   -2.4381    3.0534    0.3581 H   0  0  0  0  0  0  0  0  0  0  0  0
   -0.9039    3.5801    1.0806 H   0  0  0  0  0  0  0  0  0  0  0  0
   -0.9877    3.2368   -0.6590 H   0  0  0  0  0  0  0  0  0  0  0  0
  1  2  1  0  0  0  0
  2  3  1  0  0  0  0
  2  4  1  0  0  0  0
  2  5  1  0  0  0  0
  5  6  2  0  0  0  0
  5  7  1  0  0  0  0
  7  8  1  0  0  0  0
  7  9  1  0  0  0  0
  9 10  1  0  0  0  0
  9 11  1  0  0  0  0
  9 29  1  0  0  0  0
 11 12  1  0  0  0  0
 11 13  1  0  0  0  0
 11 14  1  0  0  0  0
 14 15  2  0  0  0  0
 14 28  1  0  0  0  0
 15 16  1  0  0  0  0
 15 17  1  0  0  0  0
 17 18  1  0  0  0  0
 17 19  1  0  0  0  0
 19 20  1  0  0  0  0
 19 28  2  0  0  0  0
 20 21  1  0  0  0  0
 20 22  2  0  0  0  0
 22 23  1  0  0  0  0
 22 24  1  0  0  0  0
 24 25  1  0  0  0  0
 24 26  2  0  0  0  0
 26 27  1  0  0  0  0
 26 28  1  0  0  0  0
 29 30  2  0  0  0  0
 29 31  1  0  0  0  0
 31 32  1  0  0  0  0
 31 33  1  0  0  0  0
 33 34  1  0  0  0  0
 33 35  1  0  0  0  0
 33 36  1  0  0  0  0
M  END
$$$$

  -OEChem-03222214083D

 36 37  0     1  0  0  0  0  0999 V2000
   -4.0926   -4.5314    1.2237 H   0  0  0  0  0  0  0  0  0  0  0  0
   -3.7794   -3.8884    0.3964 C   0  0  0  0  0  0  0  0  0  0  0  0
   -4.6655   -3.4323   -0.0518 H   0  0  0  0  0  0  0  0  0  0  0  0
   -3.2729   -4.5022   -0.3525 H   0  0  0  0  0  0  0  0  0  0  0  0
   -2.8394   -2.8102    0.9004 C   0  0  0  0  0  0  0  0  0  0  0  0
   -2.6339   -2.6941    2.0970 O   0  0  0  0  0  0  0  0  0  0  0  0
   -2.3554   -1.8631    0.0261 N   0  0  0  0  0  0  0  0  0  0  0  0
   -2.6890   -1.9367   -0.9312 H   0  0  0  0  0  0  0  0  0  0  0  0
   -1.1671   -1.0130    0.2292 C   0  0  1  0  0  0  0  0  0  0  0  0
   -0.8093   -1.0450    1.2611 H   0  0  0  0  0  0  0  0  0  0  0  0
   -0.0660   -1.4680   -0.7584 C   0  0  0  0  0  0  0  0  0  0  0  0
   -0.5137   -1.5427   -1.7557 H   0  0  0  0  0  0  0  0  0  0  0  0
    0.6799   -0.6670   -0.8066 H   0  0  0  0  0  0  0  0  0  0  0  0
    0.7133   -2.7449   -0.5081 C   0  0  0  0  0  0  0  0  0  0  0  0
    1.6778   -3.1160   -1.4182 C   0  0  0  0  0  0  0  0  0  0  0  0
    1.8798   -2.6069   -2.3583 H   0  0  0  0  0  0  0  0  0  0  0  0
    2.3138   -4.2579   -0.9525 N   0  0  0  0  0  0  0  0  0  0  0  0
    3.0597   -4.7585   -1.4311 H   0  0  0  0  0  0  0  0  0  0  0  0
    1.8472   -4.5716    0.3074 C   0  0  0  0  0  0  0  0  0  0  0  0
    2.2448   -5.5906    1.1725 C   0  0  0  0  0  0  0  0  0  0  0  0
    2.9907   -6.3137    0.8622 H   0  0  0  0  0  0  0  0  0  0  0  0
    1.6802   -5.6552    2.4504 C   0  0  0  0  0  0  0  0  0  0  0  0
    1.9749   -6.4414    3.1388 H   0  0  0  0  0  0  0  0  0  0  0  0
    0.7547   -4.6832    2.8489 C   0  0  0  0  0  0  0  0  0  0  0  0
    0.3346   -4.7079    3.8502 H   0  0  0  0  0  0  0  0  0  0  0  0
    0.3729   -3.6650    1.9644 C   0  0  0  0  0  0  0  0  0  0  0  0
   -0.2993   -2.8998    2.3206 H   0  0  0  0  0  0  0  0  0  0  0  0
    0.8820   -3.6275    0.6601 C   0  0  0  0  0  0  0  0  0  0  0  0
   -1.4924    0.4454   -0.1545 C   0  0  0  0  0  0  0  0  0  0  0  0
   -2.0652    0.6955   -1.2101 O   0  0  0  0  0  0  0  0  0  0  0  0
   -1.0971    1.4870    0.6648 N   0  0  0  0  0  0  0  0  0  0  0  0
   -0.6896    1.2454    1.5640 H   0  0  0  0  0  0  0  0  0  0  0  0
   -1.4022    2.8843    0.3834 C   0  0  0  0  0  0  0  0  0  0  0  0
   -2.4855    3.0418    0.3570 H   0  0  0  0  0  0  0  0  0  0  0  0
   -0.9773    3.5275    1.1600 H   0  0  0  0  0  0  0  0  0  0  0  0
   -0.9783    3.1830   -0.5811 H   0  0  0  0  0  0  0  0  0  0  0  0
  1  2  1  0  0  0  0
  2  3  1  0  0  0  0
  2  4  1  0  0  0  0
  2  5  1  0  0  0  0
  5  6  2  0  0  0  0
  5  7  1  0  0  0  0
  7  8  1  0  0  0  0
  7  9  1  0  0  0  0
  9 10  1  0  0  0  0
  9 11  1  0  0  0  0
  9 29  1  0  0  0  0
 11 12  1  0  0  0  0
 11 13  1  0  0  0  0
 11 14  1  0  0  0  0
 14 15  2  0  0  0  0
 14 28  1  0  0  0  0
 15 16  1  0  0  0  0
 15 17  1  0  0  0  0
 17 18  1  0  0  0  0
 17 19  1  0  0  0  0
 19 20  1  0  0  0  0
 19 28  2  0  0  0  0
 20 21  1  0  0  0  0
 20 22  2  0  0  0  0
 22 23  1  0  0  0  0
 22 24  1  0  0  0  0
 24 25  1  0  0  0  0
 24 26  2  0  0  0  0
 26 27  1  0  0  0  0
 26 28  1  0  0  0  0
 29 30  2  0  0  0  0
 29 31  1  0  0  0  0
 31 32  1  0  0  0  0
 31 33  1  0  0  0  0
 33 34  1  0  0  0  0
 33 35  1  0  0  0  0
 33 36  1  0  0  0  0
M  END
$$$$

  -OEChem-03222214083D

 36 37  0     1  0  0  0  0  0999 V2000
   -4.1941   -4.1592    1.9578 H   0  0  0  0  0  0  0  0  0  0  0  0
   -3.9377   -3.6284    1.0368 C   0  0  0  0  0  0  0  0  0  0  0  0
   -4.8423   -3.1705    0.6295 H   0  0  0  0  0  0  0  0  0  0  0  0
   -3.5430   -4.3477    0.3150 H   0  0  0  0  0  0  0  0  0  0  0  0
   -2.8980   -2.5619    1.3214 C   0  0  0  0  0  0  0  0  0  0  0  0
   -2.5754   -2.3118    2.4719 O   0  0  0  0  0  0  0  0  0  0  0  0
   -2.4543   -1.7454    0.3077 N   0  0  0  0  0  0  0  0  0  0  0  0
   -2.8934   -1.8993   -0.5961 H   0  0  0  0  0  0  0  0  0  0  0  0
   -1.1880   -0.9872    0.2753 C   0  0  1  0  0  0  0  0  0  0  0  0
   -0.6993   -0.9706    1.2544 H   0  0  0  0  0  0  0  0  0  0  0  0
   -0.2437   -1.5817   -0.8057 C   0  0  0  0  0  0  0  0  0  0  0  0
   -0.8353   -1.6957   -1.7208 H   0  0  0  0  0  0  0  0  0  0  0  0
    0.5152   -0.8195   -1.0162 H   0  0  0  0  0  0  0  0  0  0  0  0
    0.5245   -2.8829   -0.6310 C   0  0  0  0  0  0  0  0  0  0  0  0
    1.5451   -3.1313   -1.5239 C   0  0  0  0  0  0  0  0  0  0  0  0
    1.7888   -2.5084   -2.3820 H   0  0  0  0  0  0  0  0  0  0  0  0
    2.1624   -4.3257   -1.1845 N   0  0  0  0  0  0  0  0  0  0  0  0
    2.9319   -4.7606   -1.6893 H   0  0  0  0  0  0  0  0  0  0  0  0
    1.6366   -4.8004   -0.0026 C   0  0  0  0  0  0  0  0  0  0  0  0
    2.0037   -5.9230    0.7391 C   0  0  0  0  0  0  0  0  0  0  0  0
    2.7634   -6.6015    0.3680 H   0  0  0  0  0  0  0  0  0  0  0  0
    1.3955   -6.1459    1.9783 C   0  0  0  0  0  0  0  0  0  0  0  0
    1.6688   -7.0121    2.5738 H   0  0  0  0  0  0  0  0  0  0  0  0
    0.4619   -5.2234    2.4646 C   0  0  0  0  0  0  0  0  0  0  0  0
    0.0187   -5.3627    3.4463 H   0  0  0  0  0  0  0  0  0  0  0  0
    0.1118   -4.1029    1.6984 C   0  0  0  0  0  0  0  0  0  0  0  0
   -0.5470   -3.3714    2.1274 H   0  0  0  0  0  0  0  0  0  0  0  0
    0.6535   -3.9058    0.4248 C   0  0  0  0  0  0  0  0  0  0  0  0
   -1.4632    0.4517   -0.2121 C   0  0  0  0  0  0  0  0  0  0  0  0
   -2.1537    0.6517   -1.2062 O   0  0  0  0  0  0  0  0  0  0  0  0
   -0.8910    1.5268    0.4430 N   0  0  0  0  0  0  0  0  0  0  0  0
   -0.3994    1.3340    1.3115 H   0  0  0  0  0  0  0  0  0  0  0  0
   -1.1502    2.9137    0.0770 C   0  0  0  0  0  0  0  0  0  0  0  0
   -2.2158    3.1439    0.1799 H   0  0  0  0  0  0  0  0  0  0  0  0
   -0.5854    3.5878    0.7280 H   0  0  0  0  0  0  0  0  0  0  0  0
   -0.8473    3.1008   -0.9585 H   0  0  0  0  0  0  0  0  0  0  0  0
  1  2  1  0  0  0  0
  2  3  1  0  0  0  0
  2  4  1  0  0  0  0
  2  5  1  0  0  0  0
  5  6  2  0  0  0  0
  5  7  1  0  0  0  0
  7  8  1  0  0  0  0
  7  9  1  0  0  0  0
  9 10  1  0  0  0  0
  9 11  1  0  0  0  0
  9 29  1  0  0  0  0
 11 12  1  0  0  0  0
 11 13  1  0  0  0  0
 11 14  1  0  0  0  0
 14 15  2  0  0  0  0
 14 28  1  0  0  0  0
 15 16  1  0  0  0  0
 15 17  1  0  0  0  0
 17 18  1  0  0  0  0
 17 19  1  0  0  0  0
 19 20  1  0  0  0  0
 19 28  2  0  0  0  0
 20 21  1  0  0  0  0
 20 22  2  0  0  0  0
 22 23  1  0  0  0  0
 22 24  1  0  0  0  0
 24 25  1  0  0  0  0
 24 26  2  0  0  0  0
 26 27  1  0  0  0  0
 26 28  1  0  0  0  0
 29 30  2  0  0  0  0
 29 31  1  0  0  0  0
 31 32  1  0  0  0  0
 31 33  1  0  0  0  0
 33 34  1  0  0  0  0
 33 35  1  0  0  0  0
 33 36  1  0  0  0  0
M  END
$$$$

  -OEChem-03222214083D

 36 37  0     1  0  0  0  0  0999 V2000
   -4.4995   -3.8981    1.8050 H   0  0  0  0  0  0  0  0  0  0  0  0
   -4.2617   -3.2239    0.9776 C   0  0  0  0  0  0  0  0  0  0  0  0
   -5.0622   -2.4866    0.8808 H   0  0  0  0  0  0  0  0  0  0  0  0
   -4.1991   -3.8073    0.0559 H   0  0  0  0  0  0  0  0  0  0  0  0
   -2.9422   -2.5227    1.2391 C   0  0  0  0  0  0  0  0  0  0  0  0
   -2.4008   -2.6308    2.3267 O   0  0  0  0  0  0  0  0  0  0  0  0
   -2.3940   -1.7175    0.2658 N   0  0  0  0  0  0  0  0  0  0  0  0
   -2.9388   -1.5715   -0.5821 H   0  0  0  0  0  0  0  0  0  0  0  0
   -1.1154   -0.9959    0.3662 C   0  0  1  0  0  0  0  0  0  0  0  0
   -0.7786   -0.9543    1.4068 H   0  0  0  0  0  0  0  0  0  0  0  0
    0.0568   -1.4992   -0.5262 C   0  0  0  0  0  0  0  0  0  0  0  0
   -0.3557   -1.6344   -1.5318 H   0  0  0  0  0  0  0  0  0  0  0  0
    0.7856   -0.6834   -0.5917 H   0  0  0  0  0  0  0  0  0  0  0  0
    0.8529   -2.7650   -0.2276 C   0  0  0  0  0  0  0  0  0  0  0  0
    2.1721   -2.7759   -0.6325 C   0  0  0  0  0  0  0  0  0  0  0  0
    2.6964   -1.9336   -1.0789 H   0  0  0  0  0  0  0  0  0  0  0  0
    2.7251   -4.0157   -0.3552 N   0  0  0  0  0  0  0  0  0  0  0  0
    3.6872   -4.2920   -0.5379 H   0  0  0  0  0  0  0  0  0  0  0  0
    1.7528   -4.8553    0.1409 C   0  0  0  0  0  0  0  0  0  0  0  0
    1.8569   -6.2001    0.4953 C   0  0  0  0  0  0  0  0  0  0  0  0
    2.8123   -6.7098    0.4424 H   0  0  0  0  0  0  0  0  0  0  0  0
    0.7091   -6.8835    0.9060 C   0  0  0  0  0  0  0  0  0  0  0  0
    0.7671   -7.9303    1.1890 H   0  0  0  0  0  0  0  0  0  0  0  0
   -0.5202   -6.2156    0.9275 C   0  0  0  0  0  0  0  0  0  0  0  0
   -1.4201   -6.7467    1.2217 H   0  0  0  0  0  0  0  0  0  0  0  0
   -0.5973   -4.8634    0.5632 C   0  0  0  0  0  0  0  0  0  0  0  0
   -1.5615   -4.3939    0.5449 H   0  0  0  0  0  0  0  0  0  0  0  0
    0.5494   -4.1478    0.2012 C   0  0  0  0  0  0  0  0  0  0  0  0
   -1.3681    0.4371   -0.1508 C   0  0  0  0  0  0  0  0  0  0  0  0
   -2.0220    0.6208   -1.1729 O   0  0  0  0  0  0  0  0  0  0  0  0
   -0.8747    1.5276    0.5421 N   0  0  0  0  0  0  0  0  0  0  0  0
   -0.4185    1.3487    1.4328 H   0  0  0  0  0  0  0  0  0  0  0  0
   -1.1289    2.9074    0.1456 C   0  0  0  0  0  0  0  0  0  0  0  0
   -2.2003    3.1289    0.1931 H   0  0  0  0  0  0  0  0  0  0  0  0
   -0.6025    3.5960    0.8136 H   0  0  0  0  0  0  0  0  0  0  0  0
   -0.7772    3.0839   -0.8765 H   0  0  0  0  0  0  0  0  0  0  0  0
  1  2  1  0  0  0  0
  2  3  1  0  0  0  0
  2  4  1  0  0  0  0
  2  5  1  0  0  0  0
  5  6  2  0  0  0  0
  5  7  1  0  0  0  0
  7  8  1  0  0  0  0
  7  9  1  0  0  0  0
  9 10  1  0  0  0  0
  9 11  1  0  0  0  0
  9 29  1  0  0  0  0
 11 12  1  0  0  0  0
 11 13  1  0  0  0  0
 11 14  1  0  0  0  0
 14 15  2  0  0  0  0
 14 28  1  0  0  0  0
 15 16  1  0  0  0  0
 15 17  1  0  0  0  0
 17 18  1  0  0  0  0
 17 19  1  0  0  0  0
 19 20  1  0  0  0  0
 19 28  2  0  0  0  0
 20 21  1  0  0  0  0
 20 22  2  0  0  0  0
 22 23  1  0  0  0  0
 22 24  1  0  0  0  0
 24 25  1  0  0  0  0
 24 26  2  0  0  0  0
 26 27  1  0  0  0  0
 26 28  1  0  0  0  0
 29 30  2  0  0  0  0
 29 31  1  0  0  0  0
 31 32  1  0  0  0  0
 31 33  1  0  0  0  0
 33 34  1  0  0  0  0
 33 35  1  0  0  0  0
 33 36  1  0  0  0  0
M  END
$$$$

  -OEChem-03222214083D

 36 37  0     1  0  0  0  0  0999 V2000
   -4.0984   -4.1058    2.0035 H   0  0  0  0  0  0  0  0  0  0  0  0
   -4.0205   -3.3558    1.2113 C   0  0  0  0  0  0  0  0  0  0  0  0
   -4.8387   -2.6399    1.3198 H   0  0  0  0  0  0  0  0  0  0  0  0
   -4.1099   -3.8573    0.2449 H   0  0  0  0  0  0  0  0  0  0  0  0
   -2.6887   -2.6349    1.3075 C   0  0  0  0  0  0  0  0  0  0  0  0
   -2.0272   -2.7258    2.3282 O   0  0  0  0  0  0  0  0  0  0  0  0
   -2.2806   -1.8093    0.2788 N   0  0  0  0  0  0  0  0  0  0  0  0
   -2.9259   -1.6567   -0.4938 H   0  0  0  0  0  0  0  0  0  0  0  0
   -1.0318   -1.0320    0.2786 C   0  0  1  0  0  0  0  0  0  0  0  0
   -0.6253   -0.9660    1.2927 H   0  0  0  0  0  0  0  0  0  0  0  0
    0.0900   -1.5308   -0.6702 C   0  0  0  0  0  0  0  0  0  0  0  0
   -0.3587   -1.7318   -1.6485 H   0  0  0  0  0  0  0  0  0  0  0  0
    0.8149   -0.7218   -0.8110 H   0  0  0  0  0  0  0  0  0  0  0  0
    0.8538   -2.7702   -0.2491 C   0  0  0  0  0  0  0  0  0  0  0  0
    2.2280   -2.8260   -0.3283 C   0  0  0  0  0  0  0  0  0  0  0  0
    2.8771   -1.9843   -0.5588 H   0  0  0  0  0  0  0  0  0  0  0  0
    2.6403   -4.1179   -0.0266 N   0  0  0  0  0  0  0  0  0  0  0  0
    3.6055   -4.4366    0.0184 H   0  0  0  0  0  0  0  0  0  0  0  0
    1.5405   -4.9425    0.0988 C   0  0  0  0  0  0  0  0  0  0  0  0
    1.4667   -6.3204    0.3018 C   0  0  0  0  0  0  0  0  0  0  0  0
    2.3691   -6.8990    0.4636 H   0  0  0  0  0  0  0  0  0  0  0  0
    0.2151   -6.9464    0.2698 C   0  0  0  0  0  0  0  0  0  0  0  0
    0.1372   -8.0182    0.4255 H   0  0  0  0  0  0  0  0  0  0  0  0
   -0.9336   -6.1907    0.0012 C   0  0  0  0  0  0  0  0  0  0  0  0
   -1.9005   -6.6803   -0.0627 H   0  0  0  0  0  0  0  0  0  0  0  0
   -0.8359   -4.8063   -0.1992 C   0  0  0  0  0  0  0  0  0  0  0  0
   -1.7184   -4.2452   -0.4662 H   0  0  0  0  0  0  0  0  0  0  0  0
    0.4025   -4.1623   -0.0944 C   0  0  0  0  0  0  0  0  0  0  0  0
   -1.3617    0.3930   -0.2099 C   0  0  0  0  0  0  0  0  0  0  0  0
   -2.1037    0.5594   -1.1726 O   0  0  0  0  0  0  0  0  0  0  0  0
   -0.8479    1.4945    0.4498 N   0  0  0  0  0  0  0  0  0  0  0  0
   -0.3053    1.3242    1.2923 H   0  0  0  0  0  0  0  0  0  0  0  0
   -1.1711    2.8683    0.0851 C   0  0  0  0  0  0  0  0  0  0  0  0
   -2.2433    3.0544    0.2065 H   0  0  0  0  0  0  0  0  0  0  0  0
   -0.6232    3.5678    0.7238 H   0  0  0  0  0  0  0  0  0  0  0  0
   -0.8946    3.0640   -0.9563 H   0  0  0  0  0  0  0  0  0  0  0  0
  1  2  1  0  0  0  0
  2  3  1  0  0  0  0
  2  4  1  0  0  0  0
  2  5  1  0  0  0  0
  5  6  2  0  0  0  0
  5  7  1  0  0  0  0
  7  8  1  0  0  0  0
  7  9  1  0  0  0  0
  9 10  1  0  0  0  0
  9 11  1  0  0  0  0
  9 29  1  0  0  0  0
 11 12  1  0  0  0  0
 11 13  1  0  0  0  0
 11 14  1  0  0  0  0
 14 15  2  0  0  0  0
 14 28  1  0  0  0  0
 15 16  1  0  0  0  0
 15 17  1  0  0  0  0
 17 18  1  0  0  0  0
 17 19  1  0  0  0  0
 19 20  1  0  0  0  0
 19 28  2  0  0  0  0
 20 21  1  0  0  0  0
 20 22  2  0  0  0  0
 22 23  1  0  0  0  0
 22 24  1  0  0  0  0
 24 25  1  0  0  0  0
 24 26  2  0  0  0  0
 26 27  1  0  0  0  0
 26 28  1  0  0  0  0
 29 30  2  0  0  0  0
 29 31  1  0  0  0  0
 31 32  1  0  0  0  0
 31 33  1  0  0  0  0
 33 34  1  0  0  0  0
 33 35  1  0  0  0  0
 33 36  1  0  0  0  0
M  END
$$$$

  -OEChem-03222214083D

 36 37  0     1  0  0  0  0  0999 V2000
   -3.8706   -4.3433    1.8609 H   0  0  0  0  0  0  0  0  0  0  0  0
   -3.8605   -3.5393    1.1197 C   0  0  0  0  0  0  0  0  0  0  0  0
   -4.7091   -2.8761    1.3038 H   0  0  0  0  0  0  0  0  0  0  0  0
   -3.9604   -3.9795    0.1251 H   0  0  0  0  0  0  0  0  0  0  0  0
   -2.5636   -2.7580    1.2199 C   0  0  0  0  0  0  0  0  0  0  0  0
   -1.8727   -2.8621    2.2203 O   0  0  0  0  0  0  0  0  0  0  0  0
   -2.2245   -1.8632    0.2248 N   0  0  0  0  0  0  0  0  0  0  0  0
   -2.8938   -1.7103   -0.5265 H   0  0  0  0  0  0  0  0  0  0  0  0
   -0.9951   -1.0557    0.2123 C   0  0  1  0  0  0  0  0  0  0  0  0
   -0.5381   -1.0417    1.2070 H   0  0  0  0  0  0  0  0  0  0  0  0
    0.0609   -1.5348   -0.8114 C   0  0  0  0  0  0  0  0  0  0  0  0
   -0.4294   -1.7106   -1.7745 H   0  0  0  0  0  0  0  0  0  0  0  0
    0.7953   -0.7371   -0.9643 H   0  0  0  0  0  0  0  0  0  0  0  0
    0.8027   -2.7884   -0.4091 C   0  0  0  0  0  0  0  0  0  0  0  0
    2.1662   -2.8441   -0.2334 C   0  0  0  0  0  0  0  0  0  0  0  0
    2.8395   -1.9907   -0.2618 H   0  0  0  0  0  0  0  0  0  0  0  0
    2.5208   -4.1678    0.0064 N   0  0  0  0  0  0  0  0  0  0  0  0
    3.4618   -4.5020    0.2018 H   0  0  0  0  0  0  0  0  0  0  0  0
    1.4133   -4.9864   -0.1210 C   0  0  0  0  0  0  0  0  0  0  0  0
    1.2862   -6.3732   -0.0397 C   0  0  0  0  0  0  0  0  0  0  0  0
    2.1446   -6.9872    0.2086 H   0  0  0  0  0  0  0  0  0  0  0  0
    0.0412   -6.9608   -0.2996 C   0  0  0  0  0  0  0  0  0  0  0  0
   -0.0725   -8.0393   -0.2418 H   0  0  0  0  0  0  0  0  0  0  0  0
   -1.0505   -6.1567   -0.6576 C   0  0  0  0  0  0  0  0  0  0  0  0
   -2.0082   -6.6145   -0.8848 H   0  0  0  0  0  0  0  0  0  0  0  0
   -0.9056   -4.7639   -0.7320 C   0  0  0  0  0  0  0  0  0  0  0  0
   -1.7388   -4.1469   -1.0424 H   0  0  0  0  0  0  0  0  0  0  0  0
    0.3251   -4.1736   -0.4237 C   0  0  0  0  0  0  0  0  0  0  0  0
   -1.3523    0.3926   -0.1735 C   0  0  0  0  0  0  0  0  0  0  0  0
   -2.1316    0.6108   -1.0953 O   0  0  0  0  0  0  0  0  0  0  0  0
   -0.8159    1.4548    0.5312 N   0  0  0  0  0  0  0  0  0  0  0  0
   -0.2461    1.2356    1.3438 H   0  0  0  0  0  0  0  0  0  0  0  0
   -1.1686    2.8453    0.2733 C   0  0  0  0  0  0  0  0  0  0  0  0
   -2.2366    3.0091    0.4513 H   0  0  0  0  0  0  0  0  0  0  0  0
   -0.6016    3.5071    0.9349 H   0  0  0  0  0  0  0  0  0  0  0  0
   -0.9381    3.1140   -0.7629 H   0  0  0  0  0  0  0  0  0  0  0  0
  1  2  1  0  0  0  0
  2  3  1  0  0  0  0
  2  4  1  0  0  0  0
  2  5  1  0  0  0  0
  5  6  2  0  0  0  0
  5  7  1  0  0  0  0
  7  8  1  0  0  0  0
  7  9  1  0  0  0  0
  9 10  1  0  0  0  0
  9 11  1  0  0  0  0
  9 29  1  0  0  0  0
 11 12  1  0  0  0  0
 11 13  1  0  0  0  0
 11 14  1  0  0  0  0
 14 15  2  0  0  0  0
 14 28  1  0  0  0  0
 15 16  1  0  0  0  0
 15 17  1  0  0  0  0
 17 18  1  0  0  0  0
 17 19  1  0  0  0  0
 19 20  1  0  0  0  0
 19 28  2  0  0  0  0
 20 21  1  0  0  0  0
 20 22  2  0  0  0  0
 22 23  1  0  0  0  0
 22 24  1  0  0  0  0
 24 25  1  0  0  0  0
 24 26  2  0  0  0  0
 26 27  1  0  0  0  0
 26 28  1  0  0  0  0
 29 30  2  0  0  0  0
 29 31  1  0  0  0  0
 31 32  1  0  0  0  0
 31 33  1  0  0  0  0
 33 34  1  0  0  0  0
 33 35  1  0  0  0  0
 33 36  1  0  0  0  0
M  END
$$$$

  -OEChem-03222214083D

 36 37  0     1  0  0  0  0  0999 V2000
   -3.7067   -4.5143    1.6915 H   0  0  0  0  0  0  0  0  0  0  0  0
   -3.7016   -3.7202    0.9397 C   0  0  0  0  0  0  0  0  0  0  0  0
   -4.5914   -3.1003    1.0722 H   0  0  0  0  0  0  0  0  0  0  0  0
   -3.7292   -4.1784   -0.0514 H   0  0  0  0  0  0  0  0  0  0  0  0
   -2.4530   -2.8709    1.0891 C   0  0  0  0  0  0  0  0  0  0  0  0
   -1.7580   -2.9863    2.0858 O   0  0  0  0  0  0  0  0  0  0  0  0
   -2.1585   -1.9145    0.1387 N   0  0  0  0  0  0  0  0  0  0  0  0
   -2.8270   -1.7698   -0.6143 H   0  0  0  0  0  0  0  0  0  0  0  0
   -0.9530   -1.0714    0.1500 C   0  0  1  0  0  0  0  0  0  0  0  0
   -0.4698   -1.1003    1.1319 H   0  0  0  0  0  0  0  0  0  0  0  0
    0.0627   -1.5129   -0.9241 C   0  0  0  0  0  0  0  0  0  0  0  0
   -0.4460   -1.6544   -1.8831 H   0  0  0  0  0  0  0  0  0  0  0  0
    0.8016   -0.7171   -1.0639 H   0  0  0  0  0  0  0  0  0  0  0  0
    0.7948   -2.7768   -0.5489 C   0  0  0  0  0  0  0  0  0  0  0  0
    2.0965   -2.8449   -0.1122 C   0  0  0  0  0  0  0  0  0  0  0  0
    2.7469   -1.9932    0.0721 H   0  0  0  0  0  0  0  0  0  0  0  0
    2.4182   -4.1887    0.0613 N   0  0  0  0  0  0  0  0  0  0  0  0
    3.3068   -4.5431    0.4074 H   0  0  0  0  0  0  0  0  0  0  0  0
    1.3527   -4.9902   -0.3124 C   0  0  0  0  0  0  0  0  0  0  0  0
    1.2056   -6.3769   -0.3439 C   0  0  0  0  0  0  0  0  0  0  0  0
    2.0127   -7.0194   -0.0104 H   0  0  0  0  0  0  0  0  0  0  0  0
    0.0058   -6.9259   -0.8174 C   0  0  0  0  0  0  0  0  0  0  0  0
   -0.1222   -8.0039   -0.8472 H   0  0  0  0  0  0  0  0  0  0  0  0
   -1.0239   -6.0840   -1.2640 C   0  0  0  0  0  0  0  0  0  0  0  0
   -1.9463   -6.5125   -1.6437 H   0  0  0  0  0  0  0  0  0  0  0  0
   -0.8623   -4.6918   -1.2256 C   0  0  0  0  0  0  0  0  0  0  0  0
   -1.6482   -4.0372   -1.5838 H   0  0  0  0  0  0  0  0  0  0  0  0
    0.3259   -4.1489   -0.7255 C   0  0  0  0  0  0  0  0  0  0  0  0
   -1.3418    0.3882   -0.1504 C   0  0  0  0  0  0  0  0  0  0  0  0
   -2.1272    0.6396   -1.0582 O   0  0  0  0  0  0  0  0  0  0  0  0
   -0.8168    1.4234    0.6013 N   0  0  0  0  0  0  0  0  0  0  0  0
   -0.2411    1.1752    1.4013 H   0  0  0  0  0  0  0  0  0  0  0  0
   -1.1900    2.8192    0.4076 C   0  0  0  0  0  0  0  0  0  0  0  0
   -2.2614    2.9582    0.5857 H   0  0  0  0  0  0  0  0  0  0  0  0
   -0.6376    3.4585    1.1028 H   0  0  0  0  0  0  0  0  0  0  0  0
   -0.9578    3.1397   -0.6135 H   0  0  0  0  0  0  0  0  0  0  0  0
  1  2  1  0  0  0  0
  2  3  1  0  0  0  0
  2  4  1  0  0  0  0
  2  5  1  0  0  0  0
  5  6  2  0  0  0  0
  5  7  1  0  0  0  0
  7  8  1  0  0  0  0
  7  9  1  0  0  0  0
  9 10  1  0  0  0  0
  9 11  1  0  0  0  0
  9 29  1  0  0  0  0
 11 12  1  0  0  0  0
 11 13  1  0  0  0  0
 11 14  1  0  0  0  0
 14 15  2  0  0  0  0
 14 28  1  0  0  0  0
 15 16  1  0  0  0  0
 15 17  1  0  0  0  0
 17 18  1  0  0  0  0
 17 19  1  0  0  0  0
 19 20  1  0  0  0  0
 19 28  2  0  0  0  0
 20 21  1  0  0  0  0
 20 22  2  0  0  0  0
 22 23  1  0  0  0  0
 22 24  1  0  0  0  0
 24 25  1  0  0  0  0
 24 26  2  0  0  0  0
 26 27  1  0  0  0  0
 26 28  1  0  0  0  0
 29 30  2  0  0  0  0
 29 31  1  0  0  0  0
 31 32  1  0  0  0  0
 31 33  1  0  0  0  0
 33 34  1  0  0  0  0
 33 35  1  0  0  0  0
 33 36  1  0  0  0  0
M  END
$$$$

  -OEChem-03222214083D

 36 37  0     1  0  0  0  0  0999 V2000
   -3.5442   -4.6557    1.5087 H   0  0  0  0  0  0  0  0  0  0  0  0
   -3.5392   -3.8722    0.7458 C   0  0  0  0  0  0  0  0  0  0  0  0
   -4.4738   -3.3099    0.8094 H   0  0  0  0  0  0  0  0  0  0  0  0
   -3.4692   -4.3427   -0.2376 H   0  0  0  0  0  0  0  0  0  0  0  0
   -2.3590   -2.9438    0.9606 C   0  0  0  0  0  0  0  0  0  0  0  0
   -1.6758   -3.0533    1.9668 O   0  0  0  0  0  0  0  0  0  0  0  0
   -2.1021   -1.9408    0.0483 N   0  0  0  0  0  0  0  0  0  0  0  0
   -2.7508   -1.8238   -0.7259 H   0  0  0  0  0  0  0  0  0  0  0  0
   -0.9188   -1.0678    0.0882 C   0  0  1  0  0  0  0  0  0  0  0  0
   -0.4225   -1.1281    1.0622 H   0  0  0  0  0  0  0  0  0  0  0  0
    0.0745   -1.4778   -1.0144 C   0  0  0  0  0  0  0  0  0  0  0  0
   -0.4422   -1.5979   -1.9718 H   0  0  0  0  0  0  0  0  0  0  0  0
    0.8151   -0.6816   -1.1428 H   0  0  0  0  0  0  0  0  0  0  0  0
    0.8018   -2.7459   -0.6519 C   0  0  0  0  0  0  0  0  0  0  0  0
    1.9869   -2.8375    0.0371 C   0  0  0  0  0  0  0  0  0  0  0  0
    2.5581   -1.9997    0.4291 H   0  0  0  0  0  0  0  0  0  0  0  0
    2.3044   -4.1888    0.1538 N   0  0  0  0  0  0  0  0  0  0  0  0
    3.1090   -4.5645    0.6506 H   0  0  0  0  0  0  0  0  0  0  0  0
    1.3398   -4.9662   -0.4662 C   0  0  0  0  0  0  0  0  0  0  0  0
    1.2152   -6.3474   -0.6143 C   0  0  0  0  0  0  0  0  0  0  0  0
    1.9609   -7.0106   -0.1906 H   0  0  0  0  0  0  0  0  0  0  0  0
    0.1169   -6.8631   -1.3166 C   0  0  0  0  0  0  0  0  0  0  0  0
    0.0087   -7.9366   -1.4390 H   0  0  0  0  0  0  0  0  0  0  0  0
   -0.8390   -5.9935   -1.8642 C   0  0  0  0  0  0  0  0  0  0  0  0
   -1.6847   -6.3959   -2.4132 H   0  0  0  0  0  0  0  0  0  0  0  0
   -0.7036   -4.6068   -1.7063 C   0  0  0  0  0  0  0  0  0  0  0  0
   -1.4356   -3.9283   -2.1303 H   0  0  0  0  0  0  0  0  0  0  0  0
    0.3893   -4.1016   -0.9951 C   0  0  0  0  0  0  0  0  0  0  0  0
   -1.3295    0.3978   -0.1450 C   0  0  0  0  0  0  0  0  0  0  0  0
   -2.1128    0.6798   -1.0453 O   0  0  0  0  0  0  0  0  0  0  0  0
   -0.8144    1.4053    0.6501 N   0  0  0  0  0  0  0  0  0  0  0  0
   -0.2370    1.1291    1.4395 H   0  0  0  0  0  0  0  0  0  0  0  0
   -1.2017    2.8043    0.5165 C   0  0  0  0  0  0  0  0  0  0  0  0
   -2.2813    2.9189    0.6609 H   0  0  0  0  0  0  0  0  0  0  0  0
   -0.6864    3.4121    1.2663 H   0  0  0  0  0  0  0  0  0  0  0  0
   -0.9356    3.1827   -0.4762 H   0  0  0  0  0  0  0  0  0  0  0  0
  1  2  1  0  0  0  0
  2  3  1  0  0  0  0
  2  4  1  0  0  0  0
  2  5  1  0  0  0  0
  5  6  2  0  0  0  0
  5  7  1  0  0  0  0
  7  8  1  0  0  0  0
  7  9  1  0  0  0  0
  9 10  1  0  0  0  0
  9 11  1  0  0  0  0
  9 29  1  0  0  0  0
 11 12  1  0  0  0  0
 11 13  1  0  0  0  0
 11 14  1  0  0  0  0
 14 15  2  0  0  0  0
 14 28  1  0  0  0  0
 15 16  1  0  0  0  0
 15 17  1  0  0  0  0
 17 18  1  0  0  0  0
 17 19  1  0  0  0  0
 19 20  1  0  0  0  0
 19 28  2  0  0  0  0
 20 21  1  0  0  0  0
 20 22  2  0  0  0  0
 22 23  1  0  0  0  0
 22 24  1  0  0  0  0
 24 25  1  0  0  0  0
 24 26  2  0  0  0  0
 26 27  1  0  0  0  0
 26 28  1  0  0  0  0
 29 30  2  0  0  0  0
 29 31  1  0  0  0  0
 31 32  1  0  0  0  0
 31 33  1  0  0  0  0
 33 34  1  0  0  0  0
 33 35  1  0  0  0  0
 33 36  1  0  0  0  0
M  END
$$$$

  -OEChem-03222214083D

 36 37  0     1  0  0  0  0  0999 V2000
   -3.5345   -4.6563    1.4375 H   0  0  0  0  0  0  0  0  0  0  0  0
   -3.4514   -3.9360    0.6191 C   0  0  0  0  0  0  0  0  0  0  0  0
   -4.3983   -3.3994    0.5243 H   0  0  0  0  0  0  0  0  0  0  0  0
   -3.2512   -4.4787   -0.3081 H   0  0  0  0  0  0  0  0  0  0  0  0
   -2.3249   -2.9593    0.8966 C   0  0  0  0  0  0  0  0  0  0  0  0
   -1.6756   -3.0537    1.9270 O   0  0  0  0  0  0  0  0  0  0  0  0
   -2.0701   -1.9399    0.0029 N   0  0  0  0  0  0  0  0  0  0  0  0
   -2.6747   -1.8612   -0.8107 H   0  0  0  0  0  0  0  0  0  0  0  0
   -0.8978   -1.0548    0.0722 C   0  0  1  0  0  0  0  0  0  0  0  0
   -0.4086   -1.1262    1.0488 H   0  0  0  0  0  0  0  0  0  0  0  0
    0.0936   -1.4537   -1.0340 C   0  0  0  0  0  0  0  0  0  0  0  0
   -0.4228   -1.5578   -1.9933 H   0  0  0  0  0  0  0  0  0  0  0  0
    0.8385   -0.6603   -1.1532 H   0  0  0  0  0  0  0  0  0  0  0  0
    0.8170   -2.7267   -0.6805 C   0  0  0  0  0  0  0  0  0  0  0  0
    1.8306   -2.8689    0.2365 C   0  0  0  0  0  0  0  0  0  0  0  0
    2.2625   -2.0692    0.8331 H   0  0  0  0  0  0  0  0  0  0  0  0
    2.1802   -4.2169    0.2729 N   0  0  0  0  0  0  0  0  0  0  0  0
    2.8747   -4.6279    0.8926 H   0  0  0  0  0  0  0  0  0  0  0  0
    1.3928   -4.9437   -0.6053 C   0  0  0  0  0  0  0  0  0  0  0  0
    1.3534   -6.3046   -0.9082 C   0  0  0  0  0  0  0  0  0  0  0  0
    2.0296   -6.9936   -0.4146 H   0  0  0  0  0  0  0  0  0  0  0  0
    0.4299   -6.7673   -1.8564 C   0  0  0  0  0  0  0  0  0  0  0  0
    0.3897   -7.8242   -2.1026 H   0  0  0  0  0  0  0  0  0  0  0  0
   -0.4412   -5.8664   -2.4879 C   0  0  0  0  0  0  0  0  0  0  0  0
   -1.1531   -6.2275   -3.2238 H   0  0  0  0  0  0  0  0  0  0  0  0
   -0.3938   -4.5008   -2.1735 C   0  0  0  0  0  0  0  0  0  0  0  0
   -1.0645   -3.8010   -2.6599 H   0  0  0  0  0  0  0  0  0  0  0  0
    0.5304   -4.0478   -1.2259 C   0  0  0  0  0  0  0  0  0  0  0  0
   -1.3152    0.4116   -0.1426 C   0  0  0  0  0  0  0  0  0  0  0  0
   -2.0799    0.7049   -1.0551 O   0  0  0  0  0  0  0  0  0  0  0  0
   -0.8179    1.4092    0.6759 N   0  0  0  0  0  0  0  0  0  0  0  0
   -0.2578    1.1230    1.4737 H   0  0  0  0  0  0  0  0  0  0  0  0
   -1.2093    2.8084    0.5572 C   0  0  0  0  0  0  0  0  0  0  0  0
   -2.2831    2.9228    0.7396 H   0  0  0  0  0  0  0  0  0  0  0  0
   -0.6672    3.4151    1.2888 H   0  0  0  0  0  0  0  0  0  0  0  0
   -0.9785    3.1885   -0.4438 H   0  0  0  0  0  0  0  0  0  0  0  0
  1  2  1  0  0  0  0
  2  3  1  0  0  0  0
  2  4  1  0  0  0  0
  2  5  1  0  0  0  0
  5  6  2  0  0  0  0
  5  7  1  0  0  0  0
  7  8  1  0  0  0  0
  7  9  1  0  0  0  0
  9 10  1  0  0  0  0
  9 11  1  0  0  0  0
  9 29  1  0  0  0  0
 11 12  1  0  0  0  0
 11 13  1  0  0  0  0
 11 14  1  0  0  0  0
 14 15  2  0  0  0  0
 14 28  1  0  0  0  0
 15 16  1  0  0  0  0
 15 17  1  0  0  0  0
 17 18  1  0  0  0  0
 17 19  1  0  0  0  0
 19 20  1  0  0  0  0
 19 28  2  0  0  0  0
 20 21  1  0  0  0  0
 20 22  2  0  0  0  0
 22 23  1  0  0  0  0
 22 24  1  0  0  0  0
 24 25  1  0  0  0  0
 24 26  2  0  0  0  0
 26 27  1  0  0  0  0
 26 28  1  0  0  0  0
 29 30  2  0  0  0  0
 29 31  1  0  0  0  0
 31 32  1  0  0  0  0
 31 33  1  0  0  0  0
 33 34  1  0  0  0  0
 33 35  1  0  0  0  0
 33 36  1  0  0  0  0
M  END
$$$$

  -OEChem-03222214083D

 36 37  0     1  0  0  0  0  0999 V2000
   -3.6066   -4.6129    1.4541 H   0  0  0  0  0  0  0  0  0  0  0  0
   -3.5198   -3.8861    0.6416 C   0  0  0  0  0  0  0  0  0  0  0  0
   -4.4552   -3.3264    0.5672 H   0  0  0  0  0  0  0  0  0  0  0  0
   -3.3474   -4.4240   -0.2940 H   0  0  0  0  0  0  0  0  0  0  0  0
   -2.3670   -2.9377    0.9097 C   0  0  0  0  0  0  0  0  0  0  0  0
   -1.7129   -3.0465    1.9360 O   0  0  0  0  0  0  0  0  0  0  0  0
   -2.0890   -1.9285    0.0117 N   0  0  0  0  0  0  0  0  0  0  0  0
   -2.6886   -1.8417   -0.8050 H   0  0  0  0  0  0  0  0  0  0  0  0
   -0.9085   -1.0554    0.0909 C   0  0  1  0  0  0  0  0  0  0  0  0
   -0.4337   -1.1203    1.0744 H   0  0  0  0  0  0  0  0  0  0  0  0
    0.0894   -1.4703   -1.0034 C   0  0  0  0  0  0  0  0  0  0  0  0
   -0.4296   -1.5706   -1.9614 H   0  0  0  0  0  0  0  0  0  0  0  0
    0.8432   -0.6860   -1.1258 H   0  0  0  0  0  0  0  0  0  0  0  0
    0.8039   -2.7511   -0.6526 C   0  0  0  0  0  0  0  0  0  0  0  0
    1.5993   -2.9825    0.4448 C   0  0  0  0  0  0  0  0  0  0  0  0
    1.8259   -2.2628    1.2275 H   0  0  0  0  0  0  0  0  0  0  0  0
    2.0330   -4.3046    0.3822 N   0  0  0  0  0  0  0  0  0  0  0  0
    2.5988   -4.7708    1.0879 H   0  0  0  0  0  0  0  0  0  0  0  0
    1.5197   -4.9281   -0.7431 C   0  0  0  0  0  0  0  0  0  0  0  0
    1.6572   -6.2294   -1.2268 C   0  0  0  0  0  0  0  0  0  0  0  0
    2.2606   -6.9515   -0.6882 H   0  0  0  0  0  0  0  0  0  0  0  0
    1.0061   -6.5889   -2.4152 C   0  0  0  0  0  0  0  0  0  0  0  0
    1.1053   -7.5981   -2.8037 H   0  0  0  0  0  0  0  0  0  0  0  0
    0.2264   -5.6466   -3.1029 C   0  0  0  0  0  0  0  0  0  0  0  0
   -0.2758   -5.9283   -4.0234 H   0  0  0  0  0  0  0  0  0  0  0  0
    0.0944   -4.3421   -2.6060 C   0  0  0  0  0  0  0  0  0  0  0  0
   -0.5077   -3.6127   -3.1370 H   0  0  0  0  0  0  0  0  0  0  0  0
    0.7476   -3.9906   -1.4193 C   0  0  0  0  0  0  0  0  0  0  0  0
   -1.3112    0.4131   -0.1421 C   0  0  0  0  0  0  0  0  0  0  0  0
   -2.0616    0.7035   -1.0674 O   0  0  0  0  0  0  0  0  0  0  0  0
   -0.8191    1.4159    0.6733 N   0  0  0  0  0  0  0  0  0  0  0  0
   -0.2639    1.1371    1.4771 H   0  0  0  0  0  0  0  0  0  0  0  0
   -1.1879    2.8184    0.5246 C   0  0  0  0  0  0  0  0  0  0  0  0
   -2.2599    2.9535    0.7024 H   0  0  0  0  0  0  0  0  0  0  0  0
   -0.6368    3.4324    1.2433 H   0  0  0  0  0  0  0  0  0  0  0  0
   -0.9503    3.1733   -0.4838 H   0  0  0  0  0  0  0  0  0  0  0  0
  1  2  1  0  0  0  0
  2  3  1  0  0  0  0
  2  4  1  0  0  0  0
  2  5  1  0  0  0  0
  5  6  2  0  0  0  0
  5  7  1  0  0  0  0
  7  8  1  0  0  0  0
  7  9  1  0  0  0  0
  9 10  1  0  0  0  0
  9 11  1  0  0  0  0
  9 29  1  0  0  0  0
 11 12  1  0  0  0  0
 11 13  1  0  0  0  0
 11 14  1  0  0  0  0
 14 15  2  0  0  0  0
 14 28  1  0  0  0  0
 15 16  1  0  0  0  0
 15 17  1  0  0  0  0
 17 18  1  0  0  0  0
 17 19  1  0  0  0  0
 19 20  1  0  0  0  0
 19 28  2  0  0  0  0
 20 21  1  0  0  0  0
 20 22  2  0  0  0  0
 22 23  1  0  0  0  0
 22 24  1  0  0  0  0
 24 25  1  0  0  0  0
 24 26  2  0  0  0  0
 26 27  1  0  0  0  0
 26 28  1  0  0  0  0
 29 30  2  0  0  0  0
 29 31  1  0  0  0  0
 31 32  1  0  0  0  0
 31 33  1  0  0  0  0
 33 34  1  0  0  0  0
 33 35  1  0  0  0  0
 33 36  1  0  0  0  0
M  END
$$$$

  -OEChem-03222214083D

 36 37  0     1  0  0  0  0  0999 V2000
   -3.6779   -4.5813    1.4586 H   0  0  0  0  0  0  0  0  0  0  0  0
   -3.6265   -3.8056    0.6895 C   0  0  0  0  0  0  0  0  0  0  0  0
   -4.5405   -3.2083    0.7273 H   0  0  0  0  0  0  0  0  0  0  0  0
   -3.5527   -4.2860   -0.2890 H   0  0  0  0  0  0  0  0  0  0  0  0
   -2.4176   -2.9194    0.9217 C   0  0  0  0  0  0  0  0  0  0  0  0
   -1.7362   -3.0660    1.9256 O   0  0  0  0  0  0  0  0  0  0  0  0
   -2.1187   -1.9197    0.0200 N   0  0  0  0  0  0  0  0  0  0  0  0
   -2.7473   -1.7852   -0.7685 H   0  0  0  0  0  0  0  0  0  0  0  0
   -0.9250   -1.0653    0.0973 C   0  0  1  0  0  0  0  0  0  0  0  0
   -0.4605   -1.1231    1.0856 H   0  0  0  0  0  0  0  0  0  0  0  0
    0.0767   -1.5001   -0.9876 C   0  0  0  0  0  0  0  0  0  0  0  0
   -0.4525   -1.6073   -1.9393 H   0  0  0  0  0  0  0  0  0  0  0  0
    0.8363   -0.7236   -1.1235 H   0  0  0  0  0  0  0  0  0  0  0  0
    0.7847   -2.7890   -0.6428 C   0  0  0  0  0  0  0  0  0  0  0  0
    1.3394   -3.1429    0.5657 C   0  0  0  0  0  0  0  0  0  0  0  0
    1.3281   -2.5414    1.4714 H   0  0  0  0  0  0  0  0  0  0  0  0
    1.8815   -4.4179    0.4289 N   0  0  0  0  0  0  0  0  0  0  0  0
    2.3115   -4.9544    1.1788 H   0  0  0  0  0  0  0  0  0  0  0  0
    1.6833   -4.8908   -0.8567 C   0  0  0  0  0  0  0  0  0  0  0  0
    2.0315   -6.0975   -1.4639 C   0  0  0  0  0  0  0  0  0  0  0  0
    2.5556   -6.8613   -0.9002 H   0  0  0  0  0  0  0  0  0  0  0  0
    1.6951   -6.3080   -2.8084 C   0  0  0  0  0  0  0  0  0  0  0  0
    1.9597   -7.2426   -3.2939 H   0  0  0  0  0  0  0  0  0  0  0  0
    1.0171   -5.3120   -3.5273 C   0  0  0  0  0  0  0  0  0  0  0  0
    0.7588   -5.4768   -4.5689 H   0  0  0  0  0  0  0  0  0  0  0  0
    0.6703   -4.1038   -2.9052 C   0  0  0  0  0  0  0  0  0  0  0  0
    0.1459   -3.3334   -3.4606 H   0  0  0  0  0  0  0  0  0  0  0  0
    1.0066   -3.9016   -1.5615 C   0  0  0  0  0  0  0  0  0  0  0  0
   -1.3108    0.4059   -0.1468 C   0  0  0  0  0  0  0  0  0  0  0  0
   -2.0744    0.6948   -1.0616 O   0  0  0  0  0  0  0  0  0  0  0  0
   -0.8098    1.4097    0.6620 N   0  0  0  0  0  0  0  0  0  0  0  0
   -0.2278    1.1353    1.4483 H   0  0  0  0  0  0  0  0  0  0  0  0
   -1.1641    2.8149    0.5034 C   0  0  0  0  0  0  0  0  0  0  0  0
   -2.2428    2.9558    0.6297 H   0  0  0  0  0  0  0  0  0  0  0  0
   -0.6461    3.4220    1.2522 H   0  0  0  0  0  0  0  0  0  0  0  0
   -0.8756    3.1727   -0.4905 H   0  0  0  0  0  0  0  0  0  0  0  0
  1  2  1  0  0  0  0
  2  3  1  0  0  0  0
  2  4  1  0  0  0  0
  2  5  1  0  0  0  0
  5  6  2  0  0  0  0
  5  7  1  0  0  0  0
  7  8  1  0  0  0  0
  7  9  1  0  0  0  0
  9 10  1  0  0  0  0
  9 11  1  0  0  0  0
  9 29  1  0  0  0  0
 11 12  1  0  0  0  0
 11 13  1  0  0  0  0
 11 14  1  0  0  0  0
 14 15  2  0  0  0  0
 14 28  1  0  0  0  0
 15 16  1  0  0  0  0
 15 17  1  0  0  0  0
 17 18  1  0  0  0  0
 17 19  1  0  0  0  0
 19 20  1  0  0  0  0
 19 28  2  0  0  0  0
 20 21  1  0  0  0  0
 20 22  2  0  0  0  0
 22 23  1  0  0  0  0
 22 24  1  0  0  0  0
 24 25  1  0  0  0  0
 24 26  2  0  0  0  0
 26 27  1  0  0  0  0
 26 28  1  0  0  0  0
 29 30  2  0  0  0  0
 29 31  1  0  0  0  0
 31 32  1  0  0  0  0
 31 33  1  0  0  0  0
 33 34  1  0  0  0  0
 33 35  1  0  0  0  0
 33 36  1  0  0  0  0
M  END
$$$$

  -OEChem-03222214083D

 36 37  0     1  0  0  0  0  0999 V2000
   -3.8192   -4.4911    1.5192 H   0  0  0  0  0  0  0  0  0  0  0  0
   -3.7093   -3.7605    0.7130 C   0  0  0  0  0  0  0  0  0  0  0  0
   -4.6063   -3.1379    0.6755 H   0  0  0  0  0  0  0  0  0  0  0  0
   -3.6046   -4.2954   -0.2341 H   0  0  0  0  0  0  0  0  0  0  0  0
   -2.4874   -2.8948    0.9536 C   0  0  0  0  0  0  0  0  0  0  0  0
   -1.8185   -3.0474    1.9652 O   0  0  0  0  0  0  0  0  0  0  0  0
   -2.1566   -1.9128    0.0441 N   0  0  0  0  0  0  0  0  0  0  0  0
   -2.7747   -1.7762   -0.7526 H   0  0  0  0  0  0  0  0  0  0  0  0
   -0.9469   -1.0801    0.1175 C   0  0  1  0  0  0  0  0  0  0  0  0
   -0.4893   -1.1311    1.1090 H   0  0  0  0  0  0  0  0  0  0  0  0
    0.0552   -1.5403   -0.9577 C   0  0  0  0  0  0  0  0  0  0  0  0
   -0.4789   -1.6504   -1.9069 H   0  0  0  0  0  0  0  0  0  0  0  0
    0.8214   -0.7717   -1.1024 H   0  0  0  0  0  0  0  0  0  0  0  0
    0.7590   -2.8367   -0.6263 C   0  0  0  0  0  0  0  0  0  0  0  0
    1.0759   -3.3477    0.6125 C   0  0  0  0  0  0  0  0  0  0  0  0
    0.8282   -2.8972    1.5715 H   0  0  0  0  0  0  0  0  0  0  0  0
    1.7378   -4.5574    0.4190 N   0  0  0  0  0  0  0  0  0  0  0  0
    2.0566   -5.1745    1.1625 H   0  0  0  0  0  0  0  0  0  0  0  0
    1.8579   -4.8316   -0.9324 C   0  0  0  0  0  0  0  0  0  0  0  0
    2.4306   -5.9044   -1.6159 C   0  0  0  0  0  0  0  0  0  0  0  0
    2.8893   -6.7192   -1.0668 H   0  0  0  0  0  0  0  0  0  0  0  0
    2.4065   -5.9126   -3.0176 C   0  0  0  0  0  0  0  0  0  0  0  0
    2.8502   -6.7406   -3.5625 H   0  0  0  0  0  0  0  0  0  0  0  0
    1.8114   -4.8513   -3.7167 C   0  0  0  0  0  0  0  0  0  0  0  0
    1.7949   -4.8591   -4.8023 H   0  0  0  0  0  0  0  0  0  0  0  0
    1.2371   -3.7794   -3.0183 C   0  0  0  0  0  0  0  0  0  0  0  0
    0.7760   -2.9577   -3.5561 H   0  0  0  0  0  0  0  0  0  0  0  0
    1.2635   -3.7793   -1.6193 C   0  0  0  0  0  0  0  0  0  0  0  0
   -1.3045    0.3945   -0.1505 C   0  0  0  0  0  0  0  0  0  0  0  0
   -2.0609    0.6829   -1.0713 O   0  0  0  0  0  0  0  0  0  0  0  0
   -0.7909    1.4011    0.6467 N   0  0  0  0  0  0  0  0  0  0  0  0
   -0.2100    1.1288    1.4346 H   0  0  0  0  0  0  0  0  0  0  0  0
   -1.1169    2.8103    0.4645 C   0  0  0  0  0  0  0  0  0  0  0  0
   -2.1893    2.9777    0.6097 H   0  0  0  0  0  0  0  0  0  0  0  0
   -0.5699    3.4214    1.1890 H   0  0  0  0  0  0  0  0  0  0  0  0
   -0.8410    3.1408   -0.5426 H   0  0  0  0  0  0  0  0  0  0  0  0
  1  2  1  0  0  0  0
  2  3  1  0  0  0  0
  2  4  1  0  0  0  0
  2  5  1  0  0  0  0
  5  6  2  0  0  0  0
  5  7  1  0  0  0  0
  7  8  1  0  0  0  0
  7  9  1  0  0  0  0
  9 10  1  0  0  0  0
  9 11  1  0  0  0  0
  9 29  1  0  0  0  0
 11 12  1  0  0  0  0
 11 13  1  0  0  0  0
 11 14  1  0  0  0  0
 14 15  2  0  0  0  0
 14 28  1  0  0  0  0
 15 16  1  0  0  0  0
 15 17  1  0  0  0  0
 17 18  1  0  0  0  0
 17 19  1  0  0  0  0
 19 20  1  0  0  0  0
 19 28  2  0  0  0  0
 20 21  1  0  0  0  0
 20 22  2  0  0  0  0
 22 23  1  0  0  0  0
 22 24  1  0  0  0  0
 24 25  1  0  0  0  0
 24 26  2  0  0  0  0
 26 27  1  0  0  0  0
 26 28  1  0  0  0  0
 29 30  2  0  0  0  0
 29 31  1  0  0  0  0
 31 32  1  0  0  0  0
 31 33  1  0  0  0  0
 33 34  1  0  0  0  0
 33 35  1  0  0  0  0
 33 36  1  0  0  0  0
M  END
$$$$

  -OEChem-03222214083D

 36 37  0     1  0  0  0  0  0999 V2000
   -3.9263   -4.4552    1.4976 H   0  0  0  0  0  0  0  0  0  0  0  0
   -3.7709   -3.7387    0.6861 C   0  0  0  0  0  0  0  0  0  0  0  0
   -4.6560   -3.1036    0.6010 H   0  0  0  0  0  0  0  0  0  0  0  0
   -3.6345   -4.2892   -0.2480 H   0  0  0  0  0  0  0  0  0  0  0  0
   -2.5472   -2.8874    0.9660 C   0  0  0  0  0  0  0  0  0  0  0  0
   -1.9290   -3.0319    2.0095 O   0  0  0  0  0  0  0  0  0  0  0  0
   -2.1707   -1.9174    0.0624 N   0  0  0  0  0  0  0  0  0  0  0  0
   -2.7644   -1.7847   -0.7537 H   0  0  0  0  0  0  0  0  0  0  0  0
   -0.9530   -1.0938    0.1452 C   0  0  1  0  0  0  0  0  0  0  0  0
   -0.5076   -1.1451    1.1431 H   0  0  0  0  0  0  0  0  0  0  0  0
    0.0645   -1.5599   -0.9161 C   0  0  0  0  0  0  0  0  0  0  0  0
   -0.4555   -1.6660   -1.8738 H   0  0  0  0  0  0  0  0  0  0  0  0
    0.8289   -0.7868   -1.0462 H   0  0  0  0  0  0  0  0  0  0  0  0
    0.7808   -2.8540   -0.6052 C   0  0  0  0  0  0  0  0  0  0  0  0
    0.8744   -3.5361    0.5873 C   0  0  0  0  0  0  0  0  0  0  0  0
    0.4327   -3.2353    1.5344 H   0  0  0  0  0  0  0  0  0  0  0  0
    1.6342   -4.6821    0.3659 N   0  0  0  0  0  0  0  0  0  0  0  0
    1.8509   -5.3845    1.0699 H   0  0  0  0  0  0  0  0  0  0  0  0
    2.0353   -4.7481   -0.9572 C   0  0  0  0  0  0  0  0  0  0  0  0
    2.7952   -5.6874   -1.6548 C   0  0  0  0  0  0  0  0  0  0  0  0
    3.1857   -6.5612   -1.1448 H   0  0  0  0  0  0  0  0  0  0  0  0
    3.0453   -5.4859   -3.0197 C   0  0  0  0  0  0  0  0  0  0  0  0
    3.6351   -6.2090   -3.5750 H   0  0  0  0  0  0  0  0  0  0  0  0
    2.5343   -4.3512   -3.6686 C   0  0  0  0  0  0  0  0  0  0  0  0
    2.7298   -4.1974   -4.7253 H   0  0  0  0  0  0  0  0  0  0  0  0
    1.7710   -3.4143   -2.9568 C   0  0  0  0  0  0  0  0  0  0  0  0
    1.3739   -2.5356   -3.4546 H   0  0  0  0  0  0  0  0  0  0  0  0
    1.5251   -3.6239   -1.5955 C   0  0  0  0  0  0  0  0  0  0  0  0
   -1.2937    0.3801   -0.1486 C   0  0  0  0  0  0  0  0  0  0  0  0
   -2.0324    0.6623   -1.0858 O   0  0  0  0  0  0  0  0  0  0  0  0
   -0.7839    1.3920    0.6441 N   0  0  0  0  0  0  0  0  0  0  0  0
   -0.2112    1.1246    1.4398 H   0  0  0  0  0  0  0  0  0  0  0  0
   -1.0840    2.8028    0.4324 C   0  0  0  0  0  0  0  0  0  0  0  0
   -2.1551    2.9904    0.5615 H   0  0  0  0  0  0  0  0  0  0  0  0
   -0.5350    3.4177    1.1521 H   0  0  0  0  0  0  0  0  0  0  0  0
   -0.7909    3.1103   -0.5771 H   0  0  0  0  0  0  0  0  0  0  0  0
  1  2  1  0  0  0  0
  2  3  1  0  0  0  0
  2  4  1  0  0  0  0
  2  5  1  0  0  0  0
  5  6  2  0  0  0  0
  5  7  1  0  0  0  0
  7  8  1  0  0  0  0
  7  9  1  0  0  0  0
  9 10  1  0  0  0  0
  9 11  1  0  0  0  0
  9 29  1  0  0  0  0
 11 12  1  0  0  0  0
 11 13  1  0  0  0  0
 11 14  1  0  0  0  0
 14 15  2  0  0  0  0
 14 28  1  0  0  0  0
 15 16  1  0  0  0  0
 15 17  1  0  0  0  0
 17 18  1  0  0  0  0
 17 19  1  0  0  0  0
 19 20  1  0  0  0  0
 19 28  2  0  0  0  0
 20 21  1  0  0  0  0
 20 22  2  0  0  0  0
 22 23  1  0  0  0  0
 22 24  1  0  0  0  0
 24 25  1  0  0  0  0
 24 26  2  0  0  0  0
 26 27  1  0  0  0  0
 26 28  1  0  0  0  0
 29 30  2  0  0  0  0
 29 31  1  0  0  0  0
 31 32  1  0  0  0  0
 31 33  1  0  0  0  0
 33 34  1  0  0  0  0
 33 35  1  0  0  0  0
 33 36  1  0  0  0  0
M  END
$$$$

  -OEChem-03222214083D

 36 37  0     1  0  0  0  0  0999 V2000
   -4.0504   -4.4027    1.4808 H   0  0  0  0  0  0  0  0  0  0  0  0
   -3.8457   -3.7035    0.6652 C   0  0  0  0  0  0  0  0  0  0  0  0
   -4.7161   -3.0572    0.5280 H   0  0  0  0  0  0  0  0  0  0  0  0
   -3.6751   -4.2731   -0.2516 H   0  0  0  0  0  0  0  0  0  0  0  0
   -2.6230   -2.8650    0.9865 C   0  0  0  0  0  0  0  0  0  0  0  0
   -2.0638   -2.9900    2.0644 O   0  0  0  0  0  0  0  0  0  0  0  0
   -2.1935   -1.9153    0.0855 N   0  0  0  0  0  0  0  0  0  0  0  0
   -2.7558   -1.7900   -0.7538 H   0  0  0  0  0  0  0  0  0  0  0  0
   -0.9618   -1.1114    0.1794 C   0  0  1  0  0  0  0  0  0  0  0  0
   -0.5325   -1.1640    1.1846 H   0  0  0  0  0  0  0  0  0  0  0  0
    0.0738   -1.5861   -0.8642 C   0  0  0  0  0  0  0  0  0  0  0  0
   -0.4237   -1.6766   -1.8354 H   0  0  0  0  0  0  0  0  0  0  0  0
    0.8413   -0.8117   -0.9660 H   0  0  0  0  0  0  0  0  0  0  0  0
    0.7979   -2.8815   -0.5765 C   0  0  0  0  0  0  0  0  0  0  0  0
    0.6949   -3.7430    0.4919 C   0  0  0  0  0  0  0  0  0  0  0  0
    0.0723   -3.6062    1.3698 H   0  0  0  0  0  0  0  0  0  0  0  0
    1.5539   -4.8153    0.2638 N   0  0  0  0  0  0  0  0  0  0  0  0
    1.6853   -5.6037    0.8940 H   0  0  0  0  0  0  0  0  0  0  0  0
    2.2096   -4.6605   -0.9446 C   0  0  0  0  0  0  0  0  0  0  0  0
    3.1478   -5.4540   -1.6045 C   0  0  0  0  0  0  0  0  0  0  0  0
    3.4843   -6.3847   -1.1614 H   0  0  0  0  0  0  0  0  0  0  0  0
    3.6466   -5.0329   -2.8455 C   0  0  0  0  0  0  0  0  0  0  0  0
    4.3770   -5.6413   -3.3707 H   0  0  0  0  0  0  0  0  0  0  0  0
    3.2026   -3.8270   -3.4097 C   0  0  0  0  0  0  0  0  0  0  0  0
    3.5905   -3.5033   -4.3708 H   0  0  0  0  0  0  0  0  0  0  0  0
    2.2584   -3.0383   -2.7367 C   0  0  0  0  0  0  0  0  0  0  0  0
    1.9113   -2.1058   -3.1699 H   0  0  0  0  0  0  0  0  0  0  0  0
    1.7660   -3.4661   -1.4986 C   0  0  0  0  0  0  0  0  0  0  0  0
   -1.2767    0.3617   -0.1469 C   0  0  0  0  0  0  0  0  0  0  0  0
   -1.9921    0.6390   -1.1035 O   0  0  0  0  0  0  0  0  0  0  0  0
   -0.7676    1.3790    0.6392 N   0  0  0  0  0  0  0  0  0  0  0  0
   -0.2193    1.1162    1.4535 H   0  0  0  0  0  0  0  0  0  0  0  0
   -1.0409    2.7903    0.3980 C   0  0  0  0  0  0  0  0  0  0  0  0
   -2.1108    2.9969    0.5046 H   0  0  0  0  0  0  0  0  0  0  0  0
   -0.4949    3.4089    1.1166 H   0  0  0  0  0  0  0  0  0  0  0  0
   -0.7250    3.0751   -0.6110 H   0  0  0  0  0  0  0  0  0  0  0  0
  1  2  1  0  0  0  0
  2  3  1  0  0  0  0
  2  4  1  0  0  0  0
  2  5  1  0  0  0  0
  5  6  2  0  0  0  0
  5  7  1  0  0  0  0
  7  8  1  0  0  0  0
  7  9  1  0  0  0  0
  9 10  1  0  0  0  0
  9 11  1  0  0  0  0
  9 29  1  0  0  0  0
 11 12  1  0  0  0  0
 11 13  1  0  0  0  0
 11 14  1  0  0  0  0
 14 15  2  0  0  0  0
 14 28  1  0  0  0  0
 15 16  1  0  0  0  0
 15 17  1  0  0  0  0
 17 18  1  0  0  0  0
 17 19  1  0  0  0  0
 19 20  1  0  0  0  0
 19 28  2  0  0  0  0
 20 21  1  0  0  0  0
 20 22  2  0  0  0  0
 22 23  1  0  0  0  0
 22 24  1  0  0  0  0
 24 25  1  0  0  0  0
 24 26  2  0  0  0  0
 26 27  1  0  0  0  0
 26 28  1  0  0  0  0
 29 30  2  0  0  0  0
 29 31  1  0  0  0  0
 31 32  1  0  0  0  0
 31 33  1  0  0  0  0
 33 34  1  0  0  0  0
 33 35  1  0  0  0  0
 33 36  1  0  0  0  0
M  END
$$$$

  -OEChem-03222214083D

 36 37  0     1  0  0  0  0  0999 V2000
   -4.1659   -4.3281    1.4952 H   0  0  0  0  0  0  0  0  0  0  0  0
   -3.9478   -3.6297    0.6825 C   0  0  0  0  0  0  0  0  0  0  0  0
   -4.7915   -2.9445    0.5711 H   0  0  0  0  0  0  0  0  0  0  0  0
   -3.8225   -4.1960   -0.2435 H   0  0  0  0  0  0  0  0  0  0  0  0
   -2.6834   -2.8498    0.9880 C   0  0  0  0  0  0  0  0  0  0  0  0
   -2.1122   -3.0102    2.0546 O   0  0  0  0  0  0  0  0  0  0  0  0
   -2.2259   -1.9124    0.0886 N   0  0  0  0  0  0  0  0  0  0  0  0
   -2.8027   -1.7426   -0.7333 H   0  0  0  0  0  0  0  0  0  0  0  0
   -0.9740   -1.1399    0.1835 C   0  0  1  0  0  0  0  0  0  0  0  0
   -0.5500   -1.2032    1.1907 H   0  0  0  0  0  0  0  0  0  0  0  0
    0.0699   -1.6145   -0.8544 C   0  0  0  0  0  0  0  0  0  0  0  0
   -0.4100   -1.6761   -1.8370 H   0  0  0  0  0  0  0  0  0  0  0  0
    0.8430   -0.8417   -0.9212 H   0  0  0  0  0  0  0  0  0  0  0  0
    0.7920   -2.9191   -0.5965 C   0  0  0  0  0  0  0  0  0  0  0  0
    0.5229   -3.9449    0.2807 C   0  0  0  0  0  0  0  0  0  0  0  0
   -0.2818   -3.9820    1.0041 H   0  0  0  0  0  0  0  0  0  0  0  0
    1.4852   -4.9346    0.0976 N   0  0  0  0  0  0  0  0  0  0  0  0
    1.5395   -5.8028    0.6257 H   0  0  0  0  0  0  0  0  0  0  0  0
    2.3720   -4.5678   -0.8980 C   0  0  0  0  0  0  0  0  0  0  0  0
    3.4838   -5.2137   -1.4389 C   0  0  0  0  0  0  0  0  0  0  0  0
    3.7826   -6.1884   -1.0698 H   0  0  0  0  0  0  0  0  0  0  0  0
    4.2055   -4.5870   -2.4643 C   0  0  0  0  0  0  0  0  0  0  0  0
    5.0728   -5.0780   -2.8957 H   0  0  0  0  0  0  0  0  0  0  0  0
    3.8075   -3.3261   -2.9344 C   0  0  0  0  0  0  0  0  0  0  0  0
    4.3673   -2.8433   -3.7297 H   0  0  0  0  0  0  0  0  0  0  0  0
    2.6885   -2.6869   -2.3812 C   0  0  0  0  0  0  0  0  0  0  0  0
    2.3794   -1.7120   -2.7436 H   0  0  0  0  0  0  0  0  0  0  0  0
    1.9736   -3.3186   -1.3571 C   0  0  0  0  0  0  0  0  0  0  0  0
   -1.2640    0.3381   -0.1460 C   0  0  0  0  0  0  0  0  0  0  0  0
   -1.9838    0.6255   -1.0966 O   0  0  0  0  0  0  0  0  0  0  0  0
   -0.7371    1.3478    0.6380 N   0  0  0  0  0  0  0  0  0  0  0  0
   -0.1831    1.0761    1.4455 H   0  0  0  0  0  0  0  0  0  0  0  0
   -0.9988    2.7628    0.4061 C   0  0  0  0  0  0  0  0  0  0  0  0
   -2.0671    2.9787    0.5118 H   0  0  0  0  0  0  0  0  0  0  0  0
   -0.4498    3.3720    1.1305 H   0  0  0  0  0  0  0  0  0  0  0  0
   -0.6783    3.0519   -0.6003 H   0  0  0  0  0  0  0  0  0  0  0  0
  1  2  1  0  0  0  0
  2  3  1  0  0  0  0
  2  4  1  0  0  0  0
  2  5  1  0  0  0  0
  5  6  2  0  0  0  0
  5  7  1  0  0  0  0
  7  8  1  0  0  0  0
  7  9  1  0  0  0  0
  9 10  1  0  0  0  0
  9 11  1  0  0  0  0
  9 29  1  0  0  0  0
 11 12  1  0  0  0  0
 11 13  1  0  0  0  0
 11 14  1  0  0  0  0
 14 15  2  0  0  0  0
 14 28  1  0  0  0  0
 15 16  1  0  0  0  0
 15 17  1  0  0  0  0
 17 18  1  0  0  0  0
 17 19  1  0  0  0  0
 19 20  1  0  0  0  0
 19 28  2  0  0  0  0
 20 21  1  0  0  0  0
 20 22  2  0  0  0  0
 22 23  1  0  0  0  0
 22 24  1  0  0  0  0
 24 25  1  0  0  0  0
 24 26  2  0  0  0  0
 26 27  1  0  0  0  0
 26 28  1  0  0  0  0
 29 30  2  0  0  0  0
 29 31  1  0  0  0  0
 31 32  1  0  0  0  0
 31 33  1  0  0  0  0
 33 34  1  0  0  0  0
 33 35  1  0  0  0  0
 33 36  1  0  0  0  0
M  END
$$$$

  -OEChem-03222214083D

 36 37  0     1  0  0  0  0  0999 V2000
   -4.1890   -4.3104    1.4992 H   0  0  0  0  0  0  0  0  0  0  0  0
   -3.9988   -3.5765    0.7110 C   0  0  0  0  0  0  0  0  0  0  0  0
   -4.8160   -2.8510    0.7010 H   0  0  0  0  0  0  0  0  0  0  0  0
   -3.9677   -4.0934   -0.2511 H   0  0  0  0  0  0  0  0  0  0  0  0
   -2.6808   -2.8691    0.9619 C   0  0  0  0  0  0  0  0  0  0  0  0
   -2.0385   -3.1188    1.9688 O   0  0  0  0  0  0  0  0  0  0  0  0
   -2.2383   -1.9158    0.0715 N   0  0  0  0  0  0  0  0  0  0  0  0
   -2.8664   -1.6700   -0.6917 H   0  0  0  0  0  0  0  0  0  0  0  0
   -0.9768   -1.1570    0.1527 C   0  0  1  0  0  0  0  0  0  0  0  0
   -0.5383   -1.2423    1.1521 H   0  0  0  0  0  0  0  0  0  0  0  0
    0.0629   -1.6044   -0.9031 C   0  0  0  0  0  0  0  0  0  0  0  0
   -0.4183   -1.6445   -1.8858 H   0  0  0  0  0  0  0  0  0  0  0  0
    0.8288   -0.8239   -0.9522 H   0  0  0  0  0  0  0  0  0  0  0  0
    0.7906   -2.9135   -0.6766 C   0  0  0  0  0  0  0  0  0  0  0  0
    0.3875   -4.0596   -0.0305 C   0  0  0  0  0  0  0  0  0  0  0  0
   -0.5634   -4.2231    0.4598 H   0  0  0  0  0  0  0  0  0  0  0  0
    1.4205   -4.9893   -0.1075 N   0  0  0  0  0  0  0  0  0  0  0  0
    1.4027   -5.9195    0.3047 H   0  0  0  0  0  0  0  0  0  0  0  0
    2.4899   -4.4644   -0.8083 C   0  0  0  0  0  0  0  0  0  0  0  0
    3.7305   -5.0051   -1.1466 C   0  0  0  0  0  0  0  0  0  0  0  0
    3.9883   -6.0136   -0.8430 H   0  0  0  0  0  0  0  0  0  0  0  0
    4.6347   -4.2292   -1.8844 C   0  0  0  0  0  0  0  0  0  0  0  0
    5.6040   -4.6369   -2.1559 H   0  0  0  0  0  0  0  0  0  0  0  0
    4.2867   -2.9274   -2.2748 C   0  0  0  0  0  0  0  0  0  0  0  0
    4.9878   -2.3292   -2.8490 H   0  0  0  0  0  0  0  0  0  0  0  0
    3.0357   -2.3961   -1.9279 C   0  0  0  0  0  0  0  0  0  0  0  0
    2.7668   -1.3909   -2.2342 H   0  0  0  0  0  0  0  0  0  0  0  0
    2.1378   -3.1741   -1.1862 C   0  0  0  0  0  0  0  0  0  0  0  0
   -1.2694    0.3288   -0.1371 C   0  0  0  0  0  0  0  0  0  0  0  0
   -2.0292    0.6378   -1.0492 O   0  0  0  0  0  0  0  0  0  0  0  0
   -0.7187    1.3198    0.6545 N   0  0  0  0  0  0  0  0  0  0  0  0
   -0.1386    1.0291    1.4371 H   0  0  0  0  0  0  0  0  0  0  0  0
   -0.9993    2.7387    0.4728 C   0  0  0  0  0  0  0  0  0  0  0  0
   -2.0679    2.9379    0.6046 H   0  0  0  0  0  0  0  0  0  0  0  0
   -0.4441    3.3306    1.2069 H   0  0  0  0  0  0  0  0  0  0  0  0
   -0.7001    3.0632   -0.5294 H   0  0  0  0  0  0  0  0  0  0  0  0
  1  2  1  0  0  0  0
  2  3  1  0  0  0  0
  2  4  1  0  0  0  0
  2  5  1  0  0  0  0
  5  6  2  0  0  0  0
  5  7  1  0  0  0  0
  7  8  1  0  0  0  0
  7  9  1  0  0  0  0
  9 10  1  0  0  0  0
  9 11  1  0  0  0  0
  9 29  1  0  0  0  0
 11 12  1  0  0  0  0
 11 13  1  0  0  0  0
 11 14  1  0  0  0  0
 14 15  2  0  0  0  0
 14 28  1  0  0  0  0
 15 16  1  0  0  0  0
 15 17  1  0  0  0  0
 17 18  1  0  0  0  0
 17 19  1  0  0  0  0
 19 20  1  0  0  0  0
 19 28  2  0  0  0  0
 20 21  1  0  0  0  0
 20 22  2  0  0  0  0
 22 23  1  0  0  0  0
 22 24  1  0  0  0  0
 24 25  1  0  0  0  0
 24 26  2  0  0  0  0
 26 27  1  0  0  0  0
 26 28  1  0  0  0  0
 29 30  2  0  0  0  0
 29 31  1  0  0  0  0
 31 32  1  0  0  0  0
 31 33  1  0  0  0  0
 33 34  1  0  0  0  0
 33 35  1  0  0  0  0
 33 36  1  0  0  0  0
M  END
$$$$

  -OEChem-03222214083D

 36 37  0     1  0  0  0  0  0999 V2000
   -4.1156   -4.3591    1.4741 H   0  0  0  0  0  0  0  0  0  0  0  0
   -3.9662   -3.5854    0.7157 C   0  0  0  0  0  0  0  0  0  0  0  0
   -4.7671   -2.8472    0.8033 H   0  0  0  0  0  0  0  0  0  0  0  0
   -4.0129   -4.0478   -0.2734 H   0  0  0  0  0  0  0  0  0  0  0  0
   -2.6202   -2.9139    0.9115 C   0  0  0  0  0  0  0  0  0  0  0  0
   -1.9085   -3.2393    1.8467 O   0  0  0  0  0  0  0  0  0  0  0  0
   -2.2185   -1.9278    0.0374 N   0  0  0  0  0  0  0  0  0  0  0  0
   -2.8953   -1.6273   -0.6624 H   0  0  0  0  0  0  0  0  0  0  0  0
   -0.9684   -1.1498    0.1134 C   0  0  1  0  0  0  0  0  0  0  0  0
   -0.5157   -1.2531    1.1051 H   0  0  0  0  0  0  0  0  0  0  0  0
    0.0668   -1.5609   -0.9591 C   0  0  0  0  0  0  0  0  0  0  0  0
   -0.4256   -1.6077   -1.9358 H   0  0  0  0  0  0  0  0  0  0  0  0
    0.8160   -0.7659   -1.0163 H   0  0  0  0  0  0  0  0  0  0  0  0
    0.8038   -2.8636   -0.7323 C   0  0  0  0  0  0  0  0  0  0  0  0
    0.3114   -4.0851   -0.3356 C   0  0  0  0  0  0  0  0  0  0  0  0
   -0.7224   -4.3124   -0.1021 H   0  0  0  0  0  0  0  0  0  0  0  0
    1.3720   -4.9854   -0.2855 N   0  0  0  0  0  0  0  0  0  0  0  0
    1.3022   -5.9568    0.0094 H   0  0  0  0  0  0  0  0  0  0  0  0
    2.5486   -4.3646   -0.6627 C   0  0  0  0  0  0  0  0  0  0  0  0
    3.8524   -4.8470   -0.7789 C   0  0  0  0  0  0  0  0  0  0  0  0
    4.0745   -5.8826   -0.5469 H   0  0  0  0  0  0  0  0  0  0  0  0
    4.8669   -3.9779   -1.2026 C   0  0  0  0  0  0  0  0  0  0  0  0
    5.8861   -4.3399   -1.3011 H   0  0  0  0  0  0  0  0  0  0  0  0
    4.5654   -2.6412   -1.5032 C   0  0  0  0  0  0  0  0  0  0  0  0
    5.3519   -1.9703   -1.8355 H   0  0  0  0  0  0  0  0  0  0  0  0
    3.2508   -2.1681   -1.3793 C   0  0  0  0  0  0  0  0  0  0  0  0
    3.0216   -1.1350   -1.6163 H   0  0  0  0  0  0  0  0  0  0  0  0
    2.2403   -3.0403   -0.9538 C   0  0  0  0  0  0  0  0  0  0  0  0
   -1.2882    0.3386   -0.1261 C   0  0  0  0  0  0  0  0  0  0  0  0
   -2.0812    0.6600   -1.0049 O   0  0  0  0  0  0  0  0  0  0  0  0
   -0.7348    1.3146    0.6817 N   0  0  0  0  0  0  0  0  0  0  0  0
   -0.1225    1.0114    1.4344 H   0  0  0  0  0  0  0  0  0  0  0  0
   -1.0378    2.7339    0.5453 C   0  0  0  0  0  0  0  0  0  0  0  0
   -2.1082    2.9136    0.6909 H   0  0  0  0  0  0  0  0  0  0  0  0
   -0.4855    3.3118    1.2926 H   0  0  0  0  0  0  0  0  0  0  0  0
   -0.7521    3.0926   -0.4492 H   0  0  0  0  0  0  0  0  0  0  0  0
  1  2  1  0  0  0  0
  2  3  1  0  0  0  0
  2  4  1  0  0  0  0
  2  5  1  0  0  0  0
  5  6  2  0  0  0  0
  5  7  1  0  0  0  0
  7  8  1  0  0  0  0
  7  9  1  0  0  0  0
  9 10  1  0  0  0  0
  9 11  1  0  0  0  0
  9 29  1  0  0  0  0
 11 12  1  0  0  0  0
 11 13  1  0  0  0  0
 11 14  1  0  0  0  0
 14 15  2  0  0  0  0
 14 28  1  0  0  0  0
 15 16  1  0  0  0  0
 15 17  1  0  0  0  0
 17 18  1  0  0  0  0
 17 19  1  0  0  0  0
 19 20  1  0  0  0  0
 19 28  2  0  0  0  0
 20 21  1  0  0  0  0
 20 22  2  0  0  0  0
 22 23  1  0  0  0  0
 22 24  1  0  0  0  0
 24 25  1  0  0  0  0
 24 26  2  0  0  0  0
 26 27  1  0  0  0  0
 26 28  1  0  0  0  0
 29 30  2  0  0  0  0
 29 31  1  0  0  0  0
 31 32  1  0  0  0  0
 31 33  1  0  0  0  0
 33 34  1  0  0  0  0
 33 35  1  0  0  0  0
 33 36  1  0  0  0  0
M  END
$$$$

  -OEChem-03222214083D

 36 37  0     1  0  0  0  0  0999 V2000
   -3.9617   -4.4254    1.4939 H   0  0  0  0  0  0  0  0  0  0  0  0
   -3.8553   -3.6474    0.7327 C   0  0  0  0  0  0  0  0  0  0  0  0
   -4.6594   -2.9185    0.8603 H   0  0  0  0  0  0  0  0  0  0  0  0
   -3.9421   -4.1065   -0.2549 H   0  0  0  0  0  0  0  0  0  0  0  0
   -2.5087   -2.9624    0.8701 C   0  0  0  0  0  0  0  0  0  0  0  0
   -1.7395   -3.3099    1.7494 O   0  0  0  0  0  0  0  0  0  0  0  0
   -2.1745   -1.9412    0.0071 N   0  0  0  0  0  0  0  0  0  0  0  0
   -2.8975   -1.6225   -0.6361 H   0  0  0  0  0  0  0  0  0  0  0  0
   -0.9452   -1.1299    0.0649 C   0  0  1  0  0  0  0  0  0  0  0  0
   -0.4588   -1.2467    1.0393 H   0  0  0  0  0  0  0  0  0  0  0  0
    0.0606   -1.5034   -1.0447 C   0  0  0  0  0  0  0  0  0  0  0  0
   -0.4677   -1.5670   -2.0014 H   0  0  0  0  0  0  0  0  0  0  0  0
    0.7951   -0.6983   -1.1397 H   0  0  0  0  0  0  0  0  0  0  0  0
    0.8031   -2.7985   -0.8135 C   0  0  0  0  0  0  0  0  0  0  0  0
    0.2714   -4.0580   -0.6728 C   0  0  0  0  0  0  0  0  0  0  0  0
   -0.7854   -4.3054   -0.7007 H   0  0  0  0  0  0  0  0  0  0  0  0
    1.3228   -4.9503   -0.4824 N   0  0  0  0  0  0  0  0  0  0  0  0
    1.2209   -5.9471   -0.3065 H   0  0  0  0  0  0  0  0  0  0  0  0
    2.5324   -4.2787   -0.5003 C   0  0  0  0  0  0  0  0  0  0  0  0
    3.8433   -4.7324   -0.3538 C   0  0  0  0  0  0  0  0  0  0  0  0
    4.0417   -5.7863   -0.1941 H   0  0  0  0  0  0  0  0  0  0  0  0
    4.8963   -3.8099   -0.4178 C   0  0  0  0  0  0  0  0  0  0  0  0
    5.9218   -4.1491   -0.3071 H   0  0  0  0  0  0  0  0  0  0  0  0
    4.6262   -2.4492   -0.6259 C   0  0  0  0  0  0  0  0  0  0  0  0
    5.4443   -1.7369   -0.6760 H   0  0  0  0  0  0  0  0  0  0  0  0
    3.3036   -2.0052   -0.7701 C   0  0  0  0  0  0  0  0  0  0  0  0
    3.0987   -0.9526   -0.9309 H   0  0  0  0  0  0  0  0  0  0  0  0
    2.2550   -2.9313   -0.7059 C   0  0  0  0  0  0  0  0  0  0  0  0
   -1.3042    0.3563   -0.1194 C   0  0  0  0  0  0  0  0  0  0  0  0
   -2.1321    0.6837   -0.9631 O   0  0  0  0  0  0  0  0  0  0  0  0
   -0.7466    1.3213    0.6984 N   0  0  0  0  0  0  0  0  0  0  0  0
   -0.1036    1.0115    1.4222 H   0  0  0  0  0  0  0  0  0  0  0  0
   -1.0741    2.7383    0.6028 C   0  0  0  0  0  0  0  0  0  0  0  0
   -2.1455    2.8965    0.7654 H   0  0  0  0  0  0  0  0  0  0  0  0
   -0.5227    3.3058    1.3587 H   0  0  0  0  0  0  0  0  0  0  0  0
   -0.8059    3.1273   -0.3851 H   0  0  0  0  0  0  0  0  0  0  0  0
  1  2  1  0  0  0  0
  2  3  1  0  0  0  0
  2  4  1  0  0  0  0
  2  5  1  0  0  0  0
  5  6  2  0  0  0  0
  5  7  1  0  0  0  0
  7  8  1  0  0  0  0
  7  9  1  0  0  0  0
  9 10  1  0  0  0  0
  9 11  1  0  0  0  0
  9 29  1  0  0  0  0
 11 12  1  0  0  0  0
 11 13  1  0  0  0  0
 11 14  1  0  0  0  0
 14 15  2  0  0  0  0
 14 28  1  0  0  0  0
 15 16  1  0  0  0  0
 15 17  1  0  0  0  0
 17 18  1  0  0  0  0
 17 19  1  0  0  0  0
 19 20  1  0  0  0  0
 19 28  2  0  0  0  0
 20 21  1  0  0  0  0
 20 22  2  0  0  0  0
 22 23  1  0  0  0  0
 22 24  1  0  0  0  0
 24 25  1  0  0  0  0
 24 26  2  0  0  0  0
 26 27  1  0  0  0  0
 26 28  1  0  0  0  0
 29 30  2  0  0  0  0
 29 31  1  0  0  0  0
 31 32  1  0  0  0  0
 31 33  1  0  0  0  0
 33 34  1  0  0  0  0
 33 35  1  0  0  0  0
 33 36  1  0  0  0  0
M  END
$$$$

  -OEChem-03222214083D

 36 37  0     1  0  0  0  0  0999 V2000
   -3.7976   -4.5067    1.4762 H   0  0  0  0  0  0  0  0  0  0  0  0
   -3.7278   -3.7214    0.7179 C   0  0  0  0  0  0  0  0  0  0  0  0
   -4.5592   -3.0255    0.8543 H   0  0  0  0  0  0  0  0  0  0  0  0
   -3.8025   -4.1787   -0.2715 H   0  0  0  0  0  0  0  0  0  0  0  0
   -2.4086   -2.9841    0.8494 C   0  0  0  0  0  0  0  0  0  0  0  0
   -1.6240   -3.3004    1.7270 O   0  0  0  0  0  0  0  0  0  0  0  0
   -2.1246   -1.9425   -0.0080 N   0  0  0  0  0  0  0  0  0  0  0  0
   -2.8637   -1.6451   -0.6423 H   0  0  0  0  0  0  0  0  0  0  0  0
   -0.9162   -1.1009    0.0412 C   0  0  1  0  0  0  0  0  0  0  0  0
   -0.4055   -1.2204    1.0026 H   0  0  0  0  0  0  0  0  0  0  0  0
    0.0620   -1.4577   -1.0934 C   0  0  0  0  0  0  0  0  0  0  0  0
   -0.4916   -1.5368   -2.0344 H   0  0  0  0  0  0  0  0  0  0  0  0
    0.7923   -0.6523   -1.2186 H   0  0  0  0  0  0  0  0  0  0  0  0
    0.8017   -2.7467   -0.8430 C   0  0  0  0  0  0  0  0  0  0  0  0
    0.2956   -4.0188   -0.9556 C   0  0  0  0  0  0  0  0  0  0  0  0
   -0.7241   -4.2676   -1.2362 H   0  0  0  0  0  0  0  0  0  0  0  0
    1.3143   -4.9124   -0.6342 N   0  0  0  0  0  0  0  0  0  0  0  0
    1.2154   -5.9236   -0.5867 H   0  0  0  0  0  0  0  0  0  0  0  0
    2.4723   -4.2256   -0.3110 C   0  0  0  0  0  0  0  0  0  0  0  0
    3.7349   -4.6719    0.0784 C   0  0  0  0  0  0  0  0  0  0  0  0
    3.9337   -5.7337    0.1696 H   0  0  0  0  0  0  0  0  0  0  0  0
    4.7382   -3.7314    0.3499 C   0  0  0  0  0  0  0  0  0  0  0  0
    5.7257   -4.0651    0.6540 H   0  0  0  0  0  0  0  0  0  0  0  0
    4.4666   -2.3597    0.2306 C   0  0  0  0  0  0  0  0  0  0  0  0
    5.2451   -1.6332    0.4425 H   0  0  0  0  0  0  0  0  0  0  0  0
    3.1923   -1.9231   -0.1599 C   0  0  0  0  0  0  0  0  0  0  0  0
    2.9808   -0.8635   -0.2516 H   0  0  0  0  0  0  0  0  0  0  0  0
    2.1960   -2.8680   -0.4301 C   0  0  0  0  0  0  0  0  0  0  0  0
   -1.3050    0.3805   -0.1133 C   0  0  0  0  0  0  0  0  0  0  0  0
   -2.1435    0.7064   -0.9468 O   0  0  0  0  0  0  0  0  0  0  0  0
   -0.7519    1.3434    0.7104 N   0  0  0  0  0  0  0  0  0  0  0  0
   -0.1058    1.0318    1.4306 H   0  0  0  0  0  0  0  0  0  0  0  0
   -1.1056    2.7557    0.6400 C   0  0  0  0  0  0  0  0  0  0  0  0
   -2.1800    2.8913    0.8035 H   0  0  0  0  0  0  0  0  0  0  0  0
   -0.5659    3.3193    1.4072 H   0  0  0  0  0  0  0  0  0  0  0  0
   -0.8431    3.1674   -0.3403 H   0  0  0  0  0  0  0  0  0  0  0  0
  1  2  1  0  0  0  0
  2  3  1  0  0  0  0
  2  4  1  0  0  0  0
  2  5  1  0  0  0  0
  5  6  2  0  0  0  0
  5  7  1  0  0  0  0
  7  8  1  0  0  0  0
  7  9  1  0  0  0  0
  9 10  1  0  0  0  0
  9 11  1  0  0  0  0
  9 29  1  0  0  0  0
 11 12  1  0  0  0  0
 11 13  1  0  0  0  0
 11 14  1  0  0  0  0
 14 15  2  0  0  0  0
 14 28  1  0  0  0  0
 15 16  1  0  0  0  0
 15 17  1  0  0  0  0
 17 18  1  0  0  0  0
 17 19  1  0  0  0  0
 19 20  1  0  0  0  0
 19 28  2  0  0  0  0
 20 21  1  0  0  0  0
 20 22  2  0  0  0  0
 22 23  1  0  0  0  0
 22 24  1  0  0  0  0
 24 25  1  0  0  0  0
 24 26  2  0  0  0  0
 26 27  1  0  0  0  0
 26 28  1  0  0  0  0
 29 30  2  0  0  0  0
 29 31  1  0  0  0  0
 31 32  1  0  0  0  0
 31 33  1  0  0  0  0
 33 34  1  0  0  0  0
 33 35  1  0  0  0  0
 33 36  1  0  0  0  0
M  END
$$$$

  -OEChem-03222214083D

 36 37  0     1  0  0  0  0  0999 V2000
   -3.6972   -4.5579    1.4505 H   0  0  0  0  0  0  0  0  0  0  0  0
   -3.6441   -3.7679    0.6961 C   0  0  0  0  0  0  0  0  0  0  0  0
   -4.5000   -3.1008    0.8242 H   0  0  0  0  0  0  0  0  0  0  0  0
   -3.6907   -4.2241   -0.2955 H   0  0  0  0  0  0  0  0  0  0  0  0
   -2.3522   -2.9869    0.8466 C   0  0  0  0  0  0  0  0  0  0  0  0
   -1.5774   -3.2662    1.7454 O   0  0  0  0  0  0  0  0  0  0  0  0
   -2.0915   -1.9377   -0.0089 N   0  0  0  0  0  0  0  0  0  0  0  0
   -2.8270   -1.6686   -0.6590 H   0  0  0  0  0  0  0  0  0  0  0  0
   -0.8949   -1.0807    0.0367 C   0  0  1  0  0  0  0  0  0  0  0  0
   -0.3727   -1.1989    0.9923 H   0  0  0  0  0  0  0  0  0  0  0  0
    0.0646   -1.4381   -1.1113 C   0  0  0  0  0  0  0  0  0  0  0  0
   -0.5033   -1.5243   -2.0432 H   0  0  0  0  0  0  0  0  0  0  0  0
    0.7990   -0.6386   -1.2522 H   0  0  0  0  0  0  0  0  0  0  0  0
    0.7984   -2.7249   -0.8449 C   0  0  0  0  0  0  0  0  0  0  0  0
    0.3902   -3.9873   -1.2004 C   0  0  0  0  0  0  0  0  0  0  0  0
   -0.5324   -4.2275   -1.7223 H   0  0  0  0  0  0  0  0  0  0  0  0
    1.3617   -4.8846   -0.7621 N   0  0  0  0  0  0  0  0  0  0  0  0
    1.3115   -5.8966   -0.8519 H   0  0  0  0  0  0  0  0  0  0  0  0
    2.3887   -4.2087   -0.1231 C   0  0  0  0  0  0  0  0  0  0  0  0
    3.5616   -4.6600    0.4823 C   0  0  0  0  0  0  0  0  0  0  0  0
    3.7923   -5.7190    0.5037 H   0  0  0  0  0  0  0  0  0  0  0  0
    4.4340   -3.7277    1.0616 C   0  0  0  0  0  0  0  0  0  0  0  0
    5.3503   -4.0654    1.5365 H   0  0  0  0  0  0  0  0  0  0  0  0
    4.1237   -2.3593    1.0300 C   0  0  0  0  0  0  0  0  0  0  0  0
    4.8014   -1.6408    1.4809 H   0  0  0  0  0  0  0  0  0  0  0  0
    2.9405   -1.9175    0.4201 C   0  0  0  0  0  0  0  0  0  0  0  0
    2.6966   -0.8612    0.3946 H   0  0  0  0  0  0  0  0  0  0  0  0
    2.0760   -2.8545   -0.1558 C   0  0  0  0  0  0  0  0  0  0  0  0
   -1.2964    0.3979   -0.1070 C   0  0  0  0  0  0  0  0  0  0  0  0
   -2.1349    0.7231   -0.9409 O   0  0  0  0  0  0  0  0  0  0  0  0
   -0.7460    1.3604    0.7189 N   0  0  0  0  0  0  0  0  0  0  0  0
   -0.1079    1.0472    1.4456 H   0  0  0  0  0  0  0  0  0  0  0  0
   -1.1188    2.7685    0.6641 C   0  0  0  0  0  0  0  0  0  0  0  0
   -2.1915    2.8893    0.8485 H   0  0  0  0  0  0  0  0  0  0  0  0
   -0.5719    3.3346    1.4242 H   0  0  0  0  0  0  0  0  0  0  0  0
   -0.8804    3.1892   -0.3184 H   0  0  0  0  0  0  0  0  0  0  0  0
  1  2  1  0  0  0  0
  2  3  1  0  0  0  0
  2  4  1  0  0  0  0
  2  5  1  0  0  0  0
  5  6  2  0  0  0  0
  5  7  1  0  0  0  0
  7  8  1  0  0  0  0
  7  9  1  0  0  0  0
  9 10  1  0  0  0  0
  9 11  1  0  0  0  0
  9 29  1  0  0  0  0
 11 12  1  0  0  0  0
 11 13  1  0  0  0  0
 11 14  1  0  0  0  0
 14 15  2  0  0  0  0
 14 28  1  0  0  0  0
 15 16  1  0  0  0  0
 15 17  1  0  0  0  0
 17 18  1  0  0  0  0
 17 19  1  0  0  0  0
 19 20  1  0  0  0  0
 19 28  2  0  0  0  0
 20 21  1  0  0  0  0
 20 22  2  0  0  0  0
 22 23  1  0  0  0  0
 22 24  1  0  0  0  0
 24 25  1  0  0  0  0
 24 26  2  0  0  0  0
 26 27  1  0  0  0  0
 26 28  1  0  0  0  0
 29 30  2  0  0  0  0
 29 31  1  0  0  0  0
 31 32  1  0  0  0  0
 31 33  1  0  0  0  0
 33 34  1  0  0  0  0
 33 35  1  0  0  0  0
 33 36  1  0  0  0  0
M  END
$$$$

  -OEChem-03222214083D

 36 37  0     1  0  0  0  0  0999 V2000
   -3.6512   -4.5900    1.4257 H   0  0  0  0  0  0  0  0  0  0  0  0
   -3.6043   -3.7991    0.6718 C   0  0  0  0  0  0  0  0  0  0  0  0
   -4.4860   -3.1618    0.7742 H   0  0  0  0  0  0  0  0  0  0  0  0
   -3.6062   -4.2581   -0.3197 H   0  0  0  0  0  0  0  0  0  0  0  0
   -2.3447   -2.9743    0.8581 C   0  0  0  0  0  0  0  0  0  0  0  0
   -1.5991   -3.2110    1.7935 O   0  0  0  0  0  0  0  0  0  0  0  0
   -2.0850   -1.9279   -0.0013 N   0  0  0  0  0  0  0  0  0  0  0  0
   -2.7978   -1.6942   -0.6887 H   0  0  0  0  0  0  0  0  0  0  0  0
   -0.8948   -1.0640    0.0539 C   0  0  1  0  0  0  0  0  0  0  0  0
   -0.3790   -1.1757    1.0133 H   0  0  0  0  0  0  0  0  0  0  0  0
    0.0666   -1.4287   -1.0901 C   0  0  0  0  0  0  0  0  0  0  0  0
   -0.4943   -1.5118   -2.0267 H   0  0  0  0  0  0  0  0  0  0  0  0
    0.8068   -0.6331   -1.2230 H   0  0  0  0  0  0  0  0  0  0  0  0
    0.7969   -2.7150   -0.8114 C   0  0  0  0  0  0  0  0  0  0  0  0
    0.5452   -3.9327   -1.3948 C   0  0  0  0  0  0  0  0  0  0  0  0
   -0.2298   -4.1315   -2.1307 H   0  0  0  0  0  0  0  0  0  0  0  0
    1.4535   -4.8488   -0.8689 N   0  0  0  0  0  0  0  0  0  0  0  0
    1.4909   -5.8396   -1.0962 H   0  0  0  0  0  0  0  0  0  0  0  0
    2.2906   -4.2273    0.0438 C   0  0  0  0  0  0  0  0  0  0  0  0
    3.3431   -4.7136    0.8195 C   0  0  0  0  0  0  0  0  0  0  0  0
    3.6225   -5.7597    0.7657 H   0  0  0  0  0  0  0  0  0  0  0  0
    4.0308   -3.8336    1.6672 C   0  0  0  0  0  0  0  0  0  0  0  0
    4.8513   -4.1993    2.2772 H   0  0  0  0  0  0  0  0  0  0  0  0
    3.6588   -2.4817    1.7295 C   0  0  0  0  0  0  0  0  0  0  0  0
    4.1928   -1.8036    2.3879 H   0  0  0  0  0  0  0  0  0  0  0  0
    2.5975   -2.0049    0.9466 C   0  0  0  0  0  0  0  0  0  0  0  0
    2.3051   -0.9619    0.9912 H   0  0  0  0  0  0  0  0  0  0  0  0
    1.9162   -2.8901    0.1050 C   0  0  0  0  0  0  0  0  0  0  0  0
   -1.3003    0.4123   -0.1004 C   0  0  0  0  0  0  0  0  0  0  0  0
   -2.1215    0.7337   -0.9528 O   0  0  0  0  0  0  0  0  0  0  0  0
   -0.7624    1.3794    0.7285 N   0  0  0  0  0  0  0  0  0  0  0  0
   -0.1429    1.0686    1.4718 H   0  0  0  0  0  0  0  0  0  0  0  0
   -1.1380    2.7863    0.6647 C   0  0  0  0  0  0  0  0  0  0  0  0
   -2.2107    2.9061    0.8500 H   0  0  0  0  0  0  0  0  0  0  0  0
   -0.5906    3.3584    1.4200 H   0  0  0  0  0  0  0  0  0  0  0  0
   -0.9017    3.2016   -0.3207 H   0  0  0  0  0  0  0  0  0  0  0  0
  1  2  1  0  0  0  0
  2  3  1  0  0  0  0
  2  4  1  0  0  0  0
  2  5  1  0  0  0  0
  5  6  2  0  0  0  0
  5  7  1  0  0  0  0
  7  8  1  0  0  0  0
  7  9  1  0  0  0  0
  9 10  1  0  0  0  0
  9 11  1  0  0  0  0
  9 29  1  0  0  0  0
 11 12  1  0  0  0  0
 11 13  1  0  0  0  0
 11 14  1  0  0  0  0
 14 15  2  0  0  0  0
 14 28  1  0  0  0  0
 15 16  1  0  0  0  0
 15 17  1  0  0  0  0
 17 18  1  0  0  0  0
 17 19  1  0  0  0  0
 19 20  1  0  0  0  0
 19 28  2  0  0  0  0
 20 21  1  0  0  0  0
 20 22  2  0  0  0  0
 22 23  1  0  0  0  0
 22 24  1  0  0  0  0
 24 25  1  0  0  0  0
 24 26  2  0  0  0  0
 26 27  1  0  0  0  0
 26 28  1  0  0  0  0
 29 30  2  0  0  0  0
 29 31  1  0  0  0  0
 31 32  1  0  0  0  0
 31 33  1  0  0  0  0
 33 34  1  0  0  0  0
 33 35  1  0  0  0  0
 33 36  1  0  0  0  0
M  END
$$$$

  -OEChem-03222214083D

 36 37  0     1  0  0  0  0  0999 V2000
   -3.6962   -4.5912    1.3776 H   0  0  0  0  0  0  0  0  0  0  0  0
   -3.6371   -3.7955    0.6296 C   0  0  0  0  0  0  0  0  0  0  0  0
   -4.5366   -3.1788    0.6978 H   0  0  0  0  0  0  0  0  0  0  0  0
   -3.5879   -4.2494   -0.3631 H   0  0  0  0  0  0  0  0  0  0  0  0
   -2.4056   -2.9431    0.8704 C   0  0  0  0  0  0  0  0  0  0  0  0
   -1.7148   -3.1400    1.8561 O   0  0  0  0  0  0  0  0  0  0  0  0
   -2.1151   -1.9106    0.0043 N   0  0  0  0  0  0  0  0  0  0  0  0
   -2.7841   -1.7132   -0.7361 H   0  0  0  0  0  0  0  0  0  0  0  0
   -0.9262   -1.0480    0.0890 C   0  0  1  0  0  0  0  0  0  0  0  0
   -0.4455   -1.1465    1.0666 H   0  0  0  0  0  0  0  0  0  0  0  0
    0.0622   -1.4358   -1.0252 C   0  0  0  0  0  0  0  0  0  0  0  0
   -0.4716   -1.5153   -1.9778 H   0  0  0  0  0  0  0  0  0  0  0  0
    0.8115   -0.6451   -1.1365 H   0  0  0  0  0  0  0  0  0  0  0  0
    0.7891   -2.7232   -0.7315 C   0  0  0  0  0  0  0  0  0  0  0  0
    0.7424   -3.8517   -1.5139 C   0  0  0  0  0  0  0  0  0  0  0  0
    0.1467   -3.9686   -2.4160 H   0  0  0  0  0  0  0  0  0  0  0  0
    1.5877   -4.8001   -0.9445 N   0  0  0  0  0  0  0  0  0  0  0  0
    1.7410   -5.7419   -1.2973 H   0  0  0  0  0  0  0  0  0  0  0  0
    2.2005   -4.2811    0.1839 C   0  0  0  0  0  0  0  0  0  0  0  0
    3.1285   -4.8348    1.0661 C   0  0  0  0  0  0  0  0  0  0  0  0
    3.4792   -5.8509    0.9243 H   0  0  0  0  0  0  0  0  0  0  0  0
    3.6016   -4.0603    2.1342 C   0  0  0  0  0  0  0  0  0  0  0  0
    4.3217   -4.4789    2.8309 H   0  0  0  0  0  0  0  0  0  0  0  0
    3.1457   -2.7443    2.3035 C   0  0  0  0  0  0  0  0  0  0  0  0
    3.5151   -2.1466    3.1312 H   0  0  0  0  0  0  0  0  0  0  0  0
    2.2128   -2.1994    1.4092 C   0  0  0  0  0  0  0  0  0  0  0  0
    1.8640   -1.1818    1.5390 H   0  0  0  0  0  0  0  0  0  0  0  0
    1.7366   -2.9801    0.3497 C   0  0  0  0  0  0  0  0  0  0  0  0
   -1.3218    0.4273   -0.1015 C   0  0  0  0  0  0  0  0  0  0  0  0
   -2.1026    0.7396   -0.9942 O   0  0  0  0  0  0  0  0  0  0  0  0
   -0.8116    1.4061    0.7313 N   0  0  0  0  0  0  0  0  0  0  0  0
   -0.2241    1.1060    1.5041 H   0  0  0  0  0  0  0  0  0  0  0  0
   -1.1800    2.8127    0.6297 C   0  0  0  0  0  0  0  0  0  0  0  0
   -2.2586    2.9382    0.7725 H   0  0  0  0  0  0  0  0  0  0  0  0
   -0.6596    3.3964    1.3952 H   0  0  0  0  0  0  0  0  0  0  0  0
   -0.9055    3.2102   -0.3532 H   0  0  0  0  0  0  0  0  0  0  0  0
  1  2  1  0  0  0  0
  2  3  1  0  0  0  0
  2  4  1  0  0  0  0
  2  5  1  0  0  0  0
  5  6  2  0  0  0  0
  5  7  1  0  0  0  0
  7  8  1  0  0  0  0
  7  9  1  0  0  0  0
  9 10  1  0  0  0  0
  9 11  1  0  0  0  0
  9 29  1  0  0  0  0
 11 12  1  0  0  0  0
 11 13  1  0  0  0  0
 11 14  1  0  0  0  0
 14 15  2  0  0  0  0
 14 28  1  0  0  0  0
 15 16  1  0  0  0  0
 15 17  1  0  0  0  0
 17 18  1  0  0  0  0
 17 19  1  0  0  0  0
 19 20  1  0  0  0  0
 19 28  2  0  0  0  0
 20 21  1  0  0  0  0
 20 22  2  0  0  0  0
 22 23  1  0  0  0  0
 22 24  1  0  0  0  0
 24 25  1  0  0  0  0
 24 26  2  0  0  0  0
 26 27  1  0  0  0  0
 26 28  1  0  0  0  0
 29 30  2  0  0  0  0
 29 31  1  0  0  0  0
 31 32  1  0  0  0  0
 31 33  1  0  0  0  0
 33 34  1  0  0  0  0
 33 35  1  0  0  0  0
 33 36  1  0  0  0  0
M  END
$$$$

  -OEChem-03222214083D

 36 37  0     1  0  0  0  0  0999 V2000
   -3.7737   -4.5329    1.4044 H   0  0  0  0  0  0  0  0  0  0  0  0
   -3.6780   -3.7749    0.6218 C   0  0  0  0  0  0  0  0  0  0  0  0
   -4.5893   -3.1726    0.5995 H   0  0  0  0  0  0  0  0  0  0  0  0
   -3.5559   -4.2770   -0.3408 H   0  0  0  0  0  0  0  0  0  0  0  0
   -2.4786   -2.8885    0.8975 C   0  0  0  0  0  0  0  0  0  0  0  0
   -1.8472   -3.0260    1.9325 O   0  0  0  0  0  0  0  0  0  0  0  0
   -2.1563   -1.8836    0.0102 N   0  0  0  0  0  0  0  0  0  0  0  0
   -2.7706   -1.7410   -0.7876 H   0  0  0  0  0  0  0  0  0  0  0  0
   -0.9689   -1.0229    0.1186 C   0  0  1  0  0  0  0  0  0  0  0  0
   -0.5324   -1.0905    1.1154 H   0  0  0  0  0  0  0  0  0  0  0  0
    0.0552   -1.4369   -0.9545 C   0  0  0  0  0  0  0  0  0  0  0  0
   -0.4442   -1.5124   -1.9260 H   0  0  0  0  0  0  0  0  0  0  0  0
    0.8088   -0.6468   -1.0380 H   0  0  0  0  0  0  0  0  0  0  0  0
    0.7930   -2.7207   -0.6536 C   0  0  0  0  0  0  0  0  0  0  0  0
    0.9895   -3.7043   -1.5941 C   0  0  0  0  0  0  0  0  0  0  0  0
    0.6028   -3.6894   -2.6103 H   0  0  0  0  0  0  0  0  0  0  0  0
    1.7636   -4.7049   -1.0179 N   0  0  0  0  0  0  0  0  0  0  0  0
    2.0588   -5.5631   -1.4778 H   0  0  0  0  0  0  0  0  0  0  0  0
    2.1039   -4.3570    0.2769 C   0  0  0  0  0  0  0  0  0  0  0  0
    2.8805   -5.0280    1.2212 C   0  0  0  0  0  0  0  0  0  0  0  0
    3.3113   -5.9953    0.9882 H   0  0  0  0  0  0  0  0  0  0  0  0
    3.0974   -4.4344    2.4708 C   0  0  0  0  0  0  0  0  0  0  0  0
    3.6970   -4.9448    3.2185 H   0  0  0  0  0  0  0  0  0  0  0  0
    2.5410   -3.1796    2.7548 C   0  0  0  0  0  0  0  0  0  0  0  0
    2.7091   -2.7196    3.7234 H   0  0  0  0  0  0  0  0  0  0  0  0
    1.7628   -2.5164    1.7954 C   0  0  0  0  0  0  0  0  0  0  0  0
    1.3465   -1.5456    2.0311 H   0  0  0  0  0  0  0  0  0  0  0  0
    1.5331   -3.1157    0.5494 C   0  0  0  0  0  0  0  0  0  0  0  0
   -1.3543    0.4471   -0.1298 C   0  0  0  0  0  0  0  0  0  0  0  0
   -2.0903    0.7378   -1.0670 O   0  0  0  0  0  0  0  0  0  0  0  0
   -0.8754    1.4476    0.6958 N   0  0  0  0  0  0  0  0  0  0  0  0
   -0.3271    1.1664    1.5038 H   0  0  0  0  0  0  0  0  0  0  0  0
   -1.2333    2.8520    0.5416 C   0  0  0  0  0  0  0  0  0  0  0  0
   -2.3126    2.9883    0.6662 H   0  0  0  0  0  0  0  0  0  0  0  0
   -0.7186    3.4578    1.2936 H   0  0  0  0  0  0  0  0  0  0  0  0
   -0.9433    3.2143   -0.4504 H   0  0  0  0  0  0  0  0  0  0  0  0
  1  2  1  0  0  0  0
  2  3  1  0  0  0  0
  2  4  1  0  0  0  0
  2  5  1  0  0  0  0
  5  6  2  0  0  0  0
  5  7  1  0  0  0  0
  7  8  1  0  0  0  0
  7  9  1  0  0  0  0
  9 10  1  0  0  0  0
  9 11  1  0  0  0  0
  9 29  1  0  0  0  0
 11 12  1  0  0  0  0
 11 13  1  0  0  0  0
 11 14  1  0  0  0  0
 14 15  2  0  0  0  0
 14 28  1  0  0  0  0
 15 16  1  0  0  0  0
 15 17  1  0  0  0  0
 17 18  1  0  0  0  0
 17 19  1  0  0  0  0
 19 20  1  0  0  0  0
 19 28  2  0  0  0  0
 20 21  1  0  0  0  0
 20 22  2  0  0  0  0
 22 23  1  0  0  0  0
 22 24  1  0  0  0  0
 24 25  1  0  0  0  0
 24 26  2  0  0  0  0
 26 27  1  0  0  0  0
 26 28  1  0  0  0  0
 29 30  2  0  0  0  0
 29 31  1  0  0  0  0
 31 32  1  0  0  0  0
 31 33  1  0  0  0  0
 33 34  1  0  0  0  0
 33 35  1  0  0  0  0
 33 36  1  0  0  0  0
M  END
$$$$

  -OEChem-03222214083D

 36 37  0     1  0  0  0  0  0999 V2000
   -3.8621   -4.4491    1.4568 H   0  0  0  0  0  0  0  0  0  0  0  0
   -3.7252   -3.7311    0.6434 C   0  0  0  0  0  0  0  0  0  0  0  0
   -4.6435   -3.1509    0.5259 H   0  0  0  0  0  0  0  0  0  0  0  0
   -3.5265   -4.2802   -0.2801 H   0  0  0  0  0  0  0  0  0  0  0  0
   -2.5642   -2.8060    0.9545 C   0  0  0  0  0  0  0  0  0  0  0  0
   -2.0161   -2.8636    2.0433 O   0  0  0  0  0  0  0  0  0  0  0  0
   -2.1957   -1.8419    0.0406 N   0  0  0  0  0  0  0  0  0  0  0  0
   -2.7434   -1.7679   -0.8129 H   0  0  0  0  0  0  0  0  0  0  0  0
   -1.0046   -0.9873    0.1602 C   0  0  1  0  0  0  0  0  0  0  0  0
   -0.5966   -1.0072    1.1691 H   0  0  0  0  0  0  0  0  0  0  0  0
    0.0493   -1.4335   -0.8703 C   0  0  0  0  0  0  0  0  0  0  0  0
   -0.4256   -1.5147   -1.8539 H   0  0  0  0  0  0  0  0  0  0  0  0
    0.8016   -0.6409   -0.9425 H   0  0  0  0  0  0  0  0  0  0  0  0
    0.8058   -2.7116   -0.5703 C   0  0  0  0  0  0  0  0  0  0  0  0
    1.2638   -3.5034   -1.5981 C   0  0  0  0  0  0  0  0  0  0  0  0
    1.0953   -3.3184   -2.6566 H   0  0  0  0  0  0  0  0  0  0  0  0
    1.9803   -4.5596   -1.0519 N   0  0  0  0  0  0  0  0  0  0  0  0
    2.4313   -5.3048   -1.5780 H   0  0  0  0  0  0  0  0  0  0  0  0
    2.0173   -4.4433    0.3241 C   0  0  0  0  0  0  0  0  0  0  0  0
    2.6376   -5.2600    1.2691 C   0  0  0  0  0  0  0  0  0  0  0  0
    3.1857   -6.1417    0.9567 H   0  0  0  0  0  0  0  0  0  0  0  0
    2.5420   -4.9257    2.6239 C   0  0  0  0  0  0  0  0  0  0  0  0
    3.0142   -5.5518    3.3745 H   0  0  0  0  0  0  0  0  0  0  0  0
    1.8320   -3.7821    3.0098 C   0  0  0  0  0  0  0  0  0  0  0  0
    1.7481   -3.5247    4.0611 H   0  0  0  0  0  0  0  0  0  0  0  0
    1.2169   -2.9697    2.0469 C   0  0  0  0  0  0  0  0  0  0  0  0
    0.6689   -2.1007    2.3844 H   0  0  0  0  0  0  0  0  0  0  0  0
    1.3027   -3.3004    0.6853 C   0  0  0  0  0  0  0  0  0  0  0  0
   -1.3762    0.4720   -0.1657 C   0  0  0  0  0  0  0  0  0  0  0  0
   -2.0644    0.7249   -1.1492 O   0  0  0  0  0  0  0  0  0  0  0  0
   -0.9267    1.5072    0.6333 N   0  0  0  0  0  0  0  0  0  0  0  0
   -0.4096    1.2622    1.4732 H   0  0  0  0  0  0  0  0  0  0  0  0
   -1.2626    2.9051    0.3938 C   0  0  0  0  0  0  0  0  0  0  0  0
   -2.3448    3.0563    0.4641 H   0  0  0  0  0  0  0  0  0  0  0  0
   -0.7743    3.5441    1.1357 H   0  0  0  0  0  0  0  0  0  0  0  0
   -0.9271    3.2142   -0.6018 H   0  0  0  0  0  0  0  0  0  0  0  0
  1  2  1  0  0  0  0
  2  3  1  0  0  0  0
  2  4  1  0  0  0  0
  2  5  1  0  0  0  0
  5  6  2  0  0  0  0
  5  7  1  0  0  0  0
  7  8  1  0  0  0  0
  7  9  1  0  0  0  0
  9 10  1  0  0  0  0
  9 11  1  0  0  0  0
  9 29  1  0  0  0  0
 11 12  1  0  0  0  0
 11 13  1  0  0  0  0
 11 14  1  0  0  0  0
 14 15  2  0  0  0  0
 14 28  1  0  0  0  0
 15 16  1  0  0  0  0
 15 17  1  0  0  0  0
 17 18  1  0  0  0  0
 17 19  1  0  0  0  0
 19 20  1  0  0  0  0
 19 28  2  0  0  0  0
 20 21  1  0  0  0  0
 20 22  2  0  0  0  0
 22 23  1  0  0  0  0
 22 24  1  0  0  0  0
 24 25  1  0  0  0  0
 24 26  2  0  0  0  0
 26 27  1  0  0  0  0
 26 28  1  0  0  0  0
 29 30  2  0  0  0  0
 29 31  1  0  0  0  0
 31 32  1  0  0  0  0
 31 33  1  0  0  0  0
 33 34  1  0  0  0  0
 33 35  1  0  0  0  0
 33 36  1  0  0  0  0
M  END
$$$$

  -OEChem-03222214083D

 36 37  0     1  0  0  0  0  0999 V2000
   -4.0372   -4.3898    1.3681 H   0  0  0  0  0  0  0  0  0  0  0  0
   -3.8131   -3.7073    0.5436 C   0  0  0  0  0  0  0  0  0  0  0  0
   -4.7200   -3.1558    0.2846 H   0  0  0  0  0  0  0  0  0  0  0  0
   -3.4904   -4.2942   -0.3197 H   0  0  0  0  0  0  0  0  0  0  0  0
   -2.7175   -2.7401    0.9494 C   0  0  0  0  0  0  0  0  0  0  0  0
   -2.3198   -2.7225    2.1022 O   0  0  0  0  0  0  0  0  0  0  0  0
   -2.2681   -1.8013    0.0466 N   0  0  0  0  0  0  0  0  0  0  0  0
   -2.7162   -1.7939   -0.8659 H   0  0  0  0  0  0  0  0  0  0  0  0
   -1.0545   -0.9803    0.1970 C   0  0  1  0  0  0  0  0  0  0  0  0
   -0.6682   -1.0052    1.2164 H   0  0  0  0  0  0  0  0  0  0  0  0
    0.0084   -1.4678   -0.8098 C   0  0  0  0  0  0  0  0  0  0  0  0
   -0.4545   -1.5384   -1.8000 H   0  0  0  0  0  0  0  0  0  0  0  0
    0.7797   -0.6928   -0.8739 H   0  0  0  0  0  0  0  0  0  0  0  0
    0.7422   -2.7637   -0.5253 C   0  0  0  0  0  0  0  0  0  0  0  0
    1.4477   -3.3724   -1.5383 C   0  0  0  0  0  0  0  0  0  0  0  0
    1.4778   -3.0345   -2.5719 H   0  0  0  0  0  0  0  0  0  0  0  0
    2.1022   -4.4796   -1.0174 N   0  0  0  0  0  0  0  0  0  0  0  0
    2.6949   -5.1190   -1.5424 H   0  0  0  0  0  0  0  0  0  0  0  0
    1.8781   -4.5616    0.3425 C   0  0  0  0  0  0  0  0  0  0  0  0
    2.3672   -5.4837    1.2675 C   0  0  0  0  0  0  0  0  0  0  0  0
    3.0044   -6.2995    0.9452 H   0  0  0  0  0  0  0  0  0  0  0  0
    2.0296   -5.3373    2.6168 C   0  0  0  0  0  0  0  0  0  0  0  0
    2.3971   -6.0469    3.3521 H   0  0  0  0  0  0  0  0  0  0  0  0
    1.2215   -4.2666    3.0179 C   0  0  0  0  0  0  0  0  0  0  0  0
    0.9606   -4.1443    4.0647 H   0  0  0  0  0  0  0  0  0  0  0  0
    0.7410   -3.3478    2.0744 C   0  0  0  0  0  0  0  0  0  0  0  0
    0.1277   -2.5297    2.4252 H   0  0  0  0  0  0  0  0  0  0  0  0
    1.0512   -3.5001    0.7144 C   0  0  0  0  0  0  0  0  0  0  0  0
   -1.3670    0.4849   -0.1665 C   0  0  0  0  0  0  0  0  0  0  0  0
   -2.0006    0.7464   -1.1838 O   0  0  0  0  0  0  0  0  0  0  0  0
   -0.9128    1.5160    0.6352 N   0  0  0  0  0  0  0  0  0  0  0  0
   -0.4425    1.2646    1.5004 H   0  0  0  0  0  0  0  0  0  0  0  0
   -1.2091    2.9195    0.3771 C   0  0  0  0  0  0  0  0  0  0  0  0
   -2.2904    3.0925    0.3951 H   0  0  0  0  0  0  0  0  0  0  0  0
   -0.7453    3.5503    1.1414 H   0  0  0  0  0  0  0  0  0  0  0  0
   -0.8196    3.2202   -0.6012 H   0  0  0  0  0  0  0  0  0  0  0  0
  1  2  1  0  0  0  0
  2  3  1  0  0  0  0
  2  4  1  0  0  0  0
  2  5  1  0  0  0  0
  5  6  2  0  0  0  0
  5  7  1  0  0  0  0
  7  8  1  0  0  0  0
  7  9  1  0  0  0  0
  9 10  1  0  0  0  0
  9 11  1  0  0  0  0
  9 29  1  0  0  0  0
 11 12  1  0  0  0  0
 11 13  1  0  0  0  0
 11 14  1  0  0  0  0
 14 15  2  0  0  0  0
 14 28  1  0  0  0  0
 15 16  1  0  0  0  0
 15 17  1  0  0  0  0
 17 18  1  0  0  0  0
 17 19  1  0  0  0  0
 19 20  1  0  0  0  0
 19 28  2  0  0  0  0
 20 21  1  0  0  0  0
 20 22  2  0  0  0  0
 22 23  1  0  0  0  0
 22 24  1  0  0  0  0
 24 25  1  0  0  0  0
 24 26  2  0  0  0  0
 26 27  1  0  0  0  0
 26 28  1  0  0  0  0
 29 30  2  0  0  0  0
 29 31  1  0  0  0  0
 31 32  1  0  0  0  0
 31 33  1  0  0  0  0
 33 34  1  0  0  0  0
 33 35  1  0  0  0  0
 33 36  1  0  0  0  0
M  END
$$$$

  -OEChem-03222214083D

 36 37  0     1  0  0  0  0  0999 V2000
   -4.1777   -4.3969    1.6201 H   0  0  0  0  0  0  0  0  0  0  0  0
   -3.8941   -3.8116    0.7412 C   0  0  0  0  0  0  0  0  0  0  0  0
   -4.7944   -3.3778    0.2998 H   0  0  0  0  0  0  0  0  0  0  0  0
   -3.4216   -4.4765    0.0140 H   0  0  0  0  0  0  0  0  0  0  0  0
   -2.9272   -2.7123    1.1357 C   0  0  0  0  0  0  0  0  0  0  0  0
   -2.6549   -2.5279    2.3115 O   0  0  0  0  0  0  0  0  0  0  0  0
   -2.4896   -1.8109    0.1928 N   0  0  0  0  0  0  0  0  0  0  0  0
   -2.8741   -1.9426   -0.7387 H   0  0  0  0  0  0  0  0  0  0  0  0
   -1.2468   -1.0176    0.2558 C   0  0  1  0  0  0  0  0  0  0  0  0
   -0.7919   -1.0666    1.2498 H   0  0  0  0  0  0  0  0  0  0  0  0
   -0.2590   -1.5252   -0.8284 C   0  0  0  0  0  0  0  0  0  0  0  0
   -0.7237   -1.3600   -1.8068 H   0  0  0  0  0  0  0  0  0  0  0  0
    0.6249   -0.8797   -0.7833 H   0  0  0  0  0  0  0  0  0  0  0  0
    0.2526   -2.9543   -0.8361 C   0  0  0  0  0  0  0  0  0  0  0  0
    1.1167   -3.3386   -1.8379 C   0  0  0  0  0  0  0  0  0  0  0  0
    1.3749   -2.7331   -2.7042 H   0  0  0  0  0  0  0  0  0  0  0  0
    1.5433   -4.6362   -1.5920 N   0  0  0  0  0  0  0  0  0  0  0  0
    2.1660   -5.1782   -2.1879 H   0  0  0  0  0  0  0  0  0  0  0  0
    1.1031   -5.0417   -0.3498 C   0  0  0  0  0  0  0  0  0  0  0  0
    1.3692   -6.2176    0.3517 C   0  0  0  0  0  0  0  0  0  0  0  0
    1.9372   -7.0170   -0.1112 H   0  0  0  0  0  0  0  0  0  0  0  0
    0.9176   -6.3376    1.6704 C   0  0  0  0  0  0  0  0  0  0  0  0
    1.1145   -7.2437    2.2355 H   0  0  0  0  0  0  0  0  0  0  0  0
    0.2515   -5.2641    2.2741 C   0  0  0  0  0  0  0  0  0  0  0  0
   -0.0570   -5.3280    3.3135 H   0  0  0  0  0  0  0  0  0  0  0  0
   -0.0009   -4.0920    1.5484 C   0  0  0  0  0  0  0  0  0  0  0  0
   -0.4387   -3.2484    2.0584 H   0  0  0  0  0  0  0  0  0  0  0  0
    0.3599   -3.9972    0.2000 C   0  0  0  0  0  0  0  0  0  0  0  0
   -1.5263    0.4513   -0.1279 C   0  0  0  0  0  0  0  0  0  0  0  0
   -2.1872    0.7207   -1.1258 O   0  0  0  0  0  0  0  0  0  0  0  0
   -0.9930    1.4809    0.6260 N   0  0  0  0  0  0  0  0  0  0  0  0
   -0.5320    1.2306    1.4964 H   0  0  0  0  0  0  0  0  0  0  0  0
   -1.2576    2.8880    0.3511 C   0  0  0  0  0  0  0  0  0  0  0  0
   -2.3280    3.1008    0.4412 H   0  0  0  0  0  0  0  0  0  0  0  0
   -0.7172    3.5203    1.0619 H   0  0  0  0  0  0  0  0  0  0  0  0
   -0.9300    3.1504   -0.6604 H   0  0  0  0  0  0  0  0  0  0  0  0
  1  2  1  0  0  0  0
  2  3  1  0  0  0  0
  2  4  1  0  0  0  0
  2  5  1  0  0  0  0
  5  6  2  0  0  0  0
  5  7  1  0  0  0  0
  7  8  1  0  0  0  0
  7  9  1  0  0  0  0
  9 10  1  0  0  0  0
  9 11  1  0  0  0  0
  9 29  1  0  0  0  0
 11 12  1  0  0  0  0
 11 13  1  0  0  0  0
 11 14  1  0  0  0  0
 14 15  2  0  0  0  0
 14 28  1  0  0  0  0
 15 16  1  0  0  0  0
 15 17  1  0  0  0  0
 17 18  1  0  0  0  0
 17 19  1  0  0  0  0
 19 20  1  0  0  0  0
 19 28  2  0  0  0  0
 20 21  1  0  0  0  0
 20 22  2  0  0  0  0
 22 23  1  0  0  0  0
 22 24  1  0  0  0  0
 24 25  1  0  0  0  0
 24 26  2  0  0  0  0
 26 27  1  0  0  0  0
 26 28  1  0  0  0  0
 29 30  2  0  0  0  0
 29 31  1  0  0  0  0
 31 32  1  0  0  0  0
 31 33  1  0  0  0  0
 33 34  1  0  0  0  0
 33 35  1  0  0  0  0
 33 36  1  0  0  0  0
M  END
$$$$

  -OEChem-03222214083D

 36 37  0     1  0  0  0  0  0999 V2000
   -4.6345   -3.6678    2.0501 H   0  0  0  0  0  0  0  0  0  0  0  0
   -4.2895   -3.2114    1.1183 C   0  0  0  0  0  0  0  0  0  0  0  0
   -5.0873   -2.5810    0.7183 H   0  0  0  0  0  0  0  0  0  0  0  0
   -4.0644   -4.0033    0.3995 H   0  0  0  0  0  0  0  0  0  0  0  0
   -3.0472   -2.3794    1.3732 C   0  0  0  0  0  0  0  0  0  0  0  0
   -2.5691   -2.3165    2.4953 O   0  0  0  0  0  0  0  0  0  0  0  0
   -2.5170   -1.6122    0.3639 N   0  0  0  0  0  0  0  0  0  0  0  0
   -3.0139   -1.6283   -0.5237 H   0  0  0  0  0  0  0  0  0  0  0  0
   -1.1944   -0.9646    0.3566 C   0  0  1  0  0  0  0  0  0  0  0  0
   -0.7593   -0.9654    1.3609 H   0  0  0  0  0  0  0  0  0  0  0  0
   -0.1811   -1.5806   -0.6523 C   0  0  0  0  0  0  0  0  0  0  0  0
   -0.6261   -1.4410   -1.6440 H   0  0  0  0  0  0  0  0  0  0  0  0
    0.7063   -0.9387   -0.6093 H   0  0  0  0  0  0  0  0  0  0  0  0
    0.3421   -3.0161   -0.6820 C   0  0  0  0  0  0  0  0  0  0  0  0
    1.4558   -3.1977   -1.4765 C   0  0  0  0  0  0  0  0  0  0  0  0
    1.9280   -2.4214   -2.0750 H   0  0  0  0  0  0  0  0  0  0  0  0
    1.8416   -4.5261   -1.4305 N   0  0  0  0  0  0  0  0  0  0  0  0
    2.6213   -4.9375   -1.9391 H   0  0  0  0  0  0  0  0  0  0  0  0
    1.0360   -5.2098   -0.5487 C   0  0  0  0  0  0  0  0  0  0  0  0
    1.1104   -6.5519   -0.1767 C   0  0  0  0  0  0  0  0  0  0  0  0
    1.8447   -7.2083   -0.6304 H   0  0  0  0  0  0  0  0  0  0  0  0
    0.2369   -7.0333    0.8009 C   0  0  0  0  0  0  0  0  0  0  0  0
    0.2804   -8.0735    1.1098 H   0  0  0  0  0  0  0  0  0  0  0  0
   -0.6730   -6.1567    1.3999 C   0  0  0  0  0  0  0  0  0  0  0  0
   -1.3321   -6.5118    2.1866 H   0  0  0  0  0  0  0  0  0  0  0  0
   -0.7260   -4.8123    1.0048 C   0  0  0  0  0  0  0  0  0  0  0  0
   -1.3972   -4.1674    1.5328 H   0  0  0  0  0  0  0  0  0  0  0  0
    0.1043   -4.3166   -0.0083 C   0  0  0  0  0  0  0  0  0  0  0  0
   -1.3597    0.4865   -0.1478 C   0  0  0  0  0  0  0  0  0  0  0  0
   -2.0494    0.7313   -1.1327 O   0  0  0  0  0  0  0  0  0  0  0  0
   -0.7252    1.5252    0.5090 N   0  0  0  0  0  0  0  0  0  0  0  0
   -0.2459    1.3036    1.3775 H   0  0  0  0  0  0  0  0  0  0  0  0
   -0.8969    2.9252    0.1410 C   0  0  0  0  0  0  0  0  0  0  0  0
   -1.9453    3.2237    0.2455 H   0  0  0  0  0  0  0  0  0  0  0  0
   -0.2889    3.5635    0.7894 H   0  0  0  0  0  0  0  0  0  0  0  0
   -0.5849    3.0902   -0.8955 H   0  0  0  0  0  0  0  0  0  0  0  0
  1  2  1  0  0  0  0
  2  3  1  0  0  0  0
  2  4  1  0  0  0  0
  2  5  1  0  0  0  0
  5  6  2  0  0  0  0
  5  7  1  0  0  0  0
  7  8  1  0  0  0  0
  7  9  1  0  0  0  0
  9 10  1  0  0  0  0
  9 11  1  0  0  0  0
  9 29  1  0  0  0  0
 11 12  1  0  0  0  0
 11 13  1  0  0  0  0
 11 14  1  0  0  0  0
 14 15  2  0  0  0  0
 14 28  1  0  0  0  0
 15 16  1  0  0  0  0
 15 17  1  0  0  0  0
 17 18  1  0  0  0  0
 17 19  1  0  0  0  0
 19 20  1  0  0  0  0
 19 28  2  0  0  0  0
 20 21  1  0  0  0  0
 20 22  2  0  0  0  0
 22 23  1  0  0  0  0
 22 24  1  0  0  0  0
 24 25  1  0  0  0  0
 24 26  2  0  0  0  0
 26 27  1  0  0  0  0
 26 28  1  0  0  0  0
 29 30  2  0  0  0  0
 29 31  1  0  0  0  0
 31 32  1  0  0  0  0
 31 33  1  0  0  0  0
 33 34  1  0  0  0  0
 33 35  1  0  0  0  0
 33 36  1  0  0  0  0
M  END
$$$$

  -OEChem-03222214083D

 36 37  0     1  0  0  0  0  0999 V2000
   -4.3311   -3.8601    2.1845 H   0  0  0  0  0  0  0  0  0  0  0  0
   -4.2229   -3.1179    1.3885 C   0  0  0  0  0  0  0  0  0  0  0  0
   -4.9688   -2.3324    1.5324 H   0  0  0  0  0  0  0  0  0  0  0  0
   -4.4018   -3.6066    0.4282 H   0  0  0  0  0  0  0  0  0  0  0  0
   -2.8295   -2.5170    1.4233 C   0  0  0  0  0  0  0  0  0  0  0  0
   -2.1461   -2.6421    2.4260 O   0  0  0  0  0  0  0  0  0  0  0  0
   -2.3898   -1.7466    0.3642 N   0  0  0  0  0  0  0  0  0  0  0  0
   -3.0438   -1.5605   -0.3940 H   0  0  0  0  0  0  0  0  0  0  0  0
   -1.1042   -1.0354    0.3335 C   0  0  1  0  0  0  0  0  0  0  0  0
   -0.7075   -0.9577    1.3506 H   0  0  0  0  0  0  0  0  0  0  0  0
    0.0299   -1.5870   -0.5749 C   0  0  0  0  0  0  0  0  0  0  0  0
   -0.3479   -1.5601   -1.6028 H   0  0  0  0  0  0  0  0  0  0  0  0
    0.8666   -0.8819   -0.5234 H   0  0  0  0  0  0  0  0  0  0  0  0
    0.5914   -2.9870   -0.3809 C   0  0  0  0  0  0  0  0  0  0  0  0
    1.9137   -3.2100   -0.7019 C   0  0  0  0  0  0  0  0  0  0  0  0
    2.6304   -2.4363   -0.9673 H   0  0  0  0  0  0  0  0  0  0  0  0
    2.1906   -4.5631   -0.5761 N   0  0  0  0  0  0  0  0  0  0  0  0
    3.0988   -4.9990   -0.7188 H   0  0  0  0  0  0  0  0  0  0  0  0
    1.0223   -5.2535   -0.3385 C   0  0  0  0  0  0  0  0  0  0  0  0
    0.8131   -6.6290   -0.2426 C   0  0  0  0  0  0  0  0  0  0  0  0
    1.6522   -7.3149   -0.2723 H   0  0  0  0  0  0  0  0  0  0  0  0
   -0.4954   -7.1100   -0.1353 C   0  0  0  0  0  0  0  0  0  0  0  0
   -0.6804   -8.1773   -0.0599 H   0  0  0  0  0  0  0  0  0  0  0  0
   -1.5673   -6.2104   -0.1688 C   0  0  0  0  0  0  0  0  0  0  0  0
   -2.5864   -6.5828   -0.1341 H   0  0  0  0  0  0  0  0  0  0  0  0
   -1.3292   -4.8316   -0.2673 C   0  0  0  0  0  0  0  0  0  0  0  0
   -2.1693   -4.1665   -0.3717 H   0  0  0  0  0  0  0  0  0  0  0  0
   -0.0217   -4.3290   -0.2847 C   0  0  0  0  0  0  0  0  0  0  0  0
   -1.3633    0.3894   -0.1977 C   0  0  0  0  0  0  0  0  0  0  0  0
   -2.1134    0.5675   -1.1519 O   0  0  0  0  0  0  0  0  0  0  0  0
   -0.7884    1.4816    0.4260 N   0  0  0  0  0  0  0  0  0  0  0  0
   -0.2487    1.3086    1.2697 H   0  0  0  0  0  0  0  0  0  0  0  0
   -1.0452    2.8593    0.0249 C   0  0  0  0  0  0  0  0  0  0  0  0
   -2.1013    3.1100    0.1698 H   0  0  0  0  0  0  0  0  0  0  0  0
   -0.4401    3.5468    0.6240 H   0  0  0  0  0  0  0  0  0  0  0  0
   -0.7893    3.0062   -1.0298 H   0  0  0  0  0  0  0  0  0  0  0  0
  1  2  1  0  0  0  0
  2  3  1  0  0  0  0
  2  4  1  0  0  0  0
  2  5  1  0  0  0  0
  5  6  2  0  0  0  0
  5  7  1  0  0  0  0
  7  8  1  0  0  0  0
  7  9  1  0  0  0  0
  9 10  1  0  0  0  0
  9 11  1  0  0  0  0
  9 29  1  0  0  0  0
 11 12  1  0  0  0  0
 11 13  1  0  0  0  0
 11 14  1  0  0  0  0
 14 15  2  0  0  0  0
 14 28  1  0  0  0  0
 15 16  1  0  0  0  0
 15 17  1  0  0  0  0
 17 18  1  0  0  0  0
 17 19  1  0  0  0  0
 19 20  1  0  0  0  0
 19 28  2  0  0  0  0
 20 21  1  0  0  0  0
 20 22  2  0  0  0  0
 22 23  1  0  0  0  0
 22 24  1  0  0  0  0
 24 25  1  0  0  0  0
 24 26  2  0  0  0  0
 26 27  1  0  0  0  0
 26 28  1  0  0  0  0
 29 30  2  0  0  0  0
 29 31  1  0  0  0  0
 31 32  1  0  0  0  0
 31 33  1  0  0  0  0
 33 34  1  0  0  0  0
 33 35  1  0  0  0  0
 33 36  1  0  0  0  0
M  END
$$$$

  -OEChem-03222214083D

 36 37  0     1  0  0  0  0  0999 V2000
   -3.9791   -4.1999    2.0712 H   0  0  0  0  0  0  0  0  0  0  0  0
   -3.9956   -3.3534    1.3791 C   0  0  0  0  0  0  0  0  0  0  0  0
   -4.7755   -2.6546    1.6904 H   0  0  0  0  0  0  0  0  0  0  0  0
   -4.2282   -3.7252    0.3789 H   0  0  0  0  0  0  0  0  0  0  0  0
   -2.6479   -2.6559    1.3828 C   0  0  0  0  0  0  0  0  0  0  0  0
   -1.9138   -2.7746    2.3505 O   0  0  0  0  0  0  0  0  0  0  0  0
   -2.3068   -1.8127    0.3429 N   0  0  0  0  0  0  0  0  0  0  0  0
   -3.0067   -1.6310   -0.3734 H   0  0  0  0  0  0  0  0  0  0  0  0
   -1.0506   -1.0543    0.2677 C   0  0  1  0  0  0  0  0  0  0  0  0
   -0.5880   -1.0170    1.2590 H   0  0  0  0  0  0  0  0  0  0  0  0
    0.0119   -1.5850   -0.7273 C   0  0  0  0  0  0  0  0  0  0  0  0
   -0.4237   -1.5550   -1.7316 H   0  0  0  0  0  0  0  0  0  0  0  0
    0.8636   -0.8968   -0.7250 H   0  0  0  0  0  0  0  0  0  0  0  0
    0.5273   -2.9938   -0.5080 C   0  0  0  0  0  0  0  0  0  0  0  0
    1.8722   -3.2826   -0.5679 C   0  0  0  0  0  0  0  0  0  0  0  0
    2.6682   -2.5447   -0.6365 H   0  0  0  0  0  0  0  0  0  0  0  0
    2.0367   -4.6596   -0.4842 N   0  0  0  0  0  0  0  0  0  0  0  0
    2.9283   -5.1495   -0.4662 H   0  0  0  0  0  0  0  0  0  0  0  0
    0.8054   -5.2822   -0.5281 C   0  0  0  0  0  0  0  0  0  0  0  0
    0.4821   -6.6383   -0.5670 C   0  0  0  0  0  0  0  0  0  0  0  0
    1.2597   -7.3894   -0.4850 H   0  0  0  0  0  0  0  0  0  0  0  0
   -0.8552   -7.0142   -0.7384 C   0  0  0  0  0  0  0  0  0  0  0  0
   -1.1248   -8.0657   -0.7723 H   0  0  0  0  0  0  0  0  0  0  0  0
   -1.8389   -6.0302   -0.9031 C   0  0  0  0  0  0  0  0  0  0  0  0
   -2.8701   -6.3210   -1.0783 H   0  0  0  0  0  0  0  0  0  0  0  0
   -1.4924   -4.6721   -0.8588 C   0  0  0  0  0  0  0  0  0  0  0  0
   -2.2503   -3.9243   -1.0445 H   0  0  0  0  0  0  0  0  0  0  0  0
   -0.1678   -4.2886   -0.6111 C   0  0  0  0  0  0  0  0  0  0  0  0
   -1.3640    0.3911   -0.1642 C   0  0  0  0  0  0  0  0  0  0  0  0
   -2.1694    0.6025   -1.0648 O   0  0  0  0  0  0  0  0  0  0  0  0
   -0.7711    1.4604    0.4823 N   0  0  0  0  0  0  0  0  0  0  0  0
   -0.1772    1.2545    1.2810 H   0  0  0  0  0  0  0  0  0  0  0  0
   -1.0754    2.8516    0.1711 C   0  0  0  0  0  0  0  0  0  0  0  0
   -2.1287    3.0687    0.3770 H   0  0  0  0  0  0  0  0  0  0  0  0
   -0.4584    3.5192    0.7802 H   0  0  0  0  0  0  0  0  0  0  0  0
   -0.8719    3.0618   -0.8841 H   0  0  0  0  0  0  0  0  0  0  0  0
  1  2  1  0  0  0  0
  2  3  1  0  0  0  0
  2  4  1  0  0  0  0
  2  5  1  0  0  0  0
  5  6  2  0  0  0  0
  5  7  1  0  0  0  0
  7  8  1  0  0  0  0
  7  9  1  0  0  0  0
  9 10  1  0  0  0  0
  9 11  1  0  0  0  0
  9 29  1  0  0  0  0
 11 12  1  0  0  0  0
 11 13  1  0  0  0  0
 11 14  1  0  0  0  0
 14 15  2  0  0  0  0
 14 28  1  0  0  0  0
 15 16  1  0  0  0  0
 15 17  1  0  0  0  0
 17 18  1  0  0  0  0
 17 19  1  0  0  0  0
 19 20  1  0  0  0  0
 19 28  2  0  0  0  0
 20 21  1  0  0  0  0
 20 22  2  0  0  0  0
 22 23  1  0  0  0  0
 22 24  1  0  0  0  0
 24 25  1  0  0  0  0
 24 26  2  0  0  0  0
 26 27  1  0  0  0  0
 26 28  1  0  0  0  0
 29 30  2  0  0  0  0
 29 31  1  0  0  0  0
 31 32  1  0  0  0  0
 31 33  1  0  0  0  0
 33 34  1  0  0  0  0
 33 35  1  0  0  0  0
 33 36  1  0  0  0  0
M  END
$$$$

  -OEChem-03222214083D

 36 37  0     1  0  0  0  0  0999 V2000
   -3.8128   -4.3845    1.9340 H   0  0  0  0  0  0  0  0  0  0  0  0
   -3.8427   -3.5662    1.2092 C   0  0  0  0  0  0  0  0  0  0  0  0
   -4.6841   -2.9113    1.4469 H   0  0  0  0  0  0  0  0  0  0  0  0
   -3.9888   -3.9885    0.2127 H   0  0  0  0  0  0  0  0  0  0  0  0
   -2.5458   -2.7804    1.2611 C   0  0  0  0  0  0  0  0  0  0  0  0
   -1.8125   -2.8922    2.2308 O   0  0  0  0  0  0  0  0  0  0  0  0
   -2.2495   -1.8757    0.2606 N   0  0  0  0  0  0  0  0  0  0  0  0
   -2.9495   -1.7151   -0.4596 H   0  0  0  0  0  0  0  0  0  0  0  0
   -1.0183   -1.0742    0.2034 C   0  0  1  0  0  0  0  0  0  0  0  0
   -0.5315   -1.0743    1.1836 H   0  0  0  0  0  0  0  0  0  0  0  0
    0.0092   -1.5697   -0.8401 C   0  0  0  0  0  0  0  0  0  0  0  0
   -0.4427   -1.5153   -1.8361 H   0  0  0  0  0  0  0  0  0  0  0  0
    0.8693   -0.8922   -0.8365 H   0  0  0  0  0  0  0  0  0  0  0  0
    0.4978   -2.9839   -0.6239 C   0  0  0  0  0  0  0  0  0  0  0  0
    1.8135   -3.3190   -0.4039 C   0  0  0  0  0  0  0  0  0  0  0  0
    2.6257   -2.6127   -0.2500 H   0  0  0  0  0  0  0  0  0  0  0  0
    1.9122   -4.7069   -0.3898 N   0  0  0  0  0  0  0  0  0  0  0  0
    2.7622   -5.2367   -0.2111 H   0  0  0  0  0  0  0  0  0  0  0  0
    0.6923   -5.2744   -0.7098 C   0  0  0  0  0  0  0  0  0  0  0  0
    0.3181   -6.6069   -0.8840 C   0  0  0  0  0  0  0  0  0  0  0  0
    1.0346   -7.4028   -0.7134 H   0  0  0  0  0  0  0  0  0  0  0  0
   -0.9875   -6.9004   -1.2985 C   0  0  0  0  0  0  0  0  0  0  0  0
   -1.2921   -7.9331   -1.4398 H   0  0  0  0  0  0  0  0  0  0  0  0
   -1.8915   -5.8592   -1.5537 C   0  0  0  0  0  0  0  0  0  0  0  0
   -2.8942   -6.0864   -1.9023 H   0  0  0  0  0  0  0  0  0  0  0  0
   -1.5000   -4.5253   -1.3708 C   0  0  0  0  0  0  0  0  0  0  0  0
   -2.1889   -3.7209   -1.5985 H   0  0  0  0  0  0  0  0  0  0  0  0
   -0.2108   -4.2353   -0.9088 C   0  0  0  0  0  0  0  0  0  0  0  0
   -1.3655    0.3837   -0.1503 C   0  0  0  0  0  0  0  0  0  0  0  0
   -2.1762    0.6230   -1.0389 O   0  0  0  0  0  0  0  0  0  0  0  0
   -0.7849    1.4310    0.5417 N   0  0  0  0  0  0  0  0  0  0  0  0
   -0.1897    1.1977    1.3319 H   0  0  0  0  0  0  0  0  0  0  0  0
   -1.1166    2.8295    0.2984 C   0  0  0  0  0  0  0  0  0  0  0  0
   -2.1722    3.0174    0.5211 H   0  0  0  0  0  0  0  0  0  0  0  0
   -0.5071    3.4787    0.9342 H   0  0  0  0  0  0  0  0  0  0  0  0
   -0.9245    3.0932   -0.7470 H   0  0  0  0  0  0  0  0  0  0  0  0
  1  2  1  0  0  0  0
  2  3  1  0  0  0  0
  2  4  1  0  0  0  0
  2  5  1  0  0  0  0
  5  6  2  0  0  0  0
  5  7  1  0  0  0  0
  7  8  1  0  0  0  0
  7  9  1  0  0  0  0
  9 10  1  0  0  0  0
  9 11  1  0  0  0  0
  9 29  1  0  0  0  0
 11 12  1  0  0  0  0
 11 13  1  0  0  0  0
 11 14  1  0  0  0  0
 14 15  2  0  0  0  0
 14 28  1  0  0  0  0
 15 16  1  0  0  0  0
 15 17  1  0  0  0  0
 17 18  1  0  0  0  0
 17 19  1  0  0  0  0
 19 20  1  0  0  0  0
 19 28  2  0  0  0  0
 20 21  1  0  0  0  0
 20 22  2  0  0  0  0
 22 23  1  0  0  0  0
 22 24  1  0  0  0  0
 24 25  1  0  0  0  0
 24 26  2  0  0  0  0
 26 27  1  0  0  0  0
 26 28  1  0  0  0  0
 29 30  2  0  0  0  0
 29 31  1  0  0  0  0
 31 32  1  0  0  0  0
 31 33  1  0  0  0  0
 33 34  1  0  0  0  0
 33 35  1  0  0  0  0
 33 36  1  0  0  0  0
M  END
$$$$

  -OEChem-03222214083D

 36 37  0     1  0  0  0  0  0999 V2000
   -3.6988   -4.5285    1.7282 H   0  0  0  0  0  0  0  0  0  0  0  0
   -3.7128   -3.7291    0.9823 C   0  0  0  0  0  0  0  0  0  0  0  0
   -4.5974   -3.1088    1.1437 H   0  0  0  0  0  0  0  0  0  0  0  0
   -3.7676   -4.1802   -0.0110 H   0  0  0  0  0  0  0  0  0  0  0  0
   -2.4597   -2.8824    1.1033 C   0  0  0  0  0  0  0  0  0  0  0  0
   -1.7390   -3.0034    2.0819 O   0  0  0  0  0  0  0  0  0  0  0  0
   -2.1885   -1.9207    0.1510 N   0  0  0  0  0  0  0  0  0  0  0  0
   -2.8671   -1.7851   -0.5937 H   0  0  0  0  0  0  0  0  0  0  0  0
   -0.9791   -1.0837    0.1335 C   0  0  1  0  0  0  0  0  0  0  0  0
   -0.4825   -1.1242    1.1080 H   0  0  0  0  0  0  0  0  0  0  0  0
    0.0262   -1.5375   -0.9452 C   0  0  0  0  0  0  0  0  0  0  0  0
   -0.4310   -1.4476   -1.9361 H   0  0  0  0  0  0  0  0  0  0  0  0
    0.8928   -0.8688   -0.9245 H   0  0  0  0  0  0  0  0  0  0  0  0
    0.4999   -2.9576   -0.7537 C   0  0  0  0  0  0  0  0  0  0  0  0
    1.7320   -3.3318   -0.2730 C   0  0  0  0  0  0  0  0  0  0  0  0
    2.5006   -2.6544    0.0916 H   0  0  0  0  0  0  0  0  0  0  0  0
    1.8048   -4.7218   -0.3223 N   0  0  0  0  0  0  0  0  0  0  0  0
    2.5874   -5.2831    0.0057 H   0  0  0  0  0  0  0  0  0  0  0  0
    0.6520   -5.2444   -0.8837 C   0  0  0  0  0  0  0  0  0  0  0  0
    0.2732   -6.5568   -1.1667 C   0  0  0  0  0  0  0  0  0  0  0  0
    0.9309   -7.3814   -0.9147 H   0  0  0  0  0  0  0  0  0  0  0  0
   -0.9616   -6.7927   -1.7873 C   0  0  0  0  0  0  0  0  0  0  0  0
   -1.2678   -7.8094   -2.0152 H   0  0  0  0  0  0  0  0  0  0  0  0
   -1.7950   -5.7160   -2.1260 C   0  0  0  0  0  0  0  0  0  0  0  0
   -2.7440   -5.9009   -2.6202 H   0  0  0  0  0  0  0  0  0  0  0  0
   -1.4021   -4.4019   -1.8344 C   0  0  0  0  0  0  0  0  0  0  0  0
   -2.0356   -3.5652   -2.1071 H   0  0  0  0  0  0  0  0  0  0  0  0
   -0.1803   -4.1745   -1.1915 C   0  0  0  0  0  0  0  0  0  0  0  0
   -1.3520    0.3837   -0.1458 C   0  0  0  0  0  0  0  0  0  0  0  0
   -2.1598    0.6535   -1.0282 O   0  0  0  0  0  0  0  0  0  0  0  0
   -0.7913    1.4054    0.5988 N   0  0  0  0  0  0  0  0  0  0  0  0
   -0.1961    1.1436    1.3798 H   0  0  0  0  0  0  0  0  0  0  0  0
   -1.1526    2.8072    0.4278 C   0  0  0  0  0  0  0  0  0  0  0  0
   -2.2184    2.9555    0.6305 H   0  0  0  0  0  0  0  0  0  0  0  0
   -0.5785    3.4332    1.1178 H   0  0  0  0  0  0  0  0  0  0  0  0
   -0.9394    3.1358   -0.5948 H   0  0  0  0  0  0  0  0  0  0  0  0
  1  2  1  0  0  0  0
  2  3  1  0  0  0  0
  2  4  1  0  0  0  0
  2  5  1  0  0  0  0
  5  6  2  0  0  0  0
  5  7  1  0  0  0  0
  7  8  1  0  0  0  0
  7  9  1  0  0  0  0
  9 10  1  0  0  0  0
  9 11  1  0  0  0  0
  9 29  1  0  0  0  0
 11 12  1  0  0  0  0
 11 13  1  0  0  0  0
 11 14  1  0  0  0  0
 14 15  2  0  0  0  0
 14 28  1  0  0  0  0
 15 16  1  0  0  0  0
 15 17  1  0  0  0  0
 17 18  1  0  0  0  0
 17 19  1  0  0  0  0
 19 20  1  0  0  0  0
 19 28  2  0  0  0  0
 20 21  1  0  0  0  0
 20 22  2  0  0  0  0
 22 23  1  0  0  0  0
 22 24  1  0  0  0  0
 24 25  1  0  0  0  0
 24 26  2  0  0  0  0
 26 27  1  0  0  0  0
 26 28  1  0  0  0  0
 29 30  2  0  0  0  0
 29 31  1  0  0  0  0
 31 32  1  0  0  0  0
 31 33  1  0  0  0  0
 33 34  1  0  0  0  0
 33 35  1  0  0  0  0
 33 36  1  0  0  0  0
M  END
$$$$

  -OEChem-03222214083D

 36 37  0     1  0  0  0  0  0999 V2000
   -3.5725   -4.6560    1.5203 H   0  0  0  0  0  0  0  0  0  0  0  0
   -3.5430   -3.8993    0.7317 C   0  0  0  0  0  0  0  0  0  0  0  0
   -4.4865   -3.3485    0.7342 H   0  0  0  0  0  0  0  0  0  0  0  0
   -3.4228   -4.4020   -0.2308 H   0  0  0  0  0  0  0  0  0  0  0  0
   -2.3848   -2.9480    0.9649 C   0  0  0  0  0  0  0  0  0  0  0  0
   -1.7103   -3.0465    1.9790 O   0  0  0  0  0  0  0  0  0  0  0  0
   -2.1305   -1.9443    0.0528 N   0  0  0  0  0  0  0  0  0  0  0  0
   -2.7514   -1.8655   -0.7478 H   0  0  0  0  0  0  0  0  0  0  0  0
   -0.9429   -1.0762    0.0840 C   0  0  1  0  0  0  0  0  0  0  0  0
   -0.4471   -1.1462    1.0570 H   0  0  0  0  0  0  0  0  0  0  0  0
    0.0572   -1.4916   -1.0112 C   0  0  0  0  0  0  0  0  0  0  0  0
   -0.3961   -1.3747   -2.0008 H   0  0  0  0  0  0  0  0  0  0  0  0
    0.9256   -0.8265   -0.9698 H   0  0  0  0  0  0  0  0  0  0  0  0
    0.5229   -2.9147   -0.8364 C   0  0  0  0  0  0  0  0  0  0  0  0
    1.6110   -3.3334   -0.1105 C   0  0  0  0  0  0  0  0  0  0  0  0
    2.2802   -2.6892    0.4546 H   0  0  0  0  0  0  0  0  0  0  0  0
    1.6780   -4.7215   -0.2133 N   0  0  0  0  0  0  0  0  0  0  0  0
    2.3590   -5.3129    0.2578 H   0  0  0  0  0  0  0  0  0  0  0  0
    0.6497   -5.1979   -1.0106 C   0  0  0  0  0  0  0  0  0  0  0  0
    0.2970   -6.4893   -1.4034 C   0  0  0  0  0  0  0  0  0  0  0  0
    0.8768   -7.3407   -1.0646 H   0  0  0  0  0  0  0  0  0  0  0  0
   -0.8125   -6.6701   -2.2418 C   0  0  0  0  0  0  0  0  0  0  0  0
   -1.0969   -7.6701   -2.5558 H   0  0  0  0  0  0  0  0  0  0  0  0
   -1.5517   -5.5606   -2.6806 C   0  0  0  0  0  0  0  0  0  0  0  0
   -2.4057   -5.7031   -3.3360 H   0  0  0  0  0  0  0  0  0  0  0  0
   -1.1881   -4.2676   -2.2781 C   0  0  0  0  0  0  0  0  0  0  0  0
   -1.7513   -3.4049   -2.6174 H   0  0  0  0  0  0  0  0  0  0  0  0
   -0.0868   -4.0977   -1.4327 C   0  0  0  0  0  0  0  0  0  0  0  0
   -1.3376    0.3943   -0.1428 C   0  0  0  0  0  0  0  0  0  0  0  0
   -2.1193    0.6878   -1.0408 O   0  0  0  0  0  0  0  0  0  0  0  0
   -0.8059    1.3955    0.6496 N   0  0  0  0  0  0  0  0  0  0  0  0
   -0.2263    1.1142    1.4353 H   0  0  0  0  0  0  0  0  0  0  0  0
   -1.1730    2.7994    0.5132 C   0  0  0  0  0  0  0  0  0  0  0  0
   -2.2459    2.9341    0.6868 H   0  0  0  0  0  0  0  0  0  0  0  0
   -0.6258    3.4064    1.2411 H   0  0  0  0  0  0  0  0  0  0  0  0
   -0.9297    3.1622   -0.4910 H   0  0  0  0  0  0  0  0  0  0  0  0
  1  2  1  0  0  0  0
  2  3  1  0  0  0  0
  2  4  1  0  0  0  0
  2  5  1  0  0  0  0
  5  6  2  0  0  0  0
  5  7  1  0  0  0  0
  7  8  1  0  0  0  0
  7  9  1  0  0  0  0
  9 10  1  0  0  0  0
  9 11  1  0  0  0  0
  9 29  1  0  0  0  0
 11 12  1  0  0  0  0
 11 13  1  0  0  0  0
 11 14  1  0  0  0  0
 14 15  2  0  0  0  0
 14 28  1  0  0  0  0
 15 16  1  0  0  0  0
 15 17  1  0  0  0  0
 17 18  1  0  0  0  0
 17 19  1  0  0  0  0
 19 20  1  0  0  0  0
 19 28  2  0  0  0  0
 20 21  1  0  0  0  0
 20 22  2  0  0  0  0
 22 23  1  0  0  0  0
 22 24  1  0  0  0  0
 24 25  1  0  0  0  0
 24 26  2  0  0  0  0
 26 27  1  0  0  0  0
 26 28  1  0  0  0  0
 29 30  2  0  0  0  0
 29 31  1  0  0  0  0
 31 32  1  0  0  0  0
 31 33  1  0  0  0  0
 33 34  1  0  0  0  0
 33 35  1  0  0  0  0
 33 36  1  0  0  0  0
M  END
$$$$

  -OEChem-03222214083D

 36 37  0     1  0  0  0  0  0999 V2000
   -3.5446   -4.6851    1.3833 H   0  0  0  0  0  0  0  0  0  0  0  0
   -3.4326   -3.9823    0.5534 C   0  0  0  0  0  0  0  0  0  0  0  0
   -4.3858   -3.4742    0.3902 H   0  0  0  0  0  0  0  0  0  0  0  0
   -3.1642   -4.5406   -0.3472 H   0  0  0  0  0  0  0  0  0  0  0  0
   -2.3488   -2.9695    0.8694 C   0  0  0  0  0  0  0  0  0  0  0  0
   -1.7141   -3.0570    1.9104 O   0  0  0  0  0  0  0  0  0  0  0  0
   -2.0982   -1.9424   -0.0168 N   0  0  0  0  0  0  0  0  0  0  0  0
   -2.6611   -1.9076   -0.8621 H   0  0  0  0  0  0  0  0  0  0  0  0
   -0.9245   -1.0576    0.0548 C   0  0  1  0  0  0  0  0  0  0  0  0
   -0.4406   -1.1446    1.0323 H   0  0  0  0  0  0  0  0  0  0  0  0
    0.0817   -1.4561   -1.0392 C   0  0  0  0  0  0  0  0  0  0  0  0
   -0.3655   -1.3259   -2.0297 H   0  0  0  0  0  0  0  0  0  0  0  0
    0.9521   -0.7945   -0.9859 H   0  0  0  0  0  0  0  0  0  0  0  0
    0.5419   -2.8815   -0.8693 C   0  0  0  0  0  0  0  0  0  0  0  0
    1.4287   -3.3465    0.0714 C   0  0  0  0  0  0  0  0  0  0  0  0
    1.9344   -2.7404    0.8192 H   0  0  0  0  0  0  0  0  0  0  0  0
    1.5298   -4.7263   -0.0905 N   0  0  0  0  0  0  0  0  0  0  0  0
    2.0810   -5.3467    0.4983 H   0  0  0  0  0  0  0  0  0  0  0  0
    0.7052   -5.1538   -1.1182 C   0  0  0  0  0  0  0  0  0  0  0  0
    0.4478   -6.4235   -1.6346 C   0  0  0  0  0  0  0  0  0  0  0  0
    0.9448   -7.2930   -1.2191 H   0  0  0  0  0  0  0  0  0  0  0  0
   -0.4605   -6.5592   -2.6938 C   0  0  0  0  0  0  0  0  0  0  0  0
   -0.6693   -7.5419   -3.1062 H   0  0  0  0  0  0  0  0  0  0  0  0
   -1.0983   -5.4270   -3.2235 C   0  0  0  0  0  0  0  0  0  0  0  0
   -1.7983   -5.5356   -4.0465 H   0  0  0  0  0  0  0  0  0  0  0  0
   -0.8322   -4.1554   -2.6959 C   0  0  0  0  0  0  0  0  0  0  0  0
   -1.3218   -3.2776   -3.1046 H   0  0  0  0  0  0  0  0  0  0  0  0
    0.0738   -4.0296   -1.6370 C   0  0  0  0  0  0  0  0  0  0  0  0
   -1.3224    0.4163   -0.1438 C   0  0  0  0  0  0  0  0  0  0  0  0
   -2.0767    0.7323   -1.0570 O   0  0  0  0  0  0  0  0  0  0  0  0
   -0.8085    1.3978    0.6840 N   0  0  0  0  0  0  0  0  0  0  0  0
   -0.2516    1.0954    1.4783 H   0  0  0  0  0  0  0  0  0  0  0  0
   -1.1671    2.8062    0.5712 C   0  0  0  0  0  0  0  0  0  0  0  0
   -2.2369    2.9456    0.7591 H   0  0  0  0  0  0  0  0  0  0  0  0
   -0.6066    3.3979    1.3014 H   0  0  0  0  0  0  0  0  0  0  0  0
   -0.9326    3.1837   -0.4298 H   0  0  0  0  0  0  0  0  0  0  0  0
  1  2  1  0  0  0  0
  2  3  1  0  0  0  0
  2  4  1  0  0  0  0
  2  5  1  0  0  0  0
  5  6  2  0  0  0  0
  5  7  1  0  0  0  0
  7  8  1  0  0  0  0
  7  9  1  0  0  0  0
  9 10  1  0  0  0  0
  9 11  1  0  0  0  0
  9 29  1  0  0  0  0
 11 12  1  0  0  0  0
 11 13  1  0  0  0  0
 11 14  1  0  0  0  0
 14 15  2  0  0  0  0
 14 28  1  0  0  0  0
 15 16  1  0  0  0  0
 15 17  1  0  0  0  0
 17 18  1  0  0  0  0
 17 19  1  0  0  0  0
 19 20  1  0  0  0  0
 19 28  2  0  0  0  0
 20 21  1  0  0  0  0
 20 22  2  0  0  0  0
 22 23  1  0  0  0  0
 22 24  1  0  0  0  0
 24 25  1  0  0  0  0
 24 26  2  0  0  0  0
 26 27  1  0  0  0  0
 26 28  1  0  0  0  0
 29 30  2  0  0  0  0
 29 31  1  0  0  0  0
 31 32  1  0  0  0  0
 31 33  1  0  0  0  0
 33 34  1  0  0  0  0
 33 35  1  0  0  0  0
 33 36  1  0  0  0  0
M  END
$$$$

  -OEChem-03222214083D

 36 37  0     1  0  0  0  0  0999 V2000
   -3.6156   -4.6346    1.4223 H   0  0  0  0  0  0  0  0  0  0  0  0
   -3.5235   -3.9085    0.6101 C   0  0  0  0  0  0  0  0  0  0  0  0
   -4.4644   -3.3612    0.5168 H   0  0  0  0  0  0  0  0  0  0  0  0
   -3.3271   -4.4453   -0.3213 H   0  0  0  0  0  0  0  0  0  0  0  0
   -2.3882   -2.9448    0.8962 C   0  0  0  0  0  0  0  0  0  0  0  0
   -1.7320   -3.0586    1.9215 O   0  0  0  0  0  0  0  0  0  0  0  0
   -2.1189   -1.9280    0.0041 N   0  0  0  0  0  0  0  0  0  0  0  0
   -2.6991   -1.8690   -0.8286 H   0  0  0  0  0  0  0  0  0  0  0  0
   -0.9341   -1.0588    0.0717 C   0  0  1  0  0  0  0  0  0  0  0  0
   -0.4532   -1.1410    1.0511 H   0  0  0  0  0  0  0  0  0  0  0  0
    0.0663   -1.4764   -1.0198 C   0  0  0  0  0  0  0  0  0  0  0  0
   -0.3929   -1.3454   -2.0042 H   0  0  0  0  0  0  0  0  0  0  0  0
    0.9444   -0.8242   -0.9807 H   0  0  0  0  0  0  0  0  0  0  0  0
    0.5160   -2.9074   -0.8548 C   0  0  0  0  0  0  0  0  0  0  0  0
    1.1626   -3.4404    0.2349 C   0  0  0  0  0  0  0  0  0  0  0  0
    1.4342   -2.8992    1.1382 H   0  0  0  0  0  0  0  0  0  0  0  0
    1.3668   -4.7948   -0.0153 N   0  0  0  0  0  0  0  0  0  0  0  0
    1.7832   -5.4543    0.6383 H   0  0  0  0  0  0  0  0  0  0  0  0
    0.8526   -5.1398   -1.2539 C   0  0  0  0  0  0  0  0  0  0  0  0
    0.8076   -6.3584   -1.9307 C   0  0  0  0  0  0  0  0  0  0  0  0
    1.2334   -7.2482   -1.4804 H   0  0  0  0  0  0  0  0  0  0  0  0
    0.2085   -6.4151   -3.1969 C   0  0  0  0  0  0  0  0  0  0  0  0
    0.1692   -7.3571   -3.7362 H   0  0  0  0  0  0  0  0  0  0  0  0
   -0.3382   -5.2557   -3.7682 C   0  0  0  0  0  0  0  0  0  0  0  0
   -0.8004   -5.3015   -4.7497 H   0  0  0  0  0  0  0  0  0  0  0  0
   -0.2881   -4.0365   -3.0771 C   0  0  0  0  0  0  0  0  0  0  0  0
   -0.7098   -3.1396   -3.5182 H   0  0  0  0  0  0  0  0  0  0  0  0
    0.3127   -3.9878   -1.8142 C   0  0  0  0  0  0  0  0  0  0  0  0
   -1.3157    0.4181   -0.1404 C   0  0  0  0  0  0  0  0  0  0  0  0
   -2.0732    0.7315   -1.0520 O   0  0  0  0  0  0  0  0  0  0  0  0
   -0.7945    1.4032    0.6786 N   0  0  0  0  0  0  0  0  0  0  0  0
   -0.2280    1.1063    1.4680 H   0  0  0  0  0  0  0  0  0  0  0  0
   -1.1395    2.8138    0.5504 C   0  0  0  0  0  0  0  0  0  0  0  0
   -2.2096    2.9642    0.7274 H   0  0  0  0  0  0  0  0  0  0  0  0
   -0.5807    3.4074    1.2804 H   0  0  0  0  0  0  0  0  0  0  0  0
   -0.8926    3.1795   -0.4519 H   0  0  0  0  0  0  0  0  0  0  0  0
  1  2  1  0  0  0  0
  2  3  1  0  0  0  0
  2  4  1  0  0  0  0
  2  5  1  0  0  0  0
  5  6  2  0  0  0  0
  5  7  1  0  0  0  0
  7  8  1  0  0  0  0
  7  9  1  0  0  0  0
  9 10  1  0  0  0  0
  9 11  1  0  0  0  0
  9 29  1  0  0  0  0
 11 12  1  0  0  0  0
 11 13  1  0  0  0  0
 11 14  1  0  0  0  0
 14 15  2  0  0  0  0
 14 28  1  0  0  0  0
 15 16  1  0  0  0  0
 15 17  1  0  0  0  0
 17 18  1  0  0  0  0
 17 19  1  0  0  0  0
 19 20  1  0  0  0  0
 19 28  2  0  0  0  0
 20 21  1  0  0  0  0
 20 22  2  0  0  0  0
 22 23  1  0  0  0  0
 22 24  1  0  0  0  0
 24 25  1  0  0  0  0
 24 26  2  0  0  0  0
 26 27  1  0  0  0  0
 26 28  1  0  0  0  0
 29 30  2  0  0  0  0
 29 31  1  0  0  0  0
 31 32  1  0  0  0  0
 31 33  1  0  0  0  0
 33 34  1  0  0  0  0
 33 35  1  0  0  0  0
 33 36  1  0  0  0  0
M  END
$$$$

  -OEChem-03222214083D

 36 37  0     1  0  0  0  0  0999 V2000
   -3.6921   -4.5966    1.4672 H   0  0  0  0  0  0  0  0  0  0  0  0
   -3.6363   -3.8292    0.6904 C   0  0  0  0  0  0  0  0  0  0  0  0
   -4.5612   -3.2475    0.7008 H   0  0  0  0  0  0  0  0  0  0  0  0
   -3.5322   -4.3200   -0.2804 H   0  0  0  0  0  0  0  0  0  0  0  0
   -2.4487   -2.9190    0.9385 C   0  0  0  0  0  0  0  0  0  0  0  0
   -1.7798   -3.0501    1.9538 O   0  0  0  0  0  0  0  0  0  0  0  0
   -2.1512   -1.9209    0.0342 N   0  0  0  0  0  0  0  0  0  0  0  0
   -2.7509   -1.8312   -0.7825 H   0  0  0  0  0  0  0  0  0  0  0  0
   -0.9497   -1.0732    0.0906 C   0  0  1  0  0  0  0  0  0  0  0  0
   -0.4730   -1.1457    1.0726 H   0  0  0  0  0  0  0  0  0  0  0  0
    0.0508   -1.5111   -0.9954 C   0  0  0  0  0  0  0  0  0  0  0  0
   -0.4201   -1.3834   -1.9750 H   0  0  0  0  0  0  0  0  0  0  0  0
    0.9324   -0.8627   -0.9699 H   0  0  0  0  0  0  0  0  0  0  0  0
    0.5013   -2.9450   -0.8459 C   0  0  0  0  0  0  0  0  0  0  0  0
    0.8868   -3.5764    0.3137 C   0  0  0  0  0  0  0  0  0  0  0  0
    0.9011   -3.1289    1.3056 H   0  0  0  0  0  0  0  0  0  0  0  0
    1.2078   -4.8930   -0.0054 N   0  0  0  0  0  0  0  0  0  0  0  0
    1.4870   -5.6052    0.6658 H   0  0  0  0  0  0  0  0  0  0  0  0
    1.0373   -5.1164   -1.3612 C   0  0  0  0  0  0  0  0  0  0  0  0
    1.2215   -6.2566   -2.1435 C   0  0  0  0  0  0  0  0  0  0  0  0
    1.5593   -7.1816   -1.6899 H   0  0  0  0  0  0  0  0  0  0  0  0
    0.9653   -6.1891   -3.5200 C   0  0  0  0  0  0  0  0  0  0  0  0
    1.1048   -7.0685   -4.1416 H   0  0  0  0  0  0  0  0  0  0  0  0
    0.5300   -4.9859   -4.0961 C   0  0  0  0  0  0  0  0  0  0  0  0
    0.3342   -4.9358   -5.1630 H   0  0  0  0  0  0  0  0  0  0  0  0
    0.3466   -3.8466   -3.2990 C   0  0  0  0  0  0  0  0  0  0  0  0
    0.0104   -2.9160   -3.7437 H   0  0  0  0  0  0  0  0  0  0  0  0
    0.6017   -3.9222   -1.9250 C   0  0  0  0  0  0  0  0  0  0  0  0
   -1.3135    0.4044   -0.1475 C   0  0  0  0  0  0  0  0  0  0  0  0
   -2.0796    0.7102   -1.0546 O   0  0  0  0  0  0  0  0  0  0  0  0
   -0.7810    1.3960    0.6559 N   0  0  0  0  0  0  0  0  0  0  0  0
   -0.1972    1.1075    1.4358 H   0  0  0  0  0  0  0  0  0  0  0  0
   -1.1155    2.8071    0.5106 C   0  0  0  0  0  0  0  0  0  0  0  0
   -2.1891    2.9644    0.6584 H   0  0  0  0  0  0  0  0  0  0  0  0
   -0.5735    3.4021    1.2520 H   0  0  0  0  0  0  0  0  0  0  0  0
   -0.8403    3.1647   -0.4872 H   0  0  0  0  0  0  0  0  0  0  0  0
  1  2  1  0  0  0  0
  2  3  1  0  0  0  0
  2  4  1  0  0  0  0
  2  5  1  0  0  0  0
  5  6  2  0  0  0  0
  5  7  1  0  0  0  0
  7  8  1  0  0  0  0
  7  9  1  0  0  0  0
  9 10  1  0  0  0  0
  9 11  1  0  0  0  0
  9 29  1  0  0  0  0
 11 12  1  0  0  0  0
 11 13  1  0  0  0  0
 11 14  1  0  0  0  0
 14 15  2  0  0  0  0
 14 28  1  0  0  0  0
 15 16  1  0  0  0  0
 15 17  1  0  0  0  0
 17 18  1  0  0  0  0
 17 19  1  0  0  0  0
 19 20  1  0  0  0  0
 19 28  2  0  0  0  0
 20 21  1  0  0  0  0
 20 22  2  0  0  0  0
 22 23  1  0  0  0  0
 22 24  1  0  0  0  0
 24 25  1  0  0  0  0
 24 26  2  0  0  0  0
 26 27  1  0  0  0  0
 26 28  1  0  0  0  0
 29 30  2  0  0  0  0
 29 31  1  0  0  0  0
 31 32  1  0  0  0  0
 31 33  1  0  0  0  0
 33 34  1  0  0  0  0
 33 35  1  0  0  0  0
 33 36  1  0  0  0  0
M  END
$$$$

  -OEChem-03222214083D

 36 37  0     1  0  0  0  0  0999 V2000
   -3.8214   -4.5307    1.4985 H   0  0  0  0  0  0  0  0  0  0  0  0
   -3.7130   -3.7892    0.7022 C   0  0  0  0  0  0  0  0  0  0  0  0
   -4.6269   -3.1930    0.6477 H   0  0  0  0  0  0  0  0  0  0  0  0
   -3.5685   -4.3118   -0.2466 H   0  0  0  0  0  0  0  0  0  0  0  0
   -2.5238   -2.8908    0.9818 C   0  0  0  0  0  0  0  0  0  0  0  0
   -1.9009   -3.0100    2.0264 O   0  0  0  0  0  0  0  0  0  0  0  0
   -2.1757   -1.9170    0.0704 N   0  0  0  0  0  0  0  0  0  0  0  0
   -2.7534   -1.8328   -0.7629 H   0  0  0  0  0  0  0  0  0  0  0  0
   -0.9601   -1.0872    0.1278 C   0  0  1  0  0  0  0  0  0  0  0  0
   -0.4974   -1.1499    1.1173 H   0  0  0  0  0  0  0  0  0  0  0  0
    0.0490   -1.5493   -0.9436 C   0  0  0  0  0  0  0  0  0  0  0  0
   -0.4208   -1.4275   -1.9249 H   0  0  0  0  0  0  0  0  0  0  0  0
    0.9301   -0.8999   -0.9206 H   0  0  0  0  0  0  0  0  0  0  0  0
    0.5125   -2.9827   -0.8150 C   0  0  0  0  0  0  0  0  0  0  0  0
    0.6410   -3.7381    0.3281 C   0  0  0  0  0  0  0  0  0  0  0  0
    0.4315   -3.4008    1.3413 H   0  0  0  0  0  0  0  0  0  0  0  0
    1.0764   -5.0072   -0.0440 N   0  0  0  0  0  0  0  0  0  0  0  0
    1.2433   -5.7791    0.5980 H   0  0  0  0  0  0  0  0  0  0  0  0
    1.2323   -5.0802   -1.4174 C   0  0  0  0  0  0  0  0  0  0  0  0
    1.6370   -6.1213   -2.2531 C   0  0  0  0  0  0  0  0  0  0  0  0
    1.8976   -7.0874   -1.8355 H   0  0  0  0  0  0  0  0  0  0  0  0
    1.7021   -5.9009   -3.6361 C   0  0  0  0  0  0  0  0  0  0  0  0
    2.0162   -6.7019   -4.2986 H   0  0  0  0  0  0  0  0  0  0  0  0
    1.3621   -4.6467   -4.1651 C   0  0  0  0  0  0  0  0  0  0  0  0
    1.4123   -4.4783   -5.2364 H   0  0  0  0  0  0  0  0  0  0  0  0
    0.9563   -3.6080   -3.3149 C   0  0  0  0  0  0  0  0  0  0  0  0
    0.6929   -2.6373   -3.7215 H   0  0  0  0  0  0  0  0  0  0  0  0
    0.8933   -3.8355   -1.9358 C   0  0  0  0  0  0  0  0  0  0  0  0
   -1.2994    0.3895   -0.1520 C   0  0  0  0  0  0  0  0  0  0  0  0
   -2.0508    0.6828   -1.0755 O   0  0  0  0  0  0  0  0  0  0  0  0
   -0.7674    1.3945    0.6351 N   0  0  0  0  0  0  0  0  0  0  0  0
   -0.2006    1.1186    1.4321 H   0  0  0  0  0  0  0  0  0  0  0  0
   -1.0838    2.8053    0.4499 C   0  0  0  0  0  0  0  0  0  0  0  0
   -2.1543    2.9811    0.6000 H   0  0  0  0  0  0  0  0  0  0  0  0
   -0.5289    3.4146    1.1695 H   0  0  0  0  0  0  0  0  0  0  0  0
   -0.8106    3.1301   -0.5597 H   0  0  0  0  0  0  0  0  0  0  0  0
  1  2  1  0  0  0  0
  2  3  1  0  0  0  0
  2  4  1  0  0  0  0
  2  5  1  0  0  0  0
  5  6  2  0  0  0  0
  5  7  1  0  0  0  0
  7  8  1  0  0  0  0
  7  9  1  0  0  0  0
  9 10  1  0  0  0  0
  9 11  1  0  0  0  0
  9 29  1  0  0  0  0
 11 12  1  0  0  0  0
 11 13  1  0  0  0  0
 11 14  1  0  0  0  0
 14 15  2  0  0  0  0
 14 28  1  0  0  0  0
 15 16  1  0  0  0  0
 15 17  1  0  0  0  0
 17 18  1  0  0  0  0
 17 19  1  0  0  0  0
 19 20  1  0  0  0  0
 19 28  2  0  0  0  0
 20 21  1  0  0  0  0
 20 22  2  0  0  0  0
 22 23  1  0  0  0  0
 22 24  1  0  0  0  0
 24 25  1  0  0  0  0
 24 26  2  0  0  0  0
 26 27  1  0  0  0  0
 26 28  1  0  0  0  0
 29 30  2  0  0  0  0
 29 31  1  0  0  0  0
 31 32  1  0  0  0  0
 31 33  1  0  0  0  0
 33 34  1  0  0  0  0
 33 35  1  0  0  0  0
 33 36  1  0  0  0  0
M  END
$$$$

  -OEChem-03222214083D

 36 37  0     1  0  0  0  0  0999 V2000
   -4.0161   -4.4186    1.5602 H   0  0  0  0  0  0  0  0  0  0  0  0
   -3.8319   -3.7283    0.7324 C   0  0  0  0  0  0  0  0  0  0  0  0
   -4.7178   -3.1051    0.5884 H   0  0  0  0  0  0  0  0  0  0  0  0
   -3.6509   -4.3085   -0.1759 H   0  0  0  0  0  0  0  0  0  0  0  0
   -2.6287   -2.8562    1.0352 C   0  0  0  0  0  0  0  0  0  0  0  0
   -2.0563   -2.9559    2.1094 O   0  0  0  0  0  0  0  0  0  0  0  0
   -2.2193   -1.9177    0.1135 N   0  0  0  0  0  0  0  0  0  0  0  0
   -2.7751   -1.8364   -0.7351 H   0  0  0  0  0  0  0  0  0  0  0  0
   -0.9834   -1.1162    0.1704 C   0  0  1  0  0  0  0  0  0  0  0  0
   -0.5391   -1.1682    1.1692 H   0  0  0  0  0  0  0  0  0  0  0  0
    0.0424   -1.6065   -0.8770 C   0  0  0  0  0  0  0  0  0  0  0  0
   -0.4073   -1.4839   -1.8679 H   0  0  0  0  0  0  0  0  0  0  0  0
    0.9236   -0.9579   -0.8386 H   0  0  0  0  0  0  0  0  0  0  0  0
    0.5223   -3.0371   -0.7709 C   0  0  0  0  0  0  0  0  0  0  0  0
    0.4156   -3.9301    0.2706 C   0  0  0  0  0  0  0  0  0  0  0  0
   -0.0059   -3.7232    1.2495 H   0  0  0  0  0  0  0  0  0  0  0  0
    0.9790   -5.1368   -0.1369 N   0  0  0  0  0  0  0  0  0  0  0  0
    1.0482   -5.9744    0.4374 H   0  0  0  0  0  0  0  0  0  0  0  0
    1.4463   -5.0365   -1.4354 C   0  0  0  0  0  0  0  0  0  0  0  0
    2.0763   -5.9576   -2.2722 C   0  0  0  0  0  0  0  0  0  0  0  0
    2.2787   -6.9638   -1.9227 H   0  0  0  0  0  0  0  0  0  0  0  0
    2.4417   -5.5652   -3.5677 C   0  0  0  0  0  0  0  0  0  0  0  0
    2.9319   -6.2719   -4.2304 H   0  0  0  0  0  0  0  0  0  0  0  0
    2.1739   -4.2603   -4.0092 C   0  0  0  0  0  0  0  0  0  0  0  0
    2.4560   -3.9589   -5.0134 H   0  0  0  0  0  0  0  0  0  0  0  0
    1.5415   -3.3428   -3.1578 C   0  0  0  0  0  0  0  0  0  0  0  0
    1.3324   -2.3331   -3.4959 H   0  0  0  0  0  0  0  0  0  0  0  0
    1.1802   -3.7424   -1.8663 C   0  0  0  0  0  0  0  0  0  0  0  0
   -1.2856    0.3587   -0.1620 C   0  0  0  0  0  0  0  0  0  0  0  0
   -2.0174    0.6392   -1.1051 O   0  0  0  0  0  0  0  0  0  0  0  0
   -0.7463    1.3756    0.6045 N   0  0  0  0  0  0  0  0  0  0  0  0
   -0.1963    1.1117    1.4170 H   0  0  0  0  0  0  0  0  0  0  0  0
   -1.0194    2.7876    0.3667 C   0  0  0  0  0  0  0  0  0  0  0  0
   -2.0851    2.9997    0.5022 H   0  0  0  0  0  0  0  0  0  0  0  0
   -0.4511    3.4058    1.0683 H   0  0  0  0  0  0  0  0  0  0  0  0
   -0.7304    3.0677   -0.6518 H   0  0  0  0  0  0  0  0  0  0  0  0
  1  2  1  0  0  0  0
  2  3  1  0  0  0  0
  2  4  1  0  0  0  0
  2  5  1  0  0  0  0
  5  6  2  0  0  0  0
  5  7  1  0  0  0  0
  7  8  1  0  0  0  0
  7  9  1  0  0  0  0
  9 10  1  0  0  0  0
  9 11  1  0  0  0  0
  9 29  1  0  0  0  0
 11 12  1  0  0  0  0
 11 13  1  0  0  0  0
 11 14  1  0  0  0  0
 14 15  2  0  0  0  0
 14 28  1  0  0  0  0
 15 16  1  0  0  0  0
 15 17  1  0  0  0  0
 17 18  1  0  0  0  0
 17 19  1  0  0  0  0
 19 20  1  0  0  0  0
 19 28  2  0  0  0  0
 20 21  1  0  0  0  0
 20 22  2  0  0  0  0
 22 23  1  0  0  0  0
 22 24  1  0  0  0  0
 24 25  1  0  0  0  0
 24 26  2  0  0  0  0
 26 27  1  0  0  0  0
 26 28  1  0  0  0  0
 29 30  2  0  0  0  0
 29 31  1  0  0  0  0
 31 32  1  0  0  0  0
 31 33  1  0  0  0  0
 33 34  1  0  0  0  0
 33 35  1  0  0  0  0
 33 36  1  0  0  0  0
M  END
$$$$

  -OEChem-03222214083D

 36 37  0     1  0  0  0  0  0999 V2000
   -4.2140   -4.2770    1.6369 H   0  0  0  0  0  0  0  0  0  0  0  0
   -3.9928   -3.6124    0.7971 C   0  0  0  0  0  0  0  0  0  0  0  0
   -4.8339   -2.9289    0.6575 H   0  0  0  0  0  0  0  0  0  0  0  0
   -3.8676   -4.2151   -0.1058 H   0  0  0  0  0  0  0  0  0  0  0  0
   -2.7260   -2.8249    1.0720 C   0  0  0  0  0  0  0  0  0  0  0  0
   -2.1427   -2.9581    2.1362 O   0  0  0  0  0  0  0  0  0  0  0  0
   -2.2711   -1.9183    0.1404 N   0  0  0  0  0  0  0  0  0  0  0  0
   -2.8444   -1.7875   -0.6907 H   0  0  0  0  0  0  0  0  0  0  0  0
   -1.0075   -1.1601    0.1903 C   0  0  1  0  0  0  0  0  0  0  0  0
   -0.5749   -1.2096    1.1945 H   0  0  0  0  0  0  0  0  0  0  0  0
    0.0293   -1.6716   -0.8394 C   0  0  0  0  0  0  0  0  0  0  0  0
   -0.3951   -1.5330   -1.8398 H   0  0  0  0  0  0  0  0  0  0  0  0
    0.9142   -1.0304   -0.7721 H   0  0  0  0  0  0  0  0  0  0  0  0
    0.5130   -3.1042   -0.7610 C   0  0  0  0  0  0  0  0  0  0  0  0
    0.2015   -4.1273    0.1052 C   0  0  0  0  0  0  0  0  0  0  0  0
   -0.4439   -4.0637    0.9721 H   0  0  0  0  0  0  0  0  0  0  0  0
    0.9006   -5.2633   -0.2954 N   0  0  0  0  0  0  0  0  0  0  0  0
    0.8781   -6.1627    0.1804 H   0  0  0  0  0  0  0  0  0  0  0  0
    1.6586   -4.9916   -1.4196 C   0  0  0  0  0  0  0  0  0  0  0  0
    2.5125   -5.7876   -2.1834 C   0  0  0  0  0  0  0  0  0  0  0  0
    2.6719   -6.8271   -1.9197 H   0  0  0  0  0  0  0  0  0  0  0  0
    3.1580   -5.2262   -3.2941 C   0  0  0  0  0  0  0  0  0  0  0  0
    3.8249   -5.8338   -3.8987 H   0  0  0  0  0  0  0  0  0  0  0  0
    2.9427   -3.8797   -3.6259 C   0  0  0  0  0  0  0  0  0  0  0  0
    3.4427   -3.4469   -4.4869 H   0  0  0  0  0  0  0  0  0  0  0  0
    2.0830   -3.0898   -2.8491 C   0  0  0  0  0  0  0  0  0  0  0  0
    1.9140   -2.0485   -3.1031 H   0  0  0  0  0  0  0  0  0  0  0  0
    1.4434   -3.6575   -1.7414 C   0  0  0  0  0  0  0  0  0  0  0  0
   -1.2693    0.3154   -0.1719 C   0  0  0  0  0  0  0  0  0  0  0  0
   -2.0018    0.5965   -1.1145 O   0  0  0  0  0  0  0  0  0  0  0  0
   -0.7059    1.3325    0.5765 N   0  0  0  0  0  0  0  0  0  0  0  0
   -0.1563    1.0705    1.3902 H   0  0  0  0  0  0  0  0  0  0  0  0
   -0.9460    2.7457    0.3124 C   0  0  0  0  0  0  0  0  0  0  0  0
   -2.0077    2.9836    0.4365 H   0  0  0  0  0  0  0  0  0  0  0  0
   -0.3688    3.3637    1.0068 H   0  0  0  0  0  0  0  0  0  0  0  0
   -0.6443    3.0013   -0.7089 H   0  0  0  0  0  0  0  0  0  0  0  0
  1  2  1  0  0  0  0
  2  3  1  0  0  0  0
  2  4  1  0  0  0  0
  2  5  1  0  0  0  0
  5  6  2  0  0  0  0
  5  7  1  0  0  0  0
  7  8  1  0  0  0  0
  7  9  1  0  0  0  0
  9 10  1  0  0  0  0
  9 11  1  0  0  0  0
  9 29  1  0  0  0  0
 11 12  1  0  0  0  0
 11 13  1  0  0  0  0
 11 14  1  0  0  0  0
 14 15  2  0  0  0  0
 14 28  1  0  0  0  0
 15 16  1  0  0  0  0
 15 17  1  0  0  0  0
 17 18  1  0  0  0  0
 17 19  1  0  0  0  0
 19 20  1  0  0  0  0
 19 28  2  0  0  0  0
 20 21  1  0  0  0  0
 20 22  2  0  0  0  0
 22 23  1  0  0  0  0
 22 24  1  0  0  0  0
 24 25  1  0  0  0  0
 24 26  2  0  0  0  0
 26 27  1  0  0  0  0
 26 28  1  0  0  0  0
 29 30  2  0  0  0  0
 29 31  1  0  0  0  0
 31 32  1  0  0  0  0
 31 33  1  0  0  0  0
 33 34  1  0  0  0  0
 33 35  1  0  0  0  0
 33 36  1  0  0  0  0
M  END
$$$$

  -OEChem-03222214083D

 36 37  0     1  0  0  0  0  0999 V2000
   -4.3177   -4.2043    1.6347 H   0  0  0  0  0  0  0  0  0  0  0  0
   -4.1114   -3.5035    0.8209 C   0  0  0  0  0  0  0  0  0  0  0  0
   -4.9134   -2.7623    0.7823 H   0  0  0  0  0  0  0  0  0  0  0  0
   -4.0888   -4.0552   -0.1221 H   0  0  0  0  0  0  0  0  0  0  0  0
   -2.7793   -2.8152    1.0490 C   0  0  0  0  0  0  0  0  0  0  0  0
   -2.1383   -3.0480    2.0612 O   0  0  0  0  0  0  0  0  0  0  0  0
   -2.3101   -1.9112    0.1219 N   0  0  0  0  0  0  0  0  0  0  0  0
   -2.9286   -1.6830   -0.6544 H   0  0  0  0  0  0  0  0  0  0  0  0
   -1.0237   -1.1924    0.1684 C   0  0  1  0  0  0  0  0  0  0  0  0
   -0.5937   -1.2613    1.1730 H   0  0  0  0  0  0  0  0  0  0  0  0
    0.0201   -1.6998   -0.8584 C   0  0  0  0  0  0  0  0  0  0  0  0
   -0.3784   -1.5295   -1.8644 H   0  0  0  0  0  0  0  0  0  0  0  0
    0.9080   -1.0682   -0.7510 H   0  0  0  0  0  0  0  0  0  0  0  0
    0.4983   -3.1375   -0.8133 C   0  0  0  0  0  0  0  0  0  0  0  0
    0.0079   -4.2538   -0.1738 C   0  0  0  0  0  0  0  0  0  0  0  0
   -0.8485   -4.2995    0.4848 H   0  0  0  0  0  0  0  0  0  0  0  0
    0.8220   -5.3358   -0.4980 N   0  0  0  0  0  0  0  0  0  0  0  0
    0.7066   -6.2827   -0.1435 H   0  0  0  0  0  0  0  0  0  0  0  0
    1.8330   -4.9391   -1.3522 C   0  0  0  0  0  0  0  0  0  0  0  0
    2.8764   -5.6463   -1.9490 C   0  0  0  0  0  0  0  0  0  0  0  0
    2.9922   -6.7082   -1.7631 H   0  0  0  0  0  0  0  0  0  0  0  0
    3.7688   -4.9663   -2.7892 C   0  0  0  0  0  0  0  0  0  0  0  0
    4.5863   -5.5037   -3.2606 H   0  0  0  0  0  0  0  0  0  0  0  0
    3.6053   -3.5925   -3.0226 C   0  0  0  0  0  0  0  0  0  0  0  0
    4.2975   -3.0678   -3.6740 H   0  0  0  0  0  0  0  0  0  0  0  0
    2.5508   -2.8938   -2.4170 C   0  0  0  0  0  0  0  0  0  0  0  0
    2.4222   -1.8321   -2.5990 H   0  0  0  0  0  0  0  0  0  0  0  0
    1.6658   -3.5784   -1.5756 C   0  0  0  0  0  0  0  0  0  0  0  0
   -1.2589    0.2925   -0.1738 C   0  0  0  0  0  0  0  0  0  0  0  0
   -2.0149    0.5999   -1.0894 O   0  0  0  0  0  0  0  0  0  0  0  0
   -0.6648    1.2879    0.5798 N   0  0  0  0  0  0  0  0  0  0  0  0
   -0.1015    1.0021    1.3760 H   0  0  0  0  0  0  0  0  0  0  0  0
   -0.9056    2.7087    0.3601 C   0  0  0  0  0  0  0  0  0  0  0  0
   -1.9658    2.9438    0.5007 H   0  0  0  0  0  0  0  0  0  0  0  0
   -0.3220    3.3044    1.0684 H   0  0  0  0  0  0  0  0  0  0  0  0
   -0.6122    2.9955   -0.6553 H   0  0  0  0  0  0  0  0  0  0  0  0
  1  2  1  0  0  0  0
  2  3  1  0  0  0  0
  2  4  1  0  0  0  0
  2  5  1  0  0  0  0
  5  6  2  0  0  0  0
  5  7  1  0  0  0  0
  7  8  1  0  0  0  0
  7  9  1  0  0  0  0
  9 10  1  0  0  0  0
  9 11  1  0  0  0  0
  9 29  1  0  0  0  0
 11 12  1  0  0  0  0
 11 13  1  0  0  0  0
 11 14  1  0  0  0  0
 14 15  2  0  0  0  0
 14 28  1  0  0  0  0
 15 16  1  0  0  0  0
 15 17  1  0  0  0  0
 17 18  1  0  0  0  0
 17 19  1  0  0  0  0
 19 20  1  0  0  0  0
 19 28  2  0  0  0  0
 20 21  1  0  0  0  0
 20 22  2  0  0  0  0
 22 23  1  0  0  0  0
 22 24  1  0  0  0  0
 24 25  1  0  0  0  0
 24 26  2  0  0  0  0
 26 27  1  0  0  0  0
 26 28  1  0  0  0  0
 29 30  2  0  0  0  0
 29 31  1  0  0  0  0
 31 32  1  0  0  0  0
 31 33  1  0  0  0  0
 33 34  1  0  0  0  0
 33 35  1  0  0  0  0
 33 36  1  0  0  0  0
M  END
$$$$

  -OEChem-03222214083D

 36 37  0     1  0  0  0  0  0999 V2000
   -4.3275   -4.1943    1.6244 H   0  0  0  0  0  0  0  0  0  0  0  0
   -4.1445   -3.4551    0.8395 C   0  0  0  0  0  0  0  0  0  0  0  0
   -4.8996   -2.6687    0.9141 H   0  0  0  0  0  0  0  0  0  0  0  0
   -4.2330   -3.9446   -0.1335 H   0  0  0  0  0  0  0  0  0  0  0  0
   -2.7585   -2.8588    0.9951 C   0  0  0  0  0  0  0  0  0  0  0  0
   -2.0492   -3.2016    1.9262 O   0  0  0  0  0  0  0  0  0  0  0  0
   -2.3143   -1.9236    0.0859 N   0  0  0  0  0  0  0  0  0  0  0  0
   -2.9826   -1.6055   -0.6145 H   0  0  0  0  0  0  0  0  0  0  0  0
   -1.0269   -1.2071    0.1316 C   0  0  1  0  0  0  0  0  0  0  0  0
   -0.5881   -1.3030    1.1301 H   0  0  0  0  0  0  0  0  0  0  0  0
    0.0195   -1.6756   -0.9109 C   0  0  0  0  0  0  0  0  0  0  0  0
   -0.3765   -1.4817   -1.9132 H   0  0  0  0  0  0  0  0  0  0  0  0
    0.8979   -1.0359   -0.7823 H   0  0  0  0  0  0  0  0  0  0  0  0
    0.5037   -3.1125   -0.8964 C   0  0  0  0  0  0  0  0  0  0  0  0
   -0.1215   -4.2766   -0.5109 C   0  0  0  0  0  0  0  0  0  0  0  0
   -1.1256   -4.3701   -0.1185 H   0  0  0  0  0  0  0  0  0  0  0  0
    0.7615   -5.3343   -0.7110 N   0  0  0  0  0  0  0  0  0  0  0  0
    0.5709   -6.3076   -0.4840 H   0  0  0  0  0  0  0  0  0  0  0  0
    1.9536   -4.8735   -1.2363 C   0  0  0  0  0  0  0  0  0  0  0  0
    3.1221   -5.5394   -1.6058 C   0  0  0  0  0  0  0  0  0  0  0  0
    3.1975   -6.6148   -1.4911 H   0  0  0  0  0  0  0  0  0  0  0  0
    4.1926   -4.8013   -2.1283 C   0  0  0  0  0  0  0  0  0  0  0  0
    5.1085   -5.3059   -2.4210 H   0  0  0  0  0  0  0  0  0  0  0  0
    4.0800   -3.4110   -2.2761 C   0  0  0  0  0  0  0  0  0  0  0  0
    4.9094   -2.8409   -2.6835 H   0  0  0  0  0  0  0  0  0  0  0  0
    2.8991   -2.7539   -1.9008 C   0  0  0  0  0  0  0  0  0  0  0  0
    2.8128   -1.6795   -2.0210 H   0  0  0  0  0  0  0  0  0  0  0  0
    1.8342   -3.4957   -1.3734 C   0  0  0  0  0  0  0  0  0  0  0  0
   -1.2741    0.2871   -0.1554 C   0  0  0  0  0  0  0  0  0  0  0  0
   -2.0647    0.6204   -1.0319 O   0  0  0  0  0  0  0  0  0  0  0  0
   -0.6685    1.2602    0.6181 N   0  0  0  0  0  0  0  0  0  0  0  0
   -0.0732    0.9520    1.3822 H   0  0  0  0  0  0  0  0  0  0  0  0
   -0.9109    2.6871    0.4440 C   0  0  0  0  0  0  0  0  0  0  0  0
   -1.9664    2.9210    0.6179 H   0  0  0  0  0  0  0  0  0  0  0  0
   -0.3077    3.2622    1.1531 H   0  0  0  0  0  0  0  0  0  0  0  0
   -0.6424    3.0006   -0.5703 H   0  0  0  0  0  0  0  0  0  0  0  0
  1  2  1  0  0  0  0
  2  3  1  0  0  0  0
  2  4  1  0  0  0  0
  2  5  1  0  0  0  0
  5  6  2  0  0  0  0
  5  7  1  0  0  0  0
  7  8  1  0  0  0  0
  7  9  1  0  0  0  0
  9 10  1  0  0  0  0
  9 11  1  0  0  0  0
  9 29  1  0  0  0  0
 11 12  1  0  0  0  0
 11 13  1  0  0  0  0
 11 14  1  0  0  0  0
 14 15  2  0  0  0  0
 14 28  1  0  0  0  0
 15 16  1  0  0  0  0
 15 17  1  0  0  0  0
 17 18  1  0  0  0  0
 17 19  1  0  0  0  0
 19 20  1  0  0  0  0
 19 28  2  0  0  0  0
 20 21  1  0  0  0  0
 20 22  2  0  0  0  0
 22 23  1  0  0  0  0
 22 24  1  0  0  0  0
 24 25  1  0  0  0  0
 24 26  2  0  0  0  0
 26 27  1  0  0  0  0
 26 28  1  0  0  0  0
 29 30  2  0  0  0  0
 29 31  1  0  0  0  0
 31 32  1  0  0  0  0
 31 33  1  0  0  0  0
 33 34  1  0  0  0  0
 33 35  1  0  0  0  0
 33 36  1  0  0  0  0
M  END
$$$$

  -OEChem-03222214083D

 36 37  0     1  0  0  0  0  0999 V2000
   -4.1810   -4.2962    1.5812 H   0  0  0  0  0  0  0  0  0  0  0  0
   -4.0472   -3.5235    0.8188 C   0  0  0  0  0  0  0  0  0  0  0  0
   -4.8091   -2.7531    0.9608 H   0  0  0  0  0  0  0  0  0  0  0  0
   -4.1751   -3.9754   -0.1676 H   0  0  0  0  0  0  0  0  0  0  0  0
   -2.6646   -2.9104    0.9340 C   0  0  0  0  0  0  0  0  0  0  0  0
   -1.9105   -3.2768    1.8190 O   0  0  0  0  0  0  0  0  0  0  0  0
   -2.2778   -1.9319    0.0433 N   0  0  0  0  0  0  0  0  0  0  0  0
   -2.9828   -1.5912   -0.6087 H   0  0  0  0  0  0  0  0  0  0  0  0
   -1.0091   -1.1831    0.0869 C   0  0  1  0  0  0  0  0  0  0  0  0
   -0.5501   -1.3002    1.0741 H   0  0  0  0  0  0  0  0  0  0  0  0
    0.0288   -1.6019   -0.9820 C   0  0  0  0  0  0  0  0  0  0  0  0
   -0.3906   -1.4072   -1.9745 H   0  0  0  0  0  0  0  0  0  0  0  0
    0.8963   -0.9460   -0.8674 H   0  0  0  0  0  0  0  0  0  0  0  0
    0.5195   -3.0352   -0.9729 C   0  0  0  0  0  0  0  0  0  0  0  0
   -0.1954   -4.2033   -0.8433 C   0  0  0  0  0  0  0  0  0  0  0  0
   -1.2699   -4.2826   -0.7256 H   0  0  0  0  0  0  0  0  0  0  0  0
    0.6975   -5.2696   -0.9030 N   0  0  0  0  0  0  0  0  0  0  0  0
    0.4481   -6.2508   -0.8021 H   0  0  0  0  0  0  0  0  0  0  0  0
    1.9884   -4.8056   -1.0765 C   0  0  0  0  0  0  0  0  0  0  0  0
    3.2042   -5.4795   -1.1939 C   0  0  0  0  0  0  0  0  0  0  0  0
    3.2345   -6.5627   -1.1506 H   0  0  0  0  0  0  0  0  0  0  0  0
    4.3808   -4.7389   -1.3696 C   0  0  0  0  0  0  0  0  0  0  0  0
    5.3345   -5.2495   -1.4636 H   0  0  0  0  0  0  0  0  0  0  0  0
    4.3268   -3.3383   -1.4251 C   0  0  0  0  0  0  0  0  0  0  0  0
    5.2392   -2.7662   -1.5626 H   0  0  0  0  0  0  0  0  0  0  0  0
    3.0979   -2.6732   -1.3043 C   0  0  0  0  0  0  0  0  0  0  0  0
    3.0609   -1.5903   -1.3490 H   0  0  0  0  0  0  0  0  0  0  0  0
    1.9243   -3.4175   -1.1277 C   0  0  0  0  0  0  0  0  0  0  0  0
   -1.2951    0.3138   -0.1393 C   0  0  0  0  0  0  0  0  0  0  0  0
   -2.1145    0.6591   -0.9842 O   0  0  0  0  0  0  0  0  0  0  0  0
   -0.6938    1.2710    0.6566 N   0  0  0  0  0  0  0  0  0  0  0  0
   -0.0660    0.9486    1.3881 H   0  0  0  0  0  0  0  0  0  0  0  0
   -0.9697    2.6974    0.5410 C   0  0  0  0  0  0  0  0  0  0  0  0
   -2.0299    2.8994    0.7267 H   0  0  0  0  0  0  0  0  0  0  0  0
   -0.3782    3.2573    1.2718 H   0  0  0  0  0  0  0  0  0  0  0  0
   -0.7119    3.0574   -0.4606 H   0  0  0  0  0  0  0  0  0  0  0  0
  1  2  1  0  0  0  0
  2  3  1  0  0  0  0
  2  4  1  0  0  0  0
  2  5  1  0  0  0  0
  5  6  2  0  0  0  0
  5  7  1  0  0  0  0
  7  8  1  0  0  0  0
  7  9  1  0  0  0  0
  9 10  1  0  0  0  0
  9 11  1  0  0  0  0
  9 29  1  0  0  0  0
 11 12  1  0  0  0  0
 11 13  1  0  0  0  0
 11 14  1  0  0  0  0
 14 15  2  0  0  0  0
 14 28  1  0  0  0  0
 15 16  1  0  0  0  0
 15 17  1  0  0  0  0
 17 18  1  0  0  0  0
 17 19  1  0  0  0  0
 19 20  1  0  0  0  0
 19 28  2  0  0  0  0
 20 21  1  0  0  0  0
 20 22  2  0  0  0  0
 22 23  1  0  0  0  0
 22 24  1  0  0  0  0
 24 25  1  0  0  0  0
 24 26  2  0  0  0  0
 26 27  1  0  0  0  0
 26 28  1  0  0  0  0
 29 30  2  0  0  0  0
 29 31  1  0  0  0  0
 31 32  1  0  0  0  0
 31 33  1  0  0  0  0
 33 34  1  0  0  0  0
 33 35  1  0  0  0  0
 33 36  1  0  0  0  0
M  END
$$$$

  -OEChem-03222214083D

 36 37  0     1  0  0  0  0  0999 V2000
   -3.9644   -4.4287    1.5321 H   0  0  0  0  0  0  0  0  0  0  0  0
   -3.8745   -3.6496    0.7699 C   0  0  0  0  0  0  0  0  0  0  0  0
   -4.6838   -2.9283    0.9068 H   0  0  0  0  0  0  0  0  0  0  0  0
   -3.9677   -4.1096   -0.2166 H   0  0  0  0  0  0  0  0  0  0  0  0
   -2.5328   -2.9525    0.8927 C   0  0  0  0  0  0  0  0  0  0  0  0
   -1.7619   -3.2772    1.7795 O   0  0  0  0  0  0  0  0  0  0  0  0
   -2.2103   -1.9366    0.0173 N   0  0  0  0  0  0  0  0  0  0  0  0
   -2.9370   -1.6205   -0.6223 H   0  0  0  0  0  0  0  0  0  0  0  0
   -0.9711   -1.1403    0.0573 C   0  0  1  0  0  0  0  0  0  0  0  0
   -0.4833   -1.2654    1.0294 H   0  0  0  0  0  0  0  0  0  0  0  0
    0.0420   -1.5184   -1.0462 C   0  0  0  0  0  0  0  0  0  0  0  0
   -0.4201   -1.3392   -2.0226 H   0  0  0  0  0  0  0  0  0  0  0  0
    0.9032   -0.8480   -0.9730 H   0  0  0  0  0  0  0  0  0  0  0  0
    0.5331   -2.9483   -1.0249 C   0  0  0  0  0  0  0  0  0  0  0  0
   -0.2142   -4.0963   -1.1453 C   0  0  0  0  0  0  0  0  0  0  0  0
   -1.2901   -4.1363   -1.2852 H   0  0  0  0  0  0  0  0  0  0  0  0
    0.6498   -5.1847   -1.0633 N   0  0  0  0  0  0  0  0  0  0  0  0
    0.3694   -6.1623   -1.0862 H   0  0  0  0  0  0  0  0  0  0  0  0
    1.9513   -4.7503   -0.8838 C   0  0  0  0  0  0  0  0  0  0  0  0
    3.1473   -5.4538   -0.7417 C   0  0  0  0  0  0  0  0  0  0  0  0
    3.1499   -6.5377   -0.7646 H   0  0  0  0  0  0  0  0  0  0  0  0
    4.3417   -4.7416   -0.5692 C   0  0  0  0  0  0  0  0  0  0  0  0
    5.2805   -5.2757   -0.4580 H   0  0  0  0  0  0  0  0  0  0  0  0
    4.3252   -3.3393   -0.5391 C   0  0  0  0  0  0  0  0  0  0  0  0
    5.2523   -2.7905   -0.4045 H   0  0  0  0  0  0  0  0  0  0  0  0
    3.1158   -2.6435   -0.6811 C   0  0  0  0  0  0  0  0  0  0  0  0
    3.1065   -1.5595   -0.6556 H   0  0  0  0  0  0  0  0  0  0  0  0
    1.9252   -3.3600   -0.8549 C   0  0  0  0  0  0  0  0  0  0  0  0
   -1.3079    0.3516   -0.1220 C   0  0  0  0  0  0  0  0  0  0  0  0
   -2.1444    0.6929   -0.9515 O   0  0  0  0  0  0  0  0  0  0  0  0
   -0.7230    1.3070    0.6883 N   0  0  0  0  0  0  0  0  0  0  0  0
   -0.0835    0.9851    1.4099 H   0  0  0  0  0  0  0  0  0  0  0  0
   -1.0384    2.7277    0.6067 C   0  0  0  0  0  0  0  0  0  0  0  0
   -2.1065    2.8945    0.7817 H   0  0  0  0  0  0  0  0  0  0  0  0
   -0.4738    3.2842    1.3611 H   0  0  0  0  0  0  0  0  0  0  0  0
   -0.7768    3.1219   -0.3810 H   0  0  0  0  0  0  0  0  0  0  0  0
  1  2  1  0  0  0  0
  2  3  1  0  0  0  0
  2  4  1  0  0  0  0
  2  5  1  0  0  0  0
  5  6  2  0  0  0  0
  5  7  1  0  0  0  0
  7  8  1  0  0  0  0
  7  9  1  0  0  0  0
  9 10  1  0  0  0  0
  9 11  1  0  0  0  0
  9 29  1  0  0  0  0
 11 12  1  0  0  0  0
 11 13  1  0  0  0  0
 11 14  1  0  0  0  0
 14 15  2  0  0  0  0
 14 28  1  0  0  0  0
 15 16  1  0  0  0  0
 15 17  1  0  0  0  0
 17 18  1  0  0  0  0
 17 19  1  0  0  0  0
 19 20  1  0  0  0  0
 19 28  2  0  0  0  0
 20 21  1  0  0  0  0
 20 22  2  0  0  0  0
 22 23  1  0  0  0  0
 22 24  1  0  0  0  0
 24 25  1  0  0  0  0
 24 26  2  0  0  0  0
 26 27  1  0  0  0  0
 26 28  1  0  0  0  0
 29 30  2  0  0  0  0
 29 31  1  0  0  0  0
 31 32  1  0  0  0  0
 31 33  1  0  0  0  0
 33 34  1  0  0  0  0
 33 35  1  0  0  0  0
 33 36  1  0  0  0  0
M  END
$$$$

  -OEChem-03222214083D

 36 37  0     1  0  0  0  0  0999 V2000
   -3.8015   -4.5243    1.4820 H   0  0  0  0  0  0  0  0  0  0  0  0
   -3.7363   -3.7410    0.7217 C   0  0  0  0  0  0  0  0  0  0  0  0
   -4.5843   -3.0624    0.8419 H   0  0  0  0  0  0  0  0  0  0  0  0
   -3.7845   -4.2048   -0.2662 H   0  0  0  0  0  0  0  0  0  0  0  0
   -2.4354   -2.9753    0.8715 C   0  0  0  0  0  0  0  0  0  0  0  0
   -1.6720   -3.2518    1.7811 O   0  0  0  0  0  0  0  0  0  0  0  0
   -2.1526   -1.9401    0.0050 N   0  0  0  0  0  0  0  0  0  0  0  0
   -2.8791   -1.6643   -0.6523 H   0  0  0  0  0  0  0  0  0  0  0  0
   -0.9388   -1.1068    0.0489 C   0  0  1  0  0  0  0  0  0  0  0  0
   -0.4348   -1.2316    1.0129 H   0  0  0  0  0  0  0  0  0  0  0  0
    0.0556   -1.4681   -1.0727 C   0  0  0  0  0  0  0  0  0  0  0  0
   -0.4309   -1.3042   -2.0401 H   0  0  0  0  0  0  0  0  0  0  0  0
    0.9168   -0.7947   -1.0279 H   0  0  0  0  0  0  0  0  0  0  0  0
    0.5413   -2.8957   -1.0240 C   0  0  0  0  0  0  0  0  0  0  0  0
   -0.1640   -4.0168   -1.3909 C   0  0  0  0  0  0  0  0  0  0  0  0
   -1.1812   -4.0218   -1.7728 H   0  0  0  0  0  0  0  0  0  0  0  0
    0.6557   -5.1234   -1.1843 N   0  0  0  0  0  0  0  0  0  0  0  0
    0.3899   -6.0924   -1.3424 H   0  0  0  0  0  0  0  0  0  0  0  0
    1.8818   -4.7244   -0.6791 C   0  0  0  0  0  0  0  0  0  0  0  0
    3.0127   -5.4533   -0.3107 C   0  0  0  0  0  0  0  0  0  0  0  0
    3.0208   -6.5334   -0.4052 H   0  0  0  0  0  0  0  0  0  0  0  0
    4.1335   -4.7720    0.1842 C   0  0  0  0  0  0  0  0  0  0  0  0
    5.0200   -5.3270    0.4760 H   0  0  0  0  0  0  0  0  0  0  0  0
    4.1090   -3.3743    0.3061 C   0  0  0  0  0  0  0  0  0  0  0  0
    4.9769   -2.8493    0.6932 H   0  0  0  0  0  0  0  0  0  0  0  0
    2.9659   -2.6526   -0.0675 C   0  0  0  0  0  0  0  0  0  0  0  0
    2.9442   -1.5728    0.0285 H   0  0  0  0  0  0  0  0  0  0  0  0
    1.8520   -3.3391   -0.5628 C   0  0  0  0  0  0  0  0  0  0  0  0
   -1.3099    0.3785   -0.1105 C   0  0  0  0  0  0  0  0  0  0  0  0
   -2.1395    0.7131   -0.9495 O   0  0  0  0  0  0  0  0  0  0  0  0
   -0.7444    1.3372    0.7094 N   0  0  0  0  0  0  0  0  0  0  0  0
   -0.1121    1.0192    1.4389 H   0  0  0  0  0  0  0  0  0  0  0  0
   -1.0831    2.7529    0.6360 C   0  0  0  0  0  0  0  0  0  0  0  0
   -2.1570    2.8994    0.7934 H   0  0  0  0  0  0  0  0  0  0  0  0
   -0.5421    3.3120    1.4056 H   0  0  0  0  0  0  0  0  0  0  0  0
   -0.8111    3.1609   -0.3432 H   0  0  0  0  0  0  0  0  0  0  0  0
  1  2  1  0  0  0  0
  2  3  1  0  0  0  0
  2  4  1  0  0  0  0
  2  5  1  0  0  0  0
  5  6  2  0  0  0  0
  5  7  1  0  0  0  0
  7  8  1  0  0  0  0
  7  9  1  0  0  0  0
  9 10  1  0  0  0  0
  9 11  1  0  0  0  0
  9 29  1  0  0  0  0
 11 12  1  0  0  0  0
 11 13  1  0  0  0  0
 11 14  1  0  0  0  0
 14 15  2  0  0  0  0
 14 28  1  0  0  0  0
 15 16  1  0  0  0  0
 15 17  1  0  0  0  0
 17 18  1  0  0  0  0
 17 19  1  0  0  0  0
 19 20  1  0  0  0  0
 19 28  2  0  0  0  0
 20 21  1  0  0  0  0
 20 22  2  0  0  0  0
 22 23  1  0  0  0  0
 22 24  1  0  0  0  0
 24 25  1  0  0  0  0
 24 26  2  0  0  0  0
 26 27  1  0  0  0  0
 26 28  1  0  0  0  0
 29 30  2  0  0  0  0
 29 31  1  0  0  0  0
 31 32  1  0  0  0  0
 31 33  1  0  0  0  0
 33 34  1  0  0  0  0
 33 35  1  0  0  0  0
 33 36  1  0  0  0  0
M  END
$$$$

  -OEChem-03222214083D

 36 37  0     1  0  0  0  0  0999 V2000
   -3.6666   -4.5930    1.4508 H   0  0  0  0  0  0  0  0  0  0  0  0
   -3.6200   -3.8124    0.6862 C   0  0  0  0  0  0  0  0  0  0  0  0
   -4.5039   -3.1767    0.7774 H   0  0  0  0  0  0  0  0  0  0  0  0
   -3.6175   -4.2847   -0.2988 H   0  0  0  0  0  0  0  0  0  0  0  0
   -2.3635   -2.9814    0.8648 C   0  0  0  0  0  0  0  0  0  0  0  0
   -1.6169   -3.2077    1.8023 O   0  0  0  0  0  0  0  0  0  0  0  0
   -2.1097   -1.9366    0.0007 N   0  0  0  0  0  0  0  0  0  0  0  0
   -2.8226   -1.7093   -0.6885 H   0  0  0  0  0  0  0  0  0  0  0  0
   -0.9113   -1.0817    0.0398 C   0  0  1  0  0  0  0  0  0  0  0  0
   -0.3922   -1.2048    0.9961 H   0  0  0  0  0  0  0  0  0  0  0  0
    0.0628   -1.4400   -1.0975 C   0  0  0  0  0  0  0  0  0  0  0  0
   -0.4416   -1.2851   -2.0573 H   0  0  0  0  0  0  0  0  0  0  0  0
    0.9281   -0.7702   -1.0739 H   0  0  0  0  0  0  0  0  0  0  0  0
    0.5405   -2.8672   -1.0259 C   0  0  0  0  0  0  0  0  0  0  0  0
   -0.0523   -3.9559   -1.6189 C   0  0  0  0  0  0  0  0  0  0  0  0
   -0.9511   -3.9282   -2.2296 H   0  0  0  0  0  0  0  0  0  0  0  0
    0.7038   -5.0796   -1.2936 N   0  0  0  0  0  0  0  0  0  0  0  0
    0.4956   -6.0341   -1.5770 H   0  0  0  0  0  0  0  0  0  0  0  0
    1.7725   -4.7226   -0.4872 C   0  0  0  0  0  0  0  0  0  0  0  0
    2.7892   -5.4799    0.0948 C   0  0  0  0  0  0  0  0  0  0  0  0
    2.8295   -6.5519   -0.0610 H   0  0  0  0  0  0  0  0  0  0  0  0
    3.7526   -4.8375    0.8851 C   0  0  0  0  0  0  0  0  0  0  0  0
    4.5467   -5.4153    1.3484 H   0  0  0  0  0  0  0  0  0  0  0  0
    3.6891   -3.4495    1.0823 C   0  0  0  0  0  0  0  0  0  0  0  0
    4.4348   -2.9558    1.6979 H   0  0  0  0  0  0  0  0  0  0  0  0
    2.6630   -2.6985    0.4908 C   0  0  0  0  0  0  0  0  0  0  0  0
    2.6081   -1.6265    0.6434 H   0  0  0  0  0  0  0  0  0  0  0  0
    1.7061   -3.3473   -0.2960 C   0  0  0  0  0  0  0  0  0  0  0  0
   -1.2991    0.4005   -0.1070 C   0  0  0  0  0  0  0  0  0  0  0  0
   -2.1325    0.7333   -0.9430 O   0  0  0  0  0  0  0  0  0  0  0  0
   -0.7374    1.3598    0.7152 N   0  0  0  0  0  0  0  0  0  0  0  0
   -0.1097    1.0408    1.4482 H   0  0  0  0  0  0  0  0  0  0  0  0
   -1.1053    2.7694    0.6654 C   0  0  0  0  0  0  0  0  0  0  0  0
   -2.1694    2.8958    0.8910 H   0  0  0  0  0  0  0  0  0  0  0  0
   -0.5258    3.3377    1.3993 H   0  0  0  0  0  0  0  0  0  0  0  0
   -0.9036    3.1830   -0.3284 H   0  0  0  0  0  0  0  0  0  0  0  0
  1  2  1  0  0  0  0
  2  3  1  0  0  0  0
  2  4  1  0  0  0  0
  2  5  1  0  0  0  0
  5  6  2  0  0  0  0
  5  7  1  0  0  0  0
  7  8  1  0  0  0  0
  7  9  1  0  0  0  0
  9 10  1  0  0  0  0
  9 11  1  0  0  0  0
  9 29  1  0  0  0  0
 11 12  1  0  0  0  0
 11 13  1  0  0  0  0
 11 14  1  0  0  0  0
 14 15  2  0  0  0  0
 14 28  1  0  0  0  0
 15 16  1  0  0  0  0
 15 17  1  0  0  0  0
 17 18  1  0  0  0  0
 17 19  1  0  0  0  0
 19 20  1  0  0  0  0
 19 28  2  0  0  0  0
 20 21  1  0  0  0  0
 20 22  2  0  0  0  0
 22 23  1  0  0  0  0
 22 24  1  0  0  0  0
 24 25  1  0  0  0  0
 24 26  2  0  0  0  0
 26 27  1  0  0  0  0
 26 28  1  0  0  0  0
 29 30  2  0  0  0  0
 29 31  1  0  0  0  0
 31 32  1  0  0  0  0
 31 33  1  0  0  0  0
 33 34  1  0  0  0  0
 33 35  1  0  0  0  0
 33 36  1  0  0  0  0
M  END
$$$$

  -OEChem-03222214083D

 36 37  0     1  0  0  0  0  0999 V2000
   -3.6036   -4.6393    1.4292 H   0  0  0  0  0  0  0  0  0  0  0  0
   -3.5640   -3.8574    0.6656 C   0  0  0  0  0  0  0  0  0  0  0  0
   -4.4795   -3.2636    0.7207 H   0  0  0  0  0  0  0  0  0  0  0  0
   -3.5008   -4.3299   -0.3175 H   0  0  0  0  0  0  0  0  0  0  0  0
   -2.3550   -2.9690    0.8907 C   0  0  0  0  0  0  0  0  0  0  0  0
   -1.6498   -3.1422    1.8713 O   0  0  0  0  0  0  0  0  0  0  0  0
   -2.1030   -1.9291    0.0202 N   0  0  0  0  0  0  0  0  0  0  0  0
   -2.7800   -1.7562   -0.7185 H   0  0  0  0  0  0  0  0  0  0  0  0
   -0.9130   -1.0641    0.0675 C   0  0  1  0  0  0  0  0  0  0  0  0
   -0.3998   -1.1773    1.0277 H   0  0  0  0  0  0  0  0  0  0  0  0
    0.0614   -1.4272   -1.0674 C   0  0  0  0  0  0  0  0  0  0  0  0
   -0.4372   -1.2711   -2.0298 H   0  0  0  0  0  0  0  0  0  0  0  0
    0.9295   -0.7612   -1.0372 H   0  0  0  0  0  0  0  0  0  0  0  0
    0.5390   -2.8537   -0.9854 C   0  0  0  0  0  0  0  0  0  0  0  0
    0.1257   -3.8874   -1.7908 C   0  0  0  0  0  0  0  0  0  0  0  0
   -0.6026   -3.8084   -2.5944 H   0  0  0  0  0  0  0  0  0  0  0  0
    0.8082   -5.0340   -1.3915 N   0  0  0  0  0  0  0  0  0  0  0  0
    0.7040   -5.9579   -1.8044 H   0  0  0  0  0  0  0  0  0  0  0  0
    1.6555   -4.7448   -0.3339 C   0  0  0  0  0  0  0  0  0  0  0  0
    2.5301   -5.5479    0.3982 C   0  0  0  0  0  0  0  0  0  0  0  0
    2.6273   -6.6026    0.1669 H   0  0  0  0  0  0  0  0  0  0  0  0
    3.2768   -4.9736    1.4364 C   0  0  0  0  0  0  0  0  0  0  0  0
    3.9590   -5.5872    2.0172 H   0  0  0  0  0  0  0  0  0  0  0  0
    3.1405   -3.6077    1.7291 C   0  0  0  0  0  0  0  0  0  0  0  0
    3.7165   -3.1673    2.5372 H   0  0  0  0  0  0  0  0  0  0  0  0
    2.2582   -2.8106    0.9853 C   0  0  0  0  0  0  0  0  0  0  0  0
    2.1461   -1.7562    1.2114 H   0  0  0  0  0  0  0  0  0  0  0  0
    1.5179   -3.3909   -0.0494 C   0  0  0  0  0  0  0  0  0  0  0  0
   -1.3086    0.4145   -0.0949 C   0  0  0  0  0  0  0  0  0  0  0  0
   -2.1166    0.7396   -0.9584 O   0  0  0  0  0  0  0  0  0  0  0  0
   -0.7634    1.3834    0.7272 N   0  0  0  0  0  0  0  0  0  0  0  0
   -0.1508    1.0737    1.4765 H   0  0  0  0  0  0  0  0  0  0  0  0
   -1.1180    2.7947    0.6433 C   0  0  0  0  0  0  0  0  0  0  0  0
   -2.1848    2.9354    0.8467 H   0  0  0  0  0  0  0  0  0  0  0  0
   -0.5466    3.3722    1.3765 H   0  0  0  0  0  0  0  0  0  0  0  0
   -0.8943    3.1870   -0.3543 H   0  0  0  0  0  0  0  0  0  0  0  0
  1  2  1  0  0  0  0
  2  3  1  0  0  0  0
  2  4  1  0  0  0  0
  2  5  1  0  0  0  0
  5  6  2  0  0  0  0
  5  7  1  0  0  0  0
  7  8  1  0  0  0  0
  7  9  1  0  0  0  0
  9 10  1  0  0  0  0
  9 11  1  0  0  0  0
  9 29  1  0  0  0  0
 11 12  1  0  0  0  0
 11 13  1  0  0  0  0
 11 14  1  0  0  0  0
 14 15  2  0  0  0  0
 14 28  1  0  0  0  0
 15 16  1  0  0  0  0
 15 17  1  0  0  0  0
 17 18  1  0  0  0  0
 17 19  1  0  0  0  0
 19 20  1  0  0  0  0
 19 28  2  0  0  0  0
 20 21  1  0  0  0  0
 20 22  2  0  0  0  0
 22 23  1  0  0  0  0
 22 24  1  0  0  0  0
 24 25  1  0  0  0  0
 24 26  2  0  0  0  0
 26 27  1  0  0  0  0
 26 28  1  0  0  0  0
 29 30  2  0  0  0  0
 29 31  1  0  0  0  0
 31 32  1  0  0  0  0
 31 33  1  0  0  0  0
 33 34  1  0  0  0  0
 33 35  1  0  0  0  0
 33 36  1  0  0  0  0
M  END
$$$$

  -OEChem-03222214083D

 36 37  0     1  0  0  0  0  0999 V2000
   -3.6258   -4.6138    1.4433 H   0  0  0  0  0  0  0  0  0  0  0  0
   -3.5640   -3.8588    0.6545 C   0  0  0  0  0  0  0  0  0  0  0  0
   -4.4985   -3.2936    0.6325 H   0  0  0  0  0  0  0  0  0  0  0  0
   -3.4264   -4.3633   -0.3046 H   0  0  0  0  0  0  0  0  0  0  0  0
   -2.3993   -2.9238    0.9181 C   0  0  0  0  0  0  0  0  0  0  0  0
   -1.7521   -3.0363    1.9469 O   0  0  0  0  0  0  0  0  0  0  0  0
   -2.1279   -1.9036    0.0301 N   0  0  0  0  0  0  0  0  0  0  0  0
   -2.7466   -1.7952   -0.7691 H   0  0  0  0  0  0  0  0  0  0  0  0
   -0.9372   -1.0412    0.0930 C   0  0  1  0  0  0  0  0  0  0  0  0
   -0.4497   -1.1344    1.0669 H   0  0  0  0  0  0  0  0  0  0  0  0
    0.0543   -1.4328   -1.0188 C   0  0  0  0  0  0  0  0  0  0  0  0
   -0.4182   -1.2767   -1.9943 H   0  0  0  0  0  0  0  0  0  0  0  0
    0.9271   -0.7742   -0.9700 H   0  0  0  0  0  0  0  0  0  0  0  0
    0.5312   -2.8608   -0.9218 C   0  0  0  0  0  0  0  0  0  0  0  0
    0.3511   -3.8140   -1.8956 C   0  0  0  0  0  0  0  0  0  0  0  0
   -0.1692   -3.6613   -2.8382 H   0  0  0  0  0  0  0  0  0  0  0  0
    0.9571   -4.9888   -1.4592 N   0  0  0  0  0  0  0  0  0  0  0  0
    0.9873   -5.8653   -1.9750 H   0  0  0  0  0  0  0  0  0  0  0  0
    1.5379   -4.7954   -0.2168 C   0  0  0  0  0  0  0  0  0  0  0  0
    2.2563   -5.6608    0.6081 C   0  0  0  0  0  0  0  0  0  0  0  0
    2.4336   -6.6859    0.3031 H   0  0  0  0  0  0  0  0  0  0  0  0
    2.7423   -5.1881    1.8345 C   0  0  0  0  0  0  0  0  0  0  0  0
    3.2997   -5.8510    2.4893 H   0  0  0  0  0  0  0  0  0  0  0  0
    2.5045   -3.8601    2.2188 C   0  0  0  0  0  0  0  0  0  0  0  0
    2.8747   -3.4969    3.1724 H   0  0  0  0  0  0  0  0  0  0  0  0
    1.7829   -2.9998    1.3793 C   0  0  0  0  0  0  0  0  0  0  0  0
    1.5975   -1.9759    1.6811 H   0  0  0  0  0  0  0  0  0  0  0  0
    1.2985   -3.4769    0.1566 C   0  0  0  0  0  0  0  0  0  0  0  0
   -1.3198    0.4364   -0.1083 C   0  0  0  0  0  0  0  0  0  0  0  0
   -2.0932    0.7539   -1.0056 O   0  0  0  0  0  0  0  0  0  0  0  0
   -0.7895    1.4146    0.7128 N   0  0  0  0  0  0  0  0  0  0  0  0
   -0.2120    1.1096    1.4913 H   0  0  0  0  0  0  0  0  0  0  0  0
   -1.1468    2.8240    0.6113 C   0  0  0  0  0  0  0  0  0  0  0  0
   -2.2182    2.9613    0.7915 H   0  0  0  0  0  0  0  0  0  0  0  0
   -0.5933    3.4079    1.3531 H   0  0  0  0  0  0  0  0  0  0  0  0
   -0.9032    3.2109   -0.3838 H   0  0  0  0  0  0  0  0  0  0  0  0
  1  2  1  0  0  0  0
  2  3  1  0  0  0  0
  2  4  1  0  0  0  0
  2  5  1  0  0  0  0
  5  6  2  0  0  0  0
  5  7  1  0  0  0  0
  7  8  1  0  0  0  0
  7  9  1  0  0  0  0
  9 10  1  0  0  0  0
  9 11  1  0  0  0  0
  9 29  1  0  0  0  0
 11 12  1  0  0  0  0
 11 13  1  0  0  0  0
 11 14  1  0  0  0  0
 14 15  2  0  0  0  0
 14 28  1  0  0  0  0
 15 16  1  0  0  0  0
 15 17  1  0  0  0  0
 17 18  1  0  0  0  0
 17 19  1  0  0  0  0
 19 20  1  0  0  0  0
 19 28  2  0  0  0  0
 20 21  1  0  0  0  0
 20 22  2  0  0  0  0
 22 23  1  0  0  0  0
 22 24  1  0  0  0  0
 24 25  1  0  0  0  0
 24 26  2  0  0  0  0
 26 27  1  0  0  0  0
 26 28  1  0  0  0  0
 29 30  2  0  0  0  0
 29 31  1  0  0  0  0
 31 32  1  0  0  0  0
 31 33  1  0  0  0  0
 33 34  1  0  0  0  0
 33 35  1  0  0  0  0
 33 36  1  0  0  0  0
M  END
$$$$

  -OEChem-03222214083D

 36 37  0     1  0  0  0  0  0999 V2000
   -3.7238   -4.5597    1.4599 H   0  0  0  0  0  0  0  0  0  0  0  0
   -3.6320   -3.8258    0.6545 C   0  0  0  0  0  0  0  0  0  0  0  0
   -4.5776   -3.2873    0.5571 H   0  0  0  0  0  0  0  0  0  0  0  0
   -3.4215   -4.3539   -0.2784 H   0  0  0  0  0  0  0  0  0  0  0  0
   -2.5100   -2.8529    0.9628 C   0  0  0  0  0  0  0  0  0  0  0  0
   -1.9483   -2.8969    2.0459 O   0  0  0  0  0  0  0  0  0  0  0  0
   -2.1892   -1.8666    0.0536 N   0  0  0  0  0  0  0  0  0  0  0  0
   -2.7311   -1.8270   -0.8052 H   0  0  0  0  0  0  0  0  0  0  0  0
   -0.9917   -1.0161    0.1420 C   0  0  1  0  0  0  0  0  0  0  0  0
   -0.5432   -1.0793    1.1349 H   0  0  0  0  0  0  0  0  0  0  0  0
    0.0317   -1.4427   -0.9282 C   0  0  0  0  0  0  0  0  0  0  0  0
   -0.4021   -1.2833   -1.9212 H   0  0  0  0  0  0  0  0  0  0  0  0
    0.9064   -0.7891   -0.8475 H   0  0  0  0  0  0  0  0  0  0  0  0
    0.5171   -2.8715   -0.8276 C   0  0  0  0  0  0  0  0  0  0  0  0
    0.6188   -3.6986   -1.9218 C   0  0  0  0  0  0  0  0  0  0  0  0
    0.3324   -3.4363   -2.9378 H   0  0  0  0  0  0  0  0  0  0  0  0
    1.1614   -4.9075   -1.5011 N   0  0  0  0  0  0  0  0  0  0  0  0
    1.3602   -5.7069   -2.0987 H   0  0  0  0  0  0  0  0  0  0  0  0
    1.4383   -4.8591   -0.1468 C   0  0  0  0  0  0  0  0  0  0  0  0
    2.0012   -5.8150    0.6985 C   0  0  0  0  0  0  0  0  0  0  0  0
    2.2893   -6.7862    0.3123 H   0  0  0  0  0  0  0  0  0  0  0  0
    2.1882   -5.5030    2.0507 C   0  0  0  0  0  0  0  0  0  0  0  0
    2.6203   -6.2370    2.7239 H   0  0  0  0  0  0  0  0  0  0  0  0
    1.8135   -4.2423    2.5356 C   0  0  0  0  0  0  0  0  0  0  0  0
    1.9507   -4.0016    3.5854 H   0  0  0  0  0  0  0  0  0  0  0  0
    1.2519   -3.2899    1.6732 C   0  0  0  0  0  0  0  0  0  0  0  0
    0.9608   -2.3240    2.0666 H   0  0  0  0  0  0  0  0  0  0  0  0
    1.0583   -3.6032    0.3214 C   0  0  0  0  0  0  0  0  0  0  0  0
   -1.3490    0.4587   -0.1240 C   0  0  0  0  0  0  0  0  0  0  0  0
   -2.0657    0.7566   -1.0737 O   0  0  0  0  0  0  0  0  0  0  0  0
   -0.8454    1.4595    0.6868 N   0  0  0  0  0  0  0  0  0  0  0  0
   -0.3090    1.1778    1.5027 H   0  0  0  0  0  0  0  0  0  0  0  0
   -1.1581    2.8709    0.5020 C   0  0  0  0  0  0  0  0  0  0  0  0
   -2.2310    3.0458    0.6341 H   0  0  0  0  0  0  0  0  0  0  0  0
   -0.6150    3.4769    1.2335 H   0  0  0  0  0  0  0  0  0  0  0  0
   -0.8674    3.1997   -0.5013 H   0  0  0  0  0  0  0  0  0  0  0  0
  1  2  1  0  0  0  0
  2  3  1  0  0  0  0
  2  4  1  0  0  0  0
  2  5  1  0  0  0  0
  5  6  2  0  0  0  0
  5  7  1  0  0  0  0
  7  8  1  0  0  0  0
  7  9  1  0  0  0  0
  9 10  1  0  0  0  0
  9 11  1  0  0  0  0
  9 29  1  0  0  0  0
 11 12  1  0  0  0  0
 11 13  1  0  0  0  0
 11 14  1  0  0  0  0
 14 15  2  0  0  0  0
 14 28  1  0  0  0  0
 15 16  1  0  0  0  0
 15 17  1  0  0  0  0
 17 18  1  0  0  0  0
 17 19  1  0  0  0  0
 19 20  1  0  0  0  0
 19 28  2  0  0  0  0
 20 21  1  0  0  0  0
 20 22  2  0  0  0  0
 22 23  1  0  0  0  0
 22 24  1  0  0  0  0
 24 25  1  0  0  0  0
 24 26  2  0  0  0  0
 26 27  1  0  0  0  0
 26 28  1  0  0  0  0
 29 30  2  0  0  0  0
 29 31  1  0  0  0  0
 31 32  1  0  0  0  0
 31 33  1  0  0  0  0
 33 34  1  0  0  0  0
 33 35  1  0  0  0  0
 33 36  1  0  0  0  0
M  END
$$$$

  -OEChem-03222214083D

 36 37  0     1  0  0  0  0  0999 V2000
   -3.9053   -4.4542    1.4441 H   0  0  0  0  0  0  0  0  0  0  0  0
   -3.7144   -3.7831    0.6020 C   0  0  0  0  0  0  0  0  0  0  0  0
   -4.6447   -3.2754    0.3364 H   0  0  0  0  0  0  0  0  0  0  0  0
   -3.3728   -4.3766   -0.2494 H   0  0  0  0  0  0  0  0  0  0  0  0
   -2.6556   -2.7644    0.9777 C   0  0  0  0  0  0  0  0  0  0  0  0
   -2.2296   -2.7230    2.1210 O   0  0  0  0  0  0  0  0  0  0  0  0
   -2.2617   -1.8137    0.0606 N   0  0  0  0  0  0  0  0  0  0  0  0
   -2.7062   -1.8487   -0.8525 H   0  0  0  0  0  0  0  0  0  0  0  0
   -1.0429   -0.9957    0.1762 C   0  0  1  0  0  0  0  0  0  0  0  0
   -0.6247   -1.0496    1.1829 H   0  0  0  0  0  0  0  0  0  0  0  0
   -0.0053   -1.4711   -0.8626 C   0  0  0  0  0  0  0  0  0  0  0  0
   -0.4095   -1.3055   -1.8672 H   0  0  0  0  0  0  0  0  0  0  0  0
    0.8809   -0.8360   -0.7628 H   0  0  0  0  0  0  0  0  0  0  0  0
    0.4618   -2.9087   -0.7668 C   0  0  0  0  0  0  0  0  0  0  0  0
    0.8496   -3.6059   -1.8877 C   0  0  0  0  0  0  0  0  0  0  0  0
    0.7964   -3.2331   -2.9084 H   0  0  0  0  0  0  0  0  0  0  0  0
    1.3178   -4.8514   -1.4883 N   0  0  0  0  0  0  0  0  0  0  0  0
    1.6729   -5.5768   -2.1076 H   0  0  0  0  0  0  0  0  0  0  0  0
    1.2967   -4.9446   -0.1097 C   0  0  0  0  0  0  0  0  0  0  0  0
    1.7083   -5.9819    0.7269 C   0  0  0  0  0  0  0  0  0  0  0  0
    2.0977   -6.9028    0.3078 H   0  0  0  0  0  0  0  0  0  0  0  0
    1.6165   -5.8148    2.1134 C   0  0  0  0  0  0  0  0  0  0  0  0
    1.9275   -6.6124    2.7814 H   0  0  0  0  0  0  0  0  0  0  0  0
    1.1287   -4.6113    2.6390 C   0  0  0  0  0  0  0  0  0  0  0  0
    1.0570   -4.4766    3.7140 H   0  0  0  0  0  0  0  0  0  0  0  0
    0.7242   -3.5766    1.7841 C   0  0  0  0  0  0  0  0  0  0  0  0
    0.3540   -2.6560    2.2168 H   0  0  0  0  0  0  0  0  0  0  0  0
    0.7894   -3.7479    0.3946 C   0  0  0  0  0  0  0  0  0  0  0  0
   -1.3473    0.4811   -0.1441 C   0  0  0  0  0  0  0  0  0  0  0  0
   -2.0112    0.7767   -1.1322 O   0  0  0  0  0  0  0  0  0  0  0  0
   -0.8467    1.4863    0.6631 N   0  0  0  0  0  0  0  0  0  0  0  0
   -0.3650    1.2064    1.5130 H   0  0  0  0  0  0  0  0  0  0  0  0
   -1.1393    2.8989    0.4543 C   0  0  0  0  0  0  0  0  0  0  0  0
   -2.2170    3.0810    0.5220 H   0  0  0  0  0  0  0  0  0  0  0  0
   -0.6375    3.5045    1.2151 H   0  0  0  0  0  0  0  0  0  0  0  0
   -0.7877    3.2225   -0.5311 H   0  0  0  0  0  0  0  0  0  0  0  0
  1  2  1  0  0  0  0
  2  3  1  0  0  0  0
  2  4  1  0  0  0  0
  2  5  1  0  0  0  0
  5  6  2  0  0  0  0
  5  7  1  0  0  0  0
  7  8  1  0  0  0  0
  7  9  1  0  0  0  0
  9 10  1  0  0  0  0
  9 11  1  0  0  0  0
  9 29  1  0  0  0  0
 11 12  1  0  0  0  0
 11 13  1  0  0  0  0
 11 14  1  0  0  0  0
 14 15  2  0  0  0  0
 14 28  1  0  0  0  0
 15 16  1  0  0  0  0
 15 17  1  0  0  0  0
 17 18  1  0  0  0  0
 17 19  1  0  0  0  0
 19 20  1  0  0  0  0
 19 28  2  0  0  0  0
 20 21  1  0  0  0  0
 20 22  2  0  0  0  0
 22 23  1  0  0  0  0
 22 24  1  0  0  0  0
 24 25  1  0  0  0  0
 24 26  2  0  0  0  0
 26 27  1  0  0  0  0
 26 28  1  0  0  0  0
 29 30  2  0  0  0  0
 29 31  1  0  0  0  0
 31 32  1  0  0  0  0
 31 33  1  0  0  0  0
 33 34  1  0  0  0  0
 33 35  1  0  0  0  0
 33 36  1  0  0  0  0
M  END
$$$$

  -OEChem-03222214083D

 36 37  0     1  0  0  0  0  0999 V2000
   -4.0742   -4.4875    1.2204 H   0  0  0  0  0  0  0  0  0  0  0  0
   -3.8046   -3.8190    0.3980 C   0  0  0  0  0  0  0  0  0  0  0  0
   -4.7125   -3.3516    0.0093 H   0  0  0  0  0  0  0  0  0  0  0  0
   -3.3360   -4.4086   -0.3938 H   0  0  0  0  0  0  0  0  0  0  0  0
   -2.8413   -2.7547    0.8866 C   0  0  0  0  0  0  0  0  0  0  0  0
   -2.5995   -2.6524    2.0787 O   0  0  0  0  0  0  0  0  0  0  0  0
   -2.3587   -1.8093    0.0088 N   0  0  0  0  0  0  0  0  0  0  0  0
   -2.6829   -1.8920   -0.9508 H   0  0  0  0  0  0  0  0  0  0  0  0
   -1.1415   -1.0032    0.2124 C   0  0  1  0  0  0  0  0  0  0  0  0
   -0.7815   -1.0744    1.2415 H   0  0  0  0  0  0  0  0  0  0  0  0
   -0.0539   -1.4776   -0.7801 C   0  0  0  0  0  0  0  0  0  0  0  0
   -0.4098   -1.2913   -1.7995 H   0  0  0  0  0  0  0  0  0  0  0  0
    0.8265   -0.8445   -0.6273 H   0  0  0  0  0  0  0  0  0  0  0  0
    0.4237   -2.9145   -0.7194 C   0  0  0  0  0  0  0  0  0  0  0  0
    1.1375   -3.4436   -1.7708 C   0  0  0  0  0  0  0  0  0  0  0  0
    1.3195   -2.9424   -2.7192 H   0  0  0  0  0  0  0  0  0  0  0  0
    1.5563   -4.7210   -1.4235 N   0  0  0  0  0  0  0  0  0  0  0  0
    2.0965   -5.3483   -2.0157 H   0  0  0  0  0  0  0  0  0  0  0  0
    1.2226   -4.9833   -0.1100 C   0  0  0  0  0  0  0  0  0  0  0  0
    1.5019   -6.0992    0.6784 C   0  0  0  0  0  0  0  0  0  0  0  0
    2.0140   -6.9559    0.2551 H   0  0  0  0  0  0  0  0  0  0  0  0
    1.1268   -6.0903    2.0263 C   0  0  0  0  0  0  0  0  0  0  0  0
    1.3328   -6.9502    2.6566 H   0  0  0  0  0  0  0  0  0  0  0  0
    0.5070   -4.9568    2.5671 C   0  0  0  0  0  0  0  0  0  0  0  0
    0.2358   -4.9340    3.6186 H   0  0  0  0  0  0  0  0  0  0  0  0
    0.2384   -3.8433    1.7588 C   0  0  0  0  0  0  0  0  0  0  0  0
   -0.2057   -2.9668    2.2107 H   0  0  0  0  0  0  0  0  0  0  0  0
    0.5560   -3.8672    0.3946 C   0  0  0  0  0  0  0  0  0  0  0  0
   -1.4062    0.4771   -0.1312 C   0  0  0  0  0  0  0  0  0  0  0  0
   -1.9789    0.7819   -1.1723 O   0  0  0  0  0  0  0  0  0  0  0  0
   -0.9546    1.4771    0.7105 N   0  0  0  0  0  0  0  0  0  0  0  0
   -0.5626    1.1926    1.6039 H   0  0  0  0  0  0  0  0  0  0  0  0
   -1.2096    2.8926    0.4742 C   0  0  0  0  0  0  0  0  0  0  0  0
   -2.2863    3.0920    0.4696 H   0  0  0  0  0  0  0  0  0  0  0  0
   -0.7487    3.4963    1.2619 H   0  0  0  0  0  0  0  0  0  0  0  0
   -0.7896    3.2024   -0.4884 H   0  0  0  0  0  0  0  0  0  0  0  0
  1  2  1  0  0  0  0
  2  3  1  0  0  0  0
  2  4  1  0  0  0  0
  2  5  1  0  0  0  0
  5  6  2  0  0  0  0
  5  7  1  0  0  0  0
  7  8  1  0  0  0  0
  7  9  1  0  0  0  0
  9 10  1  0  0  0  0
  9 11  1  0  0  0  0
  9 29  1  0  0  0  0
 11 12  1  0  0  0  0
 11 13  1  0  0  0  0
 11 14  1  0  0  0  0
 14 15  2  0  0  0  0
 14 28  1  0  0  0  0
 15 16  1  0  0  0  0
 15 17  1  0  0  0  0
 17 18  1  0  0  0  0
 17 19  1  0  0  0  0
 19 20  1  0  0  0  0
 19 28  2  0  0  0  0
 20 21  1  0  0  0  0
 20 22  2  0  0  0  0
 22 23  1  0  0  0  0
 22 24  1  0  0  0  0
 24 25  1  0  0  0  0
 24 26  2  0  0  0  0
 26 27  1  0  0  0  0
 26 28  1  0  0  0  0
 29 30  2  0  0  0  0
 29 31  1  0  0  0  0
 31 32  1  0  0  0  0
 31 33  1  0  0  0  0
 33 34  1  0  0  0  0
 33 35  1  0  0  0  0
 33 36  1  0  0  0  0
M  END
$$$$

  -OEChem-03222214083D

 36 37  0     1  0  0  0  0  0999 V2000
   -4.6493   -3.9904    1.3895 H   0  0  0  0  0  0  0  0  0  0  0  0
   -4.2643   -3.3658    0.5788 C   0  0  0  0  0  0  0  0  0  0  0  0
   -5.0729   -2.7333    0.2048 H   0  0  0  0  0  0  0  0  0  0  0  0
   -3.9124   -4.0141   -0.2277 H   0  0  0  0  0  0  0  0  0  0  0  0
   -3.1212   -2.5055    1.0812 C   0  0  0  0  0  0  0  0  0  0  0  0
   -2.8175   -2.5138    2.2647 O   0  0  0  0  0  0  0  0  0  0  0  0
   -2.5197   -1.5990    0.2402 N   0  0  0  0  0  0  0  0  0  0  0  0
   -2.9026   -1.5644   -0.7010 H   0  0  0  0  0  0  0  0  0  0  0  0
   -1.1747   -1.0123    0.3949 C   0  0  1  0  0  0  0  0  0  0  0  0
   -0.7803   -1.2209    1.3944 H   0  0  0  0  0  0  0  0  0  0  0  0
   -0.1837   -1.5356   -0.6888 C   0  0  0  0  0  0  0  0  0  0  0  0
   -0.4213   -1.0203   -1.6261 H   0  0  0  0  0  0  0  0  0  0  0  0
    0.8134   -1.1976   -0.3868 H   0  0  0  0  0  0  0  0  0  0  0  0
   -0.0511   -2.9988   -1.0824 C   0  0  0  0  0  0  0  0  0  0  0  0
    0.8571   -3.3108   -2.0717 C   0  0  0  0  0  0  0  0  0  0  0  0
    1.3833   -2.5817   -2.6844 H   0  0  0  0  0  0  0  0  0  0  0  0
    0.9171   -4.6890   -2.2176 N   0  0  0  0  0  0  0  0  0  0  0  0
    1.4798   -5.1890   -2.9029 H   0  0  0  0  0  0  0  0  0  0  0  0
    0.2216   -5.2904   -1.1926 C   0  0  0  0  0  0  0  0  0  0  0  0
    0.1134   -6.6425   -0.8679 C   0  0  0  0  0  0  0  0  0  0  0  0
    0.5274   -7.4001   -1.5237 H   0  0  0  0  0  0  0  0  0  0  0  0
   -0.5016   -7.0029    0.3351 C   0  0  0  0  0  0  0  0  0  0  0  0
   -0.5942   -8.0492    0.6111 H   0  0  0  0  0  0  0  0  0  0  0  0
   -0.9386   -6.0029    1.2114 C   0  0  0  0  0  0  0  0  0  0  0  0
   -1.3526   -6.2695    2.1793 H   0  0  0  0  0  0  0  0  0  0  0  0
   -0.8122   -4.6521    0.8593 C   0  0  0  0  0  0  0  0  0  0  0  0
   -1.0475   -3.9013    1.5950 H   0  0  0  0  0  0  0  0  0  0  0  0
   -0.3148   -4.2798   -0.3942 C   0  0  0  0  0  0  0  0  0  0  0  0
   -1.2320    0.5117    0.1481 C   0  0  0  0  0  0  0  0  0  0  0  0
   -1.8434    0.9702   -0.8117 O   0  0  0  0  0  0  0  0  0  0  0  0
   -0.5754    1.3773    1.0038 N   0  0  0  0  0  0  0  0  0  0  0  0
   -0.1705    0.9805    1.8472 H   0  0  0  0  0  0  0  0  0  0  0  0
   -0.6414    2.8276    0.8720 C   0  0  0  0  0  0  0  0  0  0  0  0
   -1.6759    3.1746    0.9661 H   0  0  0  0  0  0  0  0  0  0  0  0
   -0.0430    3.3059    1.6533 H   0  0  0  0  0  0  0  0  0  0  0  0
   -0.2510    3.1421   -0.1017 H   0  0  0  0  0  0  0  0  0  0  0  0
  1  2  1  0  0  0  0
  2  3  1  0  0  0  0
  2  4  1  0  0  0  0
  2  5  1  0  0  0  0
  5  6  2  0  0  0  0
  5  7  1  0  0  0  0
  7  8  1  0  0  0  0
  7  9  1  0  0  0  0
  9 10  1  0  0  0  0
  9 11  1  0  0  0  0
  9 29  1  0  0  0  0
 11 12  1  0  0  0  0
 11 13  1  0  0  0  0
 11 14  1  0  0  0  0
 14 15  2  0  0  0  0
 14 28  1  0  0  0  0
 15 16  1  0  0  0  0
 15 17  1  0  0  0  0
 17 18  1  0  0  0  0
 17 19  1  0  0  0  0
 19 20  1  0  0  0  0
 19 28  2  0  0  0  0
 20 21  1  0  0  0  0
 20 22  2  0  0  0  0
 22 23  1  0  0  0  0
 22 24  1  0  0  0  0
 24 25  1  0  0  0  0
 24 26  2  0  0  0  0
 26 27  1  0  0  0  0
 26 28  1  0  0  0  0
 29 30  2  0  0  0  0
 29 31  1  0  0  0  0
 31 32  1  0  0  0  0
 31 33  1  0  0  0  0
 33 34  1  0  0  0  0
 33 35  1  0  0  0  0
 33 36  1  0  0  0  0
M  END
$$$$

  -OEChem-03222214083D

 36 37  0     1  0  0  0  0  0999 V2000
   -4.6001   -3.6653    2.1823 H   0  0  0  0  0  0  0  0  0  0  0  0
   -4.4469   -2.8940    1.4224 C   0  0  0  0  0  0  0  0  0  0  0  0
   -5.1256   -2.0608    1.6207 H   0  0  0  0  0  0  0  0  0  0  0  0
   -4.6798   -3.3168    0.4421 H   0  0  0  0  0  0  0  0  0  0  0  0
   -3.0098   -2.4063    1.4580 C   0  0  0  0  0  0  0  0  0  0  0  0
   -2.3362   -2.5902    2.4583 O   0  0  0  0  0  0  0  0  0  0  0  0
   -2.5103   -1.6788    0.3956 N   0  0  0  0  0  0  0  0  0  0  0  0
   -3.1458   -1.4508   -0.3672 H   0  0  0  0  0  0  0  0  0  0  0  0
   -1.1870   -1.0420    0.3759 C   0  0  1  0  0  0  0  0  0  0  0  0
   -0.8159   -0.9695    1.4031 H   0  0  0  0  0  0  0  0  0  0  0  0
   -0.0417   -1.6492   -0.4896 C   0  0  0  0  0  0  0  0  0  0  0  0
   -0.2736   -1.3815   -1.5267 H   0  0  0  0  0  0  0  0  0  0  0  0
    0.8688   -1.1044   -0.2176 H   0  0  0  0  0  0  0  0  0  0  0  0
    0.3300   -3.1270   -0.5807 C   0  0  0  0  0  0  0  0  0  0  0  0
    1.5661   -3.3900   -1.1347 C   0  0  0  0  0  0  0  0  0  0  0  0
    2.2983   -2.6346   -1.4102 H   0  0  0  0  0  0  0  0  0  0  0  0
    1.7424   -4.7593   -1.2415 N   0  0  0  0  0  0  0  0  0  0  0  0
    2.5747   -5.2267   -1.5940 H   0  0  0  0  0  0  0  0  0  0  0  0
    0.5798   -5.4017   -0.8817 C   0  0  0  0  0  0  0  0  0  0  0  0
    0.2973   -6.7671   -0.9149 C   0  0  0  0  0  0  0  0  0  0  0  0
    1.0646   -7.4801   -1.1950 H   0  0  0  0  0  0  0  0  0  0  0  0
   -0.9938   -7.1991   -0.6024 C   0  0  0  0  0  0  0  0  0  0  0  0
   -1.2364   -8.2574   -0.6207 H   0  0  0  0  0  0  0  0  0  0  0  0
   -1.9804   -6.2550   -0.2999 C   0  0  0  0  0  0  0  0  0  0  0  0
   -2.9948   -6.5814   -0.0923 H   0  0  0  0  0  0  0  0  0  0  0  0
   -1.6687   -4.8879   -0.2792 C   0  0  0  0  0  0  0  0  0  0  0  0
   -2.4671   -4.1926   -0.1126 H   0  0  0  0  0  0  0  0  0  0  0  0
   -0.3642   -4.4365   -0.5177 C   0  0  0  0  0  0  0  0  0  0  0  0
   -1.3695    0.3869   -0.1808 C   0  0  0  0  0  0  0  0  0  0  0  0
   -2.1223    0.5908   -1.1280 O   0  0  0  0  0  0  0  0  0  0  0  0
   -0.7504    1.4612    0.4322 N   0  0  0  0  0  0  0  0  0  0  0  0
   -0.2162    1.2750    1.2765 H   0  0  0  0  0  0  0  0  0  0  0  0
   -0.9789    2.8457    0.0359 C   0  0  0  0  0  0  0  0  0  0  0  0
   -2.0250    3.1236    0.2022 H   0  0  0  0  0  0  0  0  0  0  0  0
   -0.3441    3.5169    0.6223 H   0  0  0  0  0  0  0  0  0  0  0  0
   -0.7413    2.9866   -1.0238 H   0  0  0  0  0  0  0  0  0  0  0  0
  1  2  1  0  0  0  0
  2  3  1  0  0  0  0
  2  4  1  0  0  0  0
  2  5  1  0  0  0  0
  5  6  2  0  0  0  0
  5  7  1  0  0  0  0
  7  8  1  0  0  0  0
  7  9  1  0  0  0  0
  9 10  1  0  0  0  0
  9 11  1  0  0  0  0
  9 29  1  0  0  0  0
 11 12  1  0  0  0  0
 11 13  1  0  0  0  0
 11 14  1  0  0  0  0
 14 15  2  0  0  0  0
 14 28  1  0  0  0  0
 15 16  1  0  0  0  0
 15 17  1  0  0  0  0
 17 18  1  0  0  0  0
 17 19  1  0  0  0  0
 19 20  1  0  0  0  0
 19 28  2  0  0  0  0
 20 21  1  0  0  0  0
 20 22  2  0  0  0  0
 22 23  1  0  0  0  0
 22 24  1  0  0  0  0
 24 25  1  0  0  0  0
 24 26  2  0  0  0  0
 26 27  1  0  0  0  0
 26 28  1  0  0  0  0
 29 30  2  0  0  0  0
 29 31  1  0  0  0  0
 31 32  1  0  0  0  0
 31 33  1  0  0  0  0
 33 34  1  0  0  0  0
 33 35  1  0  0  0  0
 33 36  1  0  0  0  0
M  END
$$$$

  -OEChem-03222214083D

 36 37  0     1  0  0  0  0  0999 V2000
   -3.9422   -4.1081    2.3600 H   0  0  0  0  0  0  0  0  0  0  0  0
   -3.9980   -3.1892    1.7699 C   0  0  0  0  0  0  0  0  0  0  0  0
   -4.6416   -2.4728    2.2858 H   0  0  0  0  0  0  0  0  0  0  0  0
   -4.4375   -3.4252    0.7984 H   0  0  0  0  0  0  0  0  0  0  0  0
   -2.6093   -2.6008    1.5990 C   0  0  0  0  0  0  0  0  0  0  0  0
   -1.7710   -2.7915    2.4651 O   0  0  0  0  0  0  0  0  0  0  0  0
   -2.3384   -1.7662    0.5309 N   0  0  0  0  0  0  0  0  0  0  0  0
   -3.1060   -1.5228   -0.0916 H   0  0  0  0  0  0  0  0  0  0  0  0
   -1.0642   -1.0663    0.3312 C   0  0  1  0  0  0  0  0  0  0  0  0
   -0.5259   -1.0498    1.2837 H   0  0  0  0  0  0  0  0  0  0  0  0
   -0.0815   -1.6297   -0.7313 C   0  0  0  0  0  0  0  0  0  0  0  0
   -0.4867   -1.3614   -1.7130 H   0  0  0  0  0  0  0  0  0  0  0  0
    0.8685   -1.0966   -0.6218 H   0  0  0  0  0  0  0  0  0  0  0  0
    0.2081   -3.1209   -0.8154 C   0  0  0  0  0  0  0  0  0  0  0  0
    1.4512   -3.5276   -1.2503 C   0  0  0  0  0  0  0  0  0  0  0  0
    2.3011   -2.8692   -1.4139 H   0  0  0  0  0  0  0  0  0  0  0  0
    1.4550   -4.9075   -1.3904 N   0  0  0  0  0  0  0  0  0  0  0  0
    2.2550   -5.4743   -1.6623 H   0  0  0  0  0  0  0  0  0  0  0  0
    0.1772   -5.3932   -1.2179 C   0  0  0  0  0  0  0  0  0  0  0  0
   -0.2992   -6.6951   -1.3673 C   0  0  0  0  0  0  0  0  0  0  0  0
    0.3862   -7.5094   -1.5729 H   0  0  0  0  0  0  0  0  0  0  0  0
   -1.6747   -6.9288   -1.2772 C   0  0  0  0  0  0  0  0  0  0  0  0
   -2.0661   -7.9351   -1.3928 H   0  0  0  0  0  0  0  0  0  0  0  0
   -2.5477   -5.8523   -1.0821 C   0  0  0  0  0  0  0  0  0  0  0  0
   -3.6197   -6.0233   -1.0606 H   0  0  0  0  0  0  0  0  0  0  0  0
   -2.0439   -4.5516   -0.9367 C   0  0  0  0  0  0  0  0  0  0  0  0
   -2.7440   -3.7344   -0.8648 H   0  0  0  0  0  0  0  0  0  0  0  0
   -0.6609   -4.3139   -0.9347 C   0  0  0  0  0  0  0  0  0  0  0  0
   -1.3509    0.3959   -0.0635 C   0  0  0  0  0  0  0  0  0  0  0  0
   -2.2431    0.6533   -0.8647 O   0  0  0  0  0  0  0  0  0  0  0  0
   -0.6462    1.4317    0.5225 N   0  0  0  0  0  0  0  0  0  0  0  0
    0.0208    1.1926    1.2511 H   0  0  0  0  0  0  0  0  0  0  0  0
   -0.9205    2.8381    0.2535 C   0  0  0  0  0  0  0  0  0  0  0  0
   -1.9372    3.0974    0.5669 H   0  0  0  0  0  0  0  0  0  0  0  0
   -0.2167    3.4719    0.8017 H   0  0  0  0  0  0  0  0  0  0  0  0
   -0.8156    3.0523   -0.8154 H   0  0  0  0  0  0  0  0  0  0  0  0
  1  2  1  0  0  0  0
  2  3  1  0  0  0  0
  2  4  1  0  0  0  0
  2  5  1  0  0  0  0
  5  6  2  0  0  0  0
  5  7  1  0  0  0  0
  7  8  1  0  0  0  0
  7  9  1  0  0  0  0
  9 10  1  0  0  0  0
  9 11  1  0  0  0  0
  9 29  1  0  0  0  0
 11 12  1  0  0  0  0
 11 13  1  0  0  0  0
 11 14  1  0  0  0  0
 14 15  2  0  0  0  0
 14 28  1  0  0  0  0
 15 16  1  0  0  0  0
 15 17  1  0  0  0  0
 17 18  1  0  0  0  0
 17 19  1  0  0  0  0
 19 20  1  0  0  0  0
 19 28  2  0  0  0  0
 20 21  1  0  0  0  0
 20 22  2  0  0  0  0
 22 23  1  0  0  0  0
 22 24  1  0  0  0  0
 24 25  1  0  0  0  0
 24 26  2  0  0  0  0
 26 27  1  0  0  0  0
 26 28  1  0  0  0  0
 29 30  2  0  0  0  0
 29 31  1  0  0  0  0
 31 32  1  0  0  0  0
 31 33  1  0  0  0  0
 33 34  1  0  0  0  0
 33 35  1  0  0  0  0
 33 36  1  0  0  0  0
M  END
$$$$

  -OEChem-03222214083D

 36 37  0     1  0  0  0  0  0999 V2000
   -3.7740   -4.4488    1.7899 H   0  0  0  0  0  0  0  0  0  0  0  0
   -3.9289   -3.4267    1.4339 C   0  0  0  0  0  0  0  0  0  0  0  0
   -4.6207   -2.9133    2.1059 H   0  0  0  0  0  0  0  0  0  0  0  0
   -4.3693   -3.4685    0.4352 H   0  0  0  0  0  0  0  0  0  0  0  0
   -2.6028   -2.6901    1.4007 C   0  0  0  0  0  0  0  0  0  0  0  0
   -1.8208   -2.8244    2.3287 O   0  0  0  0  0  0  0  0  0  0  0  0
   -2.3217   -1.8169    0.3681 N   0  0  0  0  0  0  0  0  0  0  0  0
   -3.0528   -1.6381   -0.3158 H   0  0  0  0  0  0  0  0  0  0  0  0
   -1.0708   -1.0605    0.2328 C   0  0  1  0  0  0  0  0  0  0  0  0
   -0.5634   -1.0495    1.2023 H   0  0  0  0  0  0  0  0  0  0  0  0
   -0.0584   -1.6133   -0.8022 C   0  0  0  0  0  0  0  0  0  0  0  0
   -0.4312   -1.3645   -1.8016 H   0  0  0  0  0  0  0  0  0  0  0  0
    0.8923   -1.0866   -0.6727 H   0  0  0  0  0  0  0  0  0  0  0  0
    0.1952   -3.1087   -0.8015 C   0  0  0  0  0  0  0  0  0  0  0  0
    1.4704   -3.6234   -0.8674 C   0  0  0  0  0  0  0  0  0  0  0  0
    2.3852   -3.0410   -0.7864 H   0  0  0  0  0  0  0  0  0  0  0  0
    1.3867   -5.0021   -1.0170 N   0  0  0  0  0  0  0  0  0  0  0  0
    2.1767   -5.6423   -1.0531 H   0  0  0  0  0  0  0  0  0  0  0  0
    0.0702   -5.3755   -1.1983 C   0  0  0  0  0  0  0  0  0  0  0  0
   -0.4817   -6.6264   -1.4724 C   0  0  0  0  0  0  0  0  0  0  0  0
    0.1494   -7.5074   -1.5054 H   0  0  0  0  0  0  0  0  0  0  0  0
   -1.8544   -6.7237   -1.7288 C   0  0  0  0  0  0  0  0  0  0  0  0
   -2.2995   -7.6898   -1.9474 H   0  0  0  0  0  0  0  0  0  0  0  0
   -2.6448   -5.5670   -1.7376 C   0  0  0  0  0  0  0  0  0  0  0  0
   -3.7020   -5.6365   -1.9743 H   0  0  0  0  0  0  0  0  0  0  0  0
   -2.0712   -4.3182   -1.4594 C   0  0  0  0  0  0  0  0  0  0  0  0
   -2.6839   -3.4287   -1.5207 H   0  0  0  0  0  0  0  0  0  0  0  0
   -0.7104   -4.2233   -1.1336 C   0  0  0  0  0  0  0  0  0  0  0  0
   -1.3791    0.4020   -0.1384 C   0  0  0  0  0  0  0  0  0  0  0  0
   -2.2315    0.6539   -0.9830 O   0  0  0  0  0  0  0  0  0  0  0  0
   -0.7268    1.4408    0.5005 N   0  0  0  0  0  0  0  0  0  0  0  0
   -0.0921    1.2008    1.2569 H   0  0  0  0  0  0  0  0  0  0  0  0
   -1.0186    2.8461    0.2458 C   0  0  0  0  0  0  0  0  0  0  0  0
   -2.0525    3.0792    0.5215 H   0  0  0  0  0  0  0  0  0  0  0  0
   -0.3508    3.4829    0.8342 H   0  0  0  0  0  0  0  0  0  0  0  0
   -0.8734    3.0820   -0.8138 H   0  0  0  0  0  0  0  0  0  0  0  0
  1  2  1  0  0  0  0
  2  3  1  0  0  0  0
  2  4  1  0  0  0  0
  2  5  1  0  0  0  0
  5  6  2  0  0  0  0
  5  7  1  0  0  0  0
  7  8  1  0  0  0  0
  7  9  1  0  0  0  0
  9 10  1  0  0  0  0
  9 11  1  0  0  0  0
  9 29  1  0  0  0  0
 11 12  1  0  0  0  0
 11 13  1  0  0  0  0
 11 14  1  0  0  0  0
 14 15  2  0  0  0  0
 14 28  1  0  0  0  0
 15 16  1  0  0  0  0
 15 17  1  0  0  0  0
 17 18  1  0  0  0  0
 17 19  1  0  0  0  0
 19 20  1  0  0  0  0
 19 28  2  0  0  0  0
 20 21  1  0  0  0  0
 20 22  2  0  0  0  0
 22 23  1  0  0  0  0
 22 24  1  0  0  0  0
 24 25  1  0  0  0  0
 24 26  2  0  0  0  0
 26 27  1  0  0  0  0
 26 28  1  0  0  0  0
 29 30  2  0  0  0  0
 29 31  1  0  0  0  0
 31 32  1  0  0  0  0
 31 33  1  0  0  0  0
 33 34  1  0  0  0  0
 33 35  1  0  0  0  0
 33 36  1  0  0  0  0
M  END
$$$$

  -OEChem-03222214083D

 36 37  0     1  0  0  0  0  0999 V2000
   -3.7628   -4.3848    2.0598 H   0  0  0  0  0  0  0  0  0  0  0  0
   -3.7826   -3.6356    1.2634 C   0  0  0  0  0  0  0  0  0  0  0  0
   -4.6431   -2.9799    1.4154 H   0  0  0  0  0  0  0  0  0  0  0  0
   -3.8873   -4.1490    0.3050 H   0  0  0  0  0  0  0  0  0  0  0  0
   -2.5026   -2.8209    1.2827 C   0  0  0  0  0  0  0  0  0  0  0  0
   -1.7232   -2.9423    2.2156 O   0  0  0  0  0  0  0  0  0  0  0  0
   -2.2631   -1.8924    0.2891 N   0  0  0  0  0  0  0  0  0  0  0  0
   -2.9800   -1.7600   -0.4189 H   0  0  0  0  0  0  0  0  0  0  0  0
   -1.0384   -1.0855    0.1812 C   0  0  1  0  0  0  0  0  0  0  0  0
   -0.5136   -1.1061    1.1412 H   0  0  0  0  0  0  0  0  0  0  0  0
   -0.0482   -1.5834   -0.8988 C   0  0  0  0  0  0  0  0  0  0  0  0
   -0.4312   -1.3036   -1.8861 H   0  0  0  0  0  0  0  0  0  0  0  0
    0.9077   -1.0681   -0.7644 H   0  0  0  0  0  0  0  0  0  0  0  0
    0.1822   -3.0780   -0.9101 C   0  0  0  0  0  0  0  0  0  0  0  0
    1.4021   -3.6801   -0.7111 C   0  0  0  0  0  0  0  0  0  0  0  0
    2.3144   -3.1696   -0.4118 H   0  0  0  0  0  0  0  0  0  0  0  0
    1.2532   -5.0458   -0.9352 N   0  0  0  0  0  0  0  0  0  0  0  0
    1.9839   -5.7449   -0.8231 H   0  0  0  0  0  0  0  0  0  0  0  0
   -0.0256   -5.3191   -1.3861 C   0  0  0  0  0  0  0  0  0  0  0  0
   -0.6191   -6.5111   -1.8013 C   0  0  0  0  0  0  0  0  0  0  0  0
   -0.0646   -7.4419   -1.7554 H   0  0  0  0  0  0  0  0  0  0  0  0
   -1.9301   -6.4848   -2.2956 C   0  0  0  0  0  0  0  0  0  0  0  0
   -2.4035   -7.4042   -2.6274 H   0  0  0  0  0  0  0  0  0  0  0  0
   -2.6213   -5.2676   -2.3845 C   0  0  0  0  0  0  0  0  0  0  0  0
   -3.6271   -5.2450   -2.7929 H   0  0  0  0  0  0  0  0  0  0  0  0
   -2.0124   -4.0785   -1.9592 C   0  0  0  0  0  0  0  0  0  0  0  0
   -2.5358   -3.1343   -2.0546 H   0  0  0  0  0  0  0  0  0  0  0  0
   -0.7182   -4.1137   -1.4255 C   0  0  0  0  0  0  0  0  0  0  0  0
   -1.3884    0.3834   -0.1204 C   0  0  0  0  0  0  0  0  0  0  0  0
   -2.2377    0.6501   -0.9638 O   0  0  0  0  0  0  0  0  0  0  0  0
   -0.7624    1.4107    0.5621 N   0  0  0  0  0  0  0  0  0  0  0  0
   -0.1279    1.1568    1.3142 H   0  0  0  0  0  0  0  0  0  0  0  0
   -1.0860    2.8174    0.3586 C   0  0  0  0  0  0  0  0  0  0  0  0
   -2.1242    3.0170    0.6440 H   0  0  0  0  0  0  0  0  0  0  0  0
   -0.4315    3.4484    0.9675 H   0  0  0  0  0  0  0  0  0  0  0  0
   -0.9496    3.0936   -0.6923 H   0  0  0  0  0  0  0  0  0  0  0  0
  1  2  1  0  0  0  0
  2  3  1  0  0  0  0
  2  4  1  0  0  0  0
  2  5  1  0  0  0  0
  5  6  2  0  0  0  0
  5  7  1  0  0  0  0
  7  8  1  0  0  0  0
  7  9  1  0  0  0  0
  9 10  1  0  0  0  0
  9 11  1  0  0  0  0
  9 29  1  0  0  0  0
 11 12  1  0  0  0  0
 11 13  1  0  0  0  0
 11 14  1  0  0  0  0
 14 15  2  0  0  0  0
 14 28  1  0  0  0  0
 15 16  1  0  0  0  0
 15 17  1  0  0  0  0
 17 18  1  0  0  0  0
 17 19  1  0  0  0  0
 19 20  1  0  0  0  0
 19 28  2  0  0  0  0
 20 21  1  0  0  0  0
 20 22  2  0  0  0  0
 22 23  1  0  0  0  0
 22 24  1  0  0  0  0
 24 25  1  0  0  0  0
 24 26  2  0  0  0  0
 26 27  1  0  0  0  0
 26 28  1  0  0  0  0
 29 30  2  0  0  0  0
 29 31  1  0  0  0  0
 31 32  1  0  0  0  0
 31 33  1  0  0  0  0
 33 34  1  0  0  0  0
 33 35  1  0  0  0  0
 33 36  1  0  0  0  0
M  END
$$$$

  -OEChem-03222214083D

 36 37  0     1  0  0  0  0  0999 V2000
   -3.7123   -4.4917    1.8208 H   0  0  0  0  0  0  0  0  0  0  0  0
   -3.6336   -3.8336    0.9510 C   0  0  0  0  0  0  0  0  0  0  0  0
   -4.5539   -3.2515    0.8636 H   0  0  0  0  0  0  0  0  0  0  0  0
   -3.5115   -4.4490    0.0563 H   0  0  0  0  0  0  0  0  0  0  0  0
   -2.4435   -2.9054    1.1049 C   0  0  0  0  0  0  0  0  0  0  0  0
   -1.7145   -3.0086    2.0802 O   0  0  0  0  0  0  0  0  0  0  0  0
   -2.2115   -1.9264    0.1599 N   0  0  0  0  0  0  0  0  0  0  0  0
   -2.8625   -1.8607   -0.6171 H   0  0  0  0  0  0  0  0  0  0  0  0
   -1.0059   -1.0833    0.1151 C   0  0  1  0  0  0  0  0  0  0  0  0
   -0.4893   -1.1397    1.0781 H   0  0  0  0  0  0  0  0  0  0  0  0
   -0.0136   -1.5349   -0.9804 C   0  0  0  0  0  0  0  0  0  0  0  0
   -0.3815   -1.2203   -1.9628 H   0  0  0  0  0  0  0  0  0  0  0  0
    0.9454   -1.0337   -0.8172 H   0  0  0  0  0  0  0  0  0  0  0  0
    0.1989   -3.0294   -1.0134 C   0  0  0  0  0  0  0  0  0  0  0  0
    1.3058   -3.7000   -0.5530 C   0  0  0  0  0  0  0  0  0  0  0  0
    2.1537   -3.2452   -0.0462 H   0  0  0  0  0  0  0  0  0  0  0  0
    1.1269   -5.0542   -0.8284 N   0  0  0  0  0  0  0  0  0  0  0  0
    1.7700   -5.7976   -0.5648 H   0  0  0  0  0  0  0  0  0  0  0  0
   -0.0600   -5.2548   -1.5142 C   0  0  0  0  0  0  0  0  0  0  0  0
   -0.6571   -6.4078   -2.0243 C   0  0  0  0  0  0  0  0  0  0  0  0
   -0.1844   -7.3740   -1.8861 H   0  0  0  0  0  0  0  0  0  0  0  0
   -1.8671   -6.2990   -2.7245 C   0  0  0  0  0  0  0  0  0  0  0  0
   -2.3400   -7.1885   -3.1302 H   0  0  0  0  0  0  0  0  0  0  0  0
   -2.4591   -5.0411   -2.9153 C   0  0  0  0  0  0  0  0  0  0  0  0
   -3.3871   -4.9577   -3.4728 H   0  0  0  0  0  0  0  0  0  0  0  0
   -1.8516   -3.8902   -2.3942 C   0  0  0  0  0  0  0  0  0  0  0  0
   -2.2967   -2.9130   -2.5502 H   0  0  0  0  0  0  0  0  0  0  0  0
   -0.6571   -4.0105   -1.6749 C   0  0  0  0  0  0  0  0  0  0  0  0
   -1.3768    0.3914   -0.1258 C   0  0  0  0  0  0  0  0  0  0  0  0
   -2.1961    0.6843   -0.9898 O   0  0  0  0  0  0  0  0  0  0  0  0
   -0.7848    1.3959    0.6179 N   0  0  0  0  0  0  0  0  0  0  0  0
   -0.1730    1.1168    1.3797 H   0  0  0  0  0  0  0  0  0  0  0  0
   -1.1209    2.8060    0.4642 C   0  0  0  0  0  0  0  0  0  0  0  0
   -2.1716    2.9801    0.7190 H   0  0  0  0  0  0  0  0  0  0  0  0
   -0.4986    3.4171    1.1247 H   0  0  0  0  0  0  0  0  0  0  0  0
   -0.9493    3.1309   -0.5675 H   0  0  0  0  0  0  0  0  0  0  0  0
  1  2  1  0  0  0  0
  2  3  1  0  0  0  0
  2  4  1  0  0  0  0
  2  5  1  0  0  0  0
  5  6  2  0  0  0  0
  5  7  1  0  0  0  0
  7  8  1  0  0  0  0
  7  9  1  0  0  0  0
  9 10  1  0  0  0  0
  9 11  1  0  0  0  0
  9 29  1  0  0  0  0
 11 12  1  0  0  0  0
 11 13  1  0  0  0  0
 11 14  1  0  0  0  0
 14 15  2  0  0  0  0
 14 28  1  0  0  0  0
 15 16  1  0  0  0  0
 15 17  1  0  0  0  0
 17 18  1  0  0  0  0
 17 19  1  0  0  0  0
 19 20  1  0  0  0  0
 19 28  2  0  0  0  0
 20 21  1  0  0  0  0
 20 22  2  0  0  0  0
 22 23  1  0  0  0  0
 22 24  1  0  0  0  0
 24 25  1  0  0  0  0
 24 26  2  0  0  0  0
 26 27  1  0  0  0  0
 26 28  1  0  0  0  0
 29 30  2  0  0  0  0
 29 31  1  0  0  0  0
 31 32  1  0  0  0  0
 31 33  1  0  0  0  0
 33 34  1  0  0  0  0
 33 35  1  0  0  0  0
 33 36  1  0  0  0  0
M  END
$$$$

  -OEChem-03222214083D

 36 37  0     1  0  0  0  0  0999 V2000
   -3.5655   -4.6894    1.4781 H   0  0  0  0  0  0  0  0  0  0  0  0
   -3.5195   -3.9468    0.6770 C   0  0  0  0  0  0  0  0  0  0  0  0
   -4.4804   -3.4306    0.6172 H   0  0  0  0  0  0  0  0  0  0  0  0
   -3.3293   -4.4619   -0.2681 H   0  0  0  0  0  0  0  0  0  0  0  0
   -2.4103   -2.9493    0.9510 C   0  0  0  0  0  0  0  0  0  0  0  0
   -1.7471   -3.0370    1.9741 O   0  0  0  0  0  0  0  0  0  0  0  0
   -2.1648   -1.9402    0.0429 N   0  0  0  0  0  0  0  0  0  0  0  0
   -2.7340   -1.9277   -0.7984 H   0  0  0  0  0  0  0  0  0  0  0  0
   -0.9739   -1.0744    0.0685 C   0  0  1  0  0  0  0  0  0  0  0  0
   -0.4825   -1.1550    1.0427 H   0  0  0  0  0  0  0  0  0  0  0  0
    0.0383   -1.4974   -1.0176 C   0  0  0  0  0  0  0  0  0  0  0  0
   -0.3030   -1.1582   -2.0010 H   0  0  0  0  0  0  0  0  0  0  0  0
    0.9964   -1.0070   -0.8194 H   0  0  0  0  0  0  0  0  0  0  0  0
    0.2413   -2.9917   -1.0658 C   0  0  0  0  0  0  0  0  0  0  0  0
    1.1710   -3.7166   -0.3615 C   0  0  0  0  0  0  0  0  0  0  0  0
    1.8905   -3.3078    0.3439 H   0  0  0  0  0  0  0  0  0  0  0  0
    0.9984   -5.0588   -0.6949 N   0  0  0  0  0  0  0  0  0  0  0  0
    1.5256   -5.8340   -0.2987 H   0  0  0  0  0  0  0  0  0  0  0  0
   -0.0287   -5.2018   -1.6137 C   0  0  0  0  0  0  0  0  0  0  0  0
   -0.5748   -6.3251   -2.2346 C   0  0  0  0  0  0  0  0  0  0  0  0
   -0.1849   -7.3128   -2.0151 H   0  0  0  0  0  0  0  0  0  0  0  0
   -1.6290   -6.1593   -3.1442 C   0  0  0  0  0  0  0  0  0  0  0  0
   -2.0610   -7.0257   -3.6361 H   0  0  0  0  0  0  0  0  0  0  0  0
   -2.1216   -4.8755   -3.4248 C   0  0  0  0  0  0  0  0  0  0  0  0
   -2.9323   -4.7498   -4.1362 H   0  0  0  0  0  0  0  0  0  0  0  0
   -1.5652   -3.7536   -2.7944 C   0  0  0  0  0  0  0  0  0  0  0  0
   -1.9365   -2.7577   -3.0133 H   0  0  0  0  0  0  0  0  0  0  0  0
   -0.5198   -3.9303   -1.8818 C   0  0  0  0  0  0  0  0  0  0  0  0
   -1.3523    0.4036   -0.1434 C   0  0  0  0  0  0  0  0  0  0  0  0
   -2.1255    0.7158   -1.0424 O   0  0  0  0  0  0  0  0  0  0  0  0
   -0.8019    1.3926    0.6519 N   0  0  0  0  0  0  0  0  0  0  0  0
   -0.2307    1.0972    1.4387 H   0  0  0  0  0  0  0  0  0  0  0  0
   -1.1412    2.8043    0.5188 C   0  0  0  0  0  0  0  0  0  0  0  0
   -2.2062    2.9631    0.7177 H   0  0  0  0  0  0  0  0  0  0  0  0
   -0.5623    3.4012    1.2302 H   0  0  0  0  0  0  0  0  0  0  0  0
   -0.9154    3.1594   -0.4922 H   0  0  0  0  0  0  0  0  0  0  0  0
  1  2  1  0  0  0  0
  2  3  1  0  0  0  0
  2  4  1  0  0  0  0
  2  5  1  0  0  0  0
  5  6  2  0  0  0  0
  5  7  1  0  0  0  0
  7  8  1  0  0  0  0
  7  9  1  0  0  0  0
  9 10  1  0  0  0  0
  9 11  1  0  0  0  0
  9 29  1  0  0  0  0
 11 12  1  0  0  0  0
 11 13  1  0  0  0  0
 11 14  1  0  0  0  0
 14 15  2  0  0  0  0
 14 28  1  0  0  0  0
 15 16  1  0  0  0  0
 15 17  1  0  0  0  0
 17 18  1  0  0  0  0
 17 19  1  0  0  0  0
 19 20  1  0  0  0  0
 19 28  2  0  0  0  0
 20 21  1  0  0  0  0
 20 22  2  0  0  0  0
 22 23  1  0  0  0  0
 22 24  1  0  0  0  0
 24 25  1  0  0  0  0
 24 26  2  0  0  0  0
 26 27  1  0  0  0  0
 26 28  1  0  0  0  0
 29 30  2  0  0  0  0
 29 31  1  0  0  0  0
 31 32  1  0  0  0  0
 31 33  1  0  0  0  0
 33 34  1  0  0  0  0
 33 35  1  0  0  0  0
 33 36  1  0  0  0  0
M  END
$$$$

  -OEChem-03222214083D

 36 37  0     1  0  0  0  0  0999 V2000
   -3.5682   -4.6948    1.3498 H   0  0  0  0  0  0  0  0  0  0  0  0
   -3.4649   -3.9791    0.5299 C   0  0  0  0  0  0  0  0  0  0  0  0
   -4.4241   -3.4801    0.3736 H   0  0  0  0  0  0  0  0  0  0  0  0
   -3.1892   -4.5210   -0.3785 H   0  0  0  0  0  0  0  0  0  0  0  0
   -2.3948   -2.9566    0.8595 C   0  0  0  0  0  0  0  0  0  0  0  0
   -1.7583   -3.0498    1.8994 O   0  0  0  0  0  0  0  0  0  0  0  0
   -2.1390   -1.9316   -0.0275 N   0  0  0  0  0  0  0  0  0  0  0  0
   -2.6680   -1.9320   -0.8953 H   0  0  0  0  0  0  0  0  0  0  0  0
   -0.9544   -1.0587    0.0391 C   0  0  1  0  0  0  0  0  0  0  0  0
   -0.4802   -1.1540    1.0205 H   0  0  0  0  0  0  0  0  0  0  0  0
    0.0712   -1.4726   -1.0355 C   0  0  0  0  0  0  0  0  0  0  0  0
   -0.2567   -1.1214   -2.0192 H   0  0  0  0  0  0  0  0  0  0  0  0
    1.0299   -0.9902   -0.8214 H   0  0  0  0  0  0  0  0  0  0  0  0
    0.2650   -2.9681   -1.0877 C   0  0  0  0  0  0  0  0  0  0  0  0
    0.9652   -3.7293   -0.1838 C   0  0  0  0  0  0  0  0  0  0  0  0
    1.4892   -3.3505    0.6908 H   0  0  0  0  0  0  0  0  0  0  0  0
    0.8416   -5.0620   -0.5708 N   0  0  0  0  0  0  0  0  0  0  0  0
    1.2298   -5.8559   -0.0659 H   0  0  0  0  0  0  0  0  0  0  0  0
    0.0564   -5.1654   -1.7077 C   0  0  0  0  0  0  0  0  0  0  0  0
   -0.3656   -6.2683   -2.4503 C   0  0  0  0  0  0  0  0  0  0  0  0
   -0.0642   -7.2691   -2.1611 H   0  0  0  0  0  0  0  0  0  0  0  0
   -1.1816   -6.0646   -3.5723 C   0  0  0  0  0  0  0  0  0  0  0  0
   -1.5153   -6.9141   -4.1609 H   0  0  0  0  0  0  0  0  0  0  0  0
   -1.5658   -4.7648   -3.9365 C   0  0  0  0  0  0  0  0  0  0  0  0
   -2.1951   -4.6097   -4.8077 H   0  0  0  0  0  0  0  0  0  0  0  0
   -1.1370   -3.6640   -3.1816 C   0  0  0  0  0  0  0  0  0  0  0  0
   -1.4317   -2.6575   -3.4604 H   0  0  0  0  0  0  0  0  0  0  0  0
   -0.3217   -3.8765   -2.0652 C   0  0  0  0  0  0  0  0  0  0  0  0
   -1.3271    0.4226   -0.1551 C   0  0  0  0  0  0  0  0  0  0  0  0
   -2.0773    0.7541   -1.0663 O   0  0  0  0  0  0  0  0  0  0  0  0
   -0.7925    1.3937    0.6722 N   0  0  0  0  0  0  0  0  0  0  0  0
   -0.2403    1.0805    1.4655 H   0  0  0  0  0  0  0  0  0  0  0  0
   -1.1374    2.8064    0.5702 C   0  0  0  0  0  0  0  0  0  0  0  0
   -2.2038    2.9552    0.7697 H   0  0  0  0  0  0  0  0  0  0  0  0
   -0.5637    3.3889    1.2974 H   0  0  0  0  0  0  0  0  0  0  0  0
   -0.9093    3.1861   -0.4313 H   0  0  0  0  0  0  0  0  0  0  0  0
  1  2  1  0  0  0  0
  2  3  1  0  0  0  0
  2  4  1  0  0  0  0
  2  5  1  0  0  0  0
  5  6  2  0  0  0  0
  5  7  1  0  0  0  0
  7  8  1  0  0  0  0
  7  9  1  0  0  0  0
  9 10  1  0  0  0  0
  9 11  1  0  0  0  0
  9 29  1  0  0  0  0
 11 12  1  0  0  0  0
 11 13  1  0  0  0  0
 11 14  1  0  0  0  0
 14 15  2  0  0  0  0
 14 28  1  0  0  0  0
 15 16  1  0  0  0  0
 15 17  1  0  0  0  0
 17 18  1  0  0  0  0
 17 19  1  0  0  0  0
 19 20  1  0  0  0  0
 19 28  2  0  0  0  0
 20 21  1  0  0  0  0
 20 22  2  0  0  0  0
 22 23  1  0  0  0  0
 22 24  1  0  0  0  0
 24 25  1  0  0  0  0
 24 26  2  0  0  0  0
 26 27  1  0  0  0  0
 26 28  1  0  0  0  0
 29 30  2  0  0  0  0
 29 31  1  0  0  0  0
 31 32  1  0  0  0  0
 31 33  1  0  0  0  0
 33 34  1  0  0  0  0
 33 35  1  0  0  0  0
 33 36  1  0  0  0  0
M  END
$$$$

  -OEChem-03222214083D

 36 37  0     1  0  0  0  0  0999 V2000
   -3.6777   -4.6243    1.4288 H   0  0  0  0  0  0  0  0  0  0  0  0
   -3.5861   -3.8950    0.6193 C   0  0  0  0  0  0  0  0  0  0  0  0
   -4.5228   -3.3389    0.5371 H   0  0  0  0  0  0  0  0  0  0  0  0
   -3.4021   -4.4286   -0.3167 H   0  0  0  0  0  0  0  0  0  0  0  0
   -2.4397   -2.9426    0.8999 C   0  0  0  0  0  0  0  0  0  0  0  0
   -1.7658   -3.0766    1.9116 O   0  0  0  0  0  0  0  0  0  0  0  0
   -2.1665   -1.9253    0.0094 N   0  0  0  0  0  0  0  0  0  0  0  0
   -2.7448   -1.8705   -0.8252 H   0  0  0  0  0  0  0  0  0  0  0  0
   -0.9702   -1.0675    0.0600 C   0  0  1  0  0  0  0  0  0  0  0  0
   -0.4912   -1.1612    1.0391 H   0  0  0  0  0  0  0  0  0  0  0  0
    0.0450   -1.4920   -1.0208 C   0  0  0  0  0  0  0  0  0  0  0  0
   -0.3007   -1.1381   -1.9968 H   0  0  0  0  0  0  0  0  0  0  0  0
    1.0078   -1.0109   -0.8239 H   0  0  0  0  0  0  0  0  0  0  0  0
    0.2435   -2.9872   -1.0908 C   0  0  0  0  0  0  0  0  0  0  0  0
    0.6957   -3.7930   -0.0730 C   0  0  0  0  0  0  0  0  0  0  0  0
    0.9684   -3.4575    0.9258 H   0  0  0  0  0  0  0  0  0  0  0  0
    0.6968   -5.1045   -0.5403 N   0  0  0  0  0  0  0  0  0  0  0  0
    0.9570   -5.9206    0.0094 H   0  0  0  0  0  0  0  0  0  0  0  0
    0.2408   -5.1514   -1.8472 C   0  0  0  0  0  0  0  0  0  0  0  0
    0.0536   -6.2188   -2.7251 C   0  0  0  0  0  0  0  0  0  0  0  0
    0.2896   -7.2300   -2.4130 H   0  0  0  0  0  0  0  0  0  0  0  0
   -0.4430   -5.9664   -4.0115 C   0  0  0  0  0  0  0  0  0  0  0  0
   -0.5938   -6.7881   -4.7053 H   0  0  0  0  0  0  0  0  0  0  0  0
   -0.7459   -4.6535   -4.4034 C   0  0  0  0  0  0  0  0  0  0  0  0
   -1.1316   -4.4611   -5.4000 H   0  0  0  0  0  0  0  0  0  0  0  0
   -0.5518   -3.5878   -3.5126 C   0  0  0  0  0  0  0  0  0  0  0  0
   -0.7855   -2.5725   -3.8154 H   0  0  0  0  0  0  0  0  0  0  0  0
   -0.0545   -3.8475   -2.2304 C   0  0  0  0  0  0  0  0  0  0  0  0
   -1.3303    0.4163   -0.1427 C   0  0  0  0  0  0  0  0  0  0  0  0
   -2.0973    0.7466   -1.0401 O   0  0  0  0  0  0  0  0  0  0  0  0
   -0.7795    1.3887    0.6720 N   0  0  0  0  0  0  0  0  0  0  0  0
   -0.2034    1.0791    1.4494 H   0  0  0  0  0  0  0  0  0  0  0  0
   -1.0965    2.8065    0.5518 C   0  0  0  0  0  0  0  0  0  0  0  0
   -2.1593    2.9799    0.7500 H   0  0  0  0  0  0  0  0  0  0  0  0
   -0.5101    3.3868    1.2709 H   0  0  0  0  0  0  0  0  0  0  0  0
   -0.8622    3.1688   -0.4548 H   0  0  0  0  0  0  0  0  0  0  0  0
  1  2  1  0  0  0  0
  2  3  1  0  0  0  0
  2  4  1  0  0  0  0
  2  5  1  0  0  0  0
  5  6  2  0  0  0  0
  5  7  1  0  0  0  0
  7  8  1  0  0  0  0
  7  9  1  0  0  0  0
  9 10  1  0  0  0  0
  9 11  1  0  0  0  0
  9 29  1  0  0  0  0
 11 12  1  0  0  0  0
 11 13  1  0  0  0  0
 11 14  1  0  0  0  0
 14 15  2  0  0  0  0
 14 28  1  0  0  0  0
 15 16  1  0  0  0  0
 15 17  1  0  0  0  0
 17 18  1  0  0  0  0
 17 19  1  0  0  0  0
 19 20  1  0  0  0  0
 19 28  2  0  0  0  0
 20 21  1  0  0  0  0
 20 22  2  0  0  0  0
 22 23  1  0  0  0  0
 22 24  1  0  0  0  0
 24 25  1  0  0  0  0
 24 26  2  0  0  0  0
 26 27  1  0  0  0  0
 26 28  1  0  0  0  0
 29 30  2  0  0  0  0
 29 31  1  0  0  0  0
 31 32  1  0  0  0  0
 31 33  1  0  0  0  0
 33 34  1  0  0  0  0
 33 35  1  0  0  0  0
 33 36  1  0  0  0  0
M  END
$$$$

  -OEChem-03222214083D

 36 37  0     1  0  0  0  0  0999 V2000
   -3.7595   -4.5798    1.4935 H   0  0  0  0  0  0  0  0  0  0  0  0
   -3.6870   -3.8235    0.7070 C   0  0  0  0  0  0  0  0  0  0  0  0
   -4.6106   -3.2402    0.6911 H   0  0  0  0  0  0  0  0  0  0  0  0
   -3.5642   -4.3275   -0.2550 H   0  0  0  0  0  0  0  0  0  0  0  0
   -2.5031   -2.9116    0.9649 C   0  0  0  0  0  0  0  0  0  0  0  0
   -1.8351   -3.0491    1.9797 O   0  0  0  0  0  0  0  0  0  0  0  0
   -2.1950   -1.9199    0.0576 N   0  0  0  0  0  0  0  0  0  0  0  0
   -2.7850   -1.8480   -0.7682 H   0  0  0  0  0  0  0  0  0  0  0  0
   -0.9817   -1.0839    0.0885 C   0  0  1  0  0  0  0  0  0  0  0  0
   -0.5037   -1.1651    1.0695 H   0  0  0  0  0  0  0  0  0  0  0  0
    0.0293   -1.5324   -0.9905 C   0  0  0  0  0  0  0  0  0  0  0  0
   -0.3332   -1.1852   -1.9631 H   0  0  0  0  0  0  0  0  0  0  0  0
    0.9937   -1.0468   -0.8129 H   0  0  0  0  0  0  0  0  0  0  0  0
    0.2421   -3.0266   -1.0804 C   0  0  0  0  0  0  0  0  0  0  0  0
    0.4261   -3.9001   -0.0338 C   0  0  0  0  0  0  0  0  0  0  0  0
    0.4531   -3.6285    1.0203 H   0  0  0  0  0  0  0  0  0  0  0  0
    0.5441   -5.1821   -0.5638 N   0  0  0  0  0  0  0  0  0  0  0  0
    0.6763   -6.0306   -0.0174 H   0  0  0  0  0  0  0  0  0  0  0  0
    0.4367   -5.1447   -1.9438 C   0  0  0  0  0  0  0  0  0  0  0  0
    0.4821   -6.1546   -2.9048 C   0  0  0  0  0  0  0  0  0  0  0  0
    0.6262   -7.1868   -2.6054 H   0  0  0  0  0  0  0  0  0  0  0  0
    0.3389   -5.8166   -4.2579 C   0  0  0  0  0  0  0  0  0  0  0  0
    0.3720   -6.5923   -5.0172 H   0  0  0  0  0  0  0  0  0  0  0  0
    0.1530   -4.4772   -4.6323 C   0  0  0  0  0  0  0  0  0  0  0  0
    0.0434   -4.2175   -5.6809 H   0  0  0  0  0  0  0  0  0  0  0  0
    0.1084   -3.4707   -3.6569 C   0  0  0  0  0  0  0  0  0  0  0  0
   -0.0352   -2.4347   -3.9457 H   0  0  0  0  0  0  0  0  0  0  0  0
    0.2507   -3.8156   -2.3081 C   0  0  0  0  0  0  0  0  0  0  0  0
   -1.3220    0.3996   -0.1518 C   0  0  0  0  0  0  0  0  0  0  0  0
   -2.1005    0.7164   -1.0443 O   0  0  0  0  0  0  0  0  0  0  0  0
   -0.7581    1.3850    0.6380 N   0  0  0  0  0  0  0  0  0  0  0  0
   -0.1736    1.0880    1.4142 H   0  0  0  0  0  0  0  0  0  0  0  0
   -1.0779    2.8003    0.4984 C   0  0  0  0  0  0  0  0  0  0  0  0
   -2.1461    2.9700    0.6692 H   0  0  0  0  0  0  0  0  0  0  0  0
   -0.5129    3.3893    1.2271 H   0  0  0  0  0  0  0  0  0  0  0  0
   -0.8206    3.1544   -0.5054 H   0  0  0  0  0  0  0  0  0  0  0  0
  1  2  1  0  0  0  0
  2  3  1  0  0  0  0
  2  4  1  0  0  0  0
  2  5  1  0  0  0  0
  5  6  2  0  0  0  0
  5  7  1  0  0  0  0
  7  8  1  0  0  0  0
  7  9  1  0  0  0  0
  9 10  1  0  0  0  0
  9 11  1  0  0  0  0
  9 29  1  0  0  0  0
 11 12  1  0  0  0  0
 11 13  1  0  0  0  0
 11 14  1  0  0  0  0
 14 15  2  0  0  0  0
 14 28  1  0  0  0  0
 15 16  1  0  0  0  0
 15 17  1  0  0  0  0
 17 18  1  0  0  0  0
 17 19  1  0  0  0  0
 19 20  1  0  0  0  0
 19 28  2  0  0  0  0
 20 21  1  0  0  0  0
 20 22  2  0  0  0  0
 22 23  1  0  0  0  0
 22 24  1  0  0  0  0
 24 25  1  0  0  0  0
 24 26  2  0  0  0  0
 26 27  1  0  0  0  0
 26 28  1  0  0  0  0
 29 30  2  0  0  0  0
 29 31  1  0  0  0  0
 31 32  1  0  0  0  0
 31 33  1  0  0  0  0
 33 34  1  0  0  0  0
 33 35  1  0  0  0  0
 33 36  1  0  0  0  0
M  END
$$$$

  -OEChem-03222214083D

 36 37  0     1  0  0  0  0  0999 V2000
   -3.9760   -4.4306    1.6373 H   0  0  0  0  0  0  0  0  0  0  0  0
   -3.8219   -3.7446    0.7998 C   0  0  0  0  0  0  0  0  0  0  0  0
   -4.7124   -3.1218    0.6856 H   0  0  0  0  0  0  0  0  0  0  0  0
   -3.6746   -4.3291   -0.1119 H   0  0  0  0  0  0  0  0  0  0  0  0
   -2.6074   -2.8721    1.0534 C   0  0  0  0  0  0  0  0  0  0  0  0
   -1.9693   -2.9978    2.0876 O   0  0  0  0  0  0  0  0  0  0  0  0
   -2.2455   -1.9210    0.1247 N   0  0  0  0  0  0  0  0  0  0  0  0
   -2.8349   -1.8393   -0.7010 H   0  0  0  0  0  0  0  0  0  0  0  0
   -1.0097   -1.1169    0.1341 C   0  0  1  0  0  0  0  0  0  0  0  0
   -0.5387   -1.1804    1.1199 H   0  0  0  0  0  0  0  0  0  0  0  0
    0.0036   -1.6005   -0.9323 C   0  0  0  0  0  0  0  0  0  0  0  0
   -0.3621   -1.2624   -1.9075 H   0  0  0  0  0  0  0  0  0  0  0  0
    0.9661   -1.1087   -0.7606 H   0  0  0  0  0  0  0  0  0  0  0  0
    0.2426   -3.0911   -1.0471 C   0  0  0  0  0  0  0  0  0  0  0  0
    0.1681   -4.0518   -0.0651 C   0  0  0  0  0  0  0  0  0  0  0  0
   -0.0320   -3.8700    0.9877 H   0  0  0  0  0  0  0  0  0  0  0  0
    0.4284   -5.2880   -0.6500 N   0  0  0  0  0  0  0  0  0  0  0  0
    0.4548   -6.1764   -0.1540 H   0  0  0  0  0  0  0  0  0  0  0  0
    0.6680   -5.1383   -2.0047 C   0  0  0  0  0  0  0  0  0  0  0  0
    0.9675   -6.0661   -3.0024 C   0  0  0  0  0  0  0  0  0  0  0  0
    1.0501   -7.1203   -2.7620 H   0  0  0  0  0  0  0  0  0  0  0  0
    1.1591   -5.6177   -4.3167 C   0  0  0  0  0  0  0  0  0  0  0  0
    1.3907   -6.3285   -5.1045 H   0  0  0  0  0  0  0  0  0  0  0  0
    1.0515   -4.2509   -4.6158 C   0  0  0  0  0  0  0  0  0  0  0  0
    1.2000   -3.9055   -5.6344 H   0  0  0  0  0  0  0  0  0  0  0  0
    0.7528   -3.3275   -3.6034 C   0  0  0  0  0  0  0  0  0  0  0  0
    0.6697   -2.2705   -3.8340 H   0  0  0  0  0  0  0  0  0  0  0  0
    0.5610   -3.7825   -2.2936 C   0  0  0  0  0  0  0  0  0  0  0  0
   -1.3171    0.3641   -0.1636 C   0  0  0  0  0  0  0  0  0  0  0  0
   -2.0913    0.6637   -1.0659 O   0  0  0  0  0  0  0  0  0  0  0  0
   -0.7369    1.3665    0.5924 N   0  0  0  0  0  0  0  0  0  0  0  0
   -0.1553    1.0876    1.3776 H   0  0  0  0  0  0  0  0  0  0  0  0
   -1.0188    2.7829    0.3929 C   0  0  0  0  0  0  0  0  0  0  0  0
   -2.0778    2.9922    0.5767 H   0  0  0  0  0  0  0  0  0  0  0  0
   -0.4213    3.3881    1.0815 H   0  0  0  0  0  0  0  0  0  0  0  0
   -0.7726    3.0827   -0.6312 H   0  0  0  0  0  0  0  0  0  0  0  0
  1  2  1  0  0  0  0
  2  3  1  0  0  0  0
  2  4  1  0  0  0  0
  2  5  1  0  0  0  0
  5  6  2  0  0  0  0
  5  7  1  0  0  0  0
  7  8  1  0  0  0  0
  7  9  1  0  0  0  0
  9 10  1  0  0  0  0
  9 11  1  0  0  0  0
  9 29  1  0  0  0  0
 11 12  1  0  0  0  0
 11 13  1  0  0  0  0
 11 14  1  0  0  0  0
 14 15  2  0  0  0  0
 14 28  1  0  0  0  0
 15 16  1  0  0  0  0
 15 17  1  0  0  0  0
 17 18  1  0  0  0  0
 17 19  1  0  0  0  0
 19 20  1  0  0  0  0
 19 28  2  0  0  0  0
 20 21  1  0  0  0  0
 20 22  2  0  0  0  0
 22 23  1  0  0  0  0
 22 24  1  0  0  0  0
 24 25  1  0  0  0  0
 24 26  2  0  0  0  0
 26 27  1  0  0  0  0
 26 28  1  0  0  0  0
 29 30  2  0  0  0  0
 29 31  1  0  0  0  0
 31 32  1  0  0  0  0
 31 33  1  0  0  0  0
 33 34  1  0  0  0  0
 33 35  1  0  0  0  0
 33 36  1  0  0  0  0
M  END
$$$$

  -OEChem-03222214083D

 36 37  0     1  0  0  0  0  0999 V2000
   -4.1750   -4.2714    1.7806 H   0  0  0  0  0  0  0  0  0  0  0  0
   -3.9925   -3.6168    0.9238 C   0  0  0  0  0  0  0  0  0  0  0  0
   -4.8391   -2.9345    0.8149 H   0  0  0  0  0  0  0  0  0  0  0  0
   -3.9093   -4.2301    0.0230 H   0  0  0  0  0  0  0  0  0  0  0  0
   -2.7140   -2.8275    1.1312 C   0  0  0  0  0  0  0  0  0  0  0  0
   -2.0655   -2.9732    2.1557 O   0  0  0  0  0  0  0  0  0  0  0  0
   -2.3074   -1.9223    0.1759 N   0  0  0  0  0  0  0  0  0  0  0  0
   -2.9179   -1.7994   -0.6295 H   0  0  0  0  0  0  0  0  0  0  0  0
   -1.0421   -1.1653    0.1603 C   0  0  1  0  0  0  0  0  0  0  0  0
   -0.5791   -1.2125    1.1509 H   0  0  0  0  0  0  0  0  0  0  0  0
   -0.0231   -1.6867   -0.8869 C   0  0  0  0  0  0  0  0  0  0  0  0
   -0.3714   -1.3521   -1.8702 H   0  0  0  0  0  0  0  0  0  0  0  0
    0.9386   -1.1984   -0.7022 H   0  0  0  0  0  0  0  0  0  0  0  0
    0.2324   -3.1745   -1.0212 C   0  0  0  0  0  0  0  0  0  0  0  0
   -0.0795   -4.2217   -0.1844 C   0  0  0  0  0  0  0  0  0  0  0  0
   -0.5239   -4.1436    0.8011 H   0  0  0  0  0  0  0  0  0  0  0  0
    0.3308   -5.4037   -0.7950 N   0  0  0  0  0  0  0  0  0  0  0  0
    0.2476   -6.3330   -0.3887 H   0  0  0  0  0  0  0  0  0  0  0  0
    0.9038   -5.1364   -2.0247 C   0  0  0  0  0  0  0  0  0  0  0  0
    1.4550   -5.9729   -2.9956 C   0  0  0  0  0  0  0  0  0  0  0  0
    1.4817   -7.0457   -2.8411 H   0  0  0  0  0  0  0  0  0  0  0  0
    1.9706   -5.4084   -4.1706 C   0  0  0  0  0  0  0  0  0  0  0  0
    2.4013   -6.0473   -4.9358 H   0  0  0  0  0  0  0  0  0  0  0  0
    1.9294   -4.0186   -4.3591 C   0  0  0  0  0  0  0  0  0  0  0  0
    2.3282   -3.5834   -5.2705 H   0  0  0  0  0  0  0  0  0  0  0  0
    1.3747   -3.1883   -3.3744 C   0  0  0  0  0  0  0  0  0  0  0  0
    1.3426   -2.1134   -3.5187 H   0  0  0  0  0  0  0  0  0  0  0  0
    0.8613   -3.7591   -2.2037 C   0  0  0  0  0  0  0  0  0  0  0  0
   -1.3086    0.3130   -0.1891 C   0  0  0  0  0  0  0  0  0  0  0  0
   -2.0890    0.6037   -1.0891 O   0  0  0  0  0  0  0  0  0  0  0  0
   -0.6983    1.3228    0.5323 N   0  0  0  0  0  0  0  0  0  0  0  0
   -0.1102    1.0524    1.3156 H   0  0  0  0  0  0  0  0  0  0  0  0
   -0.9391    2.7397    0.2884 C   0  0  0  0  0  0  0  0  0  0  0  0
   -1.9913    2.9860    0.4648 H   0  0  0  0  0  0  0  0  0  0  0  0
   -0.3242    3.3482    0.9587 H   0  0  0  0  0  0  0  0  0  0  0  0
   -0.6839    2.9997   -0.7444 H   0  0  0  0  0  0  0  0  0  0  0  0
  1  2  1  0  0  0  0
  2  3  1  0  0  0  0
  2  4  1  0  0  0  0
  2  5  1  0  0  0  0
  5  6  2  0  0  0  0
  5  7  1  0  0  0  0
  7  8  1  0  0  0  0
  7  9  1  0  0  0  0
  9 10  1  0  0  0  0
  9 11  1  0  0  0  0
  9 29  1  0  0  0  0
 11 12  1  0  0  0  0
 11 13  1  0  0  0  0
 11 14  1  0  0  0  0
 14 15  2  0  0  0  0
 14 28  1  0  0  0  0
 15 16  1  0  0  0  0
 15 17  1  0  0  0  0
 17 18  1  0  0  0  0
 17 19  1  0  0  0  0
 19 20  1  0  0  0  0
 19 28  2  0  0  0  0
 20 21  1  0  0  0  0
 20 22  2  0  0  0  0
 22 23  1  0  0  0  0
 22 24  1  0  0  0  0
 24 25  1  0  0  0  0
 24 26  2  0  0  0  0
 26 27  1  0  0  0  0
 26 28  1  0  0  0  0
 29 30  2  0  0  0  0
 29 31  1  0  0  0  0
 31 32  1  0  0  0  0
 31 33  1  0  0  0  0
 33 34  1  0  0  0  0
 33 35  1  0  0  0  0
 33 36  1  0  0  0  0
M  END
$$$$

  -OEChem-03222214083D

 36 37  0     1  0  0  0  0  0999 V2000
   -4.3527   -4.1168    1.8601 H   0  0  0  0  0  0  0  0  0  0  0  0
   -4.1630   -3.4536    1.0114 C   0  0  0  0  0  0  0  0  0  0  0  0
   -4.9419   -2.6877    0.9821 H   0  0  0  0  0  0  0  0  0  0  0  0
   -4.2027   -4.0397    0.0900 H   0  0  0  0  0  0  0  0  0  0  0  0
   -2.8011   -2.8010    1.1512 C   0  0  0  0  0  0  0  0  0  0  0  0
   -2.1056   -3.0423    2.1248 O   0  0  0  0  0  0  0  0  0  0  0  0
   -2.3636   -1.9223    0.1851 N   0  0  0  0  0  0  0  0  0  0  0  0
   -3.0125   -1.7028   -0.5686 H   0  0  0  0  0  0  0  0  0  0  0  0
   -1.0689   -1.2180    0.1611 C   0  0  1  0  0  0  0  0  0  0  0  0
   -0.6148   -1.2691    1.1557 H   0  0  0  0  0  0  0  0  0  0  0  0
   -0.0444   -1.7611   -0.8707 C   0  0  0  0  0  0  0  0  0  0  0  0
   -0.3582   -1.4089   -1.8595 H   0  0  0  0  0  0  0  0  0  0  0  0
    0.9194   -1.2904   -0.6521 H   0  0  0  0  0  0  0  0  0  0  0  0
    0.2072   -3.2481   -1.0317 C   0  0  0  0  0  0  0  0  0  0  0  0
   -0.3165   -4.3563   -0.4046 C   0  0  0  0  0  0  0  0  0  0  0  0
   -1.0145   -4.3625    0.4215 H   0  0  0  0  0  0  0  0  0  0  0  0
    0.2418   -5.4923   -0.9862 N   0  0  0  0  0  0  0  0  0  0  0  0
    0.0516   -6.4507   -0.7015 H   0  0  0  0  0  0  0  0  0  0  0  0
    1.1201   -5.1368   -1.9927 C   0  0  0  0  0  0  0  0  0  0  0  0
    1.9081   -5.8990   -2.8554 C   0  0  0  0  0  0  0  0  0  0  0  0
    1.8938   -6.9816   -2.7963 H   0  0  0  0  0  0  0  0  0  0  0  0
    2.7151   -5.2471   -3.7983 C   0  0  0  0  0  0  0  0  0  0  0  0
    3.3331   -5.8270   -4.4775 H   0  0  0  0  0  0  0  0  0  0  0  0
    2.7241   -3.8456   -3.8666 C   0  0  0  0  0  0  0  0  0  0  0  0
    3.3487   -3.3422   -4.5983 H   0  0  0  0  0  0  0  0  0  0  0  0
    1.9279   -3.0914   -2.9927 C   0  0  0  0  0  0  0  0  0  0  0  0
    1.9316   -2.0078   -3.0444 H   0  0  0  0  0  0  0  0  0  0  0  0
    1.1257   -3.7493   -2.0530 C   0  0  0  0  0  0  0  0  0  0  0  0
   -1.2930    0.2640   -0.2018 C   0  0  0  0  0  0  0  0  0  0  0  0
   -2.0848    0.5673   -1.0878 O   0  0  0  0  0  0  0  0  0  0  0  0
   -0.6513    1.2646    0.5050 N   0  0  0  0  0  0  0  0  0  0  0  0
   -0.0541    0.9874    1.2790 H   0  0  0  0  0  0  0  0  0  0  0  0
   -0.8584    2.6843    0.2470 C   0  0  0  0  0  0  0  0  0  0  0  0
   -1.9023    2.9588    0.4308 H   0  0  0  0  0  0  0  0  0  0  0  0
   -0.2215    3.2852    0.9033 H   0  0  0  0  0  0  0  0  0  0  0  0
   -0.6077    2.9259   -0.7913 H   0  0  0  0  0  0  0  0  0  0  0  0
  1  2  1  0  0  0  0
  2  3  1  0  0  0  0
  2  4  1  0  0  0  0
  2  5  1  0  0  0  0
  5  6  2  0  0  0  0
  5  7  1  0  0  0  0
  7  8  1  0  0  0  0
  7  9  1  0  0  0  0
  9 10  1  0  0  0  0
  9 11  1  0  0  0  0
  9 29  1  0  0  0  0
 11 12  1  0  0  0  0
 11 13  1  0  0  0  0
 11 14  1  0  0  0  0
 14 15  2  0  0  0  0
 14 28  1  0  0  0  0
 15 16  1  0  0  0  0
 15 17  1  0  0  0  0
 17 18  1  0  0  0  0
 17 19  1  0  0  0  0
 19 20  1  0  0  0  0
 19 28  2  0  0  0  0
 20 21  1  0  0  0  0
 20 22  2  0  0  0  0
 22 23  1  0  0  0  0
 22 24  1  0  0  0  0
 24 25  1  0  0  0  0
 24 26  2  0  0  0  0
 26 27  1  0  0  0  0
 26 28  1  0  0  0  0
 29 30  2  0  0  0  0
 29 31  1  0  0  0  0
 31 32  1  0  0  0  0
 31 33  1  0  0  0  0
 33 34  1  0  0  0  0
 33 35  1  0  0  0  0
 33 36  1  0  0  0  0
M  END
$$$$

  -OEChem-03222214083D

 36 37  0     1  0  0  0  0  0999 V2000
   -4.4106   -4.0831    1.8294 H   0  0  0  0  0  0  0  0  0  0  0  0
   -4.2438   -3.3555    1.0300 C   0  0  0  0  0  0  0  0  0  0  0  0
   -4.9620   -2.5395    1.1405 H   0  0  0  0  0  0  0  0  0  0  0  0
   -4.4064   -3.8464    0.0674 H   0  0  0  0  0  0  0  0  0  0  0  0
   -2.8296   -2.8120    1.1033 C   0  0  0  0  0  0  0  0  0  0  0  0
   -2.0854   -3.1688    2.0014 O   0  0  0  0  0  0  0  0  0  0  0  0
   -2.3933   -1.9167    0.1509 N   0  0  0  0  0  0  0  0  0  0  0  0
   -3.0790   -1.5928   -0.5298 H   0  0  0  0  0  0  0  0  0  0  0  0
   -1.0828   -1.2429    0.1287 C   0  0  1  0  0  0  0  0  0  0  0  0
   -0.6282   -1.3252    1.1211 H   0  0  0  0  0  0  0  0  0  0  0  0
   -0.0567   -1.7704   -0.9104 C   0  0  0  0  0  0  0  0  0  0  0  0
   -0.3453   -1.3840   -1.8941 H   0  0  0  0  0  0  0  0  0  0  0  0
    0.9069   -1.3176   -0.6564 H   0  0  0  0  0  0  0  0  0  0  0  0
    0.1840   -3.2555   -1.1095 C   0  0  0  0  0  0  0  0  0  0  0  0
   -0.5184   -4.3753   -0.7232 C   0  0  0  0  0  0  0  0  0  0  0  0
   -1.4273   -4.4003   -0.1386 H   0  0  0  0  0  0  0  0  0  0  0  0
    0.1495   -5.4988   -1.2038 N   0  0  0  0  0  0  0  0  0  0  0  0
   -0.1349   -6.4625   -1.0447 H   0  0  0  0  0  0  0  0  0  0  0  0
    1.2778   -5.1244   -1.9082 C   0  0  0  0  0  0  0  0  0  0  0  0
    2.2524   -5.8721   -2.5695 C   0  0  0  0  0  0  0  0  0  0  0  0
    2.1948   -6.9548   -2.5829 H   0  0  0  0  0  0  0  0  0  0  0  0
    3.3026   -5.2053   -3.2154 C   0  0  0  0  0  0  0  0  0  0  0  0
    4.0684   -5.7737   -3.7347 H   0  0  0  0  0  0  0  0  0  0  0  0
    3.3637   -3.8037   -3.1929 C   0  0  0  0  0  0  0  0  0  0  0  0
    4.1767   -3.2890   -3.6957 H   0  0  0  0  0  0  0  0  0  0  0  0
    2.3775   -3.0642   -2.5239 C   0  0  0  0  0  0  0  0  0  0  0  0
    2.4233   -1.9804   -2.5086 H   0  0  0  0  0  0  0  0  0  0  0  0
    1.3334   -3.7367   -1.8769 C   0  0  0  0  0  0  0  0  0  0  0  0
   -1.2872    0.2519   -0.1896 C   0  0  0  0  0  0  0  0  0  0  0  0
   -2.1048    0.5915   -1.0383 O   0  0  0  0  0  0  0  0  0  0  0  0
   -0.6188    1.2226    0.5340 N   0  0  0  0  0  0  0  0  0  0  0  0
    0.0006    0.9134    1.2780 H   0  0  0  0  0  0  0  0  0  0  0  0
   -0.8198    2.6524    0.3317 C   0  0  0  0  0  0  0  0  0  0  0  0
   -1.8579    2.9282    0.5450 H   0  0  0  0  0  0  0  0  0  0  0  0
   -0.1664    3.2240    0.9978 H   0  0  0  0  0  0  0  0  0  0  0  0
   -0.5864    2.9296   -0.7017 H   0  0  0  0  0  0  0  0  0  0  0  0
  1  2  1  0  0  0  0
  2  3  1  0  0  0  0
  2  4  1  0  0  0  0
  2  5  1  0  0  0  0
  5  6  2  0  0  0  0
  5  7  1  0  0  0  0
  7  8  1  0  0  0  0
  7  9  1  0  0  0  0
  9 10  1  0  0  0  0
  9 11  1  0  0  0  0
  9 29  1  0  0  0  0
 11 12  1  0  0  0  0
 11 13  1  0  0  0  0
 11 14  1  0  0  0  0
 14 15  2  0  0  0  0
 14 28  1  0  0  0  0
 15 16  1  0  0  0  0
 15 17  1  0  0  0  0
 17 18  1  0  0  0  0
 17 19  1  0  0  0  0
 19 20  1  0  0  0  0
 19 28  2  0  0  0  0
 20 21  1  0  0  0  0
 20 22  2  0  0  0  0
 22 23  1  0  0  0  0
 22 24  1  0  0  0  0
 24 25  1  0  0  0  0
 24 26  2  0  0  0  0
 26 27  1  0  0  0  0
 26 28  1  0  0  0  0
 29 30  2  0  0  0  0
 29 31  1  0  0  0  0
 31 32  1  0  0  0  0
 31 33  1  0  0  0  0
 33 34  1  0  0  0  0
 33 35  1  0  0  0  0
 33 36  1  0  0  0  0
M  END
$$$$

  -OEChem-03222214083D

 36 37  0     1  0  0  0  0  0999 V2000
   -4.3282   -4.1724    1.7262 H   0  0  0  0  0  0  0  0  0  0  0  0
   -4.1954   -3.3888    0.9749 C   0  0  0  0  0  0  0  0  0  0  0  0
   -4.9003   -2.5800    1.1813 H   0  0  0  0  0  0  0  0  0  0  0  0
   -4.4099   -3.8068   -0.0114 H   0  0  0  0  0  0  0  0  0  0  0  0
   -2.7750   -2.8583    1.0181 C   0  0  0  0  0  0  0  0  0  0  0  0
   -2.0018   -3.2600    1.8708 O   0  0  0  0  0  0  0  0  0  0  0  0
   -2.3734   -1.9160    0.0949 N   0  0  0  0  0  0  0  0  0  0  0  0
   -3.0868   -1.5425   -0.5296 H   0  0  0  0  0  0  0  0  0  0  0  0
   -1.0711   -1.2273    0.0860 C   0  0  1  0  0  0  0  0  0  0  0  0
   -0.6076   -1.3436    1.0710 H   0  0  0  0  0  0  0  0  0  0  0  0
   -0.0436   -1.7069   -0.9739 C   0  0  0  0  0  0  0  0  0  0  0  0
   -0.3329   -1.2943   -1.9464 H   0  0  0  0  0  0  0  0  0  0  0  0
    0.9146   -1.2531   -0.7052 H   0  0  0  0  0  0  0  0  0  0  0  0
    0.1927   -3.1889   -1.2008 C   0  0  0  0  0  0  0  0  0  0  0  0
   -0.6435   -4.2743   -1.0647 C   0  0  0  0  0  0  0  0  0  0  0  0
   -1.6818   -4.2521   -0.7606 H   0  0  0  0  0  0  0  0  0  0  0  0
    0.0699   -5.4221   -1.3985 N   0  0  0  0  0  0  0  0  0  0  0  0
   -0.2929   -6.3717   -1.3584 H   0  0  0  0  0  0  0  0  0  0  0  0
    1.3623   -5.0958   -1.7621 C   0  0  0  0  0  0  0  0  0  0  0  0
    2.4358   -5.8861   -2.1731 C   0  0  0  0  0  0  0  0  0  0  0  0
    2.3270   -6.9624   -2.2439 H   0  0  0  0  0  0  0  0  0  0  0  0
    3.6531   -5.2703   -2.4934 C   0  0  0  0  0  0  0  0  0  0  0  0
    4.4978   -5.8722   -2.8151 H   0  0  0  0  0  0  0  0  0  0  0  0
    3.7800   -3.8764   -2.4006 C   0  0  0  0  0  0  0  0  0  0  0  0
    4.7234   -3.4011   -2.6515 H   0  0  0  0  0  0  0  0  0  0  0  0
    2.6931   -3.0941   -1.9842 C   0  0  0  0  0  0  0  0  0  0  0  0
    2.7937   -2.0164   -1.9161 H   0  0  0  0  0  0  0  0  0  0  0  0
    1.4799   -3.7147   -1.6602 C   0  0  0  0  0  0  0  0  0  0  0  0
   -1.2956    0.2772   -0.1618 C   0  0  0  0  0  0  0  0  0  0  0  0
   -2.1337    0.6445   -0.9783 O   0  0  0  0  0  0  0  0  0  0  0  0
   -0.6273    1.2210    0.5964 N   0  0  0  0  0  0  0  0  0  0  0  0
    0.0039    0.8845    1.3184 H   0  0  0  0  0  0  0  0  0  0  0  0
   -0.8565    2.6552    0.4728 C   0  0  0  0  0  0  0  0  0  0  0  0
   -1.8970    2.8993    0.7109 H   0  0  0  0  0  0  0  0  0  0  0  0
   -0.2060    3.2025    1.1620 H   0  0  0  0  0  0  0  0  0  0  0  0
   -0.6395    2.9917   -0.5464 H   0  0  0  0  0  0  0  0  0  0  0  0
  1  2  1  0  0  0  0
  2  3  1  0  0  0  0
  2  4  1  0  0  0  0
  2  5  1  0  0  0  0
  5  6  2  0  0  0  0
  5  7  1  0  0  0  0
  7  8  1  0  0  0  0
  7  9  1  0  0  0  0
  9 10  1  0  0  0  0
  9 11  1  0  0  0  0
  9 29  1  0  0  0  0
 11 12  1  0  0  0  0
 11 13  1  0  0  0  0
 11 14  1  0  0  0  0
 14 15  2  0  0  0  0
 14 28  1  0  0  0  0
 15 16  1  0  0  0  0
 15 17  1  0  0  0  0
 17 18  1  0  0  0  0
 17 19  1  0  0  0  0
 19 20  1  0  0  0  0
 19 28  2  0  0  0  0
 20 21  1  0  0  0  0
 20 22  2  0  0  0  0
 22 23  1  0  0  0  0
 22 24  1  0  0  0  0
 24 25  1  0  0  0  0
 24 26  2  0  0  0  0
 26 27  1  0  0  0  0
 26 28  1  0  0  0  0
 29 30  2  0  0  0  0
 29 31  1  0  0  0  0
 31 32  1  0  0  0  0
 31 33  1  0  0  0  0
 33 34  1  0  0  0  0
 33 35  1  0  0  0  0
 33 36  1  0  0  0  0
M  END
$$$$

  -OEChem-03222214083D

 36 37  0     1  0  0  0  0  0999 V2000
   -4.1649   -4.2890    1.6595 H   0  0  0  0  0  0  0  0  0  0  0  0
   -4.0595   -3.5165    0.8925 C   0  0  0  0  0  0  0  0  0  0  0  0
   -4.8074   -2.7397    1.0703 H   0  0  0  0  0  0  0  0  0  0  0  0
   -4.2374   -3.9668   -0.0867 H   0  0  0  0  0  0  0  0  0  0  0  0
   -2.6670   -2.9163    0.9438 C   0  0  0  0  0  0  0  0  0  0  0  0
   -1.8780   -3.2908    1.7944 O   0  0  0  0  0  0  0  0  0  0  0  0
   -2.3196   -1.9251    0.0486 N   0  0  0  0  0  0  0  0  0  0  0  0
   -3.0544   -1.5617   -0.5561 H   0  0  0  0  0  0  0  0  0  0  0  0
   -1.0431   -1.1890    0.0511 C   0  0  1  0  0  0  0  0  0  0  0  0
   -0.5637   -1.3245    1.0259 H   0  0  0  0  0  0  0  0  0  0  0  0
   -0.0181   -1.6116   -1.0327 C   0  0  0  0  0  0  0  0  0  0  0  0
   -0.3370   -1.1965   -1.9949 H   0  0  0  0  0  0  0  0  0  0  0  0
    0.9345   -1.1374   -0.7810 H   0  0  0  0  0  0  0  0  0  0  0  0
    0.2237   -3.0903   -1.2632 C   0  0  0  0  0  0  0  0  0  0  0  0
   -0.6869   -4.1161   -1.3762 C   0  0  0  0  0  0  0  0  0  0  0  0
   -1.7660   -4.0134   -1.3379 H   0  0  0  0  0  0  0  0  0  0  0  0
    0.0143   -5.3034   -1.5648 N   0  0  0  0  0  0  0  0  0  0  0  0
   -0.4028   -6.2272   -1.6508 H   0  0  0  0  0  0  0  0  0  0  0  0
    1.3749   -5.0584   -1.5766 C   0  0  0  0  0  0  0  0  0  0  0  0
    2.4640   -5.9165   -1.7266 C   0  0  0  0  0  0  0  0  0  0  0  0
    2.3058   -6.9808   -1.8598 H   0  0  0  0  0  0  0  0  0  0  0  0
    3.7603   -5.3853   -1.7005 C   0  0  0  0  0  0  0  0  0  0  0  0
    4.6182   -6.0412   -1.8141 H   0  0  0  0  0  0  0  0  0  0  0  0
    3.9500   -4.0065   -1.5259 C   0  0  0  0  0  0  0  0  0  0  0  0
    4.9554   -3.5968   -1.5060 H   0  0  0  0  0  0  0  0  0  0  0  0
    2.8460   -3.1547   -1.3744 C   0  0  0  0  0  0  0  0  0  0  0  0
    2.9977   -2.0895   -1.2393 H   0  0  0  0  0  0  0  0  0  0  0  0
    1.5518   -3.6908   -1.3978 C   0  0  0  0  0  0  0  0  0  0  0  0
   -1.3136    0.3157   -0.1359 C   0  0  0  0  0  0  0  0  0  0  0  0
   -2.1654    0.6881   -0.9358 O   0  0  0  0  0  0  0  0  0  0  0  0
   -0.6643    1.2492    0.6507 N   0  0  0  0  0  0  0  0  0  0  0  0
   -0.0118    0.9045    1.3497 H   0  0  0  0  0  0  0  0  0  0  0  0
   -0.9277    2.6809    0.5760 C   0  0  0  0  0  0  0  0  0  0  0  0
   -1.9767    2.8908    0.8091 H   0  0  0  0  0  0  0  0  0  0  0  0
   -0.3003    3.2185    1.2934 H   0  0  0  0  0  0  0  0  0  0  0  0
   -0.7069    3.0589   -0.4276 H   0  0  0  0  0  0  0  0  0  0  0  0
  1  2  1  0  0  0  0
  2  3  1  0  0  0  0
  2  4  1  0  0  0  0
  2  5  1  0  0  0  0
  5  6  2  0  0  0  0
  5  7  1  0  0  0  0
  7  8  1  0  0  0  0
  7  9  1  0  0  0  0
  9 10  1  0  0  0  0
  9 11  1  0  0  0  0
  9 29  1  0  0  0  0
 11 12  1  0  0  0  0
 11 13  1  0  0  0  0
 11 14  1  0  0  0  0
 14 15  2  0  0  0  0
 14 28  1  0  0  0  0
 15 16  1  0  0  0  0
 15 17  1  0  0  0  0
 17 18  1  0  0  0  0
 17 19  1  0  0  0  0
 19 20  1  0  0  0  0
 19 28  2  0  0  0  0
 20 21  1  0  0  0  0
 20 22  2  0  0  0  0
 22 23  1  0  0  0  0
 22 24  1  0  0  0  0
 24 25  1  0  0  0  0
 24 26  2  0  0  0  0
 26 27  1  0  0  0  0
 26 28  1  0  0  0  0
 29 30  2  0  0  0  0
 29 31  1  0  0  0  0
 31 32  1  0  0  0  0
 31 33  1  0  0  0  0
 33 34  1  0  0  0  0
 33 35  1  0  0  0  0
 33 36  1  0  0  0  0
M  END
$$$$

  -OEChem-03222214083D

 36 37  0     1  0  0  0  0  0999 V2000
   -3.9599   -4.4325    1.5662 H   0  0  0  0  0  0  0  0  0  0  0  0
   -3.8795   -3.6642    0.7921 C   0  0  0  0  0  0  0  0  0  0  0  0
   -4.6948   -2.9482    0.9214 H   0  0  0  0  0  0  0  0  0  0  0  0
   -3.9724   -4.1402   -0.1868 H   0  0  0  0  0  0  0  0  0  0  0  0
   -2.5431   -2.9540    0.8989 C   0  0  0  0  0  0  0  0  0  0  0  0
   -1.7624   -3.2648    1.7826 O   0  0  0  0  0  0  0  0  0  0  0  0
   -2.2440   -1.9308    0.0224 N   0  0  0  0  0  0  0  0  0  0  0  0
   -2.9834   -1.6149   -0.6018 H   0  0  0  0  0  0  0  0  0  0  0  0
   -1.0000   -1.1413    0.0369 C   0  0  1  0  0  0  0  0  0  0  0  0
   -0.5048   -1.2784    1.0036 H   0  0  0  0  0  0  0  0  0  0  0  0
    0.0147   -1.5275   -1.0664 C   0  0  0  0  0  0  0  0  0  0  0  0
   -0.3431   -1.1281   -2.0214 H   0  0  0  0  0  0  0  0  0  0  0  0
    0.9658   -1.0323   -0.8520 H   0  0  0  0  0  0  0  0  0  0  0  0
    0.2560   -3.0071   -1.2748 C   0  0  0  0  0  0  0  0  0  0  0  0
   -0.6636   -3.9665   -1.6305 C   0  0  0  0  0  0  0  0  0  0  0  0
   -1.7141   -3.7842   -1.8368 H   0  0  0  0  0  0  0  0  0  0  0  0
   -0.0094   -5.1940   -1.6853 N   0  0  0  0  0  0  0  0  0  0  0  0
   -0.4453   -6.0872   -1.9015 H   0  0  0  0  0  0  0  0  0  0  0  0
    1.3267   -5.0380   -1.3614 C   0  0  0  0  0  0  0  0  0  0  0  0
    2.3671   -5.9627   -1.2728 C   0  0  0  0  0  0  0  0  0  0  0  0
    2.1849   -7.0114   -1.4789 H   0  0  0  0  0  0  0  0  0  0  0  0
    3.6462   -5.5181   -0.9128 C   0  0  0  0  0  0  0  0  0  0  0  0
    4.4654   -6.2270   -0.8391 H   0  0  0  0  0  0  0  0  0  0  0  0
    3.8677   -4.1586   -0.6460 C   0  0  0  0  0  0  0  0  0  0  0  0
    4.8594   -3.8172   -0.3654 H   0  0  0  0  0  0  0  0  0  0  0  0
    2.8129   -3.2389   -0.7383 C   0  0  0  0  0  0  0  0  0  0  0  0
    2.9861   -2.1892   -0.5298 H   0  0  0  0  0  0  0  0  0  0  0  0
    1.5370   -3.6883   -1.0991 C   0  0  0  0  0  0  0  0  0  0  0  0
   -1.3213    0.3572   -0.1181 C   0  0  0  0  0  0  0  0  0  0  0  0
   -2.1739    0.7176   -0.9227 O   0  0  0  0  0  0  0  0  0  0  0  0
   -0.7033    1.2973    0.6859 N   0  0  0  0  0  0  0  0  0  0  0  0
   -0.0495    0.9602    1.3872 H   0  0  0  0  0  0  0  0  0  0  0  0
   -1.0073    2.7221    0.6315 C   0  0  0  0  0  0  0  0  0  0  0  0
   -2.0677    2.8967    0.8420 H   0  0  0  0  0  0  0  0  0  0  0  0
   -0.4141    3.2638    1.3746 H   0  0  0  0  0  0  0  0  0  0  0  0
   -0.7730    3.1267   -0.3589 H   0  0  0  0  0  0  0  0  0  0  0  0
  1  2  1  0  0  0  0
  2  3  1  0  0  0  0
  2  4  1  0  0  0  0
  2  5  1  0  0  0  0
  5  6  2  0  0  0  0
  5  7  1  0  0  0  0
  7  8  1  0  0  0  0
  7  9  1  0  0  0  0
  9 10  1  0  0  0  0
  9 11  1  0  0  0  0
  9 29  1  0  0  0  0
 11 12  1  0  0  0  0
 11 13  1  0  0  0  0
 11 14  1  0  0  0  0
 14 15  2  0  0  0  0
 14 28  1  0  0  0  0
 15 16  1  0  0  0  0
 15 17  1  0  0  0  0
 17 18  1  0  0  0  0
 17 19  1  0  0  0  0
 19 20  1  0  0  0  0
 19 28  2  0  0  0  0
 20 21  1  0  0  0  0
 20 22  2  0  0  0  0
 22 23  1  0  0  0  0
 22 24  1  0  0  0  0
 24 25  1  0  0  0  0
 24 26  2  0  0  0  0
 26 27  1  0  0  0  0
 26 28  1  0  0  0  0
 29 30  2  0  0  0  0
 29 31  1  0  0  0  0
 31 32  1  0  0  0  0
 31 33  1  0  0  0  0
 33 34  1  0  0  0  0
 33 35  1  0  0  0  0
 33 36  1  0  0  0  0
M  END
$$$$

  -OEChem-03222214083D

 36 37  0     1  0  0  0  0  0999 V2000
   -3.7882   -4.5414    1.4995 H   0  0  0  0  0  0  0  0  0  0  0  0
   -3.7332   -3.7662    0.7299 C   0  0  0  0  0  0  0  0  0  0  0  0
   -4.5955   -3.1035    0.8355 H   0  0  0  0  0  0  0  0  0  0  0  0
   -3.7645   -4.2434   -0.2523 H   0  0  0  0  0  0  0  0  0  0  0  0
   -2.4484   -2.9738    0.8796 C   0  0  0  0  0  0  0  0  0  0  0  0
   -1.6864   -3.2254    1.7984 O   0  0  0  0  0  0  0  0  0  0  0  0
   -2.1818   -1.9361    0.0097 N   0  0  0  0  0  0  0  0  0  0  0  0
   -2.9060   -1.6779   -0.6563 H   0  0  0  0  0  0  0  0  0  0  0  0
   -0.9637   -1.1085    0.0371 C   0  0  1  0  0  0  0  0  0  0  0  0
   -0.4595   -1.2398    0.9997 H   0  0  0  0  0  0  0  0  0  0  0  0
    0.0409   -1.4777   -1.0768 C   0  0  0  0  0  0  0  0  0  0  0  0
   -0.3381   -1.0909   -2.0286 H   0  0  0  0  0  0  0  0  0  0  0  0
    0.9954   -0.9784   -0.8859 H   0  0  0  0  0  0  0  0  0  0  0  0
    0.2733   -2.9592   -1.2550 C   0  0  0  0  0  0  0  0  0  0  0  0
   -0.5813   -3.8576   -1.8493 C   0  0  0  0  0  0  0  0  0  0  0  0
   -1.5456   -3.6118   -2.2865 H   0  0  0  0  0  0  0  0  0  0  0  0
    0.0141   -5.1152   -1.7933 N   0  0  0  0  0  0  0  0  0  0  0  0
   -0.3896   -5.9773   -2.1515 H   0  0  0  0  0  0  0  0  0  0  0  0
    1.2414   -5.0359   -1.1563 C   0  0  0  0  0  0  0  0  0  0  0  0
    2.1936   -6.0106   -0.8573 C   0  0  0  0  0  0  0  0  0  0  0  0
    2.0256   -7.0435   -1.1404 H   0  0  0  0  0  0  0  0  0  0  0  0
    3.3647   -5.6377   -0.1831 C   0  0  0  0  0  0  0  0  0  0  0  0
    4.1134   -6.3863    0.0584 H   0  0  0  0  0  0  0  0  0  0  0  0
    3.5677   -4.2989    0.1848 C   0  0  0  0  0  0  0  0  0  0  0  0
    4.4727   -4.0134    0.7121 H   0  0  0  0  0  0  0  0  0  0  0  0
    2.6038   -3.3277   -0.1230 C   0  0  0  0  0  0  0  0  0  0  0  0
    2.7569   -2.2933    0.1641 H   0  0  0  0  0  0  0  0  0  0  0  0
    1.4397   -3.7066   -0.8001 C   0  0  0  0  0  0  0  0  0  0  0  0
   -1.3218    0.3815   -0.1088 C   0  0  0  0  0  0  0  0  0  0  0  0
   -2.1579    0.7295   -0.9359 O   0  0  0  0  0  0  0  0  0  0  0  0
   -0.7330    1.3305    0.7064 N   0  0  0  0  0  0  0  0  0  0  0  0
   -0.0964    1.0021    1.4274 H   0  0  0  0  0  0  0  0  0  0  0  0
   -1.0588    2.7500    0.6459 C   0  0  0  0  0  0  0  0  0  0  0  0
   -2.1297    2.9063    0.8133 H   0  0  0  0  0  0  0  0  0  0  0  0
   -0.5061    3.2980    1.4151 H   0  0  0  0  0  0  0  0  0  0  0  0
   -0.7911    3.1624   -0.3326 H   0  0  0  0  0  0  0  0  0  0  0  0
  1  2  1  0  0  0  0
  2  3  1  0  0  0  0
  2  4  1  0  0  0  0
  2  5  1  0  0  0  0
  5  6  2  0  0  0  0
  5  7  1  0  0  0  0
  7  8  1  0  0  0  0
  7  9  1  0  0  0  0
  9 10  1  0  0  0  0
  9 11  1  0  0  0  0
  9 29  1  0  0  0  0
 11 12  1  0  0  0  0
 11 13  1  0  0  0  0
 11 14  1  0  0  0  0
 14 15  2  0  0  0  0
 14 28  1  0  0  0  0
 15 16  1  0  0  0  0
 15 17  1  0  0  0  0
 17 18  1  0  0  0  0
 17 19  1  0  0  0  0
 19 20  1  0  0  0  0
 19 28  2  0  0  0  0
 20 21  1  0  0  0  0
 20 22  2  0  0  0  0
 22 23  1  0  0  0  0
 22 24  1  0  0  0  0
 24 25  1  0  0  0  0
 24 26  2  0  0  0  0
 26 27  1  0  0  0  0
 26 28  1  0  0  0  0
 29 30  2  0  0  0  0
 29 31  1  0  0  0  0
 31 32  1  0  0  0  0
 31 33  1  0  0  0  0
 33 34  1  0  0  0  0
 33 35  1  0  0  0  0
 33 36  1  0  0  0  0
M  END
$$$$

  -OEChem-03222214083D

 36 37  0     1  0  0  0  0  0999 V2000
   -3.6263   -4.6310    1.4463 H   0  0  0  0  0  0  0  0  0  0  0  0
   -3.5825   -3.8644    0.6677 C   0  0  0  0  0  0  0  0  0  0  0  0
   -4.4942   -3.2641    0.7119 H   0  0  0  0  0  0  0  0  0  0  0  0
   -3.5218   -4.3557   -0.3062 H   0  0  0  0  0  0  0  0  0  0  0  0
   -2.3677   -2.9806    0.8760 C   0  0  0  0  0  0  0  0  0  0  0  0
   -1.6393   -3.1681    1.8371 O   0  0  0  0  0  0  0  0  0  0  0  0
   -2.1297   -1.9339    0.0090 N   0  0  0  0  0  0  0  0  0  0  0  0
   -2.8172   -1.7554   -0.7181 H   0  0  0  0  0  0  0  0  0  0  0  0
   -0.9297   -1.0809    0.0343 C   0  0  1  0  0  0  0  0  0  0  0  0
   -0.4109   -1.2092    0.9894 H   0  0  0  0  0  0  0  0  0  0  0  0
    0.0551   -1.4434   -1.0970 C   0  0  0  0  0  0  0  0  0  0  0  0
   -0.3433   -1.0633   -2.0436 H   0  0  0  0  0  0  0  0  0  0  0  0
    1.0149   -0.9458   -0.9276 H   0  0  0  0  0  0  0  0  0  0  0  0
    0.2753   -2.9275   -1.2514 C   0  0  0  0  0  0  0  0  0  0  0  0
   -0.4476   -3.7773   -2.0547 C   0  0  0  0  0  0  0  0  0  0  0  0
   -1.2669   -3.4830   -2.7059 H   0  0  0  0  0  0  0  0  0  0  0  0
    0.0628   -5.0617   -1.8806 N   0  0  0  0  0  0  0  0  0  0  0  0
   -0.2701   -5.8997   -2.3519 H   0  0  0  0  0  0  0  0  0  0  0  0
    1.1002   -5.0456   -0.9619 C   0  0  0  0  0  0  0  0  0  0  0  0
    1.9098   -6.0639   -0.4579 C   0  0  0  0  0  0  0  0  0  0  0  0
    1.7740   -7.0864   -0.7922 H   0  0  0  0  0  0  0  0  0  0  0  0
    2.8955   -5.7481    0.4880 C   0  0  0  0  0  0  0  0  0  0  0  0
    3.5307   -6.5311    0.8910 H   0  0  0  0  0  0  0  0  0  0  0  0
    3.0586   -4.4223    0.9185 C   0  0  0  0  0  0  0  0  0  0  0  0
    3.8188   -4.1815    1.6551 H   0  0  0  0  0  0  0  0  0  0  0  0
    2.2393   -3.4070    0.4042 C   0  0  0  0  0  0  0  0  0  0  0  0
    2.3573   -2.3823    0.7389 H   0  0  0  0  0  0  0  0  0  0  0  0
    1.2622   -3.7301   -0.5426 C   0  0  0  0  0  0  0  0  0  0  0  0
   -1.3094    0.4044   -0.1019 C   0  0  0  0  0  0  0  0  0  0  0  0
   -2.1409    0.7483   -0.9353 O   0  0  0  0  0  0  0  0  0  0  0  0
   -0.7300    1.3564    0.7166 N   0  0  0  0  0  0  0  0  0  0  0  0
   -0.1038    1.0290    1.4471 H   0  0  0  0  0  0  0  0  0  0  0  0
   -1.0870    2.7689    0.6744 C   0  0  0  0  0  0  0  0  0  0  0  0
   -2.1436    2.9047    0.9281 H   0  0  0  0  0  0  0  0  0  0  0  0
   -0.4830    3.3333    1.3913 H   0  0  0  0  0  0  0  0  0  0  0  0
   -0.9088    3.1795   -0.3251 H   0  0  0  0  0  0  0  0  0  0  0  0
  1  2  1  0  0  0  0
  2  3  1  0  0  0  0
  2  4  1  0  0  0  0
  2  5  1  0  0  0  0
  5  6  2  0  0  0  0
  5  7  1  0  0  0  0
  7  8  1  0  0  0  0
  7  9  1  0  0  0  0
  9 10  1  0  0  0  0
  9 11  1  0  0  0  0
  9 29  1  0  0  0  0
 11 12  1  0  0  0  0
 11 13  1  0  0  0  0
 11 14  1  0  0  0  0
 14 15  2  0  0  0  0
 14 28  1  0  0  0  0
 15 16  1  0  0  0  0
 15 17  1  0  0  0  0
 17 18  1  0  0  0  0
 17 19  1  0  0  0  0
 19 20  1  0  0  0  0
 19 28  2  0  0  0  0
 20 21  1  0  0  0  0
 20 22  2  0  0  0  0
 22 23  1  0  0  0  0
 22 24  1  0  0  0  0
 24 25  1  0  0  0  0
 24 26  2  0  0  0  0
 26 27  1  0  0  0  0
 26 28  1  0  0  0  0
 29 30  2  0  0  0  0
 29 31  1  0  0  0  0
 31 32  1  0  0  0  0
 31 33  1  0  0  0  0
 33 34  1  0  0  0  0
 33 35  1  0  0  0  0
 33 36  1  0  0  0  0
M  END
$$$$

  -OEChem-03222214083D

 36 37  0     1  0  0  0  0  0999 V2000
   -3.5391   -4.6751    1.4347 H   0  0  0  0  0  0  0  0  0  0  0  0
   -3.4934   -3.9208    0.6443 C   0  0  0  0  0  0  0  0  0  0  0  0
   -4.4412   -3.3781    0.6179 H   0  0  0  0  0  0  0  0  0  0  0  0
   -3.3398   -4.4241   -0.3132 H   0  0  0  0  0  0  0  0  0  0  0  0
   -2.3515   -2.9583    0.9073 C   0  0  0  0  0  0  0  0  0  0  0  0
   -1.6778   -3.0743    1.9191 O   0  0  0  0  0  0  0  0  0  0  0  0
   -2.1189   -1.9210    0.0279 N   0  0  0  0  0  0  0  0  0  0  0  0
   -2.7470   -1.8266   -0.7651 H   0  0  0  0  0  0  0  0  0  0  0  0
   -0.9257   -1.0592    0.0584 C   0  0  1  0  0  0  0  0  0  0  0  0
   -0.4095   -1.1756    1.0163 H   0  0  0  0  0  0  0  0  0  0  0  0
    0.0556   -1.4340   -1.0720 C   0  0  0  0  0  0  0  0  0  0  0  0
   -0.3367   -1.0557   -2.0220 H   0  0  0  0  0  0  0  0  0  0  0  0
    1.0195   -0.9449   -0.8999 H   0  0  0  0  0  0  0  0  0  0  0  0
    0.2699   -2.9208   -1.2096 C   0  0  0  0  0  0  0  0  0  0  0  0
   -0.2545   -3.7185   -2.1988 C   0  0  0  0  0  0  0  0  0  0  0  0
   -0.8815   -3.3766   -3.0191 H   0  0  0  0  0  0  0  0  0  0  0  0
    0.1688   -5.0235   -1.9590 N   0  0  0  0  0  0  0  0  0  0  0  0
   -0.0523   -5.8318   -2.5361 H   0  0  0  0  0  0  0  0  0  0  0  0
    0.9562   -5.0716   -0.8198 C   0  0  0  0  0  0  0  0  0  0  0  0
    1.6004   -6.1319   -0.1818 C   0  0  0  0  0  0  0  0  0  0  0  0
    1.5277   -7.1371   -0.5816 H   0  0  0  0  0  0  0  0  0  0  0  0
    2.3384   -5.8808    0.9835 C   0  0  0  0  0  0  0  0  0  0  0  0
    2.8433   -6.6961    1.4929 H   0  0  0  0  0  0  0  0  0  0  0  0
    2.4198   -4.5776    1.4971 C   0  0  0  0  0  0  0  0  0  0  0  0
    2.9833   -4.3870    2.4052 H   0  0  0  0  0  0  0  0  0  0  0  0
    1.7685   -3.5198    0.8464 C   0  0  0  0  0  0  0  0  0  0  0  0
    1.8199   -2.5132    1.2461 H   0  0  0  0  0  0  0  0  0  0  0  0
    1.0410   -3.7775   -0.3192 C   0  0  0  0  0  0  0  0  0  0  0  0
   -1.3096    0.4237   -0.0977 C   0  0  0  0  0  0  0  0  0  0  0  0
   -2.1155    0.7614   -0.9583 O   0  0  0  0  0  0  0  0  0  0  0  0
   -0.7431    1.3851    0.7190 N   0  0  0  0  0  0  0  0  0  0  0  0
   -0.1421    1.0638    1.4729 H   0  0  0  0  0  0  0  0  0  0  0  0
   -1.1037    2.7962    0.6592 C   0  0  0  0  0  0  0  0  0  0  0  0
   -2.1659    2.9302    0.8894 H   0  0  0  0  0  0  0  0  0  0  0  0
   -0.5173    3.3674    1.3853 H   0  0  0  0  0  0  0  0  0  0  0  0
   -0.9050    3.2007   -0.3388 H   0  0  0  0  0  0  0  0  0  0  0  0
  1  2  1  0  0  0  0
  2  3  1  0  0  0  0
  2  4  1  0  0  0  0
  2  5  1  0  0  0  0
  5  6  2  0  0  0  0
  5  7  1  0  0  0  0
  7  8  1  0  0  0  0
  7  9  1  0  0  0  0
  9 10  1  0  0  0  0
  9 11  1  0  0  0  0
  9 29  1  0  0  0  0
 11 12  1  0  0  0  0
 11 13  1  0  0  0  0
 11 14  1  0  0  0  0
 14 15  2  0  0  0  0
 14 28  1  0  0  0  0
 15 16  1  0  0  0  0
 15 17  1  0  0  0  0
 17 18  1  0  0  0  0
 17 19  1  0  0  0  0
 19 20  1  0  0  0  0
 19 28  2  0  0  0  0
 20 21  1  0  0  0  0
 20 22  2  0  0  0  0
 22 23  1  0  0  0  0
 22 24  1  0  0  0  0
 24 25  1  0  0  0  0
 24 26  2  0  0  0  0
 26 27  1  0  0  0  0
 26 28  1  0  0  0  0
 29 30  2  0  0  0  0
 29 31  1  0  0  0  0
 31 32  1  0  0  0  0
 31 33  1  0  0  0  0
 33 34  1  0  0  0  0
 33 35  1  0  0  0  0
 33 36  1  0  0  0  0
M  END
$$$$

  -OEChem-03222214083D

 36 37  0     1  0  0  0  0  0999 V2000
   -3.5776   -4.6427    1.4679 H   0  0  0  0  0  0  0  0  0  0  0  0
   -3.4919   -3.9279    0.6447 C   0  0  0  0  0  0  0  0  0  0  0  0
   -4.4569   -3.4359    0.5019 H   0  0  0  0  0  0  0  0  0  0  0  0
   -3.2257   -4.4711   -0.2653 H   0  0  0  0  0  0  0  0  0  0  0  0
   -2.4242   -2.8974    0.9577 C   0  0  0  0  0  0  0  0  0  0  0  0
   -1.8401   -2.9312    2.0300 O   0  0  0  0  0  0  0  0  0  0  0  0
   -2.1616   -1.8875    0.0553 N   0  0  0  0  0  0  0  0  0  0  0  0
   -2.7014   -1.8830   -0.8052 H   0  0  0  0  0  0  0  0  0  0  0  0
   -0.9611   -1.0367    0.1037 C   0  0  1  0  0  0  0  0  0  0  0  0
   -0.4692   -1.1353    1.0754 H   0  0  0  0  0  0  0  0  0  0  0  0
    0.0357   -1.4435   -1.0035 C   0  0  0  0  0  0  0  0  0  0  0  0
   -0.3236   -1.0628   -1.9655 H   0  0  0  0  0  0  0  0  0  0  0  0
    1.0014   -0.9677   -0.8060 H   0  0  0  0  0  0  0  0  0  0  0  0
    0.2474   -2.9334   -1.1344 C   0  0  0  0  0  0  0  0  0  0  0  0
   -0.0142   -3.6631   -2.2698 C   0  0  0  0  0  0  0  0  0  0  0  0
   -0.4136   -3.2626   -3.1990 H   0  0  0  0  0  0  0  0  0  0  0  0
    0.3327   -4.9869   -2.0153 N   0  0  0  0  0  0  0  0  0  0  0  0
    0.2639   -5.7540   -2.6807 H   0  0  0  0  0  0  0  0  0  0  0  0
    0.8280   -5.1134   -0.7281 C   0  0  0  0  0  0  0  0  0  0  0  0
    1.3042   -6.2224   -0.0290 C   0  0  0  0  0  0  0  0  0  0  0  0
    1.3255   -7.1988   -0.4998 H   0  0  0  0  0  0  0  0  0  0  0  0
    1.7511   -6.0575    1.2890 C   0  0  0  0  0  0  0  0  0  0  0  0
    2.1198   -6.9115    1.8490 H   0  0  0  0  0  0  0  0  0  0  0  0
    1.7177   -4.7897    1.8885 C   0  0  0  0  0  0  0  0  0  0  0  0
    2.0545   -4.6645    2.9130 H   0  0  0  0  0  0  0  0  0  0  0  0
    1.2398   -3.6824    1.1738 C   0  0  0  0  0  0  0  0  0  0  0  0
    1.2028   -2.7062    1.6438 H   0  0  0  0  0  0  0  0  0  0  0  0
    0.7939   -3.8527   -0.1412 C   0  0  0  0  0  0  0  0  0  0  0  0
   -1.3226    0.4468   -0.1013 C   0  0  0  0  0  0  0  0  0  0  0  0
   -2.0807    0.7769   -1.0071 O   0  0  0  0  0  0  0  0  0  0  0  0
   -0.7710    1.4206    0.7110 N   0  0  0  0  0  0  0  0  0  0  0  0
   -0.2154    1.1088    1.5028 H   0  0  0  0  0  0  0  0  0  0  0  0
   -1.1080    2.8346    0.6014 C   0  0  0  0  0  0  0  0  0  0  0  0
   -2.1745    2.9899    0.7949 H   0  0  0  0  0  0  0  0  0  0  0  0
   -0.5347    3.4172    1.3288 H   0  0  0  0  0  0  0  0  0  0  0  0
   -0.8734    3.2086   -0.4008 H   0  0  0  0  0  0  0  0  0  0  0  0
  1  2  1  0  0  0  0
  2  3  1  0  0  0  0
  2  4  1  0  0  0  0
  2  5  1  0  0  0  0
  5  6  2  0  0  0  0
  5  7  1  0  0  0  0
  7  8  1  0  0  0  0
  7  9  1  0  0  0  0
  9 10  1  0  0  0  0
  9 11  1  0  0  0  0
  9 29  1  0  0  0  0
 11 12  1  0  0  0  0
 11 13  1  0  0  0  0
 11 14  1  0  0  0  0
 14 15  2  0  0  0  0
 14 28  1  0  0  0  0
 15 16  1  0  0  0  0
 15 17  1  0  0  0  0
 17 18  1  0  0  0  0
 17 19  1  0  0  0  0
 19 20  1  0  0  0  0
 19 28  2  0  0  0  0
 20 21  1  0  0  0  0
 20 22  2  0  0  0  0
 22 23  1  0  0  0  0
 22 24  1  0  0  0  0
 24 25  1  0  0  0  0
 24 26  2  0  0  0  0
 26 27  1  0  0  0  0
 26 28  1  0  0  0  0
 29 30  2  0  0  0  0
 29 31  1  0  0  0  0
 31 32  1  0  0  0  0
 31 33  1  0  0  0  0
 33 34  1  0  0  0  0
 33 35  1  0  0  0  0
 33 36  1  0  0  0  0
M  END
$$$$

  -OEChem-03222214083D

 36 37  0     1  0  0  0  0  0999 V2000
   -3.7609   -4.5495    1.4787 H   0  0  0  0  0  0  0  0  0  0  0  0
   -3.5977   -3.8792    0.6302 C   0  0  0  0  0  0  0  0  0  0  0  0
   -4.5489   -3.4171    0.3561 H   0  0  0  0  0  0  0  0  0  0  0  0
   -3.2256   -4.4658   -0.2135 H   0  0  0  0  0  0  0  0  0  0  0  0
   -2.5868   -2.8100    0.9964 C   0  0  0  0  0  0  0  0  0  0  0  0
   -2.1198   -2.7705    2.1247 O   0  0  0  0  0  0  0  0  0  0  0  0
   -2.2533   -1.8378    0.0770 N   0  0  0  0  0  0  0  0  0  0  0  0
   -2.7024   -1.9021   -0.8318 H   0  0  0  0  0  0  0  0  0  0  0  0
   -1.0324   -1.0181    0.1560 C   0  0  1  0  0  0  0  0  0  0  0  0
   -0.5791   -1.1042    1.1469 H   0  0  0  0  0  0  0  0  0  0  0  0
   -0.0121   -1.4700   -0.9140 C   0  0  0  0  0  0  0  0  0  0  0  0
   -0.3232   -1.0833   -1.8907 H   0  0  0  0  0  0  0  0  0  0  0  0
    0.9548   -1.0142   -0.6787 H   0  0  0  0  0  0  0  0  0  0  0  0
    0.1905   -2.9631   -1.0481 C   0  0  0  0  0  0  0  0  0  0  0  0
    0.2368   -3.6083   -2.2618 C   0  0  0  0  0  0  0  0  0  0  0  0
    0.0831   -3.1382   -3.2309 H   0  0  0  0  0  0  0  0  0  0  0  0
    0.5204   -4.9495   -2.0271 N   0  0  0  0  0  0  0  0  0  0  0  0
    0.6275   -5.6646   -2.7434 H   0  0  0  0  0  0  0  0  0  0  0  0
    0.7075   -5.1674   -0.6738 C   0  0  0  0  0  0  0  0  0  0  0  0
    1.0392   -6.3270    0.0264 C   0  0  0  0  0  0  0  0  0  0  0  0
    1.1799   -7.2639   -0.5007 H   0  0  0  0  0  0  0  0  0  0  0  0
    1.1913   -6.2629    1.4174 C   0  0  0  0  0  0  0  0  0  0  0  0
    1.4450   -7.1568    1.9794 H   0  0  0  0  0  0  0  0  0  0  0  0
    1.0185   -5.0418    2.0846 C   0  0  0  0  0  0  0  0  0  0  0  0
    1.1326   -4.9901    3.1631 H   0  0  0  0  0  0  0  0  0  0  0  0
    0.6918   -3.8830    1.3667 C   0  0  0  0  0  0  0  0  0  0  0  0
    0.5558   -2.9453    1.8933 H   0  0  0  0  0  0  0  0  0  0  0  0
    0.5236   -3.9515   -0.0210 C   0  0  0  0  0  0  0  0  0  0  0  0
   -1.3417    0.4683   -0.1105 C   0  0  0  0  0  0  0  0  0  0  0  0
   -2.0396    0.7943   -1.0649 O   0  0  0  0  0  0  0  0  0  0  0  0
   -0.7996    1.4508    0.6980 N   0  0  0  0  0  0  0  0  0  0  0  0
   -0.2863    1.1493    1.5217 H   0  0  0  0  0  0  0  0  0  0  0  0
   -1.0725    2.8717    0.5192 C   0  0  0  0  0  0  0  0  0  0  0  0
   -2.1387    3.0775    0.6602 H   0  0  0  0  0  0  0  0  0  0  0  0
   -0.5063    3.4601    1.2476 H   0  0  0  0  0  0  0  0  0  0  0  0
   -0.7803    3.1948   -0.4856 H   0  0  0  0  0  0  0  0  0  0  0  0
  1  2  1  0  0  0  0
  2  3  1  0  0  0  0
  2  4  1  0  0  0  0
  2  5  1  0  0  0  0
  5  6  2  0  0  0  0
  5  7  1  0  0  0  0
  7  8  1  0  0  0  0
  7  9  1  0  0  0  0
  9 10  1  0  0  0  0
  9 11  1  0  0  0  0
  9 29  1  0  0  0  0
 11 12  1  0  0  0  0
 11 13  1  0  0  0  0
 11 14  1  0  0  0  0
 14 15  2  0  0  0  0
 14 28  1  0  0  0  0
 15 16  1  0  0  0  0
 15 17  1  0  0  0  0
 17 18  1  0  0  0  0
 17 19  1  0  0  0  0
 19 20  1  0  0  0  0
 19 28  2  0  0  0  0
 20 21  1  0  0  0  0
 20 22  2  0  0  0  0
 22 23  1  0  0  0  0
 22 24  1  0  0  0  0
 24 25  1  0  0  0  0
 24 26  2  0  0  0  0
 26 27  1  0  0  0  0
 26 28  1  0  0  0  0
 29 30  2  0  0  0  0
 29 31  1  0  0  0  0
 31 32  1  0  0  0  0
 31 33  1  0  0  0  0
 33 34  1  0  0  0  0
 33 35  1  0  0  0  0
 33 36  1  0  0  0  0
M  END
$$$$

  -OEChem-03222214083D

 36 37  0     1  0  0  0  0  0999 V2000
   -4.0381   -4.4175    1.4104 H   0  0  0  0  0  0  0  0  0  0  0  0
   -3.7839   -3.7831    0.5569 C   0  0  0  0  0  0  0  0  0  0  0  0
   -4.6961   -3.3156    0.1788 H   0  0  0  0  0  0  0  0  0  0  0  0
   -3.3481   -4.4074   -0.2273 H   0  0  0  0  0  0  0  0  0  0  0  0
   -2.7885   -2.7191    0.9769 C   0  0  0  0  0  0  0  0  0  0  0  0
   -2.4346   -2.6365    2.1433 O   0  0  0  0  0  0  0  0  0  0  0  0
   -2.3603   -1.7801    0.0641 N   0  0  0  0  0  0  0  0  0  0  0  0
   -2.7435   -1.8687   -0.8726 H   0  0  0  0  0  0  0  0  0  0  0  0
   -1.1097   -1.0093    0.1830 C   0  0  1  0  0  0  0  0  0  0  0  0
   -0.6961   -1.1024    1.1909 H   0  0  0  0  0  0  0  0  0  0  0  0
   -0.0740   -1.5112   -0.8549 C   0  0  0  0  0  0  0  0  0  0  0  0
   -0.3380   -1.1125   -1.8407 H   0  0  0  0  0  0  0  0  0  0  0  0
    0.8982   -1.0863   -0.5862 H   0  0  0  0  0  0  0  0  0  0  0  0
    0.1041   -3.0074   -1.0074 C   0  0  0  0  0  0  0  0  0  0  0  0
    0.4676   -3.5743   -2.2074 C   0  0  0  0  0  0  0  0  0  0  0  0
    0.5560   -3.0410   -3.1516 H   0  0  0  0  0  0  0  0  0  0  0  0
    0.6857   -4.9317   -2.0033 N   0  0  0  0  0  0  0  0  0  0  0  0
    0.9653   -5.5993   -2.7192 H   0  0  0  0  0  0  0  0  0  0  0  0
    0.5731   -5.2315   -0.6590 C   0  0  0  0  0  0  0  0  0  0  0  0
    0.7692   -6.4334    0.0213 C   0  0  0  0  0  0  0  0  0  0  0  0
    1.0137   -7.3386   -0.5232 H   0  0  0  0  0  0  0  0  0  0  0  0
    0.6592   -6.4512    1.4169 C   0  0  0  0  0  0  0  0  0  0  0  0
    0.8044   -7.3782    1.9636 H   0  0  0  0  0  0  0  0  0  0  0  0
    0.3809   -5.2651    2.1095 C   0  0  0  0  0  0  0  0  0  0  0  0
    0.3106   -5.2702    3.1930 H   0  0  0  0  0  0  0  0  0  0  0  0
    0.1931   -4.0649    1.4102 C   0  0  0  0  0  0  0  0  0  0  0  0
    0.0014   -3.1525    1.9623 H   0  0  0  0  0  0  0  0  0  0  0  0
    0.2512   -4.0537    0.0115 C   0  0  0  0  0  0  0  0  0  0  0  0
   -1.3464    0.4833   -0.1255 C   0  0  0  0  0  0  0  0  0  0  0  0
   -1.9887    0.8211   -1.1143 O   0  0  0  0  0  0  0  0  0  0  0  0
   -0.7992    1.4569    0.6906 N   0  0  0  0  0  0  0  0  0  0  0  0
   -0.3479    1.1481    1.5471 H   0  0  0  0  0  0  0  0  0  0  0  0
   -1.0177    2.8840    0.4879 C   0  0  0  0  0  0  0  0  0  0  0  0
   -2.0832    3.1238    0.5682 H   0  0  0  0  0  0  0  0  0  0  0  0
   -0.4750    3.4602    1.2436 H   0  0  0  0  0  0  0  0  0  0  0  0
   -0.6604    3.1906   -0.5010 H   0  0  0  0  0  0  0  0  0  0  0  0
  1  2  1  0  0  0  0
  2  3  1  0  0  0  0
  2  4  1  0  0  0  0
  2  5  1  0  0  0  0
  5  6  2  0  0  0  0
  5  7  1  0  0  0  0
  7  8  1  0  0  0  0
  7  9  1  0  0  0  0
  9 10  1  0  0  0  0
  9 11  1  0  0  0  0
  9 29  1  0  0  0  0
 11 12  1  0  0  0  0
 11 13  1  0  0  0  0
 11 14  1  0  0  0  0
 14 15  2  0  0  0  0
 14 28  1  0  0  0  0
 15 16  1  0  0  0  0
 15 17  1  0  0  0  0
 17 18  1  0  0  0  0
 17 19  1  0  0  0  0
 19 20  1  0  0  0  0
 19 28  2  0  0  0  0
 20 21  1  0  0  0  0
 20 22  2  0  0  0  0
 22 23  1  0  0  0  0
 22 24  1  0  0  0  0
 24 25  1  0  0  0  0
 24 26  2  0  0  0  0
 26 27  1  0  0  0  0
 26 28  1  0  0  0  0
 29 30  2  0  0  0  0
 29 31  1  0  0  0  0
 31 32  1  0  0  0  0
 31 33  1  0  0  0  0
 33 34  1  0  0  0  0
 33 35  1  0  0  0  0
 33 36  1  0  0  0  0
M  END
$$$$

  -OEChem-03222214083D

 36 37  0     1  0  0  0  0  0999 V2000
   -4.1190   -4.4602    1.5340 H   0  0  0  0  0  0  0  0  0  0  0  0
   -3.9056   -3.8129    0.6790 C   0  0  0  0  0  0  0  0  0  0  0  0
   -4.8398   -3.3657    0.3311 H   0  0  0  0  0  0  0  0  0  0  0  0
   -3.4767   -4.4204   -0.1220 H   0  0  0  0  0  0  0  0  0  0  0  0
   -2.9261   -2.7262    1.0780 C   0  0  0  0  0  0  0  0  0  0  0  0
   -2.5970   -2.5937    2.2469 O   0  0  0  0  0  0  0  0  0  0  0  0
   -2.5069   -1.8021    0.1477 N   0  0  0  0  0  0  0  0  0  0  0  0
   -2.9016   -1.9137   -0.7821 H   0  0  0  0  0  0  0  0  0  0  0  0
   -1.2579   -1.0204    0.2166 C   0  0  1  0  0  0  0  0  0  0  0  0
   -0.8099   -1.0985    1.2117 H   0  0  0  0  0  0  0  0  0  0  0  0
   -0.2521   -1.5138   -0.8603 C   0  0  0  0  0  0  0  0  0  0  0  0
   -0.5646   -1.1189   -1.8335 H   0  0  0  0  0  0  0  0  0  0  0  0
    0.7170   -1.0606   -0.6284 H   0  0  0  0  0  0  0  0  0  0  0  0
   -0.0196   -2.9993   -1.0593 C   0  0  0  0  0  0  0  0  0  0  0  0
    0.6052   -3.4534   -2.1995 C   0  0  0  0  0  0  0  0  0  0  0  0
    0.8390   -2.8419   -3.0685 H   0  0  0  0  0  0  0  0  0  0  0  0
    0.8380   -4.8166   -2.0703 N   0  0  0  0  0  0  0  0  0  0  0  0
    1.2703   -5.4126   -2.7733 H   0  0  0  0  0  0  0  0  0  0  0  0
    0.5325   -5.2215   -0.7875 C   0  0  0  0  0  0  0  0  0  0  0  0
    0.7012   -6.4615   -0.1716 C   0  0  0  0  0  0  0  0  0  0  0  0
    1.0535   -7.3140   -0.7416 H   0  0  0  0  0  0  0  0  0  0  0  0
    0.4364   -6.5814    1.1973 C   0  0  0  0  0  0  0  0  0  0  0  0
    0.5629   -7.5375    1.6966 H   0  0  0  0  0  0  0  0  0  0  0  0
    0.0484   -5.4526    1.9303 C   0  0  0  0  0  0  0  0  0  0  0  0
   -0.1174   -5.5274    3.0009 H   0  0  0  0  0  0  0  0  0  0  0  0
   -0.1123   -4.2158    1.2907 C   0  0  0  0  0  0  0  0  0  0  0  0
   -0.3495   -3.3426    1.8837 H   0  0  0  0  0  0  0  0  0  0  0  0
    0.0641   -4.1075   -0.0937 C   0  0  0  0  0  0  0  0  0  0  0  0
   -1.5210    0.4633   -0.1186 C   0  0  0  0  0  0  0  0  0  0  0  0
   -2.1970    0.7734   -1.0941 O   0  0  0  0  0  0  0  0  0  0  0  0
   -0.9633    1.4610    0.6600 N   0  0  0  0  0  0  0  0  0  0  0  0
   -0.4914    1.1774    1.5142 H   0  0  0  0  0  0  0  0  0  0  0  0
   -1.2025    2.8799    0.4270 C   0  0  0  0  0  0  0  0  0  0  0  0
   -2.2663    3.1127    0.5412 H   0  0  0  0  0  0  0  0  0  0  0  0
   -0.6362    3.4816    1.1443 H   0  0  0  0  0  0  0  0  0  0  0  0
   -0.8865    3.1609   -0.5831 H   0  0  0  0  0  0  0  0  0  0  0  0
  1  2  1  0  0  0  0
  2  3  1  0  0  0  0
  2  4  1  0  0  0  0
  2  5  1  0  0  0  0
  5  6  2  0  0  0  0
  5  7  1  0  0  0  0
  7  8  1  0  0  0  0
  7  9  1  0  0  0  0
  9 10  1  0  0  0  0
  9 11  1  0  0  0  0
  9 29  1  0  0  0  0
 11 12  1  0  0  0  0
 11 13  1  0  0  0  0
 11 14  1  0  0  0  0
 14 15  2  0  0  0  0
 14 28  1  0  0  0  0
 15 16  1  0  0  0  0
 15 17  1  0  0  0  0
 17 18  1  0  0  0  0
 17 19  1  0  0  0  0
 19 20  1  0  0  0  0
 19 28  2  0  0  0  0
 20 21  1  0  0  0  0
 20 22  2  0  0  0  0
 22 23  1  0  0  0  0
 22 24  1  0  0  0  0
 24 25  1  0  0  0  0
 24 26  2  0  0  0  0
 26 27  1  0  0  0  0
 26 28  1  0  0  0  0
 29 30  2  0  0  0  0
 29 31  1  0  0  0  0
 31 32  1  0  0  0  0
 31 33  1  0  0  0  0
 33 34  1  0  0  0  0
 33 35  1  0  0  0  0
 33 36  1  0  0  0  0
M  END
$$$$

  -OEChem-03222214083D

 36 37  0     1  0  0  0  0  0999 V2000
   -4.6726   -3.6205    2.1525 H   0  0  0  0  0  0  0  0  0  0  0  0
   -4.4388   -3.0456    1.2524 C   0  0  0  0  0  0  0  0  0  0  0  0
   -5.2276   -2.3074    1.0895 H   0  0  0  0  0  0  0  0  0  0  0  0
   -4.4045   -3.7269    0.3986 H   0  0  0  0  0  0  0  0  0  0  0  0
   -3.1007   -2.3484    1.4099 C   0  0  0  0  0  0  0  0  0  0  0  0
   -2.4865   -2.4274    2.4629 O   0  0  0  0  0  0  0  0  0  0  0  0
   -2.6148   -1.5634    0.3916 N   0  0  0  0  0  0  0  0  0  0  0  0
   -3.1965   -1.4898   -0.4401 H   0  0  0  0  0  0  0  0  0  0  0  0
   -1.2645   -0.9853    0.2931 C   0  0  1  0  0  0  0  0  0  0  0  0
   -0.7779   -1.0402    1.2718 H   0  0  0  0  0  0  0  0  0  0  0  0
   -0.3091   -1.6148   -0.7747 C   0  0  0  0  0  0  0  0  0  0  0  0
   -0.4435   -1.0407   -1.6987 H   0  0  0  0  0  0  0  0  0  0  0  0
    0.7043   -1.3985   -0.4209 H   0  0  0  0  0  0  0  0  0  0  0  0
   -0.2882   -3.0602   -1.2697 C   0  0  0  0  0  0  0  0  0  0  0  0
    0.6637   -3.3202   -2.2349 C   0  0  0  0  0  0  0  0  0  0  0  0
    1.2927   -2.5676   -2.7058 H   0  0  0  0  0  0  0  0  0  0  0  0
    0.6238   -4.6623   -2.5727 N   0  0  0  0  0  0  0  0  0  0  0  0
    1.1942   -5.1132   -3.2850 H   0  0  0  0  0  0  0  0  0  0  0  0
   -0.2267   -5.3243   -1.7182 C   0  0  0  0  0  0  0  0  0  0  0  0
   -0.4866   -6.6925   -1.6447 C   0  0  0  0  0  0  0  0  0  0  0  0
   -0.0641   -7.3718   -2.3766 H   0  0  0  0  0  0  0  0  0  0  0  0
   -1.2694   -7.1773   -0.5944 C   0  0  0  0  0  0  0  0  0  0  0  0
   -1.4816   -8.2393   -0.5131 H   0  0  0  0  0  0  0  0  0  0  0  0
   -1.7267   -6.2901    0.3845 C   0  0  0  0  0  0  0  0  0  0  0  0
   -2.2763   -6.6650    1.2427 H   0  0  0  0  0  0  0  0  0  0  0  0
   -1.4451   -4.9204    0.2836 C   0  0  0  0  0  0  0  0  0  0  0  0
   -1.7137   -4.2960    1.1125 H   0  0  0  0  0  0  0  0  0  0  0  0
   -0.7565   -4.3952   -0.8177 C   0  0  0  0  0  0  0  0  0  0  0  0
   -1.3926    0.4946   -0.1341 C   0  0  0  0  0  0  0  0  0  0  0  0
   -2.1602    0.8222   -1.0333 O   0  0  0  0  0  0  0  0  0  0  0  0
   -0.6469    1.4682    0.5055 N   0  0  0  0  0  0  0  0  0  0  0  0
   -0.0984    1.1824    1.3119 H   0  0  0  0  0  0  0  0  0  0  0  0
   -0.7643    2.8896    0.2039 C   0  0  0  0  0  0  0  0  0  0  0  0
   -1.7747    3.2465    0.4297 H   0  0  0  0  0  0  0  0  0  0  0  0
   -0.0513    3.4635    0.8037 H   0  0  0  0  0  0  0  0  0  0  0  0
   -0.5520    3.0764   -0.8542 H   0  0  0  0  0  0  0  0  0  0  0  0
  1  2  1  0  0  0  0
  2  3  1  0  0  0  0
  2  4  1  0  0  0  0
  2  5  1  0  0  0  0
  5  6  2  0  0  0  0
  5  7  1  0  0  0  0
  7  8  1  0  0  0  0
  7  9  1  0  0  0  0
  9 10  1  0  0  0  0
  9 11  1  0  0  0  0
  9 29  1  0  0  0  0
 11 12  1  0  0  0  0
 11 13  1  0  0  0  0
 11 14  1  0  0  0  0
 14 15  2  0  0  0  0
 14 28  1  0  0  0  0
 15 16  1  0  0  0  0
 15 17  1  0  0  0  0
 17 18  1  0  0  0  0
 17 19  1  0  0  0  0
 19 20  1  0  0  0  0
 19 28  2  0  0  0  0
 20 21  1  0  0  0  0
 20 22  2  0  0  0  0
 22 23  1  0  0  0  0
 22 24  1  0  0  0  0
 24 25  1  0  0  0  0
 24 26  2  0  0  0  0
 26 27  1  0  0  0  0
 26 28  1  0  0  0  0
 29 30  2  0  0  0  0
 29 31  1  0  0  0  0
 31 32  1  0  0  0  0
 31 33  1  0  0  0  0
 33 34  1  0  0  0  0
 33 35  1  0  0  0  0
 33 36  1  0  0  0  0
M  END
$$$$

  -OEChem-03222214083D

 36 37  0     1  0  0  0  0  0999 V2000
   -3.9549   -4.0799    2.4056 H   0  0  0  0  0  0  0  0  0  0  0  0
   -4.0035   -3.0698    1.9899 C   0  0  0  0  0  0  0  0  0  0  0  0
   -4.4938   -2.4102    2.7101 H   0  0  0  0  0  0  0  0  0  0  0  0
   -4.5980   -3.0966    1.0740 H   0  0  0  0  0  0  0  0  0  0  0  0
   -2.6012   -2.5638    1.7039 C   0  0  0  0  0  0  0  0  0  0  0  0
   -1.7071   -2.8170    2.4951 O   0  0  0  0  0  0  0  0  0  0  0  0
   -2.3696   -1.7356    0.6210 N   0  0  0  0  0  0  0  0  0  0  0  0
   -3.1686   -1.4438    0.0614 H   0  0  0  0  0  0  0  0  0  0  0  0
   -1.0877   -1.0788    0.3497 C   0  0  1  0  0  0  0  0  0  0  0  0
   -0.5093   -1.0745    1.2787 H   0  0  0  0  0  0  0  0  0  0  0  0
   -0.1545   -1.6706   -0.7459 C   0  0  0  0  0  0  0  0  0  0  0  0
   -0.4314   -1.1793   -1.6855 H   0  0  0  0  0  0  0  0  0  0  0  0
    0.8610   -1.3391   -0.5055 H   0  0  0  0  0  0  0  0  0  0  0  0
   -0.0875   -3.1498   -1.1174 C   0  0  0  0  0  0  0  0  0  0  0  0
    1.0135   -3.5323   -1.8554 C   0  0  0  0  0  0  0  0  0  0  0  0
    1.8652   -2.8940   -2.0798 H   0  0  0  0  0  0  0  0  0  0  0  0
    0.8881   -4.8645   -2.2126 N   0  0  0  0  0  0  0  0  0  0  0  0
    1.5754   -5.4094   -2.7286 H   0  0  0  0  0  0  0  0  0  0  0  0
   -0.3604   -5.3195   -1.8549 C   0  0  0  0  0  0  0  0  0  0  0  0
   -0.9322   -6.5648   -2.1119 C   0  0  0  0  0  0  0  0  0  0  0  0
   -0.3511   -7.3480   -2.5856 H   0  0  0  0  0  0  0  0  0  0  0  0
   -2.2708   -6.7785   -1.7749 C   0  0  0  0  0  0  0  0  0  0  0  0
   -2.7369   -7.7400   -1.9695 H   0  0  0  0  0  0  0  0  0  0  0  0
   -3.0168   -5.7316   -1.2242 C   0  0  0  0  0  0  0  0  0  0  0  0
   -4.0698   -5.8777   -1.0035 H   0  0  0  0  0  0  0  0  0  0  0  0
   -2.4165   -4.4883   -0.9768 C   0  0  0  0  0  0  0  0  0  0  0  0
   -3.0481   -3.6923   -0.6255 H   0  0  0  0  0  0  0  0  0  0  0  0
   -1.0517   -4.2759   -1.2322 C   0  0  0  0  0  0  0  0  0  0  0  0
   -1.3535    0.3938   -0.0250 C   0  0  0  0  0  0  0  0  0  0  0  0
   -2.2942    0.6827   -0.7570 O   0  0  0  0  0  0  0  0  0  0  0  0
   -0.5851    1.4064    0.5202 N   0  0  0  0  0  0  0  0  0  0  0  0
    0.1306    1.1437    1.1920 H   0  0  0  0  0  0  0  0  0  0  0  0
   -0.8409    2.8215    0.2806 C   0  0  0  0  0  0  0  0  0  0  0  0
   -1.8311    3.1005    0.6557 H   0  0  0  0  0  0  0  0  0  0  0  0
   -0.0918    3.4336    0.7919 H   0  0  0  0  0  0  0  0  0  0  0  0
   -0.7939    3.0439   -0.7906 H   0  0  0  0  0  0  0  0  0  0  0  0
  1  2  1  0  0  0  0
  2  3  1  0  0  0  0
  2  4  1  0  0  0  0
  2  5  1  0  0  0  0
  5  6  2  0  0  0  0
  5  7  1  0  0  0  0
  7  8  1  0  0  0  0
  7  9  1  0  0  0  0
  9 10  1  0  0  0  0
  9 11  1  0  0  0  0
  9 29  1  0  0  0  0
 11 12  1  0  0  0  0
 11 13  1  0  0  0  0
 11 14  1  0  0  0  0
 14 15  2  0  0  0  0
 14 28  1  0  0  0  0
 15 16  1  0  0  0  0
 15 17  1  0  0  0  0
 17 18  1  0  0  0  0
 17 19  1  0  0  0  0
 19 20  1  0  0  0  0
 19 28  2  0  0  0  0
 20 21  1  0  0  0  0
 20 22  2  0  0  0  0
 22 23  1  0  0  0  0
 22 24  1  0  0  0  0
 24 25  1  0  0  0  0
 24 26  2  0  0  0  0
 26 27  1  0  0  0  0
 26 28  1  0  0  0  0
 29 30  2  0  0  0  0
 29 31  1  0  0  0  0
 31 32  1  0  0  0  0
 31 33  1  0  0  0  0
 33 34  1  0  0  0  0
 33 35  1  0  0  0  0
 33 36  1  0  0  0  0
M  END
$$$$

  -OEChem-03222214083D

 36 37  0     1  0  0  0  0  0999 V2000
   -4.0864   -3.6824    2.6521 H   0  0  0  0  0  0  0  0  0  0  0  0
   -3.9996   -3.2094    1.6700 C   0  0  0  0  0  0  0  0  0  0  0  0
   -4.1431   -3.9716    0.9011 H   0  0  0  0  0  0  0  0  0  0  0  0
   -4.7803   -2.4511    1.5747 H   0  0  0  0  0  0  0  0  0  0  0  0
   -2.6318   -2.5698    1.5193 C   0  0  0  0  0  0  0  0  0  0  0  0
   -1.7975   -2.7189    2.3985 O   0  0  0  0  0  0  0  0  0  0  0  0
   -2.3692   -1.7531    0.4367 N   0  0  0  0  0  0  0  0  0  0  0  0
   -3.1334   -1.5522   -0.2034 H   0  0  0  0  0  0  0  0  0  0  0  0
   -1.1052   -1.0426    0.2186 C   0  0  1  0  0  0  0  0  0  0  0  0
   -0.5806   -0.9918    1.1776 H   0  0  0  0  0  0  0  0  0  0  0  0
   -0.1065   -1.6709   -0.7920 C   0  0  0  0  0  0  0  0  0  0  0  0
   -0.3456   -1.2615   -1.7794 H   0  0  0  0  0  0  0  0  0  0  0  0
    0.8980   -1.3178   -0.5381 H   0  0  0  0  0  0  0  0  0  0  0  0
   -0.0668   -3.1780   -0.9923 C   0  0  0  0  0  0  0  0  0  0  0  0
    1.1248   -3.7787   -1.3342 C   0  0  0  0  0  0  0  0  0  0  0  0
    2.0945   -3.2863   -1.3328 H   0  0  0  0  0  0  0  0  0  0  0  0
    0.8909   -5.1151   -1.6248 N   0  0  0  0  0  0  0  0  0  0  0  0
    1.6011   -5.8023   -1.8669 H   0  0  0  0  0  0  0  0  0  0  0  0
   -0.4662   -5.3539   -1.6501 C   0  0  0  0  0  0  0  0  0  0  0  0
   -1.1539   -6.5159   -1.9980 C   0  0  0  0  0  0  0  0  0  0  0  0
   -0.6114   -7.4281   -2.2193 H   0  0  0  0  0  0  0  0  0  0  0  0
   -2.5488   -6.4785   -2.0867 C   0  0  0  0  0  0  0  0  0  0  0  0
   -3.1013   -7.3724   -2.3607 H   0  0  0  0  0  0  0  0  0  0  0  0
   -3.2246   -5.2728   -1.8642 C   0  0  0  0  0  0  0  0  0  0  0  0
   -4.3033   -5.2296   -1.9798 H   0  0  0  0  0  0  0  0  0  0  0  0
   -2.5118   -4.1166   -1.5146 C   0  0  0  0  0  0  0  0  0  0  0  0
   -3.0544   -3.1876   -1.4164 H   0  0  0  0  0  0  0  0  0  0  0  0
   -1.1190   -4.1610   -1.3389 C   0  0  0  0  0  0  0  0  0  0  0  0
   -1.3886    0.4103   -0.2080 C   0  0  0  0  0  0  0  0  0  0  0  0
   -2.2787    0.6506   -1.0165 O   0  0  0  0  0  0  0  0  0  0  0  0
   -0.6819    1.4560    0.3575 N   0  0  0  0  0  0  0  0  0  0  0  0
   -0.0230    1.2296    1.0972 H   0  0  0  0  0  0  0  0  0  0  0  0
   -0.9575    2.8574    0.0664 C   0  0  0  0  0  0  0  0  0  0  0  0
   -1.9750    3.1201    0.3740 H   0  0  0  0  0  0  0  0  0  0  0  0
   -0.2556    3.5001    0.6065 H   0  0  0  0  0  0  0  0  0  0  0  0
   -0.8508    3.0552   -1.0053 H   0  0  0  0  0  0  0  0  0  0  0  0
  1  2  1  0  0  0  0
  2  3  1  0  0  0  0
  2  4  1  0  0  0  0
  2  5  1  0  0  0  0
  5  6  2  0  0  0  0
  5  7  1  0  0  0  0
  7  8  1  0  0  0  0
  7  9  1  0  0  0  0
  9 10  1  0  0  0  0
  9 11  1  0  0  0  0
  9 29  1  0  0  0  0
 11 12  1  0  0  0  0
 11 13  1  0  0  0  0
 11 14  1  0  0  0  0
 14 15  2  0  0  0  0
 14 28  1  0  0  0  0
 15 16  1  0  0  0  0
 15 17  1  0  0  0  0
 17 18  1  0  0  0  0
 17 19  1  0  0  0  0
 19 20  1  0  0  0  0
 19 28  2  0  0  0  0
 20 21  1  0  0  0  0
 20 22  2  0  0  0  0
 22 23  1  0  0  0  0
 22 24  1  0  0  0  0
 24 25  1  0  0  0  0
 24 26  2  0  0  0  0
 26 27  1  0  0  0  0
 26 28  1  0  0  0  0
 29 30  2  0  0  0  0
 29 31  1  0  0  0  0
 31 32  1  0  0  0  0
 31 33  1  0  0  0  0
 33 34  1  0  0  0  0
 33 35  1  0  0  0  0
 33 36  1  0  0  0  0
M  END
$$$$

  -OEChem-03222214083D

 36 37  0     1  0  0  0  0  0999 V2000
   -3.6822   -4.3722    0.6535 H   0  0  0  0  0  0  0  0  0  0  0  0
   -3.7340   -3.6175    1.4421 C   0  0  0  0  0  0  0  0  0  0  0  0
   -4.6134   -2.9901    1.2803 H   0  0  0  0  0  0  0  0  0  0  0  0
   -3.8340   -4.1225    2.4066 H   0  0  0  0  0  0  0  0  0  0  0  0
   -2.4762   -2.7694    1.4245 C   0  0  0  0  0  0  0  0  0  0  0  0
   -1.6566   -2.8800    2.3237 O   0  0  0  0  0  0  0  0  0  0  0  0
   -2.2781   -1.8604    0.4052 N   0  0  0  0  0  0  0  0  0  0  0  0
   -3.0190   -1.7534   -0.2812 H   0  0  0  0  0  0  0  0  0  0  0  0
   -1.0530   -1.0742    0.2102 C   0  0  1  0  0  0  0  0  0  0  0  0
   -0.4907   -1.0780    1.1489 H   0  0  0  0  0  0  0  0  0  0  0  0
   -0.0966   -1.6114   -0.8887 C   0  0  0  0  0  0  0  0  0  0  0  0
   -0.3779   -1.1503   -1.8416 H   0  0  0  0  0  0  0  0  0  0  0  0
    0.9214   -1.2808   -0.6601 H   0  0  0  0  0  0  0  0  0  0  0  0
   -0.1027   -3.1086   -1.1272 C   0  0  0  0  0  0  0  0  0  0  0  0
    1.0474   -3.8522   -1.2583 C   0  0  0  0  0  0  0  0  0  0  0  0
    2.0540   -3.4886   -1.0655 H   0  0  0  0  0  0  0  0  0  0  0  0
    0.6965   -5.1437   -1.6367 N   0  0  0  0  0  0  0  0  0  0  0  0
    1.3450   -5.9165   -1.7692 H   0  0  0  0  0  0  0  0  0  0  0  0
   -0.6579   -5.2078   -1.9011 C   0  0  0  0  0  0  0  0  0  0  0  0
   -1.4423   -6.2533   -2.3877 C   0  0  0  0  0  0  0  0  0  0  0  0
   -1.0055   -7.2315   -2.5562 H   0  0  0  0  0  0  0  0  0  0  0  0
   -2.7912   -6.0150   -2.6799 C   0  0  0  0  0  0  0  0  0  0  0  0
   -3.4140   -6.8174   -3.0643 H   0  0  0  0  0  0  0  0  0  0  0  0
   -3.3255   -4.7305   -2.5112 C   0  0  0  0  0  0  0  0  0  0  0  0
   -4.3602   -4.5354   -2.7760 H   0  0  0  0  0  0  0  0  0  0  0  0
   -2.5231   -3.6920   -2.0188 C   0  0  0  0  0  0  0  0  0  0  0  0
   -2.9325   -2.6920   -1.9391 H   0  0  0  0  0  0  0  0  0  0  0  0
   -1.1910   -3.9452   -1.6594 C   0  0  0  0  0  0  0  0  0  0  0  0
   -1.4052    0.3934   -0.0968 C   0  0  0  0  0  0  0  0  0  0  0  0
   -2.3054    0.6528   -0.8883 O   0  0  0  0  0  0  0  0  0  0  0  0
   -0.7300    1.4271    0.5265 N   0  0  0  0  0  0  0  0  0  0  0  0
   -0.0519    1.1812    1.2423 H   0  0  0  0  0  0  0  0  0  0  0  0
   -1.0604    2.8321    0.3218 C   0  0  0  0  0  0  0  0  0  0  0  0
   -2.0790    3.0399    0.6659 H   0  0  0  0  0  0  0  0  0  0  0  0
   -0.3685    3.4690    0.8810 H   0  0  0  0  0  0  0  0  0  0  0  0
   -0.9867    3.0930   -0.7392 H   0  0  0  0  0  0  0  0  0  0  0  0
  1  2  1  0  0  0  0
  2  3  1  0  0  0  0
  2  4  1  0  0  0  0
  2  5  1  0  0  0  0
  5  6  2  0  0  0  0
  5  7  1  0  0  0  0
  7  8  1  0  0  0  0
  7  9  1  0  0  0  0
  9 10  1  0  0  0  0
  9 11  1  0  0  0  0
  9 29  1  0  0  0  0
 11 12  1  0  0  0  0
 11 13  1  0  0  0  0
 11 14  1  0  0  0  0
 14 15  2  0  0  0  0
 14 28  1  0  0  0  0
 15 16  1  0  0  0  0
 15 17  1  0  0  0  0
 17 18  1  0  0  0  0
 17 19  1  0  0  0  0
 19 20  1  0  0  0  0
 19 28  2  0  0  0  0
 20 21  1  0  0  0  0
 20 22  2  0  0  0  0
 22 23  1  0  0  0  0
 22 24  1  0  0  0  0
 24 25  1  0  0  0  0
 24 26  2  0  0  0  0
 26 27  1  0  0  0  0
 26 28  1  0  0  0  0
 29 30  2  0  0  0  0
 29 31  1  0  0  0  0
 31 32  1  0  0  0  0
 31 33  1  0  0  0  0
 33 34  1  0  0  0  0
 33 35  1  0  0  0  0
 33 36  1  0  0  0  0
M  END
$$$$

  -OEChem-03222214083D

 36 37  0     1  0  0  0  0  0999 V2000
   -3.6961   -4.4381    2.0552 H   0  0  0  0  0  0  0  0  0  0  0  0
   -3.6545   -3.7906    1.1750 C   0  0  0  0  0  0  0  0  0  0  0  0
   -4.5731   -3.2012    1.1267 H   0  0  0  0  0  0  0  0  0  0  0  0
   -3.5817   -4.4161    0.2817 H   0  0  0  0  0  0  0  0  0  0  0  0
   -2.4506   -2.8714    1.2585 C   0  0  0  0  0  0  0  0  0  0  0  0
   -1.6719   -2.9702    2.1950 O   0  0  0  0  0  0  0  0  0  0  0  0
   -2.2557   -1.9126    0.2862 N   0  0  0  0  0  0  0  0  0  0  0  0
   -2.9312   -1.8758   -0.4709 H   0  0  0  0  0  0  0  0  0  0  0  0
   -1.0443   -1.0876    0.1571 C   0  0  1  0  0  0  0  0  0  0  0  0
   -0.4921   -1.1290    1.1007 H   0  0  0  0  0  0  0  0  0  0  0  0
   -0.0813   -1.5661   -0.9603 C   0  0  0  0  0  0  0  0  0  0  0  0
   -0.3448   -1.0658   -1.8984 H   0  0  0  0  0  0  0  0  0  0  0  0
    0.9365   -1.2558   -0.7045 H   0  0  0  0  0  0  0  0  0  0  0  0
   -0.1052   -3.0530   -1.2336 C   0  0  0  0  0  0  0  0  0  0  0  0
    0.9702   -3.8994   -1.1088 C   0  0  0  0  0  0  0  0  0  0  0  0
    1.9427   -3.6272   -0.7049 H   0  0  0  0  0  0  0  0  0  0  0  0
    0.5824   -5.1563   -1.5664 N   0  0  0  0  0  0  0  0  0  0  0  0
    1.1687   -5.9880   -1.5675 H   0  0  0  0  0  0  0  0  0  0  0  0
   -0.7053   -5.1075   -2.0720 C   0  0  0  0  0  0  0  0  0  0  0  0
   -1.4996   -6.0808   -2.6782 C   0  0  0  0  0  0  0  0  0  0  0  0
   -1.1337   -7.0960   -2.7833 H   0  0  0  0  0  0  0  0  0  0  0  0
   -2.7659   -5.7252   -3.1631 C   0  0  0  0  0  0  0  0  0  0  0  0
   -3.3933   -6.4723   -3.6404 H   0  0  0  0  0  0  0  0  0  0  0  0
   -3.2126   -4.3997   -3.0548 C   0  0  0  0  0  0  0  0  0  0  0  0
   -4.1823   -4.1197   -3.4554 H   0  0  0  0  0  0  0  0  0  0  0  0
   -2.4044   -3.4313   -2.4430 C   0  0  0  0  0  0  0  0  0  0  0  0
   -2.7351   -2.3991   -2.3862 H   0  0  0  0  0  0  0  0  0  0  0  0
   -1.1585   -3.8022   -1.9214 C   0  0  0  0  0  0  0  0  0  0  0  0
   -1.4110    0.3874   -0.0908 C   0  0  0  0  0  0  0  0  0  0  0  0
   -2.2736    0.6743   -0.9138 O   0  0  0  0  0  0  0  0  0  0  0  0
   -0.7650    1.3970    0.5991 N   0  0  0  0  0  0  0  0  0  0  0  0
   -0.1149    1.1230    1.3303 H   0  0  0  0  0  0  0  0  0  0  0  0
   -1.0861    2.8093    0.4357 C   0  0  0  0  0  0  0  0  0  0  0  0
   -2.1233    3.0023    0.7289 H   0  0  0  0  0  0  0  0  0  0  0  0
   -0.4288    3.4200    1.0620 H   0  0  0  0  0  0  0  0  0  0  0  0
   -0.9513    3.1168   -0.6067 H   0  0  0  0  0  0  0  0  0  0  0  0
  1  2  1  0  0  0  0
  2  3  1  0  0  0  0
  2  4  1  0  0  0  0
  2  5  1  0  0  0  0
  5  6  2  0  0  0  0
  5  7  1  0  0  0  0
  7  8  1  0  0  0  0
  7  9  1  0  0  0  0
  9 10  1  0  0  0  0
  9 11  1  0  0  0  0
  9 29  1  0  0  0  0
 11 12  1  0  0  0  0
 11 13  1  0  0  0  0
 11 14  1  0  0  0  0
 14 15  2  0  0  0  0
 14 28  1  0  0  0  0
 15 16  1  0  0  0  0
 15 17  1  0  0  0  0
 17 18  1  0  0  0  0
 17 19  1  0  0  0  0
 19 20  1  0  0  0  0
 19 28  2  0  0  0  0
 20 21  1  0  0  0  0
 20 22  2  0  0  0  0
 22 23  1  0  0  0  0
 22 24  1  0  0  0  0
 24 25  1  0  0  0  0
 24 26  2  0  0  0  0
 26 27  1  0  0  0  0
 26 28  1  0  0  0  0
 29 30  2  0  0  0  0
 29 31  1  0  0  0  0
 31 32  1  0  0  0  0
 31 33  1  0  0  0  0
 33 34  1  0  0  0  0
 33 35  1  0  0  0  0
 33 36  1  0  0  0  0
M  END
$$$$

  -OEChem-03222214083D

 36 37  0     1  0  0  0  0  0999 V2000
   -3.5774   -4.6478    1.6611 H   0  0  0  0  0  0  0  0  0  0  0  0
   -3.5628   -3.9167    0.8483 C   0  0  0  0  0  0  0  0  0  0  0  0
   -4.5260   -3.4024    0.8183 H   0  0  0  0  0  0  0  0  0  0  0  0
   -3.4079   -4.4443   -0.0964 H   0  0  0  0  0  0  0  0  0  0  0  0
   -2.4454   -2.9146    1.0665 C   0  0  0  0  0  0  0  0  0  0  0  0
   -1.7419   -2.9917    2.0631 O   0  0  0  0  0  0  0  0  0  0  0  0
   -2.2287   -1.9235    0.1320 N   0  0  0  0  0  0  0  0  0  0  0  0
   -2.8014   -1.9575   -0.7065 H   0  0  0  0  0  0  0  0  0  0  0  0
   -1.0244   -1.0762    0.0902 C   0  0  1  0  0  0  0  0  0  0  0  0
   -0.5080   -1.1455    1.0520 H   0  0  0  0  0  0  0  0  0  0  0  0
   -0.0283   -1.5262   -1.0076 C   0  0  0  0  0  0  0  0  0  0  0  0
   -0.2463   -1.0006   -1.9434 H   0  0  0  0  0  0  0  0  0  0  0  0
    0.9833   -1.2396   -0.7040 H   0  0  0  0  0  0  0  0  0  0  0  0
   -0.0699   -3.0084   -1.2947 C   0  0  0  0  0  0  0  0  0  0  0  0
    0.8564   -3.9423   -0.9000 C   0  0  0  0  0  0  0  0  0  0  0  0
    1.7316   -3.7448   -0.2851 H   0  0  0  0  0  0  0  0  0  0  0  0
    0.4524   -5.1765   -1.4059 N   0  0  0  0  0  0  0  0  0  0  0  0
    0.9346   -6.0596   -1.2522 H   0  0  0  0  0  0  0  0  0  0  0  0
   -0.7028   -5.0375   -2.1581 C   0  0  0  0  0  0  0  0  0  0  0  0
   -1.4698   -5.9614   -2.8678 C   0  0  0  0  0  0  0  0  0  0  0  0
   -1.1907   -7.0093   -2.8786 H   0  0  0  0  0  0  0  0  0  0  0  0
   -2.5980   -5.5159   -3.5717 C   0  0  0  0  0  0  0  0  0  0  0  0
   -3.2015   -6.2240   -4.1319 H   0  0  0  0  0  0  0  0  0  0  0  0
   -2.9409   -4.1549   -3.5641 C   0  0  0  0  0  0  0  0  0  0  0  0
   -3.8071   -3.8115   -4.1217 H   0  0  0  0  0  0  0  0  0  0  0  0
   -2.1632   -3.2351   -2.8469 C   0  0  0  0  0  0  0  0  0  0  0  0
   -2.4153   -2.1787   -2.8508 H   0  0  0  0  0  0  0  0  0  0  0  0
   -1.0499   -3.6925   -2.1326 C   0  0  0  0  0  0  0  0  0  0  0  0
   -1.3894    0.4042   -0.1270 C   0  0  0  0  0  0  0  0  0  0  0  0
   -2.1945    0.7174   -0.9974 O   0  0  0  0  0  0  0  0  0  0  0  0
   -0.7866    1.3933    0.6290 N   0  0  0  0  0  0  0  0  0  0  0  0
   -0.1831    1.0976    1.3913 H   0  0  0  0  0  0  0  0  0  0  0  0
   -1.1133    2.8077    0.4976 C   0  0  0  0  0  0  0  0  0  0  0  0
   -2.1674    2.9809    0.7380 H   0  0  0  0  0  0  0  0  0  0  0  0
   -0.4996    3.4028    1.1807 H   0  0  0  0  0  0  0  0  0  0  0  0
   -0.9233    3.1517   -0.5246 H   0  0  0  0  0  0  0  0  0  0  0  0
  1  2  1  0  0  0  0
  2  3  1  0  0  0  0
  2  4  1  0  0  0  0
  2  5  1  0  0  0  0
  5  6  2  0  0  0  0
  5  7  1  0  0  0  0
  7  8  1  0  0  0  0
  7  9  1  0  0  0  0
  9 10  1  0  0  0  0
  9 11  1  0  0  0  0
  9 29  1  0  0  0  0
 11 12  1  0  0  0  0
 11 13  1  0  0  0  0
 11 14  1  0  0  0  0
 14 15  2  0  0  0  0
 14 28  1  0  0  0  0
 15 16  1  0  0  0  0
 15 17  1  0  0  0  0
 17 18  1  0  0  0  0
 17 19  1  0  0  0  0
 19 20  1  0  0  0  0
 19 28  2  0  0  0  0
 20 21  1  0  0  0  0
 20 22  2  0  0  0  0
 22 23  1  0  0  0  0
 22 24  1  0  0  0  0
 24 25  1  0  0  0  0
 24 26  2  0  0  0  0
 26 27  1  0  0  0  0
 26 28  1  0  0  0  0
 29 30  2  0  0  0  0
 29 31  1  0  0  0  0
 31 32  1  0  0  0  0
 31 33  1  0  0  0  0
 33 34  1  0  0  0  0
 33 35  1  0  0  0  0
 33 36  1  0  0  0  0
M  END
$$$$

  -OEChem-03222214083D

 36 37  0     1  0  0  0  0  0999 V2000
   -3.5839   -4.7085    1.4179 H   0  0  0  0  0  0  0  0  0  0  0  0
   -3.5532   -3.9448    0.6361 C   0  0  0  0  0  0  0  0  0  0  0  0
   -4.5174   -3.4320    0.6044 H   0  0  0  0  0  0  0  0  0  0  0  0
   -3.3748   -4.4326   -0.3258 H   0  0  0  0  0  0  0  0  0  0  0  0
   -2.4446   -2.9494    0.9203 C   0  0  0  0  0  0  0  0  0  0  0  0
   -1.7704   -3.0579    1.9343 O   0  0  0  0  0  0  0  0  0  0  0  0
   -2.1957   -1.9353    0.0195 N   0  0  0  0  0  0  0  0  0  0  0  0
   -2.7348   -1.9504   -0.8421 H   0  0  0  0  0  0  0  0  0  0  0  0
   -0.9992   -1.0754    0.0461 C   0  0  1  0  0  0  0  0  0  0  0  0
   -0.5181   -1.1630    1.0250 H   0  0  0  0  0  0  0  0  0  0  0  0
    0.0319   -1.5018   -1.0260 C   0  0  0  0  0  0  0  0  0  0  0  0
   -0.1477   -0.9576   -1.9591 H   0  0  0  0  0  0  0  0  0  0  0  0
    1.0334   -1.2270   -0.6804 H   0  0  0  0  0  0  0  0  0  0  0  0
   -0.0083   -2.9798   -1.3297 C   0  0  0  0  0  0  0  0  0  0  0  0
    0.7156   -3.9648   -0.7045 C   0  0  0  0  0  0  0  0  0  0  0  0
    1.4276   -3.8100    0.1030 H   0  0  0  0  0  0  0  0  0  0  0  0
    0.3415   -5.1829   -1.2693 N   0  0  0  0  0  0  0  0  0  0  0  0
    0.6987   -6.0936   -0.9878 H   0  0  0  0  0  0  0  0  0  0  0  0
   -0.6177   -4.9883   -2.2507 C   0  0  0  0  0  0  0  0  0  0  0  0
   -1.3032   -5.8791   -3.0765 C   0  0  0  0  0  0  0  0  0  0  0  0
   -1.1084   -6.9438   -3.0112 H   0  0  0  0  0  0  0  0  0  0  0  0
   -2.2434   -5.3799   -3.9896 C   0  0  0  0  0  0  0  0  0  0  0  0
   -2.7827   -6.0627   -4.6396 H   0  0  0  0  0  0  0  0  0  0  0  0
   -2.4855   -3.9994   -4.0680 C   0  0  0  0  0  0  0  0  0  0  0  0
   -3.2108   -3.6152   -4.7792 H   0  0  0  0  0  0  0  0  0  0  0  0
   -1.7904   -3.1125   -3.2340 C   0  0  0  0  0  0  0  0  0  0  0  0
   -1.9706   -2.0432   -3.2922 H   0  0  0  0  0  0  0  0  0  0  0  0
   -0.8575   -3.6219   -2.3248 C   0  0  0  0  0  0  0  0  0  0  0  0
   -1.3651    0.4070   -0.1542 C   0  0  0  0  0  0  0  0  0  0  0  0
   -2.1352    0.7345   -1.0503 O   0  0  0  0  0  0  0  0  0  0  0  0
   -0.8015    1.3830    0.6474 N   0  0  0  0  0  0  0  0  0  0  0  0
   -0.2232    1.0758    1.4243 H   0  0  0  0  0  0  0  0  0  0  0  0
   -1.1225    2.7997    0.5251 C   0  0  0  0  0  0  0  0  0  0  0  0
   -2.1842    2.9713    0.7317 H   0  0  0  0  0  0  0  0  0  0  0  0
   -0.5318    3.3833    1.2376 H   0  0  0  0  0  0  0  0  0  0  0  0
   -0.8967    3.1594   -0.4845 H   0  0  0  0  0  0  0  0  0  0  0  0
  1  2  1  0  0  0  0
  2  3  1  0  0  0  0
  2  4  1  0  0  0  0
  2  5  1  0  0  0  0
  5  6  2  0  0  0  0
  5  7  1  0  0  0  0
  7  8  1  0  0  0  0
  7  9  1  0  0  0  0
  9 10  1  0  0  0  0
  9 11  1  0  0  0  0
  9 29  1  0  0  0  0
 11 12  1  0  0  0  0
 11 13  1  0  0  0  0
 11 14  1  0  0  0  0
 14 15  2  0  0  0  0
 14 28  1  0  0  0  0
 15 16  1  0  0  0  0
 15 17  1  0  0  0  0
 17 18  1  0  0  0  0
 17 19  1  0  0  0  0
 19 20  1  0  0  0  0
 19 28  2  0  0  0  0
 20 21  1  0  0  0  0
 20 22  2  0  0  0  0
 22 23  1  0  0  0  0
 22 24  1  0  0  0  0
 24 25  1  0  0  0  0
 24 26  2  0  0  0  0
 26 27  1  0  0  0  0
 26 28  1  0  0  0  0
 29 30  2  0  0  0  0
 29 31  1  0  0  0  0
 31 32  1  0  0  0  0
 31 33  1  0  0  0  0
 33 34  1  0  0  0  0
 33 35  1  0  0  0  0
 33 36  1  0  0  0  0
M  END
$$$$

  -OEChem-03222214083D

 36 37  0     1  0  0  0  0  0999 V2000
   -3.6623   -4.6612    1.3645 H   0  0  0  0  0  0  0  0  0  0  0  0
   -3.5791   -3.9185    0.5663 C   0  0  0  0  0  0  0  0  0  0  0  0
   -4.5240   -3.3753    0.4891 H   0  0  0  0  0  0  0  0  0  0  0  0
   -3.3839   -4.4348   -0.3775 H   0  0  0  0  0  0  0  0  0  0  0  0
   -2.4482   -2.9533    0.8642 C   0  0  0  0  0  0  0  0  0  0  0  0
   -1.7615   -3.1038    1.8646 O   0  0  0  0  0  0  0  0  0  0  0  0
   -2.1835   -1.9271   -0.0176 N   0  0  0  0  0  0  0  0  0  0  0  0
   -2.7422   -1.8951   -0.8667 H   0  0  0  0  0  0  0  0  0  0  0  0
   -0.9869   -1.0684    0.0313 C   0  0  1  0  0  0  0  0  0  0  0  0
   -0.5178   -1.1689    1.0147 H   0  0  0  0  0  0  0  0  0  0  0  0
    0.0530   -1.4920   -1.0318 C   0  0  0  0  0  0  0  0  0  0  0  0
   -0.1185   -0.9385   -1.9605 H   0  0  0  0  0  0  0  0  0  0  0  0
    1.0527   -1.2227   -0.6776 H   0  0  0  0  0  0  0  0  0  0  0  0
    0.0142   -2.9686   -1.3460 C   0  0  0  0  0  0  0  0  0  0  0  0
    0.4991   -3.9777   -0.5495 C   0  0  0  0  0  0  0  0  0  0  0  0
    0.9944   -3.8425    0.4097 H   0  0  0  0  0  0  0  0  0  0  0  0
    0.2023   -5.1870   -1.1740 N   0  0  0  0  0  0  0  0  0  0  0  0
    0.4274   -6.1079   -0.8033 H   0  0  0  0  0  0  0  0  0  0  0  0
   -0.4855   -4.9645   -2.3559 C   0  0  0  0  0  0  0  0  0  0  0  0
   -1.0078   -5.8410   -3.3069 C   0  0  0  0  0  0  0  0  0  0  0  0
   -0.8909   -6.9122   -3.1848 H   0  0  0  0  0  0  0  0  0  0  0  0
   -1.6856   -5.3191   -4.4178 C   0  0  0  0  0  0  0  0  0  0  0  0
   -2.0969   -5.9901   -5.1659 H   0  0  0  0  0  0  0  0  0  0  0  0
   -1.8338   -3.9311   -4.5638 C   0  0  0  0  0  0  0  0  0  0  0  0
   -2.3614   -3.5296   -5.4239 H   0  0  0  0  0  0  0  0  0  0  0  0
   -1.3016   -3.0590   -3.6033 C   0  0  0  0  0  0  0  0  0  0  0  0
   -1.4135   -1.9848   -3.7134 H   0  0  0  0  0  0  0  0  0  0  0  0
   -0.6246   -3.5888   -2.4998 C   0  0  0  0  0  0  0  0  0  0  0  0
   -1.3453    0.4183   -0.1539 C   0  0  0  0  0  0  0  0  0  0  0  0
   -2.1117    0.7587   -1.0482 O   0  0  0  0  0  0  0  0  0  0  0  0
   -0.7869    1.3832    0.6650 N   0  0  0  0  0  0  0  0  0  0  0  0
   -0.2134    1.0657    1.4413 H   0  0  0  0  0  0  0  0  0  0  0  0
   -1.1048    2.8021    0.5582 C   0  0  0  0  0  0  0  0  0  0  0  0
   -2.1657    2.9738    0.7677 H   0  0  0  0  0  0  0  0  0  0  0  0
   -0.5117    3.3774    1.2757 H   0  0  0  0  0  0  0  0  0  0  0  0
   -0.8804    3.1712   -0.4482 H   0  0  0  0  0  0  0  0  0  0  0  0
  1  2  1  0  0  0  0
  2  3  1  0  0  0  0
  2  4  1  0  0  0  0
  2  5  1  0  0  0  0
  5  6  2  0  0  0  0
  5  7  1  0  0  0  0
  7  8  1  0  0  0  0
  7  9  1  0  0  0  0
  9 10  1  0  0  0  0
  9 11  1  0  0  0  0
  9 29  1  0  0  0  0
 11 12  1  0  0  0  0
 11 13  1  0  0  0  0
 11 14  1  0  0  0  0
 14 15  2  0  0  0  0
 14 28  1  0  0  0  0
 15 16  1  0  0  0  0
 15 17  1  0  0  0  0
 17 18  1  0  0  0  0
 17 19  1  0  0  0  0
 19 20  1  0  0  0  0
 19 28  2  0  0  0  0
 20 21  1  0  0  0  0
 20 22  2  0  0  0  0
 22 23  1  0  0  0  0
 22 24  1  0  0  0  0
 24 25  1  0  0  0  0
 24 26  2  0  0  0  0
 26 27  1  0  0  0  0
 26 28  1  0  0  0  0
 29 30  2  0  0  0  0
 29 31  1  0  0  0  0
 31 32  1  0  0  0  0
 31 33  1  0  0  0  0
 33 34  1  0  0  0  0
 33 35  1  0  0  0  0
 33 36  1  0  0  0  0
M  END
$$$$

  -OEChem-03222214083D

 36 37  0     1  0  0  0  0  0999 V2000
   -3.7379   -4.6050    1.4628 H   0  0  0  0  0  0  0  0  0  0  0  0
   -3.6809   -3.8386    0.6849 C   0  0  0  0  0  0  0  0  0  0  0  0
   -4.6016   -3.2507    0.6998 H   0  0  0  0  0  0  0  0  0  0  0  0
   -3.5853   -4.3293   -0.2871 H   0  0  0  0  0  0  0  0  0  0  0  0
   -2.4857   -2.9362    0.9244 C   0  0  0  0  0  0  0  0  0  0  0  0
   -1.7637   -3.1211    1.8938 O   0  0  0  0  0  0  0  0  0  0  0  0
   -2.2092   -1.9217    0.0326 N   0  0  0  0  0  0  0  0  0  0  0  0
   -2.8171   -1.8398   -0.7792 H   0  0  0  0  0  0  0  0  0  0  0  0
   -0.9997   -1.0797    0.0511 C   0  0  1  0  0  0  0  0  0  0  0  0
   -0.5168   -1.1757    1.0284 H   0  0  0  0  0  0  0  0  0  0  0  0
    0.0224   -1.5131   -1.0272 C   0  0  0  0  0  0  0  0  0  0  0  0
   -0.1755   -0.9568   -1.9489 H   0  0  0  0  0  0  0  0  0  0  0  0
    1.0295   -1.2387   -0.6986 H   0  0  0  0  0  0  0  0  0  0  0  0
   -0.0061   -2.9874   -1.3597 C   0  0  0  0  0  0  0  0  0  0  0  0
    0.2258   -4.0181   -0.4796 C   0  0  0  0  0  0  0  0  0  0  0  0
    0.4716   -3.9032    0.5750 H   0  0  0  0  0  0  0  0  0  0  0  0
    0.0524   -5.2141   -1.1711 N   0  0  0  0  0  0  0  0  0  0  0  0
    0.1535   -6.1434   -0.7684 H   0  0  0  0  0  0  0  0  0  0  0  0
   -0.2974   -4.9627   -2.4874 C   0  0  0  0  0  0  0  0  0  0  0  0
   -0.5822   -5.8206   -3.5496 C   0  0  0  0  0  0  0  0  0  0  0  0
   -0.5421   -6.8951   -3.4103 H   0  0  0  0  0  0  0  0  0  0  0  0
   -0.9203   -5.2751   -4.7959 C   0  0  0  0  0  0  0  0  0  0  0  0
   -1.1436   -5.9306   -5.6324 H   0  0  0  0  0  0  0  0  0  0  0  0
   -0.9705   -3.8827   -4.9639 C   0  0  0  0  0  0  0  0  0  0  0  0
   -1.2331   -3.4622   -5.9300 H   0  0  0  0  0  0  0  0  0  0  0  0
   -0.6830   -3.0301   -3.8885 C   0  0  0  0  0  0  0  0  0  0  0  0
   -0.7234   -1.9533   -4.0169 H   0  0  0  0  0  0  0  0  0  0  0  0
   -0.3444   -3.5818   -2.6480 C   0  0  0  0  0  0  0  0  0  0  0  0
   -1.3473    0.4082   -0.1451 C   0  0  0  0  0  0  0  0  0  0  0  0
   -2.1423    0.7452   -1.0151 O   0  0  0  0  0  0  0  0  0  0  0  0
   -0.7648    1.3764    0.6525 N   0  0  0  0  0  0  0  0  0  0  0  0
   -0.1607    1.0638    1.4071 H   0  0  0  0  0  0  0  0  0  0  0  0
   -1.0778    2.7959    0.5432 C   0  0  0  0  0  0  0  0  0  0  0  0
   -2.1424    2.9690    0.7324 H   0  0  0  0  0  0  0  0  0  0  0  0
   -0.4986    3.3679    1.2744 H   0  0  0  0  0  0  0  0  0  0  0  0
   -0.8320    3.1667   -0.4575 H   0  0  0  0  0  0  0  0  0  0  0  0
  1  2  1  0  0  0  0
  2  3  1  0  0  0  0
  2  4  1  0  0  0  0
  2  5  1  0  0  0  0
  5  6  2  0  0  0  0
  5  7  1  0  0  0  0
  7  8  1  0  0  0  0
  7  9  1  0  0  0  0
  9 10  1  0  0  0  0
  9 11  1  0  0  0  0
  9 29  1  0  0  0  0
 11 12  1  0  0  0  0
 11 13  1  0  0  0  0
 11 14  1  0  0  0  0
 14 15  2  0  0  0  0
 14 28  1  0  0  0  0
 15 16  1  0  0  0  0
 15 17  1  0  0  0  0
 17 18  1  0  0  0  0
 17 19  1  0  0  0  0
 19 20  1  0  0  0  0
 19 28  2  0  0  0  0
 20 21  1  0  0  0  0
 20 22  2  0  0  0  0
 22 23  1  0  0  0  0
 22 24  1  0  0  0  0
 24 25  1  0  0  0  0
 24 26  2  0  0  0  0
 26 27  1  0  0  0  0
 26 28  1  0  0  0  0
 29 30  2  0  0  0  0
 29 31  1  0  0  0  0
 31 32  1  0  0  0  0
 31 33  1  0  0  0  0
 33 34  1  0  0  0  0
 33 35  1  0  0  0  0
 33 36  1  0  0  0  0
M  END
$$$$

  -OEChem-03222214083D

 36 37  0     1  0  0  0  0  0999 V2000
   -3.9030   -4.4731    1.6306 H   0  0  0  0  0  0  0  0  0  0  0  0
   -3.7962   -3.7583    0.8100 C   0  0  0  0  0  0  0  0  0  0  0  0
   -4.6873   -3.1267    0.7738 H   0  0  0  0  0  0  0  0  0  0  0  0
   -3.7097   -4.3097   -0.1298 H   0  0  0  0  0  0  0  0  0  0  0  0
   -2.5620   -2.9021    1.0186 C   0  0  0  0  0  0  0  0  0  0  0  0
   -1.8473   -3.0842    1.9929 O   0  0  0  0  0  0  0  0  0  0  0  0
   -2.2511   -1.9215    0.1020 N   0  0  0  0  0  0  0  0  0  0  0  0
   -2.8770   -1.8196   -0.6942 H   0  0  0  0  0  0  0  0  0  0  0  0
   -1.0224   -1.1073    0.0854 C   0  0  1  0  0  0  0  0  0  0  0  0
   -0.5343   -1.1874    1.0616 H   0  0  0  0  0  0  0  0  0  0  0  0
   -0.0087   -1.5670   -0.9953 C   0  0  0  0  0  0  0  0  0  0  0  0
   -0.2268   -1.0170   -1.9161 H   0  0  0  0  0  0  0  0  0  0  0  0
    1.0004   -1.2790   -0.6856 H   0  0  0  0  0  0  0  0  0  0  0  0
   -0.0060   -3.0387   -1.3513 C   0  0  0  0  0  0  0  0  0  0  0  0
   -0.0402   -4.1036   -0.4809 C   0  0  0  0  0  0  0  0  0  0  0  0
   -0.0310   -4.0321    0.6051 H   0  0  0  0  0  0  0  0  0  0  0  0
   -0.0741   -5.2737   -1.2340 N   0  0  0  0  0  0  0  0  0  0  0  0
   -0.0883   -6.2168   -0.8516 H   0  0  0  0  0  0  0  0  0  0  0  0
   -0.0716   -4.9750   -2.5855 C   0  0  0  0  0  0  0  0  0  0  0  0
   -0.1049   -5.7943   -3.7138 C   0  0  0  0  0  0  0  0  0  0  0  0
   -0.1352   -6.8729   -3.6056 H   0  0  0  0  0  0  0  0  0  0  0  0
   -0.1013   -5.2046   -4.9856 C   0  0  0  0  0  0  0  0  0  0  0  0
   -0.1282   -5.8292   -5.8736 H   0  0  0  0  0  0  0  0  0  0  0  0
   -0.0633   -3.8076   -5.1125 C   0  0  0  0  0  0  0  0  0  0  0  0
   -0.0626   -3.3531   -6.0985 H   0  0  0  0  0  0  0  0  0  0  0  0
   -0.0264   -2.9947   -3.9705 C   0  0  0  0  0  0  0  0  0  0  0  0
    0.0037   -1.9147   -4.0697 H   0  0  0  0  0  0  0  0  0  0  0  0
   -0.0306   -3.5897   -2.7036 C   0  0  0  0  0  0  0  0  0  0  0  0
   -1.3491    0.3795   -0.1560 C   0  0  0  0  0  0  0  0  0  0  0  0
   -2.1631    0.7012   -1.0144 O   0  0  0  0  0  0  0  0  0  0  0  0
   -0.7432    1.3613    0.6066 N   0  0  0  0  0  0  0  0  0  0  0  0
   -0.1241    1.0615    1.3545 H   0  0  0  0  0  0  0  0  0  0  0  0
   -1.0430    2.7809    0.4671 C   0  0  0  0  0  0  0  0  0  0  0  0
   -2.0988    2.9728    0.6851 H   0  0  0  0  0  0  0  0  0  0  0  0
   -0.4337    3.3652    1.1632 H   0  0  0  0  0  0  0  0  0  0  0  0
   -0.8256    3.1203   -0.5511 H   0  0  0  0  0  0  0  0  0  0  0  0
  1  2  1  0  0  0  0
  2  3  1  0  0  0  0
  2  4  1  0  0  0  0
  2  5  1  0  0  0  0
  5  6  2  0  0  0  0
  5  7  1  0  0  0  0
  7  8  1  0  0  0  0
  7  9  1  0  0  0  0
  9 10  1  0  0  0  0
  9 11  1  0  0  0  0
  9 29  1  0  0  0  0
 11 12  1  0  0  0  0
 11 13  1  0  0  0  0
 11 14  1  0  0  0  0
 14 15  2  0  0  0  0
 14 28  1  0  0  0  0
 15 16  1  0  0  0  0
 15 17  1  0  0  0  0
 17 18  1  0  0  0  0
 17 19  1  0  0  0  0
 19 20  1  0  0  0  0
 19 28  2  0  0  0  0
 20 21  1  0  0  0  0
 20 22  2  0  0  0  0
 22 23  1  0  0  0  0
 22 24  1  0  0  0  0
 24 25  1  0  0  0  0
 24 26  2  0  0  0  0
 26 27  1  0  0  0  0
 26 28  1  0  0  0  0
 29 30  2  0  0  0  0
 29 31  1  0  0  0  0
 31 32  1  0  0  0  0
 31 33  1  0  0  0  0
 33 34  1  0  0  0  0
 33 35  1  0  0  0  0
 33 36  1  0  0  0  0
M  END
$$$$

  -OEChem-03222214083D

 36 37  0     1  0  0  0  0  0999 V2000
   -4.0615   -4.3312    1.8173 H   0  0  0  0  0  0  0  0  0  0  0  0
   -3.9383   -3.6414    0.9778 C   0  0  0  0  0  0  0  0  0  0  0  0
   -4.7913   -2.9589    0.9536 H   0  0  0  0  0  0  0  0  0  0  0  0
   -3.9139   -4.2169    0.0490 H   0  0  0  0  0  0  0  0  0  0  0  0
   -2.6506   -2.8550    1.1305 C   0  0  0  0  0  0  0  0  0  0  0  0
   -1.9258   -3.0480    2.0944 O   0  0  0  0  0  0  0  0  0  0  0  0
   -2.3052   -1.9220    0.1778 N   0  0  0  0  0  0  0  0  0  0  0  0
   -2.9587   -1.7844   -0.5908 H   0  0  0  0  0  0  0  0  0  0  0  0
   -1.0496   -1.1516    0.1171 C   0  0  1  0  0  0  0  0  0  0  0  0
   -0.5553   -1.2102    1.0917 H   0  0  0  0  0  0  0  0  0  0  0  0
   -0.0455   -1.6528   -0.9597 C   0  0  0  0  0  0  0  0  0  0  0  0
   -0.2714   -1.1149   -1.8861 H   0  0  0  0  0  0  0  0  0  0  0  0
    0.9651   -1.3588   -0.6601 H   0  0  0  0  0  0  0  0  0  0  0  0
   -0.0199   -3.1228   -1.3326 C   0  0  0  0  0  0  0  0  0  0  0  0
   -0.3135   -4.2248   -0.5623 C   0  0  0  0  0  0  0  0  0  0  0  0
   -0.5466   -4.2148    0.4979 H   0  0  0  0  0  0  0  0  0  0  0  0
   -0.2001   -5.3584   -1.3614 N   0  0  0  0  0  0  0  0  0  0  0  0
   -0.3322   -6.3162   -1.0440 H   0  0  0  0  0  0  0  0  0  0  0  0
    0.1602   -5.0032   -2.6484 C   0  0  0  0  0  0  0  0  0  0  0  0
    0.3903   -5.7707   -3.7899 C   0  0  0  0  0  0  0  0  0  0  0  0
    0.2929   -6.8499   -3.7515 H   0  0  0  0  0  0  0  0  0  0  0  0
    0.7467   -5.1285   -4.9838 C   0  0  0  0  0  0  0  0  0  0  0  0
    0.9262   -5.7124   -5.8816 H   0  0  0  0  0  0  0  0  0  0  0  0
    0.8703   -3.7314   -5.0202 C   0  0  0  0  0  0  0  0  0  0  0  0
    1.1456   -3.2360   -5.9464 H   0  0  0  0  0  0  0  0  0  0  0  0
    0.6390   -2.9713   -3.8645 C   0  0  0  0  0  0  0  0  0  0  0  0
    0.7351   -1.8911   -3.8942 H   0  0  0  0  0  0  0  0  0  0  0  0
    0.2823   -3.6184   -2.6750 C   0  0  0  0  0  0  0  0  0  0  0  0
   -1.3476    0.3321   -0.1807 C   0  0  0  0  0  0  0  0  0  0  0  0
   -2.1798    0.6359   -1.0282 O   0  0  0  0  0  0  0  0  0  0  0  0
   -0.7114    1.3309    0.5338 N   0  0  0  0  0  0  0  0  0  0  0  0
   -0.0833    1.0481    1.2809 H   0  0  0  0  0  0  0  0  0  0  0  0
   -0.9910    2.7495    0.3479 C   0  0  0  0  0  0  0  0  0  0  0  0
   -2.0413    2.9658    0.5696 H   0  0  0  0  0  0  0  0  0  0  0  0
   -0.3660    3.3485    1.0170 H   0  0  0  0  0  0  0  0  0  0  0  0
   -0.7789    3.0502   -0.6834 H   0  0  0  0  0  0  0  0  0  0  0  0
  1  2  1  0  0  0  0
  2  3  1  0  0  0  0
  2  4  1  0  0  0  0
  2  5  1  0  0  0  0
  5  6  2  0  0  0  0
  5  7  1  0  0  0  0
  7  8  1  0  0  0  0
  7  9  1  0  0  0  0
  9 10  1  0  0  0  0
  9 11  1  0  0  0  0
  9 29  1  0  0  0  0
 11 12  1  0  0  0  0
 11 13  1  0  0  0  0
 11 14  1  0  0  0  0
 14 15  2  0  0  0  0
 14 28  1  0  0  0  0
 15 16  1  0  0  0  0
 15 17  1  0  0  0  0
 17 18  1  0  0  0  0
 17 19  1  0  0  0  0
 19 20  1  0  0  0  0
 19 28  2  0  0  0  0
 20 21  1  0  0  0  0
 20 22  2  0  0  0  0
 22 23  1  0  0  0  0
 22 24  1  0  0  0  0
 24 25  1  0  0  0  0
 24 26  2  0  0  0  0
 26 27  1  0  0  0  0
 26 28  1  0  0  0  0
 29 30  2  0  0  0  0
 29 31  1  0  0  0  0
 31 32  1  0  0  0  0
 31 33  1  0  0  0  0
 33 34  1  0  0  0  0
 33 35  1  0  0  0  0
 33 36  1  0  0  0  0
M  END
$$$$

  -OEChem-03222214083D

 36 37  0     1  0  0  0  0  0999 V2000
   -4.2373   -4.1424    2.0153 H   0  0  0  0  0  0  0  0  0  0  0  0
   -4.1081   -3.4725    1.1605 C   0  0  0  0  0  0  0  0  0  0  0  0
   -4.8887   -2.7082    1.1909 H   0  0  0  0  0  0  0  0  0  0  0  0
   -4.2106   -4.0517    0.2394 H   0  0  0  0  0  0  0  0  0  0  0  0
   -2.7404   -2.8185    1.2102 C   0  0  0  0  0  0  0  0  0  0  0  0
   -1.9670   -3.0874    2.1155 O   0  0  0  0  0  0  0  0  0  0  0  0
   -2.3741   -1.9270    0.2261 N   0  0  0  0  0  0  0  0  0  0  0  0
   -3.0730   -1.7022   -0.4803 H   0  0  0  0  0  0  0  0  0  0  0  0
   -1.0891   -1.2119    0.1263 C   0  0  1  0  0  0  0  0  0  0  0  0
   -0.5894   -1.2603    1.0988 H   0  0  0  0  0  0  0  0  0  0  0  0
   -0.0954   -1.7492   -0.9440 C   0  0  0  0  0  0  0  0  0  0  0  0
   -0.3091   -1.2138   -1.8752 H   0  0  0  0  0  0  0  0  0  0  0  0
    0.9161   -1.4642   -0.6387 H   0  0  0  0  0  0  0  0  0  0  0  0
   -0.0628   -3.2153   -1.3352 C   0  0  0  0  0  0  0  0  0  0  0  0
   -0.5900   -4.3383   -0.7376 C   0  0  0  0  0  0  0  0  0  0  0  0
   -1.0926   -4.3807    0.2205 H   0  0  0  0  0  0  0  0  0  0  0  0
   -0.3114   -5.4367   -1.5467 N   0  0  0  0  0  0  0  0  0  0  0  0
   -0.5600   -6.4003   -1.3343 H   0  0  0  0  0  0  0  0  0  0  0  0
    0.3926   -5.0414   -2.6685 C   0  0  0  0  0  0  0  0  0  0  0  0
    0.8929   -5.7613   -3.7532 C   0  0  0  0  0  0  0  0  0  0  0  0
    0.7492   -6.8345   -3.8098 H   0  0  0  0  0  0  0  0  0  0  0  0
    1.5814   -5.0794   -4.7660 C   0  0  0  0  0  0  0  0  0  0  0  0
    1.9756   -5.6263   -5.6172 H   0  0  0  0  0  0  0  0  0  0  0  0
    1.7609   -3.6905   -4.6808 C   0  0  0  0  0  0  0  0  0  0  0  0
    2.2935   -3.1637   -5.4668 H   0  0  0  0  0  0  0  0  0  0  0  0
    1.2545   -2.9789   -3.5836 C   0  0  0  0  0  0  0  0  0  0  0  0
    1.3933   -1.9050   -3.5173 H   0  0  0  0  0  0  0  0  0  0  0  0
    0.5674   -3.6663   -2.5757 C   0  0  0  0  0  0  0  0  0  0  0  0
   -1.3473    0.2717   -0.2071 C   0  0  0  0  0  0  0  0  0  0  0  0
   -2.1994    0.5775   -1.0341 O   0  0  0  0  0  0  0  0  0  0  0  0
   -0.6690    1.2700    0.4677 N   0  0  0  0  0  0  0  0  0  0  0  0
   -0.0191    0.9893    1.1968 H   0  0  0  0  0  0  0  0  0  0  0  0
   -0.9026    2.6907    0.2400 C   0  0  0  0  0  0  0  0  0  0  0  0
   -1.9382    2.9528    0.4810 H   0  0  0  0  0  0  0  0  0  0  0  0
   -0.2384    3.2891    0.8710 H   0  0  0  0  0  0  0  0  0  0  0  0
   -0.7081    2.9482   -0.8066 H   0  0  0  0  0  0  0  0  0  0  0  0
  1  2  1  0  0  0  0
  2  3  1  0  0  0  0
  2  4  1  0  0  0  0
  2  5  1  0  0  0  0
  5  6  2  0  0  0  0
  5  7  1  0  0  0  0
  7  8  1  0  0  0  0
  7  9  1  0  0  0  0
  9 10  1  0  0  0  0
  9 11  1  0  0  0  0
  9 29  1  0  0  0  0
 11 12  1  0  0  0  0
 11 13  1  0  0  0  0
 11 14  1  0  0  0  0
 14 15  2  0  0  0  0
 14 28  1  0  0  0  0
 15 16  1  0  0  0  0
 15 17  1  0  0  0  0
 17 18  1  0  0  0  0
 17 19  1  0  0  0  0
 19 20  1  0  0  0  0
 19 28  2  0  0  0  0
 20 21  1  0  0  0  0
 20 22  2  0  0  0  0
 22 23  1  0  0  0  0
 22 24  1  0  0  0  0
 24 25  1  0  0  0  0
 24 26  2  0  0  0  0
 26 27  1  0  0  0  0
 26 28  1  0  0  0  0
 29 30  2  0  0  0  0
 29 31  1  0  0  0  0
 31 32  1  0  0  0  0
 31 33  1  0  0  0  0
 33 34  1  0  0  0  0
 33 35  1  0  0  0  0
 33 36  1  0  0  0  0
M  END
$$$$

  -OEChem-03222214083D

 36 37  0     1  0  0  0  0  0999 V2000
   -4.3376   -4.0470    2.0629 H   0  0  0  0  0  0  0  0  0  0  0  0
   -4.2236   -3.3317    1.2435 C   0  0  0  0  0  0  0  0  0  0  0  0
   -4.9206   -2.5044    1.3984 H   0  0  0  0  0  0  0  0  0  0  0  0
   -4.4664   -3.8321    0.3028 H   0  0  0  0  0  0  0  0  0  0  0  0
   -2.8007   -2.8074    1.2017 C   0  0  0  0  0  0  0  0  0  0  0  0
   -1.9894   -3.1789    2.0335 O   0  0  0  0  0  0  0  0  0  0  0  0
   -2.4286   -1.9204    0.2146 N   0  0  0  0  0  0  0  0  0  0  0  0
   -3.1582   -1.5932   -0.4174 H   0  0  0  0  0  0  0  0  0  0  0  0
   -1.1205   -1.2514    0.1033 C   0  0  1  0  0  0  0  0  0  0  0  0
   -0.6193   -1.3207    1.0740 H   0  0  0  0  0  0  0  0  0  0  0  0
   -0.1336   -1.8006   -0.9673 C   0  0  0  0  0  0  0  0  0  0  0  0
   -0.3167   -1.2471   -1.8949 H   0  0  0  0  0  0  0  0  0  0  0  0
    0.8773   -1.5424   -0.6364 H   0  0  0  0  0  0  0  0  0  0  0  0
   -0.1137   -3.2596   -1.3866 C   0  0  0  0  0  0  0  0  0  0  0  0
   -0.8474   -4.3600   -1.0017 C   0  0  0  0  0  0  0  0  0  0  0  0
   -1.6079   -4.3945   -0.2344 H   0  0  0  0  0  0  0  0  0  0  0  0
   -0.4216   -5.4551   -1.7498 N   0  0  0  0  0  0  0  0  0  0  0  0
   -0.7736   -6.4047   -1.6529 H   0  0  0  0  0  0  0  0  0  0  0  0
    0.5810   -5.0806   -2.6239 C   0  0  0  0  0  0  0  0  0  0  0  0
    1.3159   -5.8030   -3.5642 C   0  0  0  0  0  0  0  0  0  0  0  0
    1.1327   -6.8625   -3.7041 H   0  0  0  0  0  0  0  0  0  0  0  0
    2.2905   -5.1410   -4.3240 C   0  0  0  0  0  0  0  0  0  0  0  0
    2.8700   -5.6900   -5.0602 H   0  0  0  0  0  0  0  0  0  0  0  0
    2.5171   -3.7693   -4.1343 C   0  0  0  0  0  0  0  0  0  0  0  0
    3.2719   -3.2577   -4.7238 H   0  0  0  0  0  0  0  0  0  0  0  0
    1.7717   -3.0555   -3.1850 C   0  0  0  0  0  0  0  0  0  0  0  0
    1.9452   -1.9952   -3.0367 H   0  0  0  0  0  0  0  0  0  0  0  0
    0.8010   -3.7233   -2.4294 C   0  0  0  0  0  0  0  0  0  0  0  0
   -1.3373    0.2424   -0.2121 C   0  0  0  0  0  0  0  0  0  0  0  0
   -2.2079    0.5820   -1.0061 O   0  0  0  0  0  0  0  0  0  0  0  0
   -0.6182    1.2131    0.4609 N   0  0  0  0  0  0  0  0  0  0  0  0
    0.0485    0.9054    1.1634 H   0  0  0  0  0  0  0  0  0  0  0  0
   -0.8178    2.6424    0.2557 C   0  0  0  0  0  0  0  0  0  0  0  0
   -1.8422    2.9285    0.5169 H   0  0  0  0  0  0  0  0  0  0  0  0
   -0.1283    3.2144    0.8842 H   0  0  0  0  0  0  0  0  0  0  0  0
   -0.6329    2.9085   -0.7905 H   0  0  0  0  0  0  0  0  0  0  0  0
  1  2  1  0  0  0  0
  2  3  1  0  0  0  0
  2  4  1  0  0  0  0
  2  5  1  0  0  0  0
  5  6  2  0  0  0  0
  5  7  1  0  0  0  0
  7  8  1  0  0  0  0
  7  9  1  0  0  0  0
  9 10  1  0  0  0  0
  9 11  1  0  0  0  0
  9 29  1  0  0  0  0
 11 12  1  0  0  0  0
 11 13  1  0  0  0  0
 11 14  1  0  0  0  0
 14 15  2  0  0  0  0
 14 28  1  0  0  0  0
 15 16  1  0  0  0  0
 15 17  1  0  0  0  0
 17 18  1  0  0  0  0
 17 19  1  0  0  0  0
 19 20  1  0  0  0  0
 19 28  2  0  0  0  0
 20 21  1  0  0  0  0
 20 22  2  0  0  0  0
 22 23  1  0  0  0  0
 22 24  1  0  0  0  0
 24 25  1  0  0  0  0
 24 26  2  0  0  0  0
 26 27  1  0  0  0  0
 26 28  1  0  0  0  0
 29 30  2  0  0  0  0
 29 31  1  0  0  0  0
 31 32  1  0  0  0  0
 31 33  1  0  0  0  0
 33 34  1  0  0  0  0
 33 35  1  0  0  0  0
 33 36  1  0  0  0  0
M  END
$$$$

  -OEChem-03222214083D

 36 37  0     1  0  0  0  0  0999 V2000
   -4.3403   -4.0967    1.9311 H   0  0  0  0  0  0  0  0  0  0  0  0
   -4.2386   -3.3133    1.1748 C   0  0  0  0  0  0  0  0  0  0  0  0
   -4.9035   -2.4851    1.4327 H   0  0  0  0  0  0  0  0  0  0  0  0
   -4.5345   -3.7206    0.2051 H   0  0  0  0  0  0  0  0  0  0  0  0
   -2.8040   -2.8242    1.1186 C   0  0  0  0  0  0  0  0  0  0  0  0
   -1.9857   -3.2445    1.9188 O   0  0  0  0  0  0  0  0  0  0  0  0
   -2.4364   -1.9033    0.1600 N   0  0  0  0  0  0  0  0  0  0  0  0
   -3.1758   -1.5150   -0.4242 H   0  0  0  0  0  0  0  0  0  0  0  0
   -1.1208   -1.2480    0.0714 C   0  0  1  0  0  0  0  0  0  0  0  0
   -0.6241   -1.3568    1.0409 H   0  0  0  0  0  0  0  0  0  0  0  0
   -0.1320   -1.7737   -1.0084 C   0  0  0  0  0  0  0  0  0  0  0  0
   -0.2842   -1.1877   -1.9216 H   0  0  0  0  0  0  0  0  0  0  0  0
    0.8749   -1.5437   -0.6472 H   0  0  0  0  0  0  0  0  0  0  0  0
   -0.1332   -3.2227   -1.4642 C   0  0  0  0  0  0  0  0  0  0  0  0
   -1.0406   -4.2486   -1.3144 C   0  0  0  0  0  0  0  0  0  0  0  0
   -1.9918   -4.2005   -0.8021 H   0  0  0  0  0  0  0  0  0  0  0  0
   -0.5314   -5.3815   -1.9437 N   0  0  0  0  0  0  0  0  0  0  0  0
   -0.9835   -6.2923   -1.9707 H   0  0  0  0  0  0  0  0  0  0  0  0
    0.6979   -5.1047   -2.5103 C   0  0  0  0  0  0  0  0  0  0  0  0
    1.5864   -5.8994   -3.2345 C   0  0  0  0  0  0  0  0  0  0  0  0
    1.3516   -6.9390   -3.4337 H   0  0  0  0  0  0  0  0  0  0  0  0
    2.7821   -5.3357   -3.7000 C   0  0  0  0  0  0  0  0  0  0  0  0
    3.4831   -5.9418   -4.2659 H   0  0  0  0  0  0  0  0  0  0  0  0
    3.0732   -3.9890   -3.4353 C   0  0  0  0  0  0  0  0  0  0  0  0
    3.9994   -3.5538   -3.7981 H   0  0  0  0  0  0  0  0  0  0  0  0
    2.1722   -3.2023   -2.7031 C   0  0  0  0  0  0  0  0  0  0  0  0
    2.3974   -2.1611   -2.4985 H   0  0  0  0  0  0  0  0  0  0  0  0
    0.9802   -3.7719   -2.2391 C   0  0  0  0  0  0  0  0  0  0  0  0
   -1.3209    0.2592   -0.1835 C   0  0  0  0  0  0  0  0  0  0  0  0
   -2.1982    0.6388   -0.9518 O   0  0  0  0  0  0  0  0  0  0  0  0
   -0.5887    1.1943    0.5250 N   0  0  0  0  0  0  0  0  0  0  0  0
    0.0789    0.8504    1.2096 H   0  0  0  0  0  0  0  0  0  0  0  0
   -0.7889    2.6324    0.3957 C   0  0  0  0  0  0  0  0  0  0  0  0
   -1.8048    2.9069    0.6980 H   0  0  0  0  0  0  0  0  0  0  0  0
   -0.0809    3.1714    1.0327 H   0  0  0  0  0  0  0  0  0  0  0  0
   -0.6315    2.9495   -0.6405 H   0  0  0  0  0  0  0  0  0  0  0  0
  1  2  1  0  0  0  0
  2  3  1  0  0  0  0
  2  4  1  0  0  0  0
  2  5  1  0  0  0  0
  5  6  2  0  0  0  0
  5  7  1  0  0  0  0
  7  8  1  0  0  0  0
  7  9  1  0  0  0  0
  9 10  1  0  0  0  0
  9 11  1  0  0  0  0
  9 29  1  0  0  0  0
 11 12  1  0  0  0  0
 11 13  1  0  0  0  0
 11 14  1  0  0  0  0
 14 15  2  0  0  0  0
 14 28  1  0  0  0  0
 15 16  1  0  0  0  0
 15 17  1  0  0  0  0
 17 18  1  0  0  0  0
 17 19  1  0  0  0  0
 19 20  1  0  0  0  0
 19 28  2  0  0  0  0
 20 21  1  0  0  0  0
 20 22  2  0  0  0  0
 22 23  1  0  0  0  0
 22 24  1  0  0  0  0
 24 25  1  0  0  0  0
 24 26  2  0  0  0  0
 26 27  1  0  0  0  0
 26 28  1  0  0  0  0
 29 30  2  0  0  0  0
 29 31  1  0  0  0  0
 31 32  1  0  0  0  0
 31 33  1  0  0  0  0
 33 34  1  0  0  0  0
 33 35  1  0  0  0  0
 33 36  1  0  0  0  0
M  END
$$$$

  -OEChem-03222214083D

 36 37  0     1  0  0  0  0  0999 V2000
   -4.2692   -4.1500    1.8496 H   0  0  0  0  0  0  0  0  0  0  0  0
   -4.1655   -3.4029    1.0574 C   0  0  0  0  0  0  0  0  0  0  0  0
   -4.8671   -2.5873    1.2488 H   0  0  0  0  0  0  0  0  0  0  0  0
   -4.4107   -3.8685    0.1001 H   0  0  0  0  0  0  0  0  0  0  0  0
   -2.7465   -2.8674    1.0271 C   0  0  0  0  0  0  0  0  0  0  0  0
   -1.9268   -3.2747    1.8326 O   0  0  0  0  0  0  0  0  0  0  0  0
   -2.4050   -1.9002    0.1041 N   0  0  0  0  0  0  0  0  0  0  0  0
   -3.1550   -1.5057   -0.4618 H   0  0  0  0  0  0  0  0  0  0  0  0
   -1.1035   -1.2150    0.0413 C   0  0  1  0  0  0  0  0  0  0  0  0
   -0.6064   -1.3498    1.0073 H   0  0  0  0  0  0  0  0  0  0  0  0
   -0.1056   -1.6992   -1.0477 C   0  0  0  0  0  0  0  0  0  0  0  0
   -0.2590   -1.0985   -1.9508 H   0  0  0  0  0  0  0  0  0  0  0  0
    0.8963   -1.4643   -0.6770 H   0  0  0  0  0  0  0  0  0  0  0  0
   -0.1083   -3.1446   -1.5159 C   0  0  0  0  0  0  0  0  0  0  0  0
   -1.1240   -4.0717   -1.5984 C   0  0  0  0  0  0  0  0  0  0  0  0
   -2.1640   -3.9071   -1.3431 H   0  0  0  0  0  0  0  0  0  0  0  0
   -0.5936   -5.2616   -2.0897 N   0  0  0  0  0  0  0  0  0  0  0  0
   -1.1140   -6.1238   -2.2340 H   0  0  0  0  0  0  0  0  0  0  0  0
    0.7585   -5.1178   -2.3369 C   0  0  0  0  0  0  0  0  0  0  0  0
    1.7097   -6.0117   -2.8290 C   0  0  0  0  0  0  0  0  0  0  0  0
    1.4256   -7.0255   -3.0877 H   0  0  0  0  0  0  0  0  0  0  0  0
    3.0344   -5.5816   -2.9845 C   0  0  0  0  0  0  0  0  0  0  0  0
    3.7866   -6.2666   -3.3643 H   0  0  0  0  0  0  0  0  0  0  0  0
    3.3890   -4.2663   -2.6498 C   0  0  0  0  0  0  0  0  0  0  0  0
    4.4154   -3.9342   -2.7732 H   0  0  0  0  0  0  0  0  0  0  0  0
    2.4227   -3.3781   -2.1559 C   0  0  0  0  0  0  0  0  0  0  0  0
    2.6996   -2.3616   -1.8996 H   0  0  0  0  0  0  0  0  0  0  0  0
    1.1011   -3.8141   -1.9979 C   0  0  0  0  0  0  0  0  0  0  0  0
   -1.3228    0.2977   -0.1520 C   0  0  0  0  0  0  0  0  0  0  0  0
   -2.2022    0.6957   -0.9083 O   0  0  0  0  0  0  0  0  0  0  0  0
   -0.6023    1.2119    0.5946 N   0  0  0  0  0  0  0  0  0  0  0  0
    0.0603    0.8470    1.2734 H   0  0  0  0  0  0  0  0  0  0  0  0
   -0.8275    2.6507    0.5323 C   0  0  0  0  0  0  0  0  0  0  0  0
   -1.8503    2.8923    0.8399 H   0  0  0  0  0  0  0  0  0  0  0  0
   -0.1333    3.1710    1.1994 H   0  0  0  0  0  0  0  0  0  0  0  0
   -0.6691    3.0201   -0.4863 H   0  0  0  0  0  0  0  0  0  0  0  0
  1  2  1  0  0  0  0
  2  3  1  0  0  0  0
  2  4  1  0  0  0  0
  2  5  1  0  0  0  0
  5  6  2  0  0  0  0
  5  7  1  0  0  0  0
  7  8  1  0  0  0  0
  7  9  1  0  0  0  0
  9 10  1  0  0  0  0
  9 11  1  0  0  0  0
  9 29  1  0  0  0  0
 11 12  1  0  0  0  0
 11 13  1  0  0  0  0
 11 14  1  0  0  0  0
 14 15  2  0  0  0  0
 14 28  1  0  0  0  0
 15 16  1  0  0  0  0
 15 17  1  0  0  0  0
 17 18  1  0  0  0  0
 17 19  1  0  0  0  0
 19 20  1  0  0  0  0
 19 28  2  0  0  0  0
 20 21  1  0  0  0  0
 20 22  2  0  0  0  0
 22 23  1  0  0  0  0
 22 24  1  0  0  0  0
 24 25  1  0  0  0  0
 24 26  2  0  0  0  0
 26 27  1  0  0  0  0
 26 28  1  0  0  0  0
 29 30  2  0  0  0  0
 29 31  1  0  0  0  0
 31 32  1  0  0  0  0
 31 33  1  0  0  0  0
 33 34  1  0  0  0  0
 33 35  1  0  0  0  0
 33 36  1  0  0  0  0
M  END
$$$$

  -OEChem-03222214083D

 36 37  0     1  0  0  0  0  0999 V2000
   -4.1202   -4.2943    1.7004 H   0  0  0  0  0  0  0  0  0  0  0  0
   -4.0288   -3.5442    0.9097 C   0  0  0  0  0  0  0  0  0  0  0  0
   -4.7982   -2.7824    1.0565 H   0  0  0  0  0  0  0  0  0  0  0  0
   -4.1851   -4.0305   -0.0559 H   0  0  0  0  0  0  0  0  0  0  0  0
   -2.6527   -2.9068    0.9520 C   0  0  0  0  0  0  0  0  0  0  0  0
   -1.8453   -3.2633    1.7937 O   0  0  0  0  0  0  0  0  0  0  0  0
   -2.3400   -1.9025    0.0587 N   0  0  0  0  0  0  0  0  0  0  0  0
   -3.0915   -1.5409   -0.5254 H   0  0  0  0  0  0  0  0  0  0  0  0
   -1.0642   -1.1686    0.0286 C   0  0  1  0  0  0  0  0  0  0  0  0
   -0.5673   -1.3122    0.9934 H   0  0  0  0  0  0  0  0  0  0  0  0
   -0.0553   -1.6100   -1.0669 C   0  0  0  0  0  0  0  0  0  0  0  0
   -0.2303   -1.0085   -1.9654 H   0  0  0  0  0  0  0  0  0  0  0  0
    0.9451   -1.3561   -0.7064 H   0  0  0  0  0  0  0  0  0  0  0  0
   -0.0573   -3.0562   -1.5288 C   0  0  0  0  0  0  0  0  0  0  0  0
   -1.1217   -3.8693   -1.8491 C   0  0  0  0  0  0  0  0  0  0  0  0
   -2.1666   -3.5763   -1.8395 H   0  0  0  0  0  0  0  0  0  0  0  0
   -0.6251   -5.1197   -2.2063 N   0  0  0  0  0  0  0  0  0  0  0  0
   -1.1865   -5.9233   -2.4784 H   0  0  0  0  0  0  0  0  0  0  0  0
    0.7553   -5.1262   -2.1243 C   0  0  0  0  0  0  0  0  0  0  0  0
    1.6892   -6.1301   -2.3798 C   0  0  0  0  0  0  0  0  0  0  0  0
    1.3612   -7.1126   -2.6998 H   0  0  0  0  0  0  0  0  0  0  0  0
    3.0527   -5.8511   -2.2169 C   0  0  0  0  0  0  0  0  0  0  0  0
    3.7916   -6.6224   -2.4123 H   0  0  0  0  0  0  0  0  0  0  0  0
    3.4636   -4.5757   -1.8013 C   0  0  0  0  0  0  0  0  0  0  0  0
    4.5205   -4.3611   -1.6755 H   0  0  0  0  0  0  0  0  0  0  0  0
    2.5140   -3.5759   -1.5456 C   0  0  0  0  0  0  0  0  0  0  0  0
    2.8355   -2.5915   -1.2242 H   0  0  0  0  0  0  0  0  0  0  0  0
    1.1522   -3.8596   -1.7095 C   0  0  0  0  0  0  0  0  0  0  0  0
   -1.3291    0.3409   -0.1266 C   0  0  0  0  0  0  0  0  0  0  0  0
   -2.2019    0.7303   -0.8950 O   0  0  0  0  0  0  0  0  0  0  0  0
   -0.6475    1.2588    0.6514 N   0  0  0  0  0  0  0  0  0  0  0  0
    0.0104    0.8979    1.3368 H   0  0  0  0  0  0  0  0  0  0  0  0
   -0.9166    2.6911    0.6193 C   0  0  0  0  0  0  0  0  0  0  0  0
   -1.9515    2.8937    0.9146 H   0  0  0  0  0  0  0  0  0  0  0  0
   -0.2505    3.2163    1.3105 H   0  0  0  0  0  0  0  0  0  0  0  0
   -0.7526    3.0899   -0.3874 H   0  0  0  0  0  0  0  0  0  0  0  0
  1  2  1  0  0  0  0
  2  3  1  0  0  0  0
  2  4  1  0  0  0  0
  2  5  1  0  0  0  0
  5  6  2  0  0  0  0
  5  7  1  0  0  0  0
  7  8  1  0  0  0  0
  7  9  1  0  0  0  0
  9 10  1  0  0  0  0
  9 11  1  0  0  0  0
  9 29  1  0  0  0  0
 11 12  1  0  0  0  0
 11 13  1  0  0  0  0
 11 14  1  0  0  0  0
 14 15  2  0  0  0  0
 14 28  1  0  0  0  0
 15 16  1  0  0  0  0
 15 17  1  0  0  0  0
 17 18  1  0  0  0  0
 17 19  1  0  0  0  0
 19 20  1  0  0  0  0
 19 28  2  0  0  0  0
 20 21  1  0  0  0  0
 20 22  2  0  0  0  0
 22 23  1  0  0  0  0
 22 24  1  0  0  0  0
 24 25  1  0  0  0  0
 24 26  2  0  0  0  0
 26 27  1  0  0  0  0
 26 28  1  0  0  0  0
 29 30  2  0  0  0  0
 29 31  1  0  0  0  0
 31 32  1  0  0  0  0
 31 33  1  0  0  0  0
 33 34  1  0  0  0  0
 33 35  1  0  0  0  0
 33 36  1  0  0  0  0
M  END
$$$$

  -OEChem-03222214083D

 36 37  0     1  0  0  0  0  0999 V2000
   -3.9332   -4.4431    1.5792 H   0  0  0  0  0  0  0  0  0  0  0  0
   -3.8624   -3.6851    0.7941 C   0  0  0  0  0  0  0  0  0  0  0  0
   -4.6892   -2.9801    0.9095 H   0  0  0  0  0  0  0  0  0  0  0  0
   -3.9425   -4.1773   -0.1779 H   0  0  0  0  0  0  0  0  0  0  0  0
   -2.5378   -2.9526    0.8945 C   0  0  0  0  0  0  0  0  0  0  0  0
   -1.7446   -3.2521    1.7719 O   0  0  0  0  0  0  0  0  0  0  0  0
   -2.2637   -1.9187    0.0222 N   0  0  0  0  0  0  0  0  0  0  0  0
   -3.0118   -1.6096   -0.5942 H   0  0  0  0  0  0  0  0  0  0  0  0
   -1.0196   -1.1307    0.0159 C   0  0  1  0  0  0  0  0  0  0  0  0
   -0.5168   -1.2745    0.9773 H   0  0  0  0  0  0  0  0  0  0  0  0
   -0.0073   -1.5279   -1.0898 C   0  0  0  0  0  0  0  0  0  0  0  0
   -0.2179   -0.9329   -1.9847 H   0  0  0  0  0  0  0  0  0  0  0  0
    0.9961   -1.2495   -0.7562 H   0  0  0  0  0  0  0  0  0  0  0  0
   -0.0098   -2.9759   -1.5341 C   0  0  0  0  0  0  0  0  0  0  0  0
   -1.0527   -3.6810   -2.0901 C   0  0  0  0  0  0  0  0  0  0  0  0
   -2.0347   -3.2742   -2.3161 H   0  0  0  0  0  0  0  0  0  0  0  0
   -0.6209   -4.9851   -2.3168 N   0  0  0  0  0  0  0  0  0  0  0  0
   -1.1816   -5.7326   -2.7188 H   0  0  0  0  0  0  0  0  0  0  0  0
    0.6928   -5.1314   -1.9063 C   0  0  0  0  0  0  0  0  0  0  0  0
    1.5487   -6.2326   -1.9240 C   0  0  0  0  0  0  0  0  0  0  0  0
    1.2060   -7.1856   -2.3106 H   0  0  0  0  0  0  0  0  0  0  0  0
    2.8541   -6.0907   -1.4342 C   0  0  0  0  0  0  0  0  0  0  0  0
    3.5315   -6.9394   -1.4408 H   0  0  0  0  0  0  0  0  0  0  0  0
    3.2855   -4.8533   -0.9327 C   0  0  0  0  0  0  0  0  0  0  0  0
    4.2966   -4.7453   -0.5520 H   0  0  0  0  0  0  0  0  0  0  0  0
    2.4146   -3.7543   -0.9185 C   0  0  0  0  0  0  0  0  0  0  0  0
    2.7479   -2.7994   -0.5274 H   0  0  0  0  0  0  0  0  0  0  0  0
    1.1131   -3.9015   -1.4115 C   0  0  0  0  0  0  0  0  0  0  0  0
   -1.3362    0.3706   -0.1124 C   0  0  0  0  0  0  0  0  0  0  0  0
   -2.2025    0.7451   -0.8955 O   0  0  0  0  0  0  0  0  0  0  0  0
   -0.6940    1.2970    0.6884 N   0  0  0  0  0  0  0  0  0  0  0  0
   -0.0360    0.9467    1.3795 H   0  0  0  0  0  0  0  0  0  0  0  0
   -0.9969    2.7225    0.6628 C   0  0  0  0  0  0  0  0  0  0  0  0
   -2.0439    2.8967    0.9320 H   0  0  0  0  0  0  0  0  0  0  0  0
   -0.3625    3.2571    1.3766 H   0  0  0  0  0  0  0  0  0  0  0  0
   -0.8161    3.1347   -0.3356 H   0  0  0  0  0  0  0  0  0  0  0  0
  1  2  1  0  0  0  0
  2  3  1  0  0  0  0
  2  4  1  0  0  0  0
  2  5  1  0  0  0  0
  5  6  2  0  0  0  0
  5  7  1  0  0  0  0
  7  8  1  0  0  0  0
  7  9  1  0  0  0  0
  9 10  1  0  0  0  0
  9 11  1  0  0  0  0
  9 29  1  0  0  0  0
 11 12  1  0  0  0  0
 11 13  1  0  0  0  0
 11 14  1  0  0  0  0
 14 15  2  0  0  0  0
 14 28  1  0  0  0  0
 15 16  1  0  0  0  0
 15 17  1  0  0  0  0
 17 18  1  0  0  0  0
 17 19  1  0  0  0  0
 19 20  1  0  0  0  0
 19 28  2  0  0  0  0
 20 21  1  0  0  0  0
 20 22  2  0  0  0  0
 22 23  1  0  0  0  0
 22 24  1  0  0  0  0
 24 25  1  0  0  0  0
 24 26  2  0  0  0  0
 26 27  1  0  0  0  0
 26 28  1  0  0  0  0
 29 30  2  0  0  0  0
 29 31  1  0  0  0  0
 31 32  1  0  0  0  0
 31 33  1  0  0  0  0
 33 34  1  0  0  0  0
 33 35  1  0  0  0  0
 33 36  1  0  0  0  0
M  END
$$$$

  -OEChem-03222214083D

 36 37  0     1  0  0  0  0  0999 V2000
   -3.7408   -4.5751    1.4880 H   0  0  0  0  0  0  0  0  0  0  0  0
   -3.6901   -3.8130    0.7053 C   0  0  0  0  0  0  0  0  0  0  0  0
   -4.5751   -3.1760    0.7758 H   0  0  0  0  0  0  0  0  0  0  0  0
   -3.6800   -4.3091   -0.2681 H   0  0  0  0  0  0  0  0  0  0  0  0
   -2.4342   -2.9788    0.8712 C   0  0  0  0  0  0  0  0  0  0  0  0
   -1.6697   -3.2109    1.7941 O   0  0  0  0  0  0  0  0  0  0  0  0
   -2.1925   -1.9304    0.0070 N   0  0  0  0  0  0  0  0  0  0  0  0
   -2.9093   -1.7054   -0.6778 H   0  0  0  0  0  0  0  0  0  0  0  0
   -0.9759   -1.1004    0.0153 C   0  0  1  0  0  0  0  0  0  0  0  0
   -0.4643   -1.2381    0.9731 H   0  0  0  0  0  0  0  0  0  0  0  0
    0.0295   -1.4727   -1.1019 C   0  0  0  0  0  0  0  0  0  0  0  0
   -0.2078   -0.8856   -1.9956 H   0  0  0  0  0  0  0  0  0  0  0  0
    1.0387   -1.1852   -0.7929 H   0  0  0  0  0  0  0  0  0  0  0  0
    0.0176   -2.9244   -1.5212 C   0  0  0  0  0  0  0  0  0  0  0  0
   -0.9328   -3.5435   -2.2993 C   0  0  0  0  0  0  0  0  0  0  0  0
   -1.7944   -3.0534   -2.7458 H   0  0  0  0  0  0  0  0  0  0  0  0
   -0.5829   -4.8869   -2.4124 N   0  0  0  0  0  0  0  0  0  0  0  0
   -1.0939   -5.5890   -2.9427 H   0  0  0  0  0  0  0  0  0  0  0  0
    0.5775   -5.1410   -1.6996 C   0  0  0  0  0  0  0  0  0  0  0  0
    1.3073   -6.3139   -1.5054 C   0  0  0  0  0  0  0  0  0  0  0  0
    0.9811   -7.2426   -1.9600 H   0  0  0  0  0  0  0  0  0  0  0  0
    2.4635   -6.2754   -0.7133 C   0  0  0  0  0  0  0  0  0  0  0  0
    3.0404   -7.1810   -0.5518 H   0  0  0  0  0  0  0  0  0  0  0  0
    2.8733   -5.0692   -0.1248 C   0  0  0  0  0  0  0  0  0  0  0  0
    3.7657   -5.0429    0.4928 H   0  0  0  0  0  0  0  0  0  0  0  0
    2.1311   -3.8968   -0.3272 C   0  0  0  0  0  0  0  0  0  0  0  0
    2.4414   -2.9646    0.1321 H   0  0  0  0  0  0  0  0  0  0  0  0
    0.9826   -3.9417   -1.1243 C   0  0  0  0  0  0  0  0  0  0  0  0
   -1.3324    0.3924   -0.1045 C   0  0  0  0  0  0  0  0  0  0  0  0
   -2.1813    0.7531   -0.9128 O   0  0  0  0  0  0  0  0  0  0  0  0
   -0.7219    1.3299    0.7084 N   0  0  0  0  0  0  0  0  0  0  0  0
   -0.0789    0.9895    1.4182 H   0  0  0  0  0  0  0  0  0  0  0  0
   -1.0518    2.7492    0.6780 C   0  0  0  0  0  0  0  0  0  0  0  0
   -2.1031    2.9037    0.9422 H   0  0  0  0  0  0  0  0  0  0  0  0
   -0.4306    3.2973    1.3928 H   0  0  0  0  0  0  0  0  0  0  0  0
   -0.8742    3.1619   -0.3207 H   0  0  0  0  0  0  0  0  0  0  0  0
  1  2  1  0  0  0  0
  2  3  1  0  0  0  0
  2  4  1  0  0  0  0
  2  5  1  0  0  0  0
  5  6  2  0  0  0  0
  5  7  1  0  0  0  0
  7  8  1  0  0  0  0
  7  9  1  0  0  0  0
  9 10  1  0  0  0  0
  9 11  1  0  0  0  0
  9 29  1  0  0  0  0
 11 12  1  0  0  0  0
 11 13  1  0  0  0  0
 11 14  1  0  0  0  0
 14 15  2  0  0  0  0
 14 28  1  0  0  0  0
 15 16  1  0  0  0  0
 15 17  1  0  0  0  0
 17 18  1  0  0  0  0
 17 19  1  0  0  0  0
 19 20  1  0  0  0  0
 19 28  2  0  0  0  0
 20 21  1  0  0  0  0
 20 22  2  0  0  0  0
 22 23  1  0  0  0  0
 22 24  1  0  0  0  0
 24 25  1  0  0  0  0
 24 26  2  0  0  0  0
 26 27  1  0  0  0  0
 26 28  1  0  0  0  0
 29 30  2  0  0  0  0
 29 31  1  0  0  0  0
 31 32  1  0  0  0  0
 31 33  1  0  0  0  0
 33 34  1  0  0  0  0
 33 35  1  0  0  0  0
 33 36  1  0  0  0  0
M  END
$$$$

  -OEChem-03222214083D

 36 37  0     1  0  0  0  0  0999 V2000
   -3.5476   -4.6905    1.4175 H   0  0  0  0  0  0  0  0  0  0  0  0
   -3.5087   -3.9327    0.6301 C   0  0  0  0  0  0  0  0  0  0  0  0
   -4.4526   -3.3825    0.6219 H   0  0  0  0  0  0  0  0  0  0  0  0
   -3.3746   -4.4326   -0.3324 H   0  0  0  0  0  0  0  0  0  0  0  0
   -2.3543   -2.9814    0.8788 C   0  0  0  0  0  0  0  0  0  0  0  0
   -1.6432   -3.1298    1.8606 O   0  0  0  0  0  0  0  0  0  0  0  0
   -2.1389   -1.9306    0.0110 N   0  0  0  0  0  0  0  0  0  0  0  0
   -2.7833   -1.8244   -0.7668 H   0  0  0  0  0  0  0  0  0  0  0  0
   -0.9415   -1.0731    0.0253 C   0  0  1  0  0  0  0  0  0  0  0  0
   -0.4215   -1.2018    0.9794 H   0  0  0  0  0  0  0  0  0  0  0  0
    0.0518   -1.4389   -1.1038 C   0  0  0  0  0  0  0  0  0  0  0  0
   -0.1993   -0.8563   -1.9966 H   0  0  0  0  0  0  0  0  0  0  0  0
    1.0666   -1.1536   -0.8101 H   0  0  0  0  0  0  0  0  0  0  0  0
    0.0265   -2.8959   -1.4985 C   0  0  0  0  0  0  0  0  0  0  0  0
   -0.7684   -3.4538   -2.4721 C   0  0  0  0  0  0  0  0  0  0  0  0
   -1.4585   -2.9075   -3.1112 H   0  0  0  0  0  0  0  0  0  0  0  0
   -0.5225   -4.8248   -2.4852 N   0  0  0  0  0  0  0  0  0  0  0  0
   -0.9509   -5.4965   -3.1185 H   0  0  0  0  0  0  0  0  0  0  0  0
    0.4129   -5.1542   -1.5171 C   0  0  0  0  0  0  0  0  0  0  0  0
    0.9703   -6.3770   -1.1432 C   0  0  0  0  0  0  0  0  0  0  0  0
    0.6800   -7.2891   -1.6522 H   0  0  0  0  0  0  0  0  0  0  0  0
    1.9058   -6.4101   -0.0994 C   0  0  0  0  0  0  0  0  0  0  0  0
    2.3479   -7.3545    0.2034 H   0  0  0  0  0  0  0  0  0  0  0  0
    2.2671   -5.2249    0.5596 C   0  0  0  0  0  0  0  0  0  0  0  0
    2.9844   -5.2539    1.3741 H   0  0  0  0  0  0  0  0  0  0  0  0
    1.7002   -4.0014    0.1746 C   0  0  0  0  0  0  0  0  0  0  0  0
    1.9683   -3.0840    0.6875 H   0  0  0  0  0  0  0  0  0  0  0  0
    0.7764   -3.9764   -0.8743 C   0  0  0  0  0  0  0  0  0  0  0  0
   -1.3236    0.4135   -0.0983 C   0  0  0  0  0  0  0  0  0  0  0  0
   -2.1497    0.7652   -0.9337 O   0  0  0  0  0  0  0  0  0  0  0  0
   -0.7340    1.3608    0.7184 N   0  0  0  0  0  0  0  0  0  0  0  0
   -0.1147    1.0262    1.4515 H   0  0  0  0  0  0  0  0  0  0  0  0
   -1.0864    2.7749    0.6849 C   0  0  0  0  0  0  0  0  0  0  0  0
   -2.1377    2.9144    0.9577 H   0  0  0  0  0  0  0  0  0  0  0  0
   -0.4672    3.3349    1.3922 H   0  0  0  0  0  0  0  0  0  0  0  0
   -0.9238    3.1873   -0.3166 H   0  0  0  0  0  0  0  0  0  0  0  0
  1  2  1  0  0  0  0
  2  3  1  0  0  0  0
  2  4  1  0  0  0  0
  2  5  1  0  0  0  0
  5  6  2  0  0  0  0
  5  7  1  0  0  0  0
  7  8  1  0  0  0  0
  7  9  1  0  0  0  0
  9 10  1  0  0  0  0
  9 11  1  0  0  0  0
  9 29  1  0  0  0  0
 11 12  1  0  0  0  0
 11 13  1  0  0  0  0
 11 14  1  0  0  0  0
 14 15  2  0  0  0  0
 14 28  1  0  0  0  0
 15 16  1  0  0  0  0
 15 17  1  0  0  0  0
 17 18  1  0  0  0  0
 17 19  1  0  0  0  0
 19 20  1  0  0  0  0
 19 28  2  0  0  0  0
 20 21  1  0  0  0  0
 20 22  2  0  0  0  0
 22 23  1  0  0  0  0
 22 24  1  0  0  0  0
 24 25  1  0  0  0  0
 24 26  2  0  0  0  0
 26 27  1  0  0  0  0
 26 28  1  0  0  0  0
 29 30  2  0  0  0  0
 29 31  1  0  0  0  0
 31 32  1  0  0  0  0
 31 33  1  0  0  0  0
 33 34  1  0  0  0  0
 33 35  1  0  0  0  0
 33 36  1  0  0  0  0
M  END
$$$$

  -OEChem-03222214083D

 36 37  0     1  0  0  0  0  0999 V2000
   -3.4672   -4.7291    1.4198 H   0  0  0  0  0  0  0  0  0  0  0  0
   -3.4138   -3.9941    0.6122 C   0  0  0  0  0  0  0  0  0  0  0  0
   -4.3909   -3.5185    0.5012 H   0  0  0  0  0  0  0  0  0  0  0  0
   -3.1568   -4.5105   -0.3159 H   0  0  0  0  0  0  0  0  0  0  0  0
   -2.3597   -2.9496    0.9242 C   0  0  0  0  0  0  0  0  0  0  0  0
   -1.7250   -3.0131    1.9666 O   0  0  0  0  0  0  0  0  0  0  0  0
   -2.1419   -1.9155    0.0368 N   0  0  0  0  0  0  0  0  0  0  0  0
   -2.6956   -1.9166   -0.8146 H   0  0  0  0  0  0  0  0  0  0  0  0
   -0.9460   -1.0555    0.0611 C   0  0  1  0  0  0  0  0  0  0  0  0
   -0.4324   -1.1715    1.0201 H   0  0  0  0  0  0  0  0  0  0  0  0
    0.0490   -1.4371   -1.0622 C   0  0  0  0  0  0  0  0  0  0  0  0
   -0.1848   -0.8550   -1.9600 H   0  0  0  0  0  0  0  0  0  0  0  0
    1.0642   -1.1651   -0.7577 H   0  0  0  0  0  0  0  0  0  0  0  0
    0.0162   -2.8979   -1.4445 C   0  0  0  0  0  0  0  0  0  0  0  0
   -0.5503   -3.4094   -2.5876 C   0  0  0  0  0  0  0  0  0  0  0  0
   -1.0269   -2.8242   -3.3710 H   0  0  0  0  0  0  0  0  0  0  0  0
   -0.3969   -4.7933   -2.5540 N   0  0  0  0  0  0  0  0  0  0  0  0
   -0.7000   -5.4386   -3.2805 H   0  0  0  0  0  0  0  0  0  0  0  0
    0.2590   -5.1762   -1.3949 C   0  0  0  0  0  0  0  0  0  0  0  0
    0.6335   -6.4300   -0.9117 C   0  0  0  0  0  0  0  0  0  0  0  0
    0.4169   -7.3247   -1.4844 H   0  0  0  0  0  0  0  0  0  0  0  0
    1.2892   -6.5173    0.3246 C   0  0  0  0  0  0  0  0  0  0  0  0
    1.5855   -7.4861    0.7156 H   0  0  0  0  0  0  0  0  0  0  0  0
    1.5568   -5.3539    1.0624 C   0  0  0  0  0  0  0  0  0  0  0  0
    2.0527   -5.4237    2.0256 H   0  0  0  0  0  0  0  0  0  0  0  0
    1.1765   -4.0993    0.5657 C   0  0  0  0  0  0  0  0  0  0  0  0
    1.3657   -3.1993    1.1406 H   0  0  0  0  0  0  0  0  0  0  0  0
    0.5319   -4.0203   -0.6721 C   0  0  0  0  0  0  0  0  0  0  0  0
   -1.3253    0.4298   -0.0934 C   0  0  0  0  0  0  0  0  0  0  0  0
   -2.1108    0.7762   -0.9693 O   0  0  0  0  0  0  0  0  0  0  0  0
   -0.7510    1.3886    0.7212 N   0  0  0  0  0  0  0  0  0  0  0  0
   -0.1738    1.0620    1.4912 H   0  0  0  0  0  0  0  0  0  0  0  0
   -1.0936    2.8037    0.6511 C   0  0  0  0  0  0  0  0  0  0  0  0
   -2.1492    2.9548    0.9003 H   0  0  0  0  0  0  0  0  0  0  0  0
   -0.4848    3.3754    1.3581 H   0  0  0  0  0  0  0  0  0  0  0  0
   -0.9093    3.1941   -0.3554 H   0  0  0  0  0  0  0  0  0  0  0  0
  1  2  1  0  0  0  0
  2  3  1  0  0  0  0
  2  4  1  0  0  0  0
  2  5  1  0  0  0  0
  5  6  2  0  0  0  0
  5  7  1  0  0  0  0
  7  8  1  0  0  0  0
  7  9  1  0  0  0  0
  9 10  1  0  0  0  0
  9 11  1  0  0  0  0
  9 29  1  0  0  0  0
 11 12  1  0  0  0  0
 11 13  1  0  0  0  0
 11 14  1  0  0  0  0
 14 15  2  0  0  0  0
 14 28  1  0  0  0  0
 15 16  1  0  0  0  0
 15 17  1  0  0  0  0
 17 18  1  0  0  0  0
 17 19  1  0  0  0  0
 19 20  1  0  0  0  0
 19 28  2  0  0  0  0
 20 21  1  0  0  0  0
 20 22  2  0  0  0  0
 22 23  1  0  0  0  0
 22 24  1  0  0  0  0
 24 25  1  0  0  0  0
 24 26  2  0  0  0  0
 26 27  1  0  0  0  0
 26 28  1  0  0  0  0
 29 30  2  0  0  0  0
 29 31  1  0  0  0  0
 31 32  1  0  0  0  0
 31 33  1  0  0  0  0
 33 34  1  0  0  0  0
 33 35  1  0  0  0  0
 33 36  1  0  0  0  0
M  END
$$$$

  -OEChem-03222214083D

 36 37  0     1  0  0  0  0  0999 V2000
   -3.6279   -4.6351    1.4759 H   0  0  0  0  0  0  0  0  0  0  0  0
   -3.5097   -3.9468    0.6344 C   0  0  0  0  0  0  0  0  0  0  0  0
   -4.4775   -3.4926    0.4096 H   0  0  0  0  0  0  0  0  0  0  0  0
   -3.1655   -4.5120   -0.2356 H   0  0  0  0  0  0  0  0  0  0  0  0
   -2.4977   -2.8710    0.9775 C   0  0  0  0  0  0  0  0  0  0  0  0
   -1.9505   -2.8718    2.0705 O   0  0  0  0  0  0  0  0  0  0  0  0
   -2.2231   -1.8721    0.0665 N   0  0  0  0  0  0  0  0  0  0  0  0
   -2.7055   -1.9296   -0.8255 H   0  0  0  0  0  0  0  0  0  0  0  0
   -1.0055   -1.0432    0.1094 C   0  0  1  0  0  0  0  0  0  0  0  0
   -0.5222   -1.1481    1.0853 H   0  0  0  0  0  0  0  0  0  0  0  0
    0.0078   -1.4686   -0.9836 C   0  0  0  0  0  0  0  0  0  0  0  0
   -0.1754   -0.8860   -1.8928 H   0  0  0  0  0  0  0  0  0  0  0  0
    1.0175   -1.2206   -0.6421 H   0  0  0  0  0  0  0  0  0  0  0  0
   -0.0325   -2.9312   -1.3641 C   0  0  0  0  0  0  0  0  0  0  0  0
   -0.3026   -3.4034   -2.6266 C   0  0  0  0  0  0  0  0  0  0  0  0
   -0.5427   -2.7887   -3.4918 H   0  0  0  0  0  0  0  0  0  0  0  0
   -0.2076   -4.7920   -2.5919 N   0  0  0  0  0  0  0  0  0  0  0  0
   -0.3374   -5.4121   -3.3889 H   0  0  0  0  0  0  0  0  0  0  0  0
    0.1478   -5.2172   -1.3228 C   0  0  0  0  0  0  0  0  0  0  0  0
    0.3733   -6.4928   -0.8056 C   0  0  0  0  0  0  0  0  0  0  0  0
    0.2704   -7.3666   -1.4393 H   0  0  0  0  0  0  0  0  0  0  0  0
    0.7334   -6.6286    0.5422 C   0  0  0  0  0  0  0  0  0  0  0  0
    0.9073   -7.6150    0.9616 H   0  0  0  0  0  0  0  0  0  0  0  0
    0.8677   -5.4905    1.3514 C   0  0  0  0  0  0  0  0  0  0  0  0
    1.1395   -5.5952    2.3975 H   0  0  0  0  0  0  0  0  0  0  0  0
    0.6433   -4.2137    0.8178 C   0  0  0  0  0  0  0  0  0  0  0  0
    0.7344   -3.3344    1.4471 H   0  0  0  0  0  0  0  0  0  0  0  0
    0.2759   -4.0850   -0.5254 C   0  0  0  0  0  0  0  0  0  0  0  0
   -1.3374    0.4472   -0.1016 C   0  0  0  0  0  0  0  0  0  0  0  0
   -2.0784    0.7935   -1.0155 O   0  0  0  0  0  0  0  0  0  0  0  0
   -0.7632    1.4103    0.7079 N   0  0  0  0  0  0  0  0  0  0  0  0
   -0.2215    1.0878    1.5048 H   0  0  0  0  0  0  0  0  0  0  0  0
   -1.0627    2.8319    0.5922 C   0  0  0  0  0  0  0  0  0  0  0  0
   -2.1244    3.0168    0.7862 H   0  0  0  0  0  0  0  0  0  0  0  0
   -0.4732    3.4017    1.3169 H   0  0  0  0  0  0  0  0  0  0  0  0
   -0.8184    3.1949   -0.4117 H   0  0  0  0  0  0  0  0  0  0  0  0
  1  2  1  0  0  0  0
  2  3  1  0  0  0  0
  2  4  1  0  0  0  0
  2  5  1  0  0  0  0
  5  6  2  0  0  0  0
  5  7  1  0  0  0  0
  7  8  1  0  0  0  0
  7  9  1  0  0  0  0
  9 10  1  0  0  0  0
  9 11  1  0  0  0  0
  9 29  1  0  0  0  0
 11 12  1  0  0  0  0
 11 13  1  0  0  0  0
 11 14  1  0  0  0  0
 14 15  2  0  0  0  0
 14 28  1  0  0  0  0
 15 16  1  0  0  0  0
 15 17  1  0  0  0  0
 17 18  1  0  0  0  0
 17 19  1  0  0  0  0
 19 20  1  0  0  0  0
 19 28  2  0  0  0  0
 20 21  1  0  0  0  0
 20 22  2  0  0  0  0
 22 23  1  0  0  0  0
 22 24  1  0  0  0  0
 24 25  1  0  0  0  0
 24 26  2  0  0  0  0
 26 27  1  0  0  0  0
 26 28  1  0  0  0  0
 29 30  2  0  0  0  0
 29 31  1  0  0  0  0
 31 32  1  0  0  0  0
 31 33  1  0  0  0  0
 33 34  1  0  0  0  0
 33 35  1  0  0  0  0
 33 36  1  0  0  0  0
M  END
$$$$

  -OEChem-03222214083D

 36 37  0     1  0  0  0  0  0999 V2000
   -3.9484   -4.4591    1.4853 H   0  0  0  0  0  0  0  0  0  0  0  0
   -3.7328   -3.8203    0.6244 C   0  0  0  0  0  0  0  0  0  0  0  0
   -4.6595   -3.3445    0.2955 H   0  0  0  0  0  0  0  0  0  0  0  0
   -3.3404   -4.4417   -0.1847 H   0  0  0  0  0  0  0  0  0  0  0  0
   -2.7103   -2.7657    1.0006 C   0  0  0  0  0  0  0  0  0  0  0  0
   -2.2551   -2.7300    2.1346 O   0  0  0  0  0  0  0  0  0  0  0  0
   -2.3401   -1.8070    0.0815 N   0  0  0  0  0  0  0  0  0  0  0  0
   -2.7651   -1.8870   -0.8381 H   0  0  0  0  0  0  0  0  0  0  0  0
   -1.0879   -1.0324    0.1554 C   0  0  1  0  0  0  0  0  0  0  0  0
   -0.6435   -1.1382    1.1495 H   0  0  0  0  0  0  0  0  0  0  0  0
   -0.0597   -1.5121   -0.9053 C   0  0  0  0  0  0  0  0  0  0  0  0
   -0.1808   -0.9225   -1.8206 H   0  0  0  0  0  0  0  0  0  0  0  0
    0.9441   -1.3031   -0.5222 H   0  0  0  0  0  0  0  0  0  0  0  0
   -0.1223   -2.9721   -1.2993 C   0  0  0  0  0  0  0  0  0  0  0  0
   -0.0671   -3.4103   -2.6020 C   0  0  0  0  0  0  0  0  0  0  0  0
   -0.0597   -2.7698   -3.4816 H   0  0  0  0  0  0  0  0  0  0  0  0
   -0.0282   -4.8010   -2.5894 N   0  0  0  0  0  0  0  0  0  0  0  0
    0.0209   -5.3971   -3.4133 H   0  0  0  0  0  0  0  0  0  0  0  0
    0.0316   -5.2641   -1.2873 C   0  0  0  0  0  0  0  0  0  0  0  0
    0.1380   -6.5584   -0.7787 C   0  0  0  0  0  0  0  0  0  0  0  0
    0.1554   -7.4102   -1.4494 H   0  0  0  0  0  0  0  0  0  0  0  0
    0.2336   -6.7404    0.6073 C   0  0  0  0  0  0  0  0  0  0  0  0
    0.3156   -7.7413    1.0205 H   0  0  0  0  0  0  0  0  0  0  0  0
    0.2373   -5.6279    1.4610 C   0  0  0  0  0  0  0  0  0  0  0  0
    0.3195   -5.7649    2.5351 H   0  0  0  0  0  0  0  0  0  0  0  0
    0.1353   -4.3330    0.9344 C   0  0  0  0  0  0  0  0  0  0  0  0
    0.1480   -3.4756    1.5991 H   0  0  0  0  0  0  0  0  0  0  0  0
    0.0048   -4.1552   -0.4473 C   0  0  0  0  0  0  0  0  0  0  0  0
   -1.3472    0.4644   -0.1112 C   0  0  0  0  0  0  0  0  0  0  0  0
   -2.0327    0.8177   -1.0650 O   0  0  0  0  0  0  0  0  0  0  0  0
   -0.7658    1.4239    0.6974 N   0  0  0  0  0  0  0  0  0  0  0  0
   -0.2778    1.1004    1.5281 H   0  0  0  0  0  0  0  0  0  0  0  0
   -0.9980    2.8531    0.5313 C   0  0  0  0  0  0  0  0  0  0  0  0
   -2.0582    3.0877    0.6735 H   0  0  0  0  0  0  0  0  0  0  0  0
   -0.4160    3.4182    1.2658 H   0  0  0  0  0  0  0  0  0  0  0  0
   -0.6962    3.1768   -0.4704 H   0  0  0  0  0  0  0  0  0  0  0  0
  1  2  1  0  0  0  0
  2  3  1  0  0  0  0
  2  4  1  0  0  0  0
  2  5  1  0  0  0  0
  5  6  2  0  0  0  0
  5  7  1  0  0  0  0
  7  8  1  0  0  0  0
  7  9  1  0  0  0  0
  9 10  1  0  0  0  0
  9 11  1  0  0  0  0
  9 29  1  0  0  0  0
 11 12  1  0  0  0  0
 11 13  1  0  0  0  0
 11 14  1  0  0  0  0
 14 15  2  0  0  0  0
 14 28  1  0  0  0  0
 15 16  1  0  0  0  0
 15 17  1  0  0  0  0
 17 18  1  0  0  0  0
 17 19  1  0  0  0  0
 19 20  1  0  0  0  0
 19 28  2  0  0  0  0
 20 21  1  0  0  0  0
 20 22  2  0  0  0  0
 22 23  1  0  0  0  0
 22 24  1  0  0  0  0
 24 25  1  0  0  0  0
 24 26  2  0  0  0  0
 26 27  1  0  0  0  0
 26 28  1  0  0  0  0
 29 30  2  0  0  0  0
 29 31  1  0  0  0  0
 31 32  1  0  0  0  0
 31 33  1  0  0  0  0
 33 34  1  0  0  0  0
 33 35  1  0  0  0  0
 33 36  1  0  0  0  0
M  END
$$$$

  -OEChem-03222214083D

 36 37  0     1  0  0  0  0  0999 V2000
   -4.0876   -4.4265    1.5981 H   0  0  0  0  0  0  0  0  0  0  0  0
   -3.9138   -3.7627    0.7466 C   0  0  0  0  0  0  0  0  0  0  0  0
   -4.8535   -3.2726    0.4812 H   0  0  0  0  0  0  0  0  0  0  0  0
   -3.5684   -4.3616   -0.1001 H   0  0  0  0  0  0  0  0  0  0  0  0
   -2.8673   -2.7241    1.1004 C   0  0  0  0  0  0  0  0  0  0  0  0
   -2.4215   -2.6636    2.2368 O   0  0  0  0  0  0  0  0  0  0  0  0
   -2.4849   -1.7862    0.1668 N   0  0  0  0  0  0  0  0  0  0  0  0
   -2.9291   -1.8686   -0.7438 H   0  0  0  0  0  0  0  0  0  0  0  0
   -1.2202   -1.0279    0.1979 C   0  0  1  0  0  0  0  0  0  0  0  0
   -0.7504   -1.1291    1.1811 H   0  0  0  0  0  0  0  0  0  0  0  0
   -0.2262   -1.5138   -0.8978 C   0  0  0  0  0  0  0  0  0  0  0  0
   -0.3653   -0.9140   -1.8040 H   0  0  0  0  0  0  0  0  0  0  0  0
    0.7855   -1.3067   -0.5354 H   0  0  0  0  0  0  0  0  0  0  0  0
   -0.2729   -2.9666   -1.3260 C   0  0  0  0  0  0  0  0  0  0  0  0
    0.0557   -3.3569   -2.6045 C   0  0  0  0  0  0  0  0  0  0  0  0
    0.2305   -2.6810   -3.4392 H   0  0  0  0  0  0  0  0  0  0  0  0
    0.0932   -4.7458   -2.6485 N   0  0  0  0  0  0  0  0  0  0  0  0
    0.2992   -5.3049   -3.4740 H   0  0  0  0  0  0  0  0  0  0  0  0
   -0.0500   -5.2597   -1.3747 C   0  0  0  0  0  0  0  0  0  0  0  0
    0.0206   -6.5734   -0.9118 C   0  0  0  0  0  0  0  0  0  0  0  0
    0.1471   -7.3946   -1.6085 H   0  0  0  0  0  0  0  0  0  0  0  0
   -0.0484   -6.8135    0.4660 C   0  0  0  0  0  0  0  0  0  0  0  0
    0.0061   -7.8294    0.8458 H   0  0  0  0  0  0  0  0  0  0  0  0
   -0.1525   -5.7367    1.3570 C   0  0  0  0  0  0  0  0  0  0  0  0
   -0.1740   -5.9153    2.4281 H   0  0  0  0  0  0  0  0  0  0  0  0
   -0.2166   -4.4230    0.8725 C   0  0  0  0  0  0  0  0  0  0  0  0
   -0.2502   -3.5956    1.5718 H   0  0  0  0  0  0  0  0  0  0  0  0
   -0.2217   -4.1845   -0.5066 C   0  0  0  0  0  0  0  0  0  0  0  0
   -1.4754    0.4665   -0.0912 C   0  0  0  0  0  0  0  0  0  0  0  0
   -2.1865    0.8089   -1.0302 O   0  0  0  0  0  0  0  0  0  0  0  0
   -0.8675    1.4367    0.6847 N   0  0  0  0  0  0  0  0  0  0  0  0
   -0.3576    1.1255    1.5068 H   0  0  0  0  0  0  0  0  0  0  0  0
   -1.0896    2.8648    0.4948 C   0  0  0  0  0  0  0  0  0  0  0  0
   -2.1428    3.1138    0.6613 H   0  0  0  0  0  0  0  0  0  0  0  0
   -0.4813    3.4391    1.2002 H   0  0  0  0  0  0  0  0  0  0  0  0
   -0.8126    3.1647   -0.5214 H   0  0  0  0  0  0  0  0  0  0  0  0
  1  2  1  0  0  0  0
  2  3  1  0  0  0  0
  2  4  1  0  0  0  0
  2  5  1  0  0  0  0
  5  6  2  0  0  0  0
  5  7  1  0  0  0  0
  7  8  1  0  0  0  0
  7  9  1  0  0  0  0
  9 10  1  0  0  0  0
  9 11  1  0  0  0  0
  9 29  1  0  0  0  0
 11 12  1  0  0  0  0
 11 13  1  0  0  0  0
 11 14  1  0  0  0  0
 14 15  2  0  0  0  0
 14 28  1  0  0  0  0
 15 16  1  0  0  0  0
 15 17  1  0  0  0  0
 17 18  1  0  0  0  0
 17 19  1  0  0  0  0
 19 20  1  0  0  0  0
 19 28  2  0  0  0  0
 20 21  1  0  0  0  0
 20 22  2  0  0  0  0
 22 23  1  0  0  0  0
 22 24  1  0  0  0  0
 24 25  1  0  0  0  0
 24 26  2  0  0  0  0
 26 27  1  0  0  0  0
 26 28  1  0  0  0  0
 29 30  2  0  0  0  0
 29 31  1  0  0  0  0
 31 32  1  0  0  0  0
 31 33  1  0  0  0  0
 33 34  1  0  0  0  0
 33 35  1  0  0  0  0
 33 36  1  0  0  0  0
M  END
$$$$

  -OEChem-03222214083D

 36 37  0     1  0  0  0  0  0999 V2000
   -4.5281   -4.1356    1.3926 H   0  0  0  0  0  0  0  0  0  0  0  0
   -4.2421   -3.4304    0.6075 C   0  0  0  0  0  0  0  0  0  0  0  0
   -5.0993   -2.7956    0.3716 H   0  0  0  0  0  0  0  0  0  0  0  0
   -3.9570   -3.9951   -0.2840 H   0  0  0  0  0  0  0  0  0  0  0  0
   -3.0760   -2.5784    1.0701 C   0  0  0  0  0  0  0  0  0  0  0  0
   -2.6836   -2.6458    2.2255 O   0  0  0  0  0  0  0  0  0  0  0  0
   -2.5305   -1.6412    0.2230 N   0  0  0  0  0  0  0  0  0  0  0  0
   -2.9571   -1.5887   -0.6984 H   0  0  0  0  0  0  0  0  0  0  0  0
   -1.1865   -1.0427    0.3326 C   0  0  1  0  0  0  0  0  0  0  0  0
   -0.7611   -1.2621    1.3169 H   0  0  0  0  0  0  0  0  0  0  0  0
   -0.2142   -1.5471   -0.7809 C   0  0  0  0  0  0  0  0  0  0  0  0
   -0.2682   -0.8609   -1.6336 H   0  0  0  0  0  0  0  0  0  0  0  0
    0.7995   -1.4633   -0.3762 H   0  0  0  0  0  0  0  0  0  0  0  0
   -0.3488   -2.9397   -1.3719 C   0  0  0  0  0  0  0  0  0  0  0  0
    0.2880   -3.2437   -2.5556 C   0  0  0  0  0  0  0  0  0  0  0  0
    0.7554   -2.5154   -3.2149 H   0  0  0  0  0  0  0  0  0  0  0  0
    0.1708   -4.6060   -2.7984 N   0  0  0  0  0  0  0  0  0  0  0  0
    0.5248   -5.0934   -3.6191 H   0  0  0  0  0  0  0  0  0  0  0  0
   -0.3346   -5.2317   -1.6793 C   0  0  0  0  0  0  0  0  0  0  0  0
   -0.4984   -6.5899   -1.4066 C   0  0  0  0  0  0  0  0  0  0  0  0
   -0.3127   -7.3308   -2.1761 H   0  0  0  0  0  0  0  0  0  0  0  0
   -0.8665   -6.9828   -0.1151 C   0  0  0  0  0  0  0  0  0  0  0  0
   -0.9969   -8.0350    0.1198 H   0  0  0  0  0  0  0  0  0  0  0  0
   -1.0080   -6.0158    0.8881 C   0  0  0  0  0  0  0  0  0  0  0  0
   -1.2337   -6.3159    1.9074 H   0  0  0  0  0  0  0  0  0  0  0  0
   -0.8323   -4.6580    0.5880 C   0  0  0  0  0  0  0  0  0  0  0  0
   -0.8528   -3.9345    1.3911 H   0  0  0  0  0  0  0  0  0  0  0  0
   -0.5817   -4.2459   -0.7261 C   0  0  0  0  0  0  0  0  0  0  0  0
   -1.2707    0.4865    0.1299 C   0  0  0  0  0  0  0  0  0  0  0  0
   -1.9269    0.9611   -0.7916 O   0  0  0  0  0  0  0  0  0  0  0  0
   -0.5854    1.3378    0.9777 N   0  0  0  0  0  0  0  0  0  0  0  0
   -0.1365    0.9241    1.7900 H   0  0  0  0  0  0  0  0  0  0  0  0
   -0.6782    2.7900    0.8920 C   0  0  0  0  0  0  0  0  0  0  0  0
   -1.7110    3.1175    1.0506 H   0  0  0  0  0  0  0  0  0  0  0  0
   -0.0462    3.2547    1.6548 H   0  0  0  0  0  0  0  0  0  0  0  0
   -0.3448    3.1384   -0.0911 H   0  0  0  0  0  0  0  0  0  0  0  0
  1  2  1  0  0  0  0
  2  3  1  0  0  0  0
  2  4  1  0  0  0  0
  2  5  1  0  0  0  0
  5  6  2  0  0  0  0
  5  7  1  0  0  0  0
  7  8  1  0  0  0  0
  7  9  1  0  0  0  0
  9 10  1  0  0  0  0
  9 11  1  0  0  0  0
  9 29  1  0  0  0  0
 11 12  1  0  0  0  0
 11 13  1  0  0  0  0
 11 14  1  0  0  0  0
 14 15  2  0  0  0  0
 14 28  1  0  0  0  0
 15 16  1  0  0  0  0
 15 17  1  0  0  0  0
 17 18  1  0  0  0  0
 17 19  1  0  0  0  0
 19 20  1  0  0  0  0
 19 28  2  0  0  0  0
 20 21  1  0  0  0  0
 20 22  2  0  0  0  0
 22 23  1  0  0  0  0
 22 24  1  0  0  0  0
 24 25  1  0  0  0  0
 24 26  2  0  0  0  0
 26 27  1  0  0  0  0
 26 28  1  0  0  0  0
 29 30  2  0  0  0  0
 29 31  1  0  0  0  0
 31 32  1  0  0  0  0
 31 33  1  0  0  0  0
 33 34  1  0  0  0  0
 33 35  1  0  0  0  0
 33 36  1  0  0  0  0
M  END
$$$$

  -OEChem-03222214083D

 36 37  0     1  0  0  0  0  0999 V2000
   -4.1445   -4.0155    2.1056 H   0  0  0  0  0  0  0  0  0  0  0  0
   -4.1151   -2.9288    1.9922 C   0  0  0  0  0  0  0  0  0  0  0  0
   -4.4616   -2.4633    2.9182 H   0  0  0  0  0  0  0  0  0  0  0  0
   -4.7871   -2.6404    1.1804 H   0  0  0  0  0  0  0  0  0  0  0  0
   -2.6946   -2.4835    1.6958 C   0  0  0  0  0  0  0  0  0  0  0  0
   -1.8086   -2.7708    2.4842 O   0  0  0  0  0  0  0  0  0  0  0  0
   -2.4292   -1.6858    0.5977 N   0  0  0  0  0  0  0  0  0  0  0  0
   -3.2117   -1.3777    0.0229 H   0  0  0  0  0  0  0  0  0  0  0  0
   -1.1231   -1.0784    0.3317 C   0  0  1  0  0  0  0  0  0  0  0  0
   -0.5534   -1.0691    1.2662 H   0  0  0  0  0  0  0  0  0  0  0  0
   -0.1957   -1.7076   -0.7537 C   0  0  0  0  0  0  0  0  0  0  0  0
   -0.2016   -1.0242   -1.6105 H   0  0  0  0  0  0  0  0  0  0  0  0
    0.8148   -1.6638   -0.3344 H   0  0  0  0  0  0  0  0  0  0  0  0
   -0.3290   -3.0907   -1.3940 C   0  0  0  0  0  0  0  0  0  0  0  0
    0.6530   -3.3708   -2.3220 C   0  0  0  0  0  0  0  0  0  0  0  0
    1.4971   -2.7237   -2.5493 H   0  0  0  0  0  0  0  0  0  0  0  0
    0.4177   -4.6130   -2.8829 N   0  0  0  0  0  0  0  0  0  0  0  0
    1.0016   -5.0721   -3.5783 H   0  0  0  0  0  0  0  0  0  0  0  0
   -0.7690   -5.1166   -2.4028 C   0  0  0  0  0  0  0  0  0  0  0  0
   -1.3942   -6.3119   -2.7561 C   0  0  0  0  0  0  0  0  0  0  0  0
   -0.9209   -6.9939   -3.4533 H   0  0  0  0  0  0  0  0  0  0  0  0
   -2.6445   -6.6093   -2.2112 C   0  0  0  0  0  0  0  0  0  0  0  0
   -3.1505   -7.5337   -2.4736 H   0  0  0  0  0  0  0  0  0  0  0  0
   -3.2513   -5.6934   -1.3472 C   0  0  0  0  0  0  0  0  0  0  0  0
   -4.2364   -5.9048   -0.9426 H   0  0  0  0  0  0  0  0  0  0  0  0
   -2.6002   -4.4976   -1.0107 C   0  0  0  0  0  0  0  0  0  0  0  0
   -3.1352   -3.8103   -0.3867 H   0  0  0  0  0  0  0  0  0  0  0  0
   -1.3193   -4.1974   -1.5017 C   0  0  0  0  0  0  0  0  0  0  0  0
   -1.3607    0.3933   -0.0703 C   0  0  0  0  0  0  0  0  0  0  0  0
   -2.2913    0.6899   -0.8123 O   0  0  0  0  0  0  0  0  0  0  0  0
   -0.5780    1.3995    0.4660 N   0  0  0  0  0  0  0  0  0  0  0  0
    0.1243    1.1341    1.1509 H   0  0  0  0  0  0  0  0  0  0  0  0
   -0.8175    2.8154    0.2161 C   0  0  0  0  0  0  0  0  0  0  0  0
   -1.8080    3.1068    0.5813 H   0  0  0  0  0  0  0  0  0  0  0  0
   -0.0666    3.4223    0.7310 H   0  0  0  0  0  0  0  0  0  0  0  0
   -0.7593    3.0307   -0.8561 H   0  0  0  0  0  0  0  0  0  0  0  0
  1  2  1  0  0  0  0
  2  3  1  0  0  0  0
  2  4  1  0  0  0  0
  2  5  1  0  0  0  0
  5  6  2  0  0  0  0
  5  7  1  0  0  0  0
  7  8  1  0  0  0  0
  7  9  1  0  0  0  0
  9 10  1  0  0  0  0
  9 11  1  0  0  0  0
  9 29  1  0  0  0  0
 11 12  1  0  0  0  0
 11 13  1  0  0  0  0
 11 14  1  0  0  0  0
 14 15  2  0  0  0  0
 14 28  1  0  0  0  0
 15 16  1  0  0  0  0
 15 17  1  0  0  0  0
 17 18  1  0  0  0  0
 17 19  1  0  0  0  0
 19 20  1  0  0  0  0
 19 28  2  0  0  0  0
 20 21  1  0  0  0  0
 20 22  2  0  0  0  0
 22 23  1  0  0  0  0
 22 24  1  0  0  0  0
 24 25  1  0  0  0  0
 24 26  2  0  0  0  0
 26 27  1  0  0  0  0
 26 28  1  0  0  0  0
 29 30  2  0  0  0  0
 29 31  1  0  0  0  0
 31 32  1  0  0  0  0
 31 33  1  0  0  0  0
 33 34  1  0  0  0  0
 33 35  1  0  0  0  0
 33 36  1  0  0  0  0
M  END
$$$$

  -OEChem-03222214083D

 36 37  0     1  0  0  0  0  0999 V2000
   -3.9002   -3.5902    2.9304 H   0  0  0  0  0  0  0  0  0  0  0  0
   -3.8545   -3.2075    1.9072 C   0  0  0  0  0  0  0  0  0  0  0  0
   -4.0242   -4.0354    1.2152 H   0  0  0  0  0  0  0  0  0  0  0  0
   -4.6430   -2.4626    1.7764 H   0  0  0  0  0  0  0  0  0  0  0  0
   -2.4953   -2.5846    1.6451 C   0  0  0  0  0  0  0  0  0  0  0  0
   -1.5799   -2.7857    2.4282 O   0  0  0  0  0  0  0  0  0  0  0  0
   -2.3177   -1.7430    0.5643 N   0  0  0  0  0  0  0  0  0  0  0  0
   -3.1348   -1.4988    0.0097 H   0  0  0  0  0  0  0  0  0  0  0  0
   -1.0671   -1.0523    0.2476 C   0  0  1  0  0  0  0  0  0  0  0  0
   -0.4592   -1.0275    1.1572 H   0  0  0  0  0  0  0  0  0  0  0  0
   -0.1722   -1.6781   -0.8602 C   0  0  0  0  0  0  0  0  0  0  0  0
   -0.2763   -1.0478   -1.7501 H   0  0  0  0  0  0  0  0  0  0  0  0
    0.8653   -1.5743   -0.5259 H   0  0  0  0  0  0  0  0  0  0  0  0
   -0.3570   -3.1020   -1.3807 C   0  0  0  0  0  0  0  0  0  0  0  0
    0.6930   -3.6290   -2.1023 C   0  0  0  0  0  0  0  0  0  0  0  0
    1.6687   -3.1614   -2.2126 H   0  0  0  0  0  0  0  0  0  0  0  0
    0.3264   -4.8642   -2.6109 N   0  0  0  0  0  0  0  0  0  0  0  0
    0.9250   -5.4855   -3.1504 H   0  0  0  0  0  0  0  0  0  0  0  0
   -1.0113   -5.0823   -2.3712 C   0  0  0  0  0  0  0  0  0  0  0  0
   -1.8040   -6.1483   -2.7947 C   0  0  0  0  0  0  0  0  0  0  0  0
   -1.3612   -6.9851   -3.3231 H   0  0  0  0  0  0  0  0  0  0  0  0
   -3.1792   -6.1086   -2.5530 C   0  0  0  0  0  0  0  0  0  0  0  0
   -3.8156   -6.9264   -2.8777 H   0  0  0  0  0  0  0  0  0  0  0  0
   -3.7359   -4.9881   -1.9288 C   0  0  0  0  0  0  0  0  0  0  0  0
   -4.8103   -4.9321   -1.7824 H   0  0  0  0  0  0  0  0  0  0  0  0
   -2.9173   -3.9277   -1.5142 C   0  0  0  0  0  0  0  0  0  0  0  0
   -3.4060   -3.0579   -1.1073 H   0  0  0  0  0  0  0  0  0  0  0  0
   -1.5203   -3.9840   -1.6721 C   0  0  0  0  0  0  0  0  0  0  0  0
   -1.3722    0.4158   -0.1109 C   0  0  0  0  0  0  0  0  0  0  0  0
   -2.3396    0.6872   -0.8138 O   0  0  0  0  0  0  0  0  0  0  0  0
   -0.6036    1.4411    0.4095 N   0  0  0  0  0  0  0  0  0  0  0  0
    0.1335    1.1909    1.0629 H   0  0  0  0  0  0  0  0  0  0  0  0
   -0.8967    2.8514    0.1843 C   0  0  0  0  0  0  0  0  0  0  0  0
   -1.8694    3.1137    0.6134 H   0  0  0  0  0  0  0  0  0  0  0  0
   -0.1306    3.4765    0.6533 H   0  0  0  0  0  0  0  0  0  0  0  0
   -0.9132    3.0738   -0.8880 H   0  0  0  0  0  0  0  0  0  0  0  0
  1  2  1  0  0  0  0
  2  3  1  0  0  0  0
  2  4  1  0  0  0  0
  2  5  1  0  0  0  0
  5  6  2  0  0  0  0
  5  7  1  0  0  0  0
  7  8  1  0  0  0  0
  7  9  1  0  0  0  0
  9 10  1  0  0  0  0
  9 11  1  0  0  0  0
  9 29  1  0  0  0  0
 11 12  1  0  0  0  0
 11 13  1  0  0  0  0
 11 14  1  0  0  0  0
 14 15  2  0  0  0  0
 14 28  1  0  0  0  0
 15 16  1  0  0  0  0
 15 17  1  0  0  0  0
 17 18  1  0  0  0  0
 17 19  1  0  0  0  0
 19 20  1  0  0  0  0
 19 28  2  0  0  0  0
 20 21  1  0  0  0  0
 20 22  2  0  0  0  0
 22 23  1  0  0  0  0
 22 24  1  0  0  0  0
 24 25  1  0  0  0  0
 24 26  2  0  0  0  0
 26 27  1  0  0  0  0
 26 28  1  0  0  0  0
 29 30  2  0  0  0  0
 29 31  1  0  0  0  0
 31 32  1  0  0  0  0
 31 33  1  0  0  0  0
 33 34  1  0  0  0  0
 33 35  1  0  0  0  0
 33 36  1  0  0  0  0
M  END
$$$$

  -OEChem-03222214083D

 36 37  0     1  0  0  0  0  0999 V2000
   -3.5617   -4.2253    2.6063 H   0  0  0  0  0  0  0  0  0  0  0  0
   -3.6034   -3.6245    1.6936 C   0  0  0  0  0  0  0  0  0  0  0  0
   -4.4763   -2.9694    1.7418 H   0  0  0  0  0  0  0  0  0  0  0  0
   -3.7042   -4.2937    0.8352 H   0  0  0  0  0  0  0  0  0  0  0  0
   -2.3397   -2.7973    1.5542 C   0  0  0  0  0  0  0  0  0  0  0  0
   -1.4336   -2.9259    2.3634 O   0  0  0  0  0  0  0  0  0  0  0  0
   -2.2323   -1.8884    0.5230 N   0  0  0  0  0  0  0  0  0  0  0  0
   -3.0381   -1.7698   -0.0827 H   0  0  0  0  0  0  0  0  0  0  0  0
   -1.0364   -1.0913    0.2269 C   0  0  1  0  0  0  0  0  0  0  0  0
   -0.4100   -1.0779    1.1239 H   0  0  0  0  0  0  0  0  0  0  0  0
   -0.1440   -1.6258   -0.9300 C   0  0  0  0  0  0  0  0  0  0  0  0
   -0.3069   -0.9868   -1.8046 H   0  0  0  0  0  0  0  0  0  0  0  0
    0.9036   -1.5019   -0.6390 H   0  0  0  0  0  0  0  0  0  0  0  0
   -0.3567   -3.0480   -1.4209 C   0  0  0  0  0  0  0  0  0  0  0  0
    0.6862   -3.7900   -1.9281 C   0  0  0  0  0  0  0  0  0  0  0  0
    1.7357   -3.5105   -1.8711 H   0  0  0  0  0  0  0  0  0  0  0  0
    0.1797   -4.9652   -2.4690 N   0  0  0  0  0  0  0  0  0  0  0  0
    0.7335   -5.7137   -2.8797 H   0  0  0  0  0  0  0  0  0  0  0  0
   -1.1987   -4.9128   -2.4911 C   0  0  0  0  0  0  0  0  0  0  0  0
   -2.1232   -5.8033   -3.0362 C   0  0  0  0  0  0  0  0  0  0  0  0
   -1.7928   -6.7459   -3.4583 H   0  0  0  0  0  0  0  0  0  0  0  0
   -3.4769   -5.4490   -3.0594 C   0  0  0  0  0  0  0  0  0  0  0  0
   -4.2104   -6.1281   -3.4840 H   0  0  0  0  0  0  0  0  0  0  0  0
   -3.8758   -4.1958   -2.5775 C   0  0  0  0  0  0  0  0  0  0  0  0
   -4.9177   -3.8975   -2.6436 H   0  0  0  0  0  0  0  0  0  0  0  0
   -2.9306   -3.3147   -2.0341 C   0  0  0  0  0  0  0  0  0  0  0  0
   -3.2492   -2.3235   -1.7367 H   0  0  0  0  0  0  0  0  0  0  0  0
   -1.5845   -3.7005   -1.9230 C   0  0  0  0  0  0  0  0  0  0  0  0
   -1.4342    0.3709   -0.0513 C   0  0  0  0  0  0  0  0  0  0  0  0
   -2.4067    0.6156   -0.7572 O   0  0  0  0  0  0  0  0  0  0  0  0
   -0.7235    1.4146    0.5131 N   0  0  0  0  0  0  0  0  0  0  0  0
    0.0220    1.1787    1.1621 H   0  0  0  0  0  0  0  0  0  0  0  0
   -1.0836    2.8157    0.3336 C   0  0  0  0  0  0  0  0  0  0  0  0
   -2.0628    3.0196    0.7792 H   0  0  0  0  0  0  0  0  0  0  0  0
   -0.3422    3.4608    0.8147 H   0  0  0  0  0  0  0  0  0  0  0  0
   -1.1208    3.0695   -0.7312 H   0  0  0  0  0  0  0  0  0  0  0  0
  1  2  1  0  0  0  0
  2  3  1  0  0  0  0
  2  4  1  0  0  0  0
  2  5  1  0  0  0  0
  5  6  2  0  0  0  0
  5  7  1  0  0  0  0
  7  8  1  0  0  0  0
  7  9  1  0  0  0  0
  9 10  1  0  0  0  0
  9 11  1  0  0  0  0
  9 29  1  0  0  0  0
 11 12  1  0  0  0  0
 11 13  1  0  0  0  0
 11 14  1  0  0  0  0
 14 15  2  0  0  0  0
 14 28  1  0  0  0  0
 15 16  1  0  0  0  0
 15 17  1  0  0  0  0
 17 18  1  0  0  0  0
 17 19  1  0  0  0  0
 19 20  1  0  0  0  0
 19 28  2  0  0  0  0
 20 21  1  0  0  0  0
 20 22  2  0  0  0  0
 22 23  1  0  0  0  0
 22 24  1  0  0  0  0
 24 25  1  0  0  0  0
 24 26  2  0  0  0  0
 26 27  1  0  0  0  0
 26 28  1  0  0  0  0
 29 30  2  0  0  0  0
 29 31  1  0  0  0  0
 31 32  1  0  0  0  0
 31 33  1  0  0  0  0
 33 34  1  0  0  0  0
 33 35  1  0  0  0  0
 33 36  1  0  0  0  0
M  END
$$$$

  -OEChem-03222214083D

 36 37  0     1  0  0  0  0  0999 V2000
   -3.5144   -4.5090    2.2136 H   0  0  0  0  0  0  0  0  0  0  0  0
   -3.5355   -3.8512    1.3405 C   0  0  0  0  0  0  0  0  0  0  0  0
   -4.4809   -3.3037    1.3335 H   0  0  0  0  0  0  0  0  0  0  0  0
   -3.4684   -4.4618    0.4361 H   0  0  0  0  0  0  0  0  0  0  0  0
   -2.3728   -2.8789    1.3912 C   0  0  0  0  0  0  0  0  0  0  0  0
   -1.5659   -2.9377    2.3067 O   0  0  0  0  0  0  0  0  0  0  0  0
   -2.2375   -1.9334    0.3974 N   0  0  0  0  0  0  0  0  0  0  0  0
   -2.9025   -1.9833   -0.3679 H   0  0  0  0  0  0  0  0  0  0  0  0
   -1.0406   -1.1017    0.1979 C   0  0  1  0  0  0  0  0  0  0  0  0
   -0.4465   -1.1190    1.1167 H   0  0  0  0  0  0  0  0  0  0  0  0
   -0.1171   -1.5883   -0.9556 C   0  0  0  0  0  0  0  0  0  0  0  0
   -0.2404   -0.9204   -1.8151 H   0  0  0  0  0  0  0  0  0  0  0  0
    0.9242   -1.4995   -0.6299 H   0  0  0  0  0  0  0  0  0  0  0  0
   -0.3673   -2.9920   -1.4663 C   0  0  0  0  0  0  0  0  0  0  0  0
    0.6191   -3.9181   -1.7102 C   0  0  0  0  0  0  0  0  0  0  0  0
    1.6676   -3.8031   -1.4450 H   0  0  0  0  0  0  0  0  0  0  0  0
    0.0350   -5.0260   -2.3177 N   0  0  0  0  0  0  0  0  0  0  0  0
    0.5250   -5.8765   -2.5871 H   0  0  0  0  0  0  0  0  0  0  0  0
   -1.2936   -4.7683   -2.6016 C   0  0  0  0  0  0  0  0  0  0  0  0
   -2.2548   -5.5274   -3.2683 C   0  0  0  0  0  0  0  0  0  0  0  0
   -2.0193   -6.5292   -3.6105 H   0  0  0  0  0  0  0  0  0  0  0  0
   -3.5172   -4.9694   -3.5100 C   0  0  0  0  0  0  0  0  0  0  0  0
   -4.2747   -5.5467   -4.0318 H   0  0  0  0  0  0  0  0  0  0  0  0
   -3.7902   -3.6533   -3.1098 C   0  0  0  0  0  0  0  0  0  0  0  0
   -4.7552   -3.2077   -3.3329 H   0  0  0  0  0  0  0  0  0  0  0  0
   -2.8141   -2.9027   -2.4403 C   0  0  0  0  0  0  0  0  0  0  0  0
   -3.0142   -1.8680   -2.1779 H   0  0  0  0  0  0  0  0  0  0  0  0
   -1.5742   -3.4865   -2.1415 C   0  0  0  0  0  0  0  0  0  0  0  0
   -1.4418    0.3652   -0.0501 C   0  0  0  0  0  0  0  0  0  0  0  0
   -2.3393    0.6300   -0.8431 O   0  0  0  0  0  0  0  0  0  0  0  0
   -0.7777    1.3937    0.5931 N   0  0  0  0  0  0  0  0  0  0  0  0
   -0.0896    1.1405    1.2967 H   0  0  0  0  0  0  0  0  0  0  0  0
   -1.1215    2.7992    0.4163 C   0  0  0  0  0  0  0  0  0  0  0  0
   -2.1425    2.9906    0.7624 H   0  0  0  0  0  0  0  0  0  0  0  0
   -0.4362    3.4307    0.9898 H   0  0  0  0  0  0  0  0  0  0  0  0
   -1.0485    3.0817   -0.6392 H   0  0  0  0  0  0  0  0  0  0  0  0
  1  2  1  0  0  0  0
  2  3  1  0  0  0  0
  2  4  1  0  0  0  0
  2  5  1  0  0  0  0
  5  6  2  0  0  0  0
  5  7  1  0  0  0  0
  7  8  1  0  0  0  0
  7  9  1  0  0  0  0
  9 10  1  0  0  0  0
  9 11  1  0  0  0  0
  9 29  1  0  0  0  0
 11 12  1  0  0  0  0
 11 13  1  0  0  0  0
 11 14  1  0  0  0  0
 14 15  2  0  0  0  0
 14 28  1  0  0  0  0
 15 16  1  0  0  0  0
 15 17  1  0  0  0  0
 17 18  1  0  0  0  0
 17 19  1  0  0  0  0
 19 20  1  0  0  0  0
 19 28  2  0  0  0  0
 20 21  1  0  0  0  0
 20 22  2  0  0  0  0
 22 23  1  0  0  0  0
 22 24  1  0  0  0  0
 24 25  1  0  0  0  0
 24 26  2  0  0  0  0
 26 27  1  0  0  0  0
 26 28  1  0  0  0  0
 29 30  2  0  0  0  0
 29 31  1  0  0  0  0
 31 32  1  0  0  0  0
 31 33  1  0  0  0  0
 33 34  1  0  0  0  0
 33 35  1  0  0  0  0
 33 36  1  0  0  0  0
M  END
$$$$

  -OEChem-03222214083D

 36 37  0     1  0  0  0  0  0999 V2000
   -3.5257   -4.6441    1.8291 H   0  0  0  0  0  0  0  0  0  0  0  0
   -3.5442   -3.9169    1.0128 C   0  0  0  0  0  0  0  0  0  0  0  0
   -4.5116   -3.4091    1.0128 H   0  0  0  0  0  0  0  0  0  0  0  0
   -3.4185   -4.4475    0.0651 H   0  0  0  0  0  0  0  0  0  0  0  0
   -2.4281   -2.9047    1.1870 C   0  0  0  0  0  0  0  0  0  0  0  0
   -1.6896   -2.9673    2.1587 O   0  0  0  0  0  0  0  0  0  0  0  0
   -2.2469   -1.9282    0.2315 N   0  0  0  0  0  0  0  0  0  0  0  0
   -2.8253   -2.0058   -0.6006 H   0  0  0  0  0  0  0  0  0  0  0  0
   -1.0435   -1.0858    0.1276 C   0  0  1  0  0  0  0  0  0  0  0  0
   -0.4941   -1.1359    1.0724 H   0  0  0  0  0  0  0  0  0  0  0  0
   -0.0777   -1.5504   -0.9978 C   0  0  0  0  0  0  0  0  0  0  0  0
   -0.1462   -0.8618   -1.8472 H   0  0  0  0  0  0  0  0  0  0  0  0
    0.9487   -1.4938   -0.6225 H   0  0  0  0  0  0  0  0  0  0  0  0
   -0.3430   -2.9401   -1.5329 C   0  0  0  0  0  0  0  0  0  0  0  0
    0.5343   -3.9967   -1.5040 C   0  0  0  0  0  0  0  0  0  0  0  0
    1.5096   -3.9933   -1.0221 H   0  0  0  0  0  0  0  0  0  0  0  0
   -0.0612   -5.0623   -2.1761 N   0  0  0  0  0  0  0  0  0  0  0  0
    0.3536   -5.9835   -2.3014 H   0  0  0  0  0  0  0  0  0  0  0  0
   -1.2836   -4.6784   -2.7024 C   0  0  0  0  0  0  0  0  0  0  0  0
   -2.2204   -5.3661   -3.4734 C   0  0  0  0  0  0  0  0  0  0  0  0
   -2.0531   -6.4044   -3.7377 H   0  0  0  0  0  0  0  0  0  0  0  0
   -3.3705   -4.6945   -3.9116 C   0  0  0  0  0  0  0  0  0  0  0  0
   -4.1054   -5.2169   -4.5168 H   0  0  0  0  0  0  0  0  0  0  0  0
   -3.5629   -3.3432   -3.5868 C   0  0  0  0  0  0  0  0  0  0  0  0
   -4.4450   -2.8203   -3.9447 H   0  0  0  0  0  0  0  0  0  0  0  0
   -2.6140   -2.6613   -2.8125 C   0  0  0  0  0  0  0  0  0  0  0  0
   -2.7494   -1.6079   -2.5813 H   0  0  0  0  0  0  0  0  0  0  0  0
   -1.4836   -3.3487   -2.3518 C   0  0  0  0  0  0  0  0  0  0  0  0
   -1.4227    0.3908   -0.0954 C   0  0  0  0  0  0  0  0  0  0  0  0
   -2.2626    0.6904   -0.9373 O   0  0  0  0  0  0  0  0  0  0  0  0
   -0.7914    1.3920    0.6203 N   0  0  0  0  0  0  0  0  0  0  0  0
   -0.1554    1.1095    1.3606 H   0  0  0  0  0  0  0  0  0  0  0  0
   -1.1194    2.8047    0.4760 C   0  0  0  0  0  0  0  0  0  0  0  0
   -2.1650    2.9851    0.7470 H   0  0  0  0  0  0  0  0  0  0  0  0
   -0.4827    3.4087    1.1295 H   0  0  0  0  0  0  0  0  0  0  0  0
   -0.9612    3.1316   -0.5571 H   0  0  0  0  0  0  0  0  0  0  0  0
  1  2  1  0  0  0  0
  2  3  1  0  0  0  0
  2  4  1  0  0  0  0
  2  5  1  0  0  0  0
  5  6  2  0  0  0  0
  5  7  1  0  0  0  0
  7  8  1  0  0  0  0
  7  9  1  0  0  0  0
  9 10  1  0  0  0  0
  9 11  1  0  0  0  0
  9 29  1  0  0  0  0
 11 12  1  0  0  0  0
 11 13  1  0  0  0  0
 11 14  1  0  0  0  0
 14 15  2  0  0  0  0
 14 28  1  0  0  0  0
 15 16  1  0  0  0  0
 15 17  1  0  0  0  0
 17 18  1  0  0  0  0
 17 19  1  0  0  0  0
 19 20  1  0  0  0  0
 19 28  2  0  0  0  0
 20 21  1  0  0  0  0
 20 22  2  0  0  0  0
 22 23  1  0  0  0  0
 22 24  1  0  0  0  0
 24 25  1  0  0  0  0
 24 26  2  0  0  0  0
 26 27  1  0  0  0  0
 26 28  1  0  0  0  0
 29 30  2  0  0  0  0
 29 31  1  0  0  0  0
 31 32  1  0  0  0  0
 31 33  1  0  0  0  0
 33 34  1  0  0  0  0
 33 35  1  0  0  0  0
 33 36  1  0  0  0  0
M  END
$$$$

  -OEChem-03222214083D

 36 37  0     1  0  0  0  0  0999 V2000
   -3.5686   -4.7022    1.5198 H   0  0  0  0  0  0  0  0  0  0  0  0
   -3.5670   -3.9340    0.7419 C   0  0  0  0  0  0  0  0  0  0  0  0
   -4.5351   -3.4276    0.7420 H   0  0  0  0  0  0  0  0  0  0  0  0
   -3.4141   -4.4154   -0.2277 H   0  0  0  0  0  0  0  0  0  0  0  0
   -2.4584   -2.9312    0.9980 C   0  0  0  0  0  0  0  0  0  0  0  0
   -1.7615   -3.0291    1.9973 O   0  0  0  0  0  0  0  0  0  0  0  0
   -2.2282   -1.9304    0.0794 N   0  0  0  0  0  0  0  0  0  0  0  0
   -2.7619   -1.9839   -0.7850 H   0  0  0  0  0  0  0  0  0  0  0  0
   -1.0248   -1.0803    0.0627 C   0  0  1  0  0  0  0  0  0  0  0  0
   -0.5242   -1.1535    1.0329 H   0  0  0  0  0  0  0  0  0  0  0  0
   -0.0086   -1.5232   -1.0239 C   0  0  0  0  0  0  0  0  0  0  0  0
   -0.0210   -0.8180   -1.8621 H   0  0  0  0  0  0  0  0  0  0  0  0
    0.9968   -1.4920   -0.5931 H   0  0  0  0  0  0  0  0  0  0  0  0
   -0.2707   -2.9020   -1.5818 C   0  0  0  0  0  0  0  0  0  0  0  0
    0.4325   -4.0478   -1.3030 C   0  0  0  0  0  0  0  0  0  0  0  0
    1.2772   -4.1216   -0.6212 H   0  0  0  0  0  0  0  0  0  0  0  0
   -0.1522   -5.0850   -2.0282 N   0  0  0  0  0  0  0  0  0  0  0  0
    0.1534   -6.0558   -2.0133 H   0  0  0  0  0  0  0  0  0  0  0  0
   -1.2127   -4.6112   -2.7847 C   0  0  0  0  0  0  0  0  0  0  0  0
   -2.0962   -5.2461   -3.6574 C   0  0  0  0  0  0  0  0  0  0  0  0
   -2.0130   -6.3119   -3.8386 H   0  0  0  0  0  0  0  0  0  0  0  0
   -3.0878   -4.4885   -4.2974 C   0  0  0  0  0  0  0  0  0  0  0  0
   -3.7803   -4.9696   -4.9817 H   0  0  0  0  0  0  0  0  0  0  0  0
   -3.1827   -3.1080   -4.0614 C   0  0  0  0  0  0  0  0  0  0  0  0
   -3.9472   -2.5224   -4.5636 H   0  0  0  0  0  0  0  0  0  0  0  0
   -2.2895   -2.4788   -3.1833 C   0  0  0  0  0  0  0  0  0  0  0  0
   -2.3542   -1.4088   -3.0021 H   0  0  0  0  0  0  0  0  0  0  0  0
   -1.3098   -3.2467   -2.5443 C   0  0  0  0  0  0  0  0  0  0  0  0
   -1.3952    0.4005   -0.1445 C   0  0  0  0  0  0  0  0  0  0  0  0
   -2.1809    0.7207   -1.0301 O   0  0  0  0  0  0  0  0  0  0  0  0
   -0.8069    1.3836    0.6303 N   0  0  0  0  0  0  0  0  0  0  0  0
   -0.2167    1.0824    1.4006 H   0  0  0  0  0  0  0  0  0  0  0  0
   -1.1314    2.7990    0.5045 C   0  0  0  0  0  0  0  0  0  0  0  0
   -2.1924    2.9693    0.7155 H   0  0  0  0  0  0  0  0  0  0  0  0
   -0.5388    3.3865    1.2123 H   0  0  0  0  0  0  0  0  0  0  0  0
   -0.9122    3.1547   -0.5078 H   0  0  0  0  0  0  0  0  0  0  0  0
  1  2  1  0  0  0  0
  2  3  1  0  0  0  0
  2  4  1  0  0  0  0
  2  5  1  0  0  0  0
  5  6  2  0  0  0  0
  5  7  1  0  0  0  0
  7  8  1  0  0  0  0
  7  9  1  0  0  0  0
  9 10  1  0  0  0  0
  9 11  1  0  0  0  0
  9 29  1  0  0  0  0
 11 12  1  0  0  0  0
 11 13  1  0  0  0  0
 11 14  1  0  0  0  0
 14 15  2  0  0  0  0
 14 28  1  0  0  0  0
 15 16  1  0  0  0  0
 15 17  1  0  0  0  0
 17 18  1  0  0  0  0
 17 19  1  0  0  0  0
 19 20  1  0  0  0  0
 19 28  2  0  0  0  0
 20 21  1  0  0  0  0
 20 22  2  0  0  0  0
 22 23  1  0  0  0  0
 22 24  1  0  0  0  0
 24 25  1  0  0  0  0
 24 26  2  0  0  0  0
 26 27  1  0  0  0  0
 26 28  1  0  0  0  0
 29 30  2  0  0  0  0
 29 31  1  0  0  0  0
 31 32  1  0  0  0  0
 31 33  1  0  0  0  0
 33 34  1  0  0  0  0
 33 35  1  0  0  0  0
 33 36  1  0  0  0  0
M  END
$$$$

  -OEChem-03222214083D

 36 37  0     1  0  0  0  0  0999 V2000
   -3.6487   -4.6813    1.3868 H   0  0  0  0  0  0  0  0  0  0  0  0
   -3.6005   -3.9187    0.6049 C   0  0  0  0  0  0  0  0  0  0  0  0
   -4.5524   -3.3834    0.5738 H   0  0  0  0  0  0  0  0  0  0  0  0
   -3.4341   -4.4099   -0.3575 H   0  0  0  0  0  0  0  0  0  0  0  0
   -2.4696   -2.9490    0.8890 C   0  0  0  0  0  0  0  0  0  0  0  0
   -1.7767   -3.0922    1.8858 O   0  0  0  0  0  0  0  0  0  0  0  0
   -2.2063   -1.9340   -0.0051 N   0  0  0  0  0  0  0  0  0  0  0  0
   -2.7385   -1.9419   -0.8724 H   0  0  0  0  0  0  0  0  0  0  0  0
   -1.0053   -1.0801    0.0301 C   0  0  1  0  0  0  0  0  0  0  0  0
   -0.5382   -1.1644    1.0160 H   0  0  0  0  0  0  0  0  0  0  0  0
    0.0431   -1.5118   -1.0275 C   0  0  0  0  0  0  0  0  0  0  0  0
    0.0674   -0.7970   -1.8568 H   0  0  0  0  0  0  0  0  0  0  0  0
    1.0331   -1.4931   -0.5616 H   0  0  0  0  0  0  0  0  0  0  0  0
   -0.2100   -2.8857   -1.5996 C   0  0  0  0  0  0  0  0  0  0  0  0
    0.2728   -4.0764   -1.1152 C   0  0  0  0  0  0  0  0  0  0  0  0
    0.9312   -4.1879   -0.2563 H   0  0  0  0  0  0  0  0  0  0  0  0
   -0.2621   -5.0957   -1.9015 N   0  0  0  0  0  0  0  0  0  0  0  0
   -0.0804   -6.0893   -1.7757 H   0  0  0  0  0  0  0  0  0  0  0  0
   -1.0968   -4.5698   -2.8758 C   0  0  0  0  0  0  0  0  0  0  0  0
   -1.8679   -5.1696   -3.8718 C   0  0  0  0  0  0  0  0  0  0  0  0
   -1.8691   -6.2477   -3.9872 H   0  0  0  0  0  0  0  0  0  0  0  0
   -2.6406   -4.3612   -4.7186 C   0  0  0  0  0  0  0  0  0  0  0  0
   -3.2445   -4.8145   -5.4990 H   0  0  0  0  0  0  0  0  0  0  0  0
   -2.6356   -2.9665   -4.5593 C   0  0  0  0  0  0  0  0  0  0  0  0
   -3.2344   -2.3423   -5.2160 H   0  0  0  0  0  0  0  0  0  0  0  0
   -1.8579   -2.3733   -3.5551 C   0  0  0  0  0  0  0  0  0  0  0  0
   -1.8524   -1.2946   -3.4240 H   0  0  0  0  0  0  0  0  0  0  0  0
   -1.0881   -3.1893   -2.7202 C   0  0  0  0  0  0  0  0  0  0  0  0
   -1.3700    0.4030   -0.1703 C   0  0  0  0  0  0  0  0  0  0  0  0
   -2.1288    0.7336   -1.0751 O   0  0  0  0  0  0  0  0  0  0  0  0
   -0.8104    1.3775    0.6359 N   0  0  0  0  0  0  0  0  0  0  0  0
   -0.2372    1.0691    1.4161 H   0  0  0  0  0  0  0  0  0  0  0  0
   -1.1253    2.7949    0.5091 C   0  0  0  0  0  0  0  0  0  0  0  0
   -2.1884    2.9701    0.7047 H   0  0  0  0  0  0  0  0  0  0  0  0
   -0.5395    3.3776    1.2267 H   0  0  0  0  0  0  0  0  0  0  0  0
   -0.8890    3.1515   -0.4991 H   0  0  0  0  0  0  0  0  0  0  0  0
  1  2  1  0  0  0  0
  2  3  1  0  0  0  0
  2  4  1  0  0  0  0
  2  5  1  0  0  0  0
  5  6  2  0  0  0  0
  5  7  1  0  0  0  0
  7  8  1  0  0  0  0
  7  9  1  0  0  0  0
  9 10  1  0  0  0  0
  9 11  1  0  0  0  0
  9 29  1  0  0  0  0
 11 12  1  0  0  0  0
 11 13  1  0  0  0  0
 11 14  1  0  0  0  0
 14 15  2  0  0  0  0
 14 28  1  0  0  0  0
 15 16  1  0  0  0  0
 15 17  1  0  0  0  0
 17 18  1  0  0  0  0
 17 19  1  0  0  0  0
 19 20  1  0  0  0  0
 19 28  2  0  0  0  0
 20 21  1  0  0  0  0
 20 22  2  0  0  0  0
 22 23  1  0  0  0  0
 22 24  1  0  0  0  0
 24 25  1  0  0  0  0
 24 26  2  0  0  0  0
 26 27  1  0  0  0  0
 26 28  1  0  0  0  0
 29 30  2  0  0  0  0
 29 31  1  0  0  0  0
 31 32  1  0  0  0  0
 31 33  1  0  0  0  0
 33 34  1  0  0  0  0
 33 35  1  0  0  0  0
 33 36  1  0  0  0  0
M  END
$$$$

  -OEChem-03222214083D

 36 37  0     1  0  0  0  0  0999 V2000
   -3.7123   -4.6329    1.4134 H   0  0  0  0  0  0  0  0  0  0  0  0
   -3.6727   -3.8480    0.6533 C   0  0  0  0  0  0  0  0  0  0  0  0
   -4.5953   -3.2647    0.6984 H   0  0  0  0  0  0  0  0  0  0  0  0
   -3.5915   -4.3145   -0.3318 H   0  0  0  0  0  0  0  0  0  0  0  0
   -2.4782   -2.9454    0.8930 C   0  0  0  0  0  0  0  0  0  0  0  0
   -1.7342   -3.1518    1.8407 O   0  0  0  0  0  0  0  0  0  0  0  0
   -2.2120   -1.9237    0.0077 N   0  0  0  0  0  0  0  0  0  0  0  0
   -2.8094   -1.8541   -0.8133 H   0  0  0  0  0  0  0  0  0  0  0  0
   -1.0051   -1.0787    0.0289 C   0  0  1  0  0  0  0  0  0  0  0  0
   -0.5283   -1.1730    1.0092 H   0  0  0  0  0  0  0  0  0  0  0  0
    0.0318   -1.5118   -1.0385 C   0  0  0  0  0  0  0  0  0  0  0  0
    0.0476   -0.7900   -1.8616 H   0  0  0  0  0  0  0  0  0  0  0  0
    1.0273   -1.4954   -0.5844 H   0  0  0  0  0  0  0  0  0  0  0  0
   -0.2176   -2.8836   -1.6200 C   0  0  0  0  0  0  0  0  0  0  0  0
    0.0288   -4.0814   -0.9928 C   0  0  0  0  0  0  0  0  0  0  0  0
    0.4574   -4.1953    0.0015 H   0  0  0  0  0  0  0  0  0  0  0  0
   -0.3973   -5.0984   -1.8445 N   0  0  0  0  0  0  0  0  0  0  0  0
   -0.3355   -6.0946   -1.6447 H   0  0  0  0  0  0  0  0  0  0  0  0
   -0.9322   -4.5634   -3.0060 C   0  0  0  0  0  0  0  0  0  0  0  0
   -1.4930   -5.1621   -4.1345 C   0  0  0  0  0  0  0  0  0  0  0  0
   -1.5539   -6.2422   -4.2080 H   0  0  0  0  0  0  0  0  0  0  0  0
   -1.9766   -4.3498   -5.1702 C   0  0  0  0  0  0  0  0  0  0  0  0
   -2.4153   -4.8016   -6.0550 H   0  0  0  0  0  0  0  0  0  0  0  0
   -1.8982   -2.9525   -5.0640 C   0  0  0  0  0  0  0  0  0  0  0  0
   -2.2768   -2.3254   -5.8658 H   0  0  0  0  0  0  0  0  0  0  0  0
   -1.3319   -2.3612   -3.9255 C   0  0  0  0  0  0  0  0  0  0  0  0
   -1.2736   -1.2805   -3.8383 H   0  0  0  0  0  0  0  0  0  0  0  0
   -0.8439   -3.1797   -2.9016 C   0  0  0  0  0  0  0  0  0  0  0  0
   -1.3617    0.4087   -0.1545 C   0  0  0  0  0  0  0  0  0  0  0  0
   -2.1492    0.7492   -1.0300 O   0  0  0  0  0  0  0  0  0  0  0  0
   -0.7820    1.3745    0.6483 N   0  0  0  0  0  0  0  0  0  0  0  0
   -0.1820    1.0594    1.4053 H   0  0  0  0  0  0  0  0  0  0  0  0
   -1.0935    2.7944    0.5405 C   0  0  0  0  0  0  0  0  0  0  0  0
   -2.1560    2.9698    0.7388 H   0  0  0  0  0  0  0  0  0  0  0  0
   -0.5068    3.3664    1.2658 H   0  0  0  0  0  0  0  0  0  0  0  0
   -0.8561    3.1636   -0.4627 H   0  0  0  0  0  0  0  0  0  0  0  0
  1  2  1  0  0  0  0
  2  3  1  0  0  0  0
  2  4  1  0  0  0  0
  2  5  1  0  0  0  0
  5  6  2  0  0  0  0
  5  7  1  0  0  0  0
  7  8  1  0  0  0  0
  7  9  1  0  0  0  0
  9 10  1  0  0  0  0
  9 11  1  0  0  0  0
  9 29  1  0  0  0  0
 11 12  1  0  0  0  0
 11 13  1  0  0  0  0
 11 14  1  0  0  0  0
 14 15  2  0  0  0  0
 14 28  1  0  0  0  0
 15 16  1  0  0  0  0
 15 17  1  0  0  0  0
 17 18  1  0  0  0  0
 17 19  1  0  0  0  0
 19 20  1  0  0  0  0
 19 28  2  0  0  0  0
 20 21  1  0  0  0  0
 20 22  2  0  0  0  0
 22 23  1  0  0  0  0
 22 24  1  0  0  0  0
 24 25  1  0  0  0  0
 24 26  2  0  0  0  0
 26 27  1  0  0  0  0
 26 28  1  0  0  0  0
 29 30  2  0  0  0  0
 29 31  1  0  0  0  0
 31 32  1  0  0  0  0
 31 33  1  0  0  0  0
 33 34  1  0  0  0  0
 33 35  1  0  0  0  0
 33 36  1  0  0  0  0
M  END
$$$$

  -OEChem-03222214083D

 36 37  0     1  0  0  0  0  0999 V2000
   -3.8073   -4.5566    1.5151 H   0  0  0  0  0  0  0  0  0  0  0  0
   -3.7532   -3.7814    0.7460 C   0  0  0  0  0  0  0  0  0  0  0  0
   -4.6483   -3.1579    0.8092 H   0  0  0  0  0  0  0  0  0  0  0  0
   -3.7192   -4.2600   -0.2361 H   0  0  0  0  0  0  0  0  0  0  0  0
   -2.5137   -2.9312    0.9456 C   0  0  0  0  0  0  0  0  0  0  0  0
   -1.7491   -3.1689    1.8689 O   0  0  0  0  0  0  0  0  0  0  0  0
   -2.2319   -1.9219    0.0514 N   0  0  0  0  0  0  0  0  0  0  0  0
   -2.8709   -1.8021   -0.7320 H   0  0  0  0  0  0  0  0  0  0  0  0
   -1.0130   -1.0943    0.0469 C   0  0  1  0  0  0  0  0  0  0  0  0
   -0.5280   -1.1851    1.0237 H   0  0  0  0  0  0  0  0  0  0  0  0
    0.0145   -1.5351   -1.0306 C   0  0  0  0  0  0  0  0  0  0  0  0
    0.0160   -0.8068   -1.8474 H   0  0  0  0  0  0  0  0  0  0  0  0
    1.0152   -1.5118   -0.5884 H   0  0  0  0  0  0  0  0  0  0  0  0
   -0.2107   -2.9049   -1.6335 C   0  0  0  0  0  0  0  0  0  0  0  0
   -0.2248   -4.0979   -0.9490 C   0  0  0  0  0  0  0  0  0  0  0  0
   -0.0369   -4.2120    0.1176 H   0  0  0  0  0  0  0  0  0  0  0  0
   -0.5282   -5.1084   -1.8577 N   0  0  0  0  0  0  0  0  0  0  0  0
   -0.5887   -6.0997   -1.6351 H   0  0  0  0  0  0  0  0  0  0  0  0
   -0.7313   -4.5742   -3.1194 C   0  0  0  0  0  0  0  0  0  0  0  0
   -1.0672   -5.1718   -4.3341 C   0  0  0  0  0  0  0  0  0  0  0  0
   -1.2040   -6.2457   -4.3955 H   0  0  0  0  0  0  0  0  0  0  0  0
   -1.2270   -4.3665   -5.4703 C   0  0  0  0  0  0  0  0  0  0  0  0
   -1.4898   -4.8177   -6.4225 H   0  0  0  0  0  0  0  0  0  0  0  0
   -1.0514   -2.9772   -5.3778 C   0  0  0  0  0  0  0  0  0  0  0  0
   -1.1800   -2.3544   -6.2581 H   0  0  0  0  0  0  0  0  0  0  0  0
   -0.7115   -2.3880   -4.1514 C   0  0  0  0  0  0  0  0  0  0  0  0
   -0.5811   -1.3132   -4.0781 H   0  0  0  0  0  0  0  0  0  0  0  0
   -0.5478   -3.1987   -3.0226 C   0  0  0  0  0  0  0  0  0  0  0  0
   -1.3609    0.3945   -0.1492 C   0  0  0  0  0  0  0  0  0  0  0  0
   -2.1767    0.7290   -1.0009 O   0  0  0  0  0  0  0  0  0  0  0  0
   -0.7626    1.3657    0.6335 N   0  0  0  0  0  0  0  0  0  0  0  0
   -0.1355    1.0571    1.3711 H   0  0  0  0  0  0  0  0  0  0  0  0
   -1.0750    2.7854    0.5224 C   0  0  0  0  0  0  0  0  0  0  0  0
   -2.1383    2.9608    0.7174 H   0  0  0  0  0  0  0  0  0  0  0  0
   -0.4915    3.3596    1.2486 H   0  0  0  0  0  0  0  0  0  0  0  0
   -0.8352    3.1527   -0.4810 H   0  0  0  0  0  0  0  0  0  0  0  0
  1  2  1  0  0  0  0
  2  3  1  0  0  0  0
  2  4  1  0  0  0  0
  2  5  1  0  0  0  0
  5  6  2  0  0  0  0
  5  7  1  0  0  0  0
  7  8  1  0  0  0  0
  7  9  1  0  0  0  0
  9 10  1  0  0  0  0
  9 11  1  0  0  0  0
  9 29  1  0  0  0  0
 11 12  1  0  0  0  0
 11 13  1  0  0  0  0
 11 14  1  0  0  0  0
 14 15  2  0  0  0  0
 14 28  1  0  0  0  0
 15 16  1  0  0  0  0
 15 17  1  0  0  0  0
 17 18  1  0  0  0  0
 17 19  1  0  0  0  0
 19 20  1  0  0  0  0
 19 28  2  0  0  0  0
 20 21  1  0  0  0  0
 20 22  2  0  0  0  0
 22 23  1  0  0  0  0
 22 24  1  0  0  0  0
 24 25  1  0  0  0  0
 24 26  2  0  0  0  0
 26 27  1  0  0  0  0
 26 28  1  0  0  0  0
 29 30  2  0  0  0  0
 29 31  1  0  0  0  0
 31 32  1  0  0  0  0
 31 33  1  0  0  0  0
 33 34  1  0  0  0  0
 33 35  1  0  0  0  0
 33 36  1  0  0  0  0
M  END
$$$$

  -OEChem-03222214083D

 36 37  0     1  0  0  0  0  0999 V2000
   -3.9512   -4.4012    1.7809 H   0  0  0  0  0  0  0  0  0  0  0  0
   -3.8768   -3.6718    0.9696 C   0  0  0  0  0  0  0  0  0  0  0  0
   -4.7223   -2.9830    1.0365 H   0  0  0  0  0  0  0  0  0  0  0  0
   -3.9205   -4.1999    0.0136 H   0  0  0  0  0  0  0  0  0  0  0  0
   -2.5740   -2.9023    1.0730 C   0  0  0  0  0  0  0  0  0  0  0  0
   -1.7771   -3.1620    1.9615 O   0  0  0  0  0  0  0  0  0  0  0  0
   -2.2824   -1.9297    0.1421 N   0  0  0  0  0  0  0  0  0  0  0  0
   -2.9750   -1.7579   -0.5847 H   0  0  0  0  0  0  0  0  0  0  0  0
   -1.0429   -1.1356    0.0719 C   0  0  1  0  0  0  0  0  0  0  0  0
   -0.5326   -1.2076    1.0375 H   0  0  0  0  0  0  0  0  0  0  0  0
   -0.0400   -1.5985   -1.0244 C   0  0  0  0  0  0  0  0  0  0  0  0
   -0.0722   -0.8732   -1.8431 H   0  0  0  0  0  0  0  0  0  0  0  0
    0.9717   -1.5553   -0.6094 H   0  0  0  0  0  0  0  0  0  0  0  0
   -0.2355   -2.9679   -1.6461 C   0  0  0  0  0  0  0  0  0  0  0  0
   -0.5065   -4.1541   -1.0025 C   0  0  0  0  0  0  0  0  0  0  0  0
   -0.5570   -4.2897    0.0755 H   0  0  0  0  0  0  0  0  0  0  0  0
   -0.6627   -5.1450   -1.9672 N   0  0  0  0  0  0  0  0  0  0  0  0
   -0.8412   -6.1285   -1.7766 H   0  0  0  0  0  0  0  0  0  0  0  0
   -0.5039   -4.6096   -3.2330 C   0  0  0  0  0  0  0  0  0  0  0  0
   -0.5713   -5.1953   -4.4969 C   0  0  0  0  0  0  0  0  0  0  0  0
   -0.7785   -6.2548   -4.5979 H   0  0  0  0  0  0  0  0  0  0  0  0
   -0.3696   -4.3968   -5.6308 C   0  0  0  0  0  0  0  0  0  0  0  0
   -0.4200   -4.8388   -6.6214 H   0  0  0  0  0  0  0  0  0  0  0  0
   -0.1037   -3.0267   -5.4866 C   0  0  0  0  0  0  0  0  0  0  0  0
    0.0504   -2.4091   -6.3665 H   0  0  0  0  0  0  0  0  0  0  0  0
   -0.0372   -2.4497   -4.2098 C   0  0  0  0  0  0  0  0  0  0  0  0
    0.1655   -1.3893   -4.1014 H   0  0  0  0  0  0  0  0  0  0  0  0
   -0.2375   -3.2530   -3.0802 C   0  0  0  0  0  0  0  0  0  0  0  0
   -1.3772    0.3515   -0.1625 C   0  0  0  0  0  0  0  0  0  0  0  0
   -2.2382    0.6689   -0.9754 O   0  0  0  0  0  0  0  0  0  0  0  0
   -0.7384    1.3374    0.5676 N   0  0  0  0  0  0  0  0  0  0  0  0
   -0.0789    1.0424    1.2821 H   0  0  0  0  0  0  0  0  0  0  0  0
   -1.0480    2.7560    0.4369 C   0  0  0  0  0  0  0  0  0  0  0  0
   -2.0970    2.9441    0.6890 H   0  0  0  0  0  0  0  0  0  0  0  0
   -0.4189    3.3440    1.1121 H   0  0  0  0  0  0  0  0  0  0  0  0
   -0.8652    3.0956   -0.5880 H   0  0  0  0  0  0  0  0  0  0  0  0
  1  2  1  0  0  0  0
  2  3  1  0  0  0  0
  2  4  1  0  0  0  0
  2  5  1  0  0  0  0
  5  6  2  0  0  0  0
  5  7  1  0  0  0  0
  7  8  1  0  0  0  0
  7  9  1  0  0  0  0
  9 10  1  0  0  0  0
  9 11  1  0  0  0  0
  9 29  1  0  0  0  0
 11 12  1  0  0  0  0
 11 13  1  0  0  0  0
 11 14  1  0  0  0  0
 14 15  2  0  0  0  0
 14 28  1  0  0  0  0
 15 16  1  0  0  0  0
 15 17  1  0  0  0  0
 17 18  1  0  0  0  0
 17 19  1  0  0  0  0
 19 20  1  0  0  0  0
 19 28  2  0  0  0  0
 20 21  1  0  0  0  0
 20 22  2  0  0  0  0
 22 23  1  0  0  0  0
 22 24  1  0  0  0  0
 24 25  1  0  0  0  0
 24 26  2  0  0  0  0
 26 27  1  0  0  0  0
 26 28  1  0  0  0  0
 29 30  2  0  0  0  0
 29 31  1  0  0  0  0
 31 32  1  0  0  0  0
 31 33  1  0  0  0  0
 33 34  1  0  0  0  0
 33 35  1  0  0  0  0
 33 36  1  0  0  0  0
M  END
$$$$

  -OEChem-03222214083D

 36 37  0     1  0  0  0  0  0999 V2000
   -4.0687   -4.2378    2.0402 H   0  0  0  0  0  0  0  0  0  0  0  0
   -4.0038   -3.5313    1.2080 C   0  0  0  0  0  0  0  0  0  0  0  0
   -4.7856   -2.7768    1.3245 H   0  0  0  0  0  0  0  0  0  0  0  0
   -4.1662   -4.0724    0.2725 H   0  0  0  0  0  0  0  0  0  0  0  0
   -2.6408   -2.8661    1.1909 C   0  0  0  0  0  0  0  0  0  0  0  0
   -1.7997   -3.1734    2.0204 O   0  0  0  0  0  0  0  0  0  0  0  0
   -2.3475   -1.9343    0.2195 N   0  0  0  0  0  0  0  0  0  0  0  0
   -3.0896   -1.6930   -0.4356 H   0  0  0  0  0  0  0  0  0  0  0  0
   -1.0840   -1.1883    0.0831 C   0  0  1  0  0  0  0  0  0  0  0  0
   -0.5495   -1.2453    1.0365 H   0  0  0  0  0  0  0  0  0  0  0  0
   -0.1085   -1.6853   -1.0271 C   0  0  0  0  0  0  0  0  0  0  0  0
   -0.1603   -0.9671   -1.8514 H   0  0  0  0  0  0  0  0  0  0  0  0
    0.9110   -1.6342   -0.6333 H   0  0  0  0  0  0  0  0  0  0  0  0
   -0.2892   -3.0524   -1.6634 C   0  0  0  0  0  0  0  0  0  0  0  0
   -0.8077   -4.2152   -1.1392 C   0  0  0  0  0  0  0  0  0  0  0  0
   -1.1198   -4.3665   -0.1117 H   0  0  0  0  0  0  0  0  0  0  0  0
   -0.7998   -5.1871   -2.1355 N   0  0  0  0  0  0  0  0  0  0  0  0
   -1.0983   -6.1527   -2.0174 H   0  0  0  0  0  0  0  0  0  0  0  0
   -0.2790   -4.6684   -3.3064 C   0  0  0  0  0  0  0  0  0  0  0  0
   -0.0644   -5.2454   -4.5581 C   0  0  0  0  0  0  0  0  0  0  0  0
   -0.3264   -6.2827   -4.7342 H   0  0  0  0  0  0  0  0  0  0  0  0
    0.4936   -4.4675   -5.5816 C   0  0  0  0  0  0  0  0  0  0  0  0
    0.6667   -4.9028   -6.5613 H   0  0  0  0  0  0  0  0  0  0  0  0
    0.8302   -3.1273   -5.3401 C   0  0  0  0  0  0  0  0  0  0  0  0
    1.2631   -2.5264   -6.1340 H   0  0  0  0  0  0  0  0  0  0  0  0
    0.6105   -2.5596   -4.0767 C   0  0  0  0  0  0  0  0  0  0  0  0
    0.8727   -1.5232   -3.8928 H   0  0  0  0  0  0  0  0  0  0  0  0
    0.0522   -3.3413   -3.0573 C   0  0  0  0  0  0  0  0  0  0  0  0
   -1.3939    0.2990   -0.1864 C   0  0  0  0  0  0  0  0  0  0  0  0
   -2.2958    0.6106   -0.9562 O   0  0  0  0  0  0  0  0  0  0  0  0
   -0.7070    1.2917    0.4886 N   0  0  0  0  0  0  0  0  0  0  0  0
   -0.0118    1.0038    1.1716 H   0  0  0  0  0  0  0  0  0  0  0  0
   -0.9899    2.7125    0.3257 C   0  0  0  0  0  0  0  0  0  0  0  0
   -2.0233    2.9336    0.6125 H   0  0  0  0  0  0  0  0  0  0  0  0
   -0.3217    3.3056    0.9573 H   0  0  0  0  0  0  0  0  0  0  0  0
   -0.8403    3.0159   -0.7158 H   0  0  0  0  0  0  0  0  0  0  0  0
  1  2  1  0  0  0  0
  2  3  1  0  0  0  0
  2  4  1  0  0  0  0
  2  5  1  0  0  0  0
  5  6  2  0  0  0  0
  5  7  1  0  0  0  0
  7  8  1  0  0  0  0
  7  9  1  0  0  0  0
  9 10  1  0  0  0  0
  9 11  1  0  0  0  0
  9 29  1  0  0  0  0
 11 12  1  0  0  0  0
 11 13  1  0  0  0  0
 11 14  1  0  0  0  0
 14 15  2  0  0  0  0
 14 28  1  0  0  0  0
 15 16  1  0  0  0  0
 15 17  1  0  0  0  0
 17 18  1  0  0  0  0
 17 19  1  0  0  0  0
 19 20  1  0  0  0  0
 19 28  2  0  0  0  0
 20 21  1  0  0  0  0
 20 22  2  0  0  0  0
 22 23  1  0  0  0  0
 22 24  1  0  0  0  0
 24 25  1  0  0  0  0
 24 26  2  0  0  0  0
 26 27  1  0  0  0  0
 26 28  1  0  0  0  0
 29 30  2  0  0  0  0
 29 31  1  0  0  0  0
 31 32  1  0  0  0  0
 31 33  1  0  0  0  0
 33 34  1  0  0  0  0
 33 35  1  0  0  0  0
 33 36  1  0  0  0  0
M  END
$$$$

  -OEChem-03222214083D

 36 37  0     1  0  0  0  0  0999 V2000
   -4.1543   -4.1180    2.1798 H   0  0  0  0  0  0  0  0  0  0  0  0
   -4.1035   -3.3947    1.3612 C   0  0  0  0  0  0  0  0  0  0  0  0
   -4.8073   -2.5838    1.5641 H   0  0  0  0  0  0  0  0  0  0  0  0
   -4.3903   -3.8930    0.4320 H   0  0  0  0  0  0  0  0  0  0  0  0
   -2.6970   -2.8402    1.2397 C   0  0  0  0  0  0  0  0  0  0  0  0
   -1.8248   -3.2147    2.0058 O   0  0  0  0  0  0  0  0  0  0  0  0
   -2.4046   -1.9305    0.2463 N   0  0  0  0  0  0  0  0  0  0  0  0
   -3.1759   -1.6088   -0.3372 H   0  0  0  0  0  0  0  0  0  0  0  0
   -1.1192   -1.2326    0.0742 C   0  0  1  0  0  0  0  0  0  0  0  0
   -0.5729   -1.2934    1.0209 H   0  0  0  0  0  0  0  0  0  0  0  0
   -0.1642   -1.7594   -1.0410 C   0  0  0  0  0  0  0  0  0  0  0  0
   -0.2044   -1.0431   -1.8685 H   0  0  0  0  0  0  0  0  0  0  0  0
    0.8558   -1.7251   -0.6460 H   0  0  0  0  0  0  0  0  0  0  0  0
   -0.3507   -3.1202   -1.6915 C   0  0  0  0  0  0  0  0  0  0  0  0
   -1.0956   -4.2241   -1.3386 C   0  0  0  0  0  0  0  0  0  0  0  0
   -1.6832   -4.3418   -0.4379 H   0  0  0  0  0  0  0  0  0  0  0  0
   -0.9286   -5.1995   -2.3185 N   0  0  0  0  0  0  0  0  0  0  0  0
   -1.3420   -6.1290   -2.2998 H   0  0  0  0  0  0  0  0  0  0  0  0
   -0.0816   -4.7437   -3.3106 C   0  0  0  0  0  0  0  0  0  0  0  0
    0.3854   -5.3415   -4.4813 C   0  0  0  0  0  0  0  0  0  0  0  0
    0.0766   -6.3475   -4.7419 H   0  0  0  0  0  0  0  0  0  0  0  0
    1.2557   -4.6246   -5.3139 C   0  0  0  0  0  0  0  0  0  0  0  0
    1.6260   -5.0760   -6.2293 H   0  0  0  0  0  0  0  0  0  0  0  0
    1.6481   -3.3234   -4.9655 C   0  0  0  0  0  0  0  0  0  0  0  0
    2.3223   -2.7692   -5.6114 H   0  0  0  0  0  0  0  0  0  0  0  0
    1.1722   -2.7348   -3.7850 C   0  0  0  0  0  0  0  0  0  0  0  0
    1.4761   -1.7292   -3.5148 H   0  0  0  0  0  0  0  0  0  0  0  0
    0.3015   -3.4554   -2.9583 C   0  0  0  0  0  0  0  0  0  0  0  0
   -1.3919    0.2605   -0.2038 C   0  0  0  0  0  0  0  0  0  0  0  0
   -2.3136    0.5894   -0.9425 O   0  0  0  0  0  0  0  0  0  0  0  0
   -0.6610    1.2401    0.4438 N   0  0  0  0  0  0  0  0  0  0  0  0
    0.0520    0.9396    1.1026 H   0  0  0  0  0  0  0  0  0  0  0  0
   -0.9036    2.6670    0.2691 C   0  0  0  0  0  0  0  0  0  0  0  0
   -1.9228    2.9238    0.5762 H   0  0  0  0  0  0  0  0  0  0  0  0
   -0.2029    3.2467    0.8775 H   0  0  0  0  0  0  0  0  0  0  0  0
   -0.7683    2.9529   -0.7794 H   0  0  0  0  0  0  0  0  0  0  0  0
  1  2  1  0  0  0  0
  2  3  1  0  0  0  0
  2  4  1  0  0  0  0
  2  5  1  0  0  0  0
  5  6  2  0  0  0  0
  5  7  1  0  0  0  0
  7  8  1  0  0  0  0
  7  9  1  0  0  0  0
  9 10  1  0  0  0  0
  9 11  1  0  0  0  0
  9 29  1  0  0  0  0
 11 12  1  0  0  0  0
 11 13  1  0  0  0  0
 11 14  1  0  0  0  0
 14 15  2  0  0  0  0
 14 28  1  0  0  0  0
 15 16  1  0  0  0  0
 15 17  1  0  0  0  0
 17 18  1  0  0  0  0
 17 19  1  0  0  0  0
 19 20  1  0  0  0  0
 19 28  2  0  0  0  0
 20 21  1  0  0  0  0
 20 22  2  0  0  0  0
 22 23  1  0  0  0  0
 22 24  1  0  0  0  0
 24 25  1  0  0  0  0
 24 26  2  0  0  0  0
 26 27  1  0  0  0  0
 26 28  1  0  0  0  0
 29 30  2  0  0  0  0
 29 31  1  0  0  0  0
 31 32  1  0  0  0  0
 31 33  1  0  0  0  0
 33 34  1  0  0  0  0
 33 35  1  0  0  0  0
 33 36  1  0  0  0  0
M  END
$$$$

  -OEChem-03222214083D

 36 37  0     1  0  0  0  0  0999 V2000
   -4.1992   -4.1072    2.1211 H   0  0  0  0  0  0  0  0  0  0  0  0
   -4.1526   -3.3322    1.3508 C   0  0  0  0  0  0  0  0  0  0  0  0
   -4.8088   -2.5079    1.6405 H   0  0  0  0  0  0  0  0  0  0  0  0
   -4.5045   -3.7533    0.4061 H   0  0  0  0  0  0  0  0  0  0  0  0
   -2.7290   -2.8306    1.1993 C   0  0  0  0  0  0  0  0  0  0  0  0
   -1.8540   -3.2486    1.9387 O   0  0  0  0  0  0  0  0  0  0  0  0
   -2.4328   -1.9062    0.2194 N   0  0  0  0  0  0  0  0  0  0  0  0
   -3.2109   -1.5214   -0.3150 H   0  0  0  0  0  0  0  0  0  0  0  0
   -1.1303   -1.2417    0.0497 C   0  0  1  0  0  0  0  0  0  0  0  0
   -0.5801   -1.3351    0.9916 H   0  0  0  0  0  0  0  0  0  0  0  0
   -0.1915   -1.7729   -1.0755 C   0  0  0  0  0  0  0  0  0  0  0  0
   -0.1968   -1.0408   -1.8904 H   0  0  0  0  0  0  0  0  0  0  0  0
    0.8236   -1.7798   -0.6660 H   0  0  0  0  0  0  0  0  0  0  0  0
   -0.4075   -3.1166   -1.7530 C   0  0  0  0  0  0  0  0  0  0  0  0
   -1.3500   -4.1104   -1.5977 C   0  0  0  0  0  0  0  0  0  0  0  0
   -2.1708   -4.1195   -0.8937 H   0  0  0  0  0  0  0  0  0  0  0  0
   -1.0652   -5.1324   -2.5000 N   0  0  0  0  0  0  0  0  0  0  0  0
   -1.5868   -6.0013   -2.5893 H   0  0  0  0  0  0  0  0  0  0  0  0
    0.0543   -4.8166   -3.2454 C   0  0  0  0  0  0  0  0  0  0  0  0
    0.7237   -5.5078   -4.2553 C   0  0  0  0  0  0  0  0  0  0  0  0
    0.3701   -6.4804   -4.5789 H   0  0  0  0  0  0  0  0  0  0  0  0
    1.8561   -4.9280   -4.8439 C   0  0  0  0  0  0  0  0  0  0  0  0
    2.3874   -5.4541   -5.6315 H   0  0  0  0  0  0  0  0  0  0  0  0
    2.3032   -3.6686   -4.4159 C   0  0  0  0  0  0  0  0  0  0  0  0
    3.1801   -3.2210   -4.8737 H   0  0  0  0  0  0  0  0  0  0  0  0
    1.6216   -2.9855   -3.3981 C   0  0  0  0  0  0  0  0  0  0  0  0
    1.9665   -2.0120   -3.0659 H   0  0  0  0  0  0  0  0  0  0  0  0
    0.4918   -3.5710   -2.8139 C   0  0  0  0  0  0  0  0  0  0  0  0
   -1.3649    0.2639   -0.1903 C   0  0  0  0  0  0  0  0  0  0  0  0
   -2.2964    0.6337   -0.8970 O   0  0  0  0  0  0  0  0  0  0  0  0
   -0.6011    1.2081    0.4715 N   0  0  0  0  0  0  0  0  0  0  0  0
    0.1173    0.8735    1.1077 H   0  0  0  0  0  0  0  0  0  0  0  0
   -0.8287    2.6435    0.3571 C   0  0  0  0  0  0  0  0  0  0  0  0
   -1.8348    2.9009    0.7046 H   0  0  0  0  0  0  0  0  0  0  0  0
   -0.1022    3.1910    0.9652 H   0  0  0  0  0  0  0  0  0  0  0  0
   -0.7211    2.9670   -0.6837 H   0  0  0  0  0  0  0  0  0  0  0  0
  1  2  1  0  0  0  0
  2  3  1  0  0  0  0
  2  4  1  0  0  0  0
  2  5  1  0  0  0  0
  5  6  2  0  0  0  0
  5  7  1  0  0  0  0
  7  8  1  0  0  0  0
  7  9  1  0  0  0  0
  9 10  1  0  0  0  0
  9 11  1  0  0  0  0
  9 29  1  0  0  0  0
 11 12  1  0  0  0  0
 11 13  1  0  0  0  0
 11 14  1  0  0  0  0
 14 15  2  0  0  0  0
 14 28  1  0  0  0  0
 15 16  1  0  0  0  0
 15 17  1  0  0  0  0
 17 18  1  0  0  0  0
 17 19  1  0  0  0  0
 19 20  1  0  0  0  0
 19 28  2  0  0  0  0
 20 21  1  0  0  0  0
 20 22  2  0  0  0  0
 22 23  1  0  0  0  0
 22 24  1  0  0  0  0
 24 25  1  0  0  0  0
 24 26  2  0  0  0  0
 26 27  1  0  0  0  0
 26 28  1  0  0  0  0
 29 30  2  0  0  0  0
 29 31  1  0  0  0  0
 31 32  1  0  0  0  0
 31 33  1  0  0  0  0
 33 34  1  0  0  0  0
 33 35  1  0  0  0  0
 33 36  1  0  0  0  0
M  END
$$$$

  -OEChem-03222214083D

 36 37  0     1  0  0  0  0  0999 V2000
   -4.2282   -4.0612    2.0879 H   0  0  0  0  0  0  0  0  0  0  0  0
   -4.1542   -3.3638    1.2485 C   0  0  0  0  0  0  0  0  0  0  0  0
   -4.8380   -2.5296    1.4234 H   0  0  0  0  0  0  0  0  0  0  0  0
   -4.4490   -3.8820    0.3330 H   0  0  0  0  0  0  0  0  0  0  0  0
   -2.7323   -2.8500    1.1213 C   0  0  0  0  0  0  0  0  0  0  0  0
   -1.8664   -3.2696    1.8705 O   0  0  0  0  0  0  0  0  0  0  0  0
   -2.4332   -1.8942    0.1719 N   0  0  0  0  0  0  0  0  0  0  0  0
   -3.2098   -1.4850   -0.3454 H   0  0  0  0  0  0  0  0  0  0  0  0
   -1.1284   -1.2283    0.0335 C   0  0  1  0  0  0  0  0  0  0  0  0
   -0.5895   -1.3508    0.9788 H   0  0  0  0  0  0  0  0  0  0  0  0
   -0.1806   -1.7416   -1.0910 C   0  0  0  0  0  0  0  0  0  0  0  0
   -0.1553   -0.9946   -1.8918 H   0  0  0  0  0  0  0  0  0  0  0  0
    0.8232   -1.7722   -0.6560 H   0  0  0  0  0  0  0  0  0  0  0  0
   -0.4064   -3.0732   -1.7897 C   0  0  0  0  0  0  0  0  0  0  0  0
   -1.4870   -3.9277   -1.8476 C   0  0  0  0  0  0  0  0  0  0  0  0
   -2.4487   -3.7844   -1.3711 H   0  0  0  0  0  0  0  0  0  0  0  0
   -1.1441   -5.0165   -2.6457 N   0  0  0  0  0  0  0  0  0  0  0  0
   -1.7471   -5.8097   -2.8513 H   0  0  0  0  0  0  0  0  0  0  0  0
    0.1482   -4.8794   -3.1156 C   0  0  0  0  0  0  0  0  0  0  0  0
    0.9281   -5.6910   -3.9395 C   0  0  0  0  0  0  0  0  0  0  0  0
    0.5278   -6.6210   -4.3273 H   0  0  0  0  0  0  0  0  0  0  0  0
    2.2319   -5.2870   -4.2592 C   0  0  0  0  0  0  0  0  0  0  0  0
    2.8510   -5.9080   -4.8998 H   0  0  0  0  0  0  0  0  0  0  0  0
    2.7369   -4.0797   -3.7532 C   0  0  0  0  0  0  0  0  0  0  0  0
    3.7461   -3.7669   -4.0035 H   0  0  0  0  0  0  0  0  0  0  0  0
    1.9420   -3.2738   -2.9254 C   0  0  0  0  0  0  0  0  0  0  0  0
    2.3312   -2.3394   -2.5353 H   0  0  0  0  0  0  0  0  0  0  0  0
    0.6414   -3.6840   -2.6082 C   0  0  0  0  0  0  0  0  0  0  0  0
   -1.3467    0.2858   -0.1597 C   0  0  0  0  0  0  0  0  0  0  0  0
   -2.2697    0.6850   -0.8614 O   0  0  0  0  0  0  0  0  0  0  0  0
   -0.5799    1.2011    0.5382 N   0  0  0  0  0  0  0  0  0  0  0  0
    0.1283    0.8386    1.1705 H   0  0  0  0  0  0  0  0  0  0  0  0
   -0.7988    2.6411    0.4771 C   0  0  0  0  0  0  0  0  0  0  0  0
   -1.7952    2.8937    0.8547 H   0  0  0  0  0  0  0  0  0  0  0  0
   -0.0551    3.1625    1.0875 H   0  0  0  0  0  0  0  0  0  0  0  0
   -0.7107    2.9995   -0.5540 H   0  0  0  0  0  0  0  0  0  0  0  0
  1  2  1  0  0  0  0
  2  3  1  0  0  0  0
  2  4  1  0  0  0  0
  2  5  1  0  0  0  0
  5  6  2  0  0  0  0
  5  7  1  0  0  0  0
  7  8  1  0  0  0  0
  7  9  1  0  0  0  0
  9 10  1  0  0  0  0
  9 11  1  0  0  0  0
  9 29  1  0  0  0  0
 11 12  1  0  0  0  0
 11 13  1  0  0  0  0
 11 14  1  0  0  0  0
 14 15  2  0  0  0  0
 14 28  1  0  0  0  0
 15 16  1  0  0  0  0
 15 17  1  0  0  0  0
 17 18  1  0  0  0  0
 17 19  1  0  0  0  0
 19 20  1  0  0  0  0
 19 28  2  0  0  0  0
 20 21  1  0  0  0  0
 20 22  2  0  0  0  0
 22 23  1  0  0  0  0
 22 24  1  0  0  0  0
 24 25  1  0  0  0  0
 24 26  2  0  0  0  0
 26 27  1  0  0  0  0
 26 28  1  0  0  0  0
 29 30  2  0  0  0  0
 29 31  1  0  0  0  0
 31 32  1  0  0  0  0
 31 33  1  0  0  0  0
 33 34  1  0  0  0  0
 33 35  1  0  0  0  0
 33 36  1  0  0  0  0
M  END
$$$$

  -OEChem-03222214083D

 36 37  0     1  0  0  0  0  0999 V2000
   -4.1677   -4.1641    1.9225 H   0  0  0  0  0  0  0  0  0  0  0  0
   -4.0871   -3.4612    1.0884 C   0  0  0  0  0  0  0  0  0  0  0  0
   -4.8183   -2.6620    1.2307 H   0  0  0  0  0  0  0  0  0  0  0  0
   -4.3102   -3.9901    0.1590 H   0  0  0  0  0  0  0  0  0  0  0  0
   -2.6871   -2.8806    1.0296 C   0  0  0  0  0  0  0  0  0  0  0  0
   -1.8341   -3.2751    1.8072 O   0  0  0  0  0  0  0  0  0  0  0  0
   -2.3978   -1.8884    0.1153 N   0  0  0  0  0  0  0  0  0  0  0  0
   -3.1748   -1.4875   -0.4072 H   0  0  0  0  0  0  0  0  0  0  0  0
   -1.1066   -1.1902    0.0180 C   0  0  1  0  0  0  0  0  0  0  0  0
   -0.5789   -1.3306    0.9669 H   0  0  0  0  0  0  0  0  0  0  0  0
   -0.1390   -1.6678   -1.1036 C   0  0  0  0  0  0  0  0  0  0  0  0
   -0.1104   -0.9100   -1.8938 H   0  0  0  0  0  0  0  0  0  0  0  0
    0.8591   -1.6936   -0.6566 H   0  0  0  0  0  0  0  0  0  0  0  0
   -0.3638   -2.9949   -1.8111 C   0  0  0  0  0  0  0  0  0  0  0  0
   -1.5216   -3.6918   -2.0841 C   0  0  0  0  0  0  0  0  0  0  0  0
   -2.5301   -3.3760   -1.8403 H   0  0  0  0  0  0  0  0  0  0  0  0
   -1.1806   -4.8628   -2.7559 N   0  0  0  0  0  0  0  0  0  0  0  0
   -1.8359   -5.5712   -3.0780 H   0  0  0  0  0  0  0  0  0  0  0  0
    0.1891   -4.9342   -2.9284 C   0  0  0  0  0  0  0  0  0  0  0  0
    0.9966   -5.8966   -3.5350 C   0  0  0  0  0  0  0  0  0  0  0  0
    0.5544   -6.7837   -3.9745 H   0  0  0  0  0  0  0  0  0  0  0  0
    2.3840   -5.7015   -3.5678 C   0  0  0  0  0  0  0  0  0  0  0  0
    3.0250   -6.4426   -4.0357 H   0  0  0  0  0  0  0  0  0  0  0  0
    2.9445   -4.5488   -2.9979 C   0  0  0  0  0  0  0  0  0  0  0  0
    4.0194   -4.3989   -3.0260 H   0  0  0  0  0  0  0  0  0  0  0  0
    2.1213   -3.5891   -2.3915 C   0  0  0  0  0  0  0  0  0  0  0  0
    2.5572   -2.6985   -1.9524 H   0  0  0  0  0  0  0  0  0  0  0  0
    0.7357   -3.7906   -2.3584 C   0  0  0  0  0  0  0  0  0  0  0  0
   -1.3465    0.3247   -0.1310 C   0  0  0  0  0  0  0  0  0  0  0  0
   -2.2581    0.7301   -0.8442 O   0  0  0  0  0  0  0  0  0  0  0  0
   -0.6059    1.2292    0.6077 N   0  0  0  0  0  0  0  0  0  0  0  0
    0.0898    0.8564    1.2480 H   0  0  0  0  0  0  0  0  0  0  0  0
   -0.8489    2.6664    0.5912 C   0  0  0  0  0  0  0  0  0  0  0  0
   -1.8584    2.8882    0.9529 H   0  0  0  0  0  0  0  0  0  0  0  0
   -0.1297    3.1785    1.2377 H   0  0  0  0  0  0  0  0  0  0  0  0
   -0.7426    3.0625   -0.4243 H   0  0  0  0  0  0  0  0  0  0  0  0
  1  2  1  0  0  0  0
  2  3  1  0  0  0  0
  2  4  1  0  0  0  0
  2  5  1  0  0  0  0
  5  6  2  0  0  0  0
  5  7  1  0  0  0  0
  7  8  1  0  0  0  0
  7  9  1  0  0  0  0
  9 10  1  0  0  0  0
  9 11  1  0  0  0  0
  9 29  1  0  0  0  0
 11 12  1  0  0  0  0
 11 13  1  0  0  0  0
 11 14  1  0  0  0  0
 14 15  2  0  0  0  0
 14 28  1  0  0  0  0
 15 16  1  0  0  0  0
 15 17  1  0  0  0  0
 17 18  1  0  0  0  0
 17 19  1  0  0  0  0
 19 20  1  0  0  0  0
 19 28  2  0  0  0  0
 20 21  1  0  0  0  0
 20 22  2  0  0  0  0
 22 23  1  0  0  0  0
 22 24  1  0  0  0  0
 24 25  1  0  0  0  0
 24 26  2  0  0  0  0
 26 27  1  0  0  0  0
 26 28  1  0  0  0  0
 29 30  2  0  0  0  0
 29 31  1  0  0  0  0
 31 32  1  0  0  0  0
 31 33  1  0  0  0  0
 33 34  1  0  0  0  0
 33 35  1  0  0  0  0
 33 36  1  0  0  0  0
M  END
$$$$

  -OEChem-03222214083D

 36 37  0     1  0  0  0  0  0999 V2000
   -4.0115   -4.3463    1.7179 H   0  0  0  0  0  0  0  0  0  0  0  0
   -3.9482   -3.6045    0.9167 C   0  0  0  0  0  0  0  0  0  0  0  0
   -4.7433   -2.8680    1.0554 H   0  0  0  0  0  0  0  0  0  0  0  0
   -4.0885   -4.1094   -0.0420 H   0  0  0  0  0  0  0  0  0  0  0  0
   -2.5943   -2.9214    0.9453 C   0  0  0  0  0  0  0  0  0  0  0  0
   -1.7605   -3.2626    1.7683 O   0  0  0  0  0  0  0  0  0  0  0  0
   -2.3274   -1.8964    0.0607 N   0  0  0  0  0  0  0  0  0  0  0  0
   -3.1001   -1.5410   -0.4979 H   0  0  0  0  0  0  0  0  0  0  0  0
   -1.0628   -1.1454    0.0074 C   0  0  1  0  0  0  0  0  0  0  0  0
   -0.5433   -1.2896    0.9600 H   0  0  0  0  0  0  0  0  0  0  0  0
   -0.0722   -1.5745   -1.1124 C   0  0  0  0  0  0  0  0  0  0  0  0
   -0.0680   -0.8113   -1.8976 H   0  0  0  0  0  0  0  0  0  0  0  0
    0.9290   -1.5754   -0.6732 H   0  0  0  0  0  0  0  0  0  0  0  0
   -0.2928   -2.9014   -1.8172 C   0  0  0  0  0  0  0  0  0  0  0  0
   -1.4649   -3.4335   -2.3078 C   0  0  0  0  0  0  0  0  0  0  0  0
   -2.4348   -2.9447   -2.2893 H   0  0  0  0  0  0  0  0  0  0  0  0
   -1.1827   -4.6837   -2.8513 N   0  0  0  0  0  0  0  0  0  0  0  0
   -1.8584   -5.3030   -3.2926 H   0  0  0  0  0  0  0  0  0  0  0  0
    0.1631   -4.9719   -2.7121 C   0  0  0  0  0  0  0  0  0  0  0  0
    0.9116   -6.0869   -3.0890 C   0  0  0  0  0  0  0  0  0  0  0  0
    0.4342   -6.9246   -3.5848 H   0  0  0  0  0  0  0  0  0  0  0  0
    2.2862   -6.1100   -2.8168 C   0  0  0  0  0  0  0  0  0  0  0  0
    2.8821   -6.9716   -3.1027 H   0  0  0  0  0  0  0  0  0  0  0  0
    2.8927   -5.0214   -2.1730 C   0  0  0  0  0  0  0  0  0  0  0  0
    3.9573   -5.0422   -1.9610 H   0  0  0  0  0  0  0  0  0  0  0  0
    2.1290   -3.9063   -1.7992 C   0  0  0  0  0  0  0  0  0  0  0  0
    2.6010   -3.0680   -1.2989 H   0  0  0  0  0  0  0  0  0  0  0  0
    0.7560   -3.8877   -2.0740 C   0  0  0  0  0  0  0  0  0  0  0  0
   -1.3531    0.3628   -0.1113 C   0  0  0  0  0  0  0  0  0  0  0  0
   -2.2490    0.7530   -0.8523 O   0  0  0  0  0  0  0  0  0  0  0  0
   -0.6621    1.2764    0.6634 N   0  0  0  0  0  0  0  0  0  0  0  0
    0.0212    0.9132    1.3223 H   0  0  0  0  0  0  0  0  0  0  0  0
   -0.9453    2.7064    0.6590 C   0  0  0  0  0  0  0  0  0  0  0  0
   -1.9784    2.8943    0.9702 H   0  0  0  0  0  0  0  0  0  0  0  0
   -0.2761    3.2261    1.3515 H   0  0  0  0  0  0  0  0  0  0  0  0
   -0.7963    3.1236   -0.3425 H   0  0  0  0  0  0  0  0  0  0  0  0
  1  2  1  0  0  0  0
  2  3  1  0  0  0  0
  2  4  1  0  0  0  0
  2  5  1  0  0  0  0
  5  6  2  0  0  0  0
  5  7  1  0  0  0  0
  7  8  1  0  0  0  0
  7  9  1  0  0  0  0
  9 10  1  0  0  0  0
  9 11  1  0  0  0  0
  9 29  1  0  0  0  0
 11 12  1  0  0  0  0
 11 13  1  0  0  0  0
 11 14  1  0  0  0  0
 14 15  2  0  0  0  0
 14 28  1  0  0  0  0
 15 16  1  0  0  0  0
 15 17  1  0  0  0  0
 17 18  1  0  0  0  0
 17 19  1  0  0  0  0
 19 20  1  0  0  0  0
 19 28  2  0  0  0  0
 20 21  1  0  0  0  0
 20 22  2  0  0  0  0
 22 23  1  0  0  0  0
 22 24  1  0  0  0  0
 24 25  1  0  0  0  0
 24 26  2  0  0  0  0
 26 27  1  0  0  0  0
 26 28  1  0  0  0  0
 29 30  2  0  0  0  0
 29 31  1  0  0  0  0
 31 32  1  0  0  0  0
 31 33  1  0  0  0  0
 33 34  1  0  0  0  0
 33 35  1  0  0  0  0
 33 36  1  0  0  0  0
M  END
$$$$

  -OEChem-03222214083D

 36 37  0     1  0  0  0  0  0999 V2000
   -3.8410   -4.5052    1.5539 H   0  0  0  0  0  0  0  0  0  0  0  0
   -3.7849   -3.7466    0.7684 C   0  0  0  0  0  0  0  0  0  0  0  0
   -4.6408   -3.0747    0.8658 H   0  0  0  0  0  0  0  0  0  0  0  0
   -3.8267   -4.2437   -0.2036 H   0  0  0  0  0  0  0  0  0  0  0  0
   -2.4915   -2.9635    0.8899 C   0  0  0  0  0  0  0  0  0  0  0  0
   -1.6897   -3.2459    1.7659 O   0  0  0  0  0  0  0  0  0  0  0  0
   -2.2449   -1.9170    0.0256 N   0  0  0  0  0  0  0  0  0  0  0  0
   -2.9909   -1.6418   -0.6079 H   0  0  0  0  0  0  0  0  0  0  0  0
   -1.0114   -1.1127    0.0106 C   0  0  1  0  0  0  0  0  0  0  0  0
   -0.4972   -1.2529    0.9667 H   0  0  0  0  0  0  0  0  0  0  0  0
   -0.0056   -1.5010   -1.1078 C   0  0  0  0  0  0  0  0  0  0  0  0
   -0.0321   -0.7383   -1.8933 H   0  0  0  0  0  0  0  0  0  0  0  0
    1.0027   -1.4785   -0.6855 H   0  0  0  0  0  0  0  0  0  0  0  0
   -0.2289   -2.8322   -1.7950 C   0  0  0  0  0  0  0  0  0  0  0  0
   -1.3437   -3.2206   -2.5026 C   0  0  0  0  0  0  0  0  0  0  0  0
   -2.2127   -2.5962   -2.6951 H   0  0  0  0  0  0  0  0  0  0  0  0
   -1.1479   -4.5314   -2.9285 N   0  0  0  0  0  0  0  0  0  0  0  0
   -1.8008   -5.0754   -3.4879 H   0  0  0  0  0  0  0  0  0  0  0  0
    0.0797   -4.9979   -2.4901 C   0  0  0  0  0  0  0  0  0  0  0  0
    0.7098   -6.2316   -2.6529 C   0  0  0  0  0  0  0  0  0  0  0  0
    0.2244   -7.0239   -3.2117 H   0  0  0  0  0  0  0  0  0  0  0  0
    1.9738   -6.4335   -2.0813 C   0  0  0  0  0  0  0  0  0  0  0  0
    2.4752   -7.3900   -2.1961 H   0  0  0  0  0  0  0  0  0  0  0  0
    2.5898   -5.4019   -1.3568 C   0  0  0  0  0  0  0  0  0  0  0  0
    3.5668   -5.5617   -0.9112 H   0  0  0  0  0  0  0  0  0  0  0  0
    1.9466   -4.1656   -1.2017 C   0  0  0  0  0  0  0  0  0  0  0  0
    2.4210   -3.3705   -0.6371 H   0  0  0  0  0  0  0  0  0  0  0  0
    0.6858   -3.9696   -1.7766 C   0  0  0  0  0  0  0  0  0  0  0  0
   -1.3547    0.3847   -0.0974 C   0  0  0  0  0  0  0  0  0  0  0  0
   -2.2258    0.7525   -0.8786 O   0  0  0  0  0  0  0  0  0  0  0  0
   -0.7182    1.3158    0.7028 N   0  0  0  0  0  0  0  0  0  0  0  0
   -0.0427    0.9726    1.3802 H   0  0  0  0  0  0  0  0  0  0  0  0
   -1.0302    2.7394    0.6767 C   0  0  0  0  0  0  0  0  0  0  0  0
   -2.0803    2.9069    0.9381 H   0  0  0  0  0  0  0  0  0  0  0  0
   -0.4050    3.2768    1.3962 H   0  0  0  0  0  0  0  0  0  0  0  0
   -0.8441    3.1538   -0.3198 H   0  0  0  0  0  0  0  0  0  0  0  0
  1  2  1  0  0  0  0
  2  3  1  0  0  0  0
  2  4  1  0  0  0  0
  2  5  1  0  0  0  0
  5  6  2  0  0  0  0
  5  7  1  0  0  0  0
  7  8  1  0  0  0  0
  7  9  1  0  0  0  0
  9 10  1  0  0  0  0
  9 11  1  0  0  0  0
  9 29  1  0  0  0  0
 11 12  1  0  0  0  0
 11 13  1  0  0  0  0
 11 14  1  0  0  0  0
 14 15  2  0  0  0  0
 14 28  1  0  0  0  0
 15 16  1  0  0  0  0
 15 17  1  0  0  0  0
 17 18  1  0  0  0  0
 17 19  1  0  0  0  0
 19 20  1  0  0  0  0
 19 28  2  0  0  0  0
 20 21  1  0  0  0  0
 20 22  2  0  0  0  0
 22 23  1  0  0  0  0
 22 24  1  0  0  0  0
 24 25  1  0  0  0  0
 24 26  2  0  0  0  0
 26 27  1  0  0  0  0
 26 28  1  0  0  0  0
 29 30  2  0  0  0  0
 29 31  1  0  0  0  0
 31 32  1  0  0  0  0
 31 33  1  0  0  0  0
 33 34  1  0  0  0  0
 33 35  1  0  0  0  0
 33 36  1  0  0  0  0
M  END
$$$$

  -OEChem-03222214083D

 36 37  0     1  0  0  0  0  0999 V2000
   -3.6075   -4.6683    1.4165 H   0  0  0  0  0  0  0  0  0  0  0  0
   -3.5626   -3.9087    0.6312 C   0  0  0  0  0  0  0  0  0  0  0  0
   -4.4937   -3.3372    0.6392 H   0  0  0  0  0  0  0  0  0  0  0  0
   -3.4547   -4.4079   -0.3349 H   0  0  0  0  0  0  0  0  0  0  0  0
   -2.3828   -2.9848    0.8647 C   0  0  0  0  0  0  0  0  0  0  0  0
   -1.6411   -3.1707    1.8172 O   0  0  0  0  0  0  0  0  0  0  0  0
   -2.1659   -1.9286    0.0044 N   0  0  0  0  0  0  0  0  0  0  0  0
   -2.8269   -1.7989   -0.7558 H   0  0  0  0  0  0  0  0  0  0  0  0
   -0.9611   -1.0812    0.0123 C   0  0  1  0  0  0  0  0  0  0  0  0
   -0.4447   -1.2108    0.9685 H   0  0  0  0  0  0  0  0  0  0  0  0
    0.0455   -1.4445   -1.1116 C   0  0  0  0  0  0  0  0  0  0  0  0
   -0.0072   -0.6855   -1.8996 H   0  0  0  0  0  0  0  0  0  0  0  0
    1.0621   -1.4096   -0.7091 H   0  0  0  0  0  0  0  0  0  0  0  0
   -0.1900   -2.7824   -1.7746 C   0  0  0  0  0  0  0  0  0  0  0  0
   -1.1811   -3.0653   -2.6859 C   0  0  0  0  0  0  0  0  0  0  0  0
   -1.8906   -2.3437   -3.0858 H   0  0  0  0  0  0  0  0  0  0  0  0
   -1.0982   -4.4202   -2.9971 N   0  0  0  0  0  0  0  0  0  0  0  0
   -1.6874   -4.9101   -3.6670 H   0  0  0  0  0  0  0  0  0  0  0  0
   -0.0747   -5.0153   -2.2774 C   0  0  0  0  0  0  0  0  0  0  0  0
    0.3850   -6.3314   -2.2373 C   0  0  0  0  0  0  0  0  0  0  0  0
   -0.0801   -7.0928   -2.8534 H   0  0  0  0  0  0  0  0  0  0  0  0
    1.4520   -6.6560   -1.3878 C   0  0  0  0  0  0  0  0  0  0  0  0
    1.8203   -7.6768   -1.3450 H   0  0  0  0  0  0  0  0  0  0  0  0
    2.0411   -5.6647   -0.5877 C   0  0  0  0  0  0  0  0  0  0  0  0
    2.8617   -5.9198    0.0759 H   0  0  0  0  0  0  0  0  0  0  0  0
    1.5711   -4.3446   -0.6379 C   0  0  0  0  0  0  0  0  0  0  0  0
    2.0185   -3.5774   -0.0150 H   0  0  0  0  0  0  0  0  0  0  0  0
    0.5133   -4.0271   -1.4956 C   0  0  0  0  0  0  0  0  0  0  0  0
   -1.3442    0.4067   -0.0968 C   0  0  0  0  0  0  0  0  0  0  0  0
   -2.1807    0.7616   -0.9207 O   0  0  0  0  0  0  0  0  0  0  0  0
   -0.7467    1.3506    0.7186 N   0  0  0  0  0  0  0  0  0  0  0  0
   -0.1100    1.0156    1.4364 H   0  0  0  0  0  0  0  0  0  0  0  0
   -1.0912    2.7666    0.6876 C   0  0  0  0  0  0  0  0  0  0  0  0
   -2.1306    2.9144    0.9984 H   0  0  0  0  0  0  0  0  0  0  0  0
   -0.4425    3.3283    1.3666 H   0  0  0  0  0  0  0  0  0  0  0  0
   -0.9637    3.1711   -0.3220 H   0  0  0  0  0  0  0  0  0  0  0  0
  1  2  1  0  0  0  0
  2  3  1  0  0  0  0
  2  4  1  0  0  0  0
  2  5  1  0  0  0  0
  5  6  2  0  0  0  0
  5  7  1  0  0  0  0
  7  8  1  0  0  0  0
  7  9  1  0  0  0  0
  9 10  1  0  0  0  0
  9 11  1  0  0  0  0
  9 29  1  0  0  0  0
 11 12  1  0  0  0  0
 11 13  1  0  0  0  0
 11 14  1  0  0  0  0
 14 15  2  0  0  0  0
 14 28  1  0  0  0  0
 15 16  1  0  0  0  0
 15 17  1  0  0  0  0
 17 18  1  0  0  0  0
 17 19  1  0  0  0  0
 19 20  1  0  0  0  0
 19 28  2  0  0  0  0
 20 21  1  0  0  0  0
 20 22  2  0  0  0  0
 22 23  1  0  0  0  0
 22 24  1  0  0  0  0
 24 25  1  0  0  0  0
 24 26  2  0  0  0  0
 26 27  1  0  0  0  0
 26 28  1  0  0  0  0
 29 30  2  0  0  0  0
 29 31  1  0  0  0  0
 31 32  1  0  0  0  0
 31 33  1  0  0  0  0
 33 34  1  0  0  0  0
 33 35  1  0  0  0  0
 33 36  1  0  0  0  0
M  END
$$$$

  -OEChem-03222214083D

 36 37  0     1  0  0  0  0  0999 V2000
   -3.4068   -4.7838    1.3577 H   0  0  0  0  0  0  0  0  0  0  0  0
   -3.3787   -4.0294    0.5664 C   0  0  0  0  0  0  0  0  0  0  0  0
   -4.3611   -3.5576    0.4917 H   0  0  0  0  0  0  0  0  0  0  0  0
   -3.1430   -4.5218   -0.3805 H   0  0  0  0  0  0  0  0  0  0  0  0
   -2.3222   -2.9864    0.8756 C   0  0  0  0  0  0  0  0  0  0  0  0
   -1.6444   -3.0847    1.8877 O   0  0  0  0  0  0  0  0  0  0  0  0
   -2.1282   -1.9345    0.0042 N   0  0  0  0  0  0  0  0  0  0  0  0
   -2.6901   -1.9311   -0.8417 H   0  0  0  0  0  0  0  0  0  0  0  0
   -0.9383   -1.0652    0.0259 C   0  0  1  0  0  0  0  0  0  0  0  0
   -0.4208   -1.1842    0.9824 H   0  0  0  0  0  0  0  0  0  0  0  0
    0.0680   -1.4250   -1.0991 C   0  0  0  0  0  0  0  0  0  0  0  0
    0.0134   -0.6678   -1.8889 H   0  0  0  0  0  0  0  0  0  0  0  0
    1.0866   -1.3941   -0.7005 H   0  0  0  0  0  0  0  0  0  0  0  0
   -0.1756   -2.7691   -1.7444 C   0  0  0  0  0  0  0  0  0  0  0  0
   -0.9723   -2.9923   -2.8423 C   0  0  0  0  0  0  0  0  0  0  0  0
   -1.4838   -2.2218   -3.4161 H   0  0  0  0  0  0  0  0  0  0  0  0
   -0.9967   -4.3655   -3.0749 N   0  0  0  0  0  0  0  0  0  0  0  0
   -1.4806   -4.8249   -3.8439 H   0  0  0  0  0  0  0  0  0  0  0  0
   -0.2431   -5.0286   -2.1192 C   0  0  0  0  0  0  0  0  0  0  0  0
    0.0185   -6.3840   -1.9185 C   0  0  0  0  0  0  0  0  0  0  0  0
   -0.3927   -7.1269   -2.5926 H   0  0  0  0  0  0  0  0  0  0  0  0
    0.8151   -6.7716   -0.8316 C   0  0  0  0  0  0  0  0  0  0  0  0
    1.0263   -7.8230   -0.6604 H   0  0  0  0  0  0  0  0  0  0  0  0
    1.3330   -5.8030    0.0423 C   0  0  0  0  0  0  0  0  0  0  0  0
    1.9390   -6.1056    0.8911 H   0  0  0  0  0  0  0  0  0  0  0  0
    1.0646   -4.4434   -0.1707 C   0  0  0  0  0  0  0  0  0  0  0  0
    1.4499   -3.6917    0.5101 H   0  0  0  0  0  0  0  0  0  0  0  0
    0.2811   -4.0655   -1.2646 C   0  0  0  0  0  0  0  0  0  0  0  0
   -1.3386    0.4178   -0.0961 C   0  0  0  0  0  0  0  0  0  0  0  0
   -2.1343    0.7693   -0.9608 O   0  0  0  0  0  0  0  0  0  0  0  0
   -0.7645    1.3707    0.7257 N   0  0  0  0  0  0  0  0  0  0  0  0
   -0.1723    1.0395    1.4823 H   0  0  0  0  0  0  0  0  0  0  0  0
   -1.1155    2.7848    0.6750 C   0  0  0  0  0  0  0  0  0  0  0  0
   -2.1639    2.9292    0.9563 H   0  0  0  0  0  0  0  0  0  0  0  0
   -0.4883    3.3545    1.3673 H   0  0  0  0  0  0  0  0  0  0  0  0
   -0.9629    3.1831   -0.3337 H   0  0  0  0  0  0  0  0  0  0  0  0
  1  2  1  0  0  0  0
  2  3  1  0  0  0  0
  2  4  1  0  0  0  0
  2  5  1  0  0  0  0
  5  6  2  0  0  0  0
  5  7  1  0  0  0  0
  7  8  1  0  0  0  0
  7  9  1  0  0  0  0
  9 10  1  0  0  0  0
  9 11  1  0  0  0  0
  9 29  1  0  0  0  0
 11 12  1  0  0  0  0
 11 13  1  0  0  0  0
 11 14  1  0  0  0  0
 14 15  2  0  0  0  0
 14 28  1  0  0  0  0
 15 16  1  0  0  0  0
 15 17  1  0  0  0  0
 17 18  1  0  0  0  0
 17 19  1  0  0  0  0
 19 20  1  0  0  0  0
 19 28  2  0  0  0  0
 20 21  1  0  0  0  0
 20 22  2  0  0  0  0
 22 23  1  0  0  0  0
 22 24  1  0  0  0  0
 24 25  1  0  0  0  0
 24 26  2  0  0  0  0
 26 27  1  0  0  0  0
 26 28  1  0  0  0  0
 29 30  2  0  0  0  0
 29 31  1  0  0  0  0
 31 32  1  0  0  0  0
 31 33  1  0  0  0  0
 33 34  1  0  0  0  0
 33 35  1  0  0  0  0
 33 36  1  0  0  0  0
M  END
$$$$

  -OEChem-03222214083D

 36 37  0     1  0  0  0  0  0999 V2000
   -3.5120   -4.7221    1.4078 H   0  0  0  0  0  0  0  0  0  0  0  0
   -3.4437   -3.9923    0.5965 C   0  0  0  0  0  0  0  0  0  0  0  0
   -4.4209   -3.5242    0.4573 H   0  0  0  0  0  0  0  0  0  0  0  0
   -3.1595   -4.5134   -0.3216 H   0  0  0  0  0  0  0  0  0  0  0  0
   -2.4056   -2.9381    0.9278 C   0  0  0  0  0  0  0  0  0  0  0  0
   -1.7789   -3.0029    1.9754 O   0  0  0  0  0  0  0  0  0  0  0  0
   -2.1703   -1.9115    0.0371 N   0  0  0  0  0  0  0  0  0  0  0  0
   -2.6832   -1.9466   -0.8392 H   0  0  0  0  0  0  0  0  0  0  0  0
   -0.9657   -1.0632    0.0682 C   0  0  1  0  0  0  0  0  0  0  0  0
   -0.4665   -1.1709    1.0359 H   0  0  0  0  0  0  0  0  0  0  0  0
    0.0491   -1.4588   -1.0387 C   0  0  0  0  0  0  0  0  0  0  0  0
    0.0303   -0.7082   -1.8362 H   0  0  0  0  0  0  0  0  0  0  0  0
    1.0591   -1.4491   -0.6178 H   0  0  0  0  0  0  0  0  0  0  0  0
   -0.2053   -2.8067   -1.6734 C   0  0  0  0  0  0  0  0  0  0  0  0
   -0.7372   -3.0070   -2.9247 C   0  0  0  0  0  0  0  0  0  0  0  0
   -1.0311   -2.2211   -3.6179 H   0  0  0  0  0  0  0  0  0  0  0  0
   -0.8284   -4.3818   -3.1302 N   0  0  0  0  0  0  0  0  0  0  0  0
   -1.1685   -4.8291   -3.9792 H   0  0  0  0  0  0  0  0  0  0  0  0
   -0.3568   -5.0672   -2.0220 C   0  0  0  0  0  0  0  0  0  0  0  0
   -0.2505   -6.4310   -1.7496 C   0  0  0  0  0  0  0  0  0  0  0  0
   -0.5654   -7.1628   -2.4850 H   0  0  0  0  0  0  0  0  0  0  0  0
    0.2647   -6.8418   -0.5121 C   0  0  0  0  0  0  0  0  0  0  0  0
    0.3505   -7.8999   -0.2835 H   0  0  0  0  0  0  0  0  0  0  0  0
    0.6655   -5.8872    0.4351 C   0  0  0  0  0  0  0  0  0  0  0  0
    1.0561   -6.2056    1.3969 H   0  0  0  0  0  0  0  0  0  0  0  0
    0.5564   -4.5193    0.1488 C   0  0  0  0  0  0  0  0  0  0  0  0
    0.8493   -3.7777    0.8853 H   0  0  0  0  0  0  0  0  0  0  0  0
    0.0441   -4.1182   -1.0887 C   0  0  0  0  0  0  0  0  0  0  0  0
   -1.3386    0.4229   -0.0984 C   0  0  0  0  0  0  0  0  0  0  0  0
   -2.1039    0.7697   -0.9919 O   0  0  0  0  0  0  0  0  0  0  0  0
   -0.7676    1.3837    0.7164 N   0  0  0  0  0  0  0  0  0  0  0  0
   -0.2026    1.0591    1.4962 H   0  0  0  0  0  0  0  0  0  0  0  0
   -1.1006    2.8002    0.6323 C   0  0  0  0  0  0  0  0  0  0  0  0
   -2.1619    2.9581    0.8514 H   0  0  0  0  0  0  0  0  0  0  0  0
   -0.5086    3.3707    1.3544 H   0  0  0  0  0  0  0  0  0  0  0  0
   -0.8863    3.1860   -0.3700 H   0  0  0  0  0  0  0  0  0  0  0  0
  1  2  1  0  0  0  0
  2  3  1  0  0  0  0
  2  4  1  0  0  0  0
  2  5  1  0  0  0  0
  5  6  2  0  0  0  0
  5  7  1  0  0  0  0
  7  8  1  0  0  0  0
  7  9  1  0  0  0  0
  9 10  1  0  0  0  0
  9 11  1  0  0  0  0
  9 29  1  0  0  0  0
 11 12  1  0  0  0  0
 11 13  1  0  0  0  0
 11 14  1  0  0  0  0
 14 15  2  0  0  0  0
 14 28  1  0  0  0  0
 15 16  1  0  0  0  0
 15 17  1  0  0  0  0
 17 18  1  0  0  0  0
 17 19  1  0  0  0  0
 19 20  1  0  0  0  0
 19 28  2  0  0  0  0
 20 21  1  0  0  0  0
 20 22  2  0  0  0  0
 22 23  1  0  0  0  0
 22 24  1  0  0  0  0
 24 25  1  0  0  0  0
 24 26  2  0  0  0  0
 26 27  1  0  0  0  0
 26 28  1  0  0  0  0
 29 30  2  0  0  0  0
 29 31  1  0  0  0  0
 31 32  1  0  0  0  0
 31 33  1  0  0  0  0
 33 34  1  0  0  0  0
 33 35  1  0  0  0  0
 33 36  1  0  0  0  0
M  END
$$$$

  -OEChem-03222214083D

 36 37  0     1  0  0  0  0  0999 V2000
   -3.7697   -4.5894    1.4701 H   0  0  0  0  0  0  0  0  0  0  0  0
   -3.6866   -3.8518    0.6673 C   0  0  0  0  0  0  0  0  0  0  0  0
   -4.6474   -3.3452    0.5501 H   0  0  0  0  0  0  0  0  0  0  0  0
   -3.4381   -4.3719   -0.2615 H   0  0  0  0  0  0  0  0  0  0  0  0
   -2.6038   -2.8420    0.9954 C   0  0  0  0  0  0  0  0  0  0  0  0
   -2.0285   -2.8886    2.0733 O   0  0  0  0  0  0  0  0  0  0  0  0
   -2.2883   -1.8558    0.0844 N   0  0  0  0  0  0  0  0  0  0  0  0
   -2.7735   -1.8959   -0.8079 H   0  0  0  0  0  0  0  0  0  0  0  0
   -1.0481   -1.0600    0.1243 C   0  0  1  0  0  0  0  0  0  0  0  0
   -0.5772   -1.1633    1.1065 H   0  0  0  0  0  0  0  0  0  0  0  0
   -0.0232   -1.5085   -0.9562 C   0  0  0  0  0  0  0  0  0  0  0  0
    0.0190   -0.7617   -1.7567 H   0  0  0  0  0  0  0  0  0  0  0  0
    0.9704   -1.5361   -0.4982 H   0  0  0  0  0  0  0  0  0  0  0  0
   -0.2892   -2.8525   -1.5979 C   0  0  0  0  0  0  0  0  0  0  0  0
   -0.5063   -3.0478   -2.9413 C   0  0  0  0  0  0  0  0  0  0  0  0
   -0.5671   -2.2608   -3.6907 H   0  0  0  0  0  0  0  0  0  0  0  0
   -0.6350   -4.4174   -3.1585 N   0  0  0  0  0  0  0  0  0  0  0  0
   -0.7894   -4.8586   -4.0629 H   0  0  0  0  0  0  0  0  0  0  0  0
   -0.4488   -5.1108   -1.9746 C   0  0  0  0  0  0  0  0  0  0  0  0
   -0.4509   -6.4770   -1.6928 C   0  0  0  0  0  0  0  0  0  0  0  0
   -0.6371   -7.1984   -2.4807 H   0  0  0  0  0  0  0  0  0  0  0  0
   -0.2033   -6.9037   -0.3809 C   0  0  0  0  0  0  0  0  0  0  0  0
   -0.2044   -7.9636   -0.1447 H   0  0  0  0  0  0  0  0  0  0  0  0
    0.0535   -5.9622    0.6269 C   0  0  0  0  0  0  0  0  0  0  0  0
    0.2479   -6.2909    1.6435 H   0  0  0  0  0  0  0  0  0  0  0  0
    0.0582   -4.5924    0.3290 C   0  0  0  0  0  0  0  0  0  0  0  0
    0.2554   -3.8627    1.1084 H   0  0  0  0  0  0  0  0  0  0  0  0
   -0.2113   -4.1718   -0.9772 C   0  0  0  0  0  0  0  0  0  0  0  0
   -1.3557    0.4344   -0.0999 C   0  0  0  0  0  0  0  0  0  0  0  0
   -2.0820    0.7862   -1.0235 O   0  0  0  0  0  0  0  0  0  0  0  0
   -0.7666    1.3949    0.7021 N   0  0  0  0  0  0  0  0  0  0  0  0
   -0.2311    1.0713    1.5029 H   0  0  0  0  0  0  0  0  0  0  0  0
   -1.0197    2.8230    0.5561 C   0  0  0  0  0  0  0  0  0  0  0  0
   -2.0789    3.0438    0.7247 H   0  0  0  0  0  0  0  0  0  0  0  0
   -0.4277    3.3876    1.2828 H   0  0  0  0  0  0  0  0  0  0  0  0
   -0.7443    3.1607   -0.4487 H   0  0  0  0  0  0  0  0  0  0  0  0
  1  2  1  0  0  0  0
  2  3  1  0  0  0  0
  2  4  1  0  0  0  0
  2  5  1  0  0  0  0
  5  6  2  0  0  0  0
  5  7  1  0  0  0  0
  7  8  1  0  0  0  0
  7  9  1  0  0  0  0
  9 10  1  0  0  0  0
  9 11  1  0  0  0  0
  9 29  1  0  0  0  0
 11 12  1  0  0  0  0
 11 13  1  0  0  0  0
 11 14  1  0  0  0  0
 14 15  2  0  0  0  0
 14 28  1  0  0  0  0
 15 16  1  0  0  0  0
 15 17  1  0  0  0  0
 17 18  1  0  0  0  0
 17 19  1  0  0  0  0
 19 20  1  0  0  0  0
 19 28  2  0  0  0  0
 20 21  1  0  0  0  0
 20 22  2  0  0  0  0
 22 23  1  0  0  0  0
 22 24  1  0  0  0  0
 24 25  1  0  0  0  0
 24 26  2  0  0  0  0
 26 27  1  0  0  0  0
 26 28  1  0  0  0  0
 29 30  2  0  0  0  0
 29 31  1  0  0  0  0
 31 32  1  0  0  0  0
 31 33  1  0  0  0  0
 33 34  1  0  0  0  0
 33 35  1  0  0  0  0
 33 36  1  0  0  0  0
M  END
$$$$

  -OEChem-03222214083D

 36 37  0     1  0  0  0  0  0999 V2000
   -4.0423   -4.4088    1.5463 H   0  0  0  0  0  0  0  0  0  0  0  0
   -3.9080   -3.6935    0.7304 C   0  0  0  0  0  0  0  0  0  0  0  0
   -4.8421   -3.1475    0.5798 H   0  0  0  0  0  0  0  0  0  0  0  0
   -3.6626   -4.2444   -0.1814 H   0  0  0  0  0  0  0  0  0  0  0  0
   -2.7881   -2.7263    1.0628 C   0  0  0  0  0  0  0  0  0  0  0  0
   -2.2526   -2.7603    2.1612 O   0  0  0  0  0  0  0  0  0  0  0  0
   -2.4032   -1.7796    0.1385 N   0  0  0  0  0  0  0  0  0  0  0  0
   -2.8777   -1.8162   -0.7600 H   0  0  0  0  0  0  0  0  0  0  0  0
   -1.1252   -1.0454    0.1691 C   0  0  1  0  0  0  0  0  0  0  0  0
   -0.6604   -1.1540    1.1536 H   0  0  0  0  0  0  0  0  0  0  0  0
   -0.1194   -1.5405   -0.9142 C   0  0  0  0  0  0  0  0  0  0  0  0
   -0.0319   -0.7921   -1.7096 H   0  0  0  0  0  0  0  0  0  0  0  0
    0.8658   -1.6120   -0.4431 H   0  0  0  0  0  0  0  0  0  0  0  0
   -0.4135   -2.8721   -1.5743 C   0  0  0  0  0  0  0  0  0  0  0  0
   -0.3310   -3.0794   -2.9318 C   0  0  0  0  0  0  0  0  0  0  0  0
   -0.1647   -2.3033   -3.6761 H   0  0  0  0  0  0  0  0  0  0  0  0
   -0.5185   -4.4359   -3.1783 N   0  0  0  0  0  0  0  0  0  0  0  0
   -0.5115   -4.8740   -4.0972 H   0  0  0  0  0  0  0  0  0  0  0  0
   -0.5960   -5.1292   -1.9844 C   0  0  0  0  0  0  0  0  0  0  0  0
   -0.7066   -6.4946   -1.7208 C   0  0  0  0  0  0  0  0  0  0  0  0
   -0.8001   -7.2039   -2.5356 H   0  0  0  0  0  0  0  0  0  0  0  0
   -0.6763   -6.9372   -0.3917 C   0  0  0  0  0  0  0  0  0  0  0  0
   -0.7615   -7.9968   -0.1686 H   0  0  0  0  0  0  0  0  0  0  0  0
   -0.5090   -6.0132    0.6496 C   0  0  0  0  0  0  0  0  0  0  0  0
   -0.4608   -6.3546    1.6794 H   0  0  0  0  0  0  0  0  0  0  0  0
   -0.3955   -4.6450    0.3675 C   0  0  0  0  0  0  0  0  0  0  0  0
   -0.2383   -3.9365    1.1741 H   0  0  0  0  0  0  0  0  0  0  0  0
   -0.4851   -4.1987   -0.9559 C   0  0  0  0  0  0  0  0  0  0  0  0
   -1.3693    0.4555   -0.0946 C   0  0  0  0  0  0  0  0  0  0  0  0
   -2.0784    0.8164   -1.0282 O   0  0  0  0  0  0  0  0  0  0  0  0
   -0.7447    1.4102    0.6878 N   0  0  0  0  0  0  0  0  0  0  0  0
   -0.2339    1.0836    1.5034 H   0  0  0  0  0  0  0  0  0  0  0  0
   -0.9524    2.8429    0.5163 C   0  0  0  0  0  0  0  0  0  0  0  0
   -2.0042    3.1000    0.6798 H   0  0  0  0  0  0  0  0  0  0  0  0
   -0.3434    3.4010    1.2338 H   0  0  0  0  0  0  0  0  0  0  0  0
   -0.6662    3.1543   -0.4938 H   0  0  0  0  0  0  0  0  0  0  0  0
  1  2  1  0  0  0  0
  2  3  1  0  0  0  0
  2  4  1  0  0  0  0
  2  5  1  0  0  0  0
  5  6  2  0  0  0  0
  5  7  1  0  0  0  0
  7  8  1  0  0  0  0
  7  9  1  0  0  0  0
  9 10  1  0  0  0  0
  9 11  1  0  0  0  0
  9 29  1  0  0  0  0
 11 12  1  0  0  0  0
 11 13  1  0  0  0  0
 11 14  1  0  0  0  0
 14 15  2  0  0  0  0
 14 28  1  0  0  0  0
 15 16  1  0  0  0  0
 15 17  1  0  0  0  0
 17 18  1  0  0  0  0
 17 19  1  0  0  0  0
 19 20  1  0  0  0  0
 19 28  2  0  0  0  0
 20 21  1  0  0  0  0
 20 22  2  0  0  0  0
 22 23  1  0  0  0  0
 22 24  1  0  0  0  0
 24 25  1  0  0  0  0
 24 26  2  0  0  0  0
 26 27  1  0  0  0  0
 26 28  1  0  0  0  0
 29 30  2  0  0  0  0
 29 31  1  0  0  0  0
 31 32  1  0  0  0  0
 31 33  1  0  0  0  0
 33 34  1  0  0  0  0
 33 35  1  0  0  0  0
 33 36  1  0  0  0  0
M  END
$$$$

  -OEChem-03222214083D

 36 37  0     1  0  0  0  0  0999 V2000
   -4.0376   -4.2430    2.0458 H   0  0  0  0  0  0  0  0  0  0  0  0
   -3.9480   -3.5468    1.2075 C   0  0  0  0  0  0  0  0  0  0  0  0
   -4.8340   -2.9080    1.1816 H   0  0  0  0  0  0  0  0  0  0  0  0
   -3.8918   -4.1201    0.2785 H   0  0  0  0  0  0  0  0  0  0  0  0
   -2.7013   -2.6973    1.3633 C   0  0  0  0  0  0  0  0  0  0  0  0
   -2.0025   -2.8056    2.3604 O   0  0  0  0  0  0  0  0  0  0  0  0
   -2.4021   -1.7414    0.4188 N   0  0  0  0  0  0  0  0  0  0  0  0
   -3.0323   -1.6922   -0.3781 H   0  0  0  0  0  0  0  0  0  0  0  0
   -1.1010   -1.0679    0.2536 C   0  0  1  0  0  0  0  0  0  0  0  0
   -0.4821   -1.2317    1.1414 H   0  0  0  0  0  0  0  0  0  0  0  0
   -0.3102   -1.5283   -1.0136 C   0  0  0  0  0  0  0  0  0  0  0  0
   -0.3118   -0.7295   -1.7637 H   0  0  0  0  0  0  0  0  0  0  0  0
    0.7319   -1.6597   -0.7057 H   0  0  0  0  0  0  0  0  0  0  0  0
   -0.7279   -2.8013   -1.7250 C   0  0  0  0  0  0  0  0  0  0  0  0
   -0.5583   -2.9529   -3.0832 C   0  0  0  0  0  0  0  0  0  0  0  0
   -0.2842   -2.1550   -3.7701 H   0  0  0  0  0  0  0  0  0  0  0  0
   -0.8473   -4.2679   -3.4273 N   0  0  0  0  0  0  0  0  0  0  0  0
   -0.8296   -4.6489   -4.3711 H   0  0  0  0  0  0  0  0  0  0  0  0
   -1.0087   -5.0238   -2.2844 C   0  0  0  0  0  0  0  0  0  0  0  0
   -1.1901   -6.3975   -2.1239 C   0  0  0  0  0  0  0  0  0  0  0  0
   -1.3140   -7.0392   -2.9890 H   0  0  0  0  0  0  0  0  0  0  0  0
   -1.1756   -6.9386   -0.8329 C   0  0  0  0  0  0  0  0  0  0  0  0
   -1.3129   -8.0059   -0.6872 H   0  0  0  0  0  0  0  0  0  0  0  0
   -0.9344   -6.1053    0.2674 C   0  0  0  0  0  0  0  0  0  0  0  0
   -0.8724   -6.5259    1.2667 H   0  0  0  0  0  0  0  0  0  0  0  0
   -0.7503   -4.7283    0.0823 C   0  0  0  0  0  0  0  0  0  0  0  0
   -0.4953   -4.1058    0.9312 H   0  0  0  0  0  0  0  0  0  0  0  0
   -0.8625   -4.1680   -1.1957 C   0  0  0  0  0  0  0  0  0  0  0  0
   -1.3346    0.4479    0.0713 C   0  0  0  0  0  0  0  0  0  0  0  0
   -2.1845    0.8587   -0.7122 O   0  0  0  0  0  0  0  0  0  0  0  0
   -0.5560    1.3607    0.7597 N   0  0  0  0  0  0  0  0  0  0  0  0
    0.0740    0.9961    1.4687 H   0  0  0  0  0  0  0  0  0  0  0  0
   -0.7435    2.8031    0.6608 C   0  0  0  0  0  0  0  0  0  0  0  0
   -1.7429    3.0843    1.0089 H   0  0  0  0  0  0  0  0  0  0  0  0
   -0.0030    3.3241    1.2751 H   0  0  0  0  0  0  0  0  0  0  0  0
   -0.6249    3.1347   -0.3761 H   0  0  0  0  0  0  0  0  0  0  0  0
  1  2  1  0  0  0  0
  2  3  1  0  0  0  0
  2  4  1  0  0  0  0
  2  5  1  0  0  0  0
  5  6  2  0  0  0  0
  5  7  1  0  0  0  0
  7  8  1  0  0  0  0
  7  9  1  0  0  0  0
  9 10  1  0  0  0  0
  9 11  1  0  0  0  0
  9 29  1  0  0  0  0
 11 12  1  0  0  0  0
 11 13  1  0  0  0  0
 11 14  1  0  0  0  0
 14 15  2  0  0  0  0
 14 28  1  0  0  0  0
 15 16  1  0  0  0  0
 15 17  1  0  0  0  0
 17 18  1  0  0  0  0
 17 19  1  0  0  0  0
 19 20  1  0  0  0  0
 19 28  2  0  0  0  0
 20 21  1  0  0  0  0
 20 22  2  0  0  0  0
 22 23  1  0  0  0  0
 22 24  1  0  0  0  0
 24 25  1  0  0  0  0
 24 26  2  0  0  0  0
 26 27  1  0  0  0  0
 26 28  1  0  0  0  0
 29 30  2  0  0  0  0
 29 31  1  0  0  0  0
 31 32  1  0  0  0  0
 31 33  1  0  0  0  0
 33 34  1  0  0  0  0
 33 35  1  0  0  0  0
 33 36  1  0  0  0  0
M  END
$$$$

  -OEChem-03222214083D

 36 37  0     1  0  0  0  0  0999 V2000
   -4.6670   -3.8198    1.7778 H   0  0  0  0  0  0  0  0  0  0  0  0
   -4.4153   -3.1809    0.9270 C   0  0  0  0  0  0  0  0  0  0  0  0
   -5.2288   -2.4699    0.7641 H   0  0  0  0  0  0  0  0  0  0  0  0
   -4.3049   -3.8079    0.0384 H   0  0  0  0  0  0  0  0  0  0  0  0
   -3.1215   -2.4359    1.1966 C   0  0  0  0  0  0  0  0  0  0  0  0
   -2.5746   -2.5232    2.2861 O   0  0  0  0  0  0  0  0  0  0  0  0
   -2.6052   -1.5932    0.2397 N   0  0  0  0  0  0  0  0  0  0  0  0
   -3.1253   -1.5374   -0.6332 H   0  0  0  0  0  0  0  0  0  0  0  0
   -1.2539   -1.0050    0.2208 C   0  0  1  0  0  0  0  0  0  0  0  0
   -0.7928   -1.1084    1.2083 H   0  0  0  0  0  0  0  0  0  0  0  0
   -0.2815   -1.5860   -0.8633 C   0  0  0  0  0  0  0  0  0  0  0  0
   -0.1236   -0.8347   -1.6455 H   0  0  0  0  0  0  0  0  0  0  0  0
    0.6843   -1.7128   -0.3638 H   0  0  0  0  0  0  0  0  0  0  0  0
   -0.5551   -2.8908   -1.5975 C   0  0  0  0  0  0  0  0  0  0  0  0
    0.1543   -3.1598   -2.7491 C   0  0  0  0  0  0  0  0  0  0  0  0
    0.7741   -2.4389   -3.2782 H   0  0  0  0  0  0  0  0  0  0  0  0
   -0.1267   -4.4519   -3.1709 N   0  0  0  0  0  0  0  0  0  0  0  0
    0.2315   -4.8899   -4.0170 H   0  0  0  0  0  0  0  0  0  0  0  0
   -0.8102   -5.1177   -2.1788 C   0  0  0  0  0  0  0  0  0  0  0  0
   -1.1687   -6.4629   -2.0934 C   0  0  0  0  0  0  0  0  0  0  0  0
   -1.0235   -7.1253   -2.9396 H   0  0  0  0  0  0  0  0  0  0  0  0
   -1.6725   -6.9532   -0.8841 C   0  0  0  0  0  0  0  0  0  0  0  0
   -1.9511   -7.9988   -0.7917 H   0  0  0  0  0  0  0  0  0  0  0  0
   -1.7460   -6.1042    0.2267 C   0  0  0  0  0  0  0  0  0  0  0  0
   -2.0617   -6.4938    1.1901 H   0  0  0  0  0  0  0  0  0  0  0  0
   -1.3748   -4.7574    0.1095 C   0  0  0  0  0  0  0  0  0  0  0  0
   -1.3218   -4.1530    1.0020 H   0  0  0  0  0  0  0  0  0  0  0  0
   -0.9997   -4.2212   -1.1281 C   0  0  0  0  0  0  0  0  0  0  0  0
   -1.3828    0.4948   -0.1296 C   0  0  0  0  0  0  0  0  0  0  0  0
   -2.1001    0.8620   -1.0546 O   0  0  0  0  0  0  0  0  0  0  0  0
   -0.6699    1.4394    0.5867 N   0  0  0  0  0  0  0  0  0  0  0  0
   -0.1597    1.1184    1.4048 H   0  0  0  0  0  0  0  0  0  0  0  0
   -0.7815    2.8731    0.3467 C   0  0  0  0  0  0  0  0  0  0  0  0
   -1.8031    3.2158    0.5421 H   0  0  0  0  0  0  0  0  0  0  0  0
   -0.1001    3.4210    1.0048 H   0  0  0  0  0  0  0  0  0  0  0  0
   -0.5223    3.1097   -0.6907 H   0  0  0  0  0  0  0  0  0  0  0  0
  1  2  1  0  0  0  0
  2  3  1  0  0  0  0
  2  4  1  0  0  0  0
  2  5  1  0  0  0  0
  5  6  2  0  0  0  0
  5  7  1  0  0  0  0
  7  8  1  0  0  0  0
  7  9  1  0  0  0  0
  9 10  1  0  0  0  0
  9 11  1  0  0  0  0
  9 29  1  0  0  0  0
 11 12  1  0  0  0  0
 11 13  1  0  0  0  0
 11 14  1  0  0  0  0
 14 15  2  0  0  0  0
 14 28  1  0  0  0  0
 15 16  1  0  0  0  0
 15 17  1  0  0  0  0
 17 18  1  0  0  0  0
 17 19  1  0  0  0  0
 19 20  1  0  0  0  0
 19 28  2  0  0  0  0
 20 21  1  0  0  0  0
 20 22  2  0  0  0  0
 22 23  1  0  0  0  0
 22 24  1  0  0  0  0
 24 25  1  0  0  0  0
 24 26  2  0  0  0  0
 26 27  1  0  0  0  0
 26 28  1  0  0  0  0
 29 30  2  0  0  0  0
 29 31  1  0  0  0  0
 31 32  1  0  0  0  0
 31 33  1  0  0  0  0
 33 34  1  0  0  0  0
 33 35  1  0  0  0  0
 33 36  1  0  0  0  0
M  END
$$$$

  -OEChem-03222214083D

 36 37  0     1  0  0  0  0  0999 V2000
   -3.9366   -4.0986    1.4339 H   0  0  0  0  0  0  0  0  0  0  0  0
   -3.7307   -3.2153    2.0430 C   0  0  0  0  0  0  0  0  0  0  0  0
   -4.5216   -2.4782    1.8857 H   0  0  0  0  0  0  0  0  0  0  0  0
   -3.7292   -3.5076    3.0967 H   0  0  0  0  0  0  0  0  0  0  0  0
   -2.3819   -2.6286    1.6665 C   0  0  0  0  0  0  0  0  0  0  0  0
   -1.4050   -2.8893    2.3509 O   0  0  0  0  0  0  0  0  0  0  0  0
   -2.2739   -1.7529    0.6030 N   0  0  0  0  0  0  0  0  0  0  0  0
   -3.1248   -1.4721    0.1197 H   0  0  0  0  0  0  0  0  0  0  0  0
   -1.0396   -1.0662    0.2271 C   0  0  1  0  0  0  0  0  0  0  0  0
   -0.3646   -1.0709    1.0890 H   0  0  0  0  0  0  0  0  0  0  0  0
   -0.2414   -1.6451   -0.9766 C   0  0  0  0  0  0  0  0  0  0  0  0
   -0.1027   -0.8340   -1.7003 H   0  0  0  0  0  0  0  0  0  0  0  0
    0.7534   -1.8713   -0.5788 H   0  0  0  0  0  0  0  0  0  0  0  0
   -0.6361   -2.8680   -1.8086 C   0  0  0  0  0  0  0  0  0  0  0  0
    0.2545   -3.1742   -2.8164 C   0  0  0  0  0  0  0  0  0  0  0  0
    1.1958   -2.6589   -2.9938 H   0  0  0  0  0  0  0  0  0  0  0  0
   -0.2178   -4.2591   -3.5330 N   0  0  0  0  0  0  0  0  0  0  0  0
    0.2525   -4.7034   -4.3185 H   0  0  0  0  0  0  0  0  0  0  0  0
   -1.4616   -4.6146   -3.0643 C   0  0  0  0  0  0  0  0  0  0  0  0
   -2.2965   -5.6211   -3.5478 C   0  0  0  0  0  0  0  0  0  0  0  0
   -1.9692   -6.2642   -4.3571 H   0  0  0  0  0  0  0  0  0  0  0  0
   -3.5640   -5.7787   -2.9853 C   0  0  0  0  0  0  0  0  0  0  0  0
   -4.2300   -6.5571   -3.3459 H   0  0  0  0  0  0  0  0  0  0  0  0
   -3.9786   -4.9072   -1.9746 C   0  0  0  0  0  0  0  0  0  0  0  0
   -4.9756   -5.0040   -1.5557 H   0  0  0  0  0  0  0  0  0  0  0  0
   -3.1214   -3.8992   -1.5099 C   0  0  0  0  0  0  0  0  0  0  0  0
   -3.5238   -3.2298   -0.7726 H   0  0  0  0  0  0  0  0  0  0  0  0
   -1.8164   -3.7555   -2.0171 C   0  0  0  0  0  0  0  0  0  0  0  0
   -1.3682    0.4147   -0.0552 C   0  0  0  0  0  0  0  0  0  0  0  0
   -2.3853    0.7161   -0.6702 O   0  0  0  0  0  0  0  0  0  0  0  0
   -0.5607    1.4181    0.4493 N   0  0  0  0  0  0  0  0  0  0  0  0
    0.2220    1.1411    1.0353 H   0  0  0  0  0  0  0  0  0  0  0  0
   -0.8681    2.8364    0.3106 C   0  0  0  0  0  0  0  0  0  0  0  0
   -1.7982    3.0794    0.8351 H   0  0  0  0  0  0  0  0  0  0  0  0
   -0.0614    3.4412    0.7359 H   0  0  0  0  0  0  0  0  0  0  0  0
   -0.9786    3.1039   -0.7456 H   0  0  0  0  0  0  0  0  0  0  0  0
  1  2  1  0  0  0  0
  2  3  1  0  0  0  0
  2  4  1  0  0  0  0
  2  5  1  0  0  0  0
  5  6  2  0  0  0  0
  5  7  1  0  0  0  0
  7  8  1  0  0  0  0
  7  9  1  0  0  0  0
  9 10  1  0  0  0  0
  9 11  1  0  0  0  0
  9 29  1  0  0  0  0
 11 12  1  0  0  0  0
 11 13  1  0  0  0  0
 11 14  1  0  0  0  0
 14 15  2  0  0  0  0
 14 28  1  0  0  0  0
 15 16  1  0  0  0  0
 15 17  1  0  0  0  0
 17 18  1  0  0  0  0
 17 19  1  0  0  0  0
 19 20  1  0  0  0  0
 19 28  2  0  0  0  0
 20 21  1  0  0  0  0
 20 22  2  0  0  0  0
 22 23  1  0  0  0  0
 22 24  1  0  0  0  0
 24 25  1  0  0  0  0
 24 26  2  0  0  0  0
 26 27  1  0  0  0  0
 26 28  1  0  0  0  0
 29 30  2  0  0  0  0
 29 31  1  0  0  0  0
 31 32  1  0  0  0  0
 31 33  1  0  0  0  0
 33 34  1  0  0  0  0
 33 35  1  0  0  0  0
 33 36  1  0  0  0  0
M  END
$$$$

  -OEChem-03222214083D

 36 37  0     1  0  0  0  0  0999 V2000
   -3.1338   -4.3592    2.7135 H   0  0  0  0  0  0  0  0  0  0  0  0
   -3.2729   -3.7578    1.8111 C   0  0  0  0  0  0  0  0  0  0  0  0
   -4.2062   -3.1972    1.9001 H   0  0  0  0  0  0  0  0  0  0  0  0
   -3.3377   -4.4258    0.9483 H   0  0  0  0  0  0  0  0  0  0  0  0
   -2.1083   -2.8031    1.6336 C   0  0  0  0  0  0  0  0  0  0  0  0
   -1.1736   -2.8222    2.4199 O   0  0  0  0  0  0  0  0  0  0  0  0
   -2.1122   -1.9215    0.5750 N   0  0  0  0  0  0  0  0  0  0  0  0
   -2.9143   -1.9471   -0.0431 H   0  0  0  0  0  0  0  0  0  0  0  0
   -0.9833   -1.0664    0.1929 C   0  0  1  0  0  0  0  0  0  0  0  0
   -0.3022   -0.9818    1.0454 H   0  0  0  0  0  0  0  0  0  0  0  0
   -0.1501   -1.5966   -1.0104 C   0  0  0  0  0  0  0  0  0  0  0  0
   -0.1460   -0.8296   -1.7921 H   0  0  0  0  0  0  0  0  0  0  0  0
    0.8845   -1.7002   -0.6686 H   0  0  0  0  0  0  0  0  0  0  0  0
   -0.5430   -2.8992   -1.6942 C   0  0  0  0  0  0  0  0  0  0  0  0
    0.3568   -3.5337   -2.5220 C   0  0  0  0  0  0  0  0  0  0  0  0
    1.4114   -3.2800   -2.6046 H   0  0  0  0  0  0  0  0  0  0  0  0
   -0.2793   -4.5907   -3.1586 N   0  0  0  0  0  0  0  0  0  0  0  0
    0.1642   -5.2520   -3.7922 H   0  0  0  0  0  0  0  0  0  0  0  0
   -1.6375   -4.5105   -2.9420 C   0  0  0  0  0  0  0  0  0  0  0  0
   -2.6706   -5.2696   -3.4906 C   0  0  0  0  0  0  0  0  0  0  0  0
   -2.4492   -6.1331   -4.1079 H   0  0  0  0  0  0  0  0  0  0  0  0
   -3.9941   -4.8758   -3.2684 C   0  0  0  0  0  0  0  0  0  0  0  0
   -4.8131   -5.4496   -3.6924 H   0  0  0  0  0  0  0  0  0  0  0  0
   -4.2549   -3.7022   -2.5518 C   0  0  0  0  0  0  0  0  0  0  0  0
   -5.2770   -3.3533   -2.4392 H   0  0  0  0  0  0  0  0  0  0  0  0
   -3.1996   -2.9554   -2.0107 C   0  0  0  0  0  0  0  0  0  0  0  0
   -3.4333   -2.0000   -1.5583 H   0  0  0  0  0  0  0  0  0  0  0  0
   -1.8711   -3.4070   -2.1228 C   0  0  0  0  0  0  0  0  0  0  0  0
   -1.4951    0.3586   -0.0984 C   0  0  0  0  0  0  0  0  0  0  0  0
   -2.5186    0.5218   -0.7544 O   0  0  0  0  0  0  0  0  0  0  0  0
   -0.8256    1.4618    0.3996 N   0  0  0  0  0  0  0  0  0  0  0  0
   -0.0368    1.2912    1.0169 H   0  0  0  0  0  0  0  0  0  0  0  0
   -1.3150    2.8266    0.2467 C   0  0  0  0  0  0  0  0  0  0  0  0
   -2.2751    2.9484    0.7590 H   0  0  0  0  0  0  0  0  0  0  0  0
   -0.6002    3.5348    0.6764 H   0  0  0  0  0  0  0  0  0  0  0  0
   -1.4474    3.0715   -0.8124 H   0  0  0  0  0  0  0  0  0  0  0  0
  1  2  1  0  0  0  0
  2  3  1  0  0  0  0
  2  4  1  0  0  0  0
  2  5  1  0  0  0  0
  5  6  2  0  0  0  0
  5  7  1  0  0  0  0
  7  8  1  0  0  0  0
  7  9  1  0  0  0  0
  9 10  1  0  0  0  0
  9 11  1  0  0  0  0
  9 29  1  0  0  0  0
 11 12  1  0  0  0  0
 11 13  1  0  0  0  0
 11 14  1  0  0  0  0
 14 15  2  0  0  0  0
 14 28  1  0  0  0  0
 15 16  1  0  0  0  0
 15 17  1  0  0  0  0
 17 18  1  0  0  0  0
 17 19  1  0  0  0  0
 19 20  1  0  0  0  0
 19 28  2  0  0  0  0
 20 21  1  0  0  0  0
 20 22  2  0  0  0  0
 22 23  1  0  0  0  0
 22 24  1  0  0  0  0
 24 25  1  0  0  0  0
 24 26  2  0  0  0  0
 26 27  1  0  0  0  0
 26 28  1  0  0  0  0
 29 30  2  0  0  0  0
 29 31  1  0  0  0  0
 31 32  1  0  0  0  0
 31 33  1  0  0  0  0
 33 34  1  0  0  0  0
 33 35  1  0  0  0  0
 33 36  1  0  0  0  0
M  END
$$$$

  -OEChem-03222214083D

 36 37  0     1  0  0  0  0  0999 V2000
   -3.2694   -4.6186    2.2750 H   0  0  0  0  0  0  0  0  0  0  0  0
   -3.3723   -3.9240    1.4368 C   0  0  0  0  0  0  0  0  0  0  0  0
   -4.3299   -3.4050    1.5224 H   0  0  0  0  0  0  0  0  0  0  0  0
   -3.3566   -4.4924    0.5032 H   0  0  0  0  0  0  0  0  0  0  0  0
   -2.2363   -2.9192    1.4460 C   0  0  0  0  0  0  0  0  0  0  0  0
   -1.3802   -2.9685    2.3163 O   0  0  0  0  0  0  0  0  0  0  0  0
   -2.1757   -1.9621    0.4567 N   0  0  0  0  0  0  0  0  0  0  0  0
   -2.8544   -2.0539   -0.2923 H   0  0  0  0  0  0  0  0  0  0  0  0
   -1.0043   -1.1119    0.1970 C   0  0  1  0  0  0  0  0  0  0  0  0
   -0.3564   -1.1231    1.0786 H   0  0  0  0  0  0  0  0  0  0  0  0
   -0.1494   -1.5956   -1.0096 C   0  0  0  0  0  0  0  0  0  0  0  0
   -0.0948   -0.7891   -1.7488 H   0  0  0  0  0  0  0  0  0  0  0  0
    0.8715   -1.7652   -0.6532 H   0  0  0  0  0  0  0  0  0  0  0  0
   -0.6109   -2.8363   -1.7553 C   0  0  0  0  0  0  0  0  0  0  0  0
    0.2758   -3.6918   -2.3675 C   0  0  0  0  0  0  0  0  0  0  0  0
    1.3573   -3.6560   -2.2570 H   0  0  0  0  0  0  0  0  0  0  0  0
   -0.4448   -4.6230   -3.1059 N   0  0  0  0  0  0  0  0  0  0  0  0
   -0.0425   -5.3893   -3.6415 H   0  0  0  0  0  0  0  0  0  0  0  0
   -1.7821   -4.2796   -3.1204 C   0  0  0  0  0  0  0  0  0  0  0  0
   -2.8547   -4.8530   -3.8027 C   0  0  0  0  0  0  0  0  0  0  0  0
   -2.7122   -5.7570   -4.3845 H   0  0  0  0  0  0  0  0  0  0  0  0
   -4.1072   -4.2300   -3.7491 C   0  0  0  0  0  0  0  0  0  0  0  0
   -4.9519   -4.6601   -4.2792 H   0  0  0  0  0  0  0  0  0  0  0  0
   -4.2575   -3.0269   -3.0468 C   0  0  0  0  0  0  0  0  0  0  0  0
   -5.2165   -2.5169   -3.0444 H   0  0  0  0  0  0  0  0  0  0  0  0
   -3.1681   -2.4642   -2.3675 C   0  0  0  0  0  0  0  0  0  0  0  0
   -3.2908   -1.4995   -1.8863 H   0  0  0  0  0  0  0  0  0  0  0  0
   -1.9299   -3.1283   -2.3511 C   0  0  0  0  0  0  0  0  0  0  0  0
   -1.4314    0.3559   -0.0107 C   0  0  0  0  0  0  0  0  0  0  0  0
   -2.3815    0.6302   -0.7352 O   0  0  0  0  0  0  0  0  0  0  0  0
   -0.7375    1.3816    0.6058 N   0  0  0  0  0  0  0  0  0  0  0  0
   -0.0061    1.1250    1.2628 H   0  0  0  0  0  0  0  0  0  0  0  0
   -1.1149    2.7846    0.4853 C   0  0  0  0  0  0  0  0  0  0  0  0
   -2.1216    2.9463    0.8849 H   0  0  0  0  0  0  0  0  0  0  0  0
   -0.4153    3.4137    1.0438 H   0  0  0  0  0  0  0  0  0  0  0  0
   -1.0970    3.0976   -0.5641 H   0  0  0  0  0  0  0  0  0  0  0  0
  1  2  1  0  0  0  0
  2  3  1  0  0  0  0
  2  4  1  0  0  0  0
  2  5  1  0  0  0  0
  5  6  2  0  0  0  0
  5  7  1  0  0  0  0
  7  8  1  0  0  0  0
  7  9  1  0  0  0  0
  9 10  1  0  0  0  0
  9 11  1  0  0  0  0
  9 29  1  0  0  0  0
 11 12  1  0  0  0  0
 11 13  1  0  0  0  0
 11 14  1  0  0  0  0
 14 15  2  0  0  0  0
 14 28  1  0  0  0  0
 15 16  1  0  0  0  0
 15 17  1  0  0  0  0
 17 18  1  0  0  0  0
 17 19  1  0  0  0  0
 19 20  1  0  0  0  0
 19 28  2  0  0  0  0
 20 21  1  0  0  0  0
 20 22  2  0  0  0  0
 22 23  1  0  0  0  0
 22 24  1  0  0  0  0
 24 25  1  0  0  0  0
 24 26  2  0  0  0  0
 26 27  1  0  0  0  0
 26 28  1  0  0  0  0
 29 30  2  0  0  0  0
 29 31  1  0  0  0  0
 31 32  1  0  0  0  0
 31 33  1  0  0  0  0
 33 34  1  0  0  0  0
 33 35  1  0  0  0  0
 33 36  1  0  0  0  0
M  END
$$$$

  -OEChem-03222214083D

 36 37  0     1  0  0  0  0  0999 V2000
   -3.4558   -4.6628    1.8741 H   0  0  0  0  0  0  0  0  0  0  0  0
   -3.5161   -3.9131    1.0805 C   0  0  0  0  0  0  0  0  0  0  0  0
   -4.4791   -3.4015    1.1496 H   0  0  0  0  0  0  0  0  0  0  0  0
   -3.4474   -4.4171    0.1127 H   0  0  0  0  0  0  0  0  0  0  0  0
   -2.3863   -2.9108    1.2189 C   0  0  0  0  0  0  0  0  0  0  0  0
   -1.5981   -2.9983    2.1484 O   0  0  0  0  0  0  0  0  0  0  0  0
   -2.2489   -1.9170    0.2749 N   0  0  0  0  0  0  0  0  0  0  0  0
   -2.8593   -1.9879   -0.5351 H   0  0  0  0  0  0  0  0  0  0  0  0
   -1.0540   -1.0697    0.1302 C   0  0  1  0  0  0  0  0  0  0  0  0
   -0.4714   -1.1241    1.0548 H   0  0  0  0  0  0  0  0  0  0  0  0
   -0.1244   -1.5413   -1.0239 C   0  0  0  0  0  0  0  0  0  0  0  0
   -0.0079   -0.7266   -1.7464 H   0  0  0  0  0  0  0  0  0  0  0  0
    0.8675   -1.7385   -0.6059 H   0  0  0  0  0  0  0  0  0  0  0  0
   -0.5792   -2.7623   -1.8017 C   0  0  0  0  0  0  0  0  0  0  0  0
    0.2481   -3.8087   -2.1350 C   0  0  0  0  0  0  0  0  0  0  0  0
    1.2800   -3.9227   -1.8106 H   0  0  0  0  0  0  0  0  0  0  0  0
   -0.4741   -4.6961   -2.9271 N   0  0  0  0  0  0  0  0  0  0  0  0
   -0.1162   -5.5692   -3.3092 H   0  0  0  0  0  0  0  0  0  0  0  0
   -1.7324   -4.1864   -3.1920 C   0  0  0  0  0  0  0  0  0  0  0  0
   -2.7784   -4.6842   -3.9688 C   0  0  0  0  0  0  0  0  0  0  0  0
   -2.6866   -5.6481   -4.4571 H   0  0  0  0  0  0  0  0  0  0  0  0
   -3.9402   -3.9164   -4.1217 C   0  0  0  0  0  0  0  0  0  0  0  0
   -4.7623   -4.2883   -4.7261 H   0  0  0  0  0  0  0  0  0  0  0  0
   -4.0311   -2.6552   -3.5158 C   0  0  0  0  0  0  0  0  0  0  0  0
   -4.9199   -2.0473   -3.6581 H   0  0  0  0  0  0  0  0  0  0  0  0
   -2.9722   -2.1672   -2.7385 C   0  0  0  0  0  0  0  0  0  0  0  0
   -3.0395   -1.1755   -2.3035 H   0  0  0  0  0  0  0  0  0  0  0  0
   -1.8293   -2.9571   -2.5477 C   0  0  0  0  0  0  0  0  0  0  0  0
   -1.4315    0.4150   -0.0501 C   0  0  0  0  0  0  0  0  0  0  0  0
   -2.3169    0.7455   -0.8304 O   0  0  0  0  0  0  0  0  0  0  0  0
   -0.7579    1.3958    0.6555 N   0  0  0  0  0  0  0  0  0  0  0  0
   -0.0808    1.0930    1.3500 H   0  0  0  0  0  0  0  0  0  0  0  0
   -1.0863    2.8132    0.5635 C   0  0  0  0  0  0  0  0  0  0  0  0
   -2.1293    2.9854    0.8502 H   0  0  0  0  0  0  0  0  0  0  0  0
   -0.4437    3.3942    1.2319 H   0  0  0  0  0  0  0  0  0  0  0  0
   -0.9378    3.1746   -0.4595 H   0  0  0  0  0  0  0  0  0  0  0  0
  1  2  1  0  0  0  0
  2  3  1  0  0  0  0
  2  4  1  0  0  0  0
  2  5  1  0  0  0  0
  5  6  2  0  0  0  0
  5  7  1  0  0  0  0
  7  8  1  0  0  0  0
  7  9  1  0  0  0  0
  9 10  1  0  0  0  0
  9 11  1  0  0  0  0
  9 29  1  0  0  0  0
 11 12  1  0  0  0  0
 11 13  1  0  0  0  0
 11 14  1  0  0  0  0
 14 15  2  0  0  0  0
 14 28  1  0  0  0  0
 15 16  1  0  0  0  0
 15 17  1  0  0  0  0
 17 18  1  0  0  0  0
 17 19  1  0  0  0  0
 19 20  1  0  0  0  0
 19 28  2  0  0  0  0
 20 21  1  0  0  0  0
 20 22  2  0  0  0  0
 22 23  1  0  0  0  0
 22 24  1  0  0  0  0
 24 25  1  0  0  0  0
 24 26  2  0  0  0  0
 26 27  1  0  0  0  0
 26 28  1  0  0  0  0
 29 30  2  0  0  0  0
 29 31  1  0  0  0  0
 31 32  1  0  0  0  0
 31 33  1  0  0  0  0
 33 34  1  0  0  0  0
 33 35  1  0  0  0  0
 33 36  1  0  0  0  0
M  END
$$$$

  -OEChem-03222214083D

 36 37  0     1  0  0  0  0  0999 V2000
   -3.5423   -4.6938    1.5644 H   0  0  0  0  0  0  0  0  0  0  0  0
   -3.5713   -3.9067    0.8061 C   0  0  0  0  0  0  0  0  0  0  0  0
   -4.5347   -3.3946    0.8628 H   0  0  0  0  0  0  0  0  0  0  0  0
   -3.4669   -4.3641   -0.1815 H   0  0  0  0  0  0  0  0  0  0  0  0
   -2.4459   -2.9160    1.0341 C   0  0  0  0  0  0  0  0  0  0  0  0
   -1.6967   -3.0454    1.9908 O   0  0  0  0  0  0  0  0  0  0  0  0
   -2.2565   -1.8954    0.1290 N   0  0  0  0  0  0  0  0  0  0  0  0
   -2.8333   -1.9279   -0.7091 H   0  0  0  0  0  0  0  0  0  0  0  0
   -1.0538   -1.0478    0.0663 C   0  0  1  0  0  0  0  0  0  0  0  0
   -0.5187   -1.1314    1.0174 H   0  0  0  0  0  0  0  0  0  0  0  0
   -0.0746   -1.5061   -1.0497 C   0  0  0  0  0  0  0  0  0  0  0  0
    0.0888   -0.6846   -1.7552 H   0  0  0  0  0  0  0  0  0  0  0  0
    0.8933   -1.7270   -0.5893 H   0  0  0  0  0  0  0  0  0  0  0  0
   -0.5267   -2.7117   -1.8488 C   0  0  0  0  0  0  0  0  0  0  0  0
    0.1581   -3.9000   -1.9316 C   0  0  0  0  0  0  0  0  0  0  0  0
    1.0841   -4.1317   -1.4099 H   0  0  0  0  0  0  0  0  0  0  0  0
   -0.5587   -4.7477   -2.7722 N   0  0  0  0  0  0  0  0  0  0  0  0
   -0.2934   -5.7011   -3.0106 H   0  0  0  0  0  0  0  0  0  0  0  0
   -1.6764   -4.1002   -3.2709 C   0  0  0  0  0  0  0  0  0  0  0  0
   -2.6743   -4.5226   -4.1494 C   0  0  0  0  0  0  0  0  0  0  0  0
   -2.6572   -5.5282   -4.5551 H   0  0  0  0  0  0  0  0  0  0  0  0
   -3.6930   -3.6284   -4.5062 C   0  0  0  0  0  0  0  0  0  0  0  0
   -4.4757   -3.9417   -5.1907 H   0  0  0  0  0  0  0  0  0  0  0  0
   -3.6946   -2.3239   -3.9908 C   0  0  0  0  0  0  0  0  0  0  0  0
   -4.4758   -1.6268   -4.2794 H   0  0  0  0  0  0  0  0  0  0  0  0
   -2.6853   -1.9105   -3.1102 C   0  0  0  0  0  0  0  0  0  0  0  0
   -2.6801   -0.8942   -2.7292 H   0  0  0  0  0  0  0  0  0  0  0  0
   -1.6832   -2.8152   -2.7393 C   0  0  0  0  0  0  0  0  0  0  0  0
   -1.4099    0.4442   -0.0901 C   0  0  0  0  0  0  0  0  0  0  0  0
   -2.2572    0.8034   -0.8993 O   0  0  0  0  0  0  0  0  0  0  0  0
   -0.7640    1.3986    0.6753 N   0  0  0  0  0  0  0  0  0  0  0  0
   -0.1167    1.0712    1.3866 H   0  0  0  0  0  0  0  0  0  0  0  0
   -1.0765    2.8208    0.6089 C   0  0  0  0  0  0  0  0  0  0  0  0
   -2.1320    2.9929    0.8445 H   0  0  0  0  0  0  0  0  0  0  0  0
   -0.4670    3.3760    1.3285 H   0  0  0  0  0  0  0  0  0  0  0  0
   -0.8706    3.2119   -0.3930 H   0  0  0  0  0  0  0  0  0  0  0  0
  1  2  1  0  0  0  0
  2  3  1  0  0  0  0
  2  4  1  0  0  0  0
  2  5  1  0  0  0  0
  5  6  2  0  0  0  0
  5  7  1  0  0  0  0
  7  8  1  0  0  0  0
  7  9  1  0  0  0  0
  9 10  1  0  0  0  0
  9 11  1  0  0  0  0
  9 29  1  0  0  0  0
 11 12  1  0  0  0  0
 11 13  1  0  0  0  0
 11 14  1  0  0  0  0
 14 15  2  0  0  0  0
 14 28  1  0  0  0  0
 15 16  1  0  0  0  0
 15 17  1  0  0  0  0
 17 18  1  0  0  0  0
 17 19  1  0  0  0  0
 19 20  1  0  0  0  0
 19 28  2  0  0  0  0
 20 21  1  0  0  0  0
 20 22  2  0  0  0  0
 22 23  1  0  0  0  0
 22 24  1  0  0  0  0
 24 25  1  0  0  0  0
 24 26  2  0  0  0  0
 26 27  1  0  0  0  0
 26 28  1  0  0  0  0
 29 30  2  0  0  0  0
 29 31  1  0  0  0  0
 31 32  1  0  0  0  0
 31 33  1  0  0  0  0
 33 34  1  0  0  0  0
 33 35  1  0  0  0  0
 33 36  1  0  0  0  0
M  END
$$$$

  -OEChem-03222214083D

 36 37  0     1  0  0  0  0  0999 V2000
   -3.6199   -4.6838    1.4200 H   0  0  0  0  0  0  0  0  0  0  0  0
   -3.6185   -3.8883    0.6698 C   0  0  0  0  0  0  0  0  0  0  0  0
   -4.5679   -3.3503    0.7220 H   0  0  0  0  0  0  0  0  0  0  0  0
   -3.5165   -4.3376   -0.3214 H   0  0  0  0  0  0  0  0  0  0  0  0
   -2.4689   -2.9319    0.9220 C   0  0  0  0  0  0  0  0  0  0  0  0
   -1.7410   -3.0892    1.8908 O   0  0  0  0  0  0  0  0  0  0  0  0
   -2.2336   -1.9084    0.0311 N   0  0  0  0  0  0  0  0  0  0  0  0
   -2.7899   -1.9118   -0.8219 H   0  0  0  0  0  0  0  0  0  0  0  0
   -1.0297   -1.0594    0.0288 C   0  0  1  0  0  0  0  0  0  0  0  0
   -0.5349   -1.1451    1.0010 H   0  0  0  0  0  0  0  0  0  0  0  0
   -0.0077   -1.5047   -1.0521 C   0  0  0  0  0  0  0  0  0  0  0  0
    0.2001   -0.6788   -1.7406 H   0  0  0  0  0  0  0  0  0  0  0  0
    0.9348   -1.7488   -0.5522 H   0  0  0  0  0  0  0  0  0  0  0  0
   -0.4490   -2.6993   -1.8676 C   0  0  0  0  0  0  0  0  0  0  0  0
    0.0292   -3.9807   -1.7383 C   0  0  0  0  0  0  0  0  0  0  0  0
    0.7940   -4.3015   -1.0339 H   0  0  0  0  0  0  0  0  0  0  0  0
   -0.6596   -4.7814   -2.6472 N   0  0  0  0  0  0  0  0  0  0  0  0
   -0.5134   -5.7804   -2.7780 H   0  0  0  0  0  0  0  0  0  0  0  0
   -1.5727   -4.0243   -3.3637 C   0  0  0  0  0  0  0  0  0  0  0  0
   -2.4835   -4.3661   -4.3635 C   0  0  0  0  0  0  0  0  0  0  0  0
   -2.5584   -5.3912   -4.7088 H   0  0  0  0  0  0  0  0  0  0  0  0
   -3.2989   -3.3676   -4.9148 C   0  0  0  0  0  0  0  0  0  0  0  0
   -4.0128   -3.6177   -5.6941 H   0  0  0  0  0  0  0  0  0  0  0  0
   -3.1910   -2.0429   -4.4643 C   0  0  0  0  0  0  0  0  0  0  0  0
   -3.8200   -1.2688   -4.8942 H   0  0  0  0  0  0  0  0  0  0  0  0
   -2.2702   -1.7104   -3.4612 C   0  0  0  0  0  0  0  0  0  0  0  0
   -2.1826   -0.6847   -3.1161 H   0  0  0  0  0  0  0  0  0  0  0  0
   -1.4659   -2.7140   -2.9124 C   0  0  0  0  0  0  0  0  0  0  0  0
   -1.3901    0.4300   -0.1417 C   0  0  0  0  0  0  0  0  0  0  0  0
   -2.1979    0.7829   -0.9934 O   0  0  0  0  0  0  0  0  0  0  0  0
   -0.7901    1.3889    0.6547 N   0  0  0  0  0  0  0  0  0  0  0  0
   -0.1789    1.0654    1.3991 H   0  0  0  0  0  0  0  0  0  0  0  0
   -1.1084    2.8093    0.5718 C   0  0  0  0  0  0  0  0  0  0  0  0
   -2.1728    2.9765    0.7678 H   0  0  0  0  0  0  0  0  0  0  0  0
   -0.5289    3.3705    1.3110 H   0  0  0  0  0  0  0  0  0  0  0  0
   -0.8676    3.1980   -0.4232 H   0  0  0  0  0  0  0  0  0  0  0  0
  1  2  1  0  0  0  0
  2  3  1  0  0  0  0
  2  4  1  0  0  0  0
  2  5  1  0  0  0  0
  5  6  2  0  0  0  0
  5  7  1  0  0  0  0
  7  8  1  0  0  0  0
  7  9  1  0  0  0  0
  9 10  1  0  0  0  0
  9 11  1  0  0  0  0
  9 29  1  0  0  0  0
 11 12  1  0  0  0  0
 11 13  1  0  0  0  0
 11 14  1  0  0  0  0
 14 15  2  0  0  0  0
 14 28  1  0  0  0  0
 15 16  1  0  0  0  0
 15 17  1  0  0  0  0
 17 18  1  0  0  0  0
 17 19  1  0  0  0  0
 19 20  1  0  0  0  0
 19 28  2  0  0  0  0
 20 21  1  0  0  0  0
 20 22  2  0  0  0  0
 22 23  1  0  0  0  0
 22 24  1  0  0  0  0
 24 25  1  0  0  0  0
 24 26  2  0  0  0  0
 26 27  1  0  0  0  0
 26 28  1  0  0  0  0
 29 30  2  0  0  0  0
 29 31  1  0  0  0  0
 31 32  1  0  0  0  0
 31 33  1  0  0  0  0
 33 34  1  0  0  0  0
 33 35  1  0  0  0  0
 33 36  1  0  0  0  0
M  END
$$$$

  -OEChem-03222214083D

 36 37  0     1  0  0  0  0  0999 V2000
   -3.6955   -4.6512    1.3868 H   0  0  0  0  0  0  0  0  0  0  0  0
   -3.6669   -3.8555    0.6374 C   0  0  0  0  0  0  0  0  0  0  0  0
   -4.5941   -3.2804    0.6959 H   0  0  0  0  0  0  0  0  0  0  0  0
   -3.5876   -4.3072   -0.3548 H   0  0  0  0  0  0  0  0  0  0  0  0
   -2.4796   -2.9451    0.8841 C   0  0  0  0  0  0  0  0  0  0  0  0
   -1.7485   -3.1362    1.8443 O   0  0  0  0  0  0  0  0  0  0  0  0
   -2.2093   -1.9294   -0.0052 N   0  0  0  0  0  0  0  0  0  0  0  0
   -2.7776   -1.8906   -0.8496 H   0  0  0  0  0  0  0  0  0  0  0  0
   -1.0048   -1.0820    0.0214 C   0  0  1  0  0  0  0  0  0  0  0  0
   -0.5327   -1.1609    1.0055 H   0  0  0  0  0  0  0  0  0  0  0  0
    0.0384   -1.5192   -1.0399 C   0  0  0  0  0  0  0  0  0  0  0  0
    0.2756   -0.6897   -1.7144 H   0  0  0  0  0  0  0  0  0  0  0  0
    0.9650   -1.7782   -0.5182 H   0  0  0  0  0  0  0  0  0  0  0  0
   -0.3909   -2.7068   -1.8683 C   0  0  0  0  0  0  0  0  0  0  0  0
   -0.1541   -4.0280   -1.5751 C   0  0  0  0  0  0  0  0  0  0  0  0
    0.4063   -4.3922   -0.7161 H   0  0  0  0  0  0  0  0  0  0  0  0
   -0.7766   -4.7946   -2.5587 N   0  0  0  0  0  0  0  0  0  0  0  0
   -0.7609   -5.8112   -2.6086 H   0  0  0  0  0  0  0  0  0  0  0  0
   -1.4287   -3.9765   -3.4686 C   0  0  0  0  0  0  0  0  0  0  0  0
   -2.1936   -4.2621   -4.5998 C   0  0  0  0  0  0  0  0  0  0  0  0
   -2.3509   -5.2893   -4.9093 H   0  0  0  0  0  0  0  0  0  0  0  0
   -2.7577   -3.2046   -5.3281 C   0  0  0  0  0  0  0  0  0  0  0  0
   -3.3555   -3.4110   -6.2109 H   0  0  0  0  0  0  0  0  0  0  0  0
   -2.5542   -1.8781   -4.9162 C   0  0  0  0  0  0  0  0  0  0  0  0
   -2.9962   -1.0601   -5.4774 H   0  0  0  0  0  0  0  0  0  0  0  0
   -1.7816   -1.6019   -3.7794 C   0  0  0  0  0  0  0  0  0  0  0  0
   -1.6275   -0.5775   -3.4522 H   0  0  0  0  0  0  0  0  0  0  0  0
   -1.2161   -2.6632   -3.0663 C   0  0  0  0  0  0  0  0  0  0  0  0
   -1.3714    0.4021   -0.1754 C   0  0  0  0  0  0  0  0  0  0  0  0
   -2.1456    0.7365   -1.0653 O   0  0  0  0  0  0  0  0  0  0  0  0
   -0.8043    1.3755    0.6274 N   0  0  0  0  0  0  0  0  0  0  0  0
   -0.2158    1.0668    1.3960 H   0  0  0  0  0  0  0  0  0  0  0  0
   -1.1209    2.7933    0.5080 C   0  0  0  0  0  0  0  0  0  0  0  0
   -2.1867    2.9643    0.6923 H   0  0  0  0  0  0  0  0  0  0  0  0
   -0.5456    3.3715    1.2376 H   0  0  0  0  0  0  0  0  0  0  0  0
   -0.8728    3.1581   -0.4944 H   0  0  0  0  0  0  0  0  0  0  0  0
  1  2  1  0  0  0  0
  2  3  1  0  0  0  0
  2  4  1  0  0  0  0
  2  5  1  0  0  0  0
  5  6  2  0  0  0  0
  5  7  1  0  0  0  0
  7  8  1  0  0  0  0
  7  9  1  0  0  0  0
  9 10  1  0  0  0  0
  9 11  1  0  0  0  0
  9 29  1  0  0  0  0
 11 12  1  0  0  0  0
 11 13  1  0  0  0  0
 11 14  1  0  0  0  0
 14 15  2  0  0  0  0
 14 28  1  0  0  0  0
 15 16  1  0  0  0  0
 15 17  1  0  0  0  0
 17 18  1  0  0  0  0
 17 19  1  0  0  0  0
 19 20  1  0  0  0  0
 19 28  2  0  0  0  0
 20 21  1  0  0  0  0
 20 22  2  0  0  0  0
 22 23  1  0  0  0  0
 22 24  1  0  0  0  0
 24 25  1  0  0  0  0
 24 26  2  0  0  0  0
 26 27  1  0  0  0  0
 26 28  1  0  0  0  0
 29 30  2  0  0  0  0
 29 31  1  0  0  0  0
 31 32  1  0  0  0  0
 31 33  1  0  0  0  0
 33 34  1  0  0  0  0
 33 35  1  0  0  0  0
 33 36  1  0  0  0  0
M  END
$$$$

  -OEChem-03222214083D

 36 37  0     1  0  0  0  0  0999 V2000
   -3.7753   -4.5823    1.4596 H   0  0  0  0  0  0  0  0  0  0  0  0
   -3.7332   -3.7925    0.7044 C   0  0  0  0  0  0  0  0  0  0  0  0
   -4.6234   -3.1658    0.7980 H   0  0  0  0  0  0  0  0  0  0  0  0
   -3.7214   -4.2515   -0.2876 H   0  0  0  0  0  0  0  0  0  0  0  0
   -2.4869   -2.9501    0.8954 C   0  0  0  0  0  0  0  0  0  0  0  0
   -1.7071   -3.2031    1.8011 O   0  0  0  0  0  0  0  0  0  0  0  0
   -2.2139   -1.9323    0.0097 N   0  0  0  0  0  0  0  0  0  0  0  0
   -2.8462   -1.8170   -0.7803 H   0  0  0  0  0  0  0  0  0  0  0  0
   -1.0042   -1.0927    0.0211 C   0  0  1  0  0  0  0  0  0  0  0  0
   -0.5253   -1.1756    1.0018 H   0  0  0  0  0  0  0  0  0  0  0  0
    0.0348   -1.5244   -1.0466 C   0  0  0  0  0  0  0  0  0  0  0  0
    0.2709   -0.6871   -1.7115 H   0  0  0  0  0  0  0  0  0  0  0  0
    0.9629   -1.7849   -0.5288 H   0  0  0  0  0  0  0  0  0  0  0  0
   -0.3783   -2.7102   -1.8872 C   0  0  0  0  0  0  0  0  0  0  0  0
   -0.3867   -4.0226   -1.4770 C   0  0  0  0  0  0  0  0  0  0  0  0
   -0.0587   -4.3771   -0.5009 H   0  0  0  0  0  0  0  0  0  0  0  0
   -0.9006   -4.7887   -2.5210 N   0  0  0  0  0  0  0  0  0  0  0  0
   -1.0082   -5.8009   -2.5097 H   0  0  0  0  0  0  0  0  0  0  0  0
   -1.2475   -3.9757   -3.5888 C   0  0  0  0  0  0  0  0  0  0  0  0
   -1.8092   -4.2634   -4.8330 C   0  0  0  0  0  0  0  0  0  0  0  0
   -2.0373   -5.2875   -5.1068 H   0  0  0  0  0  0  0  0  0  0  0  0
   -2.0782   -3.2120   -5.7210 C   0  0  0  0  0  0  0  0  0  0  0  0
   -2.5174   -3.4206   -6.6920 H   0  0  0  0  0  0  0  0  0  0  0  0
   -1.7879   -1.8888   -5.3541 C   0  0  0  0  0  0  0  0  0  0  0  0
   -2.0042   -1.0751   -6.0400 H   0  0  0  0  0  0  0  0  0  0  0  0
   -1.2213   -1.6109   -4.1017 C   0  0  0  0  0  0  0  0  0  0  0  0
   -1.0047   -0.5879   -3.8090 H   0  0  0  0  0  0  0  0  0  0  0  0
   -0.9454   -2.6672   -3.2276 C   0  0  0  0  0  0  0  0  0  0  0  0
   -1.3685    0.3928   -0.1673 C   0  0  0  0  0  0  0  0  0  0  0  0
   -2.1691    0.7285   -1.0326 O   0  0  0  0  0  0  0  0  0  0  0  0
   -0.7863    1.3625    0.6289 N   0  0  0  0  0  0  0  0  0  0  0  0
   -0.1721    1.0516    1.3762 H   0  0  0  0  0  0  0  0  0  0  0  0
   -1.1014    2.7816    0.5193 C   0  0  0  0  0  0  0  0  0  0  0  0
   -2.1643    2.9549    0.7182 H   0  0  0  0  0  0  0  0  0  0  0  0
   -0.5154    3.3559    1.2434 H   0  0  0  0  0  0  0  0  0  0  0  0
   -0.8656    3.1494   -0.4849 H   0  0  0  0  0  0  0  0  0  0  0  0
  1  2  1  0  0  0  0
  2  3  1  0  0  0  0
  2  4  1  0  0  0  0
  2  5  1  0  0  0  0
  5  6  2  0  0  0  0
  5  7  1  0  0  0  0
  7  8  1  0  0  0  0
  7  9  1  0  0  0  0
  9 10  1  0  0  0  0
  9 11  1  0  0  0  0
  9 29  1  0  0  0  0
 11 12  1  0  0  0  0
 11 13  1  0  0  0  0
 11 14  1  0  0  0  0
 14 15  2  0  0  0  0
 14 28  1  0  0  0  0
 15 16  1  0  0  0  0
 15 17  1  0  0  0  0
 17 18  1  0  0  0  0
 17 19  1  0  0  0  0
 19 20  1  0  0  0  0
 19 28  2  0  0  0  0
 20 21  1  0  0  0  0
 20 22  2  0  0  0  0
 22 23  1  0  0  0  0
 22 24  1  0  0  0  0
 24 25  1  0  0  0  0
 24 26  2  0  0  0  0
 26 27  1  0  0  0  0
 26 28  1  0  0  0  0
 29 30  2  0  0  0  0
 29 31  1  0  0  0  0
 31 32  1  0  0  0  0
 31 33  1  0  0  0  0
 33 34  1  0  0  0  0
 33 35  1  0  0  0  0
 33 36  1  0  0  0  0
M  END
$$$$

  -OEChem-03222214083D

 36 37  0     1  0  0  0  0  0999 V2000
   -3.8610   -4.4903    1.6414 H   0  0  0  0  0  0  0  0  0  0  0  0
   -3.8156   -3.7181    0.8685 C   0  0  0  0  0  0  0  0  0  0  0  0
   -4.6636   -3.0409    0.9964 H   0  0  0  0  0  0  0  0  0  0  0  0
   -3.8849   -4.1946   -0.1126 H   0  0  0  0  0  0  0  0  0  0  0  0
   -2.5150   -2.9453    0.9747 C   0  0  0  0  0  0  0  0  0  0  0  0
   -1.6911   -3.2434    1.8255 O   0  0  0  0  0  0  0  0  0  0  0  0
   -2.2437   -1.9432    0.0702 N   0  0  0  0  0  0  0  0  0  0  0  0
   -2.9375   -1.7628   -0.6535 H   0  0  0  0  0  0  0  0  0  0  0  0
   -1.0216   -1.1220    0.0348 C   0  0  1  0  0  0  0  0  0  0  0  0
   -0.5233   -1.1969    1.0063 H   0  0  0  0  0  0  0  0  0  0  0  0
    0.0028   -1.5549   -1.0503 C   0  0  0  0  0  0  0  0  0  0  0  0
    0.2192   -0.7097   -1.7109 H   0  0  0  0  0  0  0  0  0  0  0  0
    0.9426   -1.8028   -0.5475 H   0  0  0  0  0  0  0  0  0  0  0  0
   -0.3822   -2.7418   -1.9068 C   0  0  0  0  0  0  0  0  0  0  0  0
   -0.6452   -4.0182   -1.4650 C   0  0  0  0  0  0  0  0  0  0  0  0
   -0.5559   -4.3549   -0.4333 H   0  0  0  0  0  0  0  0  0  0  0  0
   -1.0281   -4.7817   -2.5645 N   0  0  0  0  0  0  0  0  0  0  0  0
   -1.2558   -5.7733   -2.5418 H   0  0  0  0  0  0  0  0  0  0  0  0
   -1.0397   -4.0016   -3.7088 C   0  0  0  0  0  0  0  0  0  0  0  0
   -1.3658   -4.3027   -5.0311 C   0  0  0  0  0  0  0  0  0  0  0  0
   -1.6678   -5.3078   -5.3041 H   0  0  0  0  0  0  0  0  0  0  0  0
   -1.3024   -3.2894   -5.9978 C   0  0  0  0  0  0  0  0  0  0  0  0
   -1.5563   -3.5084   -7.0306 H   0  0  0  0  0  0  0  0  0  0  0  0
   -0.9172   -1.9909   -5.6312 C   0  0  0  0  0  0  0  0  0  0  0  0
   -0.8752   -1.2057   -6.3798 H   0  0  0  0  0  0  0  0  0  0  0  0
   -0.5897   -1.7005   -4.2990 C   0  0  0  0  0  0  0  0  0  0  0  0
   -0.2992   -0.6948   -4.0137 H   0  0  0  0  0  0  0  0  0  0  0  0
   -0.6480   -2.7187   -3.3409 C   0  0  0  0  0  0  0  0  0  0  0  0
   -1.3830    0.3634   -0.1648 C   0  0  0  0  0  0  0  0  0  0  0  0
   -2.2337    0.6882   -0.9852 O   0  0  0  0  0  0  0  0  0  0  0  0
   -0.7714    1.3413    0.5987 N   0  0  0  0  0  0  0  0  0  0  0  0
   -0.1104    1.0407    1.3093 H   0  0  0  0  0  0  0  0  0  0  0  0
   -1.0872    2.7597    0.4835 C   0  0  0  0  0  0  0  0  0  0  0  0
   -2.1431    2.9381    0.7124 H   0  0  0  0  0  0  0  0  0  0  0  0
   -0.4792    3.3407    1.1837 H   0  0  0  0  0  0  0  0  0  0  0  0
   -0.8810    3.1166   -0.5311 H   0  0  0  0  0  0  0  0  0  0  0  0
  1  2  1  0  0  0  0
  2  3  1  0  0  0  0
  2  4  1  0  0  0  0
  2  5  1  0  0  0  0
  5  6  2  0  0  0  0
  5  7  1  0  0  0  0
  7  8  1  0  0  0  0
  7  9  1  0  0  0  0
  9 10  1  0  0  0  0
  9 11  1  0  0  0  0
  9 29  1  0  0  0  0
 11 12  1  0  0  0  0
 11 13  1  0  0  0  0
 11 14  1  0  0  0  0
 14 15  2  0  0  0  0
 14 28  1  0  0  0  0
 15 16  1  0  0  0  0
 15 17  1  0  0  0  0
 17 18  1  0  0  0  0
 17 19  1  0  0  0  0
 19 20  1  0  0  0  0
 19 28  2  0  0  0  0
 20 21  1  0  0  0  0
 20 22  2  0  0  0  0
 22 23  1  0  0  0  0
 22 24  1  0  0  0  0
 24 25  1  0  0  0  0
 24 26  2  0  0  0  0
 26 27  1  0  0  0  0
 26 28  1  0  0  0  0
 29 30  2  0  0  0  0
 29 31  1  0  0  0  0
 31 32  1  0  0  0  0
 31 33  1  0  0  0  0
 33 34  1  0  0  0  0
 33 35  1  0  0  0  0
 33 36  1  0  0  0  0
M  END
$$$$

  -OEChem-03222214083D

 36 37  0     1  0  0  0  0  0999 V2000
   -3.9307   -4.3546    1.9237 H   0  0  0  0  0  0  0  0  0  0  0  0
   -3.9005   -3.6060    1.1270 C   0  0  0  0  0  0  0  0  0  0  0  0
   -4.6880   -2.8695    1.3051 H   0  0  0  0  0  0  0  0  0  0  0  0
   -4.0838   -4.1009    0.1701 H   0  0  0  0  0  0  0  0  0  0  0  0
   -2.5475   -2.9211    1.1033 C   0  0  0  0  0  0  0  0  0  0  0  0
   -1.6767   -3.2570    1.8898 O   0  0  0  0  0  0  0  0  0  0  0  0
   -2.2897   -1.9508    0.1607 N   0  0  0  0  0  0  0  0  0  0  0  0
   -3.0447   -1.6994   -0.4760 H   0  0  0  0  0  0  0  0  0  0  0  0
   -1.0482   -1.1670    0.0497 C   0  0  1  0  0  0  0  0  0  0  0  0
   -0.5129   -1.2275    1.0026 H   0  0  0  0  0  0  0  0  0  0  0  0
   -0.0627   -1.6191   -1.0686 C   0  0  0  0  0  0  0  0  0  0  0  0
    0.1278   -0.7689   -1.7303 H   0  0  0  0  0  0  0  0  0  0  0  0
    0.8940   -1.8586   -0.5945 H   0  0  0  0  0  0  0  0  0  0  0  0
   -0.4346   -2.8041   -1.9408 C   0  0  0  0  0  0  0  0  0  0  0  0
   -0.9512   -4.0206   -1.5554 C   0  0  0  0  0  0  0  0  0  0  0  0
   -1.1104   -4.3396   -0.5288 H   0  0  0  0  0  0  0  0  0  0  0  0
   -1.1834   -4.7777   -2.7003 N   0  0  0  0  0  0  0  0  0  0  0  0
   -1.5365   -5.7319   -2.7146 H   0  0  0  0  0  0  0  0  0  0  0  0
   -0.8310   -4.0585   -3.8283 C   0  0  0  0  0  0  0  0  0  0  0  0
   -0.8828   -4.3840   -5.1838 C   0  0  0  0  0  0  0  0  0  0  0  0
   -1.2497   -5.3543   -5.4991 H   0  0  0  0  0  0  0  0  0  0  0  0
   -0.4573   -3.4409   -6.1291 C   0  0  0  0  0  0  0  0  0  0  0  0
   -0.4938   -3.6785   -7.1879 H   0  0  0  0  0  0  0  0  0  0  0  0
    0.0134   -2.1883   -5.7084 C   0  0  0  0  0  0  0  0  0  0  0  0
    0.3404   -1.4579   -6.4422 H   0  0  0  0  0  0  0  0  0  0  0  0
    0.0621   -1.8741   -4.3426 C   0  0  0  0  0  0  0  0  0  0  0  0
    0.4243   -0.9036   -4.0214 H   0  0  0  0  0  0  0  0  0  0  0  0
   -0.3616   -2.8207   -3.4014 C   0  0  0  0  0  0  0  0  0  0  0  0
   -1.4045    0.3179   -0.1711 C   0  0  0  0  0  0  0  0  0  0  0  0
   -2.3155    0.6268   -0.9309 O   0  0  0  0  0  0  0  0  0  0  0  0
   -0.7493    1.3105    0.5353 N   0  0  0  0  0  0  0  0  0  0  0  0
   -0.0429    1.0247    1.2072 H   0  0  0  0  0  0  0  0  0  0  0  0
   -1.0754    2.7263    0.4140 C   0  0  0  0  0  0  0  0  0  0  0  0
   -2.1153    2.9072    0.7058 H   0  0  0  0  0  0  0  0  0  0  0  0
   -0.4258    3.3210    1.0635 H   0  0  0  0  0  0  0  0  0  0  0  0
   -0.9349    3.0649   -0.6180 H   0  0  0  0  0  0  0  0  0  0  0  0
  1  2  1  0  0  0  0
  2  3  1  0  0  0  0
  2  4  1  0  0  0  0
  2  5  1  0  0  0  0
  5  6  2  0  0  0  0
  5  7  1  0  0  0  0
  7  8  1  0  0  0  0
  7  9  1  0  0  0  0
  9 10  1  0  0  0  0
  9 11  1  0  0  0  0
  9 29  1  0  0  0  0
 11 12  1  0  0  0  0
 11 13  1  0  0  0  0
 11 14  1  0  0  0  0
 14 15  2  0  0  0  0
 14 28  1  0  0  0  0
 15 16  1  0  0  0  0
 15 17  1  0  0  0  0
 17 18  1  0  0  0  0
 17 19  1  0  0  0  0
 19 20  1  0  0  0  0
 19 28  2  0  0  0  0
 20 21  1  0  0  0  0
 20 22  2  0  0  0  0
 22 23  1  0  0  0  0
 22 24  1  0  0  0  0
 24 25  1  0  0  0  0
 24 26  2  0  0  0  0
 26 27  1  0  0  0  0
 26 28  1  0  0  0  0
 29 30  2  0  0  0  0
 29 31  1  0  0  0  0
 31 32  1  0  0  0  0
 31 33  1  0  0  0  0
 33 34  1  0  0  0  0
 33 35  1  0  0  0  0
 33 36  1  0  0  0  0
M  END
$$$$

  -OEChem-03222214083D

 36 37  0     1  0  0  0  0  0999 V2000
   -3.9723   -4.2475    2.1352 H   0  0  0  0  0  0  0  0  0  0  0  0
   -3.9658   -3.5001    1.3369 C   0  0  0  0  0  0  0  0  0  0  0  0
   -4.6905   -2.7191    1.5800 H   0  0  0  0  0  0  0  0  0  0  0  0
   -4.2590   -3.9812    0.4007 H   0  0  0  0  0  0  0  0  0  0  0  0
   -2.5815   -2.8957    1.1979 C   0  0  0  0  0  0  0  0  0  0  0  0
   -1.6771   -3.2647    1.9288 O   0  0  0  0  0  0  0  0  0  0  0  0
   -2.3430   -1.9510    0.2234 N   0  0  0  0  0  0  0  0  0  0  0  0
   -3.1359   -1.6393   -0.3365 H   0  0  0  0  0  0  0  0  0  0  0  0
   -1.0850   -1.2071    0.0481 C   0  0  1  0  0  0  0  0  0  0  0  0
   -0.5182   -1.2628    0.9831 H   0  0  0  0  0  0  0  0  0  0  0  0
   -0.1375   -1.6831   -1.0957 C   0  0  0  0  0  0  0  0  0  0  0  0
    0.0329   -0.8347   -1.7655 H   0  0  0  0  0  0  0  0  0  0  0  0
    0.8316   -1.9187   -0.6454 H   0  0  0  0  0  0  0  0  0  0  0  0
   -0.5095   -2.8637   -1.9778 C   0  0  0  0  0  0  0  0  0  0  0  0
   -1.2607   -3.9862   -1.7071 C   0  0  0  0  0  0  0  0  0  0  0  0
   -1.6846   -4.2513   -0.7453 H   0  0  0  0  0  0  0  0  0  0  0  0
   -1.3384   -4.7535   -2.8661 N   0  0  0  0  0  0  0  0  0  0  0  0
   -1.8112   -5.6507   -2.9482 H   0  0  0  0  0  0  0  0  0  0  0  0
   -0.6432   -4.1419   -3.8924 C   0  0  0  0  0  0  0  0  0  0  0  0
   -0.4308   -4.5180   -5.2189 C   0  0  0  0  0  0  0  0  0  0  0  0
   -0.8525   -5.4412   -5.6002 H   0  0  0  0  0  0  0  0  0  0  0  0
    0.3325   -3.6872   -6.0504 C   0  0  0  0  0  0  0  0  0  0  0  0
    0.5049   -3.9654   -7.0859 H   0  0  0  0  0  0  0  0  0  0  0  0
    0.8738   -2.4958   -5.5458 C   0  0  0  0  0  0  0  0  0  0  0  0
    1.4644   -1.8531   -6.1917 H   0  0  0  0  0  0  0  0  0  0  0  0
    0.6548   -2.1307   -4.2097 C   0  0  0  0  0  0  0  0  0  0  0  0
    1.0767   -1.2095   -3.8229 H   0  0  0  0  0  0  0  0  0  0  0  0
   -0.1106   -2.9631   -3.3829 C   0  0  0  0  0  0  0  0  0  0  0  0
   -1.4208    0.2814   -0.1844 C   0  0  0  0  0  0  0  0  0  0  0  0
   -2.3710    0.5951   -0.8927 O   0  0  0  0  0  0  0  0  0  0  0  0
   -0.7159    1.2713    0.4764 N   0  0  0  0  0  0  0  0  0  0  0  0
    0.0268    0.9827    1.1069 H   0  0  0  0  0  0  0  0  0  0  0  0
   -1.0194    2.6914    0.3476 C   0  0  0  0  0  0  0  0  0  0  0  0
   -2.0469    2.8950    0.6670 H   0  0  0  0  0  0  0  0  0  0  0  0
   -0.3406    3.2809    0.9711 H   0  0  0  0  0  0  0  0  0  0  0  0
   -0.9028    3.0153   -0.6921 H   0  0  0  0  0  0  0  0  0  0  0  0
  1  2  1  0  0  0  0
  2  3  1  0  0  0  0
  2  4  1  0  0  0  0
  2  5  1  0  0  0  0
  5  6  2  0  0  0  0
  5  7  1  0  0  0  0
  7  8  1  0  0  0  0
  7  9  1  0  0  0  0
  9 10  1  0  0  0  0
  9 11  1  0  0  0  0
  9 29  1  0  0  0  0
 11 12  1  0  0  0  0
 11 13  1  0  0  0  0
 11 14  1  0  0  0  0
 14 15  2  0  0  0  0
 14 28  1  0  0  0  0
 15 16  1  0  0  0  0
 15 17  1  0  0  0  0
 17 18  1  0  0  0  0
 17 19  1  0  0  0  0
 19 20  1  0  0  0  0
 19 28  2  0  0  0  0
 20 21  1  0  0  0  0
 20 22  2  0  0  0  0
 22 23  1  0  0  0  0
 22 24  1  0  0  0  0
 24 25  1  0  0  0  0
 24 26  2  0  0  0  0
 26 27  1  0  0  0  0
 26 28  1  0  0  0  0
 29 30  2  0  0  0  0
 29 31  1  0  0  0  0
 31 32  1  0  0  0  0
 31 33  1  0  0  0  0
 33 34  1  0  0  0  0
 33 35  1  0  0  0  0
 33 36  1  0  0  0  0
M  END
$$$$

  -OEChem-03222214083D

 36 37  0     1  0  0  0  0  0999 V2000
   -3.9933   -4.1892    2.2110 H   0  0  0  0  0  0  0  0  0  0  0  0
   -4.0025   -3.4266    1.4269 C   0  0  0  0  0  0  0  0  0  0  0  0
   -4.6790   -2.6219    1.7254 H   0  0  0  0  0  0  0  0  0  0  0  0
   -4.3702   -3.8774    0.5022 H   0  0  0  0  0  0  0  0  0  0  0  0
   -2.6046   -2.8754    1.2179 C   0  0  0  0  0  0  0  0  0  0  0  0
   -1.6831   -3.2711    1.9118 O   0  0  0  0  0  0  0  0  0  0  0  0
   -2.3819   -1.9299    0.2389 N   0  0  0  0  0  0  0  0  0  0  0  0
   -3.1931   -1.5622   -0.2572 H   0  0  0  0  0  0  0  0  0  0  0  0
   -1.1101   -1.2212    0.0281 C   0  0  1  0  0  0  0  0  0  0  0  0
   -0.5198   -1.2957    0.9473 H   0  0  0  0  0  0  0  0  0  0  0  0
   -0.2004   -1.7169   -1.1379 C   0  0  0  0  0  0  0  0  0  0  0  0
   -0.0257   -0.8699   -1.8096 H   0  0  0  0  0  0  0  0  0  0  0  0
    0.7702   -1.9735   -0.7021 H   0  0  0  0  0  0  0  0  0  0  0  0
   -0.5947   -2.8841   -2.0303 C   0  0  0  0  0  0  0  0  0  0  0  0
   -1.5503   -3.8702   -1.9074 C   0  0  0  0  0  0  0  0  0  0  0  0
   -2.2243   -4.0133   -1.0724 H   0  0  0  0  0  0  0  0  0  0  0  0
   -1.4882   -4.6869   -3.0336 N   0  0  0  0  0  0  0  0  0  0  0  0
   -2.0687   -5.5057   -3.2004 H   0  0  0  0  0  0  0  0  0  0  0  0
   -0.4970   -4.2479   -3.8904 C   0  0  0  0  0  0  0  0  0  0  0  0
   -0.0537   -4.7311   -5.1216 C   0  0  0  0  0  0  0  0  0  0  0  0
   -0.5171   -5.6053   -5.5650 H   0  0  0  0  0  0  0  0  0  0  0  0
    0.9973   -4.0728   -5.7749 C   0  0  0  0  0  0  0  0  0  0  0  0
    1.3531   -4.4380   -6.7338 H   0  0  0  0  0  0  0  0  0  0  0  0
    1.5902   -2.9438   -5.1899 C   0  0  0  0  0  0  0  0  0  0  0  0
    2.4047   -2.4359   -5.6974 H   0  0  0  0  0  0  0  0  0  0  0  0
    1.1346   -2.4688   -3.9514 C   0  0  0  0  0  0  0  0  0  0  0  0
    1.5939   -1.5966   -3.4987 H   0  0  0  0  0  0  0  0  0  0  0  0
    0.0836   -3.1302   -3.3039 C   0  0  0  0  0  0  0  0  0  0  0  0
   -1.4127    0.2775   -0.1817 C   0  0  0  0  0  0  0  0  0  0  0  0
   -2.3867    0.6210   -0.8428 O   0  0  0  0  0  0  0  0  0  0  0  0
   -0.6598    1.2423    0.4629 N   0  0  0  0  0  0  0  0  0  0  0  0
    0.1042    0.9285    1.0547 H   0  0  0  0  0  0  0  0  0  0  0  0
   -0.9390    2.6702    0.3704 C   0  0  0  0  0  0  0  0  0  0  0  0
   -1.9633    2.8837    0.6936 H   0  0  0  0  0  0  0  0  0  0  0  0
   -0.2522    3.2319    1.0109 H   0  0  0  0  0  0  0  0  0  0  0  0
   -0.8149    3.0179   -0.6606 H   0  0  0  0  0  0  0  0  0  0  0  0
  1  2  1  0  0  0  0
  2  3  1  0  0  0  0
  2  4  1  0  0  0  0
  2  5  1  0  0  0  0
  5  6  2  0  0  0  0
  5  7  1  0  0  0  0
  7  8  1  0  0  0  0
  7  9  1  0  0  0  0
  9 10  1  0  0  0  0
  9 11  1  0  0  0  0
  9 29  1  0  0  0  0
 11 12  1  0  0  0  0
 11 13  1  0  0  0  0
 11 14  1  0  0  0  0
 14 15  2  0  0  0  0
 14 28  1  0  0  0  0
 15 16  1  0  0  0  0
 15 17  1  0  0  0  0
 17 18  1  0  0  0  0
 17 19  1  0  0  0  0
 19 20  1  0  0  0  0
 19 28  2  0  0  0  0
 20 21  1  0  0  0  0
 20 22  2  0  0  0  0
 22 23  1  0  0  0  0
 22 24  1  0  0  0  0
 24 25  1  0  0  0  0
 24 26  2  0  0  0  0
 26 27  1  0  0  0  0
 26 28  1  0  0  0  0
 29 30  2  0  0  0  0
 29 31  1  0  0  0  0
 31 32  1  0  0  0  0
 31 33  1  0  0  0  0
 33 34  1  0  0  0  0
 33 35  1  0  0  0  0
 33 36  1  0  0  0  0
M  END
$$$$

  -OEChem-03222214083D

 36 37  0     1  0  0  0  0  0999 V2000
   -4.0625   -4.0728    2.2501 H   0  0  0  0  0  0  0  0  0  0  0  0
   -4.0342   -3.4128    1.3785 C   0  0  0  0  0  0  0  0  0  0  0  0
   -4.7317   -2.5874    1.5408 H   0  0  0  0  0  0  0  0  0  0  0  0
   -4.3480   -3.9781    0.4981 H   0  0  0  0  0  0  0  0  0  0  0  0
   -2.6302   -2.8744    1.1766 C   0  0  0  0  0  0  0  0  0  0  0  0
   -1.7168   -3.2827    1.8741 O   0  0  0  0  0  0  0  0  0  0  0  0
   -2.3977   -1.9119    0.2162 N   0  0  0  0  0  0  0  0  0  0  0  0
   -3.2064   -1.5098   -0.2560 H   0  0  0  0  0  0  0  0  0  0  0  0
   -1.1138   -1.2234    0.0172 C   0  0  1  0  0  0  0  0  0  0  0  0
   -0.5250   -1.3267    0.9344 H   0  0  0  0  0  0  0  0  0  0  0  0
   -0.2155   -1.7198   -1.1556 C   0  0  0  0  0  0  0  0  0  0  0  0
   -0.0075   -0.8698   -1.8142 H   0  0  0  0  0  0  0  0  0  0  0  0
    0.7415   -2.0112   -0.7112 H   0  0  0  0  0  0  0  0  0  0  0  0
   -0.6300   -2.8649   -2.0678 C   0  0  0  0  0  0  0  0  0  0  0  0
   -1.7464   -3.6738   -2.1187 C   0  0  0  0  0  0  0  0  0  0  0  0
   -2.6043   -3.6359   -1.4592 H   0  0  0  0  0  0  0  0  0  0  0  0
   -1.5948   -4.5650   -3.1781 N   0  0  0  0  0  0  0  0  0  0  0  0
   -2.2647   -5.2823   -3.4457 H   0  0  0  0  0  0  0  0  0  0  0  0
   -0.3903   -4.3487   -3.8194 C   0  0  0  0  0  0  0  0  0  0  0  0
    0.2039   -4.9749   -4.9150 C   0  0  0  0  0  0  0  0  0  0  0  0
   -0.3020   -5.7898   -5.4203 H   0  0  0  0  0  0  0  0  0  0  0  0
    1.4609   -4.5365   -5.3527 C   0  0  0  0  0  0  0  0  0  0  0  0
    1.9353   -5.0149   -6.2043 H   0  0  0  0  0  0  0  0  0  0  0  0
    2.1059   -3.4806   -4.6909 C   0  0  0  0  0  0  0  0  0  0  0  0
    3.0805   -3.1438   -5.0309 H   0  0  0  0  0  0  0  0  0  0  0  0
    1.4963   -2.8585   -3.5916 C   0  0  0  0  0  0  0  0  0  0  0  0
    1.9935   -2.0419   -3.0789 H   0  0  0  0  0  0  0  0  0  0  0  0
    0.2401   -3.3014   -3.1600 C   0  0  0  0  0  0  0  0  0  0  0  0
   -1.3840    0.2850   -0.1594 C   0  0  0  0  0  0  0  0  0  0  0  0
   -2.3569    0.6620   -0.8039 O   0  0  0  0  0  0  0  0  0  0  0  0
   -0.6085    1.2186    0.5039 N   0  0  0  0  0  0  0  0  0  0  0  0
    0.1486    0.8742    1.0875 H   0  0  0  0  0  0  0  0  0  0  0  0
   -0.8671    2.6527    0.4592 C   0  0  0  0  0  0  0  0  0  0  0  0
   -1.8547    2.8782    0.8748 H   0  0  0  0  0  0  0  0  0  0  0  0
   -0.1154    3.1899    1.0453 H   0  0  0  0  0  0  0  0  0  0  0  0
   -0.8263    3.0184   -0.5723 H   0  0  0  0  0  0  0  0  0  0  0  0
  1  2  1  0  0  0  0
  2  3  1  0  0  0  0
  2  4  1  0  0  0  0
  2  5  1  0  0  0  0
  5  6  2  0  0  0  0
  5  7  1  0  0  0  0
  7  8  1  0  0  0  0
  7  9  1  0  0  0  0
  9 10  1  0  0  0  0
  9 11  1  0  0  0  0
  9 29  1  0  0  0  0
 11 12  1  0  0  0  0
 11 13  1  0  0  0  0
 11 14  1  0  0  0  0
 14 15  2  0  0  0  0
 14 28  1  0  0  0  0
 15 16  1  0  0  0  0
 15 17  1  0  0  0  0
 17 18  1  0  0  0  0
 17 19  1  0  0  0  0
 19 20  1  0  0  0  0
 19 28  2  0  0  0  0
 20 21  1  0  0  0  0
 20 22  2  0  0  0  0
 22 23  1  0  0  0  0
 22 24  1  0  0  0  0
 24 25  1  0  0  0  0
 24 26  2  0  0  0  0
 26 27  1  0  0  0  0
 26 28  1  0  0  0  0
 29 30  2  0  0  0  0
 29 31  1  0  0  0  0
 31 32  1  0  0  0  0
 31 33  1  0  0  0  0
 33 34  1  0  0  0  0
 33 35  1  0  0  0  0
 33 36  1  0  0  0  0
M  END
$$$$

  -OEChem-03222214083D

 36 37  0     1  0  0  0  0  0999 V2000
   -4.0787   -4.1306    2.1005 H   0  0  0  0  0  0  0  0  0  0  0  0
   -4.0349   -3.4499    1.2458 C   0  0  0  0  0  0  0  0  0  0  0  0
   -4.7481   -2.6382    1.4069 H   0  0  0  0  0  0  0  0  0  0  0  0
   -4.3140   -3.9991    0.3436 H   0  0  0  0  0  0  0  0  0  0  0  0
   -2.6336   -2.8884    1.0974 C   0  0  0  0  0  0  0  0  0  0  0  0
   -1.7361   -3.2962    1.8161 O   0  0  0  0  0  0  0  0  0  0  0  0
   -2.3893   -1.8991    0.1677 N   0  0  0  0  0  0  0  0  0  0  0  0
   -3.1933   -1.4818   -0.2985 H   0  0  0  0  0  0  0  0  0  0  0  0
   -1.1041   -1.2030    0.0083 C   0  0  1  0  0  0  0  0  0  0  0  0
   -0.5301   -1.3287    0.9321 H   0  0  0  0  0  0  0  0  0  0  0  0
   -0.1908   -1.6805   -1.1592 C   0  0  0  0  0  0  0  0  0  0  0  0
    0.0469   -0.8244   -1.7997 H   0  0  0  0  0  0  0  0  0  0  0  0
    0.7496   -1.9945   -0.6957 H   0  0  0  0  0  0  0  0  0  0  0  0
   -0.6105   -2.8100   -2.0883 C   0  0  0  0  0  0  0  0  0  0  0  0
   -1.8256   -3.4199   -2.3217 C   0  0  0  0  0  0  0  0  0  0  0  0
   -2.7727   -3.1660   -1.8597 H   0  0  0  0  0  0  0  0  0  0  0  0
   -1.6409   -4.4147   -3.2787 N   0  0  0  0  0  0  0  0  0  0  0  0
   -2.3678   -5.0273   -3.6413 H   0  0  0  0  0  0  0  0  0  0  0  0
   -0.3184   -4.4564   -3.6781 C   0  0  0  0  0  0  0  0  0  0  0  0
    0.3475   -5.2625   -4.6015 C   0  0  0  0  0  0  0  0  0  0  0  0
   -0.1933   -6.0247   -5.1515 H   0  0  0  0  0  0  0  0  0  0  0  0
    1.7209   -5.0724   -4.8081 C   0  0  0  0  0  0  0  0  0  0  0  0
    2.2527   -5.6920   -5.5240 H   0  0  0  0  0  0  0  0  0  0  0  0
    2.4084   -4.0814   -4.0911 C   0  0  0  0  0  0  0  0  0  0  0  0
    3.4721   -3.9351   -4.2527 H   0  0  0  0  0  0  0  0  0  0  0  0
    1.7264   -3.2780   -3.1658 C   0  0  0  0  0  0  0  0  0  0  0  0
    2.2566   -2.5103   -2.6124 H   0  0  0  0  0  0  0  0  0  0  0  0
    0.3552   -3.4741   -2.9633 C   0  0  0  0  0  0  0  0  0  0  0  0
   -1.3675    0.3095   -0.1322 C   0  0  0  0  0  0  0  0  0  0  0  0
   -2.3273    0.7042   -0.7859 O   0  0  0  0  0  0  0  0  0  0  0  0
   -0.6016    1.2235    0.5684 N   0  0  0  0  0  0  0  0  0  0  0  0
    0.1392    0.8611    1.1623 H   0  0  0  0  0  0  0  0  0  0  0  0
   -0.8630    2.6576    0.5648 C   0  0  0  0  0  0  0  0  0  0  0  0
   -1.8554    2.8674    0.9775 H   0  0  0  0  0  0  0  0  0  0  0  0
   -0.1178    3.1785    1.1739 H   0  0  0  0  0  0  0  0  0  0  0  0
   -0.8139    3.0543   -0.4548 H   0  0  0  0  0  0  0  0  0  0  0  0
  1  2  1  0  0  0  0
  2  3  1  0  0  0  0
  2  4  1  0  0  0  0
  2  5  1  0  0  0  0
  5  6  2  0  0  0  0
  5  7  1  0  0  0  0
  7  8  1  0  0  0  0
  7  9  1  0  0  0  0
  9 10  1  0  0  0  0
  9 11  1  0  0  0  0
  9 29  1  0  0  0  0
 11 12  1  0  0  0  0
 11 13  1  0  0  0  0
 11 14  1  0  0  0  0
 14 15  2  0  0  0  0
 14 28  1  0  0  0  0
 15 16  1  0  0  0  0
 15 17  1  0  0  0  0
 17 18  1  0  0  0  0
 17 19  1  0  0  0  0
 19 20  1  0  0  0  0
 19 28  2  0  0  0  0
 20 21  1  0  0  0  0
 20 22  2  0  0  0  0
 22 23  1  0  0  0  0
 22 24  1  0  0  0  0
 24 25  1  0  0  0  0
 24 26  2  0  0  0  0
 26 27  1  0  0  0  0
 26 28  1  0  0  0  0
 29 30  2  0  0  0  0
 29 31  1  0  0  0  0
 31 32  1  0  0  0  0
 31 33  1  0  0  0  0
 33 34  1  0  0  0  0
 33 35  1  0  0  0  0
 33 36  1  0  0  0  0
M  END
$$$$

  -OEChem-03222214083D

 36 37  0     1  0  0  0  0  0999 V2000
   -4.0247   -4.2738    1.8779 H   0  0  0  0  0  0  0  0  0  0  0  0
   -3.9815   -3.5347    1.0729 C   0  0  0  0  0  0  0  0  0  0  0  0
   -4.7328   -2.7643    1.2614 H   0  0  0  0  0  0  0  0  0  0  0  0
   -4.2064   -4.0319    0.1264 H   0  0  0  0  0  0  0  0  0  0  0  0
   -2.6003   -2.9110    1.0113 C   0  0  0  0  0  0  0  0  0  0  0  0
   -1.7267   -3.2921    1.7733 O   0  0  0  0  0  0  0  0  0  0  0  0
   -2.3479   -1.8982    0.1099 N   0  0  0  0  0  0  0  0  0  0  0  0
   -3.1439   -1.4986   -0.3829 H   0  0  0  0  0  0  0  0  0  0  0  0
   -1.0733   -1.1707    0.0100 C   0  0  1  0  0  0  0  0  0  0  0  0
   -0.5247   -1.3036    0.9479 H   0  0  0  0  0  0  0  0  0  0  0  0
   -0.1239   -1.6151   -1.1407 C   0  0  0  0  0  0  0  0  0  0  0  0
    0.1247   -0.7511   -1.7658 H   0  0  0  0  0  0  0  0  0  0  0  0
    0.8061   -1.9293   -0.6581 H   0  0  0  0  0  0  0  0  0  0  0  0
   -0.5363   -2.7362   -2.0808 C   0  0  0  0  0  0  0  0  0  0  0  0
   -1.7875   -3.1303   -2.5032 C   0  0  0  0  0  0  0  0  0  0  0  0
   -2.7256   -2.6527   -2.2387 H   0  0  0  0  0  0  0  0  0  0  0  0
   -1.6391   -4.2218   -3.3549 N   0  0  0  0  0  0  0  0  0  0  0  0
   -2.3966   -4.7121   -3.8248 H   0  0  0  0  0  0  0  0  0  0  0  0
   -0.3009   -4.5414   -3.4931 C   0  0  0  0  0  0  0  0  0  0  0  0
    0.3417   -5.5369   -4.2293 C   0  0  0  0  0  0  0  0  0  0  0  0
   -0.2357   -6.2315   -4.8292 H   0  0  0  0  0  0  0  0  0  0  0  0
    1.7397   -5.6261   -4.1821 C   0  0  0  0  0  0  0  0  0  0  0  0
    2.2539   -6.3964   -4.7491 H   0  0  0  0  0  0  0  0  0  0  0  0
    2.4752   -4.7212   -3.4022 C   0  0  0  0  0  0  0  0  0  0  0  0
    3.5578   -4.7929   -3.3653 H   0  0  0  0  0  0  0  0  0  0  0  0
    1.8170   -3.7237   -2.6685 C   0  0  0  0  0  0  0  0  0  0  0  0
    2.3864   -3.0237   -2.0667 H   0  0  0  0  0  0  0  0  0  0  0  0
    0.4202   -3.6405   -2.7180 C   0  0  0  0  0  0  0  0  0  0  0  0
   -1.3636    0.3379   -0.1105 C   0  0  0  0  0  0  0  0  0  0  0  0
   -2.2991    0.7236   -0.8039 O   0  0  0  0  0  0  0  0  0  0  0  0
   -0.6445    1.2556    0.6334 N   0  0  0  0  0  0  0  0  0  0  0  0
    0.0771    0.8984    1.2535 H   0  0  0  0  0  0  0  0  0  0  0  0
   -0.9323    2.6848    0.6363 C   0  0  0  0  0  0  0  0  0  0  0  0
   -1.9448    2.8708    1.0097 H   0  0  0  0  0  0  0  0  0  0  0  0
   -0.2235    3.2115    1.2824 H   0  0  0  0  0  0  0  0  0  0  0  0
   -0.8480    3.0958   -0.3754 H   0  0  0  0  0  0  0  0  0  0  0  0
  1  2  1  0  0  0  0
  2  3  1  0  0  0  0
  2  4  1  0  0  0  0
  2  5  1  0  0  0  0
  5  6  2  0  0  0  0
  5  7  1  0  0  0  0
  7  8  1  0  0  0  0
  7  9  1  0  0  0  0
  9 10  1  0  0  0  0
  9 11  1  0  0  0  0
  9 29  1  0  0  0  0
 11 12  1  0  0  0  0
 11 13  1  0  0  0  0
 11 14  1  0  0  0  0
 14 15  2  0  0  0  0
 14 28  1  0  0  0  0
 15 16  1  0  0  0  0
 15 17  1  0  0  0  0
 17 18  1  0  0  0  0
 17 19  1  0  0  0  0
 19 20  1  0  0  0  0
 19 28  2  0  0  0  0
 20 21  1  0  0  0  0
 20 22  2  0  0  0  0
 22 23  1  0  0  0  0
 22 24  1  0  0  0  0
 24 25  1  0  0  0  0
 24 26  2  0  0  0  0
 26 27  1  0  0  0  0
 26 28  1  0  0  0  0
 29 30  2  0  0  0  0
 29 31  1  0  0  0  0
 31 32  1  0  0  0  0
 31 33  1  0  0  0  0
 33 34  1  0  0  0  0
 33 35  1  0  0  0  0
 33 36  1  0  0  0  0
M  END
$$$$

  -OEChem-03222214083D

 36 37  0     1  0  0  0  0  0999 V2000
   -3.9192   -4.4145    1.6735 H   0  0  0  0  0  0  0  0  0  0  0  0
   -3.8638   -3.6636    0.8804 C   0  0  0  0  0  0  0  0  0  0  0  0
   -4.6780   -2.9476    1.0149 H   0  0  0  0  0  0  0  0  0  0  0  0
   -3.9798   -4.1624   -0.0848 H   0  0  0  0  0  0  0  0  0  0  0  0
   -2.5281   -2.9473    0.9320 C   0  0  0  0  0  0  0  0  0  0  0  0
   -1.6948   -3.2694    1.7637 O   0  0  0  0  0  0  0  0  0  0  0  0
   -2.2765   -1.9128    0.0561 N   0  0  0  0  0  0  0  0  0  0  0  0
   -3.0466   -1.5878   -0.5226 H   0  0  0  0  0  0  0  0  0  0  0  0
   -1.0274   -1.1351    0.0158 C   0  0  1  0  0  0  0  0  0  0  0  0
   -0.5012   -1.2662    0.9667 H   0  0  0  0  0  0  0  0  0  0  0  0
   -0.0411   -1.5359   -1.1181 C   0  0  0  0  0  0  0  0  0  0  0  0
    0.1877   -0.6625   -1.7379 H   0  0  0  0  0  0  0  0  0  0  0  0
    0.8946   -1.8264   -0.6330 H   0  0  0  0  0  0  0  0  0  0  0  0
   -0.4464   -2.6574   -2.0560 C   0  0  0  0  0  0  0  0  0  0  0  0
   -1.6647   -2.8480   -2.6687 C   0  0  0  0  0  0  0  0  0  0  0  0
   -2.5149   -2.1743   -2.5960 H   0  0  0  0  0  0  0  0  0  0  0  0
   -1.5987   -4.0260   -3.4079 N   0  0  0  0  0  0  0  0  0  0  0  0
   -2.3484   -4.4066   -3.9812 H   0  0  0  0  0  0  0  0  0  0  0  0
   -0.3484   -4.6046   -3.2743 C   0  0  0  0  0  0  0  0  0  0  0  0
    0.1906   -5.7743   -3.8104 C   0  0  0  0  0  0  0  0  0  0  0  0
   -0.4074   -6.4057   -4.4579 H   0  0  0  0  0  0  0  0  0  0  0  0
    1.5125   -6.1218   -3.4999 C   0  0  0  0  0  0  0  0  0  0  0  0
    1.9452   -7.0301   -3.9083 H   0  0  0  0  0  0  0  0  0  0  0  0
    2.2769   -5.2980   -2.6599 C   0  0  0  0  0  0  0  0  0  0  0  0
    3.2999   -5.5701   -2.4187 H   0  0  0  0  0  0  0  0  0  0  0  0
    1.7235   -4.1250   -2.1268 C   0  0  0  0  0  0  0  0  0  0  0  0
    2.3149   -3.4905   -1.4756 H   0  0  0  0  0  0  0  0  0  0  0  0
    0.4028   -3.7826   -2.4406 C   0  0  0  0  0  0  0  0  0  0  0  0
   -1.3642    0.3637   -0.0975 C   0  0  0  0  0  0  0  0  0  0  0  0
   -2.2619    0.7287   -0.8497 O   0  0  0  0  0  0  0  0  0  0  0  0
   -0.7079    1.2955    0.6856 N   0  0  0  0  0  0  0  0  0  0  0  0
   -0.0131    0.9530    1.3437 H   0  0  0  0  0  0  0  0  0  0  0  0
   -1.0225    2.7186    0.6689 C   0  0  0  0  0  0  0  0  0  0  0  0
   -2.0566    2.8864    0.9875 H   0  0  0  0  0  0  0  0  0  0  0  0
   -0.3587    3.2606    1.3493 H   0  0  0  0  0  0  0  0  0  0  0  0
   -0.8927    3.1277   -0.3387 H   0  0  0  0  0  0  0  0  0  0  0  0
  1  2  1  0  0  0  0
  2  3  1  0  0  0  0
  2  4  1  0  0  0  0
  2  5  1  0  0  0  0
  5  6  2  0  0  0  0
  5  7  1  0  0  0  0
  7  8  1  0  0  0  0
  7  9  1  0  0  0  0
  9 10  1  0  0  0  0
  9 11  1  0  0  0  0
  9 29  1  0  0  0  0
 11 12  1  0  0  0  0
 11 13  1  0  0  0  0
 11 14  1  0  0  0  0
 14 15  2  0  0  0  0
 14 28  1  0  0  0  0
 15 16  1  0  0  0  0
 15 17  1  0  0  0  0
 17 18  1  0  0  0  0
 17 19  1  0  0  0  0
 19 20  1  0  0  0  0
 19 28  2  0  0  0  0
 20 21  1  0  0  0  0
 20 22  2  0  0  0  0
 22 23  1  0  0  0  0
 22 24  1  0  0  0  0
 24 25  1  0  0  0  0
 24 26  2  0  0  0  0
 26 27  1  0  0  0  0
 26 28  1  0  0  0  0
 29 30  2  0  0  0  0
 29 31  1  0  0  0  0
 31 32  1  0  0  0  0
 31 33  1  0  0  0  0
 33 34  1  0  0  0  0
 33 35  1  0  0  0  0
 33 36  1  0  0  0  0
M  END
$$$$

  -OEChem-03222214083D

 36 37  0     1  0  0  0  0  0999 V2000
   -3.7099   -4.6030    1.4738 H   0  0  0  0  0  0  0  0  0  0  0  0
   -3.6614   -3.8348    0.6970 C   0  0  0  0  0  0  0  0  0  0  0  0
   -4.5678   -3.2267    0.7443 H   0  0  0  0  0  0  0  0  0  0  0  0
   -3.6062   -4.3238   -0.2790 H   0  0  0  0  0  0  0  0  0  0  0  0
   -2.4390   -2.9615    0.9025 C   0  0  0  0  0  0  0  0  0  0  0  0
   -1.6894   -3.1709    1.8436 O   0  0  0  0  0  0  0  0  0  0  0  0
   -2.1889   -1.9241    0.0301 N   0  0  0  0  0  0  0  0  0  0  0  0
   -2.8516   -1.7747   -0.7249 H   0  0  0  0  0  0  0  0  0  0  0  0
   -0.9682   -1.1008    0.0420 C   0  0  1  0  0  0  0  0  0  0  0  0
   -0.4608   -1.2136    1.0053 H   0  0  0  0  0  0  0  0  0  0  0  0
    0.0427   -1.4751   -1.0777 C   0  0  0  0  0  0  0  0  0  0  0  0
    0.2531   -0.5992   -1.7008 H   0  0  0  0  0  0  0  0  0  0  0  0
    0.9866   -1.7486   -0.5980 H   0  0  0  0  0  0  0  0  0  0  0  0
   -0.3709   -2.6025   -1.9994 C   0  0  0  0  0  0  0  0  0  0  0  0
   -1.4876   -2.6146   -2.8038 C   0  0  0  0  0  0  0  0  0  0  0  0
   -2.1865   -1.7877   -2.9168 H   0  0  0  0  0  0  0  0  0  0  0  0
   -1.5378   -3.8484   -3.4470 N   0  0  0  0  0  0  0  0  0  0  0  0
   -2.2341   -4.1279   -4.1348 H   0  0  0  0  0  0  0  0  0  0  0  0
   -0.4704   -4.6380   -3.0518 C   0  0  0  0  0  0  0  0  0  0  0  0
   -0.0976   -5.9344   -3.4076 C   0  0  0  0  0  0  0  0  0  0  0  0
   -0.6907   -6.4995   -4.1178 H   0  0  0  0  0  0  0  0  0  0  0  0
    1.0512   -6.4967   -2.8335 C   0  0  0  0  0  0  0  0  0  0  0  0
    1.3541   -7.5049   -3.1003 H   0  0  0  0  0  0  0  0  0  0  0  0
    1.8090   -5.7591   -1.9114 C   0  0  0  0  0  0  0  0  0  0  0  0
    2.6961   -6.1977   -1.4646 H   0  0  0  0  0  0  0  0  0  0  0  0
    1.4254   -4.4562   -1.5627 C   0  0  0  0  0  0  0  0  0  0  0  0
    2.0089   -3.8866   -0.8472 H   0  0  0  0  0  0  0  0  0  0  0  0
    0.2811   -3.8991   -2.1438 C   0  0  0  0  0  0  0  0  0  0  0  0
   -1.3533    0.3843   -0.0974 C   0  0  0  0  0  0  0  0  0  0  0  0
   -2.1776    0.7221   -0.9413 O   0  0  0  0  0  0  0  0  0  0  0  0
   -0.7696    1.3446    0.7084 N   0  0  0  0  0  0  0  0  0  0  0  0
   -0.1394    1.0260    1.4391 H   0  0  0  0  0  0  0  0  0  0  0  0
   -1.1147    2.7592    0.6433 C   0  0  0  0  0  0  0  0  0  0  0  0
   -2.1699    2.9079    0.8947 H   0  0  0  0  0  0  0  0  0  0  0  0
   -0.5062    3.3302    1.3511 H   0  0  0  0  0  0  0  0  0  0  0  0
   -0.9328    3.1524   -0.3623 H   0  0  0  0  0  0  0  0  0  0  0  0
  1  2  1  0  0  0  0
  2  3  1  0  0  0  0
  2  4  1  0  0  0  0
  2  5  1  0  0  0  0
  5  6  2  0  0  0  0
  5  7  1  0  0  0  0
  7  8  1  0  0  0  0
  7  9  1  0  0  0  0
  9 10  1  0  0  0  0
  9 11  1  0  0  0  0
  9 29  1  0  0  0  0
 11 12  1  0  0  0  0
 11 13  1  0  0  0  0
 11 14  1  0  0  0  0
 14 15  2  0  0  0  0
 14 28  1  0  0  0  0
 15 16  1  0  0  0  0
 15 17  1  0  0  0  0
 17 18  1  0  0  0  0
 17 19  1  0  0  0  0
 19 20  1  0  0  0  0
 19 28  2  0  0  0  0
 20 21  1  0  0  0  0
 20 22  2  0  0  0  0
 22 23  1  0  0  0  0
 22 24  1  0  0  0  0
 24 25  1  0  0  0  0
 24 26  2  0  0  0  0
 26 27  1  0  0  0  0
 26 28  1  0  0  0  0
 29 30  2  0  0  0  0
 29 31  1  0  0  0  0
 31 32  1  0  0  0  0
 31 33  1  0  0  0  0
 33 34  1  0  0  0  0
 33 35  1  0  0  0  0
 33 36  1  0  0  0  0
M  END
$$$$

  -OEChem-03222214083D

 36 37  0     1  0  0  0  0  0999 V2000
   -3.4500   -4.7692    1.3202 H   0  0  0  0  0  0  0  0  0  0  0  0
   -3.3966   -4.0196    0.5259 C   0  0  0  0  0  0  0  0  0  0  0  0
   -4.3709   -3.5345    0.4312 H   0  0  0  0  0  0  0  0  0  0  0  0
   -3.1510   -4.5197   -0.4146 H   0  0  0  0  0  0  0  0  0  0  0  0
   -2.3327   -2.9890    0.8506 C   0  0  0  0  0  0  0  0  0  0  0  0
   -1.6627   -3.1004    1.8662 O   0  0  0  0  0  0  0  0  0  0  0  0
   -2.1166   -1.9396   -0.0168 N   0  0  0  0  0  0  0  0  0  0  0  0
   -2.6454   -1.9521   -0.8840 H   0  0  0  0  0  0  0  0  0  0  0  0
   -0.9261   -1.0721    0.0290 C   0  0  1  0  0  0  0  0  0  0  0  0
   -0.4231   -1.1807    0.9947 H   0  0  0  0  0  0  0  0  0  0  0  0
    0.0967   -1.4218   -1.0863 C   0  0  0  0  0  0  0  0  0  0  0  0
    0.2790   -0.5435   -1.7151 H   0  0  0  0  0  0  0  0  0  0  0  0
    1.0531   -1.6768   -0.6204 H   0  0  0  0  0  0  0  0  0  0  0  0
   -0.3248   -2.5592   -1.9875 C   0  0  0  0  0  0  0  0  0  0  0  0
   -1.2753   -2.4682   -2.9772 C   0  0  0  0  0  0  0  0  0  0  0  0
   -1.7871   -1.5535   -3.2742 H   0  0  0  0  0  0  0  0  0  0  0  0
   -1.4534   -3.7426   -3.5099 N   0  0  0  0  0  0  0  0  0  0  0  0
   -2.0698   -3.9760   -4.2861 H   0  0  0  0  0  0  0  0  0  0  0  0
   -0.6471   -4.6565   -2.8498 C   0  0  0  0  0  0  0  0  0  0  0  0
   -0.4884   -6.0338   -3.0034 C   0  0  0  0  0  0  0  0  0  0  0  0
   -1.0488   -6.5685   -3.7623 H   0  0  0  0  0  0  0  0  0  0  0  0
    0.3993   -6.7172   -2.1605 C   0  0  0  0  0  0  0  0  0  0  0  0
    0.5330   -7.7896   -2.2673 H   0  0  0  0  0  0  0  0  0  0  0  0
    1.1118   -6.0181   -1.1741 C   0  0  0  0  0  0  0  0  0  0  0  0
    1.7911   -6.5511   -0.5156 H   0  0  0  0  0  0  0  0  0  0  0  0
    0.9474   -4.6327   -1.0317 C   0  0  0  0  0  0  0  0  0  0  0  0
    1.4904   -4.0903   -0.2646 H   0  0  0  0  0  0  0  0  0  0  0  0
    0.0686   -3.9574   -1.8840 C   0  0  0  0  0  0  0  0  0  0  0  0
   -1.3434    0.4053   -0.1069 C   0  0  0  0  0  0  0  0  0  0  0  0
   -2.1200    0.7425   -0.9950 O   0  0  0  0  0  0  0  0  0  0  0  0
   -0.8002    1.3696    0.7226 N   0  0  0  0  0  0  0  0  0  0  0  0
   -0.2116    1.0518    1.4877 H   0  0  0  0  0  0  0  0  0  0  0  0
   -1.1681    2.7786    0.6564 C   0  0  0  0  0  0  0  0  0  0  0  0
   -2.2330    2.9068    0.8766 H   0  0  0  0  0  0  0  0  0  0  0  0
   -0.5911    3.3547    1.3863 H   0  0  0  0  0  0  0  0  0  0  0  0
   -0.9633    3.1828   -0.3405 H   0  0  0  0  0  0  0  0  0  0  0  0
  1  2  1  0  0  0  0
  2  3  1  0  0  0  0
  2  4  1  0  0  0  0
  2  5  1  0  0  0  0
  5  6  2  0  0  0  0
  5  7  1  0  0  0  0
  7  8  1  0  0  0  0
  7  9  1  0  0  0  0
  9 10  1  0  0  0  0
  9 11  1  0  0  0  0
  9 29  1  0  0  0  0
 11 12  1  0  0  0  0
 11 13  1  0  0  0  0
 11 14  1  0  0  0  0
 14 15  2  0  0  0  0
 14 28  1  0  0  0  0
 15 16  1  0  0  0  0
 15 17  1  0  0  0  0
 17 18  1  0  0  0  0
 17 19  1  0  0  0  0
 19 20  1  0  0  0  0
 19 28  2  0  0  0  0
 20 21  1  0  0  0  0
 20 22  2  0  0  0  0
 22 23  1  0  0  0  0
 22 24  1  0  0  0  0
 24 25  1  0  0  0  0
 24 26  2  0  0  0  0
 26 27  1  0  0  0  0
 26 28  1  0  0  0  0
 29 30  2  0  0  0  0
 29 31  1  0  0  0  0
 31 32  1  0  0  0  0
 31 33  1  0  0  0  0
 33 34  1  0  0  0  0
 33 35  1  0  0  0  0
 33 36  1  0  0  0  0
M  END
$$$$

  -OEChem-03222214083D

 36 37  0     1  0  0  0  0  0999 V2000
   -3.4319   -4.7869    1.3247 H   0  0  0  0  0  0  0  0  0  0  0  0
   -3.3865   -4.0366    0.5310 C   0  0  0  0  0  0  0  0  0  0  0  0
   -4.3661   -3.5623    0.4365 H   0  0  0  0  0  0  0  0  0  0  0  0
   -3.1350   -4.5346   -0.4090 H   0  0  0  0  0  0  0  0  0  0  0  0
   -2.3341   -2.9945    0.8567 C   0  0  0  0  0  0  0  0  0  0  0  0
   -1.6681   -3.0959    1.8766 O   0  0  0  0  0  0  0  0  0  0  0  0
   -2.1169   -1.9495   -0.0163 N   0  0  0  0  0  0  0  0  0  0  0  0
   -2.6221   -1.9848   -0.8978 H   0  0  0  0  0  0  0  0  0  0  0  0
   -0.9299   -1.0769    0.0353 C   0  0  1  0  0  0  0  0  0  0  0  0
   -0.4348   -1.1785    1.0059 H   0  0  0  0  0  0  0  0  0  0  0  0
    0.1004   -1.4385   -1.0692 C   0  0  0  0  0  0  0  0  0  0  0  0
    0.2850   -0.5663   -1.7057 H   0  0  0  0  0  0  0  0  0  0  0  0
    1.0553   -1.6924   -0.5989 H   0  0  0  0  0  0  0  0  0  0  0  0
   -0.3236   -2.5874   -1.9541 C   0  0  0  0  0  0  0  0  0  0  0  0
   -1.0408   -2.4655   -3.1197 C   0  0  0  0  0  0  0  0  0  0  0  0
   -1.3537   -1.5249   -3.5706 H   0  0  0  0  0  0  0  0  0  0  0  0
   -1.2945   -3.7507   -3.5940 N   0  0  0  0  0  0  0  0  0  0  0  0
   -1.7878   -3.9726   -4.4567 H   0  0  0  0  0  0  0  0  0  0  0  0
   -0.7685   -4.6970   -2.7285 C   0  0  0  0  0  0  0  0  0  0  0  0
   -0.7842   -6.0914   -2.7540 C   0  0  0  0  0  0  0  0  0  0  0  0
   -1.2597   -6.6182   -3.5739 H   0  0  0  0  0  0  0  0  0  0  0  0
   -0.1832   -6.8003   -1.7038 C   0  0  0  0  0  0  0  0  0  0  0  0
   -0.1902   -7.8863   -1.7080 H   0  0  0  0  0  0  0  0  0  0  0  0
    0.4224   -6.1085   -0.6432 C   0  0  0  0  0  0  0  0  0  0  0  0
    0.8788   -6.6583    0.1747 H   0  0  0  0  0  0  0  0  0  0  0  0
    0.4368   -4.7067   -0.6309 C   0  0  0  0  0  0  0  0  0  0  0  0
    0.8914   -4.1664    0.1937 H   0  0  0  0  0  0  0  0  0  0  0  0
   -0.1571   -4.0092   -1.6867 C   0  0  0  0  0  0  0  0  0  0  0  0
   -1.3437    0.4004   -0.1119 C   0  0  0  0  0  0  0  0  0  0  0  0
   -2.0990    0.7409   -1.0166 O   0  0  0  0  0  0  0  0  0  0  0  0
   -0.8045    1.3646    0.7203 N   0  0  0  0  0  0  0  0  0  0  0  0
   -0.2398    1.0438    1.5018 H   0  0  0  0  0  0  0  0  0  0  0  0
   -1.1591    2.7765    0.6424 C   0  0  0  0  0  0  0  0  0  0  0  0
   -2.2269    2.9152    0.8416 H   0  0  0  0  0  0  0  0  0  0  0  0
   -0.5907    3.3499    1.3812 H   0  0  0  0  0  0  0  0  0  0  0  0
   -0.9314    3.1750   -0.3519 H   0  0  0  0  0  0  0  0  0  0  0  0
  1  2  1  0  0  0  0
  2  3  1  0  0  0  0
  2  4  1  0  0  0  0
  2  5  1  0  0  0  0
  5  6  2  0  0  0  0
  5  7  1  0  0  0  0
  7  8  1  0  0  0  0
  7  9  1  0  0  0  0
  9 10  1  0  0  0  0
  9 11  1  0  0  0  0
  9 29  1  0  0  0  0
 11 12  1  0  0  0  0
 11 13  1  0  0  0  0
 11 14  1  0  0  0  0
 14 15  2  0  0  0  0
 14 28  1  0  0  0  0
 15 16  1  0  0  0  0
 15 17  1  0  0  0  0
 17 18  1  0  0  0  0
 17 19  1  0  0  0  0
 19 20  1  0  0  0  0
 19 28  2  0  0  0  0
 20 21  1  0  0  0  0
 20 22  2  0  0  0  0
 22 23  1  0  0  0  0
 22 24  1  0  0  0  0
 24 25  1  0  0  0  0
 24 26  2  0  0  0  0
 26 27  1  0  0  0  0
 26 28  1  0  0  0  0
 29 30  2  0  0  0  0
 29 31  1  0  0  0  0
 31 32  1  0  0  0  0
 31 33  1  0  0  0  0
 33 34  1  0  0  0  0
 33 35  1  0  0  0  0
 33 36  1  0  0  0  0
M  END
$$$$

  -OEChem-03222214083D

 36 37  0     1  0  0  0  0  0999 V2000
   -3.6435   -4.6659    1.4334 H   0  0  0  0  0  0  0  0  0  0  0  0
   -3.5706   -3.9274    0.6305 C   0  0  0  0  0  0  0  0  0  0  0  0
   -4.5292   -3.4123    0.5352 H   0  0  0  0  0  0  0  0  0  0  0  0
   -3.3468   -4.4467   -0.3051 H   0  0  0  0  0  0  0  0  0  0  0  0
   -2.4720   -2.9283    0.9379 C   0  0  0  0  0  0  0  0  0  0  0  0
   -1.8164   -3.0367    1.9638 O   0  0  0  0  0  0  0  0  0  0  0  0
   -2.2028   -1.9137    0.0445 N   0  0  0  0  0  0  0  0  0  0  0  0
   -2.7110   -1.9396   -0.8358 H   0  0  0  0  0  0  0  0  0  0  0  0
   -0.9873   -1.0815    0.0822 C   0  0  1  0  0  0  0  0  0  0  0  0
   -0.5023   -1.1764    1.0585 H   0  0  0  0  0  0  0  0  0  0  0  0
    0.0402   -1.4899   -1.0098 C   0  0  0  0  0  0  0  0  0  0  0  0
    0.2634   -0.6310   -1.6521 H   0  0  0  0  0  0  0  0  0  0  0  0
    0.9786   -1.7680   -0.5208 H   0  0  0  0  0  0  0  0  0  0  0  0
   -0.3937   -2.6404   -1.8888 C   0  0  0  0  0  0  0  0  0  0  0  0
   -0.8276   -2.5244   -3.1870 C   0  0  0  0  0  0  0  0  0  0  0  0
   -0.9242   -1.5906   -3.7380 H   0  0  0  0  0  0  0  0  0  0  0  0
   -1.1237   -3.8051   -3.6491 N   0  0  0  0  0  0  0  0  0  0  0  0
   -1.4551   -4.0303   -4.5851 H   0  0  0  0  0  0  0  0  0  0  0  0
   -0.8681   -4.7452   -2.6635 C   0  0  0  0  0  0  0  0  0  0  0  0
   -1.0013   -6.1337   -2.6462 C   0  0  0  0  0  0  0  0  0  0  0  0
   -1.3645   -6.6592   -3.5224 H   0  0  0  0  0  0  0  0  0  0  0  0
   -0.6591   -6.8383   -1.4833 C   0  0  0  0  0  0  0  0  0  0  0  0
   -0.7577   -7.9194   -1.4549 H   0  0  0  0  0  0  0  0  0  0  0  0
   -0.1878   -6.1487   -0.3557 C   0  0  0  0  0  0  0  0  0  0  0  0
    0.0736   -6.6941    0.5462 H   0  0  0  0  0  0  0  0  0  0  0  0
   -0.0541   -4.7538   -0.3861 C   0  0  0  0  0  0  0  0  0  0  0  0
    0.3014   -4.2152    0.4873 H   0  0  0  0  0  0  0  0  0  0  0  0
   -0.4019   -4.0583   -1.5485 C   0  0  0  0  0  0  0  0  0  0  0  0
   -1.3512    0.4046   -0.1068 C   0  0  0  0  0  0  0  0  0  0  0  0
   -2.0978    0.7474   -1.0176 O   0  0  0  0  0  0  0  0  0  0  0  0
   -0.7847    1.3712    0.7044 N   0  0  0  0  0  0  0  0  0  0  0  0
   -0.2189    1.0537    1.4865 H   0  0  0  0  0  0  0  0  0  0  0  0
   -1.0956    2.7907    0.5917 C   0  0  0  0  0  0  0  0  0  0  0  0
   -2.1607    2.9650    0.7761 H   0  0  0  0  0  0  0  0  0  0  0  0
   -0.5187    3.3636    1.3240 H   0  0  0  0  0  0  0  0  0  0  0  0
   -0.8453    3.1593   -0.4086 H   0  0  0  0  0  0  0  0  0  0  0  0
  1  2  1  0  0  0  0
  2  3  1  0  0  0  0
  2  4  1  0  0  0  0
  2  5  1  0  0  0  0
  5  6  2  0  0  0  0
  5  7  1  0  0  0  0
  7  8  1  0  0  0  0
  7  9  1  0  0  0  0
  9 10  1  0  0  0  0
  9 11  1  0  0  0  0
  9 29  1  0  0  0  0
 11 12  1  0  0  0  0
 11 13  1  0  0  0  0
 11 14  1  0  0  0  0
 14 15  2  0  0  0  0
 14 28  1  0  0  0  0
 15 16  1  0  0  0  0
 15 17  1  0  0  0  0
 17 18  1  0  0  0  0
 17 19  1  0  0  0  0
 19 20  1  0  0  0  0
 19 28  2  0  0  0  0
 20 21  1  0  0  0  0
 20 22  2  0  0  0  0
 22 23  1  0  0  0  0
 22 24  1  0  0  0  0
 24 25  1  0  0  0  0
 24 26  2  0  0  0  0
 26 27  1  0  0  0  0
 26 28  1  0  0  0  0
 29 30  2  0  0  0  0
 29 31  1  0  0  0  0
 31 32  1  0  0  0  0
 31 33  1  0  0  0  0
 33 34  1  0  0  0  0
 33 35  1  0  0  0  0
 33 36  1  0  0  0  0
M  END
$$$$

  -OEChem-03222214083D

 36 37  0     1  0  0  0  0  0999 V2000
   -3.9152   -4.4949    1.5251 H   0  0  0  0  0  0  0  0  0  0  0  0
   -3.8312   -3.7390    0.7397 C   0  0  0  0  0  0  0  0  0  0  0  0
   -4.7596   -3.1647    0.6993 H   0  0  0  0  0  0  0  0  0  0  0  0
   -3.6798   -4.2434   -0.2182 H   0  0  0  0  0  0  0  0  0  0  0  0
   -2.6622   -2.8160    1.0263 C   0  0  0  0  0  0  0  0  0  0  0  0
   -2.0265   -2.9359    2.0635 O   0  0  0  0  0  0  0  0  0  0  0  0
   -2.3188   -1.8440    0.1118 N   0  0  0  0  0  0  0  0  0  0  0  0
   -2.8335   -1.8457   -0.7657 H   0  0  0  0  0  0  0  0  0  0  0  0
   -1.0606   -1.0771    0.1348 C   0  0  1  0  0  0  0  0  0  0  0  0
   -0.5846   -1.1719    1.1155 H   0  0  0  0  0  0  0  0  0  0  0  0
   -0.0460   -1.5386   -0.9519 C   0  0  0  0  0  0  0  0  0  0  0  0
    0.2332   -0.6936   -1.5909 H   0  0  0  0  0  0  0  0  0  0  0  0
    0.8685   -1.8609   -0.4447 H   0  0  0  0  0  0  0  0  0  0  0  0
   -0.5041   -2.6763   -1.8379 C   0  0  0  0  0  0  0  0  0  0  0  0
   -0.6356   -2.5954   -3.2034 C   0  0  0  0  0  0  0  0  0  0  0  0
   -0.5062   -1.6910   -3.7945 H   0  0  0  0  0  0  0  0  0  0  0  0
   -0.9783   -3.8595   -3.6764 N   0  0  0  0  0  0  0  0  0  0  0  0
   -1.1438   -4.0973   -4.6522 H   0  0  0  0  0  0  0  0  0  0  0  0
   -0.9878   -4.7743   -2.6373 C   0  0  0  0  0  0  0  0  0  0  0  0
   -1.2252   -6.1488   -2.6173 C   0  0  0  0  0  0  0  0  0  0  0  0
   -1.4817   -6.6725   -3.5317 H   0  0  0  0  0  0  0  0  0  0  0  0
   -1.1159   -6.8425   -1.4040 C   0  0  0  0  0  0  0  0  0  0  0  0
   -1.2986   -7.9125   -1.3715 H   0  0  0  0  0  0  0  0  0  0  0  0
   -0.7548   -6.1583   -0.2337 C   0  0  0  0  0  0  0  0  0  0  0  0
   -0.6554   -6.6966    0.7043 H   0  0  0  0  0  0  0  0  0  0  0  0
   -0.5169   -4.7776   -0.2689 C   0  0  0  0  0  0  0  0  0  0  0  0
   -0.2264   -4.2494    0.6344 H   0  0  0  0  0  0  0  0  0  0  0  0
   -0.6640   -4.0834   -1.4749 C   0  0  0  0  0  0  0  0  0  0  0  0
   -1.3566    0.4180   -0.1027 C   0  0  0  0  0  0  0  0  0  0  0  0
   -2.0863    0.7675   -1.0244 O   0  0  0  0  0  0  0  0  0  0  0  0
   -0.7517    1.3827    0.6828 N   0  0  0  0  0  0  0  0  0  0  0  0
   -0.2087    1.0639    1.4805 H   0  0  0  0  0  0  0  0  0  0  0  0
   -0.9999    2.8107    0.5263 C   0  0  0  0  0  0  0  0  0  0  0  0
   -2.0587    3.0360    0.6915 H   0  0  0  0  0  0  0  0  0  0  0  0
   -0.4081    3.3788    1.2503 H   0  0  0  0  0  0  0  0  0  0  0  0
   -0.7217    3.1406   -0.4803 H   0  0  0  0  0  0  0  0  0  0  0  0
  1  2  1  0  0  0  0
  2  3  1  0  0  0  0
  2  4  1  0  0  0  0
  2  5  1  0  0  0  0
  5  6  2  0  0  0  0
  5  7  1  0  0  0  0
  7  8  1  0  0  0  0
  7  9  1  0  0  0  0
  9 10  1  0  0  0  0
  9 11  1  0  0  0  0
  9 29  1  0  0  0  0
 11 12  1  0  0  0  0
 11 13  1  0  0  0  0
 11 14  1  0  0  0  0
 14 15  2  0  0  0  0
 14 28  1  0  0  0  0
 15 16  1  0  0  0  0
 15 17  1  0  0  0  0
 17 18  1  0  0  0  0
 17 19  1  0  0  0  0
 19 20  1  0  0  0  0
 19 28  2  0  0  0  0
 20 21  1  0  0  0  0
 20 22  2  0  0  0  0
 22 23  1  0  0  0  0
 22 24  1  0  0  0  0
 24 25  1  0  0  0  0
 24 26  2  0  0  0  0
 26 27  1  0  0  0  0
 26 28  1  0  0  0  0
 29 30  2  0  0  0  0
 29 31  1  0  0  0  0
 31 32  1  0  0  0  0
 31 33  1  0  0  0  0
 33 34  1  0  0  0  0
 33 35  1  0  0  0  0
 33 36  1  0  0  0  0
M  END
$$$$

  -OEChem-03222214083D

 36 37  0     1  0  0  0  0  0999 V2000
   -4.1753   -4.2544    1.6907 H   0  0  0  0  0  0  0  0  0  0  0  0
   -4.0650   -3.5007    0.9066 C   0  0  0  0  0  0  0  0  0  0  0  0
   -4.9410   -2.8481    0.9155 H   0  0  0  0  0  0  0  0  0  0  0  0
   -4.0050   -4.0070   -0.0604 H   0  0  0  0  0  0  0  0  0  0  0  0
   -2.8086   -2.6837    1.1394 C   0  0  0  0  0  0  0  0  0  0  0  0
   -2.1592   -2.8325    2.1642 O   0  0  0  0  0  0  0  0  0  0  0  0
   -2.4146   -1.7547    0.2023 N   0  0  0  0  0  0  0  0  0  0  0  0
   -2.9677   -1.7063   -0.6505 H   0  0  0  0  0  0  0  0  0  0  0  0
   -1.1117   -1.0681    0.1774 C   0  0  1  0  0  0  0  0  0  0  0  0
   -0.6124   -1.1740    1.1454 H   0  0  0  0  0  0  0  0  0  0  0  0
   -0.1493   -1.5713   -0.9424 C   0  0  0  0  0  0  0  0  0  0  0  0
    0.1756   -0.7341   -1.5702 H   0  0  0  0  0  0  0  0  0  0  0  0
    0.7493   -1.9512   -0.4461 H   0  0  0  0  0  0  0  0  0  0  0  0
   -0.6520   -2.6788   -1.8461 C   0  0  0  0  0  0  0  0  0  0  0  0
   -0.5093   -2.6513   -3.2142 C   0  0  0  0  0  0  0  0  0  0  0  0
   -0.1670   -1.7945   -3.7909 H   0  0  0  0  0  0  0  0  0  0  0  0
   -0.9111   -3.8820   -3.7230 N   0  0  0  0  0  0  0  0  0  0  0  0
   -0.9290   -4.1348   -4.7089 H   0  0  0  0  0  0  0  0  0  0  0  0
   -1.1655   -4.7609   -2.6873 C   0  0  0  0  0  0  0  0  0  0  0  0
   -1.4996   -6.1152   -2.6979 C   0  0  0  0  0  0  0  0  0  0  0  0
   -1.6640   -6.6314   -3.6371 H   0  0  0  0  0  0  0  0  0  0  0  0
   -1.5935   -6.8035   -1.4815 C   0  0  0  0  0  0  0  0  0  0  0  0
   -1.8501   -7.8587   -1.4715 H   0  0  0  0  0  0  0  0  0  0  0  0
   -1.3188   -6.1373   -0.2791 C   0  0  0  0  0  0  0  0  0  0  0  0
   -1.3546   -6.6762    0.6632 H   0  0  0  0  0  0  0  0  0  0  0  0
   -0.9803   -4.7770   -0.2880 C   0  0  0  0  0  0  0  0  0  0  0  0
   -0.7221   -4.2795    0.6406 H   0  0  0  0  0  0  0  0  0  0  0  0
   -0.9586   -4.0710   -1.4968 C   0  0  0  0  0  0  0  0  0  0  0  0
   -1.3437    0.4347   -0.0867 C   0  0  0  0  0  0  0  0  0  0  0  0
   -2.0901    0.8008   -0.9885 O   0  0  0  0  0  0  0  0  0  0  0  0
   -0.6716    1.3857    0.6602 N   0  0  0  0  0  0  0  0  0  0  0  0
   -0.1245    1.0583    1.4515 H   0  0  0  0  0  0  0  0  0  0  0  0
   -0.8728    2.8195    0.4900 C   0  0  0  0  0  0  0  0  0  0  0  0
   -1.9152    3.0868    0.6933 H   0  0  0  0  0  0  0  0  0  0  0  0
   -0.2313    3.3756    1.1802 H   0  0  0  0  0  0  0  0  0  0  0  0
   -0.6241    3.1233   -0.5324 H   0  0  0  0  0  0  0  0  0  0  0  0
  1  2  1  0  0  0  0
  2  3  1  0  0  0  0
  2  4  1  0  0  0  0
  2  5  1  0  0  0  0
  5  6  2  0  0  0  0
  5  7  1  0  0  0  0
  7  8  1  0  0  0  0
  7  9  1  0  0  0  0
  9 10  1  0  0  0  0
  9 11  1  0  0  0  0
  9 29  1  0  0  0  0
 11 12  1  0  0  0  0
 11 13  1  0  0  0  0
 11 14  1  0  0  0  0
 14 15  2  0  0  0  0
 14 28  1  0  0  0  0
 15 16  1  0  0  0  0
 15 17  1  0  0  0  0
 17 18  1  0  0  0  0
 17 19  1  0  0  0  0
 19 20  1  0  0  0  0
 19 28  2  0  0  0  0
 20 21  1  0  0  0  0
 20 22  2  0  0  0  0
 22 23  1  0  0  0  0
 22 24  1  0  0  0  0
 24 25  1  0  0  0  0
 24 26  2  0  0  0  0
 26 27  1  0  0  0  0
 26 28  1  0  0  0  0
 29 30  2  0  0  0  0
 29 31  1  0  0  0  0
 31 32  1  0  0  0  0
 31 33  1  0  0  0  0
 33 34  1  0  0  0  0
 33 35  1  0  0  0  0
 33 36  1  0  0  0  0
M  END
$$$$

  -OEChem-03222214083D

 36 37  0     1  0  0  0  0  0999 V2000
   -4.4918   -3.9488    1.8005 H   0  0  0  0  0  0  0  0  0  0  0  0
   -4.3264   -3.2191    1.0033 C   0  0  0  0  0  0  0  0  0  0  0  0
   -5.1364   -2.4861    1.0185 H   0  0  0  0  0  0  0  0  0  0  0  0
   -4.3342   -3.7407    0.0428 H   0  0  0  0  0  0  0  0  0  0  0  0
   -2.9943   -2.5210    1.2016 C   0  0  0  0  0  0  0  0  0  0  0  0
   -2.3513   -2.7012    2.2250 O   0  0  0  0  0  0  0  0  0  0  0  0
   -2.5304   -1.6492    0.2429 N   0  0  0  0  0  0  0  0  0  0  0  0
   -3.0985   -1.5493   -0.5958 H   0  0  0  0  0  0  0  0  0  0  0  0
   -1.1903   -1.0403    0.1998 C   0  0  1  0  0  0  0  0  0  0  0  0
   -0.7023   -1.1405    1.1745 H   0  0  0  0  0  0  0  0  0  0  0  0
   -0.2308   -1.5869   -0.9082 C   0  0  0  0  0  0  0  0  0  0  0  0
    0.1508   -0.7614   -1.5195 H   0  0  0  0  0  0  0  0  0  0  0  0
    0.6354   -1.9995   -0.3817 H   0  0  0  0  0  0  0  0  0  0  0  0
   -0.7074   -2.6816   -1.8473 C   0  0  0  0  0  0  0  0  0  0  0  0
   -0.2337   -2.7579   -3.1389 C   0  0  0  0  0  0  0  0  0  0  0  0
    0.3461   -1.9830   -3.6359 H   0  0  0  0  0  0  0  0  0  0  0  0
   -0.6765   -3.9424   -3.7148 N   0  0  0  0  0  0  0  0  0  0  0  0
   -0.5009   -4.2351   -4.6737 H   0  0  0  0  0  0  0  0  0  0  0  0
   -1.2462   -4.7424   -2.7477 C   0  0  0  0  0  0  0  0  0  0  0  0
   -1.7056   -6.0571   -2.8217 C   0  0  0  0  0  0  0  0  0  0  0  0
   -1.7426   -6.5723   -3.7749 H   0  0  0  0  0  0  0  0  0  0  0  0
   -2.0789   -6.7128   -1.6432 C   0  0  0  0  0  0  0  0  0  0  0  0
   -2.4339   -7.7385   -1.6789 H   0  0  0  0  0  0  0  0  0  0  0  0
   -1.9367   -6.0600   -0.4118 C   0  0  0  0  0  0  0  0  0  0  0  0
   -2.1641   -6.5845    0.5117 H   0  0  0  0  0  0  0  0  0  0  0  0
   -1.4709   -4.7384   -0.3646 C   0  0  0  0  0  0  0  0  0  0  0  0
   -1.2783   -4.2785    0.5954 H   0  0  0  0  0  0  0  0  0  0  0  0
   -1.2029   -4.0381   -1.5470 C   0  0  0  0  0  0  0  0  0  0  0  0
   -1.3595    0.4624   -0.1157 C   0  0  0  0  0  0  0  0  0  0  0  0
   -2.1052    0.8332   -1.0163 O   0  0  0  0  0  0  0  0  0  0  0  0
   -0.6457    1.4070    0.5998 N   0  0  0  0  0  0  0  0  0  0  0  0
   -0.1018    1.0797    1.3932 H   0  0  0  0  0  0  0  0  0  0  0  0
   -0.7848    2.8425    0.3876 C   0  0  0  0  0  0  0  0  0  0  0  0
   -1.8096    3.1638    0.6010 H   0  0  0  0  0  0  0  0  0  0  0  0
   -0.1053    3.3899    1.0478 H   0  0  0  0  0  0  0  0  0  0  0  0
   -0.5420    3.1025   -0.6481 H   0  0  0  0  0  0  0  0  0  0  0  0
  1  2  1  0  0  0  0
  2  3  1  0  0  0  0
  2  4  1  0  0  0  0
  2  5  1  0  0  0  0
  5  6  2  0  0  0  0
  5  7  1  0  0  0  0
  7  8  1  0  0  0  0
  7  9  1  0  0  0  0
  9 10  1  0  0  0  0
  9 11  1  0  0  0  0
  9 29  1  0  0  0  0
 11 12  1  0  0  0  0
 11 13  1  0  0  0  0
 11 14  1  0  0  0  0
 14 15  2  0  0  0  0
 14 28  1  0  0  0  0
 15 16  1  0  0  0  0
 15 17  1  0  0  0  0
 17 18  1  0  0  0  0
 17 19  1  0  0  0  0
 19 20  1  0  0  0  0
 19 28  2  0  0  0  0
 20 21  1  0  0  0  0
 20 22  2  0  0  0  0
 22 23  1  0  0  0  0
 22 24  1  0  0  0  0
 24 25  1  0  0  0  0
 24 26  2  0  0  0  0
 26 27  1  0  0  0  0
 26 28  1  0  0  0  0
 29 30  2  0  0  0  0
 29 31  1  0  0  0  0
 31 32  1  0  0  0  0
 31 33  1  0  0  0  0
 33 34  1  0  0  0  0
 33 35  1  0  0  0  0
 33 36  1  0  0  0  0
M  END
$$$$

  -OEChem-03222214083D

 36 37  0     1  0  0  0  0  0999 V2000
   -4.6786   -3.3212    0.4848 H   0  0  0  0  0  0  0  0  0  0  0  0
   -4.4285   -2.8673    1.4472 C   0  0  0  0  0  0  0  0  0  0  0  0
   -4.5823   -3.6086    2.2365 H   0  0  0  0  0  0  0  0  0  0  0  0
   -5.0929   -2.0179    1.6240 H   0  0  0  0  0  0  0  0  0  0  0  0
   -2.9845   -2.4009    1.4406 C   0  0  0  0  0  0  0  0  0  0  0  0
   -2.2317   -2.7228    2.3463 O   0  0  0  0  0  0  0  0  0  0  0  0
   -2.5346   -1.5906    0.4227 N   0  0  0  0  0  0  0  0  0  0  0  0
   -3.2005   -1.3385   -0.3059 H   0  0  0  0  0  0  0  0  0  0  0  0
   -1.1677   -1.0701    0.2759 C   0  0  1  0  0  0  0  0  0  0  0  0
   -0.6380   -1.1526    1.2304 H   0  0  0  0  0  0  0  0  0  0  0  0
   -0.2534   -1.6549   -0.8547 C   0  0  0  0  0  0  0  0  0  0  0  0
    0.1469   -0.8307   -1.4570 H   0  0  0  0  0  0  0  0  0  0  0  0
    0.6053   -2.0790   -0.3243 H   0  0  0  0  0  0  0  0  0  0  0  0
   -0.6737   -2.7467   -1.8352 C   0  0  0  0  0  0  0  0  0  0  0  0
    0.1137   -2.9018   -2.9574 C   0  0  0  0  0  0  0  0  0  0  0  0
    0.9240   -2.2359   -3.2457 H   0  0  0  0  0  0  0  0  0  0  0  0
   -0.3542   -3.9733   -3.7021 N   0  0  0  0  0  0  0  0  0  0  0  0
    0.0151   -4.2786   -4.5997 H   0  0  0  0  0  0  0  0  0  0  0  0
   -1.3154   -4.6470   -2.9841 C   0  0  0  0  0  0  0  0  0  0  0  0
   -1.9714   -5.8372   -3.2976 C   0  0  0  0  0  0  0  0  0  0  0  0
   -1.8280   -6.3052   -4.2650 H   0  0  0  0  0  0  0  0  0  0  0  0
   -2.7862   -6.4357   -2.3327 C   0  0  0  0  0  0  0  0  0  0  0  0
   -3.3038   -7.3645   -2.5528 H   0  0  0  0  0  0  0  0  0  0  0  0
   -2.8776   -5.8626   -1.0599 C   0  0  0  0  0  0  0  0  0  0  0  0
   -3.4473   -6.3599   -0.2808 H   0  0  0  0  0  0  0  0  0  0  0  0
   -2.2027   -4.6672   -0.7750 C   0  0  0  0  0  0  0  0  0  0  0  0
   -2.1899   -4.3205    0.2416 H   0  0  0  0  0  0  0  0  0  0  0  0
   -1.4819   -3.9876   -1.7647 C   0  0  0  0  0  0  0  0  0  0  0  0
   -1.3090    0.4279   -0.0787 C   0  0  0  0  0  0  0  0  0  0  0  0
   -2.1381    0.8026   -0.9016 O   0  0  0  0  0  0  0  0  0  0  0  0
   -0.5154    1.3682    0.5536 N   0  0  0  0  0  0  0  0  0  0  0  0
    0.0954    1.0421    1.2973 H   0  0  0  0  0  0  0  0  0  0  0  0
   -0.6443    2.8026    0.3283 C   0  0  0  0  0  0  0  0  0  0  0  0
   -1.6399    3.1489    0.6252 H   0  0  0  0  0  0  0  0  0  0  0  0
    0.1014    3.3466    0.9162 H   0  0  0  0  0  0  0  0  0  0  0  0
   -0.4888    3.0395   -0.7296 H   0  0  0  0  0  0  0  0  0  0  0  0
  1  2  1  0  0  0  0
  2  3  1  0  0  0  0
  2  4  1  0  0  0  0
  2  5  1  0  0  0  0
  5  6  2  0  0  0  0
  5  7  1  0  0  0  0
  7  8  1  0  0  0  0
  7  9  1  0  0  0  0
  9 10  1  0  0  0  0
  9 11  1  0  0  0  0
  9 29  1  0  0  0  0
 11 12  1  0  0  0  0
 11 13  1  0  0  0  0
 11 14  1  0  0  0  0
 14 15  2  0  0  0  0
 14 28  1  0  0  0  0
 15 16  1  0  0  0  0
 15 17  1  0  0  0  0
 17 18  1  0  0  0  0
 17 19  1  0  0  0  0
 19 20  1  0  0  0  0
 19 28  2  0  0  0  0
 20 21  1  0  0  0  0
 20 22  2  0  0  0  0
 22 23  1  0  0  0  0
 22 24  1  0  0  0  0
 24 25  1  0  0  0  0
 24 26  2  0  0  0  0
 26 27  1  0  0  0  0
 26 28  1  0  0  0  0
 29 30  2  0  0  0  0
 29 31  1  0  0  0  0
 31 32  1  0  0  0  0
 31 33  1  0  0  0  0
 33 34  1  0  0  0  0
 33 35  1  0  0  0  0
 33 36  1  0  0  0  0
M  END
$$$$

  -OEChem-03222214083D

 36 37  0     1  0  0  0  0  0999 V2000
   -3.2504   -4.1627    2.7593 H   0  0  0  0  0  0  0  0  0  0  0  0
   -3.4111   -3.4936    1.9096 C   0  0  0  0  0  0  0  0  0  0  0  0
   -4.1914   -2.7745    2.1690 H   0  0  0  0  0  0  0  0  0  0  0  0
   -3.7400   -4.0861    1.0521 H   0  0  0  0  0  0  0  0  0  0  0  0
   -2.1251   -2.7654    1.5679 C   0  0  0  0  0  0  0  0  0  0  0  0
   -1.1108   -2.9782    2.2140 O   0  0  0  0  0  0  0  0  0  0  0  0
   -2.1124   -1.8534    0.5349 N   0  0  0  0  0  0  0  0  0  0  0  0
   -3.0048   -1.5948    0.1239 H   0  0  0  0  0  0  0  0  0  0  0  0
   -0.9529   -1.0588    0.1359 C   0  0  1  0  0  0  0  0  0  0  0  0
   -0.2380   -1.0292    0.9642 H   0  0  0  0  0  0  0  0  0  0  0  0
   -0.1948   -1.5892   -1.1080 C   0  0  0  0  0  0  0  0  0  0  0  0
    0.1186   -0.7268   -1.7063 H   0  0  0  0  0  0  0  0  0  0  0  0
    0.7217   -2.0422   -0.7158 H   0  0  0  0  0  0  0  0  0  0  0  0
   -0.7686   -2.6203   -2.0798 C   0  0  0  0  0  0  0  0  0  0  0  0
    0.0622   -2.9763   -3.1205 C   0  0  0  0  0  0  0  0  0  0  0  0
    1.0935   -2.6496   -3.2343 H   0  0  0  0  0  0  0  0  0  0  0  0
   -0.6046   -3.8571   -3.9549 N   0  0  0  0  0  0  0  0  0  0  0  0
   -0.2152   -4.2994   -4.7845 H   0  0  0  0  0  0  0  0  0  0  0  0
   -1.9133   -3.9801   -3.5458 C   0  0  0  0  0  0  0  0  0  0  0  0
   -2.9364   -4.7091   -4.1506 C   0  0  0  0  0  0  0  0  0  0  0  0
   -2.7311   -5.3273   -5.0174 H   0  0  0  0  0  0  0  0  0  0  0  0
   -4.2320   -4.6121   -3.6392 C   0  0  0  0  0  0  0  0  0  0  0  0
   -5.0440   -5.1681   -4.0981 H   0  0  0  0  0  0  0  0  0  0  0  0
   -4.4825   -3.7618   -2.5584 C   0  0  0  0  0  0  0  0  0  0  0  0
   -5.4965   -3.6466   -2.1875 H   0  0  0  0  0  0  0  0  0  0  0  0
   -3.4367   -3.0381   -1.9675 C   0  0  0  0  0  0  0  0  0  0  0  0
   -3.7068   -2.3466   -1.1879 H   0  0  0  0  0  0  0  0  0  0  0  0
   -2.1091   -3.1775   -2.4170 C   0  0  0  0  0  0  0  0  0  0  0  0
   -1.4059    0.3975   -0.0923 C   0  0  0  0  0  0  0  0  0  0  0  0
   -2.4830    0.6297   -0.6308 O   0  0  0  0  0  0  0  0  0  0  0  0
   -0.6625    1.4498    0.4111 N   0  0  0  0  0  0  0  0  0  0  0  0
    0.1706    1.2222    0.9463 H   0  0  0  0  0  0  0  0  0  0  0  0
   -1.1022    2.8386    0.3516 C   0  0  0  0  0  0  0  0  0  0  0  0
   -2.0113    2.9780    0.9460 H   0  0  0  0  0  0  0  0  0  0  0  0
   -0.3245    3.4991    0.7474 H   0  0  0  0  0  0  0  0  0  0  0  0
   -1.3092    3.1324   -0.6830 H   0  0  0  0  0  0  0  0  0  0  0  0
  1  2  1  0  0  0  0
  2  3  1  0  0  0  0
  2  4  1  0  0  0  0
  2  5  1  0  0  0  0
  5  6  2  0  0  0  0
  5  7  1  0  0  0  0
  7  8  1  0  0  0  0
  7  9  1  0  0  0  0
  9 10  1  0  0  0  0
  9 11  1  0  0  0  0
  9 29  1  0  0  0  0
 11 12  1  0  0  0  0
 11 13  1  0  0  0  0
 11 14  1  0  0  0  0
 14 15  2  0  0  0  0
 14 28  1  0  0  0  0
 15 16  1  0  0  0  0
 15 17  1  0  0  0  0
 17 18  1  0  0  0  0
 17 19  1  0  0  0  0
 19 20  1  0  0  0  0
 19 28  2  0  0  0  0
 20 21  1  0  0  0  0
 20 22  2  0  0  0  0
 22 23  1  0  0  0  0
 22 24  1  0  0  0  0
 24 25  1  0  0  0  0
 24 26  2  0  0  0  0
 26 27  1  0  0  0  0
 26 28  1  0  0  0  0
 29 30  2  0  0  0  0
 29 31  1  0  0  0  0
 31 32  1  0  0  0  0
 31 33  1  0  0  0  0
 33 34  1  0  0  0  0
 33 35  1  0  0  0  0
 33 36  1  0  0  0  0
M  END
$$$$

  -OEChem-03222214083D

 36 37  0     1  0  0  0  0  0999 V2000
   -3.1119   -4.6872    2.2447 H   0  0  0  0  0  0  0  0  0  0  0  0
   -3.2684   -3.9689    1.4354 C   0  0  0  0  0  0  0  0  0  0  0  0
   -4.2318   -3.4752    1.5828 H   0  0  0  0  0  0  0  0  0  0  0  0
   -3.2850   -4.5070    0.4842 H   0  0  0  0  0  0  0  0  0  0  0  0
   -2.1547   -2.9391    1.4264 C   0  0  0  0  0  0  0  0  0  0  0  0
   -1.2742   -2.9813    2.2721 O   0  0  0  0  0  0  0  0  0  0  0  0
   -2.1411   -1.9669    0.4502 N   0  0  0  0  0  0  0  0  0  0  0  0
   -2.8119   -2.0906   -0.3007 H   0  0  0  0  0  0  0  0  0  0  0  0
   -0.9920   -1.0928    0.1746 C   0  0  1  0  0  0  0  0  0  0  0  0
   -0.3160   -1.1032    1.0351 H   0  0  0  0  0  0  0  0  0  0  0  0
   -0.1795   -1.5669   -1.0588 C   0  0  0  0  0  0  0  0  0  0  0  0
    0.1084   -0.6889   -1.6470 H   0  0  0  0  0  0  0  0  0  0  0  0
    0.7479   -2.0062   -0.6783 H   0  0  0  0  0  0  0  0  0  0  0  0
   -0.7883   -2.5758   -2.0246 C   0  0  0  0  0  0  0  0  0  0  0  0
    0.0338   -3.2306   -2.9140 C   0  0  0  0  0  0  0  0  0  0  0  0
    1.1207   -3.1853   -2.9092 H   0  0  0  0  0  0  0  0  0  0  0  0
   -0.7480   -3.9911   -3.7715 N   0  0  0  0  0  0  0  0  0  0  0  0
   -0.3978   -4.5920   -4.5147 H   0  0  0  0  0  0  0  0  0  0  0  0
   -2.0808   -3.7085   -3.5612 C   0  0  0  0  0  0  0  0  0  0  0  0
   -3.1994   -4.1654   -4.2560 C   0  0  0  0  0  0  0  0  0  0  0  0
   -3.0921   -4.9050   -5.0416 H   0  0  0  0  0  0  0  0  0  0  0  0
   -4.4553   -3.6349   -3.9461 C   0  0  0  0  0  0  0  0  0  0  0  0
   -5.3382   -3.9751   -4.4794 H   0  0  0  0  0  0  0  0  0  0  0  0
   -4.5622   -2.6282   -2.9796 C   0  0  0  0  0  0  0  0  0  0  0  0
   -5.5274   -2.1745   -2.7749 H   0  0  0  0  0  0  0  0  0  0  0  0
   -3.4246   -2.1803   -2.2943 C   0  0  0  0  0  0  0  0  0  0  0  0
   -3.5415   -1.3475   -1.6115 H   0  0  0  0  0  0  0  0  0  0  0  0
   -2.1684   -2.7692   -2.5332 C   0  0  0  0  0  0  0  0  0  0  0  0
   -1.4269    0.3779   -0.0017 C   0  0  0  0  0  0  0  0  0  0  0  0
   -2.4003    0.6728   -0.6844 O   0  0  0  0  0  0  0  0  0  0  0  0
   -0.7142    1.3897    0.6171 N   0  0  0  0  0  0  0  0  0  0  0  0
    0.0379    1.1179    1.2437 H   0  0  0  0  0  0  0  0  0  0  0  0
   -1.0920    2.7957    0.5398 C   0  0  0  0  0  0  0  0  0  0  0  0
   -2.1090    2.9416    0.9187 H   0  0  0  0  0  0  0  0  0  0  0  0
   -0.4094    3.4041    1.1408 H   0  0  0  0  0  0  0  0  0  0  0  0
   -1.0478    3.1474   -0.4963 H   0  0  0  0  0  0  0  0  0  0  0  0
  1  2  1  0  0  0  0
  2  3  1  0  0  0  0
  2  4  1  0  0  0  0
  2  5  1  0  0  0  0
  5  6  2  0  0  0  0
  5  7  1  0  0  0  0
  7  8  1  0  0  0  0
  7  9  1  0  0  0  0
  9 10  1  0  0  0  0
  9 11  1  0  0  0  0
  9 29  1  0  0  0  0
 11 12  1  0  0  0  0
 11 13  1  0  0  0  0
 11 14  1  0  0  0  0
 14 15  2  0  0  0  0
 14 28  1  0  0  0  0
 15 16  1  0  0  0  0
 15 17  1  0  0  0  0
 17 18  1  0  0  0  0
 17 19  1  0  0  0  0
 19 20  1  0  0  0  0
 19 28  2  0  0  0  0
 20 21  1  0  0  0  0
 20 22  2  0  0  0  0
 22 23  1  0  0  0  0
 22 24  1  0  0  0  0
 24 25  1  0  0  0  0
 24 26  2  0  0  0  0
 26 27  1  0  0  0  0
 26 28  1  0  0  0  0
 29 30  2  0  0  0  0
 29 31  1  0  0  0  0
 31 32  1  0  0  0  0
 31 33  1  0  0  0  0
 33 34  1  0  0  0  0
 33 35  1  0  0  0  0
 33 36  1  0  0  0  0
M  END
$$$$

  -OEChem-03222214083D

 36 37  0     1  0  0  0  0  0999 V2000
   -3.3921   -4.6720    1.8764 H   0  0  0  0  0  0  0  0  0  0  0  0
   -3.4852   -3.9071    1.1004 C   0  0  0  0  0  0  0  0  0  0  0  0
   -4.4431   -3.3956    1.2205 H   0  0  0  0  0  0  0  0  0  0  0  0
   -3.4599   -4.3921    0.1211 H   0  0  0  0  0  0  0  0  0  0  0  0
   -2.3489   -2.9089    1.2104 C   0  0  0  0  0  0  0  0  0  0  0  0
   -1.5146   -3.0262    2.0951 O   0  0  0  0  0  0  0  0  0  0  0  0
   -2.2563   -1.8867    0.2913 N   0  0  0  0  0  0  0  0  0  0  0  0
   -2.8966   -1.9401   -0.4966 H   0  0  0  0  0  0  0  0  0  0  0  0
   -1.0711   -1.0313    0.1225 C   0  0  1  0  0  0  0  0  0  0  0  0
   -0.4594   -1.1048    1.0270 H   0  0  0  0  0  0  0  0  0  0  0  0
   -0.1822   -1.5107   -1.0546 C   0  0  0  0  0  0  0  0  0  0  0  0
    0.1495   -0.6344   -1.6214 H   0  0  0  0  0  0  0  0  0  0  0  0
    0.7153   -1.9667   -0.6246 H   0  0  0  0  0  0  0  0  0  0  0  0
   -0.7742   -2.4962   -2.0525 C   0  0  0  0  0  0  0  0  0  0  0  0
    0.0277   -3.4096   -2.6977 C   0  0  0  0  0  0  0  0  0  0  0  0
    1.0870   -3.5617   -2.5023 H   0  0  0  0  0  0  0  0  0  0  0  0
   -0.7507   -4.1159   -3.6060 N   0  0  0  0  0  0  0  0  0  0  0  0
   -0.4187   -4.8622   -4.2136 H   0  0  0  0  0  0  0  0  0  0  0  0
   -2.0322   -3.6022   -3.6308 C   0  0  0  0  0  0  0  0  0  0  0  0
   -3.1253   -3.9581   -4.4204 C   0  0  0  0  0  0  0  0  0  0  0  0
   -3.0498   -4.7821   -5.1214 H   0  0  0  0  0  0  0  0  0  0  0  0
   -4.3130   -3.2267   -4.3088 C   0  0  0  0  0  0  0  0  0  0  0  0
   -5.1729   -3.4867   -4.9191 H   0  0  0  0  0  0  0  0  0  0  0  0
   -4.3809   -2.1400   -3.4281 C   0  0  0  0  0  0  0  0  0  0  0  0
   -5.2911   -1.5511   -3.3626 H   0  0  0  0  0  0  0  0  0  0  0  0
   -3.2726   -1.7960   -2.6422 C   0  0  0  0  0  0  0  0  0  0  0  0
   -3.3424   -0.9265   -2.0015 H   0  0  0  0  0  0  0  0  0  0  0  0
   -2.0933   -2.5550   -2.7125 C   0  0  0  0  0  0  0  0  0  0  0  0
   -1.4177    0.4685   -0.0005 C   0  0  0  0  0  0  0  0  0  0  0  0
   -2.3418    0.8553   -0.7042 O   0  0  0  0  0  0  0  0  0  0  0  0
   -0.6870    1.4050    0.7094 N   0  0  0  0  0  0  0  0  0  0  0  0
    0.0178    1.0591    1.3543 H   0  0  0  0  0  0  0  0  0  0  0  0
   -0.9854    2.8319    0.6935 C   0  0  0  0  0  0  0  0  0  0  0  0
   -2.0084    3.0139    1.0395 H   0  0  0  0  0  0  0  0  0  0  0  0
   -0.2972    3.3698    1.3526 H   0  0  0  0  0  0  0  0  0  0  0  0
   -0.8785    3.2336   -0.3196 H   0  0  0  0  0  0  0  0  0  0  0  0
  1  2  1  0  0  0  0
  2  3  1  0  0  0  0
  2  4  1  0  0  0  0
  2  5  1  0  0  0  0
  5  6  2  0  0  0  0
  5  7  1  0  0  0  0
  7  8  1  0  0  0  0
  7  9  1  0  0  0  0
  9 10  1  0  0  0  0
  9 11  1  0  0  0  0
  9 29  1  0  0  0  0
 11 12  1  0  0  0  0
 11 13  1  0  0  0  0
 11 14  1  0  0  0  0
 14 15  2  0  0  0  0
 14 28  1  0  0  0  0
 15 16  1  0  0  0  0
 15 17  1  0  0  0  0
 17 18  1  0  0  0  0
 17 19  1  0  0  0  0
 19 20  1  0  0  0  0
 19 28  2  0  0  0  0
 20 21  1  0  0  0  0
 20 22  2  0  0  0  0
 22 23  1  0  0  0  0
 22 24  1  0  0  0  0
 24 25  1  0  0  0  0
 24 26  2  0  0  0  0
 26 27  1  0  0  0  0
 26 28  1  0  0  0  0
 29 30  2  0  0  0  0
 29 31  1  0  0  0  0
 31 32  1  0  0  0  0
 31 33  1  0  0  0  0
 33 34  1  0  0  0  0
 33 35  1  0  0  0  0
 33 36  1  0  0  0  0
M  END
$$$$

  -OEChem-03222214083D

 36 37  0     1  0  0  0  0  0999 V2000
   -3.5221   -4.6665    1.5615 H   0  0  0  0  0  0  0  0  0  0  0  0
   -3.5767   -3.8631    0.8219 C   0  0  0  0  0  0  0  0  0  0  0  0
   -4.5290   -3.3400    0.9370 H   0  0  0  0  0  0  0  0  0  0  0  0
   -3.5272   -4.3005   -0.1787 H   0  0  0  0  0  0  0  0  0  0  0  0
   -2.4269   -2.8934    1.0148 C   0  0  0  0  0  0  0  0  0  0  0  0
   -1.6102   -3.0800    1.9043 O   0  0  0  0  0  0  0  0  0  0  0  0
   -2.2905   -1.8309    0.1487 N   0  0  0  0  0  0  0  0  0  0  0  0
   -2.9234   -1.8179   -0.6485 H   0  0  0  0  0  0  0  0  0  0  0  0
   -1.0925   -0.9811    0.0519 C   0  0  1  0  0  0  0  0  0  0  0  0
   -0.5265   -1.0967    0.9813 H   0  0  0  0  0  0  0  0  0  0  0  0
   -0.1515   -1.4536   -1.0857 C   0  0  0  0  0  0  0  0  0  0  0  0
    0.2080   -0.5769   -1.6342 H   0  0  0  0  0  0  0  0  0  0  0  0
    0.7237   -1.9212   -0.6239 H   0  0  0  0  0  0  0  0  0  0  0  0
   -0.7327   -2.4243   -2.1016 C   0  0  0  0  0  0  0  0  0  0  0  0
   -0.0434   -3.5404   -2.5156 C   0  0  0  0  0  0  0  0  0  0  0  0
    0.9330   -3.8481   -2.1477 H   0  0  0  0  0  0  0  0  0  0  0  0
   -0.8198   -4.2089   -3.4549 N   0  0  0  0  0  0  0  0  0  0  0  0
   -0.5615   -5.0740   -3.9252 H   0  0  0  0  0  0  0  0  0  0  0  0
   -1.9855   -3.5067   -3.6956 C   0  0  0  0  0  0  0  0  0  0  0  0
   -3.0403   -3.7761   -4.5668 C   0  0  0  0  0  0  0  0  0  0  0  0
   -3.0307   -4.6718   -5.1778 H   0  0  0  0  0  0  0  0  0  0  0  0
   -4.1043   -2.8699   -4.6491 C   0  0  0  0  0  0  0  0  0  0  0  0
   -4.9325   -3.0624   -5.3248 H   0  0  0  0  0  0  0  0  0  0  0  0
   -4.0903   -1.7050   -3.8702 C   0  0  0  0  0  0  0  0  0  0  0  0
   -4.9049   -0.9909   -3.9469 H   0  0  0  0  0  0  0  0  0  0  0  0
   -3.0221   -1.4488   -2.9996 C   0  0  0  0  0  0  0  0  0  0  0  0
   -3.0183   -0.5314   -2.4269 H   0  0  0  0  0  0  0  0  0  0  0  0
   -1.9691   -2.3668   -2.8947 C   0  0  0  0  0  0  0  0  0  0  0  0
   -1.3991    0.5306   -0.0152 C   0  0  0  0  0  0  0  0  0  0  0  0
   -2.3147    0.9691   -0.6986 O   0  0  0  0  0  0  0  0  0  0  0  0
   -0.6669    1.4163    0.7561 N   0  0  0  0  0  0  0  0  0  0  0  0
    0.0337    1.0279    1.3809 H   0  0  0  0  0  0  0  0  0  0  0  0
   -0.9353    2.8485    0.8049 C   0  0  0  0  0  0  0  0  0  0  0  0
   -1.9598    3.0357    1.1441 H   0  0  0  0  0  0  0  0  0  0  0  0
   -0.2464    3.3387    1.4996 H   0  0  0  0  0  0  0  0  0  0  0  0
   -0.8034    3.2967   -0.1855 H   0  0  0  0  0  0  0  0  0  0  0  0
  1  2  1  0  0  0  0
  2  3  1  0  0  0  0
  2  4  1  0  0  0  0
  2  5  1  0  0  0  0
  5  6  2  0  0  0  0
  5  7  1  0  0  0  0
  7  8  1  0  0  0  0
  7  9  1  0  0  0  0
  9 10  1  0  0  0  0
  9 11  1  0  0  0  0
  9 29  1  0  0  0  0
 11 12  1  0  0  0  0
 11 13  1  0  0  0  0
 11 14  1  0  0  0  0
 14 15  2  0  0  0  0
 14 28  1  0  0  0  0
 15 16  1  0  0  0  0
 15 17  1  0  0  0  0
 17 18  1  0  0  0  0
 17 19  1  0  0  0  0
 19 20  1  0  0  0  0
 19 28  2  0  0  0  0
 20 21  1  0  0  0  0
 20 22  2  0  0  0  0
 22 23  1  0  0  0  0
 22 24  1  0  0  0  0
 24 25  1  0  0  0  0
 24 26  2  0  0  0  0
 26 27  1  0  0  0  0
 26 28  1  0  0  0  0
 29 30  2  0  0  0  0
 29 31  1  0  0  0  0
 31 32  1  0  0  0  0
 31 33  1  0  0  0  0
 33 34  1  0  0  0  0
 33 35  1  0  0  0  0
 33 36  1  0  0  0  0
M  END
$$$$

  -OEChem-03222214083D

 36 37  0     1  0  0  0  0  0999 V2000
   -3.6002   -4.6467    1.4440 H   0  0  0  0  0  0  0  0  0  0  0  0
   -3.6259   -3.8359    0.7109 C   0  0  0  0  0  0  0  0  0  0  0  0
   -4.5599   -3.2813    0.8295 H   0  0  0  0  0  0  0  0  0  0  0  0
   -3.5906   -4.2662   -0.2933 H   0  0  0  0  0  0  0  0  0  0  0  0
   -2.4434   -2.9081    0.9141 C   0  0  0  0  0  0  0  0  0  0  0  0
   -1.6357   -3.1300    1.8038 O   0  0  0  0  0  0  0  0  0  0  0  0
   -2.2683   -1.8400    0.0626 N   0  0  0  0  0  0  0  0  0  0  0  0
   -2.9037   -1.7792   -0.7311 H   0  0  0  0  0  0  0  0  0  0  0  0
   -1.0671   -0.9900    0.0114 C   0  0  1  0  0  0  0  0  0  0  0  0
   -0.5325   -1.1089    0.9587 H   0  0  0  0  0  0  0  0  0  0  0  0
   -0.0879   -1.4523   -1.0983 C   0  0  0  0  0  0  0  0  0  0  0  0
    0.2980   -0.5775   -1.6319 H   0  0  0  0  0  0  0  0  0  0  0  0
    0.7678   -1.9351   -0.6158 H   0  0  0  0  0  0  0  0  0  0  0  0
   -0.6692   -2.4121   -2.1193 C   0  0  0  0  0  0  0  0  0  0  0  0
   -0.1738   -3.6775   -2.3284 C   0  0  0  0  0  0  0  0  0  0  0  0
    0.6580   -4.1247   -1.7883 H   0  0  0  0  0  0  0  0  0  0  0  0
   -0.9391   -4.2817   -3.3205 N   0  0  0  0  0  0  0  0  0  0  0  0
   -0.7999   -5.2239   -3.6801 H   0  0  0  0  0  0  0  0  0  0  0  0
   -1.9043   -3.4041   -3.7807 C   0  0  0  0  0  0  0  0  0  0  0  0
   -2.8805   -3.5536   -4.7655 C   0  0  0  0  0  0  0  0  0  0  0  0
   -2.9771   -4.4903   -5.3028 H   0  0  0  0  0  0  0  0  0  0  0  0
   -3.7277   -2.4763   -5.0546 C   0  0  0  0  0  0  0  0  0  0  0  0
   -4.4917   -2.5746   -5.8202 H   0  0  0  0  0  0  0  0  0  0  0  0
   -3.5795   -1.2654   -4.3636 C   0  0  0  0  0  0  0  0  0  0  0  0
   -4.2257   -0.4235   -4.5941 H   0  0  0  0  0  0  0  0  0  0  0  0
   -2.5918   -1.1294   -3.3785 C   0  0  0  0  0  0  0  0  0  0  0  0
   -2.4711   -0.1814   -2.8707 H   0  0  0  0  0  0  0  0  0  0  0  0
   -1.7614   -2.2131   -3.0742 C   0  0  0  0  0  0  0  0  0  0  0  0
   -1.3912    0.5172   -0.0581 C   0  0  0  0  0  0  0  0  0  0  0  0
   -2.3145    0.9390   -0.7422 O   0  0  0  0  0  0  0  0  0  0  0  0
   -0.6986    1.4104    0.7404 N   0  0  0  0  0  0  0  0  0  0  0  0
   -0.0039    1.0306    1.3768 H   0  0  0  0  0  0  0  0  0  0  0  0
   -1.0102    2.8332    0.8073 C   0  0  0  0  0  0  0  0  0  0  0  0
   -2.0354    2.9850    1.1613 H   0  0  0  0  0  0  0  0  0  0  0  0
   -0.3272    3.3377    1.4974 H   0  0  0  0  0  0  0  0  0  0  0  0
   -0.9062    3.2951   -0.1802 H   0  0  0  0  0  0  0  0  0  0  0  0
  1  2  1  0  0  0  0
  2  3  1  0  0  0  0
  2  4  1  0  0  0  0
  2  5  1  0  0  0  0
  5  6  2  0  0  0  0
  5  7  1  0  0  0  0
  7  8  1  0  0  0  0
  7  9  1  0  0  0  0
  9 10  1  0  0  0  0
  9 11  1  0  0  0  0
  9 29  1  0  0  0  0
 11 12  1  0  0  0  0
 11 13  1  0  0  0  0
 11 14  1  0  0  0  0
 14 15  2  0  0  0  0
 14 28  1  0  0  0  0
 15 16  1  0  0  0  0
 15 17  1  0  0  0  0
 17 18  1  0  0  0  0
 17 19  1  0  0  0  0
 19 20  1  0  0  0  0
 19 28  2  0  0  0  0
 20 21  1  0  0  0  0
 20 22  2  0  0  0  0
 22 23  1  0  0  0  0
 22 24  1  0  0  0  0
 24 25  1  0  0  0  0
 24 26  2  0  0  0  0
 26 27  1  0  0  0  0
 26 28  1  0  0  0  0
 29 30  2  0  0  0  0
 29 31  1  0  0  0  0
 31 32  1  0  0  0  0
 31 33  1  0  0  0  0
 33 34  1  0  0  0  0
 33 35  1  0  0  0  0
 33 36  1  0  0  0  0
M  END
$$$$

  -OEChem-03222214083D

 36 37  0     1  0  0  0  0  0999 V2000
   -3.6522   -4.6306    1.4087 H   0  0  0  0  0  0  0  0  0  0  0  0
   -3.6515   -3.8238    0.6710 C   0  0  0  0  0  0  0  0  0  0  0  0
   -4.5713   -3.2443    0.7801 H   0  0  0  0  0  0  0  0  0  0  0  0
   -3.6203   -4.2605   -0.3305 H   0  0  0  0  0  0  0  0  0  0  0  0
   -2.4468   -2.9261    0.8775 C   0  0  0  0  0  0  0  0  0  0  0  0
   -1.6513   -3.1629    1.7741 O   0  0  0  0  0  0  0  0  0  0  0  0
   -2.2324   -1.8727    0.0176 N   0  0  0  0  0  0  0  0  0  0  0  0
   -2.8655   -1.7838   -0.7755 H   0  0  0  0  0  0  0  0  0  0  0  0
   -1.0313   -1.0218    0.0021 C   0  0  1  0  0  0  0  0  0  0  0  0
   -0.5198   -1.1262    0.9638 H   0  0  0  0  0  0  0  0  0  0  0  0
   -0.0293   -1.4723   -1.0908 C   0  0  0  0  0  0  0  0  0  0  0  0
    0.3855   -0.6000   -1.6063 H   0  0  0  0  0  0  0  0  0  0  0  0
    0.8056   -1.9776   -0.5949 H   0  0  0  0  0  0  0  0  0  0  0  0
   -0.6117   -2.4174   -2.1202 C   0  0  0  0  0  0  0  0  0  0  0  0
   -0.3570   -3.7675   -2.1612 C   0  0  0  0  0  0  0  0  0  0  0  0
    0.2839   -4.3081   -1.4676 H   0  0  0  0  0  0  0  0  0  0  0  0
   -1.0791   -4.3052   -3.2228 N   0  0  0  0  0  0  0  0  0  0  0  0
   -1.0762   -5.2844   -3.5008 H   0  0  0  0  0  0  0  0  0  0  0  0
   -1.7860   -3.3093   -3.8755 C   0  0  0  0  0  0  0  0  0  0  0  0
   -2.6339   -3.3558   -4.9822 C   0  0  0  0  0  0  0  0  0  0  0  0
   -2.8341   -4.2984   -5.4793 H   0  0  0  0  0  0  0  0  0  0  0  0
   -3.2198   -2.1692   -5.4434 C   0  0  0  0  0  0  0  0  0  0  0  0
   -3.8823   -2.1884   -6.3037 H   0  0  0  0  0  0  0  0  0  0  0  0
   -2.9462   -0.9548   -4.7969 C   0  0  0  0  0  0  0  0  0  0  0  0
   -3.3951   -0.0339   -5.1567 H   0  0  0  0  0  0  0  0  0  0  0  0
   -2.0915   -0.9211   -3.6859 C   0  0  0  0  0  0  0  0  0  0  0  0
   -1.8779    0.0216   -3.1937 H   0  0  0  0  0  0  0  0  0  0  0  0
   -1.5166   -2.1096   -3.2240 C   0  0  0  0  0  0  0  0  0  0  0  0
   -1.3823    0.4758   -0.1090 C   0  0  0  0  0  0  0  0  0  0  0  0
   -2.2642    0.8625   -0.8658 O   0  0  0  0  0  0  0  0  0  0  0  0
   -0.7434    1.3989    0.7001 N   0  0  0  0  0  0  0  0  0  0  0  0
   -0.0794    1.0446    1.3828 H   0  0  0  0  0  0  0  0  0  0  0  0
   -1.0785    2.8178    0.7157 C   0  0  0  0  0  0  0  0  0  0  0  0
   -2.1398    2.9597    0.9459 H   0  0  0  0  0  0  0  0  0  0  0  0
   -0.4884    3.3368    1.4770 H   0  0  0  0  0  0  0  0  0  0  0  0
   -0.8642    3.2720   -0.2574 H   0  0  0  0  0  0  0  0  0  0  0  0
  1  2  1  0  0  0  0
  2  3  1  0  0  0  0
  2  4  1  0  0  0  0
  2  5  1  0  0  0  0
  5  6  2  0  0  0  0
  5  7  1  0  0  0  0
  7  8  1  0  0  0  0
  7  9  1  0  0  0  0
  9 10  1  0  0  0  0
  9 11  1  0  0  0  0
  9 29  1  0  0  0  0
 11 12  1  0  0  0  0
 11 13  1  0  0  0  0
 11 14  1  0  0  0  0
 14 15  2  0  0  0  0
 14 28  1  0  0  0  0
 15 16  1  0  0  0  0
 15 17  1  0  0  0  0
 17 18  1  0  0  0  0
 17 19  1  0  0  0  0
 19 20  1  0  0  0  0
 19 28  2  0  0  0  0
 20 21  1  0  0  0  0
 20 22  2  0  0  0  0
 22 23  1  0  0  0  0
 22 24  1  0  0  0  0
 24 25  1  0  0  0  0
 24 26  2  0  0  0  0
 26 27  1  0  0  0  0
 26 28  1  0  0  0  0
 29 30  2  0  0  0  0
 29 31  1  0  0  0  0
 31 32  1  0  0  0  0
 31 33  1  0  0  0  0
 33 34  1  0  0  0  0
 33 35  1  0  0  0  0
 33 36  1  0  0  0  0
M  END
$$$$

  -OEChem-03222214083D

 36 37  0     1  0  0  0  0  0999 V2000
   -3.7328   -4.6007    1.4163 H   0  0  0  0  0  0  0  0  0  0  0  0
   -3.7046   -3.8005    0.6720 C   0  0  0  0  0  0  0  0  0  0  0  0
   -4.6029   -3.1874    0.7779 H   0  0  0  0  0  0  0  0  0  0  0  0
   -3.6911   -4.2456   -0.3261 H   0  0  0  0  0  0  0  0  0  0  0  0
   -2.4686   -2.9451    0.8713 C   0  0  0  0  0  0  0  0  0  0  0  0
   -1.6930   -3.1896    1.7826 O   0  0  0  0  0  0  0  0  0  0  0  0
   -2.2064   -1.9177   -0.0059 N   0  0  0  0  0  0  0  0  0  0  0  0
   -2.8328   -1.8081   -0.8021 H   0  0  0  0  0  0  0  0  0  0  0  0
   -1.0019   -1.0720    0.0083 C   0  0  1  0  0  0  0  0  0  0  0  0
   -0.5167   -1.1554    0.9856 H   0  0  0  0  0  0  0  0  0  0  0  0
    0.0266   -1.5091   -1.0644 C   0  0  0  0  0  0  0  0  0  0  0  0
    0.4699   -0.6357   -1.5543 H   0  0  0  0  0  0  0  0  0  0  0  0
    0.8399   -2.0323   -0.5519 H   0  0  0  0  0  0  0  0  0  0  0  0
   -0.5328   -2.4407   -2.1149 C   0  0  0  0  0  0  0  0  0  0  0  0
   -0.5407   -3.8132   -2.0367 C   0  0  0  0  0  0  0  0  0  0  0  0
   -0.1201   -4.3989   -1.2216 H   0  0  0  0  0  0  0  0  0  0  0  0
   -1.1871   -4.2976   -3.1714 N   0  0  0  0  0  0  0  0  0  0  0  0
   -1.3226   -5.2807   -3.3978 H   0  0  0  0  0  0  0  0  0  0  0  0
   -1.6118   -3.2463   -3.9685 C   0  0  0  0  0  0  0  0  0  0  0  0
   -2.3051   -3.2211   -5.1788 C   0  0  0  0  0  0  0  0  0  0  0  0
   -2.5966   -4.1472   -5.6618 H   0  0  0  0  0  0  0  0  0  0  0  0
   -2.6226   -1.9843   -5.7582 C   0  0  0  0  0  0  0  0  0  0  0  0
   -3.1641   -1.9482   -6.6988 H   0  0  0  0  0  0  0  0  0  0  0  0
   -2.2462   -0.7917   -5.1212 C   0  0  0  0  0  0  0  0  0  0  0  0
   -2.5001    0.1662   -5.5650 H   0  0  0  0  0  0  0  0  0  0  0  0
   -1.5458   -0.8296   -3.9072 C   0  0  0  0  0  0  0  0  0  0  0  0
   -1.2615    0.0913   -3.4077 H   0  0  0  0  0  0  0  0  0  0  0  0
   -1.2274   -2.0671   -3.3395 C   0  0  0  0  0  0  0  0  0  0  0  0
   -1.3692    0.4155   -0.1636 C   0  0  0  0  0  0  0  0  0  0  0  0
   -2.1956    0.7638   -0.9986 O   0  0  0  0  0  0  0  0  0  0  0  0
   -0.7832    1.3763    0.6412 N   0  0  0  0  0  0  0  0  0  0  0  0
   -0.1473    1.0591    1.3674 H   0  0  0  0  0  0  0  0  0  0  0  0
   -1.1138    2.7941    0.5629 C   0  0  0  0  0  0  0  0  0  0  0  0
   -2.1809    2.9505    0.7526 H   0  0  0  0  0  0  0  0  0  0  0  0
   -0.5443    3.3580    1.3080 H   0  0  0  0  0  0  0  0  0  0  0  0
   -0.8709    3.1886   -0.4293 H   0  0  0  0  0  0  0  0  0  0  0  0
  1  2  1  0  0  0  0
  2  3  1  0  0  0  0
  2  4  1  0  0  0  0
  2  5  1  0  0  0  0
  5  6  2  0  0  0  0
  5  7  1  0  0  0  0
  7  8  1  0  0  0  0
  7  9  1  0  0  0  0
  9 10  1  0  0  0  0
  9 11  1  0  0  0  0
  9 29  1  0  0  0  0
 11 12  1  0  0  0  0
 11 13  1  0  0  0  0
 11 14  1  0  0  0  0
 14 15  2  0  0  0  0
 14 28  1  0  0  0  0
 15 16  1  0  0  0  0
 15 17  1  0  0  0  0
 17 18  1  0  0  0  0
 17 19  1  0  0  0  0
 19 20  1  0  0  0  0
 19 28  2  0  0  0  0
 20 21  1  0  0  0  0
 20 22  2  0  0  0  0
 22 23  1  0  0  0  0
 22 24  1  0  0  0  0
 24 25  1  0  0  0  0
 24 26  2  0  0  0  0
 26 27  1  0  0  0  0
 26 28  1  0  0  0  0
 29 30  2  0  0  0  0
 29 31  1  0  0  0  0
 31 32  1  0  0  0  0
 31 33  1  0  0  0  0
 33 34  1  0  0  0  0
 33 35  1  0  0  0  0
 33 36  1  0  0  0  0
M  END
$$$$

  -OEChem-03222214083D

 36 37  0     1  0  0  0  0  0999 V2000
   -3.7990   -4.5416    1.5257 H   0  0  0  0  0  0  0  0  0  0  0  0
   -3.7621   -3.7517    0.7705 C   0  0  0  0  0  0  0  0  0  0  0  0
   -4.6246   -3.0943    0.9043 H   0  0  0  0  0  0  0  0  0  0  0  0
   -3.8118   -4.2077   -0.2213 H   0  0  0  0  0  0  0  0  0  0  0  0
   -2.4799   -2.9540    0.9090 C   0  0  0  0  0  0  0  0  0  0  0  0
   -1.6747   -3.2322    1.7838 O   0  0  0  0  0  0  0  0  0  0  0  0
   -2.2075   -1.9434    0.0154 N   0  0  0  0  0  0  0  0  0  0  0  0
   -2.8767   -1.7817   -0.7361 H   0  0  0  0  0  0  0  0  0  0  0  0
   -0.9965   -1.1074    0.0136 C   0  0  1  0  0  0  0  0  0  0  0  0
   -0.5083   -1.1774    0.9905 H   0  0  0  0  0  0  0  0  0  0  0  0
    0.0323   -1.5374   -1.0617 C   0  0  0  0  0  0  0  0  0  0  0  0
    0.4820   -0.6603   -1.5375 H   0  0  0  0  0  0  0  0  0  0  0  0
    0.8423   -2.0649   -0.5487 H   0  0  0  0  0  0  0  0  0  0  0  0
   -0.5032   -2.4674   -2.1261 C   0  0  0  0  0  0  0  0  0  0  0  0
   -0.7687   -3.8075   -1.9677 C   0  0  0  0  0  0  0  0  0  0  0  0
   -0.5825   -4.3794   -1.0602 H   0  0  0  0  0  0  0  0  0  0  0  0
   -1.3056   -4.2784   -3.1636 N   0  0  0  0  0  0  0  0  0  0  0  0
   -1.5750   -5.2420   -3.3497 H   0  0  0  0  0  0  0  0  0  0  0  0
   -1.4183   -3.2440   -4.0791 C   0  0  0  0  0  0  0  0  0  0  0  0
   -1.9077   -3.2087   -5.3849 C   0  0  0  0  0  0  0  0  0  0  0  0
   -2.2747   -4.1135   -5.8561 H   0  0  0  0  0  0  0  0  0  0  0  0
   -1.9256   -1.9883   -6.0751 C   0  0  0  0  0  0  0  0  0  0  0  0
   -2.3078   -1.9446   -7.0905 H   0  0  0  0  0  0  0  0  0  0  0  0
   -1.4597   -0.8206   -5.4515 C   0  0  0  0  0  0  0  0  0  0  0  0
   -1.4850    0.1261   -5.9827 H   0  0  0  0  0  0  0  0  0  0  0  0
   -0.9661   -0.8688   -4.1398 C   0  0  0  0  0  0  0  0  0  0  0  0
   -0.6182    0.0342   -3.6483 H   0  0  0  0  0  0  0  0  0  0  0  0
   -0.9395   -2.0926   -3.4639 C   0  0  0  0  0  0  0  0  0  0  0  0
   -1.3680    0.3756   -0.1842 C   0  0  0  0  0  0  0  0  0  0  0  0
   -2.1977    0.7030   -1.0244 O   0  0  0  0  0  0  0  0  0  0  0  0
   -0.7829    1.3522    0.6016 N   0  0  0  0  0  0  0  0  0  0  0  0
   -0.1469    1.0495    1.3338 H   0  0  0  0  0  0  0  0  0  0  0  0
   -1.1140    2.7678    0.4957 C   0  0  0  0  0  0  0  0  0  0  0  0
   -2.1757    2.9306    0.7089 H   0  0  0  0  0  0  0  0  0  0  0  0
   -0.5244    3.3485    1.2114 H   0  0  0  0  0  0  0  0  0  0  0  0
   -0.8954    3.1376   -0.5116 H   0  0  0  0  0  0  0  0  0  0  0  0
  1  2  1  0  0  0  0
  2  3  1  0  0  0  0
  2  4  1  0  0  0  0
  2  5  1  0  0  0  0
  5  6  2  0  0  0  0
  5  7  1  0  0  0  0
  7  8  1  0  0  0  0
  7  9  1  0  0  0  0
  9 10  1  0  0  0  0
  9 11  1  0  0  0  0
  9 29  1  0  0  0  0
 11 12  1  0  0  0  0
 11 13  1  0  0  0  0
 11 14  1  0  0  0  0
 14 15  2  0  0  0  0
 14 28  1  0  0  0  0
 15 16  1  0  0  0  0
 15 17  1  0  0  0  0
 17 18  1  0  0  0  0
 17 19  1  0  0  0  0
 19 20  1  0  0  0  0
 19 28  2  0  0  0  0
 20 21  1  0  0  0  0
 20 22  2  0  0  0  0
 22 23  1  0  0  0  0
 22 24  1  0  0  0  0
 24 25  1  0  0  0  0
 24 26  2  0  0  0  0
 26 27  1  0  0  0  0
 26 28  1  0  0  0  0
 29 30  2  0  0  0  0
 29 31  1  0  0  0  0
 31 32  1  0  0  0  0
 31 33  1  0  0  0  0
 33 34  1  0  0  0  0
 33 35  1  0  0  0  0
 33 36  1  0  0  0  0
M  END
$$$$

  -OEChem-03222214083D

 36 37  0     1  0  0  0  0  0999 V2000
   -3.8519   -4.4511    1.7484 H   0  0  0  0  0  0  0  0  0  0  0  0
   -3.8237   -3.6819    0.9717 C   0  0  0  0  0  0  0  0  0  0  0  0
   -4.6343   -2.9713    1.1503 H   0  0  0  0  0  0  0  0  0  0  0  0
   -3.9727   -4.1565   -0.0011 H   0  0  0  0  0  0  0  0  0  0  0  0
   -2.4895   -2.9609    0.9968 C   0  0  0  0  0  0  0  0  0  0  0  0
   -1.6303   -3.2868    1.8001 O   0  0  0  0  0  0  0  0  0  0  0  0
   -2.2366   -1.9638    0.0820 N   0  0  0  0  0  0  0  0  0  0  0  0
   -2.9751   -1.7291   -0.5800 H   0  0  0  0  0  0  0  0  0  0  0  0
   -1.0148   -1.1458    0.0222 C   0  0  1  0  0  0  0  0  0  0  0  0
   -0.4969   -1.2091    0.9842 H   0  0  0  0  0  0  0  0  0  0  0  0
   -0.0088   -1.5679   -1.0818 C   0  0  0  0  0  0  0  0  0  0  0  0
    0.4238   -0.6788   -1.5507 H   0  0  0  0  0  0  0  0  0  0  0  0
    0.8172   -2.0888   -0.5882 H   0  0  0  0  0  0  0  0  0  0  0  0
   -0.5250   -2.4975   -2.1599 C   0  0  0  0  0  0  0  0  0  0  0  0
   -1.0369   -3.7626   -1.9843 C   0  0  0  0  0  0  0  0  0  0  0  0
   -1.0891   -4.2894   -1.0339 H   0  0  0  0  0  0  0  0  0  0  0  0
   -1.4431   -4.2391   -3.2279 N   0  0  0  0  0  0  0  0  0  0  0  0
   -1.8345   -5.1611   -3.4075 H   0  0  0  0  0  0  0  0  0  0  0  0
   -1.2205   -3.2814   -4.2031 C   0  0  0  0  0  0  0  0  0  0  0  0
   -1.4707   -3.2830   -5.5754 C   0  0  0  0  0  0  0  0  0  0  0  0
   -1.9098   -4.1529   -6.0506 H   0  0  0  0  0  0  0  0  0  0  0  0
   -1.1527   -2.1446   -6.3288 C   0  0  0  0  0  0  0  0  0  0  0  0
   -1.3446   -2.1295   -7.3974 H   0  0  0  0  0  0  0  0  0  0  0  0
   -0.5919   -1.0214   -5.7023 C   0  0  0  0  0  0  0  0  0  0  0  0
   -0.3531   -0.1376   -6.2858 H   0  0  0  0  0  0  0  0  0  0  0  0
   -0.3420   -1.0328   -4.3225 C   0  0  0  0  0  0  0  0  0  0  0  0
    0.0830   -0.1612   -3.8365 H   0  0  0  0  0  0  0  0  0  0  0  0
   -0.6548   -2.1753   -3.5774 C   0  0  0  0  0  0  0  0  0  0  0  0
   -1.3932    0.3357   -0.1771 C   0  0  0  0  0  0  0  0  0  0  0  0
   -2.2841    0.6485   -0.9584 O   0  0  0  0  0  0  0  0  0  0  0  0
   -0.7756    1.3222    0.5706 N   0  0  0  0  0  0  0  0  0  0  0  0
   -0.0821    1.0327    1.2543 H   0  0  0  0  0  0  0  0  0  0  0  0
   -1.1112    2.7365    0.4609 C   0  0  0  0  0  0  0  0  0  0  0  0
   -2.1651    2.9010    0.7088 H   0  0  0  0  0  0  0  0  0  0  0  0
   -0.4980    3.3259    1.1495 H   0  0  0  0  0  0  0  0  0  0  0  0
   -0.9282    3.0949   -0.5575 H   0  0  0  0  0  0  0  0  0  0  0  0
  1  2  1  0  0  0  0
  2  3  1  0  0  0  0
  2  4  1  0  0  0  0
  2  5  1  0  0  0  0
  5  6  2  0  0  0  0
  5  7  1  0  0  0  0
  7  8  1  0  0  0  0
  7  9  1  0  0  0  0
  9 10  1  0  0  0  0
  9 11  1  0  0  0  0
  9 29  1  0  0  0  0
 11 12  1  0  0  0  0
 11 13  1  0  0  0  0
 11 14  1  0  0  0  0
 14 15  2  0  0  0  0
 14 28  1  0  0  0  0
 15 16  1  0  0  0  0
 15 17  1  0  0  0  0
 17 18  1  0  0  0  0
 17 19  1  0  0  0  0
 19 20  1  0  0  0  0
 19 28  2  0  0  0  0
 20 21  1  0  0  0  0
 20 22  2  0  0  0  0
 22 23  1  0  0  0  0
 22 24  1  0  0  0  0
 24 25  1  0  0  0  0
 24 26  2  0  0  0  0
 26 27  1  0  0  0  0
 26 28  1  0  0  0  0
 29 30  2  0  0  0  0
 29 31  1  0  0  0  0
 31 32  1  0  0  0  0
 31 33  1  0  0  0  0
 33 34  1  0  0  0  0
 33 35  1  0  0  0  0
 33 36  1  0  0  0  0
M  END
$$$$

  -OEChem-03222214083D

 36 37  0     1  0  0  0  0  0999 V2000
   -3.8591   -4.3615    1.9811 H   0  0  0  0  0  0  0  0  0  0  0  0
   -3.8610   -3.6015    1.1947 C   0  0  0  0  0  0  0  0  0  0  0  0
   -4.6194   -2.8514    1.4321 H   0  0  0  0  0  0  0  0  0  0  0  0
   -4.1144   -4.0770    0.2442 H   0  0  0  0  0  0  0  0  0  0  0  0
   -2.4971   -2.9449    1.0990 C   0  0  0  0  0  0  0  0  0  0  0  0
   -1.5931   -3.2991    1.8377 O   0  0  0  0  0  0  0  0  0  0  0  0
   -2.2737   -1.9684    0.1538 N   0  0  0  0  0  0  0  0  0  0  0  0
   -3.0634   -1.6708   -0.4181 H   0  0  0  0  0  0  0  0  0  0  0  0
   -1.0379   -1.1812    0.0227 C   0  0  1  0  0  0  0  0  0  0  0  0
   -0.4792   -1.2364    0.9624 H   0  0  0  0  0  0  0  0  0  0  0  0
   -0.0744   -1.6136   -1.1190 C   0  0  0  0  0  0  0  0  0  0  0  0
    0.3366   -0.7166   -1.5915 H   0  0  0  0  0  0  0  0  0  0  0  0
    0.7708   -2.1297   -0.6534 H   0  0  0  0  0  0  0  0  0  0  0  0
   -0.5902   -2.5395   -2.2062 C   0  0  0  0  0  0  0  0  0  0  0  0
   -1.3443   -3.6848   -2.0798 C   0  0  0  0  0  0  0  0  0  0  0  0
   -1.6474   -4.1393   -1.1412 H   0  0  0  0  0  0  0  0  0  0  0  0
   -1.6103   -4.1753   -3.3550 N   0  0  0  0  0  0  0  0  0  0  0  0
   -2.1312   -5.0237   -3.5650 H   0  0  0  0  0  0  0  0  0  0  0  0
   -1.0419   -3.3532   -4.3111 C   0  0  0  0  0  0  0  0  0  0  0  0
   -1.0375   -3.4251   -5.7040 C   0  0  0  0  0  0  0  0  0  0  0  0
   -1.5449   -4.2382   -6.2108 H   0  0  0  0  0  0  0  0  0  0  0  0
   -0.3724   -2.4326   -6.4363 C   0  0  0  0  0  0  0  0  0  0  0  0
   -0.3624   -2.4741   -7.5214 H   0  0  0  0  0  0  0  0  0  0  0  0
    0.2782   -1.3849   -5.7678 C   0  0  0  0  0  0  0  0  0  0  0  0
    0.7907   -0.6150   -6.3364 H   0  0  0  0  0  0  0  0  0  0  0  0
    0.2674   -1.3252   -4.3668 C   0  0  0  0  0  0  0  0  0  0  0  0
    0.7690   -0.5120   -3.8539 H   0  0  0  0  0  0  0  0  0  0  0  0
   -0.3973   -2.3200   -3.6395 C   0  0  0  0  0  0  0  0  0  0  0  0
   -1.4158    0.3010   -0.1792 C   0  0  0  0  0  0  0  0  0  0  0  0
   -2.3674    0.6053   -0.8895 O   0  0  0  0  0  0  0  0  0  0  0  0
   -0.7542    1.2937    0.5212 N   0  0  0  0  0  0  0  0  0  0  0  0
   -0.0150    1.0104    1.1580 H   0  0  0  0  0  0  0  0  0  0  0  0
   -1.1066    2.7056    0.4325 C   0  0  0  0  0  0  0  0  0  0  0  0
   -2.1430    2.8633    0.7490 H   0  0  0  0  0  0  0  0  0  0  0  0
   -0.4537    3.2996    1.0794 H   0  0  0  0  0  0  0  0  0  0  0  0
   -0.9935    3.0645   -0.5960 H   0  0  0  0  0  0  0  0  0  0  0  0
  1  2  1  0  0  0  0
  2  3  1  0  0  0  0
  2  4  1  0  0  0  0
  2  5  1  0  0  0  0
  5  6  2  0  0  0  0
  5  7  1  0  0  0  0
  7  8  1  0  0  0  0
  7  9  1  0  0  0  0
  9 10  1  0  0  0  0
  9 11  1  0  0  0  0
  9 29  1  0  0  0  0
 11 12  1  0  0  0  0
 11 13  1  0  0  0  0
 11 14  1  0  0  0  0
 14 15  2  0  0  0  0
 14 28  1  0  0  0  0
 15 16  1  0  0  0  0
 15 17  1  0  0  0  0
 17 18  1  0  0  0  0
 17 19  1  0  0  0  0
 19 20  1  0  0  0  0
 19 28  2  0  0  0  0
 20 21  1  0  0  0  0
 20 22  2  0  0  0  0
 22 23  1  0  0  0  0
 22 24  1  0  0  0  0
 24 25  1  0  0  0  0
 24 26  2  0  0  0  0
 26 27  1  0  0  0  0
 26 28  1  0  0  0  0
 29 30  2  0  0  0  0
 29 31  1  0  0  0  0
 31 32  1  0  0  0  0
 31 33  1  0  0  0  0
 33 34  1  0  0  0  0
 33 35  1  0  0  0  0
 33 36  1  0  0  0  0
M  END
$$$$

  -OEChem-03222214083D

 36 37  0     1  0  0  0  0  0999 V2000
   -3.8531   -4.2841    2.1569 H   0  0  0  0  0  0  0  0  0  0  0  0
   -3.8805   -3.5368    1.3589 C   0  0  0  0  0  0  0  0  0  0  0  0
   -4.5945   -2.7562    1.6326 H   0  0  0  0  0  0  0  0  0  0  0  0
   -4.2135   -4.0185    0.4364 H   0  0  0  0  0  0  0  0  0  0  0  0
   -2.5033   -2.9322    1.1617 C   0  0  0  0  0  0  0  0  0  0  0  0
   -1.5668   -3.3090    1.8468 O   0  0  0  0  0  0  0  0  0  0  0  0
   -2.3136   -1.9620    0.2014 N   0  0  0  0  0  0  0  0  0  0  0  0
   -3.1362   -1.6103   -0.2877 H   0  0  0  0  0  0  0  0  0  0  0  0
   -1.0684   -1.2037    0.0119 C   0  0  1  0  0  0  0  0  0  0  0  0
   -0.4725   -1.2660    0.9281 H   0  0  0  0  0  0  0  0  0  0  0  0
   -0.1526   -1.6478   -1.1655 C   0  0  0  0  0  0  0  0  0  0  0  0
    0.2410   -0.7473   -1.6468 H   0  0  0  0  0  0  0  0  0  0  0  0
    0.7068   -2.1650   -0.7282 H   0  0  0  0  0  0  0  0  0  0  0  0
   -0.6821   -2.5636   -2.2586 C   0  0  0  0  0  0  0  0  0  0  0  0
   -1.6466   -3.5481   -2.2282 C   0  0  0  0  0  0  0  0  0  0  0  0
   -2.1975   -3.8757   -1.3538 H   0  0  0  0  0  0  0  0  0  0  0  0
   -1.7703   -4.0825   -3.5079 N   0  0  0  0  0  0  0  0  0  0  0  0
   -2.4012   -4.8345   -3.7754 H   0  0  0  0  0  0  0  0  0  0  0  0
   -0.8919   -3.4586   -4.3734 C   0  0  0  0  0  0  0  0  0  0  0  0
   -0.6457   -3.6449   -5.7337 C   0  0  0  0  0  0  0  0  0  0  0  0
   -1.2009   -4.3902   -6.2922 H   0  0  0  0  0  0  0  0  0  0  0  0
    0.3259   -2.8567   -6.3657 C   0  0  0  0  0  0  0  0  0  0  0  0
    0.5282   -2.9892   -7.4243 H   0  0  0  0  0  0  0  0  0  0  0  0
    1.0374   -1.8967   -5.6311 C   0  0  0  0  0  0  0  0  0  0  0  0
    1.7897   -1.2868   -6.1216 H   0  0  0  0  0  0  0  0  0  0  0  0
    0.7802   -1.7205   -4.2639 C   0  0  0  0  0  0  0  0  0  0  0  0
    1.3332   -0.9784   -3.6985 H   0  0  0  0  0  0  0  0  0  0  0  0
   -0.1935   -2.5087   -3.6374 C   0  0  0  0  0  0  0  0  0  0  0  0
   -1.4319    0.2846   -0.1724 C   0  0  0  0  0  0  0  0  0  0  0  0
   -2.4224    0.6015   -0.8222 O   0  0  0  0  0  0  0  0  0  0  0  0
   -0.7217    1.2665    0.4948 N   0  0  0  0  0  0  0  0  0  0  0  0
    0.0533    0.9729    1.0826 H   0  0  0  0  0  0  0  0  0  0  0  0
   -1.0561    2.6836    0.4238 C   0  0  0  0  0  0  0  0  0  0  0  0
   -2.0752    2.8568    0.7852 H   0  0  0  0  0  0  0  0  0  0  0  0
   -0.3667    3.2657    1.0427 H   0  0  0  0  0  0  0  0  0  0  0  0
   -0.9819    3.0421   -0.6082 H   0  0  0  0  0  0  0  0  0  0  0  0
  1  2  1  0  0  0  0
  2  3  1  0  0  0  0
  2  4  1  0  0  0  0
  2  5  1  0  0  0  0
  5  6  2  0  0  0  0
  5  7  1  0  0  0  0
  7  8  1  0  0  0  0
  7  9  1  0  0  0  0
  9 10  1  0  0  0  0
  9 11  1  0  0  0  0
  9 29  1  0  0  0  0
 11 12  1  0  0  0  0
 11 13  1  0  0  0  0
 11 14  1  0  0  0  0
 14 15  2  0  0  0  0
 14 28  1  0  0  0  0
 15 16  1  0  0  0  0
 15 17  1  0  0  0  0
 17 18  1  0  0  0  0
 17 19  1  0  0  0  0
 19 20  1  0  0  0  0
 19 28  2  0  0  0  0
 20 21  1  0  0  0  0
 20 22  2  0  0  0  0
 22 23  1  0  0  0  0
 22 24  1  0  0  0  0
 24 25  1  0  0  0  0
 24 26  2  0  0  0  0
 26 27  1  0  0  0  0
 26 28  1  0  0  0  0
 29 30  2  0  0  0  0
 29 31  1  0  0  0  0
 31 32  1  0  0  0  0
 31 33  1  0  0  0  0
 33 34  1  0  0  0  0
 33 35  1  0  0  0  0
 33 36  1  0  0  0  0
M  END
$$$$

  -OEChem-03222214083D

 36 37  0     1  0  0  0  0  0999 V2000
   -3.8942   -4.1522    2.2759 H   0  0  0  0  0  0  0  0  0  0  0  0
   -3.9034   -3.4960    1.4009 C   0  0  0  0  0  0  0  0  0  0  0  0
   -4.6160   -2.6864    1.5765 H   0  0  0  0  0  0  0  0  0  0  0  0
   -4.2238   -4.0729    0.5303 H   0  0  0  0  0  0  0  0  0  0  0  0
   -2.5182   -2.9261    1.1626 C   0  0  0  0  0  0  0  0  0  0  0  0
   -1.5732   -3.3257    1.8224 O   0  0  0  0  0  0  0  0  0  0  0  0
   -2.3365   -1.9471    0.2090 N   0  0  0  0  0  0  0  0  0  0  0  0
   -3.1688   -1.5510   -0.2266 H   0  0  0  0  0  0  0  0  0  0  0  0
   -1.0804   -1.2143   -0.0024 C   0  0  1  0  0  0  0  0  0  0  0  0
   -0.4661   -1.3010    0.8998 H   0  0  0  0  0  0  0  0  0  0  0  0
   -0.1987   -1.6676   -1.2015 C   0  0  0  0  0  0  0  0  0  0  0  0
    0.2044   -0.7715   -1.6841 H   0  0  0  0  0  0  0  0  0  0  0  0
    0.6558   -2.2046   -0.7780 H   0  0  0  0  0  0  0  0  0  0  0  0
   -0.7476   -2.5629   -2.3025 C   0  0  0  0  0  0  0  0  0  0  0  0
   -1.8806   -3.3450   -2.3923 C   0  0  0  0  0  0  0  0  0  0  0  0
   -2.6351   -3.4799   -1.6265 H   0  0  0  0  0  0  0  0  0  0  0  0
   -1.8927   -3.9577   -3.6428 N   0  0  0  0  0  0  0  0  0  0  0  0
   -2.6110   -4.5941   -3.9805 H   0  0  0  0  0  0  0  0  0  0  0  0
   -0.7777   -3.5872   -4.3702 C   0  0  0  0  0  0  0  0  0  0  0  0
   -0.3486   -3.9325   -5.6520 C   0  0  0  0  0  0  0  0  0  0  0  0
   -0.9365   -4.6096   -6.2618 H   0  0  0  0  0  0  0  0  0  0  0  0
    0.8503   -3.3935   -6.1393 C   0  0  0  0  0  0  0  0  0  0  0  0
    1.1974   -3.6532   -7.1350 H   0  0  0  0  0  0  0  0  0  0  0  0
    1.6020   -2.5185   -5.3410 C   0  0  0  0  0  0  0  0  0  0  0  0
    2.5299   -2.1012   -5.7200 H   0  0  0  0  0  0  0  0  0  0  0  0
    1.1591   -2.1803   -4.0542 C   0  0  0  0  0  0  0  0  0  0  0  0
    1.7409   -1.5040   -3.4373 H   0  0  0  0  0  0  0  0  0  0  0  0
   -0.0394   -2.7217   -3.5731 C   0  0  0  0  0  0  0  0  0  0  0  0
   -1.4141    0.2842   -0.1575 C   0  0  0  0  0  0  0  0  0  0  0  0
   -2.4208    0.6295   -0.7671 O   0  0  0  0  0  0  0  0  0  0  0  0
   -0.6650    1.2407    0.5038 N   0  0  0  0  0  0  0  0  0  0  0  0
    0.1219    0.9215    1.0617 H   0  0  0  0  0  0  0  0  0  0  0  0
   -0.9812    2.6638    0.4794 C   0  0  0  0  0  0  0  0  0  0  0  0
   -1.9730    2.8434    0.9074 H   0  0  0  0  0  0  0  0  0  0  0  0
   -0.2459    3.2249    1.0640 H   0  0  0  0  0  0  0  0  0  0  0  0
   -0.9663    3.0421   -0.5482 H   0  0  0  0  0  0  0  0  0  0  0  0
  1  2  1  0  0  0  0
  2  3  1  0  0  0  0
  2  4  1  0  0  0  0
  2  5  1  0  0  0  0
  5  6  2  0  0  0  0
  5  7  1  0  0  0  0
  7  8  1  0  0  0  0
  7  9  1  0  0  0  0
  9 10  1  0  0  0  0
  9 11  1  0  0  0  0
  9 29  1  0  0  0  0
 11 12  1  0  0  0  0
 11 13  1  0  0  0  0
 11 14  1  0  0  0  0
 14 15  2  0  0  0  0
 14 28  1  0  0  0  0
 15 16  1  0  0  0  0
 15 17  1  0  0  0  0
 17 18  1  0  0  0  0
 17 19  1  0  0  0  0
 19 20  1  0  0  0  0
 19 28  2  0  0  0  0
 20 21  1  0  0  0  0
 20 22  2  0  0  0  0
 22 23  1  0  0  0  0
 22 24  1  0  0  0  0
 24 25  1  0  0  0  0
 24 26  2  0  0  0  0
 26 27  1  0  0  0  0
 26 28  1  0  0  0  0
 29 30  2  0  0  0  0
 29 31  1  0  0  0  0
 31 32  1  0  0  0  0
 31 33  1  0  0  0  0
 33 34  1  0  0  0  0
 33 35  1  0  0  0  0
 33 36  1  0  0  0  0
M  END
$$$$

  -OEChem-03222214083D

 36 37  0     1  0  0  0  0  0999 V2000
   -3.9230   -4.1791    2.1848 H   0  0  0  0  0  0  0  0  0  0  0  0
   -3.9262   -3.4881    1.3371 C   0  0  0  0  0  0  0  0  0  0  0  0
   -4.6264   -2.6759    1.5482 H   0  0  0  0  0  0  0  0  0  0  0  0
   -4.2583   -4.0252    0.4455 H   0  0  0  0  0  0  0  0  0  0  0  0
   -2.5341   -2.9284    1.1145 C   0  0  0  0  0  0  0  0  0  0  0  0
   -1.5964   -3.3434    1.7758 O   0  0  0  0  0  0  0  0  0  0  0  0
   -2.3412   -1.9319    0.1816 N   0  0  0  0  0  0  0  0  0  0  0  0
   -3.1711   -1.5063   -0.2288 H   0  0  0  0  0  0  0  0  0  0  0  0
   -1.0768   -1.2078   -0.0100 C   0  0  1  0  0  0  0  0  0  0  0  0
   -0.4657   -1.3181    0.8918 H   0  0  0  0  0  0  0  0  0  0  0  0
   -0.2003   -1.6538   -1.2149 C   0  0  0  0  0  0  0  0  0  0  0  0
    0.2296   -0.7624   -1.6839 H   0  0  0  0  0  0  0  0  0  0  0  0
    0.6361   -2.2184   -0.7906 H   0  0  0  0  0  0  0  0  0  0  0  0
   -0.7608   -2.5228   -2.3304 C   0  0  0  0  0  0  0  0  0  0  0  0
   -2.0063   -3.0725   -2.5543 C   0  0  0  0  0  0  0  0  0  0  0  0
   -2.8842   -2.9614   -1.9288 H   0  0  0  0  0  0  0  0  0  0  0  0
   -1.9576   -3.7995   -3.7417 N   0  0  0  0  0  0  0  0  0  0  0  0
   -2.7355   -4.3099   -4.1533 H   0  0  0  0  0  0  0  0  0  0  0  0
   -0.6942   -3.7280   -4.2974 C   0  0  0  0  0  0  0  0  0  0  0  0
   -0.1587   -4.2774   -5.4626 C   0  0  0  0  0  0  0  0  0  0  0  0
   -0.7745   -4.8902   -6.1114 H   0  0  0  0  0  0  0  0  0  0  0  0
    1.1830   -4.0267   -5.7818 C   0  0  0  0  0  0  0  0  0  0  0  0
    1.6135   -4.4466   -6.6860 H   0  0  0  0  0  0  0  0  0  0  0  0
    1.9703   -3.2339   -4.9331 C   0  0  0  0  0  0  0  0  0  0  0  0
    3.0096   -3.0414   -5.1815 H   0  0  0  0  0  0  0  0  0  0  0  0
    1.4201   -2.6895   -3.7635 C   0  0  0  0  0  0  0  0  0  0  0  0
    2.0277   -2.0772   -3.1058 H   0  0  0  0  0  0  0  0  0  0  0  0
    0.0790   -2.9429   -3.4518 C   0  0  0  0  0  0  0  0  0  0  0  0
   -1.3927    0.2965   -0.1357 C   0  0  0  0  0  0  0  0  0  0  0  0
   -2.3936    0.6625   -0.7430 O   0  0  0  0  0  0  0  0  0  0  0  0
   -0.6362    1.2313    0.5478 N   0  0  0  0  0  0  0  0  0  0  0  0
    0.1383    0.8906    1.1106 H   0  0  0  0  0  0  0  0  0  0  0  0
   -0.9470    2.6556    0.5650 C   0  0  0  0  0  0  0  0  0  0  0  0
   -1.9327    2.8278    1.0102 H   0  0  0  0  0  0  0  0  0  0  0  0
   -0.2015    3.1978    1.1549 H   0  0  0  0  0  0  0  0  0  0  0  0
   -0.9437    3.0616   -0.4520 H   0  0  0  0  0  0  0  0  0  0  0  0
  1  2  1  0  0  0  0
  2  3  1  0  0  0  0
  2  4  1  0  0  0  0
  2  5  1  0  0  0  0
  5  6  2  0  0  0  0
  5  7  1  0  0  0  0
  7  8  1  0  0  0  0
  7  9  1  0  0  0  0
  9 10  1  0  0  0  0
  9 11  1  0  0  0  0
  9 29  1  0  0  0  0
 11 12  1  0  0  0  0
 11 13  1  0  0  0  0
 11 14  1  0  0  0  0
 14 15  2  0  0  0  0
 14 28  1  0  0  0  0
 15 16  1  0  0  0  0
 15 17  1  0  0  0  0
 17 18  1  0  0  0  0
 17 19  1  0  0  0  0
 19 20  1  0  0  0  0
 19 28  2  0  0  0  0
 20 21  1  0  0  0  0
 20 22  2  0  0  0  0
 22 23  1  0  0  0  0
 22 24  1  0  0  0  0
 24 25  1  0  0  0  0
 24 26  2  0  0  0  0
 26 27  1  0  0  0  0
 26 28  1  0  0  0  0
 29 30  2  0  0  0  0
 29 31  1  0  0  0  0
 31 32  1  0  0  0  0
 31 33  1  0  0  0  0
 33 34  1  0  0  0  0
 33 35  1  0  0  0  0
 33 36  1  0  0  0  0
M  END
$$$$

  -OEChem-03222214083D

 36 37  0     1  0  0  0  0  0999 V2000
   -3.9269   -4.2854    1.9793 H   0  0  0  0  0  0  0  0  0  0  0  0
   -3.9207   -3.5381    1.1809 C   0  0  0  0  0  0  0  0  0  0  0  0
   -4.6469   -2.7587    1.4232 H   0  0  0  0  0  0  0  0  0  0  0  0
   -4.2104   -4.0210    0.2446 H   0  0  0  0  0  0  0  0  0  0  0  0
   -2.5360   -2.9344    1.0426 C   0  0  0  0  0  0  0  0  0  0  0  0
   -1.6243   -3.3324    1.7496 O   0  0  0  0  0  0  0  0  0  0  0  0
   -2.3202   -1.9211    0.1331 N   0  0  0  0  0  0  0  0  0  0  0  0
   -3.1394   -1.5011   -0.3012 H   0  0  0  0  0  0  0  0  0  0  0  0
   -1.0539   -1.1856   -0.0029 C   0  0  1  0  0  0  0  0  0  0  0  0
   -0.4669   -1.3083    0.9130 H   0  0  0  0  0  0  0  0  0  0  0  0
   -0.1510   -1.6127   -1.1935 C   0  0  0  0  0  0  0  0  0  0  0  0
    0.3081   -0.7248   -1.6405 H   0  0  0  0  0  0  0  0  0  0  0  0
    0.6622   -2.1980   -0.7531 H   0  0  0  0  0  0  0  0  0  0  0  0
   -0.7098   -2.4601   -2.3248 C   0  0  0  0  0  0  0  0  0  0  0  0
   -2.0060   -2.7563   -2.6897 C   0  0  0  0  0  0  0  0  0  0  0  0
   -2.9055   -2.3777   -2.2160 H   0  0  0  0  0  0  0  0  0  0  0  0
   -1.9669   -3.5975   -3.7992 N   0  0  0  0  0  0  0  0  0  0  0  0
   -2.7783   -3.9620   -4.2929 H   0  0  0  0  0  0  0  0  0  0  0  0
   -0.6572   -3.8531   -4.1603 C   0  0  0  0  0  0  0  0  0  0  0  0
   -0.1113   -4.6225   -5.1876 C   0  0  0  0  0  0  0  0  0  0  0  0
   -0.7592   -5.1530   -5.8761 H   0  0  0  0  0  0  0  0  0  0  0  0
    1.2825   -4.6994   -5.3164 C   0  0  0  0  0  0  0  0  0  0  0  0
    1.7220   -5.2950   -6.1110 H   0  0  0  0  0  0  0  0  0  0  0  0
    2.1101   -4.0073   -4.4192 C   0  0  0  0  0  0  0  0  0  0  0  0
    3.1895   -4.0683   -4.5200 H   0  0  0  0  0  0  0  0  0  0  0  0
    1.5481   -3.2359   -3.3917 C   0  0  0  0  0  0  0  0  0  0  0  0
    2.1860   -2.6997   -2.6973 H   0  0  0  0  0  0  0  0  0  0  0  0
    0.1556   -3.1643   -3.2688 C   0  0  0  0  0  0  0  0  0  0  0  0
   -1.3742    0.3180   -0.1146 C   0  0  0  0  0  0  0  0  0  0  0  0
   -2.3515    0.6862   -0.7587 O   0  0  0  0  0  0  0  0  0  0  0  0
   -0.6492    1.2478    0.6085 N   0  0  0  0  0  0  0  0  0  0  0  0
    0.1073    0.9054    1.1941 H   0  0  0  0  0  0  0  0  0  0  0  0
   -0.9722    2.6691    0.6338 C   0  0  0  0  0  0  0  0  0  0  0  0
   -1.9744    2.8263    1.0459 H   0  0  0  0  0  0  0  0  0  0  0  0
   -0.2533    3.2092    1.2572 H   0  0  0  0  0  0  0  0  0  0  0  0
   -0.9362    3.0895   -0.3767 H   0  0  0  0  0  0  0  0  0  0  0  0
  1  2  1  0  0  0  0
  2  3  1  0  0  0  0
  2  4  1  0  0  0  0
  2  5  1  0  0  0  0
  5  6  2  0  0  0  0
  5  7  1  0  0  0  0
  7  8  1  0  0  0  0
  7  9  1  0  0  0  0
  9 10  1  0  0  0  0
  9 11  1  0  0  0  0
  9 29  1  0  0  0  0
 11 12  1  0  0  0  0
 11 13  1  0  0  0  0
 11 14  1  0  0  0  0
 14 15  2  0  0  0  0
 14 28  1  0  0  0  0
 15 16  1  0  0  0  0
 15 17  1  0  0  0  0
 17 18  1  0  0  0  0
 17 19  1  0  0  0  0
 19 20  1  0  0  0  0
 19 28  2  0  0  0  0
 20 21  1  0  0  0  0
 20 22  2  0  0  0  0
 22 23  1  0  0  0  0
 22 24  1  0  0  0  0
 24 25  1  0  0  0  0
 24 26  2  0  0  0  0
 26 27  1  0  0  0  0
 26 28  1  0  0  0  0
 29 30  2  0  0  0  0
 29 31  1  0  0  0  0
 31 32  1  0  0  0  0
 31 33  1  0  0  0  0
 33 34  1  0  0  0  0
 33 35  1  0  0  0  0
 33 36  1  0  0  0  0
M  END
$$$$

  -OEChem-03222214083D

 36 37  0     1  0  0  0  0  0999 V2000
   -3.9004   -4.3888    1.7620 H   0  0  0  0  0  0  0  0  0  0  0  0
   -3.8654   -3.6292    0.9759 C   0  0  0  0  0  0  0  0  0  0  0  0
   -4.6532   -2.8949    1.1599 H   0  0  0  0  0  0  0  0  0  0  0  0
   -4.0429   -4.1120    0.0119 H   0  0  0  0  0  0  0  0  0  0  0  0
   -2.5104   -2.9481    0.9679 C   0  0  0  0  0  0  0  0  0  0  0  0
   -1.6469   -3.2964    1.7574 O   0  0  0  0  0  0  0  0  0  0  0  0
   -2.2680   -1.9219    0.0803 N   0  0  0  0  0  0  0  0  0  0  0  0
   -3.0577   -1.5660   -0.4523 H   0  0  0  0  0  0  0  0  0  0  0  0
   -1.0142   -1.1539    0.0170 C   0  0  1  0  0  0  0  0  0  0  0  0
   -0.4625   -1.2755    0.9548 H   0  0  0  0  0  0  0  0  0  0  0  0
   -0.0662   -1.5557   -1.1467 C   0  0  0  0  0  0  0  0  0  0  0  0
    0.4004   -0.6630   -1.5762 H   0  0  0  0  0  0  0  0  0  0  0  0
    0.7370   -2.1400   -0.6878 H   0  0  0  0  0  0  0  0  0  0  0  0
   -0.6146   -2.3962   -2.2862 C   0  0  0  0  0  0  0  0  0  0  0  0
   -1.8932   -2.4401   -2.7967 C   0  0  0  0  0  0  0  0  0  0  0  0
   -2.7212   -1.8136   -2.4763 H   0  0  0  0  0  0  0  0  0  0  0  0
   -1.9235   -3.3906   -3.8139 N   0  0  0  0  0  0  0  0  0  0  0  0
   -2.7337   -3.6169   -4.3866 H   0  0  0  0  0  0  0  0  0  0  0  0
   -0.6744   -3.9656   -3.9685 C   0  0  0  0  0  0  0  0  0  0  0  0
   -0.2098   -4.9497   -4.8413 C   0  0  0  0  0  0  0  0  0  0  0  0
   -0.8825   -5.4046   -5.5597 H   0  0  0  0  0  0  0  0  0  0  0  0
    1.1345   -5.3416   -4.7752 C   0  0  0  0  0  0  0  0  0  0  0  0
    1.5107   -6.1066   -5.4480 H   0  0  0  0  0  0  0  0  0  0  0  0
    1.9947   -4.7461   -3.8402 C   0  0  0  0  0  0  0  0  0  0  0  0
    3.0356   -5.0511   -3.7906 H   0  0  0  0  0  0  0  0  0  0  0  0
    1.5150   -3.7581   -2.9680 C   0  0  0  0  0  0  0  0  0  0  0  0
    2.1796   -3.2972   -2.2452 H   0  0  0  0  0  0  0  0  0  0  0  0
    0.1714   -3.3720   -3.0382 C   0  0  0  0  0  0  0  0  0  0  0  0
   -1.3633    0.3425   -0.1010 C   0  0  0  0  0  0  0  0  0  0  0  0
   -2.2893    0.6954   -0.8250 O   0  0  0  0  0  0  0  0  0  0  0  0
   -0.7010    1.2836    0.6661 N   0  0  0  0  0  0  0  0  0  0  0  0
    0.0082    0.9493    1.3127 H   0  0  0  0  0  0  0  0  0  0  0  0
   -1.0401    2.7014    0.6649 C   0  0  0  0  0  0  0  0  0  0  0  0
   -2.0711    2.8498    1.0029 H   0  0  0  0  0  0  0  0  0  0  0  0
   -0.3735    3.2491    1.3381 H   0  0  0  0  0  0  0  0  0  0  0  0
   -0.9349    3.1205   -0.3413 H   0  0  0  0  0  0  0  0  0  0  0  0
  1  2  1  0  0  0  0
  2  3  1  0  0  0  0
  2  4  1  0  0  0  0
  2  5  1  0  0  0  0
  5  6  2  0  0  0  0
  5  7  1  0  0  0  0
  7  8  1  0  0  0  0
  7  9  1  0  0  0  0
  9 10  1  0  0  0  0
  9 11  1  0  0  0  0
  9 29  1  0  0  0  0
 11 12  1  0  0  0  0
 11 13  1  0  0  0  0
 11 14  1  0  0  0  0
 14 15  2  0  0  0  0
 14 28  1  0  0  0  0
 15 16  1  0  0  0  0
 15 17  1  0  0  0  0
 17 18  1  0  0  0  0
 17 19  1  0  0  0  0
 19 20  1  0  0  0  0
 19 28  2  0  0  0  0
 20 21  1  0  0  0  0
 20 22  2  0  0  0  0
 22 23  1  0  0  0  0
 22 24  1  0  0  0  0
 24 25  1  0  0  0  0
 24 26  2  0  0  0  0
 26 27  1  0  0  0  0
 26 28  1  0  0  0  0
 29 30  2  0  0  0  0
 29 31  1  0  0  0  0
 31 32  1  0  0  0  0
 31 33  1  0  0  0  0
 33 34  1  0  0  0  0
 33 35  1  0  0  0  0
 33 36  1  0  0  0  0
M  END
$$$$

  -OEChem-03222214083D

 36 37  0     1  0  0  0  0  0999 V2000
   -3.7542   -4.5801    1.5028 H   0  0  0  0  0  0  0  0  0  0  0  0
   -3.7089   -3.8009    0.7370 C   0  0  0  0  0  0  0  0  0  0  0  0
   -4.5995   -3.1734    0.8183 H   0  0  0  0  0  0  0  0  0  0  0  0
   -3.6926   -4.2757   -0.2472 H   0  0  0  0  0  0  0  0  0  0  0  0
   -2.4614   -2.9581    0.9220 C   0  0  0  0  0  0  0  0  0  0  0  0
   -1.6965   -3.1899    1.8452 O   0  0  0  0  0  0  0  0  0  0  0  0
   -2.1994   -1.9277    0.0451 N   0  0  0  0  0  0  0  0  0  0  0  0
   -2.8739   -1.7574   -0.6948 H   0  0  0  0  0  0  0  0  0  0  0  0
   -0.9704   -1.1161    0.0521 C   0  0  1  0  0  0  0  0  0  0  0  0
   -0.4539   -1.2224    1.0113 H   0  0  0  0  0  0  0  0  0  0  0  0
    0.0219   -1.4940   -1.0803 C   0  0  0  0  0  0  0  0  0  0  0  0
    0.4787   -0.5943   -1.5057 H   0  0  0  0  0  0  0  0  0  0  0  0
    0.8292   -2.0616   -0.6094 H   0  0  0  0  0  0  0  0  0  0  0  0
   -0.5231   -2.3399   -2.2140 C   0  0  0  0  0  0  0  0  0  0  0  0
   -1.7157   -2.1540   -2.8772 C   0  0  0  0  0  0  0  0  0  0  0  0
   -2.4037   -1.3265   -2.7101 H   0  0  0  0  0  0  0  0  0  0  0  0
   -1.8551   -3.1801   -3.8075 N   0  0  0  0  0  0  0  0  0  0  0  0
   -2.6240   -3.2774   -4.4672 H   0  0  0  0  0  0  0  0  0  0  0  0
   -0.7661   -4.0330   -3.7451 C   0  0  0  0  0  0  0  0  0  0  0  0
   -0.4552   -5.1872   -4.4639 C   0  0  0  0  0  0  0  0  0  0  0  0
   -1.1293   -5.5524   -5.2308 H   0  0  0  0  0  0  0  0  0  0  0  0
    0.7370   -5.8678   -4.1798 C   0  0  0  0  0  0  0  0  0  0  0  0
    0.9914   -6.7690   -4.7300 H   0  0  0  0  0  0  0  0  0  0  0  0
    1.6007   -5.3869   -3.1840 C   0  0  0  0  0  0  0  0  0  0  0  0
    2.5218   -5.9179   -2.9632 H   0  0  0  0  0  0  0  0  0  0  0  0
    1.2791   -4.2226   -2.4713 C   0  0  0  0  0  0  0  0  0  0  0  0
    1.9470   -3.8509   -1.7016 H   0  0  0  0  0  0  0  0  0  0  0  0
    0.0883   -3.5471   -2.7608 C   0  0  0  0  0  0  0  0  0  0  0  0
   -1.3541    0.3690   -0.0960 C   0  0  0  0  0  0  0  0  0  0  0  0
   -2.1937    0.7021   -0.9271 O   0  0  0  0  0  0  0  0  0  0  0  0
   -0.7682    1.3334    0.7032 N   0  0  0  0  0  0  0  0  0  0  0  0
   -0.1170    1.0216    1.4185 H   0  0  0  0  0  0  0  0  0  0  0  0
   -1.1077    2.7489    0.6267 C   0  0  0  0  0  0  0  0  0  0  0  0
   -2.1718    2.9004    0.8367 H   0  0  0  0  0  0  0  0  0  0  0  0
   -0.5268    3.3173    1.3592 H   0  0  0  0  0  0  0  0  0  0  0  0
   -0.8853    3.1426   -0.3707 H   0  0  0  0  0  0  0  0  0  0  0  0
  1  2  1  0  0  0  0
  2  3  1  0  0  0  0
  2  4  1  0  0  0  0
  2  5  1  0  0  0  0
  5  6  2  0  0  0  0
  5  7  1  0  0  0  0
  7  8  1  0  0  0  0
  7  9  1  0  0  0  0
  9 10  1  0  0  0  0
  9 11  1  0  0  0  0
  9 29  1  0  0  0  0
 11 12  1  0  0  0  0
 11 13  1  0  0  0  0
 11 14  1  0  0  0  0
 14 15  2  0  0  0  0
 14 28  1  0  0  0  0
 15 16  1  0  0  0  0
 15 17  1  0  0  0  0
 17 18  1  0  0  0  0
 17 19  1  0  0  0  0
 19 20  1  0  0  0  0
 19 28  2  0  0  0  0
 20 21  1  0  0  0  0
 20 22  2  0  0  0  0
 22 23  1  0  0  0  0
 22 24  1  0  0  0  0
 24 25  1  0  0  0  0
 24 26  2  0  0  0  0
 26 27  1  0  0  0  0
 26 28  1  0  0  0  0
 29 30  2  0  0  0  0
 29 31  1  0  0  0  0
 31 32  1  0  0  0  0
 31 33  1  0  0  0  0
 33 34  1  0  0  0  0
 33 35  1  0  0  0  0
 33 36  1  0  0  0  0
M  END
$$$$

  -OEChem-03222214083D

 36 37  0     1  0  0  0  0  0999 V2000
   -3.5514   -4.7256    1.2920 H   0  0  0  0  0  0  0  0  0  0  0  0
   -3.4820   -3.9693    0.5054 C   0  0  0  0  0  0  0  0  0  0  0  0
   -4.4453   -3.4618    0.4170 H   0  0  0  0  0  0  0  0  0  0  0  0
   -3.2491   -4.4647   -0.4408 H   0  0  0  0  0  0  0  0  0  0  0  0
   -2.3952   -2.9661    0.8397 C   0  0  0  0  0  0  0  0  0  0  0  0
   -1.7379   -3.0917    1.8616 O   0  0  0  0  0  0  0  0  0  0  0  0
   -2.1431   -1.9254   -0.0272 N   0  0  0  0  0  0  0  0  0  0  0  0
   -2.6480   -1.9397   -0.9092 H   0  0  0  0  0  0  0  0  0  0  0  0
   -0.9443   -1.0711    0.0411 C   0  0  1  0  0  0  0  0  0  0  0  0
   -0.4572   -1.1737    1.0156 H   0  0  0  0  0  0  0  0  0  0  0  0
    0.0845   -1.4396   -1.0599 C   0  0  0  0  0  0  0  0  0  0  0  0
    0.5174   -0.5335   -1.4968 H   0  0  0  0  0  0  0  0  0  0  0  0
    0.9057   -1.9805   -0.5815 H   0  0  0  0  0  0  0  0  0  0  0  0
   -0.4637   -2.3037   -2.1749 C   0  0  0  0  0  0  0  0  0  0  0  0
   -1.4999   -1.9552   -3.0110 C   0  0  0  0  0  0  0  0  0  0  0  0
   -2.0095   -0.9915   -3.0121 H   0  0  0  0  0  0  0  0  0  0  0  0
   -1.7638   -3.0456   -3.8353 N   0  0  0  0  0  0  0  0  0  0  0  0
   -2.4578   -3.0655   -4.5801 H   0  0  0  0  0  0  0  0  0  0  0  0
   -0.9161   -4.0974   -3.5276 C   0  0  0  0  0  0  0  0  0  0  0  0
   -0.8018   -5.3803   -4.0632 C   0  0  0  0  0  0  0  0  0  0  0  0
   -1.4483   -5.6939   -4.8753 H   0  0  0  0  0  0  0  0  0  0  0  0
    0.1573   -6.2571   -3.5372 C   0  0  0  0  0  0  0  0  0  0  0  0
    0.2584   -7.2587   -3.9446 H   0  0  0  0  0  0  0  0  0  0  0  0
    0.9856   -5.8426   -2.4832 C   0  0  0  0  0  0  0  0  0  0  0  0
    1.7248   -6.5248   -2.0746 H   0  0  0  0  0  0  0  0  0  0  0  0
    0.8634   -4.5495   -1.9545 C   0  0  0  0  0  0  0  0  0  0  0  0
    1.5019   -4.2285   -1.1381 H   0  0  0  0  0  0  0  0  0  0  0  0
   -0.0909   -3.6776   -2.4896 C   0  0  0  0  0  0  0  0  0  0  0  0
   -1.3446    0.4096   -0.1154 C   0  0  0  0  0  0  0  0  0  0  0  0
   -2.1028    0.7506   -1.0182 O   0  0  0  0  0  0  0  0  0  0  0  0
   -0.8099    1.3719    0.7219 N   0  0  0  0  0  0  0  0  0  0  0  0
   -0.2368    1.0517    1.4977 H   0  0  0  0  0  0  0  0  0  0  0  0
   -1.1583    2.7851    0.6423 C   0  0  0  0  0  0  0  0  0  0  0  0
   -2.2230    2.9299    0.8538 H   0  0  0  0  0  0  0  0  0  0  0  0
   -0.5790    3.3586    1.3724 H   0  0  0  0  0  0  0  0  0  0  0  0
   -0.9396    3.1790   -0.3558 H   0  0  0  0  0  0  0  0  0  0  0  0
  1  2  1  0  0  0  0
  2  3  1  0  0  0  0
  2  4  1  0  0  0  0
  2  5  1  0  0  0  0
  5  6  2  0  0  0  0
  5  7  1  0  0  0  0
  7  8  1  0  0  0  0
  7  9  1  0  0  0  0
  9 10  1  0  0  0  0
  9 11  1  0  0  0  0
  9 29  1  0  0  0  0
 11 12  1  0  0  0  0
 11 13  1  0  0  0  0
 11 14  1  0  0  0  0
 14 15  2  0  0  0  0
 14 28  1  0  0  0  0
 15 16  1  0  0  0  0
 15 17  1  0  0  0  0
 17 18  1  0  0  0  0
 17 19  1  0  0  0  0
 19 20  1  0  0  0  0
 19 28  2  0  0  0  0
 20 21  1  0  0  0  0
 20 22  2  0  0  0  0
 22 23  1  0  0  0  0
 22 24  1  0  0  0  0
 24 25  1  0  0  0  0
 24 26  2  0  0  0  0
 26 27  1  0  0  0  0
 26 28  1  0  0  0  0
 29 30  2  0  0  0  0
 29 31  1  0  0  0  0
 31 32  1  0  0  0  0
 31 33  1  0  0  0  0
 33 34  1  0  0  0  0
 33 35  1  0  0  0  0
 33 36  1  0  0  0  0
M  END
$$$$

  -OEChem-03222214083D

 36 37  0     1  0  0  0  0  0999 V2000
   -3.4472   -4.8072    1.2128 H   0  0  0  0  0  0  0  0  0  0  0  0
   -3.3722   -4.0517    0.4260 C   0  0  0  0  0  0  0  0  0  0  0  0
   -4.3502   -3.5843    0.2899 H   0  0  0  0  0  0  0  0  0  0  0  0
   -3.0758   -4.5409   -0.5058 H   0  0  0  0  0  0  0  0  0  0  0  0
   -2.3446   -3.0024    0.8035 C   0  0  0  0  0  0  0  0  0  0  0  0
   -1.7179   -3.1047    1.8473 O   0  0  0  0  0  0  0  0  0  0  0  0
   -2.0962   -1.9575   -0.0590 N   0  0  0  0  0  0  0  0  0  0  0  0
   -2.5511   -2.0089   -0.9677 H   0  0  0  0  0  0  0  0  0  0  0  0
   -0.9174   -1.0780    0.0367 C   0  0  1  0  0  0  0  0  0  0  0  0
   -0.4459   -1.1726    1.0199 H   0  0  0  0  0  0  0  0  0  0  0  0
    0.1325   -1.4320   -1.0480 C   0  0  0  0  0  0  0  0  0  0  0  0
    0.5466   -0.5185   -1.4880 H   0  0  0  0  0  0  0  0  0  0  0  0
    0.9649   -1.9577   -0.5713 H   0  0  0  0  0  0  0  0  0  0  0  0
   -0.4145   -2.3056   -2.1525 C   0  0  0  0  0  0  0  0  0  0  0  0
   -1.2401   -1.8692   -3.1610 C   0  0  0  0  0  0  0  0  0  0  0  0
   -1.5506   -0.8360   -3.3165 H   0  0  0  0  0  0  0  0  0  0  0  0
   -1.6115   -2.9828   -3.9105 N   0  0  0  0  0  0  0  0  0  0  0  0
   -2.2022   -2.9616   -4.7397 H   0  0  0  0  0  0  0  0  0  0  0  0
   -1.0534   -4.1332   -3.3755 C   0  0  0  0  0  0  0  0  0  0  0  0
   -1.1481   -5.4730   -3.7513 C   0  0  0  0  0  0  0  0  0  0  0  0
   -1.7331   -5.7580   -4.6186 H   0  0  0  0  0  0  0  0  0  0  0  0
   -0.4811   -6.4443   -2.9913 C   0  0  0  0  0  0  0  0  0  0  0  0
   -0.5451   -7.4915   -3.2723 H   0  0  0  0  0  0  0  0  0  0  0  0
    0.2661   -6.0659   -1.8651 C   0  0  0  0  0  0  0  0  0  0  0  0
    0.7765   -6.8206   -1.2742 H   0  0  0  0  0  0  0  0  0  0  0  0
    0.3568   -4.7156   -1.4984 C   0  0  0  0  0  0  0  0  0  0  0  0
    0.9277   -4.4192   -0.6243 H   0  0  0  0  0  0  0  0  0  0  0  0
   -0.3024   -3.7530   -2.2690 C   0  0  0  0  0  0  0  0  0  0  0  0
   -1.3392    0.3958   -0.1298 C   0  0  0  0  0  0  0  0  0  0  0  0
   -2.0577    0.7298   -1.0670 O   0  0  0  0  0  0  0  0  0  0  0  0
   -0.8416    1.3675    0.7196 N   0  0  0  0  0  0  0  0  0  0  0  0
   -0.2944    1.0567    1.5175 H   0  0  0  0  0  0  0  0  0  0  0  0
   -1.1978    2.7774    0.6167 C   0  0  0  0  0  0  0  0  0  0  0  0
   -2.2733    2.9131    0.7711 H   0  0  0  0  0  0  0  0  0  0  0  0
   -0.6630    3.3591    1.3736 H   0  0  0  0  0  0  0  0  0  0  0  0
   -0.9312    3.1696   -0.3704 H   0  0  0  0  0  0  0  0  0  0  0  0
  1  2  1  0  0  0  0
  2  3  1  0  0  0  0
  2  4  1  0  0  0  0
  2  5  1  0  0  0  0
  5  6  2  0  0  0  0
  5  7  1  0  0  0  0
  7  8  1  0  0  0  0
  7  9  1  0  0  0  0
  9 10  1  0  0  0  0
  9 11  1  0  0  0  0
  9 29  1  0  0  0  0
 11 12  1  0  0  0  0
 11 13  1  0  0  0  0
 11 14  1  0  0  0  0
 14 15  2  0  0  0  0
 14 28  1  0  0  0  0
 15 16  1  0  0  0  0
 15 17  1  0  0  0  0
 17 18  1  0  0  0  0
 17 19  1  0  0  0  0
 19 20  1  0  0  0  0
 19 28  2  0  0  0  0
 20 21  1  0  0  0  0
 20 22  2  0  0  0  0
 22 23  1  0  0  0  0
 22 24  1  0  0  0  0
 24 25  1  0  0  0  0
 24 26  2  0  0  0  0
 26 27  1  0  0  0  0
 26 28  1  0  0  0  0
 29 30  2  0  0  0  0
 29 31  1  0  0  0  0
 31 32  1  0  0  0  0
 31 33  1  0  0  0  0
 33 34  1  0  0  0  0
 33 35  1  0  0  0  0
 33 36  1  0  0  0  0
M  END
$$$$

  -OEChem-03222214083D

 36 37  0     1  0  0  0  0  0999 V2000
   -3.5242   -4.7668    1.2850 H   0  0  0  0  0  0  0  0  0  0  0  0
   -3.4718   -3.9955    0.5120 C   0  0  0  0  0  0  0  0  0  0  0  0
   -4.4411   -3.4963    0.4434 H   0  0  0  0  0  0  0  0  0  0  0  0
   -3.2455   -4.4714   -0.4458 H   0  0  0  0  0  0  0  0  0  0  0  0
   -2.3923   -2.9861    0.8509 C   0  0  0  0  0  0  0  0  0  0  0  0
   -1.7376   -3.1076    1.8755 O   0  0  0  0  0  0  0  0  0  0  0  0
   -2.1289   -1.9556   -0.0244 N   0  0  0  0  0  0  0  0  0  0  0  0
   -2.6081   -1.9906   -0.9217 H   0  0  0  0  0  0  0  0  0  0  0  0
   -0.9379   -1.0921    0.0525 C   0  0  1  0  0  0  0  0  0  0  0  0
   -0.4655   -1.1802    1.0354 H   0  0  0  0  0  0  0  0  0  0  0  0
    0.1062   -1.4721   -1.0290 C   0  0  0  0  0  0  0  0  0  0  0  0
    0.5275   -0.5669   -1.4792 H   0  0  0  0  0  0  0  0  0  0  0  0
    0.9346   -2.0018   -0.5493 H   0  0  0  0  0  0  0  0  0  0  0  0
   -0.4494   -2.3557   -2.1211 C   0  0  0  0  0  0  0  0  0  0  0  0
   -1.0222   -1.9088   -3.2863 C   0  0  0  0  0  0  0  0  0  0  0  0
   -1.1300   -0.8638   -3.5738 H   0  0  0  0  0  0  0  0  0  0  0  0
   -1.4510   -3.0271   -3.9984 N   0  0  0  0  0  0  0  0  0  0  0  0
   -1.9065   -3.0031   -4.9086 H   0  0  0  0  0  0  0  0  0  0  0  0
   -1.1655   -4.1875   -3.2959 C   0  0  0  0  0  0  0  0  0  0  0  0
   -1.4052   -5.5319   -3.5805 C   0  0  0  0  0  0  0  0  0  0  0  0
   -1.8916   -5.8158   -4.5072 H   0  0  0  0  0  0  0  0  0  0  0  0
   -1.0113   -6.5077   -2.6533 C   0  0  0  0  0  0  0  0  0  0  0  0
   -1.1905   -7.5583   -2.8621 H   0  0  0  0  0  0  0  0  0  0  0  0
   -0.3868   -6.1285   -1.4548 C   0  0  0  0  0  0  0  0  0  0  0  0
   -0.0863   -6.8845   -0.7356 H   0  0  0  0  0  0  0  0  0  0  0  0
   -0.1481   -4.7745   -1.1805 C   0  0  0  0  0  0  0  0  0  0  0  0
    0.3267   -4.4744   -0.2511 H   0  0  0  0  0  0  0  0  0  0  0  0
   -0.5390   -3.8099   -2.1141 C   0  0  0  0  0  0  0  0  0  0  0  0
   -1.3387    0.3851   -0.1321 C   0  0  0  0  0  0  0  0  0  0  0  0
   -2.0514    0.7197   -1.0730 O   0  0  0  0  0  0  0  0  0  0  0  0
   -0.8206    1.3586    0.7029 N   0  0  0  0  0  0  0  0  0  0  0  0
   -0.2887    1.0461    1.5104 H   0  0  0  0  0  0  0  0  0  0  0  0
   -1.1654    2.7708    0.5925 C   0  0  0  0  0  0  0  0  0  0  0  0
   -2.2397    2.9158    0.7471 H   0  0  0  0  0  0  0  0  0  0  0  0
   -0.6253    3.3522    1.3460 H   0  0  0  0  0  0  0  0  0  0  0  0
   -0.8963    3.1558   -0.3968 H   0  0  0  0  0  0  0  0  0  0  0  0
  1  2  1  0  0  0  0
  2  3  1  0  0  0  0
  2  4  1  0  0  0  0
  2  5  1  0  0  0  0
  5  6  2  0  0  0  0
  5  7  1  0  0  0  0
  7  8  1  0  0  0  0
  7  9  1  0  0  0  0
  9 10  1  0  0  0  0
  9 11  1  0  0  0  0
  9 29  1  0  0  0  0
 11 12  1  0  0  0  0
 11 13  1  0  0  0  0
 11 14  1  0  0  0  0
 14 15  2  0  0  0  0
 14 28  1  0  0  0  0
 15 16  1  0  0  0  0
 15 17  1  0  0  0  0
 17 18  1  0  0  0  0
 17 19  1  0  0  0  0
 19 20  1  0  0  0  0
 19 28  2  0  0  0  0
 20 21  1  0  0  0  0
 20 22  2  0  0  0  0
 22 23  1  0  0  0  0
 22 24  1  0  0  0  0
 24 25  1  0  0  0  0
 24 26  2  0  0  0  0
 26 27  1  0  0  0  0
 26 28  1  0  0  0  0
 29 30  2  0  0  0  0
 29 31  1  0  0  0  0
 31 32  1  0  0  0  0
 31 33  1  0  0  0  0
 33 34  1  0  0  0  0
 33 35  1  0  0  0  0
 33 36  1  0  0  0  0
M  END
$$$$

  -OEChem-03222214083D

 36 37  0     1  0  0  0  0  0999 V2000
   -3.7717   -4.6155    1.4257 H   0  0  0  0  0  0  0  0  0  0  0  0
   -3.7164   -3.8281    0.6692 C   0  0  0  0  0  0  0  0  0  0  0  0
   -4.6404   -3.2460    0.6953 H   0  0  0  0  0  0  0  0  0  0  0  0
   -3.6138   -4.2927   -0.3149 H   0  0  0  0  0  0  0  0  0  0  0  0
   -2.5285   -2.9243    0.9384 C   0  0  0  0  0  0  0  0  0  0  0  0
   -1.8316   -3.1027    1.9261 O   0  0  0  0  0  0  0  0  0  0  0  0
   -2.2259   -1.9171    0.0491 N   0  0  0  0  0  0  0  0  0  0  0  0
   -2.7707   -1.8844   -0.8102 H   0  0  0  0  0  0  0  0  0  0  0  0
   -1.0005   -1.1010    0.0873 C   0  0  1  0  0  0  0  0  0  0  0  0
   -0.5191   -1.1904    1.0662 H   0  0  0  0  0  0  0  0  0  0  0  0
    0.0233   -1.5193   -1.0012 C   0  0  0  0  0  0  0  0  0  0  0  0
    0.4732   -0.6302   -1.4563 H   0  0  0  0  0  0  0  0  0  0  0  0
    0.8356   -2.0711   -0.5183 H   0  0  0  0  0  0  0  0  0  0  0  0
   -0.5498   -2.3990   -2.0883 C   0  0  0  0  0  0  0  0  0  0  0  0
   -0.8487   -1.9918   -3.3651 C   0  0  0  0  0  0  0  0  0  0  0  0
   -0.7512   -0.9748   -3.7405 H   0  0  0  0  0  0  0  0  0  0  0  0
   -1.3136   -3.1035   -4.0647 N   0  0  0  0  0  0  0  0  0  0  0  0
   -1.6167   -3.1006   -5.0365 H   0  0  0  0  0  0  0  0  0  0  0  0
   -1.2765   -4.2314   -3.2606 C   0  0  0  0  0  0  0  0  0  0  0  0
   -1.6145   -5.5622   -3.5076 C   0  0  0  0  0  0  0  0  0  0  0  0
   -1.9948   -5.8583   -4.4791 H   0  0  0  0  0  0  0  0  0  0  0  0
   -1.4495   -6.5100   -2.4872 C   0  0  0  0  0  0  0  0  0  0  0  0
   -1.7064   -7.5500   -2.6661 H   0  0  0  0  0  0  0  0  0  0  0  0
   -0.9446   -6.1180   -1.2379 C   0  0  0  0  0  0  0  0  0  0  0  0
   -0.8114   -6.8531   -0.4498 H   0  0  0  0  0  0  0  0  0  0  0  0
   -0.6072   -4.7781   -1.0020 C   0  0  0  0  0  0  0  0  0  0  0  0
   -0.2143   -4.4699   -0.0373 H   0  0  0  0  0  0  0  0  0  0  0  0
   -0.7887   -3.8368   -2.0206 C   0  0  0  0  0  0  0  0  0  0  0  0
   -1.3534    0.3862   -0.1151 C   0  0  0  0  0  0  0  0  0  0  0  0
   -2.0921    0.7298   -1.0320 O   0  0  0  0  0  0  0  0  0  0  0  0
   -0.7833    1.3542    0.6919 N   0  0  0  0  0  0  0  0  0  0  0  0
   -0.2224    1.0383    1.4781 H   0  0  0  0  0  0  0  0  0  0  0  0
   -1.0742    2.7764    0.5605 C   0  0  0  0  0  0  0  0  0  0  0  0
   -2.1421    2.9649    0.7129 H   0  0  0  0  0  0  0  0  0  0  0  0
   -0.5122    3.3477    1.3055 H   0  0  0  0  0  0  0  0  0  0  0  0
   -0.7910    3.1349   -0.4348 H   0  0  0  0  0  0  0  0  0  0  0  0
  1  2  1  0  0  0  0
  2  3  1  0  0  0  0
  2  4  1  0  0  0  0
  2  5  1  0  0  0  0
  5  6  2  0  0  0  0
  5  7  1  0  0  0  0
  7  8  1  0  0  0  0
  7  9  1  0  0  0  0
  9 10  1  0  0  0  0
  9 11  1  0  0  0  0
  9 29  1  0  0  0  0
 11 12  1  0  0  0  0
 11 13  1  0  0  0  0
 11 14  1  0  0  0  0
 14 15  2  0  0  0  0
 14 28  1  0  0  0  0
 15 16  1  0  0  0  0
 15 17  1  0  0  0  0
 17 18  1  0  0  0  0
 17 19  1  0  0  0  0
 19 20  1  0  0  0  0
 19 28  2  0  0  0  0
 20 21  1  0  0  0  0
 20 22  2  0  0  0  0
 22 23  1  0  0  0  0
 22 24  1  0  0  0  0
 24 25  1  0  0  0  0
 24 26  2  0  0  0  0
 26 27  1  0  0  0  0
 26 28  1  0  0  0  0
 29 30  2  0  0  0  0
 29 31  1  0  0  0  0
 31 32  1  0  0  0  0
 31 33  1  0  0  0  0
 33 34  1  0  0  0  0
 33 35  1  0  0  0  0
 33 36  1  0  0  0  0
M  END
$$$$

  -OEChem-03222214083D

 36 37  0     1  0  0  0  0  0999 V2000
   -4.0046   -4.4324    1.5707 H   0  0  0  0  0  0  0  0  0  0  0  0
   -3.9541   -3.6123    0.8496 C   0  0  0  0  0  0  0  0  0  0  0  0
   -4.8231   -2.9645    0.9875 H   0  0  0  0  0  0  0  0  0  0  0  0
   -3.9764   -4.0308   -0.1601 H   0  0  0  0  0  0  0  0  0  0  0  0
   -2.6789   -2.8156    1.0513 C   0  0  0  0  0  0  0  0  0  0  0  0
   -1.9626   -3.0350    2.0166 O   0  0  0  0  0  0  0  0  0  0  0  0
   -2.3291   -1.8476    0.1366 N   0  0  0  0  0  0  0  0  0  0  0  0
   -2.9148   -1.7606   -0.6916 H   0  0  0  0  0  0  0  0  0  0  0  0
   -1.0621   -1.0984    0.1318 C   0  0  1  0  0  0  0  0  0  0  0  0
   -0.5668   -1.1902    1.1035 H   0  0  0  0  0  0  0  0  0  0  0  0
   -0.0704   -1.5561   -0.9738 C   0  0  0  0  0  0  0  0  0  0  0  0
    0.4218   -0.6876   -1.4243 H   0  0  0  0  0  0  0  0  0  0  0  0
    0.7156   -2.1462   -0.4921 H   0  0  0  0  0  0  0  0  0  0  0  0
   -0.6661   -2.4155   -2.0670 C   0  0  0  0  0  0  0  0  0  0  0  0
   -0.6796   -2.0779   -3.3991 C   0  0  0  0  0  0  0  0  0  0  0  0
   -0.3648   -1.1196   -3.8071 H   0  0  0  0  0  0  0  0  0  0  0  0
   -1.1934   -3.1580   -4.1118 N   0  0  0  0  0  0  0  0  0  0  0  0
   -1.3373   -3.1826   -5.1191 H   0  0  0  0  0  0  0  0  0  0  0  0
   -1.4110   -4.2304   -3.2645 C   0  0  0  0  0  0  0  0  0  0  0  0
   -1.8514   -5.5302   -3.5142 C   0  0  0  0  0  0  0  0  0  0  0  0
   -2.1307   -5.8292   -4.5182 H   0  0  0  0  0  0  0  0  0  0  0  0
   -1.9108   -6.4464   -2.4553 C   0  0  0  0  0  0  0  0  0  0  0  0
   -2.2493   -7.4627   -2.6348 H   0  0  0  0  0  0  0  0  0  0  0  0
   -1.5094   -6.0577   -1.1688 C   0  0  0  0  0  0  0  0  0  0  0  0
   -1.5309   -6.7740   -0.3530 H   0  0  0  0  0  0  0  0  0  0  0  0
   -1.0683   -4.7483   -0.9327 C   0  0  0  0  0  0  0  0  0  0  0  0
   -0.7321   -4.4554    0.0571 H   0  0  0  0  0  0  0  0  0  0  0  0
   -1.0558   -3.8236   -1.9832 C   0  0  0  0  0  0  0  0  0  0  0  0
   -1.3580    0.3977   -0.1022 C   0  0  0  0  0  0  0  0  0  0  0  0
   -2.1172    0.7503   -0.9985 O   0  0  0  0  0  0  0  0  0  0  0  0
   -0.7318    1.3619    0.6670 N   0  0  0  0  0  0  0  0  0  0  0  0
   -0.1606    1.0435    1.4446 H   0  0  0  0  0  0  0  0  0  0  0  0
   -0.9762    2.7906    0.5104 C   0  0  0  0  0  0  0  0  0  0  0  0
   -2.0310    3.0213    0.6934 H   0  0  0  0  0  0  0  0  0  0  0  0
   -0.3689    3.3588    1.2216 H   0  0  0  0  0  0  0  0  0  0  0  0
   -0.7145    3.1152   -0.5022 H   0  0  0  0  0  0  0  0  0  0  0  0
  1  2  1  0  0  0  0
  2  3  1  0  0  0  0
  2  4  1  0  0  0  0
  2  5  1  0  0  0  0
  5  6  2  0  0  0  0
  5  7  1  0  0  0  0
  7  8  1  0  0  0  0
  7  9  1  0  0  0  0
  9 10  1  0  0  0  0
  9 11  1  0  0  0  0
  9 29  1  0  0  0  0
 11 12  1  0  0  0  0
 11 13  1  0  0  0  0
 11 14  1  0  0  0  0
 14 15  2  0  0  0  0
 14 28  1  0  0  0  0
 15 16  1  0  0  0  0
 15 17  1  0  0  0  0
 17 18  1  0  0  0  0
 17 19  1  0  0  0  0
 19 20  1  0  0  0  0
 19 28  2  0  0  0  0
 20 21  1  0  0  0  0
 20 22  2  0  0  0  0
 22 23  1  0  0  0  0
 22 24  1  0  0  0  0
 24 25  1  0  0  0  0
 24 26  2  0  0  0  0
 26 27  1  0  0  0  0
 26 28  1  0  0  0  0
 29 30  2  0  0  0  0
 29 31  1  0  0  0  0
 31 32  1  0  0  0  0
 31 33  1  0  0  0  0
 33 34  1  0  0  0  0
 33 35  1  0  0  0  0
 33 36  1  0  0  0  0
M  END
$$$$

  -OEChem-03222214083D

 36 37  0     1  0  0  0  0  0999 V2000
   -4.2138   -4.1890    1.7845 H   0  0  0  0  0  0  0  0  0  0  0  0
   -4.1452   -3.3712    1.0623 C   0  0  0  0  0  0  0  0  0  0  0  0
   -4.9456   -2.6548    1.2611 H   0  0  0  0  0  0  0  0  0  0  0  0
   -4.2726   -3.7790    0.0562 H   0  0  0  0  0  0  0  0  0  0  0  0
   -2.7975   -2.6845    1.1765 C   0  0  0  0  0  0  0  0  0  0  0  0
   -2.0512   -2.9480    2.1072 O   0  0  0  0  0  0  0  0  0  0  0  0
   -2.4203   -1.7566    0.2316 N   0  0  0  0  0  0  0  0  0  0  0  0
   -3.0519   -1.6079   -0.5534 H   0  0  0  0  0  0  0  0  0  0  0  0
   -1.1130   -1.0847    0.1644 C   0  0  1  0  0  0  0  0  0  0  0  0
   -0.5880   -1.1868    1.1191 H   0  0  0  0  0  0  0  0  0  0  0  0
   -0.1722   -1.5712   -0.9771 C   0  0  0  0  0  0  0  0  0  0  0  0
    0.3646   -0.7228   -1.4155 H   0  0  0  0  0  0  0  0  0  0  0  0
    0.5855   -2.2074   -0.5093 H   0  0  0  0  0  0  0  0  0  0  0  0
   -0.7927   -2.3985   -2.0857 C   0  0  0  0  0  0  0  0  0  0  0  0
   -0.5329   -2.1654   -3.4167 C   0  0  0  0  0  0  0  0  0  0  0  0
   -0.0065   -1.2975   -3.8078 H   0  0  0  0  0  0  0  0  0  0  0  0
   -1.0975   -3.1925   -4.1651 N   0  0  0  0  0  0  0  0  0  0  0  0
   -1.0848   -3.2582   -5.1806 H   0  0  0  0  0  0  0  0  0  0  0  0
   -1.5710   -4.1806   -3.3251 C   0  0  0  0  0  0  0  0  0  0  0  0
   -2.1153   -5.4328   -3.6089 C   0  0  0  0  0  0  0  0  0  0  0  0
   -2.2962   -5.7314   -4.6357 H   0  0  0  0  0  0  0  0  0  0  0  0
   -2.3947   -6.3081   -2.5520 C   0  0  0  0  0  0  0  0  0  0  0  0
   -2.8136   -7.2891   -2.7550 H   0  0  0  0  0  0  0  0  0  0  0  0
   -2.0924   -5.9321   -1.2358 C   0  0  0  0  0  0  0  0  0  0  0  0
   -2.2651   -6.6262   -0.4189 H   0  0  0  0  0  0  0  0  0  0  0  0
   -1.5458   -4.6685   -0.9715 C   0  0  0  0  0  0  0  0  0  0  0  0
   -1.2555   -4.4097    0.0401 H   0  0  0  0  0  0  0  0  0  0  0  0
   -1.3411   -3.7609   -2.0181 C   0  0  0  0  0  0  0  0  0  0  0  0
   -1.3514    0.4195   -0.0889 C   0  0  0  0  0  0  0  0  0  0  0  0
   -2.1456    0.7920   -0.9458 O   0  0  0  0  0  0  0  0  0  0  0  0
   -0.6509    1.3672    0.6361 N   0  0  0  0  0  0  0  0  0  0  0  0
   -0.0593    1.0351    1.3925 H   0  0  0  0  0  0  0  0  0  0  0  0
   -0.8499    2.8028    0.4774 C   0  0  0  0  0  0  0  0  0  0  0  0
   -1.8794    3.0777    0.7299 H   0  0  0  0  0  0  0  0  0  0  0  0
   -0.1726    3.3535    1.1373 H   0  0  0  0  0  0  0  0  0  0  0  0
   -0.6470    3.1066   -0.5551 H   0  0  0  0  0  0  0  0  0  0  0  0
  1  2  1  0  0  0  0
  2  3  1  0  0  0  0
  2  4  1  0  0  0  0
  2  5  1  0  0  0  0
  5  6  2  0  0  0  0
  5  7  1  0  0  0  0
  7  8  1  0  0  0  0
  7  9  1  0  0  0  0
  9 10  1  0  0  0  0
  9 11  1  0  0  0  0
  9 29  1  0  0  0  0
 11 12  1  0  0  0  0
 11 13  1  0  0  0  0
 11 14  1  0  0  0  0
 14 15  2  0  0  0  0
 14 28  1  0  0  0  0
 15 16  1  0  0  0  0
 15 17  1  0  0  0  0
 17 18  1  0  0  0  0
 17 19  1  0  0  0  0
 19 20  1  0  0  0  0
 19 28  2  0  0  0  0
 20 21  1  0  0  0  0
 20 22  2  0  0  0  0
 22 23  1  0  0  0  0
 22 24  1  0  0  0  0
 24 25  1  0  0  0  0
 24 26  2  0  0  0  0
 26 27  1  0  0  0  0
 26 28  1  0  0  0  0
 29 30  2  0  0  0  0
 29 31  1  0  0  0  0
 31 32  1  0  0  0  0
 31 33  1  0  0  0  0
 33 34  1  0  0  0  0
 33 35  1  0  0  0  0
 33 36  1  0  0  0  0
M  END
$$$$

  -OEChem-03222214083D

 36 37  0     1  0  0  0  0  0999 V2000
   -3.9364   -4.1200    2.3143 H   0  0  0  0  0  0  0  0  0  0  0  0
   -3.9549   -3.3028    1.5882 C   0  0  0  0  0  0  0  0  0  0  0  0
   -4.6399   -2.5290    1.9429 H   0  0  0  0  0  0  0  0  0  0  0  0
   -4.3178   -3.6891    0.6325 H   0  0  0  0  0  0  0  0  0  0  0  0
   -2.5633   -2.7224    1.4201 C   0  0  0  0  0  0  0  0  0  0  0  0
   -1.6560   -3.0821    2.1540 O   0  0  0  0  0  0  0  0  0  0  0  0
   -2.3292   -1.7763    0.4470 N   0  0  0  0  0  0  0  0  0  0  0  0
   -3.1089   -1.5142   -0.1544 H   0  0  0  0  0  0  0  0  0  0  0  0
   -1.0374   -1.1280    0.1784 C   0  0  1  0  0  0  0  0  0  0  0  0
   -0.3690   -1.2585    1.0354 H   0  0  0  0  0  0  0  0  0  0  0  0
   -0.2704   -1.5397   -1.1166 C   0  0  0  0  0  0  0  0  0  0  0  0
    0.2213   -0.6631   -1.5527 H   0  0  0  0  0  0  0  0  0  0  0  0
    0.5335   -2.2022   -0.7807 H   0  0  0  0  0  0  0  0  0  0  0  0
   -0.9751   -2.3065   -2.2251 C   0  0  0  0  0  0  0  0  0  0  0  0
   -0.5787   -2.1247   -3.5324 C   0  0  0  0  0  0  0  0  0  0  0  0
    0.1078   -1.3526   -3.8731 H   0  0  0  0  0  0  0  0  0  0  0  0
   -1.2539   -3.0283   -4.3420 N   0  0  0  0  0  0  0  0  0  0  0  0
   -1.1793   -3.0853   -5.3554 H   0  0  0  0  0  0  0  0  0  0  0  0
   -1.9323   -3.9353   -3.5570 C   0  0  0  0  0  0  0  0  0  0  0  0
   -2.6390   -5.0811   -3.9220 C   0  0  0  0  0  0  0  0  0  0  0  0
   -2.8042   -5.3139   -4.9681 H   0  0  0  0  0  0  0  0  0  0  0  0
   -3.0955   -5.9446   -2.9205 C   0  0  0  0  0  0  0  0  0  0  0  0
   -3.6420   -6.8453   -3.1840 H   0  0  0  0  0  0  0  0  0  0  0  0
   -2.7909   -5.6722   -1.5810 C   0  0  0  0  0  0  0  0  0  0  0  0
   -3.0818   -6.3740   -0.8051 H   0  0  0  0  0  0  0  0  0  0  0  0
   -2.0789   -4.5131   -1.2416 C   0  0  0  0  0  0  0  0  0  0  0  0
   -1.7631   -4.3734   -0.2194 H   0  0  0  0  0  0  0  0  0  0  0  0
   -1.7140   -3.5857   -2.2252 C   0  0  0  0  0  0  0  0  0  0  0  0
   -1.3124    0.3829    0.0117 C   0  0  0  0  0  0  0  0  0  0  0  0
   -2.2646    0.7796   -0.6518 O   0  0  0  0  0  0  0  0  0  0  0  0
   -0.4941    1.3093    0.6335 N   0  0  0  0  0  0  0  0  0  0  0  0
    0.2381    0.9550    1.2422 H   0  0  0  0  0  0  0  0  0  0  0  0
   -0.7190    2.7481    0.5673 C   0  0  0  0  0  0  0  0  0  0  0  0
   -1.6779    3.0080    1.0280 H   0  0  0  0  0  0  0  0  0  0  0  0
    0.0764    3.2796    1.0988 H   0  0  0  0  0  0  0  0  0  0  0  0
   -0.7238    3.0881   -0.4738 H   0  0  0  0  0  0  0  0  0  0  0  0
  1  2  1  0  0  0  0
  2  3  1  0  0  0  0
  2  4  1  0  0  0  0
  2  5  1  0  0  0  0
  5  6  2  0  0  0  0
  5  7  1  0  0  0  0
  7  8  1  0  0  0  0
  7  9  1  0  0  0  0
  9 10  1  0  0  0  0
  9 11  1  0  0  0  0
  9 29  1  0  0  0  0
 11 12  1  0  0  0  0
 11 13  1  0  0  0  0
 11 14  1  0  0  0  0
 14 15  2  0  0  0  0
 14 28  1  0  0  0  0
 15 16  1  0  0  0  0
 15 17  1  0  0  0  0
 17 18  1  0  0  0  0
 17 19  1  0  0  0  0
 19 20  1  0  0  0  0
 19 28  2  0  0  0  0
 20 21  1  0  0  0  0
 20 22  2  0  0  0  0
 22 23  1  0  0  0  0
 22 24  1  0  0  0  0
 24 25  1  0  0  0  0
 24 26  2  0  0  0  0
 26 27  1  0  0  0  0
 26 28  1  0  0  0  0
 29 30  2  0  0  0  0
 29 31  1  0  0  0  0
 31 32  1  0  0  0  0
 31 33  1  0  0  0  0
 33 34  1  0  0  0  0
 33 35  1  0  0  0  0
 33 36  1  0  0  0  0
M  END
$$$$

  -OEChem-03222214083D

 36 37  0     1  0  0  0  0  0999 V2000
   -3.8909   -4.2450    1.6216 H   0  0  0  0  0  0  0  0  0  0  0  0
   -3.7476   -3.2392    2.0238 C   0  0  0  0  0  0  0  0  0  0  0  0
   -4.5409   -2.5882    1.6484 H   0  0  0  0  0  0  0  0  0  0  0  0
   -3.8159   -3.2803    3.1142 H   0  0  0  0  0  0  0  0  0  0  0  0
   -2.3860   -2.7078    1.6139 C   0  0  0  0  0  0  0  0  0  0  0  0
   -1.4014   -3.0362    2.2565 O   0  0  0  0  0  0  0  0  0  0  0  0
   -2.2705   -1.8051    0.5740 N   0  0  0  0  0  0  0  0  0  0  0  0
   -3.1191   -1.4879    0.1071 H   0  0  0  0  0  0  0  0  0  0  0  0
   -1.0232   -1.1265    0.2220 C   0  0  1  0  0  0  0  0  0  0  0  0
   -0.3344   -1.1663    1.0718 H   0  0  0  0  0  0  0  0  0  0  0  0
   -0.2530   -1.6235   -1.0338 C   0  0  0  0  0  0  0  0  0  0  0  0
    0.1951   -0.7515   -1.5235 H   0  0  0  0  0  0  0  0  0  0  0  0
    0.5827   -2.1995   -0.6231 H   0  0  0  0  0  0  0  0  0  0  0  0
   -0.8130   -2.5291   -2.1340 C   0  0  0  0  0  0  0  0  0  0  0  0
   -0.0520   -2.5569   -3.2844 C   0  0  0  0  0  0  0  0  0  0  0  0
    0.8663   -1.9947   -3.4395 H   0  0  0  0  0  0  0  0  0  0  0  0
   -0.6424   -3.4036   -4.2051 N   0  0  0  0  0  0  0  0  0  0  0  0
   -0.2937   -3.6013   -5.1404 H   0  0  0  0  0  0  0  0  0  0  0  0
   -1.7847   -3.9485   -3.6648 C   0  0  0  0  0  0  0  0  0  0  0  0
   -2.6623   -4.8527   -4.2620 C   0  0  0  0  0  0  0  0  0  0  0  0
   -2.4847   -5.2048   -5.2719 H   0  0  0  0  0  0  0  0  0  0  0  0
   -3.7700   -5.3000   -3.5401 C   0  0  0  0  0  0  0  0  0  0  0  0
   -4.4663   -6.0037   -3.9863 H   0  0  0  0  0  0  0  0  0  0  0  0
   -3.9718   -4.8383   -2.2365 C   0  0  0  0  0  0  0  0  0  0  0  0
   -4.8282   -5.1881   -1.6680 H   0  0  0  0  0  0  0  0  0  0  0  0
   -3.0735   -3.9296   -1.6581 C   0  0  0  0  0  0  0  0  0  0  0  0
   -3.2776   -3.6195   -0.6524 H   0  0  0  0  0  0  0  0  0  0  0  0
   -1.9555   -3.4552   -2.3656 C   0  0  0  0  0  0  0  0  0  0  0  0
   -1.3588    0.3633   -0.0111 C   0  0  0  0  0  0  0  0  0  0  0  0
   -2.3806    0.6866   -0.6072 O   0  0  0  0  0  0  0  0  0  0  0  0
   -0.5536    1.3518    0.5267 N   0  0  0  0  0  0  0  0  0  0  0  0
    0.2361    1.0576    1.0942 H   0  0  0  0  0  0  0  0  0  0  0  0
   -0.8547    2.7747    0.4229 C   0  0  0  0  0  0  0  0  0  0  0  0
   -1.8062    3.0027    0.9146 H   0  0  0  0  0  0  0  0  0  0  0  0
   -0.0670    3.3629    0.9034 H   0  0  0  0  0  0  0  0  0  0  0  0
   -0.9189    3.0778   -0.6274 H   0  0  0  0  0  0  0  0  0  0  0  0
  1  2  1  0  0  0  0
  2  3  1  0  0  0  0
  2  4  1  0  0  0  0
  2  5  1  0  0  0  0
  5  6  2  0  0  0  0
  5  7  1  0  0  0  0
  7  8  1  0  0  0  0
  7  9  1  0  0  0  0
  9 10  1  0  0  0  0
  9 11  1  0  0  0  0
  9 29  1  0  0  0  0
 11 12  1  0  0  0  0
 11 13  1  0  0  0  0
 11 14  1  0  0  0  0
 14 15  2  0  0  0  0
 14 28  1  0  0  0  0
 15 16  1  0  0  0  0
 15 17  1  0  0  0  0
 17 18  1  0  0  0  0
 17 19  1  0  0  0  0
 19 20  1  0  0  0  0
 19 28  2  0  0  0  0
 20 21  1  0  0  0  0
 20 22  2  0  0  0  0
 22 23  1  0  0  0  0
 22 24  1  0  0  0  0
 24 25  1  0  0  0  0
 24 26  2  0  0  0  0
 26 27  1  0  0  0  0
 26 28  1  0  0  0  0
 29 30  2  0  0  0  0
 29 31  1  0  0  0  0
 31 32  1  0  0  0  0
 31 33  1  0  0  0  0
 33 34  1  0  0  0  0
 33 35  1  0  0  0  0
 33 36  1  0  0  0  0
M  END
$$$$

  -OEChem-03222214083D

 36 37  0     1  0  0  0  0  0999 V2000
   -2.9421   -4.7444    2.1743 H   0  0  0  0  0  0  0  0  0  0  0  0
   -3.1154   -4.0329    1.3623 C   0  0  0  0  0  0  0  0  0  0  0  0
   -4.0993   -3.5772    1.4969 H   0  0  0  0  0  0  0  0  0  0  0  0
   -3.0985   -4.5716    0.4115 H   0  0  0  0  0  0  0  0  0  0  0  0
   -2.0430   -2.9599    1.3675 C   0  0  0  0  0  0  0  0  0  0  0  0
   -1.1566   -2.9838    2.2073 O   0  0  0  0  0  0  0  0  0  0  0  0
   -2.0693   -1.9737    0.4057 N   0  0  0  0  0  0  0  0  0  0  0  0
   -2.7133   -2.1326   -0.3615 H   0  0  0  0  0  0  0  0  0  0  0  0
   -0.9513   -1.0614    0.1366 C   0  0  1  0  0  0  0  0  0  0  0  0
   -0.2534   -1.0694    0.9795 H   0  0  0  0  0  0  0  0  0  0  0  0
   -0.1775   -1.5145   -1.1202 C   0  0  0  0  0  0  0  0  0  0  0  0
    0.3355   -0.6437   -1.5426 H   0  0  0  0  0  0  0  0  0  0  0  0
    0.6020   -2.1970   -0.7658 H   0  0  0  0  0  0  0  0  0  0  0  0
   -0.8864   -2.2415   -2.2610 C   0  0  0  0  0  0  0  0  0  0  0  0
   -0.1130   -2.6187   -3.3357 C   0  0  0  0  0  0  0  0  0  0  0  0
    0.9693   -2.5226   -3.3898 H   0  0  0  0  0  0  0  0  0  0  0  0
   -0.9283   -3.1969   -4.2954 N   0  0  0  0  0  0  0  0  0  0  0  0
   -0.6148   -3.5846   -5.1828 H   0  0  0  0  0  0  0  0  0  0  0  0
   -2.2490   -3.0633   -3.9258 C   0  0  0  0  0  0  0  0  0  0  0  0
   -3.3894   -3.4313   -4.6385 C   0  0  0  0  0  0  0  0  0  0  0  0
   -3.3009   -3.9566   -5.5829 H   0  0  0  0  0  0  0  0  0  0  0  0
   -4.6455   -3.0882   -4.1331 C   0  0  0  0  0  0  0  0  0  0  0  0
   -5.5462   -3.3605   -4.6753 H   0  0  0  0  0  0  0  0  0  0  0  0
   -4.7338   -2.3491   -2.9493 C   0  0  0  0  0  0  0  0  0  0  0  0
   -5.7055   -2.0320   -2.5822 H   0  0  0  0  0  0  0  0  0  0  0  0
   -3.5742   -1.9874   -2.2492 C   0  0  0  0  0  0  0  0  0  0  0  0
   -3.7031   -1.3442   -1.3880 H   0  0  0  0  0  0  0  0  0  0  0  0
   -2.3017   -2.4004   -2.6964 C   0  0  0  0  0  0  0  0  0  0  0  0
   -1.4172    0.4027   -0.0163 C   0  0  0  0  0  0  0  0  0  0  0  0
   -2.4098    0.6898   -0.6735 O   0  0  0  0  0  0  0  0  0  0  0  0
   -0.7205    1.4187    0.6141 N   0  0  0  0  0  0  0  0  0  0  0  0
    0.0478    1.1537    1.2237 H   0  0  0  0  0  0  0  0  0  0  0  0
   -1.1350    2.8157    0.5723 C   0  0  0  0  0  0  0  0  0  0  0  0
   -2.1466    2.9269    0.9765 H   0  0  0  0  0  0  0  0  0  0  0  0
   -0.4545    3.4307    1.1691 H   0  0  0  0  0  0  0  0  0  0  0  0
   -1.1238    3.1879   -0.4576 H   0  0  0  0  0  0  0  0  0  0  0  0
  1  2  1  0  0  0  0
  2  3  1  0  0  0  0
  2  4  1  0  0  0  0
  2  5  1  0  0  0  0
  5  6  2  0  0  0  0
  5  7  1  0  0  0  0
  7  8  1  0  0  0  0
  7  9  1  0  0  0  0
  9 10  1  0  0  0  0
  9 11  1  0  0  0  0
  9 29  1  0  0  0  0
 11 12  1  0  0  0  0
 11 13  1  0  0  0  0
 11 14  1  0  0  0  0
 14 15  2  0  0  0  0
 14 28  1  0  0  0  0
 15 16  1  0  0  0  0
 15 17  1  0  0  0  0
 17 18  1  0  0  0  0
 17 19  1  0  0  0  0
 19 20  1  0  0  0  0
 19 28  2  0  0  0  0
 20 21  1  0  0  0  0
 20 22  2  0  0  0  0
 22 23  1  0  0  0  0
 22 24  1  0  0  0  0
 24 25  1  0  0  0  0
 24 26  2  0  0  0  0
 26 27  1  0  0  0  0
 26 28  1  0  0  0  0
 29 30  2  0  0  0  0
 29 31  1  0  0  0  0
 31 32  1  0  0  0  0
 31 33  1  0  0  0  0
 33 34  1  0  0  0  0
 33 35  1  0  0  0  0
 33 36  1  0  0  0  0
M  END
$$$$

  -OEChem-03222214083D

 36 37  0     1  0  0  0  0  0999 V2000
   -3.3592   -4.6842    1.8395 H   0  0  0  0  0  0  0  0  0  0  0  0
   -3.4545   -3.9115    1.0715 C   0  0  0  0  0  0  0  0  0  0  0  0
   -4.4106   -3.3989    1.2024 H   0  0  0  0  0  0  0  0  0  0  0  0
   -3.4364   -4.3870    0.0876 H   0  0  0  0  0  0  0  0  0  0  0  0
   -2.3149   -2.9170    1.1841 C   0  0  0  0  0  0  0  0  0  0  0  0
   -1.4657   -3.0543    2.0513 O   0  0  0  0  0  0  0  0  0  0  0  0
   -2.2370   -1.8751    0.2862 N   0  0  0  0  0  0  0  0  0  0  0  0
   -2.8764   -1.9239   -0.5022 H   0  0  0  0  0  0  0  0  0  0  0  0
   -1.0593   -1.0106    0.1234 C   0  0  1  0  0  0  0  0  0  0  0  0
   -0.4302   -1.1026    1.0143 H   0  0  0  0  0  0  0  0  0  0  0  0
   -0.2058   -1.4815   -1.0746 C   0  0  0  0  0  0  0  0  0  0  0  0
    0.3551   -0.6220   -1.4565 H   0  0  0  0  0  0  0  0  0  0  0  0
    0.5305   -2.1878   -0.6774 H   0  0  0  0  0  0  0  0  0  0  0  0
   -0.8751   -2.1630   -2.2638 C   0  0  0  0  0  0  0  0  0  0  0  0
   -0.0797   -2.8499   -3.1527 C   0  0  0  0  0  0  0  0  0  0  0  0
    0.9937   -2.9937   -3.0502 H   0  0  0  0  0  0  0  0  0  0  0  0
   -0.8782   -3.3493   -4.1707 N   0  0  0  0  0  0  0  0  0  0  0  0
   -0.5528   -3.9027   -4.9607 H   0  0  0  0  0  0  0  0  0  0  0  0
   -2.1796   -2.9259   -3.9981 C   0  0  0  0  0  0  0  0  0  0  0  0
   -3.2918   -3.1575   -4.8064 C   0  0  0  0  0  0  0  0  0  0  0  0
   -3.2056   -3.7750   -5.6934 H   0  0  0  0  0  0  0  0  0  0  0  0
   -4.5136   -2.5703   -4.4661 C   0  0  0  0  0  0  0  0  0  0  0  0
   -5.3901   -2.7356   -5.0855 H   0  0  0  0  0  0  0  0  0  0  0  0
   -4.5951   -1.7456   -3.3385 C   0  0  0  0  0  0  0  0  0  0  0  0
   -5.5343   -1.2615   -3.0879 H   0  0  0  0  0  0  0  0  0  0  0  0
   -3.4654   -1.5227   -2.5392 C   0  0  0  0  0  0  0  0  0  0  0  0
   -3.5684   -0.8434   -1.7042 H   0  0  0  0  0  0  0  0  0  0  0  0
   -2.2398   -2.1431   -2.8431 C   0  0  0  0  0  0  0  0  0  0  0  0
   -1.3905    0.4959    0.0341 C   0  0  0  0  0  0  0  0  0  0  0  0
   -2.3242    0.9147   -0.6365 O   0  0  0  0  0  0  0  0  0  0  0  0
   -0.6392    1.4054    0.7581 N   0  0  0  0  0  0  0  0  0  0  0  0
    0.0756    1.0352    1.3779 H   0  0  0  0  0  0  0  0  0  0  0  0
   -0.9185    2.8362    0.7826 C   0  0  0  0  0  0  0  0  0  0  0  0
   -1.9343    3.0227    1.1464 H   0  0  0  0  0  0  0  0  0  0  0  0
   -0.2146    3.3475    1.4463 H   0  0  0  0  0  0  0  0  0  0  0  0
   -0.8199    3.2624   -0.2214 H   0  0  0  0  0  0  0  0  0  0  0  0
  1  2  1  0  0  0  0
  2  3  1  0  0  0  0
  2  4  1  0  0  0  0
  2  5  1  0  0  0  0
  5  6  2  0  0  0  0
  5  7  1  0  0  0  0
  7  8  1  0  0  0  0
  7  9  1  0  0  0  0
  9 10  1  0  0  0  0
  9 11  1  0  0  0  0
  9 29  1  0  0  0  0
 11 12  1  0  0  0  0
 11 13  1  0  0  0  0
 11 14  1  0  0  0  0
 14 15  2  0  0  0  0
 14 28  1  0  0  0  0
 15 16  1  0  0  0  0
 15 17  1  0  0  0  0
 17 18  1  0  0  0  0
 17 19  1  0  0  0  0
 19 20  1  0  0  0  0
 19 28  2  0  0  0  0
 20 21  1  0  0  0  0
 20 22  2  0  0  0  0
 22 23  1  0  0  0  0
 22 24  1  0  0  0  0
 24 25  1  0  0  0  0
 24 26  2  0  0  0  0
 26 27  1  0  0  0  0
 26 28  1  0  0  0  0
 29 30  2  0  0  0  0
 29 31  1  0  0  0  0
 31 32  1  0  0  0  0
 31 33  1  0  0  0  0
 33 34  1  0  0  0  0
 33 35  1  0  0  0  0
 33 36  1  0  0  0  0
M  END
$$$$

  -OEChem-03222214083D

 36 37  0     1  0  0  0  0  0999 V2000
   -3.5119   -4.6286    1.5572 H   0  0  0  0  0  0  0  0  0  0  0  0
   -3.5826   -3.8085    0.8376 C   0  0  0  0  0  0  0  0  0  0  0  0
   -4.5111   -3.2610    1.0163 H   0  0  0  0  0  0  0  0  0  0  0  0
   -3.6024   -4.2256   -0.1724 H   0  0  0  0  0  0  0  0  0  0  0  0
   -2.3948   -2.8772    0.9864 C   0  0  0  0  0  0  0  0  0  0  0  0
   -1.5288   -3.1171    1.8140 O   0  0  0  0  0  0  0  0  0  0  0  0
   -2.2878   -1.7802    0.1595 N   0  0  0  0  0  0  0  0  0  0  0  0
   -2.9677   -1.7151   -0.5947 H   0  0  0  0  0  0  0  0  0  0  0  0
   -1.0928   -0.9297    0.0476 C   0  0  1  0  0  0  0  0  0  0  0  0
   -0.5001   -1.0795    0.9553 H   0  0  0  0  0  0  0  0  0  0  0  0
   -0.1933   -1.4001   -1.1167 C   0  0  0  0  0  0  0  0  0  0  0  0
    0.3735   -0.5379   -1.4825 H   0  0  0  0  0  0  0  0  0  0  0  0
    0.5345   -2.1037   -0.6985 H   0  0  0  0  0  0  0  0  0  0  0  0
   -0.8409   -2.0695   -2.3231 C   0  0  0  0  0  0  0  0  0  0  0  0
   -0.1270   -3.0123   -3.0280 C   0  0  0  0  0  0  0  0  0  0  0  0
    0.8820   -3.3420   -2.7893 H   0  0  0  0  0  0  0  0  0  0  0  0
   -0.9165   -3.4791   -4.0692 N   0  0  0  0  0  0  0  0  0  0  0  0
   -0.6413   -4.1840   -4.7499 H   0  0  0  0  0  0  0  0  0  0  0  0
   -2.1319   -2.8256   -4.0689 C   0  0  0  0  0  0  0  0  0  0  0  0
   -3.2146   -2.9701   -4.9357 C   0  0  0  0  0  0  0  0  0  0  0  0
   -3.1757   -3.6891   -5.7466 H   0  0  0  0  0  0  0  0  0  0  0  0
   -4.3467   -2.1706   -4.7487 C   0  0  0  0  0  0  0  0  0  0  0  0
   -5.1986   -2.2665   -5.4153 H   0  0  0  0  0  0  0  0  0  0  0  0
   -4.3724   -1.2371   -3.7058 C   0  0  0  0  0  0  0  0  0  0  0  0
   -5.2436   -0.6035   -3.5664 H   0  0  0  0  0  0  0  0  0  0  0  0
   -3.2740   -1.1062   -2.8447 C   0  0  0  0  0  0  0  0  0  0  0  0
   -3.3244   -0.3625   -2.0646 H   0  0  0  0  0  0  0  0  0  0  0  0
   -2.1395   -1.9155   -3.0105 C   0  0  0  0  0  0  0  0  0  0  0  0
   -1.3579    0.5931    0.0508 C   0  0  0  0  0  0  0  0  0  0  0  0
   -2.3116    1.0898   -0.5313 O   0  0  0  0  0  0  0  0  0  0  0  0
   -0.5658    1.4220    0.8267 N   0  0  0  0  0  0  0  0  0  0  0  0
    0.1531    0.9845    1.3958 H   0  0  0  0  0  0  0  0  0  0  0  0
   -0.8172    2.8492    0.9893 C   0  0  0  0  0  0  0  0  0  0  0  0
   -1.7967    3.0159    1.4500 H   0  0  0  0  0  0  0  0  0  0  0  0
   -0.0521    3.2975    1.6305 H   0  0  0  0  0  0  0  0  0  0  0  0
   -0.7930    3.3553    0.0185 H   0  0  0  0  0  0  0  0  0  0  0  0
  1  2  1  0  0  0  0
  2  3  1  0  0  0  0
  2  4  1  0  0  0  0
  2  5  1  0  0  0  0
  5  6  2  0  0  0  0
  5  7  1  0  0  0  0
  7  8  1  0  0  0  0
  7  9  1  0  0  0  0
  9 10  1  0  0  0  0
  9 11  1  0  0  0  0
  9 29  1  0  0  0  0
 11 12  1  0  0  0  0
 11 13  1  0  0  0  0
 11 14  1  0  0  0  0
 14 15  2  0  0  0  0
 14 28  1  0  0  0  0
 15 16  1  0  0  0  0
 15 17  1  0  0  0  0
 17 18  1  0  0  0  0
 17 19  1  0  0  0  0
 19 20  1  0  0  0  0
 19 28  2  0  0  0  0
 20 21  1  0  0  0  0
 20 22  2  0  0  0  0
 22 23  1  0  0  0  0
 22 24  1  0  0  0  0
 24 25  1  0  0  0  0
 24 26  2  0  0  0  0
 26 27  1  0  0  0  0
 26 28  1  0  0  0  0
 29 30  2  0  0  0  0
 29 31  1  0  0  0  0
 31 32  1  0  0  0  0
 31 33  1  0  0  0  0
 33 34  1  0  0  0  0
 33 35  1  0  0  0  0
 33 36  1  0  0  0  0
M  END
$$$$

  -OEChem-03222214083D

 36 37  0     1  0  0  0  0  0999 V2000
   -3.5817   -4.5958    1.4796 H   0  0  0  0  0  0  0  0  0  0  0  0
   -3.6419   -3.7600    0.7772 C   0  0  0  0  0  0  0  0  0  0  0  0
   -4.5306   -3.1680    1.0083 H   0  0  0  0  0  0  0  0  0  0  0  0
   -3.7305   -4.1563   -0.2375 H   0  0  0  0  0  0  0  0  0  0  0  0
   -2.4016   -2.8940    0.8849 C   0  0  0  0  0  0  0  0  0  0  0  0
   -1.5009   -3.2052    1.6496 O   0  0  0  0  0  0  0  0  0  0  0  0
   -2.2867   -1.7747    0.0906 N   0  0  0  0  0  0  0  0  0  0  0  0
   -3.0270   -1.6100   -0.5886 H   0  0  0  0  0  0  0  0  0  0  0  0
   -1.0933   -0.9203   -0.0059 C   0  0  1  0  0  0  0  0  0  0  0  0
   -0.5213   -1.0795    0.9135 H   0  0  0  0  0  0  0  0  0  0  0  0
   -0.1551   -1.3880   -1.1418 C   0  0  0  0  0  0  0  0  0  0  0  0
    0.4099   -0.5239   -1.5056 H   0  0  0  0  0  0  0  0  0  0  0  0
    0.5699   -2.0827   -0.7051 H   0  0  0  0  0  0  0  0  0  0  0  0
   -0.7968   -2.0680   -2.3407 C   0  0  0  0  0  0  0  0  0  0  0  0
   -0.2518   -3.2189   -2.8631 C   0  0  0  0  0  0  0  0  0  0  0  0
    0.6275   -3.7291   -2.4756 H   0  0  0  0  0  0  0  0  0  0  0  0
   -1.0313   -3.6264   -3.9378 N   0  0  0  0  0  0  0  0  0  0  0  0
   -0.8653   -4.4528   -4.5086 H   0  0  0  0  0  0  0  0  0  0  0  0
   -2.0577   -2.7259   -4.1461 C   0  0  0  0  0  0  0  0  0  0  0  0
   -3.0636   -2.7194   -5.1125 C   0  0  0  0  0  0  0  0  0  0  0  0
   -3.1303   -3.5206   -5.8399 H   0  0  0  0  0  0  0  0  0  0  0  0
   -3.9790   -1.6613   -5.1341 C   0  0  0  0  0  0  0  0  0  0  0  0
   -4.7691   -1.6378   -5.8787 H   0  0  0  0  0  0  0  0  0  0  0  0
   -3.8628   -0.6223   -4.2018 C   0  0  0  0  0  0  0  0  0  0  0  0
   -4.5582    0.2117   -4.2253 H   0  0  0  0  0  0  0  0  0  0  0  0
   -2.8433   -0.6449   -3.2404 C   0  0  0  0  0  0  0  0  0  0  0  0
   -2.7561    0.1842   -2.5564 H   0  0  0  0  0  0  0  0  0  0  0  0
   -1.9433   -1.7156   -3.1916 C   0  0  0  0  0  0  0  0  0  0  0  0
   -1.3767    0.5977    0.0382 C   0  0  0  0  0  0  0  0  0  0  0  0
   -2.4073    1.0701   -0.4220 O   0  0  0  0  0  0  0  0  0  0  0  0
   -0.5898    1.4170    0.8296 N   0  0  0  0  0  0  0  0  0  0  0  0
    0.1899    0.9885    1.3198 H   0  0  0  0  0  0  0  0  0  0  0  0
   -0.8875    2.8231    1.0777 C   0  0  0  0  0  0  0  0  0  0  0  0
   -1.8407    2.9262    1.6068 H   0  0  0  0  0  0  0  0  0  0  0  0
   -0.1007    3.2734    1.6904 H   0  0  0  0  0  0  0  0  0  0  0  0
   -0.9466    3.3747    0.1334 H   0  0  0  0  0  0  0  0  0  0  0  0
  1  2  1  0  0  0  0
  2  3  1  0  0  0  0
  2  4  1  0  0  0  0
  2  5  1  0  0  0  0
  5  6  2  0  0  0  0
  5  7  1  0  0  0  0
  7  8  1  0  0  0  0
  7  9  1  0  0  0  0
  9 10  1  0  0  0  0
  9 11  1  0  0  0  0
  9 29  1  0  0  0  0
 11 12  1  0  0  0  0
 11 13  1  0  0  0  0
 11 14  1  0  0  0  0
 14 15  2  0  0  0  0
 14 28  1  0  0  0  0
 15 16  1  0  0  0  0
 15 17  1  0  0  0  0
 17 18  1  0  0  0  0
 17 19  1  0  0  0  0
 19 20  1  0  0  0  0
 19 28  2  0  0  0  0
 20 21  1  0  0  0  0
 20 22  2  0  0  0  0
 22 23  1  0  0  0  0
 22 24  1  0  0  0  0
 24 25  1  0  0  0  0
 24 26  2  0  0  0  0
 26 27  1  0  0  0  0
 26 28  1  0  0  0  0
 29 30  2  0  0  0  0
 29 31  1  0  0  0  0
 31 32  1  0  0  0  0
 31 33  1  0  0  0  0
 33 34  1  0  0  0  0
 33 35  1  0  0  0  0
 33 36  1  0  0  0  0
M  END
$$$$

  -OEChem-03222214083D

 36 37  0     1  0  0  0  0  0999 V2000
   -3.5729   -4.6019    1.5310 H   0  0  0  0  0  0  0  0  0  0  0  0
   -3.6285   -3.7784    0.8137 C   0  0  0  0  0  0  0  0  0  0  0  0
   -4.5060   -3.1691    1.0430 H   0  0  0  0  0  0  0  0  0  0  0  0
   -3.7334   -4.1919   -0.1925 H   0  0  0  0  0  0  0  0  0  0  0  0
   -2.3744   -2.9296    0.8931 C   0  0  0  0  0  0  0  0  0  0  0  0
   -1.4752   -3.2343    1.6621 O   0  0  0  0  0  0  0  0  0  0  0  0
   -2.2414   -1.8353    0.0683 N   0  0  0  0  0  0  0  0  0  0  0  0
   -2.9896   -1.6533   -0.5985 H   0  0  0  0  0  0  0  0  0  0  0  0
   -1.0536   -0.9722   -0.0137 C   0  0  1  0  0  0  0  0  0  0  0  0
   -0.4875   -1.0987    0.9143 H   0  0  0  0  0  0  0  0  0  0  0  0
   -0.1074   -1.4314   -1.1459 C   0  0  0  0  0  0  0  0  0  0  0  0
    0.4683   -0.5742   -1.5091 H   0  0  0  0  0  0  0  0  0  0  0  0
    0.6075   -2.1394   -0.7145 H   0  0  0  0  0  0  0  0  0  0  0  0
   -0.7810   -2.0996   -2.3278 C   0  0  0  0  0  0  0  0  0  0  0  0
   -0.4923   -3.3901   -2.7063 C   0  0  0  0  0  0  0  0  0  0  0  0
    0.1913   -4.0586   -2.1869 H   0  0  0  0  0  0  0  0  0  0  0  0
   -1.2414   -3.6874   -3.8390 N   0  0  0  0  0  0  0  0  0  0  0  0
   -1.2293   -4.5737   -4.3390 H   0  0  0  0  0  0  0  0  0  0  0  0
   -1.9707   -2.5799   -4.2302 C   0  0  0  0  0  0  0  0  0  0  0  0
   -2.8271   -2.3947   -5.3151 C   0  0  0  0  0  0  0  0  0  0  0  0
   -3.0260   -3.2102   -6.0015 H   0  0  0  0  0  0  0  0  0  0  0  0
   -3.4174   -1.1399   -5.5097 C   0  0  0  0  0  0  0  0  0  0  0  0
   -4.0872   -0.9771   -6.3486 H   0  0  0  0  0  0  0  0  0  0  0  0
   -3.1296   -0.0883   -4.6284 C   0  0  0  0  0  0  0  0  0  0  0  0
   -3.5727    0.8906   -4.7848 H   0  0  0  0  0  0  0  0  0  0  0  0
   -2.2635   -0.2901   -3.5447 C   0  0  0  0  0  0  0  0  0  0  0  0
   -2.0283    0.5393   -2.8908 H   0  0  0  0  0  0  0  0  0  0  0  0
   -1.6981   -1.5521   -3.3303 C   0  0  0  0  0  0  0  0  0  0  0  0
   -1.4011    0.5307   -0.0258 C   0  0  0  0  0  0  0  0  0  0  0  0
   -2.4318    0.9368   -0.5480 O   0  0  0  0  0  0  0  0  0  0  0  0
   -0.6792    1.4065    0.7667 N   0  0  0  0  0  0  0  0  0  0  0  0
    0.0865    1.0210    1.3119 H   0  0  0  0  0  0  0  0  0  0  0  0
   -1.0614    2.7970    0.9817 C   0  0  0  0  0  0  0  0  0  0  0  0
   -2.0292    2.8536    1.4909 H   0  0  0  0  0  0  0  0  0  0  0  0
   -0.3141    3.3030    1.6006 H   0  0  0  0  0  0  0  0  0  0  0  0
   -1.1332    3.3276    0.0264 H   0  0  0  0  0  0  0  0  0  0  0  0
  1  2  1  0  0  0  0
  2  3  1  0  0  0  0
  2  4  1  0  0  0  0
  2  5  1  0  0  0  0
  5  6  2  0  0  0  0
  5  7  1  0  0  0  0
  7  8  1  0  0  0  0
  7  9  1  0  0  0  0
  9 10  1  0  0  0  0
  9 11  1  0  0  0  0
  9 29  1  0  0  0  0
 11 12  1  0  0  0  0
 11 13  1  0  0  0  0
 11 14  1  0  0  0  0
 14 15  2  0  0  0  0
 14 28  1  0  0  0  0
 15 16  1  0  0  0  0
 15 17  1  0  0  0  0
 17 18  1  0  0  0  0
 17 19  1  0  0  0  0
 19 20  1  0  0  0  0
 19 28  2  0  0  0  0
 20 21  1  0  0  0  0
 20 22  2  0  0  0  0
 22 23  1  0  0  0  0
 22 24  1  0  0  0  0
 24 25  1  0  0  0  0
 24 26  2  0  0  0  0
 26 27  1  0  0  0  0
 26 28  1  0  0  0  0
 29 30  2  0  0  0  0
 29 31  1  0  0  0  0
 31 32  1  0  0  0  0
 31 33  1  0  0  0  0
 33 34  1  0  0  0  0
 33 35  1  0  0  0  0
 33 36  1  0  0  0  0
M  END
$$$$

  -OEChem-03222214083D

 36 37  0     1  0  0  0  0  0999 V2000
   -3.6527   -4.5896    1.5012 H   0  0  0  0  0  0  0  0  0  0  0  0
   -3.6676   -3.7790    0.7677 C   0  0  0  0  0  0  0  0  0  0  0  0
   -4.5414   -3.1500    0.9538 H   0  0  0  0  0  0  0  0  0  0  0  0
   -3.7445   -4.2093   -0.2338 H   0  0  0  0  0  0  0  0  0  0  0  0
   -2.4020   -2.9505    0.8772 C   0  0  0  0  0  0  0  0  0  0  0  0
   -1.5433   -3.2463    1.6938 O   0  0  0  0  0  0  0  0  0  0  0  0
   -2.2120   -1.8837    0.0285 N   0  0  0  0  0  0  0  0  0  0  0  0
   -2.9311   -1.6991   -0.6695 H   0  0  0  0  0  0  0  0  0  0  0  0
   -1.0188   -1.0241   -0.0086 C   0  0  1  0  0  0  0  0  0  0  0  0
   -0.4832   -1.1304    0.9398 H   0  0  0  0  0  0  0  0  0  0  0  0
   -0.0427   -1.4650   -1.1223 C   0  0  0  0  0  0  0  0  0  0  0  0
    0.5577   -0.6125   -1.4551 H   0  0  0  0  0  0  0  0  0  0  0  0
    0.6480   -2.1951   -0.6888 H   0  0  0  0  0  0  0  0  0  0  0  0
   -0.7075   -2.1044   -2.3207 C   0  0  0  0  0  0  0  0  0  0  0  0
   -0.6867   -3.4545   -2.5803 C   0  0  0  0  0  0  0  0  0  0  0  0
   -0.2164   -4.2081   -1.9517 H   0  0  0  0  0  0  0  0  0  0  0  0
   -1.3753   -3.6710   -3.7703 N   0  0  0  0  0  0  0  0  0  0  0  0
   -1.5101   -4.5750   -4.2181 H   0  0  0  0  0  0  0  0  0  0  0  0
   -1.8147   -2.4670   -4.2943 C   0  0  0  0  0  0  0  0  0  0  0  0
   -2.5206   -2.1771   -5.4618 C   0  0  0  0  0  0  0  0  0  0  0  0
   -2.8282   -2.9755   -6.1276 H   0  0  0  0  0  0  0  0  0  0  0  0
   -2.8226   -0.8424   -5.7628 C   0  0  0  0  0  0  0  0  0  0  0  0
   -3.3727   -0.5997   -6.6670 H   0  0  0  0  0  0  0  0  0  0  0  0
   -2.4103    0.1818   -4.8980 C   0  0  0  0  0  0  0  0  0  0  0  0
   -2.6426    1.2166   -5.1305 H   0  0  0  0  0  0  0  0  0  0  0  0
   -1.6981   -0.1230   -3.7295 C   0  0  0  0  0  0  0  0  0  0  0  0
   -1.3753    0.6739   -3.0685 H   0  0  0  0  0  0  0  0  0  0  0  0
   -1.4107   -1.4580   -3.4251 C   0  0  0  0  0  0  0  0  0  0  0  0
   -1.3936    0.4697   -0.0910 C   0  0  0  0  0  0  0  0  0  0  0  0
   -2.3599    0.8416   -0.7456 O   0  0  0  0  0  0  0  0  0  0  0  0
   -0.7436    1.3910    0.7115 N   0  0  0  0  0  0  0  0  0  0  0  0
   -0.0195    1.0437    1.3337 H   0  0  0  0  0  0  0  0  0  0  0  0
   -1.1348    2.7928    0.8009 C   0  0  0  0  0  0  0  0  0  0  0  0
   -2.1533    2.8820    1.1930 H   0  0  0  0  0  0  0  0  0  0  0  0
   -0.4579    3.3328    1.4698 H   0  0  0  0  0  0  0  0  0  0  0  0
   -1.0935    3.2664   -0.1856 H   0  0  0  0  0  0  0  0  0  0  0  0
  1  2  1  0  0  0  0
  2  3  1  0  0  0  0
  2  4  1  0  0  0  0
  2  5  1  0  0  0  0
  5  6  2  0  0  0  0
  5  7  1  0  0  0  0
  7  8  1  0  0  0  0
  7  9  1  0  0  0  0
  9 10  1  0  0  0  0
  9 11  1  0  0  0  0
  9 29  1  0  0  0  0
 11 12  1  0  0  0  0
 11 13  1  0  0  0  0
 11 14  1  0  0  0  0
 14 15  2  0  0  0  0
 14 28  1  0  0  0  0
 15 16  1  0  0  0  0
 15 17  1  0  0  0  0
 17 18  1  0  0  0  0
 17 19  1  0  0  0  0
 19 20  1  0  0  0  0
 19 28  2  0  0  0  0
 20 21  1  0  0  0  0
 20 22  2  0  0  0  0
 22 23  1  0  0  0  0
 22 24  1  0  0  0  0
 24 25  1  0  0  0  0
 24 26  2  0  0  0  0
 26 27  1  0  0  0  0
 26 28  1  0  0  0  0
 29 30  2  0  0  0  0
 29 31  1  0  0  0  0
 31 32  1  0  0  0  0
 31 33  1  0  0  0  0
 33 34  1  0  0  0  0
 33 35  1  0  0  0  0
 33 36  1  0  0  0  0
M  END
$$$$

  -OEChem-03222214083D

 36 37  0     1  0  0  0  0  0999 V2000
   -3.7332   -4.5648    1.4800 H   0  0  0  0  0  0  0  0  0  0  0  0
   -3.7117   -3.7695    0.7296 C   0  0  0  0  0  0  0  0  0  0  0  0
   -4.5803   -3.1227    0.8759 H   0  0  0  0  0  0  0  0  0  0  0  0
   -3.7658   -4.2199   -0.2645 H   0  0  0  0  0  0  0  0  0  0  0  0
   -2.4366   -2.9590    0.8614 C   0  0  0  0  0  0  0  0  0  0  0  0
   -1.6103   -3.2490    1.7123 O   0  0  0  0  0  0  0  0  0  0  0  0
   -2.1977   -1.9187   -0.0073 N   0  0  0  0  0  0  0  0  0  0  0  0
   -2.8908   -1.7338   -0.7314 H   0  0  0  0  0  0  0  0  0  0  0  0
   -1.0001   -1.0644   -0.0071 C   0  0  1  0  0  0  0  0  0  0  0  0
   -0.4981   -1.1521    0.9617 H   0  0  0  0  0  0  0  0  0  0  0  0
    0.0108   -1.4958   -1.0926 C   0  0  0  0  0  0  0  0  0  0  0  0
    0.6335   -0.6482   -1.3958 H   0  0  0  0  0  0  0  0  0  0  0  0
    0.6780   -2.2389   -0.6447 H   0  0  0  0  0  0  0  0  0  0  0  0
   -0.6221   -2.1232   -2.3127 C   0  0  0  0  0  0  0  0  0  0  0  0
   -0.8693   -3.4659   -2.4726 C   0  0  0  0  0  0  0  0  0  0  0  0
   -0.6250   -4.2396   -1.7474 H   0  0  0  0  0  0  0  0  0  0  0  0
   -1.4789   -3.6403   -3.7125 N   0  0  0  0  0  0  0  0  0  0  0  0
   -1.7639   -4.5330   -4.1093 H   0  0  0  0  0  0  0  0  0  0  0  0
   -1.6309   -2.4186   -4.3488 C   0  0  0  0  0  0  0  0  0  0  0  0
   -2.1797   -2.0806   -5.5862 C   0  0  0  0  0  0  0  0  0  0  0  0
   -2.5788   -2.8506   -6.2370 H   0  0  0  0  0  0  0  0  0  0  0  0
   -2.2108   -0.7337   -5.9744 C   0  0  0  0  0  0  0  0  0  0  0  0
   -2.6378   -0.4540   -6.9329 H   0  0  0  0  0  0  0  0  0  0  0  0
   -1.6966    0.2554   -5.1221 C   0  0  0  0  0  0  0  0  0  0  0  0
   -1.7294    1.2992   -5.4186 H   0  0  0  0  0  0  0  0  0  0  0  0
   -1.1450   -0.0972   -3.8823 C   0  0  0  0  0  0  0  0  0  0  0  0
   -0.7578    0.6670   -3.2165 H   0  0  0  0  0  0  0  0  0  0  0  0
   -1.1125   -1.4429   -3.5041 C   0  0  0  0  0  0  0  0  0  0  0  0
   -1.3753    0.4244   -0.1533 C   0  0  0  0  0  0  0  0  0  0  0  0
   -2.2649    0.7762   -0.9183 O   0  0  0  0  0  0  0  0  0  0  0  0
   -0.7741    1.3755    0.6523 N   0  0  0  0  0  0  0  0  0  0  0  0
   -0.0990    1.0526    1.3393 H   0  0  0  0  0  0  0  0  0  0  0  0
   -1.1297    2.7891    0.6246 C   0  0  0  0  0  0  0  0  0  0  0  0
   -2.1875    2.9239    0.8738 H   0  0  0  0  0  0  0  0  0  0  0  0
   -0.5297    3.3444    1.3519 H   0  0  0  0  0  0  0  0  0  0  0  0
   -0.9447    3.2106   -0.3691 H   0  0  0  0  0  0  0  0  0  0  0  0
  1  2  1  0  0  0  0
  2  3  1  0  0  0  0
  2  4  1  0  0  0  0
  2  5  1  0  0  0  0
  5  6  2  0  0  0  0
  5  7  1  0  0  0  0
  7  8  1  0  0  0  0
  7  9  1  0  0  0  0
  9 10  1  0  0  0  0
  9 11  1  0  0  0  0
  9 29  1  0  0  0  0
 11 12  1  0  0  0  0
 11 13  1  0  0  0  0
 11 14  1  0  0  0  0
 14 15  2  0  0  0  0
 14 28  1  0  0  0  0
 15 16  1  0  0  0  0
 15 17  1  0  0  0  0
 17 18  1  0  0  0  0
 17 19  1  0  0  0  0
 19 20  1  0  0  0  0
 19 28  2  0  0  0  0
 20 21  1  0  0  0  0
 20 22  2  0  0  0  0
 22 23  1  0  0  0  0
 22 24  1  0  0  0  0
 24 25  1  0  0  0  0
 24 26  2  0  0  0  0
 26 27  1  0  0  0  0
 26 28  1  0  0  0  0
 29 30  2  0  0  0  0
 29 31  1  0  0  0  0
 31 32  1  0  0  0  0
 31 33  1  0  0  0  0
 33 34  1  0  0  0  0
 33 35  1  0  0  0  0
 33 36  1  0  0  0  0
M  END
$$$$

  -OEChem-03222214083D

 36 37  0     1  0  0  0  0  0999 V2000
   -3.7880   -4.5111    1.5833 H   0  0  0  0  0  0  0  0  0  0  0  0
   -3.7599   -3.7293    0.8193 C   0  0  0  0  0  0  0  0  0  0  0  0
   -4.6005   -3.0497    0.9800 H   0  0  0  0  0  0  0  0  0  0  0  0
   -3.8589   -4.1936   -0.1648 H   0  0  0  0  0  0  0  0  0  0  0  0
   -2.4524   -2.9646    0.9010 C   0  0  0  0  0  0  0  0  0  0  0  0
   -1.6125   -3.2724    1.7315 O   0  0  0  0  0  0  0  0  0  0  0  0
   -2.1995   -1.9482    0.0078 N   0  0  0  0  0  0  0  0  0  0  0  0
   -2.9211   -1.7236   -0.6763 H   0  0  0  0  0  0  0  0  0  0  0  0
   -0.9926   -1.1073   -0.0085 C   0  0  1  0  0  0  0  0  0  0  0  0
   -0.4911   -1.1778    0.9617 H   0  0  0  0  0  0  0  0  0  0  0  0
    0.0242   -1.5317   -1.0921 C   0  0  0  0  0  0  0  0  0  0  0  0
    0.6544   -0.6834   -1.3777 H   0  0  0  0  0  0  0  0  0  0  0  0
    0.6857   -2.2792   -0.6435 H   0  0  0  0  0  0  0  0  0  0  0  0
   -0.5832   -2.1586   -2.3260 C   0  0  0  0  0  0  0  0  0  0  0  0
   -1.0889   -3.4339   -2.4242 C   0  0  0  0  0  0  0  0  0  0  0  0
   -1.0799   -4.1743   -1.6272 H   0  0  0  0  0  0  0  0  0  0  0  0
   -1.5934   -3.5945   -3.7122 N   0  0  0  0  0  0  0  0  0  0  0  0
   -2.0117   -4.4455   -4.0813 H   0  0  0  0  0  0  0  0  0  0  0  0
   -1.4385   -2.4237   -4.4367 C   0  0  0  0  0  0  0  0  0  0  0  0
   -1.7937   -2.0886   -5.7433 C   0  0  0  0  0  0  0  0  0  0  0  0
   -2.2747   -2.8189   -6.3840 H   0  0  0  0  0  0  0  0  0  0  0  0
   -1.5265   -0.7948   -6.2125 C   0  0  0  0  0  0  0  0  0  0  0  0
   -1.8007   -0.5177   -7.2258 H   0  0  0  0  0  0  0  0  0  0  0  0
   -0.9131    0.1461   -5.3710 C   0  0  0  0  0  0  0  0  0  0  0  0
   -0.7169    1.1509   -5.7322 H   0  0  0  0  0  0  0  0  0  0  0  0
   -0.5585   -0.2032   -4.0602 C   0  0  0  0  0  0  0  0  0  0  0  0
   -0.0975    0.5258   -3.4024 H   0  0  0  0  0  0  0  0  0  0  0  0
   -0.8187   -1.4989   -3.6033 C   0  0  0  0  0  0  0  0  0  0  0  0
   -1.3712    0.3763   -0.1923 C   0  0  0  0  0  0  0  0  0  0  0  0
   -2.2608    0.7022   -0.9693 O   0  0  0  0  0  0  0  0  0  0  0  0
   -0.7746    1.3492    0.5900 N   0  0  0  0  0  0  0  0  0  0  0  0
   -0.0922    1.0469    1.2793 H   0  0  0  0  0  0  0  0  0  0  0  0
   -1.1341    2.7607    0.5254 C   0  0  0  0  0  0  0  0  0  0  0  0
   -2.1936    2.8988    0.7661 H   0  0  0  0  0  0  0  0  0  0  0  0
   -0.5396    3.3352    1.2422 H   0  0  0  0  0  0  0  0  0  0  0  0
   -0.9451    3.1588   -0.4771 H   0  0  0  0  0  0  0  0  0  0  0  0
  1  2  1  0  0  0  0
  2  3  1  0  0  0  0
  2  4  1  0  0  0  0
  2  5  1  0  0  0  0
  5  6  2  0  0  0  0
  5  7  1  0  0  0  0
  7  8  1  0  0  0  0
  7  9  1  0  0  0  0
  9 10  1  0  0  0  0
  9 11  1  0  0  0  0
  9 29  1  0  0  0  0
 11 12  1  0  0  0  0
 11 13  1  0  0  0  0
 11 14  1  0  0  0  0
 14 15  2  0  0  0  0
 14 28  1  0  0  0  0
 15 16  1  0  0  0  0
 15 17  1  0  0  0  0
 17 18  1  0  0  0  0
 17 19  1  0  0  0  0
 19 20  1  0  0  0  0
 19 28  2  0  0  0  0
 20 21  1  0  0  0  0
 20 22  2  0  0  0  0
 22 23  1  0  0  0  0
 22 24  1  0  0  0  0
 24 25  1  0  0  0  0
 24 26  2  0  0  0  0
 26 27  1  0  0  0  0
 26 28  1  0  0  0  0
 29 30  2  0  0  0  0
 29 31  1  0  0  0  0
 31 32  1  0  0  0  0
 31 33  1  0  0  0  0
 33 34  1  0  0  0  0
 33 35  1  0  0  0  0
 33 36  1  0  0  0  0
M  END
$$$$

  -OEChem-03222214083D

 36 37  0     1  0  0  0  0  0999 V2000
   -3.8069   -4.4348    1.8062 H   0  0  0  0  0  0  0  0  0  0  0  0
   -3.7956   -3.6782    1.0164 C   0  0  0  0  0  0  0  0  0  0  0  0
   -4.5872   -2.9513    1.2145 H   0  0  0  0  0  0  0  0  0  0  0  0
   -3.9898   -4.1654    0.0579 H   0  0  0  0  0  0  0  0  0  0  0  0
   -2.4492   -2.9804    0.9794 C   0  0  0  0  0  0  0  0  0  0  0  0
   -1.5617   -3.3210    1.7445 O   0  0  0  0  0  0  0  0  0  0  0  0
   -2.2239   -1.9759    0.0648 N   0  0  0  0  0  0  0  0  0  0  0  0
   -3.0009   -1.6890   -0.5299 H   0  0  0  0  0  0  0  0  0  0  0  0
   -1.0079   -1.1511   -0.0054 C   0  0  1  0  0  0  0  0  0  0  0  0
   -0.4745   -1.2153    0.9484 H   0  0  0  0  0  0  0  0  0  0  0  0
   -0.0173   -1.5589   -1.1231 C   0  0  0  0  0  0  0  0  0  0  0  0
    0.5979   -0.6978   -1.4007 H   0  0  0  0  0  0  0  0  0  0  0  0
    0.6629   -2.3040   -0.6987 H   0  0  0  0  0  0  0  0  0  0  0  0
   -0.6154   -2.1784   -2.3685 C   0  0  0  0  0  0  0  0  0  0  0  0
   -1.3582   -3.3337   -2.4521 C   0  0  0  0  0  0  0  0  0  0  0  0
   -1.5868   -3.9934   -1.6187 H   0  0  0  0  0  0  0  0  0  0  0  0
   -1.7338   -3.5096   -3.7811 N   0  0  0  0  0  0  0  0  0  0  0  0
   -2.2746   -4.2913   -4.1440 H   0  0  0  0  0  0  0  0  0  0  0  0
   -1.2548   -2.4664   -4.5550 C   0  0  0  0  0  0  0  0  0  0  0  0
   -1.3776   -2.1958   -5.9179 C   0  0  0  0  0  0  0  0  0  0  0  0
   -1.9270   -2.8730   -6.5623 H   0  0  0  0  0  0  0  0  0  0  0  0
   -0.7860   -1.0371   -6.4397 C   0  0  0  0  0  0  0  0  0  0  0  0
   -0.8751   -0.8121   -7.4982 H   0  0  0  0  0  0  0  0  0  0  0  0
   -0.0838   -0.1648   -5.5943 C   0  0  0  0  0  0  0  0  0  0  0  0
    0.3683    0.7355   -5.9994 H   0  0  0  0  0  0  0  0  0  0  0  0
    0.0332   -0.4485   -4.2257 C   0  0  0  0  0  0  0  0  0  0  0  0
    0.5702    0.2298   -3.5716 H   0  0  0  0  0  0  0  0  0  0  0  0
   -0.5546   -1.6102   -3.7119 C   0  0  0  0  0  0  0  0  0  0  0  0
   -1.3997    0.3294   -0.1872 C   0  0  0  0  0  0  0  0  0  0  0  0
   -2.3432    0.6383   -0.9061 O   0  0  0  0  0  0  0  0  0  0  0  0
   -0.7762    1.3122    0.5606 N   0  0  0  0  0  0  0  0  0  0  0  0
   -0.0410    1.0242    1.1998 H   0  0  0  0  0  0  0  0  0  0  0  0
   -1.1402    2.7220    0.4918 C   0  0  0  0  0  0  0  0  0  0  0  0
   -2.1909    2.8625    0.7663 H   0  0  0  0  0  0  0  0  0  0  0  0
   -0.5226    3.3056    1.1811 H   0  0  0  0  0  0  0  0  0  0  0  0
   -0.9861    3.1067   -0.5218 H   0  0  0  0  0  0  0  0  0  0  0  0
  1  2  1  0  0  0  0
  2  3  1  0  0  0  0
  2  4  1  0  0  0  0
  2  5  1  0  0  0  0
  5  6  2  0  0  0  0
  5  7  1  0  0  0  0
  7  8  1  0  0  0  0
  7  9  1  0  0  0  0
  9 10  1  0  0  0  0
  9 11  1  0  0  0  0
  9 29  1  0  0  0  0
 11 12  1  0  0  0  0
 11 13  1  0  0  0  0
 11 14  1  0  0  0  0
 14 15  2  0  0  0  0
 14 28  1  0  0  0  0
 15 16  1  0  0  0  0
 15 17  1  0  0  0  0
 17 18  1  0  0  0  0
 17 19  1  0  0  0  0
 19 20  1  0  0  0  0
 19 28  2  0  0  0  0
 20 21  1  0  0  0  0
 20 22  2  0  0  0  0
 22 23  1  0  0  0  0
 22 24  1  0  0  0  0
 24 25  1  0  0  0  0
 24 26  2  0  0  0  0
 26 27  1  0  0  0  0
 26 28  1  0  0  0  0
 29 30  2  0  0  0  0
 29 31  1  0  0  0  0
 31 32  1  0  0  0  0
 31 33  1  0  0  0  0
 33 34  1  0  0  0  0
 33 35  1  0  0  0  0
 33 36  1  0  0  0  0
M  END
$$$$

  -OEChem-03222214083D

 36 37  0     1  0  0  0  0  0999 V2000
   -3.7930   -4.3634    1.9909 H   0  0  0  0  0  0  0  0  0  0  0  0
   -3.8070   -3.6229    1.1862 C   0  0  0  0  0  0  0  0  0  0  0  0
   -4.5586   -2.8645    1.4190 H   0  0  0  0  0  0  0  0  0  0  0  0
   -4.0789   -4.1215    0.2529 H   0  0  0  0  0  0  0  0  0  0  0  0
   -2.4426   -2.9745    1.0498 C   0  0  0  0  0  0  0  0  0  0  0  0
   -1.5185   -3.3370    1.7592 O   0  0  0  0  0  0  0  0  0  0  0  0
   -2.2488   -1.9800    0.1164 N   0  0  0  0  0  0  0  0  0  0  0  0
   -3.0649   -1.6391   -0.3912 H   0  0  0  0  0  0  0  0  0  0  0  0
   -1.0230   -1.1785   -0.0122 C   0  0  1  0  0  0  0  0  0  0  0  0
   -0.4523   -1.2419    0.9197 H   0  0  0  0  0  0  0  0  0  0  0  0
   -0.0733   -1.5891   -1.1668 C   0  0  0  0  0  0  0  0  0  0  0  0
    0.5279   -0.7199   -1.4476 H   0  0  0  0  0  0  0  0  0  0  0  0
    0.6229   -2.3321   -0.7653 H   0  0  0  0  0  0  0  0  0  0  0  0
   -0.6753   -2.2030   -2.4184 C   0  0  0  0  0  0  0  0  0  0  0  0
   -1.6365   -3.1829   -2.5325 C   0  0  0  0  0  0  0  0  0  0  0  0
   -2.0989   -3.7147   -1.7065 H   0  0  0  0  0  0  0  0  0  0  0  0
   -1.8874   -3.3928   -3.8857 N   0  0  0  0  0  0  0  0  0  0  0  0
   -2.5498   -4.0643   -4.2666 H   0  0  0  0  0  0  0  0  0  0  0  0
   -1.1004   -2.5539   -4.6534 C   0  0  0  0  0  0  0  0  0  0  0  0
   -0.9981   -2.3933   -6.0351 C   0  0  0  0  0  0  0  0  0  0  0  0
   -1.6085   -2.9921   -6.7016 H   0  0  0  0  0  0  0  0  0  0  0  0
   -0.0994   -1.4480   -6.5478 C   0  0  0  0  0  0  0  0  0  0  0  0
   -0.0101   -1.3103   -7.6212 H   0  0  0  0  0  0  0  0  0  0  0  0
    0.6840   -0.6789   -5.6747 C   0  0  0  0  0  0  0  0  0  0  0  0
    1.3791    0.0536   -6.0732 H   0  0  0  0  0  0  0  0  0  0  0  0
    0.5719   -0.8508   -4.2875 C   0  0  0  0  0  0  0  0  0  0  0  0
    1.1785   -0.2535   -3.6160 H   0  0  0  0  0  0  0  0  0  0  0  0
   -0.3285   -1.7958   -3.7800 C   0  0  0  0  0  0  0  0  0  0  0  0
   -1.4167    0.3033   -0.1836 C   0  0  0  0  0  0  0  0  0  0  0  0
   -2.4078    0.6073   -0.8386 O   0  0  0  0  0  0  0  0  0  0  0  0
   -0.7562    1.2884    0.5287 N   0  0  0  0  0  0  0  0  0  0  0  0
    0.0116    1.0031    1.1297 H   0  0  0  0  0  0  0  0  0  0  0  0
   -1.1411    2.6940    0.4957 C   0  0  0  0  0  0  0  0  0  0  0  0
   -2.1694    2.8191    0.8508 H   0  0  0  0  0  0  0  0  0  0  0  0
   -0.4794    3.2821    1.1390 H   0  0  0  0  0  0  0  0  0  0  0  0
   -1.0702    3.0863   -0.5243 H   0  0  0  0  0  0  0  0  0  0  0  0
  1  2  1  0  0  0  0
  2  3  1  0  0  0  0
  2  4  1  0  0  0  0
  2  5  1  0  0  0  0
  5  6  2  0  0  0  0
  5  7  1  0  0  0  0
  7  8  1  0  0  0  0
  7  9  1  0  0  0  0
  9 10  1  0  0  0  0
  9 11  1  0  0  0  0
  9 29  1  0  0  0  0
 11 12  1  0  0  0  0
 11 13  1  0  0  0  0
 11 14  1  0  0  0  0
 14 15  2  0  0  0  0
 14 28  1  0  0  0  0
 15 16  1  0  0  0  0
 15 17  1  0  0  0  0
 17 18  1  0  0  0  0
 17 19  1  0  0  0  0
 19 20  1  0  0  0  0
 19 28  2  0  0  0  0
 20 21  1  0  0  0  0
 20 22  2  0  0  0  0
 22 23  1  0  0  0  0
 22 24  1  0  0  0  0
 24 25  1  0  0  0  0
 24 26  2  0  0  0  0
 26 27  1  0  0  0  0
 26 28  1  0  0  0  0
 29 30  2  0  0  0  0
 29 31  1  0  0  0  0
 31 32  1  0  0  0  0
 31 33  1  0  0  0  0
 33 34  1  0  0  0  0
 33 35  1  0  0  0  0
 33 36  1  0  0  0  0
M  END
$$$$

  -OEChem-03222214083D

 36 37  0     1  0  0  0  0  0999 V2000
   -3.7743   -4.3017    2.1269 H   0  0  0  0  0  0  0  0  0  0  0  0
   -3.8070   -3.5917    1.2956 C   0  0  0  0  0  0  0  0  0  0  0  0
   -4.5363   -2.8116    1.5276 H   0  0  0  0  0  0  0  0  0  0  0  0
   -4.1228   -4.1202    0.3932 H   0  0  0  0  0  0  0  0  0  0  0  0
   -2.4379   -2.9748    1.0825 C   0  0  0  0  0  0  0  0  0  0  0  0
   -1.4863   -3.3577    1.7431 O   0  0  0  0  0  0  0  0  0  0  0  0
   -2.2756   -1.9742    0.1487 N   0  0  0  0  0  0  0  0  0  0  0  0
   -3.1160   -1.5917   -0.2836 H   0  0  0  0  0  0  0  0  0  0  0  0
   -1.0442   -1.1900   -0.0235 C   0  0  1  0  0  0  0  0  0  0  0  0
   -0.4399   -1.2687    0.8861 H   0  0  0  0  0  0  0  0  0  0  0  0
   -0.1384   -1.5993   -1.2148 C   0  0  0  0  0  0  0  0  0  0  0  0
    0.4490   -0.7233   -1.5050 H   0  0  0  0  0  0  0  0  0  0  0  0
    0.5721   -2.3431   -0.8408 H   0  0  0  0  0  0  0  0  0  0  0  0
   -0.7552   -2.1978   -2.4691 C   0  0  0  0  0  0  0  0  0  0  0  0
   -1.8896   -2.9617   -2.6460 C   0  0  0  0  0  0  0  0  0  0  0  0
   -2.5614   -3.3041   -1.8667 H   0  0  0  0  0  0  0  0  0  0  0  0
   -2.0195   -3.2446   -4.0031 N   0  0  0  0  0  0  0  0  0  0  0  0
   -2.7680   -3.7908   -4.4232 H   0  0  0  0  0  0  0  0  0  0  0  0
   -0.9788   -2.6763   -4.7129 C   0  0  0  0  0  0  0  0  0  0  0  0
   -0.6783   -2.6819   -6.0747 C   0  0  0  0  0  0  0  0  0  0  0  0
   -1.3255   -3.1974   -6.7751 H   0  0  0  0  0  0  0  0  0  0  0  0
    0.4685   -2.0135   -6.5236 C   0  0  0  0  0  0  0  0  0  0  0  0
    0.7146   -2.0081   -7.5812 H   0  0  0  0  0  0  0  0  0  0  0  0
    1.2987   -1.3517   -5.6068 C   0  0  0  0  0  0  0  0  0  0  0  0
    2.1881   -0.8358   -5.9560 H   0  0  0  0  0  0  0  0  0  0  0  0
    0.9838   -1.3528   -4.2400 C   0  0  0  0  0  0  0  0  0  0  0  0
    1.6283   -0.8408   -3.5339 H   0  0  0  0  0  0  0  0  0  0  0  0
   -0.1658   -2.0195   -3.7971 C   0  0  0  0  0  0  0  0  0  0  0  0
   -1.4265    0.2982   -0.1633 C   0  0  0  0  0  0  0  0  0  0  0  0
   -2.4440    0.6172   -0.7693 O   0  0  0  0  0  0  0  0  0  0  0  0
   -0.7250    1.2688    0.5298 N   0  0  0  0  0  0  0  0  0  0  0  0
    0.0679    0.9692    1.0902 H   0  0  0  0  0  0  0  0  0  0  0  0
   -1.0969    2.6786    0.5323 C   0  0  0  0  0  0  0  0  0  0  0  0
   -2.0991    2.8109    0.9533 H   0  0  0  0  0  0  0  0  0  0  0  0
   -0.3894    3.2548    1.1364 H   0  0  0  0  0  0  0  0  0  0  0  0
   -1.0869    3.0795   -0.4867 H   0  0  0  0  0  0  0  0  0  0  0  0
  1  2  1  0  0  0  0
  2  3  1  0  0  0  0
  2  4  1  0  0  0  0
  2  5  1  0  0  0  0
  5  6  2  0  0  0  0
  5  7  1  0  0  0  0
  7  8  1  0  0  0  0
  7  9  1  0  0  0  0
  9 10  1  0  0  0  0
  9 11  1  0  0  0  0
  9 29  1  0  0  0  0
 11 12  1  0  0  0  0
 11 13  1  0  0  0  0
 11 14  1  0  0  0  0
 14 15  2  0  0  0  0
 14 28  1  0  0  0  0
 15 16  1  0  0  0  0
 15 17  1  0  0  0  0
 17 18  1  0  0  0  0
 17 19  1  0  0  0  0
 19 20  1  0  0  0  0
 19 28  2  0  0  0  0
 20 21  1  0  0  0  0
 20 22  2  0  0  0  0
 22 23  1  0  0  0  0
 22 24  1  0  0  0  0
 24 25  1  0  0  0  0
 24 26  2  0  0  0  0
 26 27  1  0  0  0  0
 26 28  1  0  0  0  0
 29 30  2  0  0  0  0
 29 31  1  0  0  0  0
 31 32  1  0  0  0  0
 31 33  1  0  0  0  0
 33 34  1  0  0  0  0
 33 35  1  0  0  0  0
 33 36  1  0  0  0  0
M  END
$$$$

  -OEChem-03222214083D

 36 37  0     1  0  0  0  0  0999 V2000
   -3.7745   -4.2931    2.1182 H   0  0  0  0  0  0  0  0  0  0  0  0
   -3.8103   -3.5791    1.2906 C   0  0  0  0  0  0  0  0  0  0  0  0
   -4.5311   -2.7948    1.5341 H   0  0  0  0  0  0  0  0  0  0  0  0
   -4.1394   -4.1006    0.3886 H   0  0  0  0  0  0  0  0  0  0  0  0
   -2.4380   -2.9730    1.0658 C   0  0  0  0  0  0  0  0  0  0  0  0
   -1.4813   -3.3728    1.7090 O   0  0  0  0  0  0  0  0  0  0  0  0
   -2.2821   -1.9576    0.1468 N   0  0  0  0  0  0  0  0  0  0  0  0
   -3.1289   -1.5425   -0.2394 H   0  0  0  0  0  0  0  0  0  0  0  0
   -1.0443   -1.1860   -0.0325 C   0  0  1  0  0  0  0  0  0  0  0  0
   -0.4241   -1.2875    0.8639 H   0  0  0  0  0  0  0  0  0  0  0  0
   -0.1690   -1.5905   -1.2473 C   0  0  0  0  0  0  0  0  0  0  0  0
    0.4297   -0.7215   -1.5378 H   0  0  0  0  0  0  0  0  0  0  0  0
    0.5323   -2.3523   -0.8925 H   0  0  0  0  0  0  0  0  0  0  0  0
   -0.8038   -2.1602   -2.5058 C   0  0  0  0  0  0  0  0  0  0  0  0
   -2.0596   -2.6707   -2.7601 C   0  0  0  0  0  0  0  0  0  0  0  0
   -2.8781   -2.7551   -2.0548 H   0  0  0  0  0  0  0  0  0  0  0  0
   -2.1083   -3.0681   -4.0940 N   0  0  0  0  0  0  0  0  0  0  0  0
   -2.9174   -3.4723   -4.5596 H   0  0  0  0  0  0  0  0  0  0  0  0
   -0.8955   -2.8280   -4.7114 C   0  0  0  0  0  0  0  0  0  0  0  0
   -0.4590   -3.0538   -6.0169 C   0  0  0  0  0  0  0  0  0  0  0  0
   -1.1279   -3.4932   -6.7485 H   0  0  0  0  0  0  0  0  0  0  0  0
    0.8527   -2.7061   -6.3677 C   0  0  0  0  0  0  0  0  0  0  0  0
    1.2058   -2.8752   -7.3805 H   0  0  0  0  0  0  0  0  0  0  0  0
    1.7088   -2.1402   -5.4110 C   0  0  0  0  0  0  0  0  0  0  0  0
    2.7247   -1.8724   -5.6846 H   0  0  0  0  0  0  0  0  0  0  0  0
    1.2572   -1.9190   -4.1018 C   0  0  0  0  0  0  0  0  0  0  0  0
    1.9193   -1.4831   -3.3613 H   0  0  0  0  0  0  0  0  0  0  0  0
   -0.0553   -2.2659   -3.7584 C   0  0  0  0  0  0  0  0  0  0  0  0
   -1.4125    0.3080   -0.1383 C   0  0  0  0  0  0  0  0  0  0  0  0
   -2.4406    0.6459   -0.7162 O   0  0  0  0  0  0  0  0  0  0  0  0
   -0.6888    1.2582    0.5597 N   0  0  0  0  0  0  0  0  0  0  0  0
    0.1131    0.9407    1.0970 H   0  0  0  0  0  0  0  0  0  0  0  0
   -1.0558    2.6685    0.6070 C   0  0  0  0  0  0  0  0  0  0  0  0
   -2.0572    2.7902    1.0328 H   0  0  0  0  0  0  0  0  0  0  0  0
   -0.3473    3.2234    1.2293 H   0  0  0  0  0  0  0  0  0  0  0  0
   -1.0449    3.1015   -0.3987 H   0  0  0  0  0  0  0  0  0  0  0  0
  1  2  1  0  0  0  0
  2  3  1  0  0  0  0
  2  4  1  0  0  0  0
  2  5  1  0  0  0  0
  5  6  2  0  0  0  0
  5  7  1  0  0  0  0
  7  8  1  0  0  0  0
  7  9  1  0  0  0  0
  9 10  1  0  0  0  0
  9 11  1  0  0  0  0
  9 29  1  0  0  0  0
 11 12  1  0  0  0  0
 11 13  1  0  0  0  0
 11 14  1  0  0  0  0
 14 15  2  0  0  0  0
 14 28  1  0  0  0  0
 15 16  1  0  0  0  0
 15 17  1  0  0  0  0
 17 18  1  0  0  0  0
 17 19  1  0  0  0  0
 19 20  1  0  0  0  0
 19 28  2  0  0  0  0
 20 21  1  0  0  0  0
 20 22  2  0  0  0  0
 22 23  1  0  0  0  0
 22 24  1  0  0  0  0
 24 25  1  0  0  0  0
 24 26  2  0  0  0  0
 26 27  1  0  0  0  0
 26 28  1  0  0  0  0
 29 30  2  0  0  0  0
 29 31  1  0  0  0  0
 31 32  1  0  0  0  0
 31 33  1  0  0  0  0
 33 34  1  0  0  0  0
 33 35  1  0  0  0  0
 33 36  1  0  0  0  0
M  END
$$$$

  -OEChem-03222214083D

 36 37  0     1  0  0  0  0  0999 V2000
   -3.7927   -4.3599    1.9707 H   0  0  0  0  0  0  0  0  0  0  0  0
   -3.8229   -3.5921    1.1925 C   0  0  0  0  0  0  0  0  0  0  0  0
   -4.5438   -2.8242    1.4833 H   0  0  0  0  0  0  0  0  0  0  0  0
   -4.1470   -4.0529    0.2562 H   0  0  0  0  0  0  0  0  0  0  0  0
   -2.4491   -2.9744    1.0153 C   0  0  0  0  0  0  0  0  0  0  0  0
   -1.5090   -3.3731    1.6837 O   0  0  0  0  0  0  0  0  0  0  0  0
   -2.2740   -1.9465    0.1139 N   0  0  0  0  0  0  0  0  0  0  0  0
   -3.1132   -1.5262   -0.2805 H   0  0  0  0  0  0  0  0  0  0  0  0
   -1.0292   -1.1762   -0.0281 C   0  0  1  0  0  0  0  0  0  0  0  0
   -0.4212   -1.2949    0.8746 H   0  0  0  0  0  0  0  0  0  0  0  0
   -0.1470   -1.5704   -1.2396 C   0  0  0  0  0  0  0  0  0  0  0  0
    0.4761   -0.7130   -1.5137 H   0  0  0  0  0  0  0  0  0  0  0  0
    0.5298   -2.3547   -0.8855 H   0  0  0  0  0  0  0  0  0  0  0  0
   -0.7848   -2.1098   -2.5083 C   0  0  0  0  0  0  0  0  0  0  0  0
   -2.1001   -2.3440   -2.8485 C   0  0  0  0  0  0  0  0  0  0  0  0
   -2.9687   -2.1337   -2.2343 H   0  0  0  0  0  0  0  0  0  0  0  0
   -2.1305   -2.8673   -4.1390 N   0  0  0  0  0  0  0  0  0  0  0  0
   -2.9718   -3.1151   -4.6545 H   0  0  0  0  0  0  0  0  0  0  0  0
   -0.8472   -2.9826   -4.6408 C   0  0  0  0  0  0  0  0  0  0  0  0
   -0.3651   -3.4442   -5.8658 C   0  0  0  0  0  0  0  0  0  0  0  0
   -1.0531   -3.7949   -6.6270 H   0  0  0  0  0  0  0  0  0  0  0  0
    1.0175   -3.4494   -6.0973 C   0  0  0  0  0  0  0  0  0  0  0  0
    1.4073   -3.8066   -7.0457 H   0  0  0  0  0  0  0  0  0  0  0  0
    1.8982   -2.9950   -5.1039 C   0  0  0  0  0  0  0  0  0  0  0  0
    2.9688   -3.0033   -5.2840 H   0  0  0  0  0  0  0  0  0  0  0  0
    1.4004   -2.5302   -3.8780 C   0  0  0  0  0  0  0  0  0  0  0  0
    2.0788   -2.1783   -3.1082 H   0  0  0  0  0  0  0  0  0  0  0  0
    0.0188   -2.5258   -3.6552 C   0  0  0  0  0  0  0  0  0  0  0  0
   -1.3912    0.3197   -0.1195 C   0  0  0  0  0  0  0  0  0  0  0  0
   -2.4023    0.6655   -0.7229 O   0  0  0  0  0  0  0  0  0  0  0  0
   -0.6827    1.2606    0.6058 N   0  0  0  0  0  0  0  0  0  0  0  0
    0.1037    0.9351    1.1610 H   0  0  0  0  0  0  0  0  0  0  0  0
   -1.0487    2.6709    0.6604 C   0  0  0  0  0  0  0  0  0  0  0  0
   -2.0495    2.7908    1.0888 H   0  0  0  0  0  0  0  0  0  0  0  0
   -0.3380    3.2221    1.2836 H   0  0  0  0  0  0  0  0  0  0  0  0
   -1.0395    3.1090   -0.3433 H   0  0  0  0  0  0  0  0  0  0  0  0
  1  2  1  0  0  0  0
  2  3  1  0  0  0  0
  2  4  1  0  0  0  0
  2  5  1  0  0  0  0
  5  6  2  0  0  0  0
  5  7  1  0  0  0  0
  7  8  1  0  0  0  0
  7  9  1  0  0  0  0
  9 10  1  0  0  0  0
  9 11  1  0  0  0  0
  9 29  1  0  0  0  0
 11 12  1  0  0  0  0
 11 13  1  0  0  0  0
 11 14  1  0  0  0  0
 14 15  2  0  0  0  0
 14 28  1  0  0  0  0
 15 16  1  0  0  0  0
 15 17  1  0  0  0  0
 17 18  1  0  0  0  0
 17 19  1  0  0  0  0
 19 20  1  0  0  0  0
 19 28  2  0  0  0  0
 20 21  1  0  0  0  0
 20 22  2  0  0  0  0
 22 23  1  0  0  0  0
 22 24  1  0  0  0  0
 24 25  1  0  0  0  0
 24 26  2  0  0  0  0
 26 27  1  0  0  0  0
 26 28  1  0  0  0  0
 29 30  2  0  0  0  0
 29 31  1  0  0  0  0
 31 32  1  0  0  0  0
 31 33  1  0  0  0  0
 33 34  1  0  0  0  0
 33 35  1  0  0  0  0
 33 36  1  0  0  0  0
M  END
$$$$

  -OEChem-03222214083D

 36 37  0     1  0  0  0  0  0999 V2000
   -3.8059   -4.4378    1.7559 H   0  0  0  0  0  0  0  0  0  0  0  0
   -3.8022   -3.6595    0.9875 C   0  0  0  0  0  0  0  0  0  0  0  0
   -4.5843   -2.9323    1.2186 H   0  0  0  0  0  0  0  0  0  0  0  0
   -4.0153   -4.1196    0.0193 H   0  0  0  0  0  0  0  0  0  0  0  0
   -2.4496   -2.9743    0.9450 C   0  0  0  0  0  0  0  0  0  0  0  0
   -1.5559   -3.3368    1.6933 O   0  0  0  0  0  0  0  0  0  0  0  0
   -2.2398   -1.9333    0.0671 N   0  0  0  0  0  0  0  0  0  0  0  0
   -3.0513   -1.5659   -0.4230 H   0  0  0  0  0  0  0  0  0  0  0  0
   -0.9990   -1.1448   -0.0070 C   0  0  1  0  0  0  0  0  0  0  0  0
   -0.4232   -1.2713    0.9155 H   0  0  0  0  0  0  0  0  0  0  0  0
   -0.0808   -1.5270   -1.1947 C   0  0  0  0  0  0  0  0  0  0  0  0
    0.5605   -0.6770   -1.4499 H   0  0  0  0  0  0  0  0  0  0  0  0
    0.5752   -2.3222   -0.8267 H   0  0  0  0  0  0  0  0  0  0  0  0
   -0.7106   -2.0511   -2.4727 C   0  0  0  0  0  0  0  0  0  0  0  0
   -2.0194   -2.0079   -2.9018 C   0  0  0  0  0  0  0  0  0  0  0  0
   -2.8383   -1.5109   -2.3893 H   0  0  0  0  0  0  0  0  0  0  0  0
   -2.0975   -2.6646   -4.1275 N   0  0  0  0  0  0  0  0  0  0  0  0
   -2.9379   -2.7579   -4.6936 H   0  0  0  0  0  0  0  0  0  0  0  0
   -0.8518   -3.1400   -4.4964 C   0  0  0  0  0  0  0  0  0  0  0  0
   -0.4243   -3.8523   -5.6171 C   0  0  0  0  0  0  0  0  0  0  0  0
   -1.1311   -4.1274   -6.3921 H   0  0  0  0  0  0  0  0  0  0  0  0
    0.9275   -4.2076   -5.7257 C   0  0  0  0  0  0  0  0  0  0  0  0
    1.2742   -4.7633   -6.5919 H   0  0  0  0  0  0  0  0  0  0  0  0
    1.8325   -3.8458   -4.7162 C   0  0  0  0  0  0  0  0  0  0  0  0
    2.8789   -4.1226   -4.8017 H   0  0  0  0  0  0  0  0  0  0  0  0
    1.3902   -3.1282   -3.5951 C   0  0  0  0  0  0  0  0  0  0  0  0
    2.0874   -2.8470   -2.8128 H   0  0  0  0  0  0  0  0  0  0  0  0
    0.0393   -2.7781   -3.4932 C   0  0  0  0  0  0  0  0  0  0  0  0
   -1.3689    0.3488   -0.0992 C   0  0  0  0  0  0  0  0  0  0  0  0
   -2.3320    0.6961   -0.7765 O   0  0  0  0  0  0  0  0  0  0  0  0
   -0.7058    1.2886    0.6688 N   0  0  0  0  0  0  0  0  0  0  0  0
    0.0417    0.9615    1.2745 H   0  0  0  0  0  0  0  0  0  0  0  0
   -1.0707    2.6997    0.6984 C   0  0  0  0  0  0  0  0  0  0  0  0
   -2.1038    2.8217    1.0404 H   0  0  0  0  0  0  0  0  0  0  0  0
   -0.4140    3.2456    1.3827 H   0  0  0  0  0  0  0  0  0  0  0  0
   -0.9747    3.1416   -0.2990 H   0  0  0  0  0  0  0  0  0  0  0  0
  1  2  1  0  0  0  0
  2  3  1  0  0  0  0
  2  4  1  0  0  0  0
  2  5  1  0  0  0  0
  5  6  2  0  0  0  0
  5  7  1  0  0  0  0
  7  8  1  0  0  0  0
  7  9  1  0  0  0  0
  9 10  1  0  0  0  0
  9 11  1  0  0  0  0
  9 29  1  0  0  0  0
 11 12  1  0  0  0  0
 11 13  1  0  0  0  0
 11 14  1  0  0  0  0
 14 15  2  0  0  0  0
 14 28  1  0  0  0  0
 15 16  1  0  0  0  0
 15 17  1  0  0  0  0
 17 18  1  0  0  0  0
 17 19  1  0  0  0  0
 19 20  1  0  0  0  0
 19 28  2  0  0  0  0
 20 21  1  0  0  0  0
 20 22  2  0  0  0  0
 22 23  1  0  0  0  0
 22 24  1  0  0  0  0
 24 25  1  0  0  0  0
 24 26  2  0  0  0  0
 26 27  1  0  0  0  0
 26 28  1  0  0  0  0
 29 30  2  0  0  0  0
 29 31  1  0  0  0  0
 31 32  1  0  0  0  0
 31 33  1  0  0  0  0
 33 34  1  0  0  0  0
 33 35  1  0  0  0  0
 33 36  1  0  0  0  0
M  END
$$$$

  -OEChem-03222214083D

 36 37  0     1  0  0  0  0  0999 V2000
   -3.7491   -4.5602    1.5082 H   0  0  0  0  0  0  0  0  0  0  0  0
   -3.7224   -3.7739    0.7488 C   0  0  0  0  0  0  0  0  0  0  0  0
   -4.5926   -3.1267    0.8807 H   0  0  0  0  0  0  0  0  0  0  0  0
   -3.7671   -4.2378   -0.2395 H   0  0  0  0  0  0  0  0  0  0  0  0
   -2.4474   -2.9629    0.8802 C   0  0  0  0  0  0  0  0  0  0  0  0
   -1.6320   -3.2399    1.7457 O   0  0  0  0  0  0  0  0  0  0  0  0
   -2.2173   -1.9098    0.0218 N   0  0  0  0  0  0  0  0  0  0  0  0
   -2.9335   -1.7010   -0.6673 H   0  0  0  0  0  0  0  0  0  0  0  0
   -0.9930   -1.0912    0.0080 C   0  0  1  0  0  0  0  0  0  0  0  0
   -0.4519   -1.2184    0.9511 H   0  0  0  0  0  0  0  0  0  0  0  0
   -0.0352   -1.4797   -1.1442 C   0  0  0  0  0  0  0  0  0  0  0  0
    0.6084   -0.6317   -1.3998 H   0  0  0  0  0  0  0  0  0  0  0  0
    0.6149   -2.2655   -0.7476 H   0  0  0  0  0  0  0  0  0  0  0  0
   -0.6563   -2.0228   -2.4177 C   0  0  0  0  0  0  0  0  0  0  0  0
   -1.8895   -1.7378   -2.9628 C   0  0  0  0  0  0  0  0  0  0  0  0
   -2.6005   -1.0113   -2.5754 H   0  0  0  0  0  0  0  0  0  0  0  0
   -2.0424   -2.5093   -4.1117 N   0  0  0  0  0  0  0  0  0  0  0  0
   -2.8414   -2.4753   -4.7413 H   0  0  0  0  0  0  0  0  0  0  0  0
   -0.9203   -3.2937   -4.3158 C   0  0  0  0  0  0  0  0  0  0  0  0
   -0.6023   -4.2157   -5.3133 C   0  0  0  0  0  0  0  0  0  0  0  0
   -1.3051   -4.4197   -6.1134 H   0  0  0  0  0  0  0  0  0  0  0  0
    0.6349   -4.8732   -5.2660 C   0  0  0  0  0  0  0  0  0  0  0  0
    0.8958   -5.5939   -6.0351 H   0  0  0  0  0  0  0  0  0  0  0  0
    1.5366   -4.6009   -4.2259 C   0  0  0  0  0  0  0  0  0  0  0  0
    2.4945   -5.1110   -4.1917 H   0  0  0  0  0  0  0  0  0  0  0  0
    1.2054   -3.6720   -3.2290 C   0  0  0  0  0  0  0  0  0  0  0  0
    1.9014   -3.4602   -2.4243 H   0  0  0  0  0  0  0  0  0  0  0  0
   -0.0315   -3.0196   -3.2822 C   0  0  0  0  0  0  0  0  0  0  0  0
   -1.3566    0.4040   -0.0906 C   0  0  0  0  0  0  0  0  0  0  0  0
   -2.2543    0.7719   -0.8418 O   0  0  0  0  0  0  0  0  0  0  0  0
   -0.7260    1.3341    0.7156 N   0  0  0  0  0  0  0  0  0  0  0  0
   -0.0322    0.9928    1.3750 H   0  0  0  0  0  0  0  0  0  0  0  0
   -1.0623    2.7524    0.7161 C   0  0  0  0  0  0  0  0  0  0  0  0
   -2.1101    2.8979    0.9992 H   0  0  0  0  0  0  0  0  0  0  0  0
   -0.4329    3.2903    1.4317 H   0  0  0  0  0  0  0  0  0  0  0  0
   -0.9020    3.1839   -0.2776 H   0  0  0  0  0  0  0  0  0  0  0  0
  1  2  1  0  0  0  0
  2  3  1  0  0  0  0
  2  4  1  0  0  0  0
  2  5  1  0  0  0  0
  5  6  2  0  0  0  0
  5  7  1  0  0  0  0
  7  8  1  0  0  0  0
  7  9  1  0  0  0  0
  9 10  1  0  0  0  0
  9 11  1  0  0  0  0
  9 29  1  0  0  0  0
 11 12  1  0  0  0  0
 11 13  1  0  0  0  0
 11 14  1  0  0  0  0
 14 15  2  0  0  0  0
 14 28  1  0  0  0  0
 15 16  1  0  0  0  0
 15 17  1  0  0  0  0
 17 18  1  0  0  0  0
 17 19  1  0  0  0  0
 19 20  1  0  0  0  0
 19 28  2  0  0  0  0
 20 21  1  0  0  0  0
 20 22  2  0  0  0  0
 22 23  1  0  0  0  0
 22 24  1  0  0  0  0
 24 25  1  0  0  0  0
 24 26  2  0  0  0  0
 26 27  1  0  0  0  0
 26 28  1  0  0  0  0
 29 30  2  0  0  0  0
 29 31  1  0  0  0  0
 31 32  1  0  0  0  0
 31 33  1  0  0  0  0
 33 34  1  0  0  0  0
 33 35  1  0  0  0  0
 33 36  1  0  0  0  0
M  END
$$$$

  -OEChem-03222214083D

 36 37  0     1  0  0  0  0  0999 V2000
   -3.6382   -4.6681    1.2933 H   0  0  0  0  0  0  0  0  0  0  0  0
   -3.6124   -3.8680    0.5485 C   0  0  0  0  0  0  0  0  0  0  0  0
   -4.5448   -3.3015    0.6066 H   0  0  0  0  0  0  0  0  0  0  0  0
   -3.5252   -4.3145   -0.4452 H   0  0  0  0  0  0  0  0  0  0  0  0
   -2.4325   -2.9507    0.8067 C   0  0  0  0  0  0  0  0  0  0  0  0
   -1.6941   -3.1559    1.7576 O   0  0  0  0  0  0  0  0  0  0  0  0
   -2.1982   -1.8881   -0.0386 N   0  0  0  0  0  0  0  0  0  0  0  0
   -2.7958   -1.8101   -0.8570 H   0  0  0  0  0  0  0  0  0  0  0  0
   -0.9925   -1.0432    0.0005 C   0  0  1  0  0  0  0  0  0  0  0  0
   -0.4854   -1.1694    0.9621 H   0  0  0  0  0  0  0  0  0  0  0  0
    0.0037   -1.4444   -1.1121 C   0  0  0  0  0  0  0  0  0  0  0  0
    0.6403   -0.5933   -1.3748 H   0  0  0  0  0  0  0  0  0  0  0  0
    0.6572   -2.2115   -0.6871 H   0  0  0  0  0  0  0  0  0  0  0  0
   -0.6106   -2.0125   -2.3772 C   0  0  0  0  0  0  0  0  0  0  0  0
   -1.7001   -1.5294   -3.0690 C   0  0  0  0  0  0  0  0  0  0  0  0
   -2.2582   -0.6263   -2.8292 H   0  0  0  0  0  0  0  0  0  0  0  0
   -1.9451   -2.3890   -4.1359 N   0  0  0  0  0  0  0  0  0  0  0  0
   -2.6680   -2.2593   -4.8409 H   0  0  0  0  0  0  0  0  0  0  0  0
   -1.0247   -3.4229   -4.1418 C   0  0  0  0  0  0  0  0  0  0  0  0
   -0.8614   -4.5088   -5.0015 C   0  0  0  0  0  0  0  0  0  0  0  0
   -1.5315   -4.6456   -5.8426 H   0  0  0  0  0  0  0  0  0  0  0  0
    0.1791   -5.4171   -4.7638 C   0  0  0  0  0  0  0  0  0  0  0  0
    0.3193   -6.2668   -5.4255 H   0  0  0  0  0  0  0  0  0  0  0  0
    1.0397   -5.2296   -3.6715 C   0  0  0  0  0  0  0  0  0  0  0  0
    1.8450   -5.9348   -3.4891 H   0  0  0  0  0  0  0  0  0  0  0  0
    0.8653   -4.1334   -2.8143 C   0  0  0  0  0  0  0  0  0  0  0  0
    1.5317   -3.9887   -1.9707 H   0  0  0  0  0  0  0  0  0  0  0  0
   -0.1739   -3.2279   -3.0591 C   0  0  0  0  0  0  0  0  0  0  0  0
   -1.3490    0.4541   -0.1008 C   0  0  0  0  0  0  0  0  0  0  0  0
   -2.1926    0.8439   -0.9011 O   0  0  0  0  0  0  0  0  0  0  0  0
   -0.7460    1.3716    0.7408 N   0  0  0  0  0  0  0  0  0  0  0  0
   -0.1120    1.0133    1.4497 H   0  0  0  0  0  0  0  0  0  0  0  0
   -1.0737    2.7919    0.7442 C   0  0  0  0  0  0  0  0  0  0  0  0
   -2.1102    2.9449    1.0622 H   0  0  0  0  0  0  0  0  0  0  0  0
   -0.4157    3.3295    1.4336 H   0  0  0  0  0  0  0  0  0  0  0  0
   -0.9450    3.2180   -0.2564 H   0  0  0  0  0  0  0  0  0  0  0  0
  1  2  1  0  0  0  0
  2  3  1  0  0  0  0
  2  4  1  0  0  0  0
  2  5  1  0  0  0  0
  5  6  2  0  0  0  0
  5  7  1  0  0  0  0
  7  8  1  0  0  0  0
  7  9  1  0  0  0  0
  9 10  1  0  0  0  0
  9 11  1  0  0  0  0
  9 29  1  0  0  0  0
 11 12  1  0  0  0  0
 11 13  1  0  0  0  0
 11 14  1  0  0  0  0
 14 15  2  0  0  0  0
 14 28  1  0  0  0  0
 15 16  1  0  0  0  0
 15 17  1  0  0  0  0
 17 18  1  0  0  0  0
 17 19  1  0  0  0  0
 19 20  1  0  0  0  0
 19 28  2  0  0  0  0
 20 21  1  0  0  0  0
 20 22  2  0  0  0  0
 22 23  1  0  0  0  0
 22 24  1  0  0  0  0
 24 25  1  0  0  0  0
 24 26  2  0  0  0  0
 26 27  1  0  0  0  0
 26 28  1  0  0  0  0
 29 30  2  0  0  0  0
 29 31  1  0  0  0  0
 31 32  1  0  0  0  0
 31 33  1  0  0  0  0
 33 34  1  0  0  0  0
 33 35  1  0  0  0  0
 33 36  1  0  0  0  0
M  END
$$$$

  -OEChem-03222214083D

 36 37  0     1  0  0  0  0  0999 V2000
   -3.5197   -4.7520    1.1143 H   0  0  0  0  0  0  0  0  0  0  0  0
   -3.4674   -3.9592    0.3632 C   0  0  0  0  0  0  0  0  0  0  0  0
   -4.4303   -3.4443    0.3252 H   0  0  0  0  0  0  0  0  0  0  0  0
   -3.2630   -4.4096   -0.6115 H   0  0  0  0  0  0  0  0  0  0  0  0
   -2.3681   -2.9760    0.7157 C   0  0  0  0  0  0  0  0  0  0  0  0
   -1.6875   -3.1488    1.7152 O   0  0  0  0  0  0  0  0  0  0  0  0
   -2.1275   -1.9031   -0.1138 N   0  0  0  0  0  0  0  0  0  0  0  0
   -2.6458   -1.8783   -0.9893 H   0  0  0  0  0  0  0  0  0  0  0  0
   -0.9470   -1.0283   -0.0175 C   0  0  1  0  0  0  0  0  0  0  0  0
   -0.4714   -1.1505    0.9605 H   0  0  0  0  0  0  0  0  0  0  0  0
    0.0895   -1.4155   -1.0970 C   0  0  0  0  0  0  0  0  0  0  0  0
    0.7051   -0.5476   -1.3543 H   0  0  0  0  0  0  0  0  0  0  0  0
    0.7601   -2.1635   -0.6650 H   0  0  0  0  0  0  0  0  0  0  0  0
   -0.5173   -1.9894   -2.3613 C   0  0  0  0  0  0  0  0  0  0  0  0
   -1.4070   -1.3586   -3.2009 C   0  0  0  0  0  0  0  0  0  0  0  0
   -1.7528   -0.3307   -3.1023 H   0  0  0  0  0  0  0  0  0  0  0  0
   -1.7823   -2.2696   -4.1848 N   0  0  0  0  0  0  0  0  0  0  0  0
   -2.4126   -2.0696   -4.9592 H   0  0  0  0  0  0  0  0  0  0  0  0
   -1.1603   -3.4893   -3.9755 C   0  0  0  0  0  0  0  0  0  0  0  0
   -1.2287   -4.6966   -4.6709 C   0  0  0  0  0  0  0  0  0  0  0  0
   -1.8496   -4.7843   -5.5556 H   0  0  0  0  0  0  0  0  0  0  0  0
   -0.4868   -5.7932   -4.2096 C   0  0  0  0  0  0  0  0  0  0  0  0
   -0.5303   -6.7397   -4.7404 H   0  0  0  0  0  0  0  0  0  0  0  0
    0.3111   -5.6699   -3.0619 C   0  0  0  0  0  0  0  0  0  0  0  0
    0.8825   -6.5212   -2.7044 H   0  0  0  0  0  0  0  0  0  0  0  0
    0.3746   -4.4501   -2.3736 C   0  0  0  0  0  0  0  0  0  0  0  0
    0.9896   -4.3550   -1.4849 H   0  0  0  0  0  0  0  0  0  0  0  0
   -0.3644   -3.3585   -2.8426 C   0  0  0  0  0  0  0  0  0  0  0  0
   -1.3323    0.4614   -0.1257 C   0  0  0  0  0  0  0  0  0  0  0  0
   -2.1263    0.8445   -0.9781 O   0  0  0  0  0  0  0  0  0  0  0  0
   -0.7876    1.3857    0.7475 N   0  0  0  0  0  0  0  0  0  0  0  0
   -0.2045    1.0313    1.5006 H   0  0  0  0  0  0  0  0  0  0  0  0
   -1.1542    2.7966    0.7496 C   0  0  0  0  0  0  0  0  0  0  0  0
   -2.2149    2.9160    0.9943 H   0  0  0  0  0  0  0  0  0  0  0  0
   -0.5635    3.3392    1.4940 H   0  0  0  0  0  0  0  0  0  0  0  0
   -0.9654    3.2447   -0.2317 H   0  0  0  0  0  0  0  0  0  0  0  0
  1  2  1  0  0  0  0
  2  3  1  0  0  0  0
  2  4  1  0  0  0  0
  2  5  1  0  0  0  0
  5  6  2  0  0  0  0
  5  7  1  0  0  0  0
  7  8  1  0  0  0  0
  7  9  1  0  0  0  0
  9 10  1  0  0  0  0
  9 11  1  0  0  0  0
  9 29  1  0  0  0  0
 11 12  1  0  0  0  0
 11 13  1  0  0  0  0
 11 14  1  0  0  0  0
 14 15  2  0  0  0  0
 14 28  1  0  0  0  0
 15 16  1  0  0  0  0
 15 17  1  0  0  0  0
 17 18  1  0  0  0  0
 17 19  1  0  0  0  0
 19 20  1  0  0  0  0
 19 28  2  0  0  0  0
 20 21  1  0  0  0  0
 20 22  2  0  0  0  0
 22 23  1  0  0  0  0
 22 24  1  0  0  0  0
 24 25  1  0  0  0  0
 24 26  2  0  0  0  0
 26 27  1  0  0  0  0
 26 28  1  0  0  0  0
 29 30  2  0  0  0  0
 29 31  1  0  0  0  0
 31 32  1  0  0  0  0
 31 33  1  0  0  0  0
 33 34  1  0  0  0  0
 33 35  1  0  0  0  0
 33 36  1  0  0  0  0
M  END
$$$$

  -OEChem-03222214083D

 36 37  0     1  0  0  0  0  0999 V2000
   -3.5126   -4.7910    1.0994 H   0  0  0  0  0  0  0  0  0  0  0  0
   -3.4517   -4.0008    0.3461 C   0  0  0  0  0  0  0  0  0  0  0  0
   -4.4199   -3.4986    0.2823 H   0  0  0  0  0  0  0  0  0  0  0  0
   -3.2184   -4.4531   -0.6214 H   0  0  0  0  0  0  0  0  0  0  0  0
   -2.3732   -3.0020    0.7200 C   0  0  0  0  0  0  0  0  0  0  0  0
   -1.7183   -3.1592    1.7390 O   0  0  0  0  0  0  0  0  0  0  0  0
   -2.1104   -1.9415   -0.1182 N   0  0  0  0  0  0  0  0  0  0  0  0
   -2.5938   -1.9384   -1.0145 H   0  0  0  0  0  0  0  0  0  0  0  0
   -0.9378   -1.0584   -0.0005 C   0  0  1  0  0  0  0  0  0  0  0  0
   -0.4837   -1.1639    0.9896 H   0  0  0  0  0  0  0  0  0  0  0  0
    0.1228   -1.4417   -1.0576 C   0  0  0  0  0  0  0  0  0  0  0  0
    0.7282   -0.5655   -1.3123 H   0  0  0  0  0  0  0  0  0  0  0  0
    0.8007   -2.1823   -0.6235 H   0  0  0  0  0  0  0  0  0  0  0  0
   -0.4797   -2.0201   -2.3187 C   0  0  0  0  0  0  0  0  0  0  0  0
   -1.1269   -1.3115   -3.3024 C   0  0  0  0  0  0  0  0  0  0  0  0
   -1.2566   -0.2301   -3.3202 H   0  0  0  0  0  0  0  0  0  0  0  0
   -1.6030   -2.2278   -4.2378 N   0  0  0  0  0  0  0  0  0  0  0  0
   -2.1183   -1.9878   -5.0825 H   0  0  0  0  0  0  0  0  0  0  0  0
   -1.2878   -3.5209   -3.8524 C   0  0  0  0  0  0  0  0  0  0  0  0
   -1.5620   -4.7585   -4.4347 C   0  0  0  0  0  0  0  0  0  0  0  0
   -2.1074   -4.8134   -5.3703 H   0  0  0  0  0  0  0  0  0  0  0  0
   -1.1269   -5.9271   -3.7932 C   0  0  0  0  0  0  0  0  0  0  0  0
   -1.3335   -6.8975   -4.2349 H   0  0  0  0  0  0  0  0  0  0  0  0
   -0.4269   -5.8445   -2.5795 C   0  0  0  0  0  0  0  0  0  0  0  0
   -0.0932   -6.7506   -2.0826 H   0  0  0  0  0  0  0  0  0  0  0  0
   -0.1551   -4.5950   -2.0046 C   0  0  0  0  0  0  0  0  0  0  0  0
    0.3819   -4.5274   -1.0638 H   0  0  0  0  0  0  0  0  0  0  0  0
   -0.5872   -3.4345   -2.6549 C   0  0  0  0  0  0  0  0  0  0  0  0
   -1.3329    0.4254   -0.1468 C   0  0  0  0  0  0  0  0  0  0  0  0
   -2.0658    0.7932   -1.0589 O   0  0  0  0  0  0  0  0  0  0  0  0
   -0.8231    1.3689    0.7272 N   0  0  0  0  0  0  0  0  0  0  0  0
   -0.2798    1.0298    1.5163 H   0  0  0  0  0  0  0  0  0  0  0  0
   -1.1714    2.7834    0.6704 C   0  0  0  0  0  0  0  0  0  0  0  0
   -2.2435    2.9210    0.8459 H   0  0  0  0  0  0  0  0  0  0  0  0
   -0.6201    3.3389    1.4353 H   0  0  0  0  0  0  0  0  0  0  0  0
   -0.9177    3.2025   -0.3091 H   0  0  0  0  0  0  0  0  0  0  0  0
  1  2  1  0  0  0  0
  2  3  1  0  0  0  0
  2  4  1  0  0  0  0
  2  5  1  0  0  0  0
  5  6  2  0  0  0  0
  5  7  1  0  0  0  0
  7  8  1  0  0  0  0
  7  9  1  0  0  0  0
  9 10  1  0  0  0  0
  9 11  1  0  0  0  0
  9 29  1  0  0  0  0
 11 12  1  0  0  0  0
 11 13  1  0  0  0  0
 11 14  1  0  0  0  0
 14 15  2  0  0  0  0
 14 28  1  0  0  0  0
 15 16  1  0  0  0  0
 15 17  1  0  0  0  0
 17 18  1  0  0  0  0
 17 19  1  0  0  0  0
 19 20  1  0  0  0  0
 19 28  2  0  0  0  0
 20 21  1  0  0  0  0
 20 22  2  0  0  0  0
 22 23  1  0  0  0  0
 22 24  1  0  0  0  0
 24 25  1  0  0  0  0
 24 26  2  0  0  0  0
 26 27  1  0  0  0  0
 26 28  1  0  0  0  0
 29 30  2  0  0  0  0
 29 31  1  0  0  0  0
 31 32  1  0  0  0  0
 31 33  1  0  0  0  0
 33 34  1  0  0  0  0
 33 35  1  0  0  0  0
 33 36  1  0  0  0  0
M  END
$$$$

  -OEChem-03222214083D

 36 37  0     1  0  0  0  0  0999 V2000
   -3.6393   -4.7270    1.2438 H   0  0  0  0  0  0  0  0  0  0  0  0
   -3.5948   -3.9251    0.5021 C   0  0  0  0  0  0  0  0  0  0  0  0
   -4.5383   -3.3749    0.5185 H   0  0  0  0  0  0  0  0  0  0  0  0
   -3.4569   -4.3676   -0.4876 H   0  0  0  0  0  0  0  0  0  0  0  0
   -2.4442   -2.9872    0.8130 C   0  0  0  0  0  0  0  0  0  0  0  0
   -1.7570   -3.1680    1.8066 O   0  0  0  0  0  0  0  0  0  0  0  0
   -2.1583   -1.9520   -0.0490 N   0  0  0  0  0  0  0  0  0  0  0  0
   -2.6783   -1.9243   -0.9246 H   0  0  0  0  0  0  0  0  0  0  0  0
   -0.9660   -1.0925    0.0371 C   0  0  1  0  0  0  0  0  0  0  0  0
   -0.5030   -1.1860    1.0242 H   0  0  0  0  0  0  0  0  0  0  0  0
    0.0803   -1.4920   -1.0282 C   0  0  0  0  0  0  0  0  0  0  0  0
    0.6956   -0.6249   -1.2900 H   0  0  0  0  0  0  0  0  0  0  0  0
    0.7515   -2.2427   -0.6004 H   0  0  0  0  0  0  0  0  0  0  0  0
   -0.5399   -2.0686   -2.2791 C   0  0  0  0  0  0  0  0  0  0  0  0
   -0.9294   -1.3541   -3.3848 C   0  0  0  0  0  0  0  0  0  0  0  0
   -0.8542   -0.2733   -3.4947 H   0  0  0  0  0  0  0  0  0  0  0  0
   -1.4596   -2.2583   -4.3032 N   0  0  0  0  0  0  0  0  0  0  0  0
   -1.8384   -2.0114   -5.2151 H   0  0  0  0  0  0  0  0  0  0  0  0
   -1.4108   -3.5480   -3.7980 C   0  0  0  0  0  0  0  0  0  0  0  0
   -1.8173   -4.7734   -4.3262 C   0  0  0  0  0  0  0  0  0  0  0  0
   -2.2609   -4.8218   -5.3145 H   0  0  0  0  0  0  0  0  0  0  0  0
   -1.6437   -5.9380   -3.5643 C   0  0  0  0  0  0  0  0  0  0  0  0
   -1.9547   -6.8989   -3.9638 H   0  0  0  0  0  0  0  0  0  0  0  0
   -1.0654   -5.8643   -2.2875 C   0  0  0  0  0  0  0  0  0  0  0  0
   -0.9304   -6.7670   -1.6992 H   0  0  0  0  0  0  0  0  0  0  0  0
   -0.6579   -4.6279   -1.7675 C   0  0  0  0  0  0  0  0  0  0  0  0
   -0.2119   -4.5637   -0.7794 H   0  0  0  0  0  0  0  0  0  0  0  0
   -0.8379   -3.4723   -2.5343 C   0  0  0  0  0  0  0  0  0  0  0  0
   -1.3419    0.3924   -0.1437 C   0  0  0  0  0  0  0  0  0  0  0  0
   -2.0673    0.7467   -1.0671 O   0  0  0  0  0  0  0  0  0  0  0  0
   -0.8120    1.3521    0.7003 N   0  0  0  0  0  0  0  0  0  0  0  0
   -0.2564    1.0291    1.4874 H   0  0  0  0  0  0  0  0  0  0  0  0
   -1.1255    2.7720    0.5960 C   0  0  0  0  0  0  0  0  0  0  0  0
   -2.1963    2.9403    0.7517 H   0  0  0  0  0  0  0  0  0  0  0  0
   -0.5727    3.3378    1.3522 H   0  0  0  0  0  0  0  0  0  0  0  0
   -0.8476    3.1552   -0.3916 H   0  0  0  0  0  0  0  0  0  0  0  0
  1  2  1  0  0  0  0
  2  3  1  0  0  0  0
  2  4  1  0  0  0  0
  2  5  1  0  0  0  0
  5  6  2  0  0  0  0
  5  7  1  0  0  0  0
  7  8  1  0  0  0  0
  7  9  1  0  0  0  0
  9 10  1  0  0  0  0
  9 11  1  0  0  0  0
  9 29  1  0  0  0  0
 11 12  1  0  0  0  0
 11 13  1  0  0  0  0
 11 14  1  0  0  0  0
 14 15  2  0  0  0  0
 14 28  1  0  0  0  0
 15 16  1  0  0  0  0
 15 17  1  0  0  0  0
 17 18  1  0  0  0  0
 17 19  1  0  0  0  0
 19 20  1  0  0  0  0
 19 28  2  0  0  0  0
 20 21  1  0  0  0  0
 20 22  2  0  0  0  0
 22 23  1  0  0  0  0
 22 24  1  0  0  0  0
 24 25  1  0  0  0  0
 24 26  2  0  0  0  0
 26 27  1  0  0  0  0
 26 28  1  0  0  0  0
 29 30  2  0  0  0  0
 29 31  1  0  0  0  0
 31 32  1  0  0  0  0
 31 33  1  0  0  0  0
 33 34  1  0  0  0  0
 33 35  1  0  0  0  0
 33 36  1  0  0  0  0
M  END
$$$$

  -OEChem-03222214083D

 36 37  0     1  0  0  0  0  0999 V2000
   -3.8370   -4.5734    1.4185 H   0  0  0  0  0  0  0  0  0  0  0  0
   -3.7962   -3.7536    0.6962 C   0  0  0  0  0  0  0  0  0  0  0  0
   -4.6806   -3.1250    0.8231 H   0  0  0  0  0  0  0  0  0  0  0  0
   -3.7990   -4.1731   -0.3131 H   0  0  0  0  0  0  0  0  0  0  0  0
   -2.5425   -2.9270    0.9110 C   0  0  0  0  0  0  0  0  0  0  0  0
   -1.8036   -3.1654    1.8539 O   0  0  0  0  0  0  0  0  0  0  0  0
   -2.2341   -1.9157    0.0292 N   0  0  0  0  0  0  0  0  0  0  0  0
   -2.8256   -1.8184   -0.7944 H   0  0  0  0  0  0  0  0  0  0  0  0
   -1.0079   -1.1037    0.0630 C   0  0  1  0  0  0  0  0  0  0  0  0
   -0.5239   -1.1983    1.0397 H   0  0  0  0  0  0  0  0  0  0  0  0
    0.0084   -1.5284   -1.0242 C   0  0  0  0  0  0  0  0  0  0  0  0
    0.6440   -0.6778   -1.2918 H   0  0  0  0  0  0  0  0  0  0  0  0
    0.6643   -2.2974   -0.6047 H   0  0  0  0  0  0  0  0  0  0  0  0
   -0.6328   -2.0951   -2.2701 C   0  0  0  0  0  0  0  0  0  0  0  0
   -0.7572   -1.4419   -3.4717 C   0  0  0  0  0  0  0  0  0  0  0  0
   -0.4678   -0.4100   -3.6600 H   0  0  0  0  0  0  0  0  0  0  0  0
   -1.3443   -2.3253   -4.3753 N   0  0  0  0  0  0  0  0  0  0  0  0
   -1.5782   -2.1063   -5.3413 H   0  0  0  0  0  0  0  0  0  0  0  0
   -1.5475   -3.5602   -3.7814 C   0  0  0  0  0  0  0  0  0  0  0  0
   -2.0716   -4.7551   -4.2750 C   0  0  0  0  0  0  0  0  0  0  0  0
   -2.4260   -4.8146   -5.2981 H   0  0  0  0  0  0  0  0  0  0  0  0
   -2.1257   -5.8767   -3.4350 C   0  0  0  0  0  0  0  0  0  0  0  0
   -2.5296   -6.8138   -3.8069 H   0  0  0  0  0  0  0  0  0  0  0  0
   -1.6456   -5.7935   -2.1190 C   0  0  0  0  0  0  0  0  0  0  0  0
   -1.6750   -6.6664   -1.4739 H   0  0  0  0  0  0  0  0  0  0  0  0
   -1.1208   -4.5872   -1.6347 C   0  0  0  0  0  0  0  0  0  0  0  0
   -0.7375   -4.5210   -0.6208 H   0  0  0  0  0  0  0  0  0  0  0  0
   -1.0940   -3.4659   -2.4711 C   0  0  0  0  0  0  0  0  0  0  0  0
   -1.3478    0.3880   -0.1305 C   0  0  0  0  0  0  0  0  0  0  0  0
   -2.1129    0.7463   -1.0193 O   0  0  0  0  0  0  0  0  0  0  0  0
   -0.7622    1.3445    0.6795 N   0  0  0  0  0  0  0  0  0  0  0  0
   -0.1840    1.0174    1.4485 H   0  0  0  0  0  0  0  0  0  0  0  0
   -1.0610    2.7677    0.5797 C   0  0  0  0  0  0  0  0  0  0  0  0
   -2.1295    2.9473    0.7385 H   0  0  0  0  0  0  0  0  0  0  0  0
   -0.5007    3.3257    1.3362 H   0  0  0  0  0  0  0  0  0  0  0  0
   -0.7818    3.1492   -0.4080 H   0  0  0  0  0  0  0  0  0  0  0  0
  1  2  1  0  0  0  0
  2  3  1  0  0  0  0
  2  4  1  0  0  0  0
  2  5  1  0  0  0  0
  5  6  2  0  0  0  0
  5  7  1  0  0  0  0
  7  8  1  0  0  0  0
  7  9  1  0  0  0  0
  9 10  1  0  0  0  0
  9 11  1  0  0  0  0
  9 29  1  0  0  0  0
 11 12  1  0  0  0  0
 11 13  1  0  0  0  0
 11 14  1  0  0  0  0
 14 15  2  0  0  0  0
 14 28  1  0  0  0  0
 15 16  1  0  0  0  0
 15 17  1  0  0  0  0
 17 18  1  0  0  0  0
 17 19  1  0  0  0  0
 19 20  1  0  0  0  0
 19 28  2  0  0  0  0
 20 21  1  0  0  0  0
 20 22  2  0  0  0  0
 22 23  1  0  0  0  0
 22 24  1  0  0  0  0
 24 25  1  0  0  0  0
 24 26  2  0  0  0  0
 26 27  1  0  0  0  0
 26 28  1  0  0  0  0
 29 30  2  0  0  0  0
 29 31  1  0  0  0  0
 31 32  1  0  0  0  0
 31 33  1  0  0  0  0
 33 34  1  0  0  0  0
 33 35  1  0  0  0  0
 33 36  1  0  0  0  0
M  END
$$$$

  -OEChem-03222214083D

 36 37  0     1  0  0  0  0  0999 V2000
   -3.9892   -4.4165    1.6097 H   0  0  0  0  0  0  0  0  0  0  0  0
   -3.9710   -3.5575    0.9336 C   0  0  0  0  0  0  0  0  0  0  0  0
   -4.7838   -2.8781    1.2008 H   0  0  0  0  0  0  0  0  0  0  0  0
   -4.1245   -3.9113   -0.0889 H   0  0  0  0  0  0  0  0  0  0  0  0
   -2.6411   -2.8358    1.0418 C   0  0  0  0  0  0  0  0  0  0  0  0
   -1.8598   -3.1223    1.9356 O   0  0  0  0  0  0  0  0  0  0  0  0
   -2.3183   -1.8559    0.1298 N   0  0  0  0  0  0  0  0  0  0  0  0
   -2.9623   -1.7038   -0.6448 H   0  0  0  0  0  0  0  0  0  0  0  0
   -1.0555   -1.1033    0.0985 C   0  0  1  0  0  0  0  0  0  0  0  0
   -0.5401   -1.2015    1.0588 H   0  0  0  0  0  0  0  0  0  0  0  0
   -0.0822   -1.5465   -1.0237 C   0  0  0  0  0  0  0  0  0  0  0  0
    0.5825   -0.7177   -1.2892 H   0  0  0  0  0  0  0  0  0  0  0  0
    0.5505   -2.3435   -0.6206 H   0  0  0  0  0  0  0  0  0  0  0  0
   -0.7441   -2.0905   -2.2715 C   0  0  0  0  0  0  0  0  0  0  0  0
   -0.6037   -1.5386   -3.5225 C   0  0  0  0  0  0  0  0  0  0  0  0
   -0.1068   -0.5959   -3.7407 H   0  0  0  0  0  0  0  0  0  0  0  0
   -1.2401   -2.3727   -4.4373 N   0  0  0  0  0  0  0  0  0  0  0  0
   -1.3202   -2.1965   -5.4364 H   0  0  0  0  0  0  0  0  0  0  0  0
   -1.6944   -3.5168   -3.8061 C   0  0  0  0  0  0  0  0  0  0  0  0
   -2.3277   -4.6557   -4.3042 C   0  0  0  0  0  0  0  0  0  0  0  0
   -2.5865   -4.7217   -5.3551 H   0  0  0  0  0  0  0  0  0  0  0  0
   -2.6056   -5.7181   -3.4332 C   0  0  0  0  0  0  0  0  0  0  0  0
   -3.0954   -6.6128   -3.8065 H   0  0  0  0  0  0  0  0  0  0  0  0
   -2.2238   -5.6375   -2.0859 C   0  0  0  0  0  0  0  0  0  0  0  0
   -2.4090   -6.4731   -1.4178 H   0  0  0  0  0  0  0  0  0  0  0  0
   -1.5882   -4.4862   -1.6004 C   0  0  0  0  0  0  0  0  0  0  0  0
   -1.2579   -4.4396   -0.5681 H   0  0  0  0  0  0  0  0  0  0  0  0
   -1.3631   -3.4048   -2.4599 C   0  0  0  0  0  0  0  0  0  0  0  0
   -1.3555    0.3957   -0.1099 C   0  0  0  0  0  0  0  0  0  0  0  0
   -2.1711    0.7631   -0.9483 O   0  0  0  0  0  0  0  0  0  0  0  0
   -0.7044    1.3466    0.6555 N   0  0  0  0  0  0  0  0  0  0  0  0
   -0.0901    1.0146    1.3935 H   0  0  0  0  0  0  0  0  0  0  0  0
   -0.9724    2.7758    0.5527 C   0  0  0  0  0  0  0  0  0  0  0  0
   -2.0245    2.9853    0.7726 H   0  0  0  0  0  0  0  0  0  0  0  0
   -0.3534    3.3287    1.2659 H   0  0  0  0  0  0  0  0  0  0  0  0
   -0.7440    3.1375   -0.4554 H   0  0  0  0  0  0  0  0  0  0  0  0
  1  2  1  0  0  0  0
  2  3  1  0  0  0  0
  2  4  1  0  0  0  0
  2  5  1  0  0  0  0
  5  6  2  0  0  0  0
  5  7  1  0  0  0  0
  7  8  1  0  0  0  0
  7  9  1  0  0  0  0
  9 10  1  0  0  0  0
  9 11  1  0  0  0  0
  9 29  1  0  0  0  0
 11 12  1  0  0  0  0
 11 13  1  0  0  0  0
 11 14  1  0  0  0  0
 14 15  2  0  0  0  0
 14 28  1  0  0  0  0
 15 16  1  0  0  0  0
 15 17  1  0  0  0  0
 17 18  1  0  0  0  0
 17 19  1  0  0  0  0
 19 20  1  0  0  0  0
 19 28  2  0  0  0  0
 20 21  1  0  0  0  0
 20 22  2  0  0  0  0
 22 23  1  0  0  0  0
 22 24  1  0  0  0  0
 24 25  1  0  0  0  0
 24 26  2  0  0  0  0
 26 27  1  0  0  0  0
 26 28  1  0  0  0  0
 29 30  2  0  0  0  0
 29 31  1  0  0  0  0
 31 32  1  0  0  0  0
 31 33  1  0  0  0  0
 33 34  1  0  0  0  0
 33 35  1  0  0  0  0
 33 36  1  0  0  0  0
M  END
$$$$

  -OEChem-03222214083D

 36 37  0     1  0  0  0  0  0999 V2000
   -4.0408   -4.2479    1.9086 H   0  0  0  0  0  0  0  0  0  0  0  0
   -4.0323   -3.3879    1.2336 C   0  0  0  0  0  0  0  0  0  0  0  0
   -4.7606   -2.6536    1.5858 H   0  0  0  0  0  0  0  0  0  0  0  0
   -4.3200   -3.7225    0.2339 H   0  0  0  0  0  0  0  0  0  0  0  0
   -2.6490   -2.7656    1.1983 C   0  0  0  0  0  0  0  0  0  0  0  0
   -1.8021   -3.1092    2.0080 O   0  0  0  0  0  0  0  0  0  0  0  0
   -2.3538   -1.8050    0.2561 N   0  0  0  0  0  0  0  0  0  0  0  0
   -3.0739   -1.5706   -0.4260 H   0  0  0  0  0  0  0  0  0  0  0  0
   -1.0666   -1.1082    0.1284 C   0  0  1  0  0  0  0  0  0  0  0  0
   -0.4908   -1.2212    1.0521 H   0  0  0  0  0  0  0  0  0  0  0  0
   -0.1679   -1.5430   -1.0610 C   0  0  0  0  0  0  0  0  0  0  0  0
    0.5181   -0.7308   -1.3235 H   0  0  0  0  0  0  0  0  0  0  0  0
    0.4504   -2.3709   -0.6996 H   0  0  0  0  0  0  0  0  0  0  0  0
   -0.8617   -2.0488   -2.3119 C   0  0  0  0  0  0  0  0  0  0  0  0
   -0.4887   -1.6264   -3.5676 C   0  0  0  0  0  0  0  0  0  0  0  0
    0.2043   -0.8138   -3.7729 H   0  0  0  0  0  0  0  0  0  0  0  0
   -1.1856   -2.3701   -4.5128 N   0  0  0  0  0  0  0  0  0  0  0  0
   -1.1331   -2.2422   -5.5209 H   0  0  0  0  0  0  0  0  0  0  0  0
   -1.8819   -3.3860   -3.8898 C   0  0  0  0  0  0  0  0  0  0  0  0
   -2.6318   -4.4318   -4.4275 C   0  0  0  0  0  0  0  0  0  0  0  0
   -2.8037   -4.4882   -5.4967 H   0  0  0  0  0  0  0  0  0  0  0  0
   -3.1300   -5.4212   -3.5715 C   0  0  0  0  0  0  0  0  0  0  0  0
   -3.7107   -6.2458   -3.9735 H   0  0  0  0  0  0  0  0  0  0  0  0
   -2.8383   -5.3685   -2.2018 C   0  0  0  0  0  0  0  0  0  0  0  0
   -3.1795   -6.1622   -1.5441 H   0  0  0  0  0  0  0  0  0  0  0  0
   -2.0837   -4.3070   -1.6820 C   0  0  0  0  0  0  0  0  0  0  0  0
   -1.8016   -4.3127   -0.6375 H   0  0  0  0  0  0  0  0  0  0  0  0
   -1.6544   -3.2712   -2.5208 C   0  0  0  0  0  0  0  0  0  0  0  0
   -1.3441    0.3979   -0.0668 C   0  0  0  0  0  0  0  0  0  0  0  0
   -2.2295    0.7818   -0.8230 O   0  0  0  0  0  0  0  0  0  0  0  0
   -0.6141    1.3362    0.6411 N   0  0  0  0  0  0  0  0  0  0  0  0
    0.0478    0.9925    1.3311 H   0  0  0  0  0  0  0  0  0  0  0  0
   -0.8667    2.7699    0.5613 C   0  0  0  0  0  0  0  0  0  0  0  0
   -1.8813    3.0000    0.9030 H   0  0  0  0  0  0  0  0  0  0  0  0
   -0.1569    3.3145    1.1914 H   0  0  0  0  0  0  0  0  0  0  0  0
   -0.7534    3.1223   -0.4694 H   0  0  0  0  0  0  0  0  0  0  0  0
  1  2  1  0  0  0  0
  2  3  1  0  0  0  0
  2  4  1  0  0  0  0
  2  5  1  0  0  0  0
  5  6  2  0  0  0  0
  5  7  1  0  0  0  0
  7  8  1  0  0  0  0
  7  9  1  0  0  0  0
  9 10  1  0  0  0  0
  9 11  1  0  0  0  0
  9 29  1  0  0  0  0
 11 12  1  0  0  0  0
 11 13  1  0  0  0  0
 11 14  1  0  0  0  0
 14 15  2  0  0  0  0
 14 28  1  0  0  0  0
 15 16  1  0  0  0  0
 15 17  1  0  0  0  0
 17 18  1  0  0  0  0
 17 19  1  0  0  0  0
 19 20  1  0  0  0  0
 19 28  2  0  0  0  0
 20 21  1  0  0  0  0
 20 22  2  0  0  0  0
 22 23  1  0  0  0  0
 22 24  1  0  0  0  0
 24 25  1  0  0  0  0
 24 26  2  0  0  0  0
 26 27  1  0  0  0  0
 26 28  1  0  0  0  0
 29 30  2  0  0  0  0
 29 31  1  0  0  0  0
 31 32  1  0  0  0  0
 31 33  1  0  0  0  0
 33 34  1  0  0  0  0
 33 35  1  0  0  0  0
 33 36  1  0  0  0  0
M  END
$$$$

  -OEChem-03222214083D

 36 37  0     1  0  0  0  0  0999 V2000
   -4.0095   -3.3993    2.7428 H   0  0  0  0  0  0  0  0  0  0  0  0
   -3.8040   -3.4106    1.6693 C   0  0  0  0  0  0  0  0  0  0  0  0
   -4.5801   -2.8357    1.1578 H   0  0  0  0  0  0  0  0  0  0  0  0
   -3.8333   -4.4427    1.3115 H   0  0  0  0  0  0  0  0  0  0  0  0
   -2.4356   -2.8107    1.4025 C   0  0  0  0  0  0  0  0  0  0  0  0
   -1.4840   -3.1626    2.0809 O   0  0  0  0  0  0  0  0  0  0  0  0
   -2.2751   -1.8488    0.4259 N   0  0  0  0  0  0  0  0  0  0  0  0
   -3.0935   -1.5575   -0.1080 H   0  0  0  0  0  0  0  0  0  0  0  0
   -1.0198   -1.1406    0.1590 C   0  0  1  0  0  0  0  0  0  0  0  0
   -0.3527   -1.2366    1.0213 H   0  0  0  0  0  0  0  0  0  0  0  0
   -0.2183   -1.5366   -1.1107 C   0  0  0  0  0  0  0  0  0  0  0  0
    0.4405   -0.7050   -1.3840 H   0  0  0  0  0  0  0  0  0  0  0  0
    0.4357   -2.3546   -0.7922 H   0  0  0  0  0  0  0  0  0  0  0  0
   -0.9041   -2.0578   -2.3696 C   0  0  0  0  0  0  0  0  0  0  0  0
   -0.3004   -1.7830   -3.5778 C   0  0  0  0  0  0  0  0  0  0  0  0
    0.5732   -1.1489   -3.7092 H   0  0  0  0  0  0  0  0  0  0  0  0
   -1.0171   -2.3957   -4.5938 N   0  0  0  0  0  0  0  0  0  0  0  0
   -0.8136   -2.3267   -5.5883 H   0  0  0  0  0  0  0  0  0  0  0  0
   -2.0147   -3.1764   -4.0526 C   0  0  0  0  0  0  0  0  0  0  0  0
   -2.9198   -4.0159   -4.7009 C   0  0  0  0  0  0  0  0  0  0  0  0
   -2.9402   -4.0684   -5.7836 H   0  0  0  0  0  0  0  0  0  0  0  0
   -3.7826   -4.8046   -3.9346 C   0  0  0  0  0  0  0  0  0  0  0  0
   -4.4932   -5.4668   -4.4206 H   0  0  0  0  0  0  0  0  0  0  0  0
   -3.6973   -4.7644   -2.5384 C   0  0  0  0  0  0  0  0  0  0  0  0
   -4.3339   -5.4083   -1.9392 H   0  0  0  0  0  0  0  0  0  0  0  0
   -2.7766   -3.9127   -1.9113 C   0  0  0  0  0  0  0  0  0  0  0  0
   -2.6853   -3.9610   -0.8414 H   0  0  0  0  0  0  0  0  0  0  0  0
   -1.9555   -3.0598   -2.6621 C   0  0  0  0  0  0  0  0  0  0  0  0
   -1.3520    0.3588   -0.0015 C   0  0  0  0  0  0  0  0  0  0  0  0
   -2.3488    0.7186   -0.6183 O   0  0  0  0  0  0  0  0  0  0  0  0
   -0.5691    1.3140    0.6227 N   0  0  0  0  0  0  0  0  0  0  0  0
    0.1964    0.9872    1.2054 H   0  0  0  0  0  0  0  0  0  0  0  0
   -0.8690    2.7403    0.5886 C   0  0  0  0  0  0  0  0  0  0  0  0
   -1.8305    2.9416    1.0725 H   0  0  0  0  0  0  0  0  0  0  0  0
   -0.0916    3.3028    1.1146 H   0  0  0  0  0  0  0  0  0  0  0  0
   -0.9134    3.0980   -0.4454 H   0  0  0  0  0  0  0  0  0  0  0  0
  1  2  1  0  0  0  0
  2  3  1  0  0  0  0
  2  4  1  0  0  0  0
  2  5  1  0  0  0  0
  5  6  2  0  0  0  0
  5  7  1  0  0  0  0
  7  8  1  0  0  0  0
  7  9  1  0  0  0  0
  9 10  1  0  0  0  0
  9 11  1  0  0  0  0
  9 29  1  0  0  0  0
 11 12  1  0  0  0  0
 11 13  1  0  0  0  0
 11 14  1  0  0  0  0
 14 15  2  0  0  0  0
 14 28  1  0  0  0  0
 15 16  1  0  0  0  0
 15 17  1  0  0  0  0
 17 18  1  0  0  0  0
 17 19  1  0  0  0  0
 19 20  1  0  0  0  0
 19 28  2  0  0  0  0
 20 21  1  0  0  0  0
 20 22  2  0  0  0  0
 22 23  1  0  0  0  0
 22 24  1  0  0  0  0
 24 25  1  0  0  0  0
 24 26  2  0  0  0  0
 26 27  1  0  0  0  0
 26 28  1  0  0  0  0
 29 30  2  0  0  0  0
 29 31  1  0  0  0  0
 31 32  1  0  0  0  0
 31 33  1  0  0  0  0
 33 34  1  0  0  0  0
 33 35  1  0  0  0  0
 33 36  1  0  0  0  0
M  END
$$$$

  -OEChem-03222214083D

 36 37  0     1  0  0  0  0  0999 V2000
   -3.4909   -4.0881    2.7056 H   0  0  0  0  0  0  0  0  0  0  0  0
   -3.5660   -3.5305    1.7678 C   0  0  0  0  0  0  0  0  0  0  0  0
   -4.3491   -2.7752    1.8705 H   0  0  0  0  0  0  0  0  0  0  0  0
   -3.8377   -4.2229    0.9674 H   0  0  0  0  0  0  0  0  0  0  0  0
   -2.2397   -2.8664    1.4482 C   0  0  0  0  0  0  0  0  0  0  0  0
   -1.2375   -3.1842    2.0689 O   0  0  0  0  0  0  0  0  0  0  0  0
   -2.1749   -1.8859    0.4806 N   0  0  0  0  0  0  0  0  0  0  0  0
   -3.0458   -1.5657    0.0612 H   0  0  0  0  0  0  0  0  0  0  0  0
   -0.9761   -1.1178    0.1573 C   0  0  1  0  0  0  0  0  0  0  0  0
   -0.2706   -1.1821    0.9919 H   0  0  0  0  0  0  0  0  0  0  0  0
   -0.2235   -1.5546   -1.1213 C   0  0  0  0  0  0  0  0  0  0  0  0
    0.3784   -0.7036   -1.4588 H   0  0  0  0  0  0  0  0  0  0  0  0
    0.4837   -2.3171   -0.7784 H   0  0  0  0  0  0  0  0  0  0  0  0
   -0.8865   -2.1787   -2.3518 C   0  0  0  0  0  0  0  0  0  0  0  0
   -0.0969   -2.1900   -3.4821 C   0  0  0  0  0  0  0  0  0  0  0  0
    0.9184   -1.8041   -3.5385 H   0  0  0  0  0  0  0  0  0  0  0  0
   -0.7989   -2.7682   -4.5241 N   0  0  0  0  0  0  0  0  0  0  0  0
   -0.4548   -2.8967   -5.4731 H   0  0  0  0  0  0  0  0  0  0  0  0
   -2.0517   -3.1376   -4.0894 C   0  0  0  0  0  0  0  0  0  0  0  0
   -3.0632   -3.7460   -4.8312 C   0  0  0  0  0  0  0  0  0  0  0  0
   -2.9094   -3.9837   -5.8778 H   0  0  0  0  0  0  0  0  0  0  0  0
   -4.2756   -4.0439   -4.2078 C   0  0  0  0  0  0  0  0  0  0  0  0
   -5.0764   -4.5180   -4.7674 H   0  0  0  0  0  0  0  0  0  0  0  0
   -4.4513   -3.7245   -2.8589 C   0  0  0  0  0  0  0  0  0  0  0  0
   -5.3939   -3.9532   -2.3711 H   0  0  0  0  0  0  0  0  0  0  0  0
   -3.4209   -3.1084   -2.1335 C   0  0  0  0  0  0  0  0  0  0  0  0
   -3.6309   -2.8845   -1.1041 H   0  0  0  0  0  0  0  0  0  0  0  0
   -2.1856   -2.8009   -2.7362 C   0  0  0  0  0  0  0  0  0  0  0  0
   -1.3615    0.3703    0.0272 C   0  0  0  0  0  0  0  0  0  0  0  0
   -2.4173    0.6919   -0.5069 O   0  0  0  0  0  0  0  0  0  0  0  0
   -0.5814    1.3497    0.6161 N   0  0  0  0  0  0  0  0  0  0  0  0
    0.2413    1.0512    1.1321 H   0  0  0  0  0  0  0  0  0  0  0  0
   -0.9347    2.7642    0.6094 C   0  0  0  0  0  0  0  0  0  0  0  0
   -1.8770    2.9262    1.1432 H   0  0  0  0  0  0  0  0  0  0  0  0
   -0.1530    3.3520    1.1000 H   0  0  0  0  0  0  0  0  0  0  0  0
   -1.0447    3.1268   -0.4182 H   0  0  0  0  0  0  0  0  0  0  0  0
  1  2  1  0  0  0  0
  2  3  1  0  0  0  0
  2  4  1  0  0  0  0
  2  5  1  0  0  0  0
  5  6  2  0  0  0  0
  5  7  1  0  0  0  0
  7  8  1  0  0  0  0
  7  9  1  0  0  0  0
  9 10  1  0  0  0  0
  9 11  1  0  0  0  0
  9 29  1  0  0  0  0
 11 12  1  0  0  0  0
 11 13  1  0  0  0  0
 11 14  1  0  0  0  0
 14 15  2  0  0  0  0
 14 28  1  0  0  0  0
 15 16  1  0  0  0  0
 15 17  1  0  0  0  0
 17 18  1  0  0  0  0
 17 19  1  0  0  0  0
 19 20  1  0  0  0  0
 19 28  2  0  0  0  0
 20 21  1  0  0  0  0
 20 22  2  0  0  0  0
 22 23  1  0  0  0  0
 22 24  1  0  0  0  0
 24 25  1  0  0  0  0
 24 26  2  0  0  0  0
 26 27  1  0  0  0  0
 26 28  1  0  0  0  0
 29 30  2  0  0  0  0
 29 31  1  0  0  0  0
 31 32  1  0  0  0  0
 31 33  1  0  0  0  0
 33 34  1  0  0  0  0
 33 35  1  0  0  0  0
 33 36  1  0  0  0  0
M  END
$$$$

  -OEChem-03222214083D

 36 37  0     1  0  0  0  0  0999 V2000
   -3.3715   -4.6866    1.7893 H   0  0  0  0  0  0  0  0  0  0  0  0
   -3.4605   -3.9080    1.0267 C   0  0  0  0  0  0  0  0  0  0  0  0
   -4.4104   -3.3861    1.1648 H   0  0  0  0  0  0  0  0  0  0  0  0
   -3.4509   -4.3774    0.0399 H   0  0  0  0  0  0  0  0  0  0  0  0
   -2.3093   -2.9275    1.1427 C   0  0  0  0  0  0  0  0  0  0  0  0
   -1.4514   -3.0892    1.9967 O   0  0  0  0  0  0  0  0  0  0  0  0
   -2.2274   -1.8718    0.2610 N   0  0  0  0  0  0  0  0  0  0  0  0
   -2.8764   -1.8928   -0.5198 H   0  0  0  0  0  0  0  0  0  0  0  0
   -1.0514   -1.0029    0.1150 C   0  0  1  0  0  0  0  0  0  0  0  0
   -0.4225   -1.1121    1.0040 H   0  0  0  0  0  0  0  0  0  0  0  0
   -0.2070   -1.4671   -1.0842 C   0  0  0  0  0  0  0  0  0  0  0  0
    0.5514   -0.7023   -1.2805 H   0  0  0  0  0  0  0  0  0  0  0  0
    0.3263   -2.3659   -0.7573 H   0  0  0  0  0  0  0  0  0  0  0  0
   -0.8714   -1.8192   -2.4104 C   0  0  0  0  0  0  0  0  0  0  0  0
   -0.0482   -2.2313   -3.4336 C   0  0  0  0  0  0  0  0  0  0  0  0
    1.0311   -2.3466   -3.3605 H   0  0  0  0  0  0  0  0  0  0  0  0
   -0.8259   -2.5090   -4.5465 N   0  0  0  0  0  0  0  0  0  0  0  0
   -0.4786   -2.8363   -5.4455 H   0  0  0  0  0  0  0  0  0  0  0  0
   -2.1478   -2.2225   -4.2779 C   0  0  0  0  0  0  0  0  0  0  0  0
   -3.2481   -2.3283   -5.1274 C   0  0  0  0  0  0  0  0  0  0  0  0
   -3.1282   -2.7056   -6.1368 H   0  0  0  0  0  0  0  0  0  0  0  0
   -4.5038   -1.9267   -4.6651 C   0  0  0  0  0  0  0  0  0  0  0  0
   -5.3727   -1.9967   -5.3130 H   0  0  0  0  0  0  0  0  0  0  0  0
   -4.6303   -1.4053   -3.3732 C   0  0  0  0  0  0  0  0  0  0  0  0
   -5.5977   -1.0580   -3.0226 H   0  0  0  0  0  0  0  0  0  0  0  0
   -3.5115   -1.3050   -2.5347 C   0  0  0  0  0  0  0  0  0  0  0  0
   -3.6626   -0.8450   -1.5684 H   0  0  0  0  0  0  0  0  0  0  0  0
   -2.2461   -1.7474   -2.9668 C   0  0  0  0  0  0  0  0  0  0  0  0
   -1.3745    0.5064    0.0451 C   0  0  0  0  0  0  0  0  0  0  0  0
   -2.3325    0.9357   -0.5833 O   0  0  0  0  0  0  0  0  0  0  0  0
   -0.6206    1.4014    0.7844 N   0  0  0  0  0  0  0  0  0  0  0  0
    0.1133    1.0218    1.3753 H   0  0  0  0  0  0  0  0  0  0  0  0
   -0.9100    2.8290    0.8514 C   0  0  0  0  0  0  0  0  0  0  0  0
   -1.9113    2.9991    1.2614 H   0  0  0  0  0  0  0  0  0  0  0  0
   -0.1824    3.3325    1.4951 H   0  0  0  0  0  0  0  0  0  0  0  0
   -0.8565    3.2775   -0.1463 H   0  0  0  0  0  0  0  0  0  0  0  0
  1  2  1  0  0  0  0
  2  3  1  0  0  0  0
  2  4  1  0  0  0  0
  2  5  1  0  0  0  0
  5  6  2  0  0  0  0
  5  7  1  0  0  0  0
  7  8  1  0  0  0  0
  7  9  1  0  0  0  0
  9 10  1  0  0  0  0
  9 11  1  0  0  0  0
  9 29  1  0  0  0  0
 11 12  1  0  0  0  0
 11 13  1  0  0  0  0
 11 14  1  0  0  0  0
 14 15  2  0  0  0  0
 14 28  1  0  0  0  0
 15 16  1  0  0  0  0
 15 17  1  0  0  0  0
 17 18  1  0  0  0  0
 17 19  1  0  0  0  0
 19 20  1  0  0  0  0
 19 28  2  0  0  0  0
 20 21  1  0  0  0  0
 20 22  2  0  0  0  0
 22 23  1  0  0  0  0
 22 24  1  0  0  0  0
 24 25  1  0  0  0  0
 24 26  2  0  0  0  0
 26 27  1  0  0  0  0
 26 28  1  0  0  0  0
 29 30  2  0  0  0  0
 29 31  1  0  0  0  0
 31 32  1  0  0  0  0
 31 33  1  0  0  0  0
 33 34  1  0  0  0  0
 33 35  1  0  0  0  0
 33 36  1  0  0  0  0
M  END
$$$$

  -OEChem-03222214083D

 36 37  0     1  0  0  0  0  0999 V2000
   -3.5148   -4.6148    1.5449 H   0  0  0  0  0  0  0  0  0  0  0  0
   -3.5795   -3.7926    0.8271 C   0  0  0  0  0  0  0  0  0  0  0  0
   -4.4943   -3.2271    1.0199 H   0  0  0  0  0  0  0  0  0  0  0  0
   -3.6223   -4.2076   -0.1830 H   0  0  0  0  0  0  0  0  0  0  0  0
   -2.3718   -2.8850    0.9607 C   0  0  0  0  0  0  0  0  0  0  0  0
   -1.4849   -3.1588    1.7546 O   0  0  0  0  0  0  0  0  0  0  0  0
   -2.2757   -1.7656    0.1629 N   0  0  0  0  0  0  0  0  0  0  0  0
   -2.9761   -1.6705   -0.5677 H   0  0  0  0  0  0  0  0  0  0  0  0
   -1.0857   -0.9080    0.0572 C   0  0  1  0  0  0  0  0  0  0  0  0
   -0.4807   -1.0864    0.9513 H   0  0  0  0  0  0  0  0  0  0  0  0
   -0.2079   -1.3494   -1.1277 C   0  0  0  0  0  0  0  0  0  0  0  0
    0.5429   -0.5712   -1.2986 H   0  0  0  0  0  0  0  0  0  0  0  0
    0.3315   -2.2460   -0.8043 H   0  0  0  0  0  0  0  0  0  0  0  0
   -0.8471   -1.6725   -2.4721 C   0  0  0  0  0  0  0  0  0  0  0  0
   -0.0852   -2.3552   -3.3935 C   0  0  0  0  0  0  0  0  0  0  0  0
    0.9487   -2.6612   -3.2475 H   0  0  0  0  0  0  0  0  0  0  0  0
   -0.8584   -2.5971   -4.5184 N   0  0  0  0  0  0  0  0  0  0  0  0
   -0.5476   -3.0807   -5.3583 H   0  0  0  0  0  0  0  0  0  0  0  0
   -2.1242   -2.0797   -4.3385 C   0  0  0  0  0  0  0  0  0  0  0  0
   -3.2122   -2.1089   -5.2099 C   0  0  0  0  0  0  0  0  0  0  0  0
   -3.1256   -2.5872   -6.1791 H   0  0  0  0  0  0  0  0  0  0  0  0
   -4.4133   -1.5116   -4.8178 C   0  0  0  0  0  0  0  0  0  0  0  0
   -5.2710   -1.5210   -5.4838 H   0  0  0  0  0  0  0  0  0  0  0  0
   -4.5027   -0.8939   -3.5656 C   0  0  0  0  0  0  0  0  0  0  0  0
   -5.4303   -0.4181   -3.2611 H   0  0  0  0  0  0  0  0  0  0  0  0
   -3.3974   -0.8751   -2.7034 C   0  0  0  0  0  0  0  0  0  0  0  0
   -3.5139   -0.3753   -1.7542 H   0  0  0  0  0  0  0  0  0  0  0  0
   -2.1844   -1.4781   -3.0789 C   0  0  0  0  0  0  0  0  0  0  0  0
   -1.3332    0.6177    0.1021 C   0  0  0  0  0  0  0  0  0  0  0  0
   -2.2972    1.1418   -0.4369 O   0  0  0  0  0  0  0  0  0  0  0  0
   -0.5178    1.4137    0.8888 N   0  0  0  0  0  0  0  0  0  0  0  0
    0.2161    0.9538    1.4196 H   0  0  0  0  0  0  0  0  0  0  0  0
   -0.7399    2.8407    1.0899 C   0  0  0  0  0  0  0  0  0  0  0  0
   -1.7154    3.0154    1.5558 H   0  0  0  0  0  0  0  0  0  0  0  0
    0.0343    3.2549    1.7427 H   0  0  0  0  0  0  0  0  0  0  0  0
   -0.7054    3.3727    0.1333 H   0  0  0  0  0  0  0  0  0  0  0  0
  1  2  1  0  0  0  0
  2  3  1  0  0  0  0
  2  4  1  0  0  0  0
  2  5  1  0  0  0  0
  5  6  2  0  0  0  0
  5  7  1  0  0  0  0
  7  8  1  0  0  0  0
  7  9  1  0  0  0  0
  9 10  1  0  0  0  0
  9 11  1  0  0  0  0
  9 29  1  0  0  0  0
 11 12  1  0  0  0  0
 11 13  1  0  0  0  0
 11 14  1  0  0  0  0
 14 15  2  0  0  0  0
 14 28  1  0  0  0  0
 15 16  1  0  0  0  0
 15 17  1  0  0  0  0
 17 18  1  0  0  0  0
 17 19  1  0  0  0  0
 19 20  1  0  0  0  0
 19 28  2  0  0  0  0
 20 21  1  0  0  0  0
 20 22  2  0  0  0  0
 22 23  1  0  0  0  0
 22 24  1  0  0  0  0
 24 25  1  0  0  0  0
 24 26  2  0  0  0  0
 26 27  1  0  0  0  0
 26 28  1  0  0  0  0
 29 30  2  0  0  0  0
 29 31  1  0  0  0  0
 31 32  1  0  0  0  0
 31 33  1  0  0  0  0
 33 34  1  0  0  0  0
 33 35  1  0  0  0  0
 33 36  1  0  0  0  0
M  END
$$$$

  -OEChem-03222214083D

 36 37  0     1  0  0  0  0  0999 V2000
   -3.3723   -4.5943    1.5320 H   0  0  0  0  0  0  0  0  0  0  0  0
   -3.5127   -3.7335    0.8723 C   0  0  0  0  0  0  0  0  0  0  0  0
   -4.3707   -3.1557    1.2242 H   0  0  0  0  0  0  0  0  0  0  0  0
   -3.7141   -4.0937   -0.1396 H   0  0  0  0  0  0  0  0  0  0  0  0
   -2.2687   -2.8659    0.8730 C   0  0  0  0  0  0  0  0  0  0  0  0
   -1.2872   -3.2066    1.5156 O   0  0  0  0  0  0  0  0  0  0  0  0
   -2.2463   -1.7066    0.1283 N   0  0  0  0  0  0  0  0  0  0  0  0
   -3.0649   -1.5019   -0.4399 H   0  0  0  0  0  0  0  0  0  0  0  0
   -1.0852   -0.8178   -0.0243 C   0  0  1  0  0  0  0  0  0  0  0  0
   -0.4601   -1.0022    0.8550 H   0  0  0  0  0  0  0  0  0  0  0  0
   -0.1954   -1.2476   -1.2066 C   0  0  0  0  0  0  0  0  0  0  0  0
    0.5096   -0.4340   -1.4044 H   0  0  0  0  0  0  0  0  0  0  0  0
    0.3955   -2.1048   -0.8658 H   0  0  0  0  0  0  0  0  0  0  0  0
   -0.8315   -1.6277   -2.5366 C   0  0  0  0  0  0  0  0  0  0  0  0
   -0.1829   -2.5561   -3.3206 C   0  0  0  0  0  0  0  0  0  0  0  0
    0.7616   -3.0355   -3.0717 H   0  0  0  0  0  0  0  0  0  0  0  0
   -0.9372   -2.7821   -4.4619 N   0  0  0  0  0  0  0  0  0  0  0  0
   -0.6953   -3.4235   -5.2142 H   0  0  0  0  0  0  0  0  0  0  0  0
   -2.0789   -2.0092   -4.4296 C   0  0  0  0  0  0  0  0  0  0  0  0
   -3.1122   -1.9270   -5.3621 C   0  0  0  0  0  0  0  0  0  0  0  0
   -3.0838   -2.5236   -6.2672 H   0  0  0  0  0  0  0  0  0  0  0  0
   -4.1835   -1.0638   -5.1138 C   0  0  0  0  0  0  0  0  0  0  0  0
   -4.9979   -0.9848   -5.8279 H   0  0  0  0  0  0  0  0  0  0  0  0
   -4.1987   -0.2984   -3.9420 C   0  0  0  0  0  0  0  0  0  0  0  0
   -5.0243    0.3794   -3.7463 H   0  0  0  0  0  0  0  0  0  0  0  0
   -3.1486   -0.3956   -3.0180 C   0  0  0  0  0  0  0  0  0  0  0  0
   -3.1927    0.2153   -2.1332 H   0  0  0  0  0  0  0  0  0  0  0  0
   -2.0705   -1.2600   -3.2507 C   0  0  0  0  0  0  0  0  0  0  0  0
   -1.3533    0.6987    0.1119 C   0  0  0  0  0  0  0  0  0  0  0  0
   -2.4334    1.1907   -0.1833 O   0  0  0  0  0  0  0  0  0  0  0  0
   -0.4900    1.4711    0.8717 N   0  0  0  0  0  0  0  0  0  0  0  0
    0.3357    1.0158    1.2498 H   0  0  0  0  0  0  0  0  0  0  0  0
   -0.7695    2.8489    1.2613 C   0  0  0  0  0  0  0  0  0  0  0  0
   -1.6812    2.9001    1.8660 H   0  0  0  0  0  0  0  0  0  0  0  0
    0.0597    3.2499    1.8520 H   0  0  0  0  0  0  0  0  0  0  0  0
   -0.8983    3.4796    0.3754 H   0  0  0  0  0  0  0  0  0  0  0  0
  1  2  1  0  0  0  0
  2  3  1  0  0  0  0
  2  4  1  0  0  0  0
  2  5  1  0  0  0  0
  5  6  2  0  0  0  0
  5  7  1  0  0  0  0
  7  8  1  0  0  0  0
  7  9  1  0  0  0  0
  9 10  1  0  0  0  0
  9 11  1  0  0  0  0
  9 29  1  0  0  0  0
 11 12  1  0  0  0  0
 11 13  1  0  0  0  0
 11 14  1  0  0  0  0
 14 15  2  0  0  0  0
 14 28  1  0  0  0  0
 15 16  1  0  0  0  0
 15 17  1  0  0  0  0
 17 18  1  0  0  0  0
 17 19  1  0  0  0  0
 19 20  1  0  0  0  0
 19 28  2  0  0  0  0
 20 21  1  0  0  0  0
 20 22  2  0  0  0  0
 22 23  1  0  0  0  0
 22 24  1  0  0  0  0
 24 25  1  0  0  0  0
 24 26  2  0  0  0  0
 26 27  1  0  0  0  0
 26 28  1  0  0  0  0
 29 30  2  0  0  0  0
 29 31  1  0  0  0  0
 31 32  1  0  0  0  0
 31 33  1  0  0  0  0
 33 34  1  0  0  0  0
 33 35  1  0  0  0  0
 33 36  1  0  0  0  0
M  END
$$$$

  -OEChem-03222214083D

 36 37  0     1  0  0  0  0  0999 V2000
   -3.4696   -4.5696    1.6824 H   0  0  0  0  0  0  0  0  0  0  0  0
   -3.5846   -3.7234    0.9995 C   0  0  0  0  0  0  0  0  0  0  0  0
   -4.3812   -3.0754    1.3727 H   0  0  0  0  0  0  0  0  0  0  0  0
   -3.8640   -4.1009    0.0128 H   0  0  0  0  0  0  0  0  0  0  0  0
   -2.2861   -2.9449    0.9062 C   0  0  0  0  0  0  0  0  0  0  0  0
   -1.2972   -3.3260    1.5137 O   0  0  0  0  0  0  0  0  0  0  0  0
   -2.2264   -1.8113    0.1268 N   0  0  0  0  0  0  0  0  0  0  0  0
   -3.0752   -1.5259   -0.3584 H   0  0  0  0  0  0  0  0  0  0  0  0
   -1.0518   -0.9405   -0.0247 C   0  0  1  0  0  0  0  0  0  0  0  0
   -0.4268   -1.0989    0.8601 H   0  0  0  0  0  0  0  0  0  0  0  0
   -0.1732   -1.3975   -1.2082 C   0  0  0  0  0  0  0  0  0  0  0  0
    0.5479   -0.6029   -1.4239 H   0  0  0  0  0  0  0  0  0  0  0  0
    0.4007   -2.2685   -0.8739 H   0  0  0  0  0  0  0  0  0  0  0  0
   -0.8715   -1.7564   -2.5083 C   0  0  0  0  0  0  0  0  0  0  0  0
   -0.5135   -2.9010   -3.1845 C   0  0  0  0  0  0  0  0  0  0  0  0
    0.2071   -3.6366   -2.8328 H   0  0  0  0  0  0  0  0  0  0  0  0
   -1.2486   -2.9689   -4.3601 N   0  0  0  0  0  0  0  0  0  0  0  0
   -1.1947   -3.7156   -5.0496 H   0  0  0  0  0  0  0  0  0  0  0  0
   -2.0224   -1.8340   -4.4963 C   0  0  0  0  0  0  0  0  0  0  0  0
   -2.8719   -1.4552   -5.5354 C   0  0  0  0  0  0  0  0  0  0  0  0
   -3.0306   -2.1140   -6.3819 H   0  0  0  0  0  0  0  0  0  0  0  0
   -3.5034   -0.2082   -5.4760 C   0  0  0  0  0  0  0  0  0  0  0  0
   -4.1679    0.1063   -6.2754 H   0  0  0  0  0  0  0  0  0  0  0  0
   -3.2566    0.6439   -4.3921 C   0  0  0  0  0  0  0  0  0  0  0  0
   -3.7253    1.6226   -4.3516 H   0  0  0  0  0  0  0  0  0  0  0  0
   -2.3965    0.2459   -3.3587 C   0  0  0  0  0  0  0  0  0  0  0  0
   -2.1914    0.9429   -2.5605 H   0  0  0  0  0  0  0  0  0  0  0  0
   -1.7967   -1.0199   -3.3856 C   0  0  0  0  0  0  0  0  0  0  0  0
   -1.3917    0.5610    0.0670 C   0  0  0  0  0  0  0  0  0  0  0  0
   -2.5137    0.9615   -0.2202 O   0  0  0  0  0  0  0  0  0  0  0  0
   -0.5900    1.3944    0.8287 N   0  0  0  0  0  0  0  0  0  0  0  0
    0.2620    0.9985    1.2152 H   0  0  0  0  0  0  0  0  0  0  0  0
   -0.9801    2.7403    1.2322 C   0  0  0  0  0  0  0  0  0  0  0  0
   -1.8443    2.7030    1.9035 H   0  0  0  0  0  0  0  0  0  0  0  0
   -0.1545    3.2311    1.7564 H   0  0  0  0  0  0  0  0  0  0  0  0
   -1.2389    3.3449    0.3566 H   0  0  0  0  0  0  0  0  0  0  0  0
  1  2  1  0  0  0  0
  2  3  1  0  0  0  0
  2  4  1  0  0  0  0
  2  5  1  0  0  0  0
  5  6  2  0  0  0  0
  5  7  1  0  0  0  0
  7  8  1  0  0  0  0
  7  9  1  0  0  0  0
  9 10  1  0  0  0  0
  9 11  1  0  0  0  0
  9 29  1  0  0  0  0
 11 12  1  0  0  0  0
 11 13  1  0  0  0  0
 11 14  1  0  0  0  0
 14 15  2  0  0  0  0
 14 28  1  0  0  0  0
 15 16  1  0  0  0  0
 15 17  1  0  0  0  0
 17 18  1  0  0  0  0
 17 19  1  0  0  0  0
 19 20  1  0  0  0  0
 19 28  2  0  0  0  0
 20 21  1  0  0  0  0
 20 22  2  0  0  0  0
 22 23  1  0  0  0  0
 22 24  1  0  0  0  0
 24 25  1  0  0  0  0
 24 26  2  0  0  0  0
 26 27  1  0  0  0  0
 26 28  1  0  0  0  0
 29 30  2  0  0  0  0
 29 31  1  0  0  0  0
 31 32  1  0  0  0  0
 31 33  1  0  0  0  0
 33 34  1  0  0  0  0
 33 35  1  0  0  0  0
 33 36  1  0  0  0  0
M  END
$$$$

  -OEChem-03222214083D

 36 37  0     1  0  0  0  0  0999 V2000
   -3.5278   -4.6118    1.6058 H   0  0  0  0  0  0  0  0  0  0  0  0
   -3.6041   -3.7845    0.8950 C   0  0  0  0  0  0  0  0  0  0  0  0
   -4.4370   -3.1417    1.1900 H   0  0  0  0  0  0  0  0  0  0  0  0
   -3.8007   -4.1904   -0.1001 H   0  0  0  0  0  0  0  0  0  0  0  0
   -2.3148   -2.9860    0.8800 C   0  0  0  0  0  0  0  0  0  0  0  0
   -1.3677   -3.3368    1.5668 O   0  0  0  0  0  0  0  0  0  0  0  0
   -2.2094   -1.8763    0.0721 N   0  0  0  0  0  0  0  0  0  0  0  0
   -3.0232   -1.6111   -0.4808 H   0  0  0  0  0  0  0  0  0  0  0  0
   -1.0375   -0.9929   -0.0120 C   0  0  1  0  0  0  0  0  0  0  0  0
   -0.4498   -1.1248    0.9022 H   0  0  0  0  0  0  0  0  0  0  0  0
   -0.1169   -1.4259   -1.1719 C   0  0  0  0  0  0  0  0  0  0  0  0
    0.6205   -0.6385   -1.3560 H   0  0  0  0  0  0  0  0  0  0  0  0
    0.4343   -2.3136   -0.8452 H   0  0  0  0  0  0  0  0  0  0  0  0
   -0.8128   -1.7492   -2.4775 C   0  0  0  0  0  0  0  0  0  0  0  0
   -0.7307   -2.9912   -3.0636 C   0  0  0  0  0  0  0  0  0  0  0  0
   -0.2380   -3.8584   -2.6292 H   0  0  0  0  0  0  0  0  0  0  0  0
   -1.3946   -2.9419   -4.2838 N   0  0  0  0  0  0  0  0  0  0  0  0
   -1.4955   -3.7185   -4.9336 H   0  0  0  0  0  0  0  0  0  0  0  0
   -1.8423   -1.6569   -4.5274 C   0  0  0  0  0  0  0  0  0  0  0  0
   -2.5093   -1.1252   -5.6306 C   0  0  0  0  0  0  0  0  0  0  0  0
   -2.7850   -1.7627   -6.4629 H   0  0  0  0  0  0  0  0  0  0  0  0
   -2.8077    0.2424   -5.6515 C   0  0  0  0  0  0  0  0  0  0  0  0
   -3.3290    0.6730   -6.5010 H   0  0  0  0  0  0  0  0  0  0  0  0
   -2.4203    1.0577   -4.5792 C   0  0  0  0  0  0  0  0  0  0  0  0
   -2.6402    2.1207   -4.5974 H   0  0  0  0  0  0  0  0  0  0  0  0
   -1.7471    0.5082   -3.4790 C   0  0  0  0  0  0  0  0  0  0  0  0
   -1.4341    1.1567   -2.6705 H   0  0  0  0  0  0  0  0  0  0  0  0
   -1.4791   -0.8657   -3.4395 C   0  0  0  0  0  0  0  0  0  0  0  0
   -1.4357    0.4966    0.0076 C   0  0  0  0  0  0  0  0  0  0  0  0
   -2.5111    0.8606   -0.4540 O   0  0  0  0  0  0  0  0  0  0  0  0
   -0.7345    1.3860    0.8035 N   0  0  0  0  0  0  0  0  0  0  0  0
    0.0744    1.0293    1.3040 H   0  0  0  0  0  0  0  0  0  0  0  0
   -1.1809    2.7480    1.0734 C   0  0  0  0  0  0  0  0  0  0  0  0
   -2.1425    2.7396    1.5972 H   0  0  0  0  0  0  0  0  0  0  0  0
   -0.4498    3.2681    1.6998 H   0  0  0  0  0  0  0  0  0  0  0  0
   -1.2934    3.3081    0.1392 H   0  0  0  0  0  0  0  0  0  0  0  0
  1  2  1  0  0  0  0
  2  3  1  0  0  0  0
  2  4  1  0  0  0  0
  2  5  1  0  0  0  0
  5  6  2  0  0  0  0
  5  7  1  0  0  0  0
  7  8  1  0  0  0  0
  7  9  1  0  0  0  0
  9 10  1  0  0  0  0
  9 11  1  0  0  0  0
  9 29  1  0  0  0  0
 11 12  1  0  0  0  0
 11 13  1  0  0  0  0
 11 14  1  0  0  0  0
 14 15  2  0  0  0  0
 14 28  1  0  0  0  0
 15 16  1  0  0  0  0
 15 17  1  0  0  0  0
 17 18  1  0  0  0  0
 17 19  1  0  0  0  0
 19 20  1  0  0  0  0
 19 28  2  0  0  0  0
 20 21  1  0  0  0  0
 20 22  2  0  0  0  0
 22 23  1  0  0  0  0
 22 24  1  0  0  0  0
 24 25  1  0  0  0  0
 24 26  2  0  0  0  0
 26 27  1  0  0  0  0
 26 28  1  0  0  0  0
 29 30  2  0  0  0  0
 29 31  1  0  0  0  0
 31 32  1  0  0  0  0
 31 33  1  0  0  0  0
 33 34  1  0  0  0  0
 33 35  1  0  0  0  0
 33 36  1  0  0  0  0
M  END
$$$$

  -OEChem-03222214083D

 36 37  0     1  0  0  0  0  0999 V2000
   -3.6274   -4.5843    1.5422 H   0  0  0  0  0  0  0  0  0  0  0  0
   -3.6601   -3.7669    0.8166 C   0  0  0  0  0  0  0  0  0  0  0  0
   -4.4996   -3.1116    1.0612 H   0  0  0  0  0  0  0  0  0  0  0  0
   -3.8130   -4.1861   -0.1809 H   0  0  0  0  0  0  0  0  0  0  0  0
   -2.3632   -2.9811    0.8542 C   0  0  0  0  0  0  0  0  0  0  0  0
   -1.4640   -3.3173    1.6089 O   0  0  0  0  0  0  0  0  0  0  0  0
   -2.1949   -1.9006    0.0180 N   0  0  0  0  0  0  0  0  0  0  0  0
   -2.9715   -1.6421   -0.5893 H   0  0  0  0  0  0  0  0  0  0  0  0
   -1.0128   -1.0267   -0.0176 C   0  0  1  0  0  0  0  0  0  0  0  0
   -0.4664   -1.1413    0.9238 H   0  0  0  0  0  0  0  0  0  0  0  0
   -0.0488   -1.4498   -1.1431 C   0  0  0  0  0  0  0  0  0  0  0  0
    0.7095   -0.6749   -1.2927 H   0  0  0  0  0  0  0  0  0  0  0  0
    0.4739   -2.3533   -0.8130 H   0  0  0  0  0  0  0  0  0  0  0  0
   -0.7223   -1.7468   -2.4624 C   0  0  0  0  0  0  0  0  0  0  0  0
   -0.9182   -3.0162   -2.9518 C   0  0  0  0  0  0  0  0  0  0  0  0
   -0.6517   -3.9358   -2.4352 H   0  0  0  0  0  0  0  0  0  0  0  0
   -1.5083   -2.9049   -4.2071 N   0  0  0  0  0  0  0  0  0  0  0  0
   -1.7613   -3.6833   -4.8118 H   0  0  0  0  0  0  0  0  0  0  0  0
   -1.6593   -1.5713   -4.5473 C   0  0  0  0  0  0  0  0  0  0  0  0
   -2.1680   -0.9712   -5.6990 C   0  0  0  0  0  0  0  0  0  0  0  0
   -2.5459   -1.5805   -6.5122 H   0  0  0  0  0  0  0  0  0  0  0  0
   -2.1807    0.4269   -5.7909 C   0  0  0  0  0  0  0  0  0  0  0  0
   -2.5748    0.9097   -6.6802 H   0  0  0  0  0  0  0  0  0  0  0  0
   -1.6827    1.2035   -4.7344 C   0  0  0  0  0  0  0  0  0  0  0  0
   -1.6940    2.2869   -4.8041 H   0  0  0  0  0  0  0  0  0  0  0  0
   -1.1733    0.5869   -3.5827 C   0  0  0  0  0  0  0  0  0  0  0  0
   -0.7912    1.1919   -2.7682 H   0  0  0  0  0  0  0  0  0  0  0  0
   -1.1719   -0.8095   -3.4894 C   0  0  0  0  0  0  0  0  0  0  0  0
   -1.4116    0.4613   -0.0755 C   0  0  0  0  0  0  0  0  0  0  0  0
   -2.4195    0.8161   -0.6752 O   0  0  0  0  0  0  0  0  0  0  0  0
   -0.7679    1.3809    0.7338 N   0  0  0  0  0  0  0  0  0  0  0  0
   -0.0126    1.0419    1.3227 H   0  0  0  0  0  0  0  0  0  0  0  0
   -1.2003    2.7662    0.8727 C   0  0  0  0  0  0  0  0  0  0  0  0
   -2.2094    2.8118    1.2957 H   0  0  0  0  0  0  0  0  0  0  0  0
   -0.5212    3.3091    1.5371 H   0  0  0  0  0  0  0  0  0  0  0  0
   -1.2033    3.2670   -0.1012 H   0  0  0  0  0  0  0  0  0  0  0  0
  1  2  1  0  0  0  0
  2  3  1  0  0  0  0
  2  4  1  0  0  0  0
  2  5  1  0  0  0  0
  5  6  2  0  0  0  0
  5  7  1  0  0  0  0
  7  8  1  0  0  0  0
  7  9  1  0  0  0  0
  9 10  1  0  0  0  0
  9 11  1  0  0  0  0
  9 29  1  0  0  0  0
 11 12  1  0  0  0  0
 11 13  1  0  0  0  0
 11 14  1  0  0  0  0
 14 15  2  0  0  0  0
 14 28  1  0  0  0  0
 15 16  1  0  0  0  0
 15 17  1  0  0  0  0
 17 18  1  0  0  0  0
 17 19  1  0  0  0  0
 19 20  1  0  0  0  0
 19 28  2  0  0  0  0
 20 21  1  0  0  0  0
 20 22  2  0  0  0  0
 22 23  1  0  0  0  0
 22 24  1  0  0  0  0
 24 25  1  0  0  0  0
 24 26  2  0  0  0  0
 26 27  1  0  0  0  0
 26 28  1  0  0  0  0
 29 30  2  0  0  0  0
 29 31  1  0  0  0  0
 31 32  1  0  0  0  0
 31 33  1  0  0  0  0
 33 34  1  0  0  0  0
 33 35  1  0  0  0  0
 33 36  1  0  0  0  0
M  END
$$$$

  -OEChem-03222214083D

 36 37  0     1  0  0  0  0  0999 V2000
   -3.7136   -4.5318    1.5579 H   0  0  0  0  0  0  0  0  0  0  0  0
   -3.7068   -3.7433    0.8000 C   0  0  0  0  0  0  0  0  0  0  0  0
   -4.5419   -3.0646    0.9900 H   0  0  0  0  0  0  0  0  0  0  0  0
   -3.8340   -4.1988   -0.1847 H   0  0  0  0  0  0  0  0  0  0  0  0
   -2.3977   -2.9788    0.8505 C   0  0  0  0  0  0  0  0  0  0  0  0
   -1.5286   -3.3033    1.6441 O   0  0  0  0  0  0  0  0  0  0  0  0
   -2.1860   -1.9285   -0.0142 N   0  0  0  0  0  0  0  0  0  0  0  0
   -2.9423   -1.6701   -0.6469 H   0  0  0  0  0  0  0  0  0  0  0  0
   -0.9960   -1.0647   -0.0267 C   0  0  1  0  0  0  0  0  0  0  0  0
   -0.4792   -1.1586    0.9335 H   0  0  0  0  0  0  0  0  0  0  0  0
    0.0001   -1.4846   -1.1245 C   0  0  0  0  0  0  0  0  0  0  0  0
    0.7709   -0.7177   -1.2480 H   0  0  0  0  0  0  0  0  0  0  0  0
    0.5039   -2.3958   -0.7863 H   0  0  0  0  0  0  0  0  0  0  0  0
   -0.6423   -1.7745   -2.4592 C   0  0  0  0  0  0  0  0  0  0  0  0
   -1.1071   -3.0012   -2.8686 C   0  0  0  0  0  0  0  0  0  0  0  0
   -1.0725   -3.9144   -2.2786 H   0  0  0  0  0  0  0  0  0  0  0  0
   -1.6068   -2.8558   -4.1606 N   0  0  0  0  0  0  0  0  0  0  0  0
   -2.0079   -3.6007   -4.7258 H   0  0  0  0  0  0  0  0  0  0  0  0
   -1.4664   -1.5444   -4.5856 C   0  0  0  0  0  0  0  0  0  0  0  0
   -1.8065   -0.9174   -5.7846 C   0  0  0  0  0  0  0  0  0  0  0  0
   -2.2670   -1.4832   -6.5866 H   0  0  0  0  0  0  0  0  0  0  0  0
   -1.5472    0.4520   -5.9369 C   0  0  0  0  0  0  0  0  0  0  0  0
   -1.8092    0.9548   -6.8630 H   0  0  0  0  0  0  0  0  0  0  0  0
   -0.9553    1.1759   -4.8908 C   0  0  0  0  0  0  0  0  0  0  0  0
   -0.7638    2.2381   -5.0061 H   0  0  0  0  0  0  0  0  0  0  0  0
   -0.6158    0.5341   -3.6913 C   0  0  0  0  0  0  0  0  0  0  0  0
   -0.1695    1.0939   -2.8765 H   0  0  0  0  0  0  0  0  0  0  0  0
   -0.8722   -0.8336   -3.5487 C   0  0  0  0  0  0  0  0  0  0  0  0
   -1.3878    0.4215   -0.1512 C   0  0  0  0  0  0  0  0  0  0  0  0
   -2.3434    0.7619   -0.8383 O   0  0  0  0  0  0  0  0  0  0  0  0
   -0.7785    1.3678    0.6536 N   0  0  0  0  0  0  0  0  0  0  0  0
   -0.0619    1.0468    1.2980 H   0  0  0  0  0  0  0  0  0  0  0  0
   -1.1793    2.7690    0.6862 C   0  0  0  0  0  0  0  0  0  0  0  0
   -2.2193    2.8628    1.0163 H   0  0  0  0  0  0  0  0  0  0  0  0
   -0.5440    3.3277    1.3802 H   0  0  0  0  0  0  0  0  0  0  0  0
   -1.0825    3.2184   -0.3078 H   0  0  0  0  0  0  0  0  0  0  0  0
  1  2  1  0  0  0  0
  2  3  1  0  0  0  0
  2  4  1  0  0  0  0
  2  5  1  0  0  0  0
  5  6  2  0  0  0  0
  5  7  1  0  0  0  0
  7  8  1  0  0  0  0
  7  9  1  0  0  0  0
  9 10  1  0  0  0  0
  9 11  1  0  0  0  0
  9 29  1  0  0  0  0
 11 12  1  0  0  0  0
 11 13  1  0  0  0  0
 11 14  1  0  0  0  0
 14 15  2  0  0  0  0
 14 28  1  0  0  0  0
 15 16  1  0  0  0  0
 15 17  1  0  0  0  0
 17 18  1  0  0  0  0
 17 19  1  0  0  0  0
 19 20  1  0  0  0  0
 19 28  2  0  0  0  0
 20 21  1  0  0  0  0
 20 22  2  0  0  0  0
 22 23  1  0  0  0  0
 22 24  1  0  0  0  0
 24 25  1  0  0  0  0
 24 26  2  0  0  0  0
 26 27  1  0  0  0  0
 26 28  1  0  0  0  0
 29 30  2  0  0  0  0
 29 31  1  0  0  0  0
 31 32  1  0  0  0  0
 31 33  1  0  0  0  0
 33 34  1  0  0  0  0
 33 35  1  0  0  0  0
 33 36  1  0  0  0  0
M  END
$$$$

  -OEChem-03222214083D

 36 37  0     1  0  0  0  0  0999 V2000
   -3.7710   -4.4738    1.6387 H   0  0  0  0  0  0  0  0  0  0  0  0
   -3.7495   -3.7066    0.8597 C   0  0  0  0  0  0  0  0  0  0  0  0
   -4.5567   -2.9940    1.0457 H   0  0  0  0  0  0  0  0  0  0  0  0
   -3.9100   -4.1834   -0.1100 H   0  0  0  0  0  0  0  0  0  0  0  0
   -2.4136   -2.9883    0.8693 C   0  0  0  0  0  0  0  0  0  0  0  0
   -1.5398   -3.3287    1.6506 O   0  0  0  0  0  0  0  0  0  0  0  0
   -2.1849   -1.9598   -0.0171 N   0  0  0  0  0  0  0  0  0  0  0  0
   -2.9560   -1.6671   -0.6165 H   0  0  0  0  0  0  0  0  0  0  0  0
   -0.9860   -1.1081   -0.0343 C   0  0  1  0  0  0  0  0  0  0  0  0
   -0.4774   -1.1875    0.9315 H   0  0  0  0  0  0  0  0  0  0  0  0
    0.0230   -1.5220   -1.1226 C   0  0  0  0  0  0  0  0  0  0  0  0
    0.7980   -0.7565   -1.2258 H   0  0  0  0  0  0  0  0  0  0  0  0
    0.5203   -2.4362   -0.7834 H   0  0  0  0  0  0  0  0  0  0  0  0
   -0.5934   -1.8098   -2.4709 C   0  0  0  0  0  0  0  0  0  0  0  0
   -1.3066   -2.9322   -2.8202 C   0  0  0  0  0  0  0  0  0  0  0  0
   -1.5003   -3.7804   -2.1674 H   0  0  0  0  0  0  0  0  0  0  0  0
   -1.7139   -2.7832   -4.1438 N   0  0  0  0  0  0  0  0  0  0  0  0
   -2.2531   -3.4622   -4.6760 H   0  0  0  0  0  0  0  0  0  0  0  0
   -1.2836   -1.5650   -4.6439 C   0  0  0  0  0  0  0  0  0  0  0  0
   -1.4484   -0.9658   -5.8928 C   0  0  0  0  0  0  0  0  0  0  0  0
   -1.9940   -1.4778   -6.6775 H   0  0  0  0  0  0  0  0  0  0  0  0
   -0.9043    0.3066   -6.1169 C   0  0  0  0  0  0  0  0  0  0  0  0
   -1.0272    0.7869   -7.0829 H   0  0  0  0  0  0  0  0  0  0  0  0
   -0.2069    0.9639   -5.0920 C   0  0  0  0  0  0  0  0  0  0  0  0
    0.2062    1.9529   -5.2651 H   0  0  0  0  0  0  0  0  0  0  0  0
   -0.0461    0.3507   -3.8410 C   0  0  0  0  0  0  0  0  0  0  0  0
    0.4833    0.8616   -3.0439 H   0  0  0  0  0  0  0  0  0  0  0  0
   -0.5848   -0.9228   -3.6277 C   0  0  0  0  0  0  0  0  0  0  0  0
   -1.3780    0.3749   -0.1958 C   0  0  0  0  0  0  0  0  0  0  0  0
   -2.3278    0.6935   -0.9018 O   0  0  0  0  0  0  0  0  0  0  0  0
   -0.7803    1.3420    0.5928 N   0  0  0  0  0  0  0  0  0  0  0  0
   -0.0582    1.0424    1.2413 H   0  0  0  0  0  0  0  0  0  0  0  0
   -1.1678    2.7471    0.5678 C   0  0  0  0  0  0  0  0  0  0  0  0
   -2.2184    2.8606    0.8550 H   0  0  0  0  0  0  0  0  0  0  0  0
   -0.5539    3.3207    1.2686 H   0  0  0  0  0  0  0  0  0  0  0  0
   -1.0293    3.1648   -0.4351 H   0  0  0  0  0  0  0  0  0  0  0  0
  1  2  1  0  0  0  0
  2  3  1  0  0  0  0
  2  4  1  0  0  0  0
  2  5  1  0  0  0  0
  5  6  2  0  0  0  0
  5  7  1  0  0  0  0
  7  8  1  0  0  0  0
  7  9  1  0  0  0  0
  9 10  1  0  0  0  0
  9 11  1  0  0  0  0
  9 29  1  0  0  0  0
 11 12  1  0  0  0  0
 11 13  1  0  0  0  0
 11 14  1  0  0  0  0
 14 15  2  0  0  0  0
 14 28  1  0  0  0  0
 15 16  1  0  0  0  0
 15 17  1  0  0  0  0
 17 18  1  0  0  0  0
 17 19  1  0  0  0  0
 19 20  1  0  0  0  0
 19 28  2  0  0  0  0
 20 21  1  0  0  0  0
 20 22  2  0  0  0  0
 22 23  1  0  0  0  0
 22 24  1  0  0  0  0
 24 25  1  0  0  0  0
 24 26  2  0  0  0  0
 26 27  1  0  0  0  0
 26 28  1  0  0  0  0
 29 30  2  0  0  0  0
 29 31  1  0  0  0  0
 31 32  1  0  0  0  0
 31 33  1  0  0  0  0
 33 34  1  0  0  0  0
 33 35  1  0  0  0  0
 33 36  1  0  0  0  0
M  END
$$$$

  -OEChem-03222214083D

 36 37  0     1  0  0  0  0  0999 V2000
   -3.7687   -4.4290    1.7739 H   0  0  0  0  0  0  0  0  0  0  0  0
   -3.7671   -3.6719    0.9847 C   0  0  0  0  0  0  0  0  0  0  0  0
   -4.5426   -2.9338    1.2037 H   0  0  0  0  0  0  0  0  0  0  0  0
   -3.9924   -4.1559    0.0314 H   0  0  0  0  0  0  0  0  0  0  0  0
   -2.4122   -2.9938    0.9155 C   0  0  0  0  0  0  0  0  0  0  0  0
   -1.5097   -3.3533    1.6540 O   0  0  0  0  0  0  0  0  0  0  0  0
   -2.2019   -1.9742    0.0135 N   0  0  0  0  0  0  0  0  0  0  0  0
   -3.0048   -1.6359   -0.5162 H   0  0  0  0  0  0  0  0  0  0  0  0
   -0.9925   -1.1389   -0.0406 C   0  0  1  0  0  0  0  0  0  0  0  0
   -0.4624   -1.2158    0.9140 H   0  0  0  0  0  0  0  0  0  0  0  0
   -0.0009   -1.5429   -1.1525 C   0  0  0  0  0  0  0  0  0  0  0  0
    0.7692   -0.7719   -1.2468 H   0  0  0  0  0  0  0  0  0  0  0  0
    0.5053   -2.4579   -0.8292 H   0  0  0  0  0  0  0  0  0  0  0  0
   -0.6102   -1.8236   -2.5087 C   0  0  0  0  0  0  0  0  0  0  0  0
   -1.5469   -2.7811   -2.8218 C   0  0  0  0  0  0  0  0  0  0  0  0
   -1.9627   -3.5042   -2.1250 H   0  0  0  0  0  0  0  0  0  0  0  0
   -1.8467   -2.6629   -4.1762 N   0  0  0  0  0  0  0  0  0  0  0  0
   -2.5101   -3.2409   -4.6868 H   0  0  0  0  0  0  0  0  0  0  0  0
   -1.1201   -1.6274   -4.7389 C   0  0  0  0  0  0  0  0  0  0  0  0
   -1.0846   -1.1231   -6.0391 C   0  0  0  0  0  0  0  0  0  0  0  0
   -1.7034   -1.5627   -6.8133 H   0  0  0  0  0  0  0  0  0  0  0  0
   -0.2440   -0.0395   -6.3287 C   0  0  0  0  0  0  0  0  0  0  0  0
   -0.2086    0.3661   -7.3354 H   0  0  0  0  0  0  0  0  0  0  0  0
    0.5489    0.5243   -5.3179 C   0  0  0  0  0  0  0  0  0  0  0  0
    1.1965    1.3659   -5.5437 H   0  0  0  0  0  0  0  0  0  0  0  0
    0.5051    0.0078   -4.0148 C   0  0  0  0  0  0  0  0  0  0  0  0
    1.1150    0.4477   -3.2336 H   0  0  0  0  0  0  0  0  0  0  0  0
   -0.3354   -1.0754   -3.7321 C   0  0  0  0  0  0  0  0  0  0  0  0
   -1.3911    0.3426   -0.1994 C   0  0  0  0  0  0  0  0  0  0  0  0
   -2.3758    0.6497   -0.8623 O   0  0  0  0  0  0  0  0  0  0  0  0
   -0.7731    1.3156    0.5658 N   0  0  0  0  0  0  0  0  0  0  0  0
   -0.0136    1.0262    1.1751 H   0  0  0  0  0  0  0  0  0  0  0  0
   -1.1836    2.7145    0.5648 C   0  0  0  0  0  0  0  0  0  0  0  0
   -2.2206    2.8107    0.9035 H   0  0  0  0  0  0  0  0  0  0  0  0
   -0.5456    3.2966    1.2367 H   0  0  0  0  0  0  0  0  0  0  0  0
   -1.1011    3.1369   -0.4422 H   0  0  0  0  0  0  0  0  0  0  0  0
  1  2  1  0  0  0  0
  2  3  1  0  0  0  0
  2  4  1  0  0  0  0
  2  5  1  0  0  0  0
  5  6  2  0  0  0  0
  5  7  1  0  0  0  0
  7  8  1  0  0  0  0
  7  9  1  0  0  0  0
  9 10  1  0  0  0  0
  9 11  1  0  0  0  0
  9 29  1  0  0  0  0
 11 12  1  0  0  0  0
 11 13  1  0  0  0  0
 11 14  1  0  0  0  0
 14 15  2  0  0  0  0
 14 28  1  0  0  0  0
 15 16  1  0  0  0  0
 15 17  1  0  0  0  0
 17 18  1  0  0  0  0
 17 19  1  0  0  0  0
 19 20  1  0  0  0  0
 19 28  2  0  0  0  0
 20 21  1  0  0  0  0
 20 22  2  0  0  0  0
 22 23  1  0  0  0  0
 22 24  1  0  0  0  0
 24 25  1  0  0  0  0
 24 26  2  0  0  0  0
 26 27  1  0  0  0  0
 26 28  1  0  0  0  0
 29 30  2  0  0  0  0
 29 31  1  0  0  0  0
 31 32  1  0  0  0  0
 31 33  1  0  0  0  0
 33 34  1  0  0  0  0
 33 35  1  0  0  0  0
 33 36  1  0  0  0  0
M  END
$$$$

  -OEChem-03222214083D

 36 37  0     1  0  0  0  0  0999 V2000
   -3.7410   -4.3882    1.9291 H   0  0  0  0  0  0  0  0  0  0  0  0
   -3.7619   -3.6558    1.1170 C   0  0  0  0  0  0  0  0  0  0  0  0
   -4.5142   -2.8975    1.3472 H   0  0  0  0  0  0  0  0  0  0  0  0
   -4.0377   -4.1639    0.1901 H   0  0  0  0  0  0  0  0  0  0  0  0
   -2.3997   -3.0061    0.9649 C   0  0  0  0  0  0  0  0  0  0  0  0
   -1.4620   -3.3855    1.6472 O   0  0  0  0  0  0  0  0  0  0  0  0
   -2.2266   -1.9831    0.0580 N   0  0  0  0  0  0  0  0  0  0  0  0
   -3.0617   -1.6046   -0.3878 H   0  0  0  0  0  0  0  0  0  0  0  0
   -1.0130   -1.1587   -0.0439 C   0  0  1  0  0  0  0  0  0  0  0  0
   -0.4454   -1.2431    0.8882 H   0  0  0  0  0  0  0  0  0  0  0  0
   -0.0603   -1.5469   -1.1978 C   0  0  0  0  0  0  0  0  0  0  0  0
    0.6929   -0.7602   -1.2957 H   0  0  0  0  0  0  0  0  0  0  0  0
    0.4697   -2.4576   -0.9017 H   0  0  0  0  0  0  0  0  0  0  0  0
   -0.6757   -1.8160   -2.5578 C   0  0  0  0  0  0  0  0  0  0  0  0
   -1.7924   -2.5568   -2.8752 C   0  0  0  0  0  0  0  0  0  0  0  0
   -2.4117   -3.1054   -2.1725 H   0  0  0  0  0  0  0  0  0  0  0  0
   -1.9748   -2.4980   -4.2542 N   0  0  0  0  0  0  0  0  0  0  0  0
   -2.7283   -2.9469   -4.7695 H   0  0  0  0  0  0  0  0  0  0  0  0
   -0.9870   -1.7240   -4.8359 C   0  0  0  0  0  0  0  0  0  0  0  0
   -0.7506   -1.3755   -6.1659 C   0  0  0  0  0  0  0  0  0  0  0  0
   -1.4108   -1.7302   -6.9495 H   0  0  0  0  0  0  0  0  0  0  0  0
    0.3487   -0.5625   -6.4737 C   0  0  0  0  0  0  0  0  0  0  0  0
    0.5452   -0.2820   -7.5042 H   0  0  0  0  0  0  0  0  0  0  0  0
    1.1954   -0.1105   -5.4507 C   0  0  0  0  0  0  0  0  0  0  0  0
    2.0463    0.5198   -5.6909 H   0  0  0  0  0  0  0  0  0  0  0  0
    0.9465   -0.4683   -4.1176 C   0  0  0  0  0  0  0  0  0  0  0  0
    1.6034   -0.1170   -3.3296 H   0  0  0  0  0  0  0  0  0  0  0  0
   -0.1539   -1.2803   -3.8150 C   0  0  0  0  0  0  0  0  0  0  0  0
   -1.4173    0.3240   -0.1746 C   0  0  0  0  0  0  0  0  0  0  0  0
   -2.4362    0.6313   -0.7846 O   0  0  0  0  0  0  0  0  0  0  0  0
   -0.7659    1.2927    0.5678 N   0  0  0  0  0  0  0  0  0  0  0  0
    0.0308    1.0035    1.1276 H   0  0  0  0  0  0  0  0  0  0  0  0
   -1.1702    2.6931    0.5859 C   0  0  0  0  0  0  0  0  0  0  0  0
   -2.1994    2.7908    0.9475 H   0  0  0  0  0  0  0  0  0  0  0  0
   -0.5156    3.2670    1.2486 H   0  0  0  0  0  0  0  0  0  0  0  0
   -1.1071    3.1230   -0.4194 H   0  0  0  0  0  0  0  0  0  0  0  0
  1  2  1  0  0  0  0
  2  3  1  0  0  0  0
  2  4  1  0  0  0  0
  2  5  1  0  0  0  0
  5  6  2  0  0  0  0
  5  7  1  0  0  0  0
  7  8  1  0  0  0  0
  7  9  1  0  0  0  0
  9 10  1  0  0  0  0
  9 11  1  0  0  0  0
  9 29  1  0  0  0  0
 11 12  1  0  0  0  0
 11 13  1  0  0  0  0
 11 14  1  0  0  0  0
 14 15  2  0  0  0  0
 14 28  1  0  0  0  0
 15 16  1  0  0  0  0
 15 17  1  0  0  0  0
 17 18  1  0  0  0  0
 17 19  1  0  0  0  0
 19 20  1  0  0  0  0
 19 28  2  0  0  0  0
 20 21  1  0  0  0  0
 20 22  2  0  0  0  0
 22 23  1  0  0  0  0
 22 24  1  0  0  0  0
 24 25  1  0  0  0  0
 24 26  2  0  0  0  0
 26 27  1  0  0  0  0
 26 28  1  0  0  0  0
 29 30  2  0  0  0  0
 29 31  1  0  0  0  0
 31 32  1  0  0  0  0
 31 33  1  0  0  0  0
 33 34  1  0  0  0  0
 33 35  1  0  0  0  0
 33 36  1  0  0  0  0
M  END
$$$$

  -OEChem-03222214083D

 36 37  0     1  0  0  0  0  0999 V2000
   -3.7063   -4.3886    1.9699 H   0  0  0  0  0  0  0  0  0  0  0  0
   -3.7501   -3.6435    1.1705 C   0  0  0  0  0  0  0  0  0  0  0  0
   -4.4835   -2.8802    1.4420 H   0  0  0  0  0  0  0  0  0  0  0  0
   -4.0681   -4.1344    0.2477 H   0  0  0  0  0  0  0  0  0  0  0  0
   -2.3870   -3.0083    0.9731 C   0  0  0  0  0  0  0  0  0  0  0  0
   -1.4302   -3.4019    1.6201 O   0  0  0  0  0  0  0  0  0  0  0  0
   -2.2384   -1.9742    0.0740 N   0  0  0  0  0  0  0  0  0  0  0  0
   -3.0898   -1.5669   -0.3106 H   0  0  0  0  0  0  0  0  0  0  0  0
   -1.0212   -1.1587   -0.0522 C   0  0  1  0  0  0  0  0  0  0  0  0
   -0.4262   -1.2594    0.8611 H   0  0  0  0  0  0  0  0  0  0  0  0
   -0.1056   -1.5370   -1.2392 C   0  0  0  0  0  0  0  0  0  0  0  0
    0.6426   -0.7457   -1.3441 H   0  0  0  0  0  0  0  0  0  0  0  0
    0.4319   -2.4505   -0.9658 H   0  0  0  0  0  0  0  0  0  0  0  0
   -0.7343   -1.7857   -2.5990 C   0  0  0  0  0  0  0  0  0  0  0  0
   -1.9805   -2.2670   -2.9374 C   0  0  0  0  0  0  0  0  0  0  0  0
   -2.7609   -2.5687   -2.2477 H   0  0  0  0  0  0  0  0  0  0  0  0
   -2.0696   -2.3082   -4.3264 N   0  0  0  0  0  0  0  0  0  0  0  0
   -2.8855   -2.6060   -4.8561 H   0  0  0  0  0  0  0  0  0  0  0  0
   -0.8909   -1.8644   -4.8962 C   0  0  0  0  0  0  0  0  0  0  0  0
   -0.5027   -1.7265   -6.2288 C   0  0  0  0  0  0  0  0  0  0  0  0
   -1.1874   -1.9889   -7.0275 H   0  0  0  0  0  0  0  0  0  0  0  0
    0.7811   -1.2455   -6.5194 C   0  0  0  0  0  0  0  0  0  0  0  0
    1.0970   -1.1324   -7.5521 H   0  0  0  0  0  0  0  0  0  0  0  0
    1.6578   -0.9105   -5.4769 C   0  0  0  0  0  0  0  0  0  0  0  0
    2.6522   -0.5389   -5.7048 H   0  0  0  0  0  0  0  0  0  0  0  0
    1.2547   -1.0537   -4.1413 C   0  0  0  0  0  0  0  0  0  0  0  0
    1.9352   -0.7964   -3.3371 H   0  0  0  0  0  0  0  0  0  0  0  0
   -0.0305   -1.5322   -3.8565 C   0  0  0  0  0  0  0  0  0  0  0  0
   -1.4214    0.3276   -0.1489 C   0  0  0  0  0  0  0  0  0  0  0  0
   -2.4561    0.6452   -0.7265 O   0  0  0  0  0  0  0  0  0  0  0  0
   -0.7441    1.2833    0.5872 N   0  0  0  0  0  0  0  0  0  0  0  0
    0.0647    0.9823    1.1233 H   0  0  0  0  0  0  0  0  0  0  0  0
   -1.1516    2.6816    0.6504 C   0  0  0  0  0  0  0  0  0  0  0  0
   -2.1680    2.7671    1.0491 H   0  0  0  0  0  0  0  0  0  0  0  0
   -0.4762    3.2433    1.3028 H   0  0  0  0  0  0  0  0  0  0  0  0
   -1.1248    3.1338   -0.3466 H   0  0  0  0  0  0  0  0  0  0  0  0
  1  2  1  0  0  0  0
  2  3  1  0  0  0  0
  2  4  1  0  0  0  0
  2  5  1  0  0  0  0
  5  6  2  0  0  0  0
  5  7  1  0  0  0  0
  7  8  1  0  0  0  0
  7  9  1  0  0  0  0
  9 10  1  0  0  0  0
  9 11  1  0  0  0  0
  9 29  1  0  0  0  0
 11 12  1  0  0  0  0
 11 13  1  0  0  0  0
 11 14  1  0  0  0  0
 14 15  2  0  0  0  0
 14 28  1  0  0  0  0
 15 16  1  0  0  0  0
 15 17  1  0  0  0  0
 17 18  1  0  0  0  0
 17 19  1  0  0  0  0
 19 20  1  0  0  0  0
 19 28  2  0  0  0  0
 20 21  1  0  0  0  0
 20 22  2  0  0  0  0
 22 23  1  0  0  0  0
 22 24  1  0  0  0  0
 24 25  1  0  0  0  0
 24 26  2  0  0  0  0
 26 27  1  0  0  0  0
 26 28  1  0  0  0  0
 29 30  2  0  0  0  0
 29 31  1  0  0  0  0
 31 32  1  0  0  0  0
 31 33  1  0  0  0  0
 33 34  1  0  0  0  0
 33 35  1  0  0  0  0
 33 36  1  0  0  0  0
M  END
$$$$

  -OEChem-03222214083D

 36 37  0     1  0  0  0  0  0999 V2000
   -3.6911   -4.4342    1.8819 H   0  0  0  0  0  0  0  0  0  0  0  0
   -3.7382   -3.6662    1.1049 C   0  0  0  0  0  0  0  0  0  0  0  0
   -4.4846   -2.9215    1.3915 H   0  0  0  0  0  0  0  0  0  0  0  0
   -4.0411   -4.1345    0.1653 H   0  0  0  0  0  0  0  0  0  0  0  0
   -2.3822   -3.0072    0.9385 C   0  0  0  0  0  0  0  0  0  0  0  0
   -1.4274   -3.4023    1.5881 O   0  0  0  0  0  0  0  0  0  0  0  0
   -2.2362   -1.9546    0.0604 N   0  0  0  0  0  0  0  0  0  0  0  0
   -3.0892   -1.5445   -0.3148 H   0  0  0  0  0  0  0  0  0  0  0  0
   -1.0178   -1.1371   -0.0506 C   0  0  1  0  0  0  0  0  0  0  0  0
   -0.4176   -1.2581    0.8566 H   0  0  0  0  0  0  0  0  0  0  0  0
   -0.1170   -1.5042   -1.2517 C   0  0  0  0  0  0  0  0  0  0  0  0
    0.6388   -0.7196   -1.3556 H   0  0  0  0  0  0  0  0  0  0  0  0
    0.4119   -2.4273   -0.9947 H   0  0  0  0  0  0  0  0  0  0  0  0
   -0.7539   -1.7265   -2.6117 C   0  0  0  0  0  0  0  0  0  0  0  0
   -2.0675   -1.9265   -2.9772 C   0  0  0  0  0  0  0  0  0  0  0  0
   -2.9252   -1.9267   -2.3138 H   0  0  0  0  0  0  0  0  0  0  0  0
   -2.1132   -2.1048   -4.3575 N   0  0  0  0  0  0  0  0  0  0  0  0
   -2.9588   -2.2472   -4.9047 H   0  0  0  0  0  0  0  0  0  0  0  0
   -0.8409   -2.0334   -4.8937 C   0  0  0  0  0  0  0  0  0  0  0  0
   -0.3786   -2.1499   -6.2046 C   0  0  0  0  0  0  0  0  0  0  0  0
   -1.0757   -2.3266   -7.0161 H   0  0  0  0  0  0  0  0  0  0  0  0
    0.9959   -2.0376   -6.4560 C   0  0  0  0  0  0  0  0  0  0  0  0
    1.3707   -2.1259   -7.4713 H   0  0  0  0  0  0  0  0  0  0  0  0
    1.8878   -1.8135   -5.3963 C   0  0  0  0  0  0  0  0  0  0  0  0
    2.9524   -1.7310   -5.5930 H   0  0  0  0  0  0  0  0  0  0  0  0
    1.4095   -1.6963   -4.0829 C   0  0  0  0  0  0  0  0  0  0  0  0
    2.0981   -1.5250   -3.2624 H   0  0  0  0  0  0  0  0  0  0  0  0
    0.0352   -1.8045   -3.8397 C   0  0  0  0  0  0  0  0  0  0  0  0
   -1.4126    0.3518   -0.1159 C   0  0  0  0  0  0  0  0  0  0  0  0
   -2.4398    0.6850   -0.6989 O   0  0  0  0  0  0  0  0  0  0  0  0
   -0.7318    1.2902    0.6386 N   0  0  0  0  0  0  0  0  0  0  0  0
    0.0696    0.9729    1.1764 H   0  0  0  0  0  0  0  0  0  0  0  0
   -1.1232    2.6921    0.7184 C   0  0  0  0  0  0  0  0  0  0  0  0
   -2.1468    2.7845    1.0965 H   0  0  0  0  0  0  0  0  0  0  0  0
   -0.4556    3.2323    1.3964 H   0  0  0  0  0  0  0  0  0  0  0  0
   -1.0677    3.1623   -0.2690 H   0  0  0  0  0  0  0  0  0  0  0  0
  1  2  1  0  0  0  0
  2  3  1  0  0  0  0
  2  4  1  0  0  0  0
  2  5  1  0  0  0  0
  5  6  2  0  0  0  0
  5  7  1  0  0  0  0
  7  8  1  0  0  0  0
  7  9  1  0  0  0  0
  9 10  1  0  0  0  0
  9 11  1  0  0  0  0
  9 29  1  0  0  0  0
 11 12  1  0  0  0  0
 11 13  1  0  0  0  0
 11 14  1  0  0  0  0
 14 15  2  0  0  0  0
 14 28  1  0  0  0  0
 15 16  1  0  0  0  0
 15 17  1  0  0  0  0
 17 18  1  0  0  0  0
 17 19  1  0  0  0  0
 19 20  1  0  0  0  0
 19 28  2  0  0  0  0
 20 21  1  0  0  0  0
 20 22  2  0  0  0  0
 22 23  1  0  0  0  0
 22 24  1  0  0  0  0
 24 25  1  0  0  0  0
 24 26  2  0  0  0  0
 26 27  1  0  0  0  0
 26 28  1  0  0  0  0
 29 30  2  0  0  0  0
 29 31  1  0  0  0  0
 31 32  1  0  0  0  0
 31 33  1  0  0  0  0
 33 34  1  0  0  0  0
 33 35  1  0  0  0  0
 33 36  1  0  0  0  0
M  END
$$$$

  -OEChem-03222214083D

 36 37  0     1  0  0  0  0  0999 V2000
   -3.7087   -4.4720    1.7293 H   0  0  0  0  0  0  0  0  0  0  0  0
   -3.7387   -3.6812    0.9743 C   0  0  0  0  0  0  0  0  0  0  0  0
   -4.5058   -2.9555    1.2546 H   0  0  0  0  0  0  0  0  0  0  0  0
   -3.9995   -4.1241    0.0100 H   0  0  0  0  0  0  0  0  0  0  0  0
   -2.3879   -2.9983    0.8793 C   0  0  0  0  0  0  0  0  0  0  0  0
   -1.4593   -3.3812    1.5731 O   0  0  0  0  0  0  0  0  0  0  0  0
   -2.2208   -1.9327    0.0212 N   0  0  0  0  0  0  0  0  0  0  0  0
   -3.0589   -1.5487   -0.4083 H   0  0  0  0  0  0  0  0  0  0  0  0
   -1.0017   -1.1101   -0.0485 C   0  0  1  0  0  0  0  0  0  0  0  0
   -0.4192   -1.2452    0.8684 H   0  0  0  0  0  0  0  0  0  0  0  0
   -0.0872   -1.4800   -1.2370 C   0  0  0  0  0  0  0  0  0  0  0  0
    0.6859   -0.7114   -1.3354 H   0  0  0  0  0  0  0  0  0  0  0  0
    0.4182   -2.4151   -0.9742 H   0  0  0  0  0  0  0  0  0  0  0  0
   -0.7206   -1.6900   -2.5990 C   0  0  0  0  0  0  0  0  0  0  0  0
   -2.0353   -1.6052   -3.0021 C   0  0  0  0  0  0  0  0  0  0  0  0
   -2.8745   -1.3058   -2.3813 H   0  0  0  0  0  0  0  0  0  0  0  0
   -2.0946   -1.9250   -4.3565 N   0  0  0  0  0  0  0  0  0  0  0  0
   -2.9363   -1.9093   -4.9279 H   0  0  0  0  0  0  0  0  0  0  0  0
   -0.8318   -2.2254   -4.8351 C   0  0  0  0  0  0  0  0  0  0  0  0
   -0.3803   -2.5995   -6.1007 C   0  0  0  0  0  0  0  0  0  0  0  0
   -1.0798   -2.6985   -6.9231 H   0  0  0  0  0  0  0  0  0  0  0  0
    0.9863   -2.8468   -6.2930 C   0  0  0  0  0  0  0  0  0  0  0  0
    1.3520   -3.1395   -7.2728 H   0  0  0  0  0  0  0  0  0  0  0  0
    1.8822   -2.7170   -5.2207 C   0  0  0  0  0  0  0  0  0  0  0  0
    2.9398   -2.9108   -5.3714 H   0  0  0  0  0  0  0  0  0  0  0  0
    1.4160   -2.3384   -3.9535 C   0  0  0  0  0  0  0  0  0  0  0  0
    2.1051   -2.2369   -3.1218 H   0  0  0  0  0  0  0  0  0  0  0  0
    0.0509   -2.0923   -3.7706 C   0  0  0  0  0  0  0  0  0  0  0  0
   -1.3877    0.3818   -0.1028 C   0  0  0  0  0  0  0  0  0  0  0  0
   -2.3941    0.7301   -0.7135 O   0  0  0  0  0  0  0  0  0  0  0  0
   -0.7217    1.3065    0.6808 N   0  0  0  0  0  0  0  0  0  0  0  0
    0.0626    0.9770    1.2365 H   0  0  0  0  0  0  0  0  0  0  0  0
   -1.1164    2.7063    0.7800 C   0  0  0  0  0  0  0  0  0  0  0  0
   -2.1383    2.7906    1.1648 H   0  0  0  0  0  0  0  0  0  0  0  0
   -0.4464    3.2403    1.4608 H   0  0  0  0  0  0  0  0  0  0  0  0
   -1.0676    3.1889   -0.2018 H   0  0  0  0  0  0  0  0  0  0  0  0
  1  2  1  0  0  0  0
  2  3  1  0  0  0  0
  2  4  1  0  0  0  0
  2  5  1  0  0  0  0
  5  6  2  0  0  0  0
  5  7  1  0  0  0  0
  7  8  1  0  0  0  0
  7  9  1  0  0  0  0
  9 10  1  0  0  0  0
  9 11  1  0  0  0  0
  9 29  1  0  0  0  0
 11 12  1  0  0  0  0
 11 13  1  0  0  0  0
 11 14  1  0  0  0  0
 14 15  2  0  0  0  0
 14 28  1  0  0  0  0
 15 16  1  0  0  0  0
 15 17  1  0  0  0  0
 17 18  1  0  0  0  0
 17 19  1  0  0  0  0
 19 20  1  0  0  0  0
 19 28  2  0  0  0  0
 20 21  1  0  0  0  0
 20 22  2  0  0  0  0
 22 23  1  0  0  0  0
 22 24  1  0  0  0  0
 24 25  1  0  0  0  0
 24 26  2  0  0  0  0
 26 27  1  0  0  0  0
 26 28  1  0  0  0  0
 29 30  2  0  0  0  0
 29 31  1  0  0  0  0
 31 32  1  0  0  0  0
 31 33  1  0  0  0  0
 33 34  1  0  0  0  0
 33 35  1  0  0  0  0
 33 36  1  0  0  0  0
M  END
$$$$

  -OEChem-03222214083D

 36 37  0     1  0  0  0  0  0999 V2000
   -3.6871   -4.5559    1.5214 H   0  0  0  0  0  0  0  0  0  0  0  0
   -3.7008   -3.7536    0.7782 C   0  0  0  0  0  0  0  0  0  0  0  0
   -4.5424   -3.0901    0.9916 H   0  0  0  0  0  0  0  0  0  0  0  0
   -3.8337   -4.1941   -0.2131 H   0  0  0  0  0  0  0  0  0  0  0  0
   -2.3998   -2.9747    0.8254 C   0  0  0  0  0  0  0  0  0  0  0  0
   -1.5171   -3.3045    1.6017 O   0  0  0  0  0  0  0  0  0  0  0  0
   -2.2210   -1.8918   -0.0082 N   0  0  0  0  0  0  0  0  0  0  0  0
   -3.0064   -1.6115   -0.5886 H   0  0  0  0  0  0  0  0  0  0  0  0
   -1.0131   -1.0508   -0.0432 C   0  0  1  0  0  0  0  0  0  0  0  0
   -0.4506   -1.1962    0.8845 H   0  0  0  0  0  0  0  0  0  0  0  0
   -0.0775   -1.4412   -1.2065 C   0  0  0  0  0  0  0  0  0  0  0  0
    0.7048   -0.6830   -1.3110 H   0  0  0  0  0  0  0  0  0  0  0  0
    0.4143   -2.3744   -0.9138 H   0  0  0  0  0  0  0  0  0  0  0  0
   -0.7031   -1.6774   -2.5676 C   0  0  0  0  0  0  0  0  0  0  0  0
   -1.9536   -1.3429   -3.0409 C   0  0  0  0  0  0  0  0  0  0  0  0
   -2.7180   -0.7948   -2.4966 H   0  0  0  0  0  0  0  0  0  0  0  0
   -2.0554   -1.8002   -4.3524 N   0  0  0  0  0  0  0  0  0  0  0  0
   -2.8586   -1.6628   -4.9620 H   0  0  0  0  0  0  0  0  0  0  0  0
   -0.8846   -2.4305   -4.7344 C   0  0  0  0  0  0  0  0  0  0  0  0
   -0.5046   -3.0409   -5.9298 C   0  0  0  0  0  0  0  0  0  0  0  0
   -1.1915   -3.0743   -6.7680 H   0  0  0  0  0  0  0  0  0  0  0  0
    0.7733   -3.6091   -6.0299 C   0  0  0  0  0  0  0  0  0  0  0  0
    1.0823   -4.0892   -6.9537 H   0  0  0  0  0  0  0  0  0  0  0  0
    1.6530   -3.5585   -4.9375 C   0  0  0  0  0  0  0  0  0  0  0  0
    2.6421   -3.9992   -5.0168 H   0  0  0  0  0  0  0  0  0  0  0  0
    1.2597   -2.9397   -3.7420 C   0  0  0  0  0  0  0  0  0  0  0  0
    1.9371   -2.8976   -2.8956 H   0  0  0  0  0  0  0  0  0  0  0  0
   -0.0174   -2.3757   -3.6500 C   0  0  0  0  0  0  0  0  0  0  0  0
   -1.3729    0.4487   -0.0827 C   0  0  0  0  0  0  0  0  0  0  0  0
   -2.3444    0.8371   -0.7231 O   0  0  0  0  0  0  0  0  0  0  0  0
   -0.7042    1.3469    0.7292 N   0  0  0  0  0  0  0  0  0  0  0  0
    0.0465    0.9871    1.3120 H   0  0  0  0  0  0  0  0  0  0  0  0
   -1.0583    2.7575    0.8277 C   0  0  0  0  0  0  0  0  0  0  0  0
   -2.0883    2.8702    1.1821 H   0  0  0  0  0  0  0  0  0  0  0  0
   -0.3929    3.2658    1.5323 H   0  0  0  0  0  0  0  0  0  0  0  0
   -0.9651    3.2449   -0.1485 H   0  0  0  0  0  0  0  0  0  0  0  0
  1  2  1  0  0  0  0
  2  3  1  0  0  0  0
  2  4  1  0  0  0  0
  2  5  1  0  0  0  0
  5  6  2  0  0  0  0
  5  7  1  0  0  0  0
  7  8  1  0  0  0  0
  7  9  1  0  0  0  0
  9 10  1  0  0  0  0
  9 11  1  0  0  0  0
  9 29  1  0  0  0  0
 11 12  1  0  0  0  0
 11 13  1  0  0  0  0
 11 14  1  0  0  0  0
 14 15  2  0  0  0  0
 14 28  1  0  0  0  0
 15 16  1  0  0  0  0
 15 17  1  0  0  0  0
 17 18  1  0  0  0  0
 17 19  1  0  0  0  0
 19 20  1  0  0  0  0
 19 28  2  0  0  0  0
 20 21  1  0  0  0  0
 20 22  2  0  0  0  0
 22 23  1  0  0  0  0
 22 24  1  0  0  0  0
 24 25  1  0  0  0  0
 24 26  2  0  0  0  0
 26 27  1  0  0  0  0
 26 28  1  0  0  0  0
 29 30  2  0  0  0  0
 29 31  1  0  0  0  0
 31 32  1  0  0  0  0
 31 33  1  0  0  0  0
 33 34  1  0  0  0  0
 33 35  1  0  0  0  0
 33 36  1  0  0  0  0
M  END
$$$$

  -OEChem-03222214083D

 36 37  0     1  0  0  0  0  0999 V2000
   -3.6545   -4.6102    1.3466 H   0  0  0  0  0  0  0  0  0  0  0  0
   -3.6661   -3.7889    0.6248 C   0  0  0  0  0  0  0  0  0  0  0  0
   -4.5481   -3.1708    0.8083 H   0  0  0  0  0  0  0  0  0  0  0  0
   -3.7248   -4.2072   -0.3830 H   0  0  0  0  0  0  0  0  0  0  0  0
   -2.4084   -2.9526    0.7647 C   0  0  0  0  0  0  0  0  0  0  0  0
   -1.5640   -3.2521    1.5944 O   0  0  0  0  0  0  0  0  0  0  0  0
   -2.2246   -1.8551   -0.0483 N   0  0  0  0  0  0  0  0  0  0  0  0
   -2.9477   -1.6541   -0.7337 H   0  0  0  0  0  0  0  0  0  0  0  0
   -1.0243   -1.0031   -0.0544 C   0  0  1  0  0  0  0  0  0  0  0  0
   -0.4834   -1.1581    0.8843 H   0  0  0  0  0  0  0  0  0  0  0  0
   -0.0656   -1.4161   -1.1901 C   0  0  0  0  0  0  0  0  0  0  0  0
    0.7213   -0.6635   -1.2995 H   0  0  0  0  0  0  0  0  0  0  0  0
    0.4176   -2.3433   -0.8674 H   0  0  0  0  0  0  0  0  0  0  0  0
   -0.6830   -1.6768   -2.5511 C   0  0  0  0  0  0  0  0  0  0  0  0
   -1.8047   -1.1207   -3.1280 C   0  0  0  0  0  0  0  0  0  0  0  0
   -2.4426   -0.3569   -2.6922 H   0  0  0  0  0  0  0  0  0  0  0  0
   -1.9725   -1.6958   -4.3846 N   0  0  0  0  0  0  0  0  0  0  0  0
   -2.7046   -1.4522   -5.0483 H   0  0  0  0  0  0  0  0  0  0  0  0
   -0.9695   -2.6159   -4.6312 C   0  0  0  0  0  0  0  0  0  0  0  0
   -0.7088   -3.4297   -5.7336 C   0  0  0  0  0  0  0  0  0  0  0  0
   -1.3619   -3.4028   -6.5988 H   0  0  0  0  0  0  0  0  0  0  0  0
    0.4064   -4.2786   -5.7071 C   0  0  0  0  0  0  0  0  0  0  0  0
    0.6220   -4.9177   -6.5582 H   0  0  0  0  0  0  0  0  0  0  0  0
    1.2448   -4.3023   -4.5824 C   0  0  0  0  0  0  0  0  0  0  0  0
    2.1092   -4.9590   -4.5645 H   0  0  0  0  0  0  0  0  0  0  0  0
    0.9714   -3.4794   -3.4802 C   0  0  0  0  0  0  0  0  0  0  0  0
    1.6197   -3.4969   -2.6104 H   0  0  0  0  0  0  0  0  0  0  0  0
   -0.1440   -2.6344   -3.5134 C   0  0  0  0  0  0  0  0  0  0  0  0
   -1.3612    0.5030   -0.0759 C   0  0  0  0  0  0  0  0  0  0  0  0
   -2.3145    0.9248   -0.7212 O   0  0  0  0  0  0  0  0  0  0  0  0
   -0.6884    1.3763    0.7600 N   0  0  0  0  0  0  0  0  0  0  0  0
    0.0362    0.9910    1.3593 H   0  0  0  0  0  0  0  0  0  0  0  0
   -1.0326    2.7871    0.8901 C   0  0  0  0  0  0  0  0  0  0  0  0
   -2.0505    2.8988    1.2784 H   0  0  0  0  0  0  0  0  0  0  0  0
   -0.3430    3.2830    1.5799 H   0  0  0  0  0  0  0  0  0  0  0  0
   -0.9675    3.2886   -0.0813 H   0  0  0  0  0  0  0  0  0  0  0  0
  1  2  1  0  0  0  0
  2  3  1  0  0  0  0
  2  4  1  0  0  0  0
  2  5  1  0  0  0  0
  5  6  2  0  0  0  0
  5  7  1  0  0  0  0
  7  8  1  0  0  0  0
  7  9  1  0  0  0  0
  9 10  1  0  0  0  0
  9 11  1  0  0  0  0
  9 29  1  0  0  0  0
 11 12  1  0  0  0  0
 11 13  1  0  0  0  0
 11 14  1  0  0  0  0
 14 15  2  0  0  0  0
 14 28  1  0  0  0  0
 15 16  1  0  0  0  0
 15 17  1  0  0  0  0
 17 18  1  0  0  0  0
 17 19  1  0  0  0  0
 19 20  1  0  0  0  0
 19 28  2  0  0  0  0
 20 21  1  0  0  0  0
 20 22  2  0  0  0  0
 22 23  1  0  0  0  0
 22 24  1  0  0  0  0
 24 25  1  0  0  0  0
 24 26  2  0  0  0  0
 26 27  1  0  0  0  0
 26 28  1  0  0  0  0
 29 30  2  0  0  0  0
 29 31  1  0  0  0  0
 31 32  1  0  0  0  0
 31 33  1  0  0  0  0
 33 34  1  0  0  0  0
 33 35  1  0  0  0  0
 33 36  1  0  0  0  0
M  END
$$$$

  -OEChem-03222214083D

 36 37  0     1  0  0  0  0  0999 V2000
   -3.5987   -4.6657    1.1593 H   0  0  0  0  0  0  0  0  0  0  0  0
   -3.6054   -3.8253    0.4595 C   0  0  0  0  0  0  0  0  0  0  0  0
   -4.5198   -3.2469    0.6117 H   0  0  0  0  0  0  0  0  0  0  0  0
   -3.5947   -4.2170   -0.5607 H   0  0  0  0  0  0  0  0  0  0  0  0
   -2.3913   -2.9451    0.6878 C   0  0  0  0  0  0  0  0  0  0  0  0
   -1.5929   -3.2213    1.5697 O   0  0  0  0  0  0  0  0  0  0  0  0
   -2.1906   -1.8393   -0.1095 N   0  0  0  0  0  0  0  0  0  0  0  0
   -2.8537   -1.6810   -0.8645 H   0  0  0  0  0  0  0  0  0  0  0  0
   -1.0007   -0.9750   -0.0657 C   0  0  1  0  0  0  0  0  0  0  0  0
   -0.4906   -1.1307    0.8901 H   0  0  0  0  0  0  0  0  0  0  0  0
   -0.0061   -1.3938   -1.1675 C   0  0  0  0  0  0  0  0  0  0  0  0
    0.7759   -0.6346   -1.2661 H   0  0  0  0  0  0  0  0  0  0  0  0
    0.4798   -2.3118   -0.8247 H   0  0  0  0  0  0  0  0  0  0  0  0
   -0.6056   -1.6589   -2.5357 C   0  0  0  0  0  0  0  0  0  0  0  0
   -1.5348   -0.9128   -3.2274 C   0  0  0  0  0  0  0  0  0  0  0  0
   -1.9683    0.0315   -2.9095 H   0  0  0  0  0  0  0  0  0  0  0  0
   -1.8143   -1.5726   -4.4206 N   0  0  0  0  0  0  0  0  0  0  0  0
   -2.4515   -1.2377   -5.1402 H   0  0  0  0  0  0  0  0  0  0  0  0
   -1.0787   -2.7406   -4.5094 C   0  0  0  0  0  0  0  0  0  0  0  0
   -1.0173   -3.7216   -5.4988 C   0  0  0  0  0  0  0  0  0  0  0  0
   -1.6204   -3.6325   -6.3954 H   0  0  0  0  0  0  0  0  0  0  0  0
   -0.1670   -4.8209   -5.3183 C   0  0  0  0  0  0  0  0  0  0  0  0
   -0.1075   -5.5922   -6.0805 H   0  0  0  0  0  0  0  0  0  0  0  0
    0.6076   -4.9256   -4.1534 C   0  0  0  0  0  0  0  0  0  0  0  0
    1.2650   -5.7787   -4.0145 H   0  0  0  0  0  0  0  0  0  0  0  0
    0.5371   -3.9322   -3.1662 C   0  0  0  0  0  0  0  0  0  0  0  0
    1.1364   -4.0164   -2.2659 H   0  0  0  0  0  0  0  0  0  0  0  0
   -0.3120   -2.8346   -3.3535 C   0  0  0  0  0  0  0  0  0  0  0  0
   -1.3475    0.5285   -0.0873 C   0  0  0  0  0  0  0  0  0  0  0  0
   -2.2729    0.9538   -0.7695 O   0  0  0  0  0  0  0  0  0  0  0  0
   -0.7099    1.3972    0.7807 N   0  0  0  0  0  0  0  0  0  0  0  0
   -0.0245    1.0026    1.4190 H   0  0  0  0  0  0  0  0  0  0  0  0
   -1.0784    2.8005    0.9280 C   0  0  0  0  0  0  0  0  0  0  0  0
   -2.0858    2.8904    1.3473 H   0  0  0  0  0  0  0  0  0  0  0  0
   -0.3769    3.3063    1.5984 H   0  0  0  0  0  0  0  0  0  0  0  0
   -1.0532    3.3089   -0.0416 H   0  0  0  0  0  0  0  0  0  0  0  0
  1  2  1  0  0  0  0
  2  3  1  0  0  0  0
  2  4  1  0  0  0  0
  2  5  1  0  0  0  0
  5  6  2  0  0  0  0
  5  7  1  0  0  0  0
  7  8  1  0  0  0  0
  7  9  1  0  0  0  0
  9 10  1  0  0  0  0
  9 11  1  0  0  0  0
  9 29  1  0  0  0  0
 11 12  1  0  0  0  0
 11 13  1  0  0  0  0
 11 14  1  0  0  0  0
 14 15  2  0  0  0  0
 14 28  1  0  0  0  0
 15 16  1  0  0  0  0
 15 17  1  0  0  0  0
 17 18  1  0  0  0  0
 17 19  1  0  0  0  0
 19 20  1  0  0  0  0
 19 28  2  0  0  0  0
 20 21  1  0  0  0  0
 20 22  2  0  0  0  0
 22 23  1  0  0  0  0
 22 24  1  0  0  0  0
 24 25  1  0  0  0  0
 24 26  2  0  0  0  0
 26 27  1  0  0  0  0
 26 28  1  0  0  0  0
 29 30  2  0  0  0  0
 29 31  1  0  0  0  0
 31 32  1  0  0  0  0
 31 33  1  0  0  0  0
 33 34  1  0  0  0  0
 33 35  1  0  0  0  0
 33 36  1  0  0  0  0
M  END
$$$$

  -OEChem-03222214083D

 36 37  0     1  0  0  0  0  0999 V2000
   -3.5430   -4.7318    1.0069 H   0  0  0  0  0  0  0  0  0  0  0  0
   -3.5260   -3.8916    0.3072 C   0  0  0  0  0  0  0  0  0  0  0  0
   -4.4713   -3.3491    0.3837 H   0  0  0  0  0  0  0  0  0  0  0  0
   -3.4173   -4.2810   -0.7082 H   0  0  0  0  0  0  0  0  0  0  0  0
   -2.3694   -2.9649    0.6295 C   0  0  0  0  0  0  0  0  0  0  0  0
   -1.6344   -3.2085    1.5741 O   0  0  0  0  0  0  0  0  0  0  0  0
   -2.1365   -1.8646   -0.1658 N   0  0  0  0  0  0  0  0  0  0  0  0
   -2.7209   -1.7560   -0.9923 H   0  0  0  0  0  0  0  0  0  0  0  0
   -0.9628   -0.9840   -0.0612 C   0  0  1  0  0  0  0  0  0  0  0  0
   -0.4951   -1.1274    0.9178 H   0  0  0  0  0  0  0  0  0  0  0  0
    0.0761   -1.4014   -1.1210 C   0  0  0  0  0  0  0  0  0  0  0  0
    0.8442   -0.6265   -1.2033 H   0  0  0  0  0  0  0  0  0  0  0  0
    0.5741   -2.3091   -0.7690 H   0  0  0  0  0  0  0  0  0  0  0  0
   -0.5060   -1.6641   -2.4946 C   0  0  0  0  0  0  0  0  0  0  0  0
   -1.1931   -0.7824   -3.2971 C   0  0  0  0  0  0  0  0  0  0  0  0
   -1.3795    0.2672   -3.0787 H   0  0  0  0  0  0  0  0  0  0  0  0
   -1.6074   -1.4727   -4.4330 N   0  0  0  0  0  0  0  0  0  0  0  0
   -2.1310   -1.0669   -5.2059 H   0  0  0  0  0  0  0  0  0  0  0  0
   -1.2130   -2.7974   -4.3634 C   0  0  0  0  0  0  0  0  0  0  0  0
   -1.4048   -3.8673   -5.2372 C   0  0  0  0  0  0  0  0  0  0  0  0
   -1.9425   -3.7232   -6.1678 H   0  0  0  0  0  0  0  0  0  0  0  0
   -0.8954   -5.1277   -4.8958 C   0  0  0  0  0  0  0  0  0  0  0  0
   -1.0362   -5.9698   -5.5671 H   0  0  0  0  0  0  0  0  0  0  0  0
   -0.2052   -5.3024   -3.6868 C   0  0  0  0  0  0  0  0  0  0  0  0
    0.1874   -6.2799   -3.4232 H   0  0  0  0  0  0  0  0  0  0  0  0
   -0.0190   -4.2186   -2.8166 C   0  0  0  0  0  0  0  0  0  0  0  0
    0.5119   -4.3560   -1.8803 H   0  0  0  0  0  0  0  0  0  0  0  0
   -0.5250   -2.9611   -3.1665 C   0  0  0  0  0  0  0  0  0  0  0  0
   -1.3294    0.5141   -0.1195 C   0  0  0  0  0  0  0  0  0  0  0  0
   -2.1855    0.9277   -0.8934 O   0  0  0  0  0  0  0  0  0  0  0  0
   -0.7577    1.4014    0.7754 N   0  0  0  0  0  0  0  0  0  0  0  0
   -0.1393    1.0164    1.4840 H   0  0  0  0  0  0  0  0  0  0  0  0
   -1.1426    2.8047    0.8702 C   0  0  0  0  0  0  0  0  0  0  0  0
   -2.1728    2.8959    1.2298 H   0  0  0  0  0  0  0  0  0  0  0  0
   -0.4833    3.3307    1.5673 H   0  0  0  0  0  0  0  0  0  0  0  0
   -1.0659    3.2921   -0.1075 H   0  0  0  0  0  0  0  0  0  0  0  0
  1  2  1  0  0  0  0
  2  3  1  0  0  0  0
  2  4  1  0  0  0  0
  2  5  1  0  0  0  0
  5  6  2  0  0  0  0
  5  7  1  0  0  0  0
  7  8  1  0  0  0  0
  7  9  1  0  0  0  0
  9 10  1  0  0  0  0
  9 11  1  0  0  0  0
  9 29  1  0  0  0  0
 11 12  1  0  0  0  0
 11 13  1  0  0  0  0
 11 14  1  0  0  0  0
 14 15  2  0  0  0  0
 14 28  1  0  0  0  0
 15 16  1  0  0  0  0
 15 17  1  0  0  0  0
 17 18  1  0  0  0  0
 17 19  1  0  0  0  0
 19 20  1  0  0  0  0
 19 28  2  0  0  0  0
 20 21  1  0  0  0  0
 20 22  2  0  0  0  0
 22 23  1  0  0  0  0
 22 24  1  0  0  0  0
 24 25  1  0  0  0  0
 24 26  2  0  0  0  0
 26 27  1  0  0  0  0
 26 28  1  0  0  0  0
 29 30  2  0  0  0  0
 29 31  1  0  0  0  0
 31 32  1  0  0  0  0
 31 33  1  0  0  0  0
 33 34  1  0  0  0  0
 33 35  1  0  0  0  0
 33 36  1  0  0  0  0
M  END
$$$$

  -OEChem-03222214083D

 36 37  0     1  0  0  0  0  0999 V2000
   -3.5555   -4.7626    0.9859 H   0  0  0  0  0  0  0  0  0  0  0  0
   -3.5143   -3.9337    0.2741 C   0  0  0  0  0  0  0  0  0  0  0  0
   -4.4700   -3.4045    0.2917 H   0  0  0  0  0  0  0  0  0  0  0  0
   -3.3475   -4.3373   -0.7280 H   0  0  0  0  0  0  0  0  0  0  0  0
   -2.3900   -2.9840    0.6405 C   0  0  0  0  0  0  0  0  0  0  0  0
   -1.7002   -3.2003    1.6250 O   0  0  0  0  0  0  0  0  0  0  0  0
   -2.1223   -1.9039   -0.1704 N   0  0  0  0  0  0  0  0  0  0  0  0
   -2.6552   -1.8310   -1.0355 H   0  0  0  0  0  0  0  0  0  0  0  0
   -0.9533   -1.0205   -0.0411 C   0  0  1  0  0  0  0  0  0  0  0  0
   -0.5105   -1.1453    0.9518 H   0  0  0  0  0  0  0  0  0  0  0  0
    0.1096   -1.4416   -1.0752 C   0  0  0  0  0  0  0  0  0  0  0  0
    0.8718   -0.6599   -1.1515 H   0  0  0  0  0  0  0  0  0  0  0  0
    0.6117   -2.3472   -0.7216 H   0  0  0  0  0  0  0  0  0  0  0  0
   -0.4716   -1.7032   -2.4461 C   0  0  0  0  0  0  0  0  0  0  0  0
   -0.8953   -0.7654   -3.3568 C   0  0  0  0  0  0  0  0  0  0  0  0
   -0.8488    0.3140   -3.2218 H   0  0  0  0  0  0  0  0  0  0  0  0
   -1.4201   -1.4475   -4.4522 N   0  0  0  0  0  0  0  0  0  0  0  0
   -1.8236   -1.0069   -5.2763 H   0  0  0  0  0  0  0  0  0  0  0  0
   -1.3589   -2.8159   -4.2458 C   0  0  0  0  0  0  0  0  0  0  0  0
   -1.7745   -3.8947   -5.0265 C   0  0  0  0  0  0  0  0  0  0  0  0
   -2.2303   -3.7243   -5.9954 H   0  0  0  0  0  0  0  0  0  0  0  0
   -1.5979   -5.1981   -4.5407 C   0  0  0  0  0  0  0  0  0  0  0  0
   -1.9166   -6.0473   -5.1380 H   0  0  0  0  0  0  0  0  0  0  0  0
   -1.0102   -5.4069   -3.2835 C   0  0  0  0  0  0  0  0  0  0  0  0
   -0.8752   -6.4175   -2.9094 H   0  0  0  0  0  0  0  0  0  0  0  0
   -0.5945   -4.3150   -2.5083 C   0  0  0  0  0  0  0  0  0  0  0  0
   -0.1423   -4.4737   -1.5344 H   0  0  0  0  0  0  0  0  0  0  0  0
   -0.7721   -3.0179   -3.0021 C   0  0  0  0  0  0  0  0  0  0  0  0
   -1.3221    0.4739   -0.1527 C   0  0  0  0  0  0  0  0  0  0  0  0
   -2.1022    0.8739   -1.0095 O   0  0  0  0  0  0  0  0  0  0  0  0
   -0.7896    1.3851    0.7421 N   0  0  0  0  0  0  0  0  0  0  0  0
   -0.2244    1.0169    1.5021 H   0  0  0  0  0  0  0  0  0  0  0  0
   -1.1567    2.7960    0.7618 C   0  0  0  0  0  0  0  0  0  0  0  0
   -2.2159    2.9129    1.0143 H   0  0  0  0  0  0  0  0  0  0  0  0
   -0.5613    3.3306    1.5081 H   0  0  0  0  0  0  0  0  0  0  0  0
   -0.9741    3.2547   -0.2157 H   0  0  0  0  0  0  0  0  0  0  0  0
  1  2  1  0  0  0  0
  2  3  1  0  0  0  0
  2  4  1  0  0  0  0
  2  5  1  0  0  0  0
  5  6  2  0  0  0  0
  5  7  1  0  0  0  0
  7  8  1  0  0  0  0
  7  9  1  0  0  0  0
  9 10  1  0  0  0  0
  9 11  1  0  0  0  0
  9 29  1  0  0  0  0
 11 12  1  0  0  0  0
 11 13  1  0  0  0  0
 11 14  1  0  0  0  0
 14 15  2  0  0  0  0
 14 28  1  0  0  0  0
 15 16  1  0  0  0  0
 15 17  1  0  0  0  0
 17 18  1  0  0  0  0
 17 19  1  0  0  0  0
 19 20  1  0  0  0  0
 19 28  2  0  0  0  0
 20 21  1  0  0  0  0
 20 22  2  0  0  0  0
 22 23  1  0  0  0  0
 22 24  1  0  0  0  0
 24 25  1  0  0  0  0
 24 26  2  0  0  0  0
 26 27  1  0  0  0  0
 26 28  1  0  0  0  0
 29 30  2  0  0  0  0
 29 31  1  0  0  0  0
 31 32  1  0  0  0  0
 31 33  1  0  0  0  0
 33 34  1  0  0  0  0
 33 35  1  0  0  0  0
 33 36  1  0  0  0  0
M  END
$$$$

  -OEChem-03222214083D

 36 37  0     1  0  0  0  0  0999 V2000
   -3.7197   -4.6720    1.1764 H   0  0  0  0  0  0  0  0  0  0  0  0
   -3.6713   -3.8501    0.4571 C   0  0  0  0  0  0  0  0  0  0  0  0
   -4.5857   -3.2574    0.5362 H   0  0  0  0  0  0  0  0  0  0  0  0
   -3.6033   -4.2676   -0.5506 H   0  0  0  0  0  0  0  0  0  0  0  0
   -2.4633   -2.9773    0.7403 C   0  0  0  0  0  0  0  0  0  0  0  0
   -1.7379   -3.2225    1.6915 O   0  0  0  0  0  0  0  0  0  0  0  0
   -2.1741   -1.9237   -0.0967 N   0  0  0  0  0  0  0  0  0  0  0  0
   -2.7503   -1.8184   -0.9303 H   0  0  0  0  0  0  0  0  0  0  0  0
   -0.9836   -1.0651   -0.0051 C   0  0  1  0  0  0  0  0  0  0  0  0
   -0.5276   -1.1783    0.9834 H   0  0  0  0  0  0  0  0  0  0  0  0
    0.0621   -1.4902   -1.0549 C   0  0  0  0  0  0  0  0  0  0  0  0
    0.8296   -0.7141   -1.1376 H   0  0  0  0  0  0  0  0  0  0  0  0
    0.5609   -2.4034   -0.7164 H   0  0  0  0  0  0  0  0  0  0  0  0
   -0.5462   -1.7421   -2.4144 C   0  0  0  0  0  0  0  0  0  0  0  0
   -0.7161   -0.8213   -3.4189 C   0  0  0  0  0  0  0  0  0  0  0  0
   -0.4599    0.2344   -3.3565 H   0  0  0  0  0  0  0  0  0  0  0  0
   -1.3063   -1.4778   -4.4972 N   0  0  0  0  0  0  0  0  0  0  0  0
   -1.5762   -1.0365   -5.3737 H   0  0  0  0  0  0  0  0  0  0  0  0
   -1.5050   -2.8166   -4.2002 C   0  0  0  0  0  0  0  0  0  0  0  0
   -2.0514   -3.8655   -4.9402 C   0  0  0  0  0  0  0  0  0  0  0  0
   -2.4152   -3.6922   -5.9470 H   0  0  0  0  0  0  0  0  0  0  0  0
   -2.1197   -5.1434   -4.3667 C   0  0  0  0  0  0  0  0  0  0  0  0
   -2.5411   -5.9691   -4.9323 H   0  0  0  0  0  0  0  0  0  0  0  0
   -1.6390   -5.3583   -3.0657 C   0  0  0  0  0  0  0  0  0  0  0  0
   -1.6868   -6.3503   -2.6263 H   0  0  0  0  0  0  0  0  0  0  0  0
   -1.0914   -4.2967   -2.3319 C   0  0  0  0  0  0  0  0  0  0  0  0
   -0.7142   -4.4569   -1.3265 H   0  0  0  0  0  0  0  0  0  0  0  0
   -1.0348   -3.0239   -2.9092 C   0  0  0  0  0  0  0  0  0  0  0  0
   -1.3344    0.4304   -0.1516 C   0  0  0  0  0  0  0  0  0  0  0  0
   -2.1087    0.8183   -1.0192 O   0  0  0  0  0  0  0  0  0  0  0  0
   -0.7784    1.3590    0.7103 N   0  0  0  0  0  0  0  0  0  0  0  0
   -0.2007    1.0072    1.4685 H   0  0  0  0  0  0  0  0  0  0  0  0
   -1.0997    2.7803    0.6728 C   0  0  0  0  0  0  0  0  0  0  0  0
   -2.1663    2.9373    0.8641 H   0  0  0  0  0  0  0  0  0  0  0  0
   -0.5280    3.3166    1.4361 H   0  0  0  0  0  0  0  0  0  0  0  0
   -0.8504    3.2042   -0.3054 H   0  0  0  0  0  0  0  0  0  0  0  0
  1  2  1  0  0  0  0
  2  3  1  0  0  0  0
  2  4  1  0  0  0  0
  2  5  1  0  0  0  0
  5  6  2  0  0  0  0
  5  7  1  0  0  0  0
  7  8  1  0  0  0  0
  7  9  1  0  0  0  0
  9 10  1  0  0  0  0
  9 11  1  0  0  0  0
  9 29  1  0  0  0  0
 11 12  1  0  0  0  0
 11 13  1  0  0  0  0
 11 14  1  0  0  0  0
 14 15  2  0  0  0  0
 14 28  1  0  0  0  0
 15 16  1  0  0  0  0
 15 17  1  0  0  0  0
 17 18  1  0  0  0  0
 17 19  1  0  0  0  0
 19 20  1  0  0  0  0
 19 28  2  0  0  0  0
 20 21  1  0  0  0  0
 20 22  2  0  0  0  0
 22 23  1  0  0  0  0
 22 24  1  0  0  0  0
 24 25  1  0  0  0  0
 24 26  2  0  0  0  0
 26 27  1  0  0  0  0
 26 28  1  0  0  0  0
 29 30  2  0  0  0  0
 29 31  1  0  0  0  0
 31 32  1  0  0  0  0
 31 33  1  0  0  0  0
 33 34  1  0  0  0  0
 33 35  1  0  0  0  0
 33 36  1  0  0  0  0
M  END
$$$$

  -OEChem-03222214083D

 36 37  0     1  0  0  0  0  0999 V2000
   -3.8631   -4.5378    1.4100 H   0  0  0  0  0  0  0  0  0  0  0  0
   -3.8235   -3.7159    0.6900 C   0  0  0  0  0  0  0  0  0  0  0  0
   -4.6806   -3.0589    0.8561 H   0  0  0  0  0  0  0  0  0  0  0  0
   -3.8826   -4.1285   -0.3198 H   0  0  0  0  0  0  0  0  0  0  0  0
   -2.5339   -2.9350    0.8599 C   0  0  0  0  0  0  0  0  0  0  0  0
   -1.7591   -3.2207    1.7594 O   0  0  0  0  0  0  0  0  0  0  0  0
   -2.2370   -1.9076   -0.0074 N   0  0  0  0  0  0  0  0  0  0  0  0
   -2.8729   -1.7507   -0.7883 H   0  0  0  0  0  0  0  0  0  0  0  0
   -1.0158   -1.0894    0.0256 C   0  0  1  0  0  0  0  0  0  0  0  0
   -0.5313   -1.1993    1.0007 H   0  0  0  0  0  0  0  0  0  0  0  0
   -0.0001   -1.5189   -1.0549 C   0  0  0  0  0  0  0  0  0  0  0  0
    0.7817   -0.7575   -1.1415 H   0  0  0  0  0  0  0  0  0  0  0  0
    0.4856   -2.4459   -0.7347 H   0  0  0  0  0  0  0  0  0  0  0  0
   -0.6301   -1.7547   -2.4078 C   0  0  0  0  0  0  0  0  0  0  0  0
   -0.5444   -0.9112   -3.4885 C   0  0  0  0  0  0  0  0  0  0  0  0
   -0.0727    0.0690   -3.4865 H   0  0  0  0  0  0  0  0  0  0  0  0
   -1.1995   -1.5203   -4.5565 N   0  0  0  0  0  0  0  0  0  0  0  0
   -1.3275   -1.1078   -5.4781 H   0  0  0  0  0  0  0  0  0  0  0  0
   -1.6544   -2.7760   -4.1904 C   0  0  0  0  0  0  0  0  0  0  0  0
   -2.3309   -3.7643   -4.9056 C   0  0  0  0  0  0  0  0  0  0  0  0
   -2.6115   -3.5943   -5.9390 H   0  0  0  0  0  0  0  0  0  0  0  0
   -2.6318   -4.9799   -4.2749 C   0  0  0  0  0  0  0  0  0  0  0  0
   -3.1562   -5.7583   -4.8210 H   0  0  0  0  0  0  0  0  0  0  0  0
   -2.2414   -5.1973   -2.9447 C   0  0  0  0  0  0  0  0  0  0  0  0
   -2.4577   -6.1466   -2.4637 H   0  0  0  0  0  0  0  0  0  0  0  0
   -1.5633   -4.1951   -2.2368 C   0  0  0  0  0  0  0  0  0  0  0  0
   -1.2417   -4.3652   -1.2143 H   0  0  0  0  0  0  0  0  0  0  0  0
   -1.2937   -2.9734   -2.8628 C   0  0  0  0  0  0  0  0  0  0  0  0
   -1.3456    0.4089   -0.1394 C   0  0  0  0  0  0  0  0  0  0  0  0
   -2.1595    0.7892   -0.9733 O   0  0  0  0  0  0  0  0  0  0  0  0
   -0.7424    1.3450    0.6815 N   0  0  0  0  0  0  0  0  0  0  0  0
   -0.1371    0.9993    1.4207 H   0  0  0  0  0  0  0  0  0  0  0  0
   -1.0483    2.7694    0.6311 C   0  0  0  0  0  0  0  0  0  0  0  0
   -2.1082    2.9420    0.8457 H   0  0  0  0  0  0  0  0  0  0  0  0
   -0.4527    3.3103    1.3729 H   0  0  0  0  0  0  0  0  0  0  0  0
   -0.8178    3.1762   -0.3592 H   0  0  0  0  0  0  0  0  0  0  0  0
  1  2  1  0  0  0  0
  2  3  1  0  0  0  0
  2  4  1  0  0  0  0
  2  5  1  0  0  0  0
  5  6  2  0  0  0  0
  5  7  1  0  0  0  0
  7  8  1  0  0  0  0
  7  9  1  0  0  0  0
  9 10  1  0  0  0  0
  9 11  1  0  0  0  0
  9 29  1  0  0  0  0
 11 12  1  0  0  0  0
 11 13  1  0  0  0  0
 11 14  1  0  0  0  0
 14 15  2  0  0  0  0
 14 28  1  0  0  0  0
 15 16  1  0  0  0  0
 15 17  1  0  0  0  0
 17 18  1  0  0  0  0
 17 19  1  0  0  0  0
 19 20  1  0  0  0  0
 19 28  2  0  0  0  0
 20 21  1  0  0  0  0
 20 22  2  0  0  0  0
 22 23  1  0  0  0  0
 22 24  1  0  0  0  0
 24 25  1  0  0  0  0
 24 26  2  0  0  0  0
 26 27  1  0  0  0  0
 26 28  1  0  0  0  0
 29 30  2  0  0  0  0
 29 31  1  0  0  0  0
 31 32  1  0  0  0  0
 31 33  1  0  0  0  0
 33 34  1  0  0  0  0
 33 35  1  0  0  0  0
 33 36  1  0  0  0  0
M  END
$$$$

  -OEChem-03222214083D

 36 37  0     1  0  0  0  0  0999 V2000
   -3.9560   -4.3760    1.6968 H   0  0  0  0  0  0  0  0  0  0  0  0
   -3.9265   -3.5638    0.9650 C   0  0  0  0  0  0  0  0  0  0  0  0
   -4.7151   -2.8457    1.2026 H   0  0  0  0  0  0  0  0  0  0  0  0
   -4.1107   -3.9784   -0.0289 H   0  0  0  0  0  0  0  0  0  0  0  0
   -2.5748   -2.8753    1.0020 C   0  0  0  0  0  0  0  0  0  0  0  0
   -1.7424   -3.2058    1.8316 O   0  0  0  0  0  0  0  0  0  0  0  0
   -2.2940   -1.8685    0.1049 N   0  0  0  0  0  0  0  0  0  0  0  0
   -2.9981   -1.6465   -0.5978 H   0  0  0  0  0  0  0  0  0  0  0  0
   -1.0453   -1.0958    0.0582 C   0  0  1  0  0  0  0  0  0  0  0  0
   -0.5134   -1.2093    1.0080 H   0  0  0  0  0  0  0  0  0  0  0  0
   -0.0812   -1.5212   -1.0736 C   0  0  0  0  0  0  0  0  0  0  0  0
    0.7195   -0.7803   -1.1664 H   0  0  0  0  0  0  0  0  0  0  0  0
    0.3880   -2.4656   -0.7803 H   0  0  0  0  0  0  0  0  0  0  0  0
   -0.7338   -1.7351   -2.4224 C   0  0  0  0  0  0  0  0  0  0  0  0
   -0.4060   -1.0213   -3.5510 C   0  0  0  0  0  0  0  0  0  0  0  0
    0.2639   -0.1650   -3.5798 H   0  0  0  0  0  0  0  0  0  0  0  0
   -1.1092   -1.5590   -4.6245 N   0  0  0  0  0  0  0  0  0  0  0  0
   -1.0921   -1.2030   -5.5776 H   0  0  0  0  0  0  0  0  0  0  0  0
   -1.8038   -2.6850   -4.2225 C   0  0  0  0  0  0  0  0  0  0  0  0
   -2.5867   -3.5854   -4.9445 C   0  0  0  0  0  0  0  0  0  0  0  0
   -2.7703   -3.4244   -6.0009 H   0  0  0  0  0  0  0  0  0  0  0  0
   -3.1129   -4.7077   -4.2915 C   0  0  0  0  0  0  0  0  0  0  0  0
   -3.7217   -5.4190   -4.8418 H   0  0  0  0  0  0  0  0  0  0  0  0
   -2.8278   -4.9265   -2.9358 C   0  0  0  0  0  0  0  0  0  0  0  0
   -3.2074   -5.8141   -2.4387 H   0  0  0  0  0  0  0  0  0  0  0  0
   -2.0389   -4.0112   -2.2246 C   0  0  0  0  0  0  0  0  0  0  0  0
   -1.7805   -4.2051   -1.1904 H   0  0  0  0  0  0  0  0  0  0  0  0
   -1.5611   -2.8614   -2.8640 C   0  0  0  0  0  0  0  0  0  0  0  0
   -1.3560    0.4067   -0.1054 C   0  0  0  0  0  0  0  0  0  0  0  0
   -2.2345    0.7900   -0.8696 O   0  0  0  0  0  0  0  0  0  0  0  0
   -0.6875    1.3405    0.6665 N   0  0  0  0  0  0  0  0  0  0  0  0
   -0.0271    0.9940    1.3565 H   0  0  0  0  0  0  0  0  0  0  0  0
   -0.9827    2.7675    0.6286 C   0  0  0  0  0  0  0  0  0  0  0  0
   -2.0222    2.9522    0.9197 H   0  0  0  0  0  0  0  0  0  0  0  0
   -0.3290    3.3079    1.3200 H   0  0  0  0  0  0  0  0  0  0  0  0
   -0.8223    3.1643   -0.3793 H   0  0  0  0  0  0  0  0  0  0  0  0
  1  2  1  0  0  0  0
  2  3  1  0  0  0  0
  2  4  1  0  0  0  0
  2  5  1  0  0  0  0
  5  6  2  0  0  0  0
  5  7  1  0  0  0  0
  7  8  1  0  0  0  0
  7  9  1  0  0  0  0
  9 10  1  0  0  0  0
  9 11  1  0  0  0  0
  9 29  1  0  0  0  0
 11 12  1  0  0  0  0
 11 13  1  0  0  0  0
 11 14  1  0  0  0  0
 14 15  2  0  0  0  0
 14 28  1  0  0  0  0
 15 16  1  0  0  0  0
 15 17  1  0  0  0  0
 17 18  1  0  0  0  0
 17 19  1  0  0  0  0
 19 20  1  0  0  0  0
 19 28  2  0  0  0  0
 20 21  1  0  0  0  0
 20 22  2  0  0  0  0
 22 23  1  0  0  0  0
 22 24  1  0  0  0  0
 24 25  1  0  0  0  0
 24 26  2  0  0  0  0
 26 27  1  0  0  0  0
 26 28  1  0  0  0  0
 29 30  2  0  0  0  0
 29 31  1  0  0  0  0
 31 32  1  0  0  0  0
 31 33  1  0  0  0  0
 33 34  1  0  0  0  0
 33 35  1  0  0  0  0
 33 36  1  0  0  0  0
M  END
$$$$

  -OEChem-03222214083D

 36 37  0     1  0  0  0  0  0999 V2000
   -3.9592   -4.1611    2.0753 H   0  0  0  0  0  0  0  0  0  0  0  0
   -3.9305   -3.4486    1.2463 C   0  0  0  0  0  0  0  0  0  0  0  0
   -4.6650   -2.6616    1.4339 H   0  0  0  0  0  0  0  0  0  0  0  0
   -4.1968   -3.9706    0.3245 H   0  0  0  0  0  0  0  0  0  0  0  0
   -2.5436   -2.8431    1.1250 C   0  0  0  0  0  0  0  0  0  0  0  0
   -1.6449   -3.2265    1.8566 O   0  0  0  0  0  0  0  0  0  0  0  0
   -2.3084   -1.8411    0.2076 N   0  0  0  0  0  0  0  0  0  0  0  0
   -3.0840   -1.5385   -0.3812 H   0  0  0  0  0  0  0  0  0  0  0  0
   -1.0488   -1.0993    0.0724 C   0  0  1  0  0  0  0  0  0  0  0  0
   -0.4637   -1.2213    0.9894 H   0  0  0  0  0  0  0  0  0  0  0  0
   -0.1392   -1.5021   -1.1154 C   0  0  0  0  0  0  0  0  0  0  0  0
    0.6695   -0.7699   -1.2097 H   0  0  0  0  0  0  0  0  0  0  0  0
    0.3259   -2.4569   -0.8505 H   0  0  0  0  0  0  0  0  0  0  0  0
   -0.7991   -1.7010   -2.4686 C   0  0  0  0  0  0  0  0  0  0  0  0
   -0.2538   -1.1685   -3.6154 C   0  0  0  0  0  0  0  0  0  0  0  0
    0.5923   -0.4860   -3.6487 H   0  0  0  0  0  0  0  0  0  0  0  0
   -0.9973   -1.6054   -4.7051 N   0  0  0  0  0  0  0  0  0  0  0  0
   -0.8431   -1.3337   -5.6735 H   0  0  0  0  0  0  0  0  0  0  0  0
   -1.9342   -2.5320   -4.2943 C   0  0  0  0  0  0  0  0  0  0  0  0
   -2.8357   -3.2936   -5.0381 C   0  0  0  0  0  0  0  0  0  0  0  0
   -2.9218   -3.1489   -6.1091 H   0  0  0  0  0  0  0  0  0  0  0  0
   -3.6059   -4.2644   -4.3873 C   0  0  0  0  0  0  0  0  0  0  0  0
   -4.3098   -4.8692   -4.9515 H   0  0  0  0  0  0  0  0  0  0  0  0
   -3.4348   -4.4816   -3.0140 C   0  0  0  0  0  0  0  0  0  0  0  0
   -3.9958   -5.2667   -2.5165 H   0  0  0  0  0  0  0  0  0  0  0  0
   -2.5228   -3.7050   -2.2857 C   0  0  0  0  0  0  0  0  0  0  0  0
   -2.3469   -3.9326   -1.2448 H   0  0  0  0  0  0  0  0  0  0  0  0
   -1.8068   -2.6785   -2.9146 C   0  0  0  0  0  0  0  0  0  0  0  0
   -1.3588    0.4059   -0.0653 C   0  0  0  0  0  0  0  0  0  0  0  0
   -2.3156    0.7928   -0.7268 O   0  0  0  0  0  0  0  0  0  0  0  0
   -0.6273    1.3320    0.6573 N   0  0  0  0  0  0  0  0  0  0  0  0
    0.0862    0.9776    1.2877 H   0  0  0  0  0  0  0  0  0  0  0  0
   -0.9466    2.7542    0.6858 C   0  0  0  0  0  0  0  0  0  0  0  0
   -1.9369    2.9151    1.1248 H   0  0  0  0  0  0  0  0  0  0  0  0
   -0.2090    3.2958    1.2858 H   0  0  0  0  0  0  0  0  0  0  0  0
   -0.9378    3.1700   -0.3273 H   0  0  0  0  0  0  0  0  0  0  0  0
  1  2  1  0  0  0  0
  2  3  1  0  0  0  0
  2  4  1  0  0  0  0
  2  5  1  0  0  0  0
  5  6  2  0  0  0  0
  5  7  1  0  0  0  0
  7  8  1  0  0  0  0
  7  9  1  0  0  0  0
  9 10  1  0  0  0  0
  9 11  1  0  0  0  0
  9 29  1  0  0  0  0
 11 12  1  0  0  0  0
 11 13  1  0  0  0  0
 11 14  1  0  0  0  0
 14 15  2  0  0  0  0
 14 28  1  0  0  0  0
 15 16  1  0  0  0  0
 15 17  1  0  0  0  0
 17 18  1  0  0  0  0
 17 19  1  0  0  0  0
 19 20  1  0  0  0  0
 19 28  2  0  0  0  0
 20 21  1  0  0  0  0
 20 22  2  0  0  0  0
 22 23  1  0  0  0  0
 22 24  1  0  0  0  0
 24 25  1  0  0  0  0
 24 26  2  0  0  0  0
 26 27  1  0  0  0  0
 26 28  1  0  0  0  0
 29 30  2  0  0  0  0
 29 31  1  0  0  0  0
 31 32  1  0  0  0  0
 31 33  1  0  0  0  0
 33 34  1  0  0  0  0
 33 35  1  0  0  0  0
 33 36  1  0  0  0  0
M  END
$$$$

  -OEChem-03222214083D

 36 37  0     1  0  0  0  0  0999 V2000
   -3.7259   -4.0143    2.4995 H   0  0  0  0  0  0  0  0  0  0  0  0
   -3.7231   -3.5173    1.5256 C   0  0  0  0  0  0  0  0  0  0  0  0
   -4.4981   -2.7469    1.5243 H   0  0  0  0  0  0  0  0  0  0  0  0
   -3.9497   -4.2548    0.7523 H   0  0  0  0  0  0  0  0  0  0  0  0
   -2.3648   -2.8922    1.2658 C   0  0  0  0  0  0  0  0  0  0  0  0
   -1.3953   -3.2599    1.9102 O   0  0  0  0  0  0  0  0  0  0  0  0
   -2.2355   -1.8833    0.3340 N   0  0  0  0  0  0  0  0  0  0  0  0
   -3.0783   -1.5441   -0.1287 H   0  0  0  0  0  0  0  0  0  0  0  0
   -1.0109   -1.1164    0.1044 C   0  0  1  0  0  0  0  0  0  0  0  0
   -0.3577   -1.2210    0.9762 H   0  0  0  0  0  0  0  0  0  0  0  0
   -0.1796   -1.5059   -1.1392 C   0  0  0  0  0  0  0  0  0  0  0  0
    0.6134   -0.7606   -1.2617 H   0  0  0  0  0  0  0  0  0  0  0  0
    0.3132   -2.4487   -0.8811 H   0  0  0  0  0  0  0  0  0  0  0  0
   -0.8381   -1.7497   -2.4940 C   0  0  0  0  0  0  0  0  0  0  0  0
   -0.0880   -1.4571   -3.6126 C   0  0  0  0  0  0  0  0  0  0  0  0
    0.9045   -1.0130   -3.6017 H   0  0  0  0  0  0  0  0  0  0  0  0
   -0.8180   -1.7800   -4.7445 N   0  0  0  0  0  0  0  0  0  0  0  0
   -0.5172   -1.6375   -5.7061 H   0  0  0  0  0  0  0  0  0  0  0  0
   -2.0087   -2.3673   -4.3769 C   0  0  0  0  0  0  0  0  0  0  0  0
   -3.0103   -2.8819   -5.1985 C   0  0  0  0  0  0  0  0  0  0  0  0
   -2.9266   -2.8058   -6.2767 H   0  0  0  0  0  0  0  0  0  0  0  0
   -4.1125   -3.5094   -4.6130 C   0  0  0  0  0  0  0  0  0  0  0  0
   -4.9027   -3.9179   -5.2360 H   0  0  0  0  0  0  0  0  0  0  0  0
   -4.1776   -3.6313   -3.2209 C   0  0  0  0  0  0  0  0  0  0  0  0
   -5.0178   -4.1456   -2.7645 H   0  0  0  0  0  0  0  0  0  0  0  0
   -3.1576   -3.1058   -2.4141 C   0  0  0  0  0  0  0  0  0  0  0  0
   -3.2294   -3.2691   -1.3534 H   0  0  0  0  0  0  0  0  0  0  0  0
   -2.0666   -2.4252   -2.9812 C   0  0  0  0  0  0  0  0  0  0  0  0
   -1.3684    0.3808   -0.0018 C   0  0  0  0  0  0  0  0  0  0  0  0
   -2.3994    0.7371   -0.5615 O   0  0  0  0  0  0  0  0  0  0  0  0
   -0.6082    1.3268    0.6632 N   0  0  0  0  0  0  0  0  0  0  0  0
    0.1855    0.9978    1.2050 H   0  0  0  0  0  0  0  0  0  0  0  0
   -0.9515    2.7431    0.7056 C   0  0  0  0  0  0  0  0  0  0  0  0
   -1.9071    2.8912    1.2192 H   0  0  0  0  0  0  0  0  0  0  0  0
   -0.1793    3.3029    1.2418 H   0  0  0  0  0  0  0  0  0  0  0  0
   -1.0304    3.1488   -0.3085 H   0  0  0  0  0  0  0  0  0  0  0  0
  1  2  1  0  0  0  0
  2  3  1  0  0  0  0
  2  4  1  0  0  0  0
  2  5  1  0  0  0  0
  5  6  2  0  0  0  0
  5  7  1  0  0  0  0
  7  8  1  0  0  0  0
  7  9  1  0  0  0  0
  9 10  1  0  0  0  0
  9 11  1  0  0  0  0
  9 29  1  0  0  0  0
 11 12  1  0  0  0  0
 11 13  1  0  0  0  0
 11 14  1  0  0  0  0
 14 15  2  0  0  0  0
 14 28  1  0  0  0  0
 15 16  1  0  0  0  0
 15 17  1  0  0  0  0
 17 18  1  0  0  0  0
 17 19  1  0  0  0  0
 19 20  1  0  0  0  0
 19 28  2  0  0  0  0
 20 21  1  0  0  0  0
 20 22  2  0  0  0  0
 22 23  1  0  0  0  0
 22 24  1  0  0  0  0
 24 25  1  0  0  0  0
 24 26  2  0  0  0  0
 26 27  1  0  0  0  0
 26 28  1  0  0  0  0
 29 30  2  0  0  0  0
 29 31  1  0  0  0  0
 31 32  1  0  0  0  0
 31 33  1  0  0  0  0
 33 34  1  0  0  0  0
 33 35  1  0  0  0  0
 33 36  1  0  0  0  0
M  END
$$$$

  -OEChem-03222214083D

 36 37  0     1  0  0  0  0  0999 V2000
   -2.9636   -4.6110    2.3160 H   0  0  0  0  0  0  0  0  0  0  0  0
   -3.1930   -3.8157    1.6011 C   0  0  0  0  0  0  0  0  0  0  0  0
   -3.9296   -3.1424    2.0456 H   0  0  0  0  0  0  0  0  0  0  0  0
   -3.6161   -4.2648    0.6991 H   0  0  0  0  0  0  0  0  0  0  0  0
   -1.9324   -3.0479    1.2522 C   0  0  0  0  0  0  0  0  0  0  0  0
   -0.8720   -3.3401    1.7828 O   0  0  0  0  0  0  0  0  0  0  0  0
   -1.9914   -2.0149    0.3427 N   0  0  0  0  0  0  0  0  0  0  0  0
   -2.9136   -1.7054    0.0517 H   0  0  0  0  0  0  0  0  0  0  0  0
   -0.8706   -1.1298    0.0158 C   0  0  1  0  0  0  0  0  0  0  0  0
   -0.1285   -1.1846    0.8188 H   0  0  0  0  0  0  0  0  0  0  0  0
   -0.1530   -1.5120   -1.2934 C   0  0  0  0  0  0  0  0  0  0  0  0
    0.5585   -0.7122   -1.5238 H   0  0  0  0  0  0  0  0  0  0  0  0
    0.4388   -2.4009   -1.0515 H   0  0  0  0  0  0  0  0  0  0  0  0
   -0.8983   -1.8618   -2.5787 C   0  0  0  0  0  0  0  0  0  0  0  0
   -0.1439   -1.8749   -3.7319 C   0  0  0  0  0  0  0  0  0  0  0  0
    0.9297   -1.7066   -3.7780 H   0  0  0  0  0  0  0  0  0  0  0  0
   -0.9638   -2.1811   -4.8051 N   0  0  0  0  0  0  0  0  0  0  0  0
   -0.6651   -2.2746   -5.7734 H   0  0  0  0  0  0  0  0  0  0  0  0
   -2.2689   -2.2877   -4.3764 C   0  0  0  0  0  0  0  0  0  0  0  0
   -3.4090   -2.5369   -5.1392 C   0  0  0  0  0  0  0  0  0  0  0  0
   -3.3269   -2.7173   -6.2051 H   0  0  0  0  0  0  0  0  0  0  0  0
   -4.6577   -2.5323   -4.5140 C   0  0  0  0  0  0  0  0  0  0  0  0
   -5.5582   -2.7195   -5.0911 H   0  0  0  0  0  0  0  0  0  0  0  0
   -4.7421   -2.2553   -3.1458 C   0  0  0  0  0  0  0  0  0  0  0  0
   -5.7137   -2.2152   -2.6625 H   0  0  0  0  0  0  0  0  0  0  0  0
   -3.5818   -2.0072   -2.3981 C   0  0  0  0  0  0  0  0  0  0  0  0
   -3.7136   -1.7448   -1.3628 H   0  0  0  0  0  0  0  0  0  0  0  0
   -2.3102   -2.0560   -2.9976 C   0  0  0  0  0  0  0  0  0  0  0  0
   -1.3486    0.3357   -0.0210 C   0  0  0  0  0  0  0  0  0  0  0  0
   -2.4734    0.6082   -0.4263 O   0  0  0  0  0  0  0  0  0  0  0  0
   -0.6008    1.3270    0.5895 N   0  0  0  0  0  0  0  0  0  0  0  0
    0.2796    1.0566    1.0181 H   0  0  0  0  0  0  0  0  0  0  0  0
   -1.0603    2.7035    0.7318 C   0  0  0  0  0  0  0  0  0  0  0  0
   -1.9561    2.7447    1.3602 H   0  0  0  0  0  0  0  0  0  0  0  0
   -0.2820    3.3160    1.1973 H   0  0  0  0  0  0  0  0  0  0  0  0
   -1.2965    3.1327   -0.2478 H   0  0  0  0  0  0  0  0  0  0  0  0
  1  2  1  0  0  0  0
  2  3  1  0  0  0  0
  2  4  1  0  0  0  0
  2  5  1  0  0  0  0
  5  6  2  0  0  0  0
  5  7  1  0  0  0  0
  7  8  1  0  0  0  0
  7  9  1  0  0  0  0
  9 10  1  0  0  0  0
  9 11  1  0  0  0  0
  9 29  1  0  0  0  0
 11 12  1  0  0  0  0
 11 13  1  0  0  0  0
 11 14  1  0  0  0  0
 14 15  2  0  0  0  0
 14 28  1  0  0  0  0
 15 16  1  0  0  0  0
 15 17  1  0  0  0  0
 17 18  1  0  0  0  0
 17 19  1  0  0  0  0
 19 20  1  0  0  0  0
 19 28  2  0  0  0  0
 20 21  1  0  0  0  0
 20 22  2  0  0  0  0
 22 23  1  0  0  0  0
 22 24  1  0  0  0  0
 24 25  1  0  0  0  0
 24 26  2  0  0  0  0
 26 27  1  0  0  0  0
 26 28  1  0  0  0  0
 29 30  2  0  0  0  0
 29 31  1  0  0  0  0
 31 32  1  0  0  0  0
 31 33  1  0  0  0  0
 33 34  1  0  0  0  0
 33 35  1  0  0  0  0
 33 36  1  0  0  0  0
M  END
$$$$

  -OEChem-03222214083D

 36 37  0     1  0  0  0  0  0999 V2000
   -3.5139   -4.6016    1.5709 H   0  0  0  0  0  0  0  0  0  0  0  0
   -3.5820   -3.7761    0.8570 C   0  0  0  0  0  0  0  0  0  0  0  0
   -4.4651   -3.1777    1.0936 H   0  0  0  0  0  0  0  0  0  0  0  0
   -3.6879   -4.1875   -0.1499 H   0  0  0  0  0  0  0  0  0  0  0  0
   -2.3368   -2.9130    0.9334 C   0  0  0  0  0  0  0  0  0  0  0  0
   -1.4115   -3.2351    1.6624 O   0  0  0  0  0  0  0  0  0  0  0  0
   -2.2526   -1.7758    0.1596 N   0  0  0  0  0  0  0  0  0  0  0  0
   -3.0157   -1.6041   -0.4879 H   0  0  0  0  0  0  0  0  0  0  0  0
   -1.0703   -0.9076    0.0518 C   0  0  1  0  0  0  0  0  0  0  0  0
   -0.4585   -1.1016    0.9380 H   0  0  0  0  0  0  0  0  0  0  0  0
   -0.1957   -1.3217   -1.1422 C   0  0  0  0  0  0  0  0  0  0  0  0
    0.6926   -0.6818   -1.1359 H   0  0  0  0  0  0  0  0  0  0  0  0
    0.1470   -2.3429   -0.9454 H   0  0  0  0  0  0  0  0  0  0  0  0
   -0.7601   -1.3060   -2.5553 C   0  0  0  0  0  0  0  0  0  0  0  0
    0.0787   -1.6877   -3.5782 C   0  0  0  0  0  0  0  0  0  0  0  0
    1.1265   -1.9553   -3.4622 H   0  0  0  0  0  0  0  0  0  0  0  0
   -0.6393   -1.6953   -4.7638 N   0  0  0  0  0  0  0  0  0  0  0  0
   -0.2693   -1.9387   -5.6801 H   0  0  0  0  0  0  0  0  0  0  0  0
   -1.9498   -1.3411   -4.5206 C   0  0  0  0  0  0  0  0  0  0  0  0
   -3.0086   -1.2452   -5.4227 C   0  0  0  0  0  0  0  0  0  0  0  0
   -2.8547   -1.4603   -6.4742 H   0  0  0  0  0  0  0  0  0  0  0  0
   -4.2690   -0.8666   -4.9528 C   0  0  0  0  0  0  0  0  0  0  0  0
   -5.1059   -0.7833   -5.6397 H   0  0  0  0  0  0  0  0  0  0  0  0
   -4.4449   -0.5862   -3.5936 C   0  0  0  0  0  0  0  0  0  0  0  0
   -5.4188   -0.2767   -3.2266 H   0  0  0  0  0  0  0  0  0  0  0  0
   -3.3677   -0.6886   -2.7022 C   0  0  0  0  0  0  0  0  0  0  0  0
   -3.5525   -0.4415   -1.6684 H   0  0  0  0  0  0  0  0  0  0  0  0
   -2.0949   -1.0771   -3.1558 C   0  0  0  0  0  0  0  0  0  0  0  0
   -1.3338    0.6133    0.1321 C   0  0  0  0  0  0  0  0  0  0  0  0
   -2.3500    1.1198   -0.3231 O   0  0  0  0  0  0  0  0  0  0  0  0
   -0.5143    1.4032    0.9208 N   0  0  0  0  0  0  0  0  0  0  0  0
    0.2647    0.9510    1.3904 H   0  0  0  0  0  0  0  0  0  0  0  0
   -0.7696    2.8148    1.1835 C   0  0  0  0  0  0  0  0  0  0  0  0
   -1.7285    2.9420    1.6969 H   0  0  0  0  0  0  0  0  0  0  0  0
    0.0200    3.2306    1.8168 H   0  0  0  0  0  0  0  0  0  0  0  0
   -0.7937    3.3803    0.2461 H   0  0  0  0  0  0  0  0  0  0  0  0
  1  2  1  0  0  0  0
  2  3  1  0  0  0  0
  2  4  1  0  0  0  0
  2  5  1  0  0  0  0
  5  6  2  0  0  0  0
  5  7  1  0  0  0  0
  7  8  1  0  0  0  0
  7  9  1  0  0  0  0
  9 10  1  0  0  0  0
  9 11  1  0  0  0  0
  9 29  1  0  0  0  0
 11 12  1  0  0  0  0
 11 13  1  0  0  0  0
 11 14  1  0  0  0  0
 14 15  2  0  0  0  0
 14 28  1  0  0  0  0
 15 16  1  0  0  0  0
 15 17  1  0  0  0  0
 17 18  1  0  0  0  0
 17 19  1  0  0  0  0
 19 20  1  0  0  0  0
 19 28  2  0  0  0  0
 20 21  1  0  0  0  0
 20 22  2  0  0  0  0
 22 23  1  0  0  0  0
 22 24  1  0  0  0  0
 24 25  1  0  0  0  0
 24 26  2  0  0  0  0
 26 27  1  0  0  0  0
 26 28  1  0  0  0  0
 29 30  2  0  0  0  0
 29 31  1  0  0  0  0
 31 32  1  0  0  0  0
 31 33  1  0  0  0  0
 33 34  1  0  0  0  0
 33 35  1  0  0  0  0
 33 36  1  0  0  0  0
M  END
$$$$

  -OEChem-03222214083D

 36 37  0     1  0  0  0  0  0999 V2000
   -3.4445   -4.5972    1.4350 H   0  0  0  0  0  0  0  0  0  0  0  0
   -3.5736   -3.7117    0.8068 C   0  0  0  0  0  0  0  0  0  0  0  0
   -4.4216   -3.1339    1.1822 H   0  0  0  0  0  0  0  0  0  0  0  0
   -3.7838   -4.0326   -0.2164 H   0  0  0  0  0  0  0  0  0  0  0  0
   -2.3167   -2.8632    0.8328 C   0  0  0  0  0  0  0  0  0  0  0  0
   -1.3404   -3.2354    1.4655 O   0  0  0  0  0  0  0  0  0  0  0  0
   -2.2797   -1.6824    0.1225 N   0  0  0  0  0  0  0  0  0  0  0  0
   -3.1106   -1.4310   -0.4068 H   0  0  0  0  0  0  0  0  0  0  0  0
   -1.1183   -0.7863    0.0185 C   0  0  1  0  0  0  0  0  0  0  0  0
   -0.5173   -1.0005    0.9077 H   0  0  0  0  0  0  0  0  0  0  0  0
   -0.1899   -1.1729   -1.1458 C   0  0  0  0  0  0  0  0  0  0  0  0
    0.6624   -0.4866   -1.1220 H   0  0  0  0  0  0  0  0  0  0  0  0
    0.2011   -2.1717   -0.9227 H   0  0  0  0  0  0  0  0  0  0  0  0
   -0.6994   -1.1966   -2.5787 C   0  0  0  0  0  0  0  0  0  0  0  0
    0.0764   -1.8411   -3.5168 C   0  0  0  0  0  0  0  0  0  0  0  0
    1.0526   -2.2814   -3.3251 H   0  0  0  0  0  0  0  0  0  0  0  0
   -0.5876   -1.8276   -4.7337 N   0  0  0  0  0  0  0  0  0  0  0  0
   -0.2398   -2.2261   -5.6034 H   0  0  0  0  0  0  0  0  0  0  0  0
   -1.8227   -1.2321   -4.5850 C   0  0  0  0  0  0  0  0  0  0  0  0
   -2.8257   -1.0461   -5.5359 C   0  0  0  0  0  0  0  0  0  0  0  0
   -2.6759   -1.3642   -6.5617 H   0  0  0  0  0  0  0  0  0  0  0  0
   -4.0287   -0.4508   -5.1461 C   0  0  0  0  0  0  0  0  0  0  0  0
   -4.8222   -0.2953   -5.8709 H   0  0  0  0  0  0  0  0  0  0  0  0
   -4.2093   -0.0647   -3.8134 C   0  0  0  0  0  0  0  0  0  0  0  0
   -5.1446    0.3911   -3.5024 H   0  0  0  0  0  0  0  0  0  0  0  0
   -3.1880   -0.2618   -2.8733 C   0  0  0  0  0  0  0  0  0  0  0  0
   -3.3782    0.0325   -1.8553 H   0  0  0  0  0  0  0  0  0  0  0  0
   -1.9648   -0.8343   -3.2530 C   0  0  0  0  0  0  0  0  0  0  0  0
   -1.3783    0.7285    0.1899 C   0  0  0  0  0  0  0  0  0  0  0  0
   -2.4499    1.2380   -0.1068 O   0  0  0  0  0  0  0  0  0  0  0  0
   -0.5229    1.4713    0.9869 N   0  0  0  0  0  0  0  0  0  0  0  0
    0.2981    1.0021    1.3574 H   0  0  0  0  0  0  0  0  0  0  0  0
   -0.7936    2.8421    1.4046 C   0  0  0  0  0  0  0  0  0  0  0  0
   -1.6833    2.8800    2.0420 H   0  0  0  0  0  0  0  0  0  0  0  0
    0.0549    3.2392    1.9701 H   0  0  0  0  0  0  0  0  0  0  0  0
   -0.9562    3.4843    0.5325 H   0  0  0  0  0  0  0  0  0  0  0  0
  1  2  1  0  0  0  0
  2  3  1  0  0  0  0
  2  4  1  0  0  0  0
  2  5  1  0  0  0  0
  5  6  2  0  0  0  0
  5  7  1  0  0  0  0
  7  8  1  0  0  0  0
  7  9  1  0  0  0  0
  9 10  1  0  0  0  0
  9 11  1  0  0  0  0
  9 29  1  0  0  0  0
 11 12  1  0  0  0  0
 11 13  1  0  0  0  0
 11 14  1  0  0  0  0
 14 15  2  0  0  0  0
 14 28  1  0  0  0  0
 15 16  1  0  0  0  0
 15 17  1  0  0  0  0
 17 18  1  0  0  0  0
 17 19  1  0  0  0  0
 19 20  1  0  0  0  0
 19 28  2  0  0  0  0
 20 21  1  0  0  0  0
 20 22  2  0  0  0  0
 22 23  1  0  0  0  0
 22 24  1  0  0  0  0
 24 25  1  0  0  0  0
 24 26  2  0  0  0  0
 26 27  1  0  0  0  0
 26 28  1  0  0  0  0
 29 30  2  0  0  0  0
 29 31  1  0  0  0  0
 31 32  1  0  0  0  0
 31 33  1  0  0  0  0
 33 34  1  0  0  0  0
 33 35  1  0  0  0  0
 33 36  1  0  0  0  0
M  END
$$$$

  -OEChem-03222214083D

 36 37  0     1  0  0  0  0  0999 V2000
   -3.3344   -4.6016    1.7151 H   0  0  0  0  0  0  0  0  0  0  0  0
   -3.5134   -3.7171    1.0975 C   0  0  0  0  0  0  0  0  0  0  0  0
   -4.2550   -3.0860    1.5932 H   0  0  0  0  0  0  0  0  0  0  0  0
   -3.9056   -4.0359    0.1286 H   0  0  0  0  0  0  0  0  0  0  0  0
   -2.2226   -2.9446    0.9033 C   0  0  0  0  0  0  0  0  0  0  0  0
   -1.1780   -3.3696    1.3731 O   0  0  0  0  0  0  0  0  0  0  0  0
   -2.2330   -1.7671    0.1880 N   0  0  0  0  0  0  0  0  0  0  0  0
   -3.1332   -1.4257   -0.1436 H   0  0  0  0  0  0  0  0  0  0  0  0
   -1.0757   -0.8830   -0.0103 C   0  0  1  0  0  0  0  0  0  0  0  0
   -0.4093   -1.0835    0.8348 H   0  0  0  0  0  0  0  0  0  0  0  0
   -0.2398   -1.3125   -1.2331 C   0  0  0  0  0  0  0  0  0  0  0  0
    0.6125   -0.6286   -1.2903 H   0  0  0  0  0  0  0  0  0  0  0  0
    0.1659   -2.3048   -1.0079 H   0  0  0  0  0  0  0  0  0  0  0  0
   -0.8493   -1.3611   -2.6271 C   0  0  0  0  0  0  0  0  0  0  0  0
   -0.3403   -2.2932   -3.5048 C   0  0  0  0  0  0  0  0  0  0  0  0
    0.4290   -3.0237   -3.2636 H   0  0  0  0  0  0  0  0  0  0  0  0
   -0.9867   -2.1632   -4.7239 N   0  0  0  0  0  0  0  0  0  0  0  0
   -0.8178   -2.7354   -5.5484 H   0  0  0  0  0  0  0  0  0  0  0  0
   -1.8753   -1.1106   -4.6703 C   0  0  0  0  0  0  0  0  0  0  0  0
   -2.7041   -0.6130   -5.6755 C   0  0  0  0  0  0  0  0  0  0  0  0
   -2.7284   -1.0850   -6.6513 H   0  0  0  0  0  0  0  0  0  0  0  0
   -3.4946    0.5085   -5.4097 C   0  0  0  0  0  0  0  0  0  0  0  0
   -4.1471    0.9125   -6.1780 H   0  0  0  0  0  0  0  0  0  0  0  0
   -3.4275    1.1188   -4.1525 C   0  0  0  0  0  0  0  0  0  0  0  0
   -4.0247    2.0018   -3.9450 H   0  0  0  0  0  0  0  0  0  0  0  0
   -2.5863    0.6021   -3.1569 C   0  0  0  0  0  0  0  0  0  0  0  0
   -2.5416    1.1250   -2.2179 H   0  0  0  0  0  0  0  0  0  0  0  0
   -1.8139   -0.5440   -3.3939 C   0  0  0  0  0  0  0  0  0  0  0  0
   -1.3852    0.6137    0.1923 C   0  0  0  0  0  0  0  0  0  0  0  0
   -2.5384    1.0183    0.0962 O   0  0  0  0  0  0  0  0  0  0  0  0
   -0.5073    1.3928    0.9274 N   0  0  0  0  0  0  0  0  0  0  0  0
    0.3846    0.9786    1.1818 H   0  0  0  0  0  0  0  0  0  0  0  0
   -0.8432    2.7094    1.4578 C   0  0  0  0  0  0  0  0  0  0  0  0
   -1.6374    2.6291    2.2074 H   0  0  0  0  0  0  0  0  0  0  0  0
    0.0343    3.1620    1.9296 H   0  0  0  0  0  0  0  0  0  0  0  0
   -1.1813    3.3721    0.6541 H   0  0  0  0  0  0  0  0  0  0  0  0
  1  2  1  0  0  0  0
  2  3  1  0  0  0  0
  2  4  1  0  0  0  0
  2  5  1  0  0  0  0
  5  6  2  0  0  0  0
  5  7  1  0  0  0  0
  7  8  1  0  0  0  0
  7  9  1  0  0  0  0
  9 10  1  0  0  0  0
  9 11  1  0  0  0  0
  9 29  1  0  0  0  0
 11 12  1  0  0  0  0
 11 13  1  0  0  0  0
 11 14  1  0  0  0  0
 14 15  2  0  0  0  0
 14 28  1  0  0  0  0
 15 16  1  0  0  0  0
 15 17  1  0  0  0  0
 17 18  1  0  0  0  0
 17 19  1  0  0  0  0
 19 20  1  0  0  0  0
 19 28  2  0  0  0  0
 20 21  1  0  0  0  0
 20 22  2  0  0  0  0
 22 23  1  0  0  0  0
 22 24  1  0  0  0  0
 24 25  1  0  0  0  0
 24 26  2  0  0  0  0
 26 27  1  0  0  0  0
 26 28  1  0  0  0  0
 29 30  2  0  0  0  0
 29 31  1  0  0  0  0
 31 32  1  0  0  0  0
 31 33  1  0  0  0  0
 33 34  1  0  0  0  0
 33 35  1  0  0  0  0
 33 36  1  0  0  0  0
M  END
$$$$

  -OEChem-03222214083D

 36 37  0     1  0  0  0  0  0999 V2000
   -3.5004   -4.7688    1.5006 H   0  0  0  0  0  0  0  0  0  0  0  0
   -3.6125   -3.9073    0.8365 C   0  0  0  0  0  0  0  0  0  0  0  0
   -4.4244   -3.2786    1.2099 H   0  0  0  0  0  0  0  0  0  0  0  0
   -3.8681   -4.2634   -0.1645 H   0  0  0  0  0  0  0  0  0  0  0  0
   -2.3220   -3.1116    0.7889 C   0  0  0  0  0  0  0  0  0  0  0  0
   -1.3345   -3.5078    1.3887 O   0  0  0  0  0  0  0  0  0  0  0  0
   -2.2667   -1.9424    0.0635 N   0  0  0  0  0  0  0  0  0  0  0  0
   -3.1251   -1.6195   -0.3808 H   0  0  0  0  0  0  0  0  0  0  0  0
   -1.1196   -1.0246    0.0176 C   0  0  1  0  0  0  0  0  0  0  0  0
   -0.5207   -1.2045    0.9160 H   0  0  0  0  0  0  0  0  0  0  0  0
   -0.1978   -1.3906   -1.1641 C   0  0  0  0  0  0  0  0  0  0  0  0
    0.6533   -0.7030   -1.1468 H   0  0  0  0  0  0  0  0  0  0  0  0
    0.1991   -2.3943   -0.9773 H   0  0  0  0  0  0  0  0  0  0  0  0
   -0.7822   -1.3496   -2.5641 C   0  0  0  0  0  0  0  0  0  0  0  0
   -0.5357   -2.3862   -3.4359 C   0  0  0  0  0  0  0  0  0  0  0  0
   -0.0215   -3.3101   -3.1799 H   0  0  0  0  0  0  0  0  0  0  0  0
   -1.0760   -2.0646   -4.6729 N   0  0  0  0  0  0  0  0  0  0  0  0
   -1.0527   -2.6559   -5.5007 H   0  0  0  0  0  0  0  0  0  0  0  0
   -1.5766   -0.7787   -4.6453 C   0  0  0  0  0  0  0  0  0  0  0  0
   -2.1447   -0.0255   -5.6724 C   0  0  0  0  0  0  0  0  0  0  0  0
   -2.2928   -0.4606   -6.6544 H   0  0  0  0  0  0  0  0  0  0  0  0
   -2.5037    1.3029   -5.4219 C   0  0  0  0  0  0  0  0  0  0  0  0
   -2.9476    1.9063   -6.2078 H   0  0  0  0  0  0  0  0  0  0  0  0
   -2.2655    1.8597   -4.1596 C   0  0  0  0  0  0  0  0  0  0  0  0
   -2.5191    2.8978   -3.9674 H   0  0  0  0  0  0  0  0  0  0  0  0
   -1.6928    1.0862   -3.1400 C   0  0  0  0  0  0  0  0  0  0  0  0
   -1.4874    1.5610   -2.1911 H   0  0  0  0  0  0  0  0  0  0  0  0
   -1.3783   -0.2628   -3.3638 C   0  0  0  0  0  0  0  0  0  0  0  0
   -1.5607    0.4439    0.1593 C   0  0  0  0  0  0  0  0  0  0  0  0
   -2.6843    0.7851   -0.1954 O   0  0  0  0  0  0  0  0  0  0  0  0
   -0.8650    1.2929    1.0025 N   0  0  0  0  0  0  0  0  0  0  0  0
   -0.0081    0.9415    1.4198 H   0  0  0  0  0  0  0  0  0  0  0  0
   -1.3536    2.6072    1.4027 C   0  0  0  0  0  0  0  0  0  0  0  0
   -2.2995    2.5149    1.9467 H   0  0  0  0  0  0  0  0  0  0  0  0
   -0.6256    3.0984    2.0554 H   0  0  0  0  0  0  0  0  0  0  0  0
   -1.5124    3.2412    0.5242 H   0  0  0  0  0  0  0  0  0  0  0  0
  1  2  1  0  0  0  0
  2  3  1  0  0  0  0
  2  4  1  0  0  0  0
  2  5  1  0  0  0  0
  5  6  2  0  0  0  0
  5  7  1  0  0  0  0
  7  8  1  0  0  0  0
  7  9  1  0  0  0  0
  9 10  1  0  0  0  0
  9 11  1  0  0  0  0
  9 29  1  0  0  0  0
 11 12  1  0  0  0  0
 11 13  1  0  0  0  0
 11 14  1  0  0  0  0
 14 15  2  0  0  0  0
 14 28  1  0  0  0  0
 15 16  1  0  0  0  0
 15 17  1  0  0  0  0
 17 18  1  0  0  0  0
 17 19  1  0  0  0  0
 19 20  1  0  0  0  0
 19 28  2  0  0  0  0
 20 21  1  0  0  0  0
 20 22  2  0  0  0  0
 22 23  1  0  0  0  0
 22 24  1  0  0  0  0
 24 25  1  0  0  0  0
 24 26  2  0  0  0  0
 26 27  1  0  0  0  0
 26 28  1  0  0  0  0
 29 30  2  0  0  0  0
 29 31  1  0  0  0  0
 31 32  1  0  0  0  0
 31 33  1  0  0  0  0
 33 34  1  0  0  0  0
 33 35  1  0  0  0  0
 33 36  1  0  0  0  0
M  END
$$$$

  -OEChem-03222214083D

 36 37  0     1  0  0  0  0  0999 V2000
   -3.5116   -4.6459    1.5917 H   0  0  0  0  0  0  0  0  0  0  0  0
   -3.5950   -3.8131    0.8880 C   0  0  0  0  0  0  0  0  0  0  0  0
   -4.4111   -3.1612    1.2090 H   0  0  0  0  0  0  0  0  0  0  0  0
   -3.8240   -4.2100   -0.1040 H   0  0  0  0  0  0  0  0  0  0  0  0
   -2.2949   -3.0327    0.8446 C   0  0  0  0  0  0  0  0  0  0  0  0
   -1.3331   -3.4047    1.4986 O   0  0  0  0  0  0  0  0  0  0  0  0
   -2.1998   -1.9094    0.0541 N   0  0  0  0  0  0  0  0  0  0  0  0
   -3.0384   -1.6032   -0.4376 H   0  0  0  0  0  0  0  0  0  0  0  0
   -1.0412   -1.0070   -0.0060 C   0  0  1  0  0  0  0  0  0  0  0  0
   -0.4544   -1.1479    0.9072 H   0  0  0  0  0  0  0  0  0  0  0  0
   -0.1185   -1.4097   -1.1735 C   0  0  0  0  0  0  0  0  0  0  0  0
    0.7486   -0.7422   -1.1789 H   0  0  0  0  0  0  0  0  0  0  0  0
    0.2554   -2.4200   -0.9778 H   0  0  0  0  0  0  0  0  0  0  0  0
   -0.7449   -1.3745   -2.5505 C   0  0  0  0  0  0  0  0  0  0  0  0
   -0.8357   -2.4955   -3.3425 C   0  0  0  0  0  0  0  0  0  0  0  0
   -0.5569   -3.5021   -3.0386 H   0  0  0  0  0  0  0  0  0  0  0  0
   -1.3480   -2.1161   -4.5777 N   0  0  0  0  0  0  0  0  0  0  0  0
   -1.5299   -2.7413   -5.3596 H   0  0  0  0  0  0  0  0  0  0  0  0
   -1.5141   -0.7442   -4.6208 C   0  0  0  0  0  0  0  0  0  0  0  0
   -1.9483    0.0829   -5.6565 C   0  0  0  0  0  0  0  0  0  0  0  0
   -2.2537   -0.3423   -6.6058 H   0  0  0  0  0  0  0  0  0  0  0  0
   -1.9761    1.4683   -5.4555 C   0  0  0  0  0  0  0  0  0  0  0  0
   -2.3157    2.1273   -6.2490 H   0  0  0  0  0  0  0  0  0  0  0  0
   -1.5542    2.0050   -4.2315 C   0  0  0  0  0  0  0  0  0  0  0  0
   -1.5660    3.0794   -4.0770 H   0  0  0  0  0  0  0  0  0  0  0  0
   -1.1182    1.1603   -3.2012 C   0  0  0  0  0  0  0  0  0  0  0  0
   -0.7821    1.5930   -2.2673 H   0  0  0  0  0  0  0  0  0  0  0  0
   -1.1233   -0.2289   -3.3867 C   0  0  0  0  0  0  0  0  0  0  0  0
   -1.4795    0.4693    0.0332 C   0  0  0  0  0  0  0  0  0  0  0  0
   -2.5594    0.8079   -0.4382 O   0  0  0  0  0  0  0  0  0  0  0  0
   -0.8122    1.3671    0.8480 N   0  0  0  0  0  0  0  0  0  0  0  0
    0.0073    1.0312    1.3456 H   0  0  0  0  0  0  0  0  0  0  0  0
   -1.2857    2.7218    1.1059 C   0  0  0  0  0  0  0  0  0  0  0  0
   -2.2628    2.6991    1.5997 H   0  0  0  0  0  0  0  0  0  0  0  0
   -0.5818    3.2505    1.7556 H   0  0  0  0  0  0  0  0  0  0  0  0
   -1.3770    3.2814    0.1690 H   0  0  0  0  0  0  0  0  0  0  0  0
  1  2  1  0  0  0  0
  2  3  1  0  0  0  0
  2  4  1  0  0  0  0
  2  5  1  0  0  0  0
  5  6  2  0  0  0  0
  5  7  1  0  0  0  0
  7  8  1  0  0  0  0
  7  9  1  0  0  0  0
  9 10  1  0  0  0  0
  9 11  1  0  0  0  0
  9 29  1  0  0  0  0
 11 12  1  0  0  0  0
 11 13  1  0  0  0  0
 11 14  1  0  0  0  0
 14 15  2  0  0  0  0
 14 28  1  0  0  0  0
 15 16  1  0  0  0  0
 15 17  1  0  0  0  0
 17 18  1  0  0  0  0
 17 19  1  0  0  0  0
 19 20  1  0  0  0  0
 19 28  2  0  0  0  0
 20 21  1  0  0  0  0
 20 22  2  0  0  0  0
 22 23  1  0  0  0  0
 22 24  1  0  0  0  0
 24 25  1  0  0  0  0
 24 26  2  0  0  0  0
 26 27  1  0  0  0  0
 26 28  1  0  0  0  0
 29 30  2  0  0  0  0
 29 31  1  0  0  0  0
 31 32  1  0  0  0  0
 31 33  1  0  0  0  0
 33 34  1  0  0  0  0
 33 35  1  0  0  0  0
 33 36  1  0  0  0  0
M  END
$$$$

  -OEChem-03222214083D

 36 37  0     1  0  0  0  0  0999 V2000
   -3.5974   -4.5864    1.5521 H   0  0  0  0  0  0  0  0  0  0  0  0
   -3.6434   -3.7679    0.8283 C   0  0  0  0  0  0  0  0  0  0  0  0
   -4.4630   -3.0995    1.1032 H   0  0  0  0  0  0  0  0  0  0  0  0
   -3.8382   -4.1839   -0.1631 H   0  0  0  0  0  0  0  0  0  0  0  0
   -2.3341   -3.0027    0.8197 C   0  0  0  0  0  0  0  0  0  0  0  0
   -1.4104   -3.3604    1.5336 O   0  0  0  0  0  0  0  0  0  0  0  0
   -2.1862   -1.9104   -0.0054 N   0  0  0  0  0  0  0  0  0  0  0  0
   -2.9978   -1.6057   -0.5416 H   0  0  0  0  0  0  0  0  0  0  0  0
   -1.0160   -1.0211   -0.0301 C   0  0  1  0  0  0  0  0  0  0  0  0
   -0.4701   -1.1428    0.9104 H   0  0  0  0  0  0  0  0  0  0  0  0
   -0.0512   -1.4330   -1.1566 C   0  0  0  0  0  0  0  0  0  0  0  0
    0.8295   -0.7839   -1.1353 H   0  0  0  0  0  0  0  0  0  0  0  0
    0.2941   -2.4521   -0.9548 H   0  0  0  0  0  0  0  0  0  0  0  0
   -0.6543   -1.3860   -2.5396 C   0  0  0  0  0  0  0  0  0  0  0  0
   -1.0326   -2.4959   -3.2568 C   0  0  0  0  0  0  0  0  0  0  0  0
   -0.9932   -3.5211   -2.8953 H   0  0  0  0  0  0  0  0  0  0  0  0
   -1.4603   -2.0697   -4.5109 N   0  0  0  0  0  0  0  0  0  0  0  0
   -1.8002   -2.6739   -5.2557 H   0  0  0  0  0  0  0  0  0  0  0  0
   -1.3225   -0.6964   -4.6222 C   0  0  0  0  0  0  0  0  0  0  0  0
   -1.5865    0.1710   -5.6823 C   0  0  0  0  0  0  0  0  0  0  0  0
   -1.9838   -0.2112   -6.6158 H   0  0  0  0  0  0  0  0  0  0  0  0
   -1.3275    1.5394   -5.5255 C   0  0  0  0  0  0  0  0  0  0  0  0
   -1.5310    2.2278   -6.3403 H   0  0  0  0  0  0  0  0  0  0  0  0
   -0.8037    2.0201   -4.3163 C   0  0  0  0  0  0  0  0  0  0  0  0
   -0.6034    3.0800   -4.1950 H   0  0  0  0  0  0  0  0  0  0  0  0
   -0.5406    1.1372   -3.2593 C   0  0  0  0  0  0  0  0  0  0  0  0
   -0.1365    1.5130   -2.3261 H   0  0  0  0  0  0  0  0  0  0  0  0
   -0.8124   -0.2271   -3.4157 C   0  0  0  0  0  0  0  0  0  0  0  0
   -1.4397    0.4607   -0.0683 C   0  0  0  0  0  0  0  0  0  0  0  0
   -2.4739    0.7961   -0.6343 O   0  0  0  0  0  0  0  0  0  0  0  0
   -0.8104    1.3806    0.7523 N   0  0  0  0  0  0  0  0  0  0  0  0
   -0.0373    1.0502    1.3226 H   0  0  0  0  0  0  0  0  0  0  0  0
   -1.2827    2.7483    0.9306 C   0  0  0  0  0  0  0  0  0  0  0  0
   -2.2861    2.7533    1.3694 H   0  0  0  0  0  0  0  0  0  0  0  0
   -0.6105    3.2961    1.5976 H   0  0  0  0  0  0  0  0  0  0  0  0
   -1.3159    3.2707   -0.0313 H   0  0  0  0  0  0  0  0  0  0  0  0
  1  2  1  0  0  0  0
  2  3  1  0  0  0  0
  2  4  1  0  0  0  0
  2  5  1  0  0  0  0
  5  6  2  0  0  0  0
  5  7  1  0  0  0  0
  7  8  1  0  0  0  0
  7  9  1  0  0  0  0
  9 10  1  0  0  0  0
  9 11  1  0  0  0  0
  9 29  1  0  0  0  0
 11 12  1  0  0  0  0
 11 13  1  0  0  0  0
 11 14  1  0  0  0  0
 14 15  2  0  0  0  0
 14 28  1  0  0  0  0
 15 16  1  0  0  0  0
 15 17  1  0  0  0  0
 17 18  1  0  0  0  0
 17 19  1  0  0  0  0
 19 20  1  0  0  0  0
 19 28  2  0  0  0  0
 20 21  1  0  0  0  0
 20 22  2  0  0  0  0
 22 23  1  0  0  0  0
 22 24  1  0  0  0  0
 24 25  1  0  0  0  0
 24 26  2  0  0  0  0
 26 27  1  0  0  0  0
 26 28  1  0  0  0  0
 29 30  2  0  0  0  0
 29 31  1  0  0  0  0
 31 32  1  0  0  0  0
 31 33  1  0  0  0  0
 33 34  1  0  0  0  0
 33 35  1  0  0  0  0
 33 36  1  0  0  0  0
M  END
$$$$

  -OEChem-03222214083D

 36 37  0     1  0  0  0  0  0999 V2000
   -3.6976   -4.5082    1.5792 H   0  0  0  0  0  0  0  0  0  0  0  0
   -3.7000   -3.7268    0.8139 C   0  0  0  0  0  0  0  0  0  0  0  0
   -4.5097   -3.0256    1.0307 H   0  0  0  0  0  0  0  0  0  0  0  0
   -3.8769   -4.1876   -0.1608 H   0  0  0  0  0  0  0  0  0  0  0  0
   -2.3705   -2.9964    0.8077 C   0  0  0  0  0  0  0  0  0  0  0  0
   -1.4735   -3.3523    1.5553 O   0  0  0  0  0  0  0  0  0  0  0  0
   -2.1770   -1.9332   -0.0463 N   0  0  0  0  0  0  0  0  0  0  0  0
   -2.9725   -1.6181   -0.6003 H   0  0  0  0  0  0  0  0  0  0  0  0
   -0.9956   -1.0577   -0.0484 C   0  0  1  0  0  0  0  0  0  0  0  0
   -0.4829   -1.1613    0.9132 H   0  0  0  0  0  0  0  0  0  0  0  0
    0.0069   -1.4720   -1.1391 C   0  0  0  0  0  0  0  0  0  0  0  0
    0.8945   -0.8341   -1.0881 H   0  0  0  0  0  0  0  0  0  0  0  0
    0.3331   -2.4964   -0.9316 H   0  0  0  0  0  0  0  0  0  0  0  0
   -0.5608   -1.4196   -2.5351 C   0  0  0  0  0  0  0  0  0  0  0  0
   -1.1953   -2.4532   -3.1806 C   0  0  0  0  0  0  0  0  0  0  0  0
   -1.3790   -3.4389   -2.7591 H   0  0  0  0  0  0  0  0  0  0  0  0
   -1.5413   -2.0082   -4.4546 N   0  0  0  0  0  0  0  0  0  0  0  0
   -2.0257   -2.5576   -5.1607 H   0  0  0  0  0  0  0  0  0  0  0  0
   -1.1307   -0.6967   -4.6339 C   0  0  0  0  0  0  0  0  0  0  0  0
   -1.2433    0.1692   -5.7219 C   0  0  0  0  0  0  0  0  0  0  0  0
   -1.7261   -0.1602   -6.6352 H   0  0  0  0  0  0  0  0  0  0  0  0
   -0.7276    1.4688   -5.6171 C   0  0  0  0  0  0  0  0  0  0  0  0
   -0.8110    2.1546   -6.4547 H   0  0  0  0  0  0  0  0  0  0  0  0
   -0.1083    1.8860   -4.4291 C   0  0  0  0  0  0  0  0  0  0  0  0
    0.2843    2.8947   -4.3479 H   0  0  0  0  0  0  0  0  0  0  0  0
    0.0006    1.0060   -3.3429 C   0  0  0  0  0  0  0  0  0  0  0  0
    0.4713    1.3284   -2.4208 H   0  0  0  0  0  0  0  0  0  0  0  0
   -0.5139   -0.2900   -3.4560 C   0  0  0  0  0  0  0  0  0  0  0  0
   -1.4028    0.4263   -0.1518 C   0  0  0  0  0  0  0  0  0  0  0  0
   -2.3991    0.7541   -0.7864 O   0  0  0  0  0  0  0  0  0  0  0  0
   -0.8004    1.3666    0.6654 N   0  0  0  0  0  0  0  0  0  0  0  0
   -0.0516    1.0513    1.2753 H   0  0  0  0  0  0  0  0  0  0  0  0
   -1.2266    2.7589    0.7327 C   0  0  0  0  0  0  0  0  0  0  0  0
   -2.2650    2.8264    1.0736 H   0  0  0  0  0  0  0  0  0  0  0  0
   -0.5954    3.3139    1.4334 H   0  0  0  0  0  0  0  0  0  0  0  0
   -1.1478    3.2303   -0.2526 H   0  0  0  0  0  0  0  0  0  0  0  0
  1  2  1  0  0  0  0
  2  3  1  0  0  0  0
  2  4  1  0  0  0  0
  2  5  1  0  0  0  0
  5  6  2  0  0  0  0
  5  7  1  0  0  0  0
  7  8  1  0  0  0  0
  7  9  1  0  0  0  0
  9 10  1  0  0  0  0
  9 11  1  0  0  0  0
  9 29  1  0  0  0  0
 11 12  1  0  0  0  0
 11 13  1  0  0  0  0
 11 14  1  0  0  0  0
 14 15  2  0  0  0  0
 14 28  1  0  0  0  0
 15 16  1  0  0  0  0
 15 17  1  0  0  0  0
 17 18  1  0  0  0  0
 17 19  1  0  0  0  0
 19 20  1  0  0  0  0
 19 28  2  0  0  0  0
 20 21  1  0  0  0  0
 20 22  2  0  0  0  0
 22 23  1  0  0  0  0
 22 24  1  0  0  0  0
 24 25  1  0  0  0  0
 24 26  2  0  0  0  0
 26 27  1  0  0  0  0
 26 28  1  0  0  0  0
 29 30  2  0  0  0  0
 29 31  1  0  0  0  0
 31 32  1  0  0  0  0
 31 33  1  0  0  0  0
 33 34  1  0  0  0  0
 33 35  1  0  0  0  0
 33 36  1  0  0  0  0
M  END
$$$$

  -OEChem-03222214083D

 36 37  0     1  0  0  0  0  0999 V2000
   -3.7466   -4.4721    1.6016 H   0  0  0  0  0  0  0  0  0  0  0  0
   -3.7367   -3.6957    0.8315 C   0  0  0  0  0  0  0  0  0  0  0  0
   -4.5308   -2.9765    1.0471 H   0  0  0  0  0  0  0  0  0  0  0  0
   -3.9279   -4.1596   -0.1392 H   0  0  0  0  0  0  0  0  0  0  0  0
   -2.3916   -2.9939    0.8151 C   0  0  0  0  0  0  0  0  0  0  0  0
   -1.5038   -3.3561    1.5703 O   0  0  0  0  0  0  0  0  0  0  0  0
   -2.1746   -1.9491   -0.0563 N   0  0  0  0  0  0  0  0  0  0  0  0
   -2.9708   -1.6104   -0.5954 H   0  0  0  0  0  0  0  0  0  0  0  0
   -0.9813   -1.0886   -0.0580 C   0  0  1  0  0  0  0  0  0  0  0  0
   -0.4802   -1.1830    0.9106 H   0  0  0  0  0  0  0  0  0  0  0  0
    0.0346   -1.5063   -1.1355 C   0  0  0  0  0  0  0  0  0  0  0  0
    0.9253   -0.8752   -1.0650 H   0  0  0  0  0  0  0  0  0  0  0  0
    0.3516   -2.5334   -0.9274 H   0  0  0  0  0  0  0  0  0  0  0  0
   -0.5118   -1.4511   -2.5405 C   0  0  0  0  0  0  0  0  0  0  0  0
   -1.3826   -2.3492   -3.1086 C   0  0  0  0  0  0  0  0  0  0  0  0
   -1.7794   -3.2343   -2.6173 H   0  0  0  0  0  0  0  0  0  0  0  0
   -1.6488   -1.9200   -4.4067 N   0  0  0  0  0  0  0  0  0  0  0  0
   -2.2697   -2.3831   -5.0663 H   0  0  0  0  0  0  0  0  0  0  0  0
   -0.9656   -0.7443   -4.6731 C   0  0  0  0  0  0  0  0  0  0  0  0
   -0.9201    0.0631   -5.8098 C   0  0  0  0  0  0  0  0  0  0  0  0
   -1.4899   -0.2042   -6.6925 H   0  0  0  0  0  0  0  0  0  0  0  0
   -0.1336    1.2234   -5.7927 C   0  0  0  0  0  0  0  0  0  0  0  0
   -0.0914    1.8625   -6.6696 H   0  0  0  0  0  0  0  0  0  0  0  0
    0.5944    1.5627   -4.6419 C   0  0  0  0  0  0  0  0  0  0  0  0
    1.1988    2.4646   -4.6300 H   0  0  0  0  0  0  0  0  0  0  0  0
    0.5402    0.7433   -3.5050 C   0  0  0  0  0  0  0  0  0  0  0  0
    1.0963    1.0081   -2.6126 H   0  0  0  0  0  0  0  0  0  0  0  0
   -0.2433   -0.4156   -3.5315 C   0  0  0  0  0  0  0  0  0  0  0  0
   -1.3783    0.3960   -0.1940 C   0  0  0  0  0  0  0  0  0  0  0  0
   -2.3693    0.7125   -0.8433 O   0  0  0  0  0  0  0  0  0  0  0  0
   -0.7827    1.3497    0.6123 N   0  0  0  0  0  0  0  0  0  0  0  0
   -0.0253    1.0498    1.2190 H   0  0  0  0  0  0  0  0  0  0  0  0
   -1.1998    2.7462    0.6398 C   0  0  0  0  0  0  0  0  0  0  0  0
   -2.2434    2.8287    0.9613 H   0  0  0  0  0  0  0  0  0  0  0  0
   -0.5771    3.3135    1.3383 H   0  0  0  0  0  0  0  0  0  0  0  0
   -1.1003    3.1942   -0.3548 H   0  0  0  0  0  0  0  0  0  0  0  0
  1  2  1  0  0  0  0
  2  3  1  0  0  0  0
  2  4  1  0  0  0  0
  2  5  1  0  0  0  0
  5  6  2  0  0  0  0
  5  7  1  0  0  0  0
  7  8  1  0  0  0  0
  7  9  1  0  0  0  0
  9 10  1  0  0  0  0
  9 11  1  0  0  0  0
  9 29  1  0  0  0  0
 11 12  1  0  0  0  0
 11 13  1  0  0  0  0
 11 14  1  0  0  0  0
 14 15  2  0  0  0  0
 14 28  1  0  0  0  0
 15 16  1  0  0  0  0
 15 17  1  0  0  0  0
 17 18  1  0  0  0  0
 17 19  1  0  0  0  0
 19 20  1  0  0  0  0
 19 28  2  0  0  0  0
 20 21  1  0  0  0  0
 20 22  2  0  0  0  0
 22 23  1  0  0  0  0
 22 24  1  0  0  0  0
 24 25  1  0  0  0  0
 24 26  2  0  0  0  0
 26 27  1  0  0  0  0
 26 28  1  0  0  0  0
 29 30  2  0  0  0  0
 29 31  1  0  0  0  0
 31 32  1  0  0  0  0
 31 33  1  0  0  0  0
 33 34  1  0  0  0  0
 33 35  1  0  0  0  0
 33 36  1  0  0  0  0
M  END
$$$$

  -OEChem-03222214083D

 36 37  0     1  0  0  0  0  0999 V2000
   -3.7426   -4.4461    1.6952 H   0  0  0  0  0  0  0  0  0  0  0  0
   -3.7470   -3.6744    0.9202 C   0  0  0  0  0  0  0  0  0  0  0  0
   -4.5124   -2.9341    1.1655 H   0  0  0  0  0  0  0  0  0  0  0  0
   -3.9921   -4.1381   -0.0382 H   0  0  0  0  0  0  0  0  0  0  0  0
   -2.3869   -3.0074    0.8404 C   0  0  0  0  0  0  0  0  0  0  0  0
   -1.4741   -3.3909    1.5538 O   0  0  0  0  0  0  0  0  0  0  0  0
   -2.1870   -1.9656   -0.0388 N   0  0  0  0  0  0  0  0  0  0  0  0
   -3.0083   -1.5902   -0.5120 H   0  0  0  0  0  0  0  0  0  0  0  0
   -0.9873   -1.1138   -0.0644 C   0  0  1  0  0  0  0  0  0  0  0  0
   -0.4702   -1.2089    0.8956 H   0  0  0  0  0  0  0  0  0  0  0  0
    0.0161   -1.5177   -1.1615 C   0  0  0  0  0  0  0  0  0  0  0  0
    0.9000   -0.8784   -1.0843 H   0  0  0  0  0  0  0  0  0  0  0  0
    0.3455   -2.5433   -0.9673 H   0  0  0  0  0  0  0  0  0  0  0  0
   -0.5254   -1.4556   -2.5715 C   0  0  0  0  0  0  0  0  0  0  0  0
   -1.5923   -2.1564   -3.0824 C   0  0  0  0  0  0  0  0  0  0  0  0
   -2.1877   -2.8828   -2.5363 H   0  0  0  0  0  0  0  0  0  0  0  0
   -1.7613   -1.7727   -4.4101 N   0  0  0  0  0  0  0  0  0  0  0  0
   -2.4881   -2.1132   -5.0350 H   0  0  0  0  0  0  0  0  0  0  0  0
   -0.8175   -0.8219   -4.7583 C   0  0  0  0  0  0  0  0  0  0  0  0
   -0.5929   -0.1385   -5.9534 C   0  0  0  0  0  0  0  0  0  0  0  0
   -1.2232   -0.3245   -6.8157 H   0  0  0  0  0  0  0  0  0  0  0  0
    0.4539    0.7909   -6.0223 C   0  0  0  0  0  0  0  0  0  0  0  0
    0.6395    1.3311   -6.9458 H   0  0  0  0  0  0  0  0  0  0  0  0
    1.2597    1.0256   -4.8980 C   0  0  0  0  0  0  0  0  0  0  0  0
    2.0687    1.7475   -4.9532 H   0  0  0  0  0  0  0  0  0  0  0  0
    1.0229    0.3328   -3.7016 C   0  0  0  0  0  0  0  0  0  0  0  0
    1.6449    0.5166   -2.8327 H   0  0  0  0  0  0  0  0  0  0  0  0
   -0.0233   -0.5953   -3.6396 C   0  0  0  0  0  0  0  0  0  0  0  0
   -1.3906    0.3698   -0.1929 C   0  0  0  0  0  0  0  0  0  0  0  0
   -2.4030    0.6772   -0.8139 O   0  0  0  0  0  0  0  0  0  0  0  0
   -0.7825    1.3275    0.5992 N   0  0  0  0  0  0  0  0  0  0  0  0
    0.0004    1.0359    1.1768 H   0  0  0  0  0  0  0  0  0  0  0  0
   -1.2105    2.7204    0.6410 C   0  0  0  0  0  0  0  0  0  0  0  0
   -2.2438    2.7931    0.9961 H   0  0  0  0  0  0  0  0  0  0  0  0
   -0.5707    3.2926    1.3197 H   0  0  0  0  0  0  0  0  0  0  0  0
   -1.1476    3.1700   -0.3555 H   0  0  0  0  0  0  0  0  0  0  0  0
  1  2  1  0  0  0  0
  2  3  1  0  0  0  0
  2  4  1  0  0  0  0
  2  5  1  0  0  0  0
  5  6  2  0  0  0  0
  5  7  1  0  0  0  0
  7  8  1  0  0  0  0
  7  9  1  0  0  0  0
  9 10  1  0  0  0  0
  9 11  1  0  0  0  0
  9 29  1  0  0  0  0
 11 12  1  0  0  0  0
 11 13  1  0  0  0  0
 11 14  1  0  0  0  0
 14 15  2  0  0  0  0
 14 28  1  0  0  0  0
 15 16  1  0  0  0  0
 15 17  1  0  0  0  0
 17 18  1  0  0  0  0
 17 19  1  0  0  0  0
 19 20  1  0  0  0  0
 19 28  2  0  0  0  0
 20 21  1  0  0  0  0
 20 22  2  0  0  0  0
 22 23  1  0  0  0  0
 22 24  1  0  0  0  0
 24 25  1  0  0  0  0
 24 26  2  0  0  0  0
 26 27  1  0  0  0  0
 26 28  1  0  0  0  0
 29 30  2  0  0  0  0
 29 31  1  0  0  0  0
 31 32  1  0  0  0  0
 31 33  1  0  0  0  0
 33 34  1  0  0  0  0
 33 35  1  0  0  0  0
 33 36  1  0  0  0  0
M  END
$$$$

  -OEChem-03222214083D

 36 37  0     1  0  0  0  0  0999 V2000
   -3.7038   -4.4471    1.7769 H   0  0  0  0  0  0  0  0  0  0  0  0
   -3.7308   -3.6818    0.9961 C   0  0  0  0  0  0  0  0  0  0  0  0
   -4.4839   -2.9355    1.2613 H   0  0  0  0  0  0  0  0  0  0  0  0
   -4.0102   -4.1528    0.0505 H   0  0  0  0  0  0  0  0  0  0  0  0
   -2.3713   -3.0222    0.8637 C   0  0  0  0  0  0  0  0  0  0  0  0
   -1.4322   -3.4170    1.5357 O   0  0  0  0  0  0  0  0  0  0  0  0
   -2.2045   -1.9702   -0.0108 N   0  0  0  0  0  0  0  0  0  0  0  0
   -3.0486   -1.5699   -0.4181 H   0  0  0  0  0  0  0  0  0  0  0  0
   -1.0036   -1.1215   -0.0654 C   0  0  1  0  0  0  0  0  0  0  0  0
   -0.4559   -1.2286    0.8763 H   0  0  0  0  0  0  0  0  0  0  0  0
   -0.0310   -1.5028   -1.1997 C   0  0  0  0  0  0  0  0  0  0  0  0
    0.8420   -0.8484   -1.1251 H   0  0  0  0  0  0  0  0  0  0  0  0
    0.3187   -2.5257   -1.0292 H   0  0  0  0  0  0  0  0  0  0  0  0
   -0.5794   -1.4260   -2.6092 C   0  0  0  0  0  0  0  0  0  0  0  0
   -1.7892   -1.8785   -3.0841 C   0  0  0  0  0  0  0  0  0  0  0  0
   -2.5513   -2.3851   -2.5004 H   0  0  0  0  0  0  0  0  0  0  0  0
   -1.8598   -1.5776   -4.4416 N   0  0  0  0  0  0  0  0  0  0  0  0
   -2.6526   -1.7736   -5.0480 H   0  0  0  0  0  0  0  0  0  0  0  0
   -0.7057   -0.9341   -4.8512 C   0  0  0  0  0  0  0  0  0  0  0  0
   -0.3160   -0.4404   -6.0961 C   0  0  0  0  0  0  0  0  0  0  0  0
   -0.9755   -0.5349   -6.9513 H   0  0  0  0  0  0  0  0  0  0  0  0
    0.9353    0.1773   -6.2247 C   0  0  0  0  0  0  0  0  0  0  0  0
    1.2516    0.5664   -7.1880 H   0  0  0  0  0  0  0  0  0  0  0  0
    1.7793    0.2923   -5.1099 C   0  0  0  0  0  0  0  0  0  0  0  0
    2.7486    0.7708   -5.2117 H   0  0  0  0  0  0  0  0  0  0  0  0
    1.3754   -0.2081   -3.8635 C   0  0  0  0  0  0  0  0  0  0  0  0
    2.0301   -0.1190   -3.0037 H   0  0  0  0  0  0  0  0  0  0  0  0
    0.1228   -0.8221   -3.7404 C   0  0  0  0  0  0  0  0  0  0  0  0
   -1.4145    0.3625   -0.1603 C   0  0  0  0  0  0  0  0  0  0  0  0
   -2.4475    0.6720   -0.7463 O   0  0  0  0  0  0  0  0  0  0  0  0
   -0.7840    1.3136    0.6220 N   0  0  0  0  0  0  0  0  0  0  0  0
    0.0317    1.0238    1.1534 H   0  0  0  0  0  0  0  0  0  0  0  0
   -1.2077    2.7071    0.6828 C   0  0  0  0  0  0  0  0  0  0  0  0
   -2.2420    2.7787    1.0356 H   0  0  0  0  0  0  0  0  0  0  0  0
   -0.5687    3.2669    1.3724 H   0  0  0  0  0  0  0  0  0  0  0  0
   -1.1397    3.1711   -0.3068 H   0  0  0  0  0  0  0  0  0  0  0  0
  1  2  1  0  0  0  0
  2  3  1  0  0  0  0
  2  4  1  0  0  0  0
  2  5  1  0  0  0  0
  5  6  2  0  0  0  0
  5  7  1  0  0  0  0
  7  8  1  0  0  0  0
  7  9  1  0  0  0  0
  9 10  1  0  0  0  0
  9 11  1  0  0  0  0
  9 29  1  0  0  0  0
 11 12  1  0  0  0  0
 11 13  1  0  0  0  0
 11 14  1  0  0  0  0
 14 15  2  0  0  0  0
 14 28  1  0  0  0  0
 15 16  1  0  0  0  0
 15 17  1  0  0  0  0
 17 18  1  0  0  0  0
 17 19  1  0  0  0  0
 19 20  1  0  0  0  0
 19 28  2  0  0  0  0
 20 21  1  0  0  0  0
 20 22  2  0  0  0  0
 22 23  1  0  0  0  0
 22 24  1  0  0  0  0
 24 25  1  0  0  0  0
 24 26  2  0  0  0  0
 26 27  1  0  0  0  0
 26 28  1  0  0  0  0
 29 30  2  0  0  0  0
 29 31  1  0  0  0  0
 31 32  1  0  0  0  0
 31 33  1  0  0  0  0
 33 34  1  0  0  0  0
 33 35  1  0  0  0  0
 33 36  1  0  0  0  0
M  END
$$$$

  -OEChem-03222214083D

 36 37  0     1  0  0  0  0  0999 V2000
   -3.6638   -4.4718    1.7640 H   0  0  0  0  0  0  0  0  0  0  0  0
   -3.7080   -3.6925    0.9980 C   0  0  0  0  0  0  0  0  0  0  0  0
   -4.4593   -2.9547    1.2899 H   0  0  0  0  0  0  0  0  0  0  0  0
   -4.0020   -4.1471    0.0489 H   0  0  0  0  0  0  0  0  0  0  0  0
   -2.3536   -3.0250    0.8534 C   0  0  0  0  0  0  0  0  0  0  0  0
   -1.4028   -3.4232    1.5069 O   0  0  0  0  0  0  0  0  0  0  0  0
   -2.2074   -1.9570   -0.0056 N   0  0  0  0  0  0  0  0  0  0  0  0
   -3.0624   -1.5500   -0.3802 H   0  0  0  0  0  0  0  0  0  0  0  0
   -1.0075   -1.1066   -0.0668 C   0  0  1  0  0  0  0  0  0  0  0  0
   -0.4399   -1.2305    0.8610 H   0  0  0  0  0  0  0  0  0  0  0  0
   -0.0611   -1.4710   -1.2289 C   0  0  0  0  0  0  0  0  0  0  0  0
    0.8081   -0.8100   -1.1607 H   0  0  0  0  0  0  0  0  0  0  0  0
    0.2976   -2.4942   -1.0781 H   0  0  0  0  0  0  0  0  0  0  0  0
   -0.6181   -1.3749   -2.6352 C   0  0  0  0  0  0  0  0  0  0  0  0
   -1.9085   -1.5477   -3.0842 C   0  0  0  0  0  0  0  0  0  0  0  0
   -2.7741   -1.7699   -2.4688 H   0  0  0  0  0  0  0  0  0  0  0  0
   -1.9132   -1.3697   -4.4653 N   0  0  0  0  0  0  0  0  0  0  0  0
   -2.7372   -1.4080   -5.0606 H   0  0  0  0  0  0  0  0  0  0  0  0
   -0.6367   -1.0900   -4.9182 C   0  0  0  0  0  0  0  0  0  0  0  0
   -0.1432   -0.8382   -6.1983 C   0  0  0  0  0  0  0  0  0  0  0  0
   -0.8119   -0.8418   -7.0519 H   0  0  0  0  0  0  0  0  0  0  0  0
    1.2250   -0.5827   -6.3644 C   0  0  0  0  0  0  0  0  0  0  0  0
    1.6233   -0.3848   -7.3551 H   0  0  0  0  0  0  0  0  0  0  0  0
    2.0800   -0.5844   -5.2517 C   0  0  0  0  0  0  0  0  0  0  0  0
    3.1397   -0.3875   -5.3830 H   0  0  0  0  0  0  0  0  0  0  0  0
    1.5710   -0.8390   -3.9698 C   0  0  0  0  0  0  0  0  0  0  0  0
    2.2320   -0.8417   -3.1098 H   0  0  0  0  0  0  0  0  0  0  0  0
    0.2027   -1.0891   -3.8103 C   0  0  0  0  0  0  0  0  0  0  0  0
   -1.4216    0.3779   -0.1255 C   0  0  0  0  0  0  0  0  0  0  0  0
   -2.4608    0.6972   -0.6955 O   0  0  0  0  0  0  0  0  0  0  0  0
   -0.7776    1.3143    0.6628 N   0  0  0  0  0  0  0  0  0  0  0  0
    0.0405    1.0114    1.1834 H   0  0  0  0  0  0  0  0  0  0  0  0
   -1.2008    2.7056    0.7611 C   0  0  0  0  0  0  0  0  0  0  0  0
   -2.2307    2.7688    1.1276 H   0  0  0  0  0  0  0  0  0  0  0  0
   -0.5538    3.2489    1.4563 H   0  0  0  0  0  0  0  0  0  0  0  0
   -1.1439    3.1927   -0.2180 H   0  0  0  0  0  0  0  0  0  0  0  0
  1  2  1  0  0  0  0
  2  3  1  0  0  0  0
  2  4  1  0  0  0  0
  2  5  1  0  0  0  0
  5  6  2  0  0  0  0
  5  7  1  0  0  0  0
  7  8  1  0  0  0  0
  7  9  1  0  0  0  0
  9 10  1  0  0  0  0
  9 11  1  0  0  0  0
  9 29  1  0  0  0  0
 11 12  1  0  0  0  0
 11 13  1  0  0  0  0
 11 14  1  0  0  0  0
 14 15  2  0  0  0  0
 14 28  1  0  0  0  0
 15 16  1  0  0  0  0
 15 17  1  0  0  0  0
 17 18  1  0  0  0  0
 17 19  1  0  0  0  0
 19 20  1  0  0  0  0
 19 28  2  0  0  0  0
 20 21  1  0  0  0  0
 20 22  2  0  0  0  0
 22 23  1  0  0  0  0
 22 24  1  0  0  0  0
 24 25  1  0  0  0  0
 24 26  2  0  0  0  0
 26 27  1  0  0  0  0
 26 28  1  0  0  0  0
 29 30  2  0  0  0  0
 29 31  1  0  0  0  0
 31 32  1  0  0  0  0
 31 33  1  0  0  0  0
 33 34  1  0  0  0  0
 33 35  1  0  0  0  0
 33 36  1  0  0  0  0
M  END
$$$$

  -OEChem-03222214083D

 36 37  0     1  0  0  0  0  0999 V2000
   -3.6433   -4.5178    1.6446 H   0  0  0  0  0  0  0  0  0  0  0  0
   -3.6907   -3.7109    0.9080 C   0  0  0  0  0  0  0  0  0  0  0  0
   -4.4631   -3.0008    1.2134 H   0  0  0  0  0  0  0  0  0  0  0  0
   -3.9579   -4.1354   -0.0628 H   0  0  0  0  0  0  0  0  0  0  0  0
   -2.3485   -3.0107    0.8138 C   0  0  0  0  0  0  0  0  0  0  0  0
   -1.4073   -3.4001    1.4861 O   0  0  0  0  0  0  0  0  0  0  0  0
   -2.2028   -1.9237   -0.0210 N   0  0  0  0  0  0  0  0  0  0  0  0
   -3.0524   -1.5412   -0.4295 H   0  0  0  0  0  0  0  0  0  0  0  0
   -1.0062   -1.0668   -0.0667 C   0  0  1  0  0  0  0  0  0  0  0  0
   -0.4380   -1.2079    0.8583 H   0  0  0  0  0  0  0  0  0  0  0  0
   -0.0665   -1.4354   -1.2330 C   0  0  0  0  0  0  0  0  0  0  0  0
    0.8109   -0.7839   -1.1733 H   0  0  0  0  0  0  0  0  0  0  0  0
    0.2808   -2.4622   -1.0798 H   0  0  0  0  0  0  0  0  0  0  0  0
   -0.6219   -1.3388   -2.6396 C   0  0  0  0  0  0  0  0  0  0  0  0
   -1.9244   -1.2307   -3.0741 C   0  0  0  0  0  0  0  0  0  0  0  0
   -2.8037   -1.1589   -2.4413 H   0  0  0  0  0  0  0  0  0  0  0  0
   -1.9145   -1.1972   -4.4662 N   0  0  0  0  0  0  0  0  0  0  0  0
   -2.7357   -1.0873   -5.0569 H   0  0  0  0  0  0  0  0  0  0  0  0
   -0.6181   -1.2899   -4.9397 C   0  0  0  0  0  0  0  0  0  0  0  0
   -0.1015   -1.2983   -6.2351 C   0  0  0  0  0  0  0  0  0  0  0  0
   -0.7660   -1.2208   -7.0882 H   0  0  0  0  0  0  0  0  0  0  0  0
    1.2839   -1.4080   -6.4170 C   0  0  0  0  0  0  0  0  0  0  0  0
    1.6998   -1.4160   -7.4200 H   0  0  0  0  0  0  0  0  0  0  0  0
    2.1332   -1.5083   -5.3045 C   0  0  0  0  0  0  0  0  0  0  0  0
    3.2059   -1.5944   -5.4483 H   0  0  0  0  0  0  0  0  0  0  0  0
    1.6013   -1.4973   -4.0069 C   0  0  0  0  0  0  0  0  0  0  0  0
    2.2550   -1.5759   -3.1449 H   0  0  0  0  0  0  0  0  0  0  0  0
    0.2174   -1.3841   -3.8334 C   0  0  0  0  0  0  0  0  0  0  0  0
   -1.4088    0.4220   -0.0950 C   0  0  0  0  0  0  0  0  0  0  0  0
   -2.4426    0.7635   -0.6625 O   0  0  0  0  0  0  0  0  0  0  0  0
   -0.7569    1.3374    0.7113 N   0  0  0  0  0  0  0  0  0  0  0  0
    0.0487    1.0131    1.2388 H   0  0  0  0  0  0  0  0  0  0  0  0
   -1.1753    2.7273    0.8465 C   0  0  0  0  0  0  0  0  0  0  0  0
   -2.1984    2.7845    1.2327 H   0  0  0  0  0  0  0  0  0  0  0  0
   -0.5146    3.2549    1.5410 H   0  0  0  0  0  0  0  0  0  0  0  0
   -1.1348    3.2354   -0.1228 H   0  0  0  0  0  0  0  0  0  0  0  0
  1  2  1  0  0  0  0
  2  3  1  0  0  0  0
  2  4  1  0  0  0  0
  2  5  1  0  0  0  0
  5  6  2  0  0  0  0
  5  7  1  0  0  0  0
  7  8  1  0  0  0  0
  7  9  1  0  0  0  0
  9 10  1  0  0  0  0
  9 11  1  0  0  0  0
  9 29  1  0  0  0  0
 11 12  1  0  0  0  0
 11 13  1  0  0  0  0
 11 14  1  0  0  0  0
 14 15  2  0  0  0  0
 14 28  1  0  0  0  0
 15 16  1  0  0  0  0
 15 17  1  0  0  0  0
 17 18  1  0  0  0  0
 17 19  1  0  0  0  0
 19 20  1  0  0  0  0
 19 28  2  0  0  0  0
 20 21  1  0  0  0  0
 20 22  2  0  0  0  0
 22 23  1  0  0  0  0
 22 24  1  0  0  0  0
 24 25  1  0  0  0  0
 24 26  2  0  0  0  0
 26 27  1  0  0  0  0
 26 28  1  0  0  0  0
 29 30  2  0  0  0  0
 29 31  1  0  0  0  0
 31 32  1  0  0  0  0
 31 33  1  0  0  0  0
 33 34  1  0  0  0  0
 33 35  1  0  0  0  0
 33 36  1  0  0  0  0
M  END
$$$$

  -OEChem-03222214083D

 36 37  0     1  0  0  0  0  0999 V2000
   -3.6167   -4.5584    1.5237 H   0  0  0  0  0  0  0  0  0  0  0  0
   -3.6702   -3.7329    0.8083 C   0  0  0  0  0  0  0  0  0  0  0  0
   -4.4712   -3.0549    1.1128 H   0  0  0  0  0  0  0  0  0  0  0  0
   -3.8997   -4.1377   -0.1803 H   0  0  0  0  0  0  0  0  0  0  0  0
   -2.3487   -2.9892    0.7675 C   0  0  0  0  0  0  0  0  0  0  0  0
   -1.4139   -3.3637    1.4576 O   0  0  0  0  0  0  0  0  0  0  0  0
   -2.2146   -1.8807   -0.0410 N   0  0  0  0  0  0  0  0  0  0  0  0
   -3.0510   -1.5449   -0.5116 H   0  0  0  0  0  0  0  0  0  0  0  0
   -1.0264   -1.0125   -0.0819 C   0  0  1  0  0  0  0  0  0  0  0  0
   -0.4590   -1.1696    0.8409 H   0  0  0  0  0  0  0  0  0  0  0  0
   -0.0847   -1.3966   -1.2402 C   0  0  0  0  0  0  0  0  0  0  0  0
    0.7979   -0.7512   -1.1921 H   0  0  0  0  0  0  0  0  0  0  0  0
    0.2544   -2.4229   -1.0668 H   0  0  0  0  0  0  0  0  0  0  0  0
   -0.6352   -1.3268   -2.6501 C   0  0  0  0  0  0  0  0  0  0  0  0
   -1.8836   -0.9646   -3.1070 C   0  0  0  0  0  0  0  0  0  0  0  0
   -2.7190   -0.6346   -2.4963 H   0  0  0  0  0  0  0  0  0  0  0  0
   -1.8842   -1.0775   -4.4953 N   0  0  0  0  0  0  0  0  0  0  0  0
   -2.6674   -0.8464   -5.1025 H   0  0  0  0  0  0  0  0  0  0  0  0
   -0.6502   -1.5133   -4.9440 C   0  0  0  0  0  0  0  0  0  0  0  0
   -0.1647   -1.7738   -6.2255 C   0  0  0  0  0  0  0  0  0  0  0  0
   -0.8043   -1.6358   -7.0901 H   0  0  0  0  0  0  0  0  0  0  0  0
    1.1570   -2.2157   -6.3782 C   0  0  0  0  0  0  0  0  0  0  0  0
    1.5482   -2.4233   -7.3697 H   0  0  0  0  0  0  0  0  0  0  0  0
    1.9746   -2.3908   -5.2510 C   0  0  0  0  0  0  0  0  0  0  0  0
    2.9975   -2.7345   -5.3715 H   0  0  0  0  0  0  0  0  0  0  0  0
    1.4750   -2.1235   -3.9680 C   0  0  0  0  0  0  0  0  0  0  0  0
    2.1035   -2.2579   -3.0939 H   0  0  0  0  0  0  0  0  0  0  0  0
    0.1551   -1.6821   -3.8245 C   0  0  0  0  0  0  0  0  0  0  0  0
   -1.4008    0.4848   -0.0727 C   0  0  0  0  0  0  0  0  0  0  0  0
   -2.4321    0.8669   -0.6168 O   0  0  0  0  0  0  0  0  0  0  0  0
   -0.7184    1.3656    0.7473 N   0  0  0  0  0  0  0  0  0  0  0  0
    0.0791    1.0065    1.2647 H   0  0  0  0  0  0  0  0  0  0  0  0
   -1.1171    2.7543    0.9431 C   0  0  0  0  0  0  0  0  0  0  0  0
   -2.1169    2.8069    1.3867 H   0  0  0  0  0  0  0  0  0  0  0  0
   -0.4145    3.2581    1.6139 H   0  0  0  0  0  0  0  0  0  0  0  0
   -1.1258    3.2894   -0.0124 H   0  0  0  0  0  0  0  0  0  0  0  0
  1  2  1  0  0  0  0
  2  3  1  0  0  0  0
  2  4  1  0  0  0  0
  2  5  1  0  0  0  0
  5  6  2  0  0  0  0
  5  7  1  0  0  0  0
  7  8  1  0  0  0  0
  7  9  1  0  0  0  0
  9 10  1  0  0  0  0
  9 11  1  0  0  0  0
  9 29  1  0  0  0  0
 11 12  1  0  0  0  0
 11 13  1  0  0  0  0
 11 14  1  0  0  0  0
 14 15  2  0  0  0  0
 14 28  1  0  0  0  0
 15 16  1  0  0  0  0
 15 17  1  0  0  0  0
 17 18  1  0  0  0  0
 17 19  1  0  0  0  0
 19 20  1  0  0  0  0
 19 28  2  0  0  0  0
 20 21  1  0  0  0  0
 20 22  2  0  0  0  0
 22 23  1  0  0  0  0
 22 24  1  0  0  0  0
 24 25  1  0  0  0  0
 24 26  2  0  0  0  0
 26 27  1  0  0  0  0
 26 28  1  0  0  0  0
 29 30  2  0  0  0  0
 29 31  1  0  0  0  0
 31 32  1  0  0  0  0
 31 33  1  0  0  0  0
 33 34  1  0  0  0  0
 33 35  1  0  0  0  0
 33 36  1  0  0  0  0
M  END
$$$$

  -OEChem-03222214083D

 36 37  0     1  0  0  0  0  0999 V2000
   -3.5958   -4.5992    1.4140 H   0  0  0  0  0  0  0  0  0  0  0  0
   -3.6522   -3.7655    0.7085 C   0  0  0  0  0  0  0  0  0  0  0  0
   -4.4928   -3.1254    0.9871 H   0  0  0  0  0  0  0  0  0  0  0  0
   -3.8226   -4.1641   -0.2947 H   0  0  0  0  0  0  0  0  0  0  0  0
   -2.3612   -2.9691    0.7356 C   0  0  0  0  0  0  0  0  0  0  0  0
   -1.4394   -3.3240    1.4533 O   0  0  0  0  0  0  0  0  0  0  0  0
   -2.2355   -1.8428   -0.0496 N   0  0  0  0  0  0  0  0  0  0  0  0
   -3.0441   -1.5600   -0.5976 H   0  0  0  0  0  0  0  0  0  0  0  0
   -1.0511   -0.9704   -0.0895 C   0  0  1  0  0  0  0  0  0  0  0  0
   -0.4834   -1.1425    0.8306 H   0  0  0  0  0  0  0  0  0  0  0  0
   -0.1111   -1.3728   -1.2422 C   0  0  0  0  0  0  0  0  0  0  0  0
    0.7813   -0.7405   -1.2041 H   0  0  0  0  0  0  0  0  0  0  0  0
    0.2123   -2.4007   -1.0478 H   0  0  0  0  0  0  0  0  0  0  0  0
   -0.6584   -1.3252   -2.6556 C   0  0  0  0  0  0  0  0  0  0  0  0
   -1.7910   -0.7274   -3.1659 C   0  0  0  0  0  0  0  0  0  0  0  0
   -2.5302   -0.1594   -2.6105 H   0  0  0  0  0  0  0  0  0  0  0  0
   -1.8272   -0.9696   -4.5369 N   0  0  0  0  0  0  0  0  0  0  0  0
   -2.5417   -0.6248   -5.1744 H   0  0  0  0  0  0  0  0  0  0  0  0
   -0.7293   -1.7159   -4.9241 C   0  0  0  0  0  0  0  0  0  0  0  0
   -0.3241   -2.1960   -6.1694 C   0  0  0  0  0  0  0  0  0  0  0  0
   -0.9205   -1.9960   -7.0526 H   0  0  0  0  0  0  0  0  0  0  0  0
    0.8612   -2.9388   -6.2616 C   0  0  0  0  0  0  0  0  0  0  0  0
    1.1894   -3.3189   -7.2245 H   0  0  0  0  0  0  0  0  0  0  0  0
    1.6243   -3.1908   -5.1110 C   0  0  0  0  0  0  0  0  0  0  0  0
    2.5415   -3.7673   -5.1846 H   0  0  0  0  0  0  0  0  0  0  0  0
    1.2066   -2.7005   -3.8652 C   0  0  0  0  0  0  0  0  0  0  0  0
    1.7949   -2.8931   -2.9742 H   0  0  0  0  0  0  0  0  0  0  0  0
    0.0224   -1.9596   -3.7813 C   0  0  0  0  0  0  0  0  0  0  0  0
   -1.3950    0.5340   -0.0459 C   0  0  0  0  0  0  0  0  0  0  0  0
   -2.4217    0.9563   -0.5667 O   0  0  0  0  0  0  0  0  0  0  0  0
   -0.6816    1.3828    0.7819 N   0  0  0  0  0  0  0  0  0  0  0  0
    0.1064    0.9920    1.2908 H   0  0  0  0  0  0  0  0  0  0  0  0
   -1.0416    2.7780    1.0061 C   0  0  0  0  0  0  0  0  0  0  0  0
   -2.0403    2.8502    1.4494 H   0  0  0  0  0  0  0  0  0  0  0  0
   -0.3265    3.2484    1.6879 H   0  0  0  0  0  0  0  0  0  0  0  0
   -1.0337    3.3324    0.0617 H   0  0  0  0  0  0  0  0  0  0  0  0
  1  2  1  0  0  0  0
  2  3  1  0  0  0  0
  2  4  1  0  0  0  0
  2  5  1  0  0  0  0
  5  6  2  0  0  0  0
  5  7  1  0  0  0  0
  7  8  1  0  0  0  0
  7  9  1  0  0  0  0
  9 10  1  0  0  0  0
  9 11  1  0  0  0  0
  9 29  1  0  0  0  0
 11 12  1  0  0  0  0
 11 13  1  0  0  0  0
 11 14  1  0  0  0  0
 14 15  2  0  0  0  0
 14 28  1  0  0  0  0
 15 16  1  0  0  0  0
 15 17  1  0  0  0  0
 17 18  1  0  0  0  0
 17 19  1  0  0  0  0
 19 20  1  0  0  0  0
 19 28  2  0  0  0  0
 20 21  1  0  0  0  0
 20 22  2  0  0  0  0
 22 23  1  0  0  0  0
 22 24  1  0  0  0  0
 24 25  1  0  0  0  0
 24 26  2  0  0  0  0
 26 27  1  0  0  0  0
 26 28  1  0  0  0  0
 29 30  2  0  0  0  0
 29 31  1  0  0  0  0
 31 32  1  0  0  0  0
 31 33  1  0  0  0  0
 33 34  1  0  0  0  0
 33 35  1  0  0  0  0
 33 36  1  0  0  0  0
M  END
$$$$

  -OEChem-03222214083D

 36 37  0     1  0  0  0  0  0999 V2000
   -3.6110   -4.6057    1.2929 H   0  0  0  0  0  0  0  0  0  0  0  0
   -3.6549   -3.7595    0.6017 C   0  0  0  0  0  0  0  0  0  0  0  0
   -4.5087   -3.1317    0.8674 H   0  0  0  0  0  0  0  0  0  0  0  0
   -3.7926   -4.1406   -0.4132 H   0  0  0  0  0  0  0  0  0  0  0  0
   -2.3732   -2.9521    0.6814 C   0  0  0  0  0  0  0  0  0  0  0  0
   -1.4701   -3.3097    1.4215 O   0  0  0  0  0  0  0  0  0  0  0  0
   -2.2337   -1.8140   -0.0837 N   0  0  0  0  0  0  0  0  0  0  0  0
   -3.0195   -1.5421   -0.6695 H   0  0  0  0  0  0  0  0  0  0  0  0
   -1.0478   -0.9436   -0.0984 C   0  0  1  0  0  0  0  0  0  0  0  0
   -0.4954   -1.1281    0.8284 H   0  0  0  0  0  0  0  0  0  0  0  0
   -0.0920   -1.3541   -1.2359 C   0  0  0  0  0  0  0  0  0  0  0  0
    0.8059   -0.7304   -1.1883 H   0  0  0  0  0  0  0  0  0  0  0  0
    0.2193   -2.3827   -1.0287 H   0  0  0  0  0  0  0  0  0  0  0  0
   -0.6215   -1.3061   -2.6568 C   0  0  0  0  0  0  0  0  0  0  0  0
   -1.5758   -0.4942   -3.2318 C   0  0  0  0  0  0  0  0  0  0  0  0
   -2.1364    0.2965   -2.7445 H   0  0  0  0  0  0  0  0  0  0  0  0
   -1.6974   -0.8516   -4.5720 N   0  0  0  0  0  0  0  0  0  0  0  0
   -2.3220   -0.4081   -5.2423 H   0  0  0  0  0  0  0  0  0  0  0  0
   -0.8287   -1.8829   -4.8774 C   0  0  0  0  0  0  0  0  0  0  0  0
   -0.5817   -2.5660   -6.0683 C   0  0  0  0  0  0  0  0  0  0  0  0
   -1.1280   -2.3092   -6.9690 H   0  0  0  0  0  0  0  0  0  0  0  0
    0.3803   -3.5855   -6.0838 C   0  0  0  0  0  0  0  0  0  0  0  0
    0.5846   -4.1252   -7.0039 H   0  0  0  0  0  0  0  0  0  0  0  0
    1.0808   -3.9078   -4.9117 C   0  0  0  0  0  0  0  0  0  0  0  0
    1.8262   -4.6973   -4.9253 H   0  0  0  0  0  0  0  0  0  0  0  0
    0.8229   -3.2131   -3.7211 C   0  0  0  0  0  0  0  0  0  0  0  0
    1.3661   -3.4618   -2.8156 H   0  0  0  0  0  0  0  0  0  0  0  0
   -0.1391   -2.1958   -3.7123 C   0  0  0  0  0  0  0  0  0  0  0  0
   -1.3849    0.5609   -0.0358 C   0  0  0  0  0  0  0  0  0  0  0  0
   -2.4067    0.9970   -0.5543 O   0  0  0  0  0  0  0  0  0  0  0  0
   -0.6741    1.3911    0.8126 N   0  0  0  0  0  0  0  0  0  0  0  0
    0.0999    0.9835    1.3297 H   0  0  0  0  0  0  0  0  0  0  0  0
   -1.0359    2.7798    1.0702 C   0  0  0  0  0  0  0  0  0  0  0  0
   -2.0303    2.8394    1.5250 H   0  0  0  0  0  0  0  0  0  0  0  0
   -0.3144    3.2364    1.7545 H   0  0  0  0  0  0  0  0  0  0  0  0
   -1.0394    3.3545    0.1381 H   0  0  0  0  0  0  0  0  0  0  0  0
  1  2  1  0  0  0  0
  2  3  1  0  0  0  0
  2  4  1  0  0  0  0
  2  5  1  0  0  0  0
  5  6  2  0  0  0  0
  5  7  1  0  0  0  0
  7  8  1  0  0  0  0
  7  9  1  0  0  0  0
  9 10  1  0  0  0  0
  9 11  1  0  0  0  0
  9 29  1  0  0  0  0
 11 12  1  0  0  0  0
 11 13  1  0  0  0  0
 11 14  1  0  0  0  0
 14 15  2  0  0  0  0
 14 28  1  0  0  0  0
 15 16  1  0  0  0  0
 15 17  1  0  0  0  0
 17 18  1  0  0  0  0
 17 19  1  0  0  0  0
 19 20  1  0  0  0  0
 19 28  2  0  0  0  0
 20 21  1  0  0  0  0
 20 22  2  0  0  0  0
 22 23  1  0  0  0  0
 22 24  1  0  0  0  0
 24 25  1  0  0  0  0
 24 26  2  0  0  0  0
 26 27  1  0  0  0  0
 26 28  1  0  0  0  0
 29 30  2  0  0  0  0
 29 31  1  0  0  0  0
 31 32  1  0  0  0  0
 31 33  1  0  0  0  0
 33 34  1  0  0  0  0
 33 35  1  0  0  0  0
 33 36  1  0  0  0  0
M  END
$$$$

  -OEChem-03222214083D

 36 37  0     1  0  0  0  0  0999 V2000
   -3.6173   -4.6276    1.1299 H   0  0  0  0  0  0  0  0  0  0  0  0
   -3.6380   -3.7648    0.4587 C   0  0  0  0  0  0  0  0  0  0  0  0
   -4.5147   -3.1563    0.6934 H   0  0  0  0  0  0  0  0  0  0  0  0
   -3.7151   -4.1217   -0.5714 H   0  0  0  0  0  0  0  0  0  0  0  0
   -2.3758   -2.9407    0.6270 C   0  0  0  0  0  0  0  0  0  0  0  0
   -1.5226   -3.2838    1.4308 O   0  0  0  0  0  0  0  0  0  0  0  0
   -2.1948   -1.8069   -0.1351 N   0  0  0  0  0  0  0  0  0  0  0  0
   -2.9245   -1.5661   -0.8025 H   0  0  0  0  0  0  0  0  0  0  0  0
   -1.0100   -0.9371   -0.0941 C   0  0  1  0  0  0  0  0  0  0  0  0
   -0.4969   -1.1177    0.8555 H   0  0  0  0  0  0  0  0  0  0  0  0
   -0.0178   -1.3620   -1.1943 C   0  0  0  0  0  0  0  0  0  0  0  0
    0.8787   -0.7385   -1.1265 H   0  0  0  0  0  0  0  0  0  0  0  0
    0.2897   -2.3880   -0.9723 H   0  0  0  0  0  0  0  0  0  0  0  0
   -0.5237   -1.3056   -2.6230 C   0  0  0  0  0  0  0  0  0  0  0  0
   -1.2411   -0.3168   -3.2601 C   0  0  0  0  0  0  0  0  0  0  0  0
   -1.5495    0.6339   -2.8345 H   0  0  0  0  0  0  0  0  0  0  0  0
   -1.4947   -0.7379   -4.5624 N   0  0  0  0  0  0  0  0  0  0  0  0
   -2.0057   -0.2034   -5.2617 H   0  0  0  0  0  0  0  0  0  0  0  0
   -0.9503   -1.9902   -4.7791 C   0  0  0  0  0  0  0  0  0  0  0  0
   -0.9422   -2.8127   -5.9056 C   0  0  0  0  0  0  0  0  0  0  0  0
   -1.4262   -2.4912   -6.8212 H   0  0  0  0  0  0  0  0  0  0  0  0
   -0.3001   -4.0566   -5.8373 C   0  0  0  0  0  0  0  0  0  0  0  0
   -0.2843   -4.7075   -6.7065 H   0  0  0  0  0  0  0  0  0  0  0  0
    0.3230   -4.4609   -4.6471 C   0  0  0  0  0  0  0  0  0  0  0  0
    0.8206   -5.4247   -4.5957 H   0  0  0  0  0  0  0  0  0  0  0  0
    0.3070   -3.6243   -3.5217 C   0  0  0  0  0  0  0  0  0  0  0  0
    0.7899   -3.9400   -2.6029 H   0  0  0  0  0  0  0  0  0  0  0  0
   -0.3352   -2.3819   -3.5955 C   0  0  0  0  0  0  0  0  0  0  0  0
   -1.3564    0.5660   -0.0574 C   0  0  0  0  0  0  0  0  0  0  0  0
   -2.3397    0.9987   -0.6484 O   0  0  0  0  0  0  0  0  0  0  0  0
   -0.6946    1.4055    0.8214 N   0  0  0  0  0  0  0  0  0  0  0  0
    0.0275    0.9948    1.4068 H   0  0  0  0  0  0  0  0  0  0  0  0
   -1.0923    2.7868    1.0664 C   0  0  0  0  0  0  0  0  0  0  0  0
   -2.0882    2.8232    1.5200 H   0  0  0  0  0  0  0  0  0  0  0  0
   -0.3835    3.2688    1.7466 H   0  0  0  0  0  0  0  0  0  0  0  0
   -1.1094    3.3541    0.1299 H   0  0  0  0  0  0  0  0  0  0  0  0
  1  2  1  0  0  0  0
  2  3  1  0  0  0  0
  2  4  1  0  0  0  0
  2  5  1  0  0  0  0
  5  6  2  0  0  0  0
  5  7  1  0  0  0  0
  7  8  1  0  0  0  0
  7  9  1  0  0  0  0
  9 10  1  0  0  0  0
  9 11  1  0  0  0  0
  9 29  1  0  0  0  0
 11 12  1  0  0  0  0
 11 13  1  0  0  0  0
 11 14  1  0  0  0  0
 14 15  2  0  0  0  0
 14 28  1  0  0  0  0
 15 16  1  0  0  0  0
 15 17  1  0  0  0  0
 17 18  1  0  0  0  0
 17 19  1  0  0  0  0
 19 20  1  0  0  0  0
 19 28  2  0  0  0  0
 20 21  1  0  0  0  0
 20 22  2  0  0  0  0
 22 23  1  0  0  0  0
 22 24  1  0  0  0  0
 24 25  1  0  0  0  0
 24 26  2  0  0  0  0
 26 27  1  0  0  0  0
 26 28  1  0  0  0  0
 29 30  2  0  0  0  0
 29 31  1  0  0  0  0
 31 32  1  0  0  0  0
 31 33  1  0  0  0  0
 33 34  1  0  0  0  0
 33 35  1  0  0  0  0
 33 36  1  0  0  0  0
M  END
$$$$

  -OEChem-03222214083D

 36 37  0     1  0  0  0  0  0999 V2000
   -3.6146   -4.6703    1.0200 H   0  0  0  0  0  0  0  0  0  0  0  0
   -3.6091   -3.8091    0.3462 C   0  0  0  0  0  0  0  0  0  0  0  0
   -4.5164   -3.2237    0.5137 H   0  0  0  0  0  0  0  0  0  0  0  0
   -3.6007   -4.1693   -0.6856 H   0  0  0  0  0  0  0  0  0  0  0  0
   -2.3850   -2.9512    0.6037 C   0  0  0  0  0  0  0  0  0  0  0  0
   -1.5975   -3.2568    1.4857 O   0  0  0  0  0  0  0  0  0  0  0  0
   -2.1577   -1.8360   -0.1725 N   0  0  0  0  0  0  0  0  0  0  0  0
   -2.8173   -1.6426   -0.9236 H   0  0  0  0  0  0  0  0  0  0  0  0
   -0.9804   -0.9607   -0.0777 C   0  0  1  0  0  0  0  0  0  0  0  0
   -0.5122   -1.1218    0.8983 H   0  0  0  0  0  0  0  0  0  0  0  0
    0.0539   -1.3970   -1.1321 C   0  0  0  0  0  0  0  0  0  0  0  0
    0.9387   -0.7595   -1.0434 H   0  0  0  0  0  0  0  0  0  0  0  0
    0.3730   -2.4173   -0.9008 H   0  0  0  0  0  0  0  0  0  0  0  0
   -0.4326   -1.3362   -2.5645 C   0  0  0  0  0  0  0  0  0  0  0  0
   -0.8799   -0.2395   -3.2655 C   0  0  0  0  0  0  0  0  0  0  0  0
   -0.9287    0.7812   -2.8917 H   0  0  0  0  0  0  0  0  0  0  0  0
   -1.2668   -0.6689   -4.5320 N   0  0  0  0  0  0  0  0  0  0  0  0
   -1.6507   -0.0707   -5.2604 H   0  0  0  0  0  0  0  0  0  0  0  0
   -1.0890   -2.0358   -4.6532 C   0  0  0  0  0  0  0  0  0  0  0  0
   -1.3415   -2.9125   -5.7083 C   0  0  0  0  0  0  0  0  0  0  0  0
   -1.7437   -2.5399   -6.6438 H   0  0  0  0  0  0  0  0  0  0  0  0
   -1.0701   -4.2774   -5.5417 C   0  0  0  0  0  0  0  0  0  0  0  0
   -1.2615   -4.9717   -6.3546 H   0  0  0  0  0  0  0  0  0  0  0  0
   -0.5524   -4.7474   -4.3253 C   0  0  0  0  0  0  0  0  0  0  0  0
   -0.3439   -5.8053   -4.1980 H   0  0  0  0  0  0  0  0  0  0  0  0
   -0.3018   -3.8557   -3.2724 C   0  0  0  0  0  0  0  0  0  0  0  0
    0.0973   -4.2212   -2.3320 H   0  0  0  0  0  0  0  0  0  0  0  0
   -0.5720   -2.4930   -3.4463 C   0  0  0  0  0  0  0  0  0  0  0  0
   -1.3352    0.5407   -0.1011 C   0  0  0  0  0  0  0  0  0  0  0  0
   -2.2432    0.9655   -0.8069 O   0  0  0  0  0  0  0  0  0  0  0  0
   -0.7356    1.4058    0.7969 N   0  0  0  0  0  0  0  0  0  0  0  0
   -0.0761    1.0081    1.4600 H   0  0  0  0  0  0  0  0  0  0  0  0
   -1.1348    2.7991    0.9556 C   0  0  0  0  0  0  0  0  0  0  0  0
   -2.1556    2.8622    1.3468 H   0  0  0  0  0  0  0  0  0  0  0  0
   -0.4630    3.3075    1.6538 H   0  0  0  0  0  0  0  0  0  0  0  0
   -1.0918    3.3235   -0.0048 H   0  0  0  0  0  0  0  0  0  0  0  0
  1  2  1  0  0  0  0
  2  3  1  0  0  0  0
  2  4  1  0  0  0  0
  2  5  1  0  0  0  0
  5  6  2  0  0  0  0
  5  7  1  0  0  0  0
  7  8  1  0  0  0  0
  7  9  1  0  0  0  0
  9 10  1  0  0  0  0
  9 11  1  0  0  0  0
  9 29  1  0  0  0  0
 11 12  1  0  0  0  0
 11 13  1  0  0  0  0
 11 14  1  0  0  0  0
 14 15  2  0  0  0  0
 14 28  1  0  0  0  0
 15 16  1  0  0  0  0
 15 17  1  0  0  0  0
 17 18  1  0  0  0  0
 17 19  1  0  0  0  0
 19 20  1  0  0  0  0
 19 28  2  0  0  0  0
 20 21  1  0  0  0  0
 20 22  2  0  0  0  0
 22 23  1  0  0  0  0
 22 24  1  0  0  0  0
 24 25  1  0  0  0  0
 24 26  2  0  0  0  0
 26 27  1  0  0  0  0
 26 28  1  0  0  0  0
 29 30  2  0  0  0  0
 29 31  1  0  0  0  0
 31 32  1  0  0  0  0
 31 33  1  0  0  0  0
 33 34  1  0  0  0  0
 33 35  1  0  0  0  0
 33 36  1  0  0  0  0
M  END
$$$$

  -OEChem-03222214083D

 36 37  0     1  0  0  0  0  0999 V2000
   -3.6601   -4.6758    1.0185 H   0  0  0  0  0  0  0  0  0  0  0  0
   -3.6250   -3.8314    0.3246 C   0  0  0  0  0  0  0  0  0  0  0  0
   -4.5384   -3.2427    0.4387 H   0  0  0  0  0  0  0  0  0  0  0  0
   -3.5727   -4.2162   -0.6970 H   0  0  0  0  0  0  0  0  0  0  0  0
   -2.4129   -2.9667    0.6136 C   0  0  0  0  0  0  0  0  0  0  0  0
   -1.6594   -3.2548    1.5303 O   0  0  0  0  0  0  0  0  0  0  0  0
   -2.1514   -1.8723   -0.1805 N   0  0  0  0  0  0  0  0  0  0  0  0
   -2.7733   -1.7030   -0.9694 H   0  0  0  0  0  0  0  0  0  0  0  0
   -0.9764   -0.9968   -0.0641 C   0  0  1  0  0  0  0  0  0  0  0  0
   -0.5321   -1.1405    0.9255 H   0  0  0  0  0  0  0  0  0  0  0  0
    0.0786   -1.4407   -1.0923 C   0  0  0  0  0  0  0  0  0  0  0  0
    0.9576   -0.7959   -0.9959 H   0  0  0  0  0  0  0  0  0  0  0  0
    0.4021   -2.4600   -0.8620 H   0  0  0  0  0  0  0  0  0  0  0  0
   -0.4111   -1.3759   -2.5198 C   0  0  0  0  0  0  0  0  0  0  0  0
   -0.5869   -0.2563   -3.2979 C   0  0  0  0  0  0  0  0  0  0  0  0
   -0.3921    0.7683   -2.9871 H   0  0  0  0  0  0  0  0  0  0  0  0
   -1.0857   -0.6712   -4.5307 N   0  0  0  0  0  0  0  0  0  0  0  0
   -1.3376   -0.0518   -5.2977 H   0  0  0  0  0  0  0  0  0  0  0  0
   -1.2494   -2.0463   -4.5483 C   0  0  0  0  0  0  0  0  0  0  0  0
   -1.7262   -2.9144   -5.5306 C   0  0  0  0  0  0  0  0  0  0  0  0
   -2.0428   -2.5284   -6.4932 H   0  0  0  0  0  0  0  0  0  0  0  0
   -1.7906   -4.2880   -5.2563 C   0  0  0  0  0  0  0  0  0  0  0  0
   -2.1575   -4.9753   -6.0128 H   0  0  0  0  0  0  0  0  0  0  0  0
   -1.3812   -4.7756   -4.0057 C   0  0  0  0  0  0  0  0  0  0  0  0
   -1.4312   -5.8397   -3.7959 H   0  0  0  0  0  0  0  0  0  0  0  0
   -0.9041   -3.8934   -3.0260 C   0  0  0  0  0  0  0  0  0  0  0  0
   -0.5868   -4.2674   -2.0578 H   0  0  0  0  0  0  0  0  0  0  0  0
   -0.8397   -2.5246   -3.3095 C   0  0  0  0  0  0  0  0  0  0  0  0
   -1.3268    0.5041   -0.1398 C   0  0  0  0  0  0  0  0  0  0  0  0
   -2.1710    0.9218   -0.9241 O   0  0  0  0  0  0  0  0  0  0  0  0
   -0.7593    1.3905    0.7586 N   0  0  0  0  0  0  0  0  0  0  0  0
   -0.1509    1.0040    1.4750 H   0  0  0  0  0  0  0  0  0  0  0  0
   -1.1314    2.7979    0.8389 C   0  0  0  0  0  0  0  0  0  0  0  0
   -2.1814    2.9004    1.1321 H   0  0  0  0  0  0  0  0  0  0  0  0
   -0.5124    3.3104    1.5815 H   0  0  0  0  0  0  0  0  0  0  0  0
   -0.9854    3.2897   -0.1286 H   0  0  0  0  0  0  0  0  0  0  0  0
  1  2  1  0  0  0  0
  2  3  1  0  0  0  0
  2  4  1  0  0  0  0
  2  5  1  0  0  0  0
  5  6  2  0  0  0  0
  5  7  1  0  0  0  0
  7  8  1  0  0  0  0
  7  9  1  0  0  0  0
  9 10  1  0  0  0  0
  9 11  1  0  0  0  0
  9 29  1  0  0  0  0
 11 12  1  0  0  0  0
 11 13  1  0  0  0  0
 11 14  1  0  0  0  0
 14 15  2  0  0  0  0
 14 28  1  0  0  0  0
 15 16  1  0  0  0  0
 15 17  1  0  0  0  0
 17 18  1  0  0  0  0
 17 19  1  0  0  0  0
 19 20  1  0  0  0  0
 19 28  2  0  0  0  0
 20 21  1  0  0  0  0
 20 22  2  0  0  0  0
 22 23  1  0  0  0  0
 22 24  1  0  0  0  0
 24 25  1  0  0  0  0
 24 26  2  0  0  0  0
 26 27  1  0  0  0  0
 26 28  1  0  0  0  0
 29 30  2  0  0  0  0
 29 31  1  0  0  0  0
 31 32  1  0  0  0  0
 31 33  1  0  0  0  0
 33 34  1  0  0  0  0
 33 35  1  0  0  0  0
 33 36  1  0  0  0  0
M  END
$$$$

  -OEChem-03222214083D

 36 37  0     1  0  0  0  0  0999 V2000
   -3.7625   -4.6195    1.1143 H   0  0  0  0  0  0  0  0  0  0  0  0
   -3.7106   -3.7838    0.4110 C   0  0  0  0  0  0  0  0  0  0  0  0
   -4.6015   -3.1631    0.5330 H   0  0  0  0  0  0  0  0  0  0  0  0
   -3.6892   -4.1802   -0.6073 H   0  0  0  0  0  0  0  0  0  0  0  0
   -2.4665   -2.9565    0.6720 C   0  0  0  0  0  0  0  0  0  0  0  0
   -1.7155   -3.2489    1.5891 O   0  0  0  0  0  0  0  0  0  0  0  0
   -2.1795   -1.8860   -0.1444 N   0  0  0  0  0  0  0  0  0  0  0  0
   -2.8063   -1.7092   -0.9284 H   0  0  0  0  0  0  0  0  0  0  0  0
   -0.9892   -1.0296   -0.0478 C   0  0  1  0  0  0  0  0  0  0  0  0
   -0.5443   -1.1613    0.9432 H   0  0  0  0  0  0  0  0  0  0  0  0
    0.0626   -1.4808   -1.0773 C   0  0  0  0  0  0  0  0  0  0  0  0
    0.9462   -0.8417   -0.9838 H   0  0  0  0  0  0  0  0  0  0  0  0
    0.3794   -2.5046   -0.8556 H   0  0  0  0  0  0  0  0  0  0  0  0
   -0.4483   -1.4075   -2.4954 C   0  0  0  0  0  0  0  0  0  0  0  0
   -0.3658   -0.3384   -3.3546 C   0  0  0  0  0  0  0  0  0  0  0  0
    0.0640    0.6323   -3.1174 H   0  0  0  0  0  0  0  0  0  0  0  0
   -0.9650   -0.7157   -4.5549 N   0  0  0  0  0  0  0  0  0  0  0  0
   -1.0896   -0.1096   -5.3627 H   0  0  0  0  0  0  0  0  0  0  0  0
   -1.4200   -2.0224   -4.4803 C   0  0  0  0  0  0  0  0  0  0  0  0
   -2.0750   -2.8366   -5.4047 C   0  0  0  0  0  0  0  0  0  0  0  0
   -2.3175   -2.4564   -6.3907 H   0  0  0  0  0  0  0  0  0  0  0  0
   -2.4104   -4.1495   -5.0435 C   0  0  0  0  0  0  0  0  0  0  0  0
   -2.9182   -4.7944   -5.7549 H   0  0  0  0  0  0  0  0  0  0  0  0
   -2.0844   -4.6334   -3.7670 C   0  0  0  0  0  0  0  0  0  0  0  0
   -2.3367   -5.6535   -3.4931 H   0  0  0  0  0  0  0  0  0  0  0  0
   -1.4276   -3.8055   -2.8458 C   0  0  0  0  0  0  0  0  0  0  0  0
   -1.1649   -4.1763   -1.8602 H   0  0  0  0  0  0  0  0  0  0  0  0
   -1.1061   -2.4939   -3.2116 C   0  0  0  0  0  0  0  0  0  0  0  0
   -1.3227    0.4730   -0.1608 C   0  0  0  0  0  0  0  0  0  0  0  0
   -2.1585    0.8806   -0.9590 O   0  0  0  0  0  0  0  0  0  0  0  0
   -0.7452    1.3743    0.7165 N   0  0  0  0  0  0  0  0  0  0  0  0
   -0.1406    0.9984    1.4417 H   0  0  0  0  0  0  0  0  0  0  0  0
   -1.1072    2.7859    0.7667 C   0  0  0  0  0  0  0  0  0  0  0  0
   -2.1650    2.9016    1.0252 H   0  0  0  0  0  0  0  0  0  0  0  0
   -0.5078    3.3035    1.5217 H   0  0  0  0  0  0  0  0  0  0  0  0
   -0.9271    3.2629   -0.2024 H   0  0  0  0  0  0  0  0  0  0  0  0
  1  2  1  0  0  0  0
  2  3  1  0  0  0  0
  2  4  1  0  0  0  0
  2  5  1  0  0  0  0
  5  6  2  0  0  0  0
  5  7  1  0  0  0  0
  7  8  1  0  0  0  0
  7  9  1  0  0  0  0
  9 10  1  0  0  0  0
  9 11  1  0  0  0  0
  9 29  1  0  0  0  0
 11 12  1  0  0  0  0
 11 13  1  0  0  0  0
 11 14  1  0  0  0  0
 14 15  2  0  0  0  0
 14 28  1  0  0  0  0
 15 16  1  0  0  0  0
 15 17  1  0  0  0  0
 17 18  1  0  0  0  0
 17 19  1  0  0  0  0
 19 20  1  0  0  0  0
 19 28  2  0  0  0  0
 20 21  1  0  0  0  0
 20 22  2  0  0  0  0
 22 23  1  0  0  0  0
 22 24  1  0  0  0  0
 24 25  1  0  0  0  0
 24 26  2  0  0  0  0
 26 27  1  0  0  0  0
 26 28  1  0  0  0  0
 29 30  2  0  0  0  0
 29 31  1  0  0  0  0
 31 32  1  0  0  0  0
 31 33  1  0  0  0  0
 33 34  1  0  0  0  0
 33 35  1  0  0  0  0
 33 36  1  0  0  0  0
M  END
$$$$

  -OEChem-03222214083D

 36 37  0     1  0  0  0  0  0999 V2000
   -3.8660   -4.5025    1.3740 H   0  0  0  0  0  0  0  0  0  0  0  0
   -3.8159   -3.6921    0.6415 C   0  0  0  0  0  0  0  0  0  0  0  0
   -4.6574   -3.0148    0.8064 H   0  0  0  0  0  0  0  0  0  0  0  0
   -3.8926   -4.1180   -0.3617 H   0  0  0  0  0  0  0  0  0  0  0  0
   -2.5091   -2.9356    0.7875 C   0  0  0  0  0  0  0  0  0  0  0  0
   -1.7054   -3.2613    1.6465 O   0  0  0  0  0  0  0  0  0  0  0  0
   -2.2298   -1.8853   -0.0580 N   0  0  0  0  0  0  0  0  0  0  0  0
   -2.9134   -1.6606   -0.7800 H   0  0  0  0  0  0  0  0  0  0  0  0
   -1.0166   -1.0578   -0.0198 C   0  0  1  0  0  0  0  0  0  0  0  0
   -0.5395   -1.1846    0.9569 H   0  0  0  0  0  0  0  0  0  0  0  0
    0.0071   -1.5003   -1.0837 C   0  0  0  0  0  0  0  0  0  0  0  0
    0.9004   -0.8740   -0.9978 H   0  0  0  0  0  0  0  0  0  0  0  0
    0.3137   -2.5316   -0.8823 H   0  0  0  0  0  0  0  0  0  0  0  0
   -0.5276   -1.4133   -2.4934 C   0  0  0  0  0  0  0  0  0  0  0  0
   -0.2039   -0.4508   -3.4191 C   0  0  0  0  0  0  0  0  0  0  0  0
    0.4339    0.4110   -3.2369 H   0  0  0  0  0  0  0  0  0  0  0  0
   -0.8665   -0.7613   -4.6044 N   0  0  0  0  0  0  0  0  0  0  0  0
   -0.8489   -0.1986   -5.4519 H   0  0  0  0  0  0  0  0  0  0  0  0
   -1.5727   -1.9445   -4.4667 C   0  0  0  0  0  0  0  0  0  0  0  0
   -2.3596   -2.6662   -5.3647 C   0  0  0  0  0  0  0  0  0  0  0  0
   -2.5206   -2.2944   -6.3705 H   0  0  0  0  0  0  0  0  0  0  0  0
   -2.9290   -3.8795   -4.9532 C   0  0  0  0  0  0  0  0  0  0  0  0
   -3.5418   -4.4523   -5.6430 H   0  0  0  0  0  0  0  0  0  0  0  0
   -2.6942   -4.3618   -3.6566 C   0  0  0  0  0  0  0  0  0  0  0  0
   -3.1185   -5.3119   -3.3460 H   0  0  0  0  0  0  0  0  0  0  0  0
   -1.9042   -3.6250   -2.7633 C   0  0  0  0  0  0  0  0  0  0  0  0
   -1.7001   -4.0043   -1.7681 H   0  0  0  0  0  0  0  0  0  0  0  0
   -1.3644   -2.4003   -3.1703 C   0  0  0  0  0  0  0  0  0  0  0  0
   -1.3414    0.4457   -0.1453 C   0  0  0  0  0  0  0  0  0  0  0  0
   -2.2175    0.8427   -0.9049 O   0  0  0  0  0  0  0  0  0  0  0  0
   -0.7232    1.3573    0.6926 N   0  0  0  0  0  0  0  0  0  0  0  0
   -0.0822    0.9921    1.3912 H   0  0  0  0  0  0  0  0  0  0  0  0
   -1.0629    2.7747    0.7230 C   0  0  0  0  0  0  0  0  0  0  0  0
   -2.1084    2.9124    1.0184 H   0  0  0  0  0  0  0  0  0  0  0  0
   -0.4277    3.3001    1.4426 H   0  0  0  0  0  0  0  0  0  0  0  0
   -0.9125    3.2262   -0.2632 H   0  0  0  0  0  0  0  0  0  0  0  0
  1  2  1  0  0  0  0
  2  3  1  0  0  0  0
  2  4  1  0  0  0  0
  2  5  1  0  0  0  0
  5  6  2  0  0  0  0
  5  7  1  0  0  0  0
  7  8  1  0  0  0  0
  7  9  1  0  0  0  0
  9 10  1  0  0  0  0
  9 11  1  0  0  0  0
  9 29  1  0  0  0  0
 11 12  1  0  0  0  0
 11 13  1  0  0  0  0
 11 14  1  0  0  0  0
 14 15  2  0  0  0  0
 14 28  1  0  0  0  0
 15 16  1  0  0  0  0
 15 17  1  0  0  0  0
 17 18  1  0  0  0  0
 17 19  1  0  0  0  0
 19 20  1  0  0  0  0
 19 28  2  0  0  0  0
 20 21  1  0  0  0  0
 20 22  2  0  0  0  0
 22 23  1  0  0  0  0
 22 24  1  0  0  0  0
 24 25  1  0  0  0  0
 24 26  2  0  0  0  0
 26 27  1  0  0  0  0
 26 28  1  0  0  0  0
 29 30  2  0  0  0  0
 29 31  1  0  0  0  0
 31 32  1  0  0  0  0
 31 33  1  0  0  0  0
 33 34  1  0  0  0  0
 33 35  1  0  0  0  0
 33 36  1  0  0  0  0
M  END
$$$$

  -OEChem-03222214083D

 36 37  0     1  0  0  0  0  0999 V2000
   -3.9201   -4.3275    1.7249 H   0  0  0  0  0  0  0  0  0  0  0  0
   -3.8670   -3.5932    0.9163 C   0  0  0  0  0  0  0  0  0  0  0  0
   -4.6597   -2.8548    1.0596 H   0  0  0  0  0  0  0  0  0  0  0  0
   -4.0244   -4.1047   -0.0359 H   0  0  0  0  0  0  0  0  0  0  0  0
   -2.5133   -2.9075    0.9213 C   0  0  0  0  0  0  0  0  0  0  0  0
   -1.6476   -3.2707    1.7015 O   0  0  0  0  0  0  0  0  0  0  0  0
   -2.2683   -1.8671    0.0519 N   0  0  0  0  0  0  0  0  0  0  0  0
   -3.0188   -1.5811   -0.5762 H   0  0  0  0  0  0  0  0  0  0  0  0
   -1.0358   -1.0706    0.0096 C   0  0  1  0  0  0  0  0  0  0  0  0
   -0.5061   -1.2033    0.9580 H   0  0  0  0  0  0  0  0  0  0  0  0
   -0.0620   -1.4915   -1.1123 C   0  0  0  0  0  0  0  0  0  0  0  0
    0.8436   -0.8810   -1.0406 H   0  0  0  0  0  0  0  0  0  0  0  0
    0.2343   -2.5312   -0.9405 H   0  0  0  0  0  0  0  0  0  0  0  0
   -0.6238   -1.3858   -2.5138 C   0  0  0  0  0  0  0  0  0  0  0  0
   -0.0838   -0.5849   -3.4930 C   0  0  0  0  0  0  0  0  0  0  0  0
    0.7327    0.1192   -3.3514 H   0  0  0  0  0  0  0  0  0  0  0  0
   -0.7867   -0.8080   -4.6725 N   0  0  0  0  0  0  0  0  0  0  0  0
   -0.6325   -0.3212   -5.5525 H   0  0  0  0  0  0  0  0  0  0  0  0
   -1.7146   -1.8168   -4.4906 C   0  0  0  0  0  0  0  0  0  0  0  0
   -2.5979   -2.4182   -5.3870 C   0  0  0  0  0  0  0  0  0  0  0  0
   -2.6615   -2.0663   -6.4107 H   0  0  0  0  0  0  0  0  0  0  0  0
   -3.3856   -3.4914   -4.9511 C   0  0  0  0  0  0  0  0  0  0  0  0
   -4.0755   -3.9723   -5.6382 H   0  0  0  0  0  0  0  0  0  0  0  0
   -3.2625   -3.9610   -3.6356 C   0  0  0  0  0  0  0  0  0  0  0  0
   -3.8501   -4.8130   -3.3080 H   0  0  0  0  0  0  0  0  0  0  0  0
   -2.3711   -3.3435   -2.7468 C   0  0  0  0  0  0  0  0  0  0  0  0
   -2.2460   -3.7368   -1.7461 H   0  0  0  0  0  0  0  0  0  0  0  0
   -1.6205   -2.2394   -3.1679 C   0  0  0  0  0  0  0  0  0  0  0  0
   -1.3552    0.4349   -0.1008 C   0  0  0  0  0  0  0  0  0  0  0  0
   -2.2945    0.8310   -0.7813 O   0  0  0  0  0  0  0  0  0  0  0  0
   -0.6764    1.3445    0.6910 N   0  0  0  0  0  0  0  0  0  0  0  0
    0.0202    0.9793    1.3340 H   0  0  0  0  0  0  0  0  0  0  0  0
   -1.0083    2.7631    0.7441 C   0  0  0  0  0  0  0  0  0  0  0  0
   -2.0258    2.9048    1.1230 H   0  0  0  0  0  0  0  0  0  0  0  0
   -0.3149    3.2888    1.4075 H   0  0  0  0  0  0  0  0  0  0  0  0
   -0.9377    3.2113   -0.2526 H   0  0  0  0  0  0  0  0  0  0  0  0
  1  2  1  0  0  0  0
  2  3  1  0  0  0  0
  2  4  1  0  0  0  0
  2  5  1  0  0  0  0
  5  6  2  0  0  0  0
  5  7  1  0  0  0  0
  7  8  1  0  0  0  0
  7  9  1  0  0  0  0
  9 10  1  0  0  0  0
  9 11  1  0  0  0  0
  9 29  1  0  0  0  0
 11 12  1  0  0  0  0
 11 13  1  0  0  0  0
 11 14  1  0  0  0  0
 14 15  2  0  0  0  0
 14 28  1  0  0  0  0
 15 16  1  0  0  0  0
 15 17  1  0  0  0  0
 17 18  1  0  0  0  0
 17 19  1  0  0  0  0
 19 20  1  0  0  0  0
 19 28  2  0  0  0  0
 20 21  1  0  0  0  0
 20 22  2  0  0  0  0
 22 23  1  0  0  0  0
 22 24  1  0  0  0  0
 24 25  1  0  0  0  0
 24 26  2  0  0  0  0
 26 27  1  0  0  0  0
 26 28  1  0  0  0  0
 29 30  2  0  0  0  0
 29 31  1  0  0  0  0
 31 32  1  0  0  0  0
 31 33  1  0  0  0  0
 33 34  1  0  0  0  0
 33 35  1  0  0  0  0
 33 36  1  0  0  0  0
M  END
$$$$

  -OEChem-03222214083D

 36 37  0     1  0  0  0  0  0999 V2000
   -3.8622   -4.1754    2.0399 H   0  0  0  0  0  0  0  0  0  0  0  0
   -3.8073   -3.5679    1.1322 C   0  0  0  0  0  0  0  0  0  0  0  0
   -4.5945   -2.8107    1.1687 H   0  0  0  0  0  0  0  0  0  0  0  0
   -3.9715   -4.2126    0.2658 H   0  0  0  0  0  0  0  0  0  0  0  0
   -2.4475   -2.9021    1.0332 C   0  0  0  0  0  0  0  0  0  0  0  0
   -1.5296   -3.2830    1.7422 O   0  0  0  0  0  0  0  0  0  0  0  0
   -2.2549   -1.8600    0.1519 N   0  0  0  0  0  0  0  0  0  0  0  0
   -3.0582   -1.5267   -0.3806 H   0  0  0  0  0  0  0  0  0  0  0  0
   -1.0241   -1.0735    0.0350 C   0  0  1  0  0  0  0  0  0  0  0  0
   -0.4418   -1.2082    0.9519 H   0  0  0  0  0  0  0  0  0  0  0  0
   -0.1055   -1.4738   -1.1408 C   0  0  0  0  0  0  0  0  0  0  0  0
    0.8079   -0.8731   -1.0856 H   0  0  0  0  0  0  0  0  0  0  0  0
    0.1876   -2.5173   -0.9857 H   0  0  0  0  0  0  0  0  0  0  0  0
   -0.6831   -1.3708   -2.5419 C   0  0  0  0  0  0  0  0  0  0  0  0
    0.0456   -0.7984   -3.5600 C   0  0  0  0  0  0  0  0  0  0  0  0
    1.0097   -0.3093   -3.4434 H   0  0  0  0  0  0  0  0  0  0  0  0
   -0.6773   -0.9115   -4.7398 N   0  0  0  0  0  0  0  0  0  0  0  0
   -0.3967   -0.5395   -5.6442 H   0  0  0  0  0  0  0  0  0  0  0  0
   -1.8207   -1.6530   -4.5215 C   0  0  0  0  0  0  0  0  0  0  0  0
   -2.8009   -2.0665   -5.4231 C   0  0  0  0  0  0  0  0  0  0  0  0
   -2.7565   -1.7551   -6.4606 H   0  0  0  0  0  0  0  0  0  0  0  0
   -3.8287   -2.9024   -4.9739 C   0  0  0  0  0  0  0  0  0  0  0  0
   -4.5994   -3.2363   -5.6622 H   0  0  0  0  0  0  0  0  0  0  0  0
   -3.8422   -3.3319   -3.6410 C   0  0  0  0  0  0  0  0  0  0  0  0
   -4.6187   -4.0102   -3.3004 H   0  0  0  0  0  0  0  0  0  0  0  0
   -2.8482   -2.9031   -2.7497 C   0  0  0  0  0  0  0  0  0  0  0  0
   -2.8499   -3.2951   -1.7442 H   0  0  0  0  0  0  0  0  0  0  0  0
   -1.8488   -2.0156   -3.1752 C   0  0  0  0  0  0  0  0  0  0  0  0
   -1.3568    0.4309   -0.0484 C   0  0  0  0  0  0  0  0  0  0  0  0
   -2.3567    0.8174   -0.6429 O   0  0  0  0  0  0  0  0  0  0  0  0
   -0.6342    1.3426    0.7012 N   0  0  0  0  0  0  0  0  0  0  0  0
    0.1185    0.9833    1.2809 H   0  0  0  0  0  0  0  0  0  0  0  0
   -0.9861    2.7539    0.7992 C   0  0  0  0  0  0  0  0  0  0  0  0
   -1.9691    2.8722    1.2671 H   0  0  0  0  0  0  0  0  0  0  0  0
   -0.2472    3.2864    1.4054 H   0  0  0  0  0  0  0  0  0  0  0  0
   -1.0108    3.2127   -0.1949 H   0  0  0  0  0  0  0  0  0  0  0  0
  1  2  1  0  0  0  0
  2  3  1  0  0  0  0
  2  4  1  0  0  0  0
  2  5  1  0  0  0  0
  5  6  2  0  0  0  0
  5  7  1  0  0  0  0
  7  8  1  0  0  0  0
  7  9  1  0  0  0  0
  9 10  1  0  0  0  0
  9 11  1  0  0  0  0
  9 29  1  0  0  0  0
 11 12  1  0  0  0  0
 11 13  1  0  0  0  0
 11 14  1  0  0  0  0
 14 15  2  0  0  0  0
 14 28  1  0  0  0  0
 15 16  1  0  0  0  0
 15 17  1  0  0  0  0
 17 18  1  0  0  0  0
 17 19  1  0  0  0  0
 19 20  1  0  0  0  0
 19 28  2  0  0  0  0
 20 21  1  0  0  0  0
 20 22  2  0  0  0  0
 22 23  1  0  0  0  0
 22 24  1  0  0  0  0
 24 25  1  0  0  0  0
 24 26  2  0  0  0  0
 26 27  1  0  0  0  0
 26 28  1  0  0  0  0
 29 30  2  0  0  0  0
 29 31  1  0  0  0  0
 31 32  1  0  0  0  0
 31 33  1  0  0  0  0
 33 34  1  0  0  0  0
 33 35  1  0  0  0  0
 33 36  1  0  0  0  0
M  END
$$$$

  -OEChem-03222214083D

 36 37  0     1  0  0  0  0  0999 V2000
   -3.5298   -4.3672    2.1684 H   0  0  0  0  0  0  0  0  0  0  0  0
   -3.6054   -3.6526    1.3441 C   0  0  0  0  0  0  0  0  0  0  0  0
   -4.3644   -2.9072    1.5940 H   0  0  0  0  0  0  0  0  0  0  0  0
   -3.9110   -4.1863    0.4410 H   0  0  0  0  0  0  0  0  0  0  0  0
   -2.2668   -2.9767    1.1162 C   0  0  0  0  0  0  0  0  0  0  0  0
   -1.2780   -3.3616    1.7200 O   0  0  0  0  0  0  0  0  0  0  0  0
   -2.1748   -1.9205    0.2360 N   0  0  0  0  0  0  0  0  0  0  0  0
   -3.0436   -1.5394   -0.1342 H   0  0  0  0  0  0  0  0  0  0  0  0
   -0.9807   -1.0967    0.0426 C   0  0  1  0  0  0  0  0  0  0  0  0
   -0.3342   -1.2189    0.9174 H   0  0  0  0  0  0  0  0  0  0  0  0
   -0.1372   -1.4777   -1.1900 C   0  0  0  0  0  0  0  0  0  0  0  0
    0.7663   -0.8594   -1.1738 H   0  0  0  0  0  0  0  0  0  0  0  0
    0.1844   -2.5124   -1.0336 H   0  0  0  0  0  0  0  0  0  0  0  0
   -0.7315   -1.4224   -2.5930 C   0  0  0  0  0  0  0  0  0  0  0  0
    0.1281   -1.1422   -3.6326 C   0  0  0  0  0  0  0  0  0  0  0  0
    1.1879   -0.9224   -3.5273 H   0  0  0  0  0  0  0  0  0  0  0  0
   -0.5799   -1.1762   -4.8229 N   0  0  0  0  0  0  0  0  0  0  0  0
   -0.1975   -0.9895   -5.7472 H   0  0  0  0  0  0  0  0  0  0  0  0
   -1.8919   -1.5194   -4.5757 C   0  0  0  0  0  0  0  0  0  0  0  0
   -2.9319   -1.6874   -5.4892 C   0  0  0  0  0  0  0  0  0  0  0  0
   -2.7641   -1.5251   -6.5480 H   0  0  0  0  0  0  0  0  0  0  0  0
   -4.1907   -2.0718   -5.0213 C   0  0  0  0  0  0  0  0  0  0  0  0
   -5.0138   -2.2069   -5.7167 H   0  0  0  0  0  0  0  0  0  0  0  0
   -4.3818   -2.2906   -3.6529 C   0  0  0  0  0  0  0  0  0  0  0  0
   -5.3571   -2.5987   -3.2888 H   0  0  0  0  0  0  0  0  0  0  0  0
   -3.3217   -2.1169   -2.7509 C   0  0  0  0  0  0  0  0  0  0  0  0
   -3.5179   -2.3160   -1.7122 H   0  0  0  0  0  0  0  0  0  0  0  0
   -2.0537   -1.7094   -3.2000 C   0  0  0  0  0  0  0  0  0  0  0  0
   -1.3651    0.3958    0.0024 C   0  0  0  0  0  0  0  0  0  0  0  0
   -2.4346    0.7456   -0.4848 O   0  0  0  0  0  0  0  0  0  0  0  0
   -0.6205    1.3231    0.7098 N   0  0  0  0  0  0  0  0  0  0  0  0
    0.2028    0.9899    1.2026 H   0  0  0  0  0  0  0  0  0  0  0  0
   -1.0110    2.7202    0.8534 C   0  0  0  0  0  0  0  0  0  0  0  0
   -1.9866    2.7976    1.3448 H   0  0  0  0  0  0  0  0  0  0  0  0
   -0.2756    3.2579    1.4593 H   0  0  0  0  0  0  0  0  0  0  0  0
   -1.0708    3.2032   -0.1276 H   0  0  0  0  0  0  0  0  0  0  0  0
  1  2  1  0  0  0  0
  2  3  1  0  0  0  0
  2  4  1  0  0  0  0
  2  5  1  0  0  0  0
  5  6  2  0  0  0  0
  5  7  1  0  0  0  0
  7  8  1  0  0  0  0
  7  9  1  0  0  0  0
  9 10  1  0  0  0  0
  9 11  1  0  0  0  0
  9 29  1  0  0  0  0
 11 12  1  0  0  0  0
 11 13  1  0  0  0  0
 11 14  1  0  0  0  0
 14 15  2  0  0  0  0
 14 28  1  0  0  0  0
 15 16  1  0  0  0  0
 15 17  1  0  0  0  0
 17 18  1  0  0  0  0
 17 19  1  0  0  0  0
 19 20  1  0  0  0  0
 19 28  2  0  0  0  0
 20 21  1  0  0  0  0
 20 22  2  0  0  0  0
 22 23  1  0  0  0  0
 22 24  1  0  0  0  0
 24 25  1  0  0  0  0
 24 26  2  0  0  0  0
 26 27  1  0  0  0  0
 26 28  1  0  0  0  0
 29 30  2  0  0  0  0
 29 31  1  0  0  0  0
 31 32  1  0  0  0  0
 31 33  1  0  0  0  0
 33 34  1  0  0  0  0
 33 35  1  0  0  0  0
 33 36  1  0  0  0  0
M  END
$$$$

  -OEChem-03222214083D

 36 37  0     1  0  0  0  0  0999 V2000
   -3.4462   -4.5751    1.9147 H   0  0  0  0  0  0  0  0  0  0  0  0
   -3.5638   -3.7550    1.2009 C   0  0  0  0  0  0  0  0  0  0  0  0
   -4.3581   -3.0920    1.5524 H   0  0  0  0  0  0  0  0  0  0  0  0
   -3.8470   -4.1701    0.2304 H   0  0  0  0  0  0  0  0  0  0  0  0
   -2.2643   -2.9837    1.0720 C   0  0  0  0  0  0  0  0  0  0  0  0
   -1.2859   -3.3175    1.7221 O   0  0  0  0  0  0  0  0  0  0  0  0
   -2.1961   -1.9051    0.2176 N   0  0  0  0  0  0  0  0  0  0  0  0
   -3.0579   -1.6123   -0.2313 H   0  0  0  0  0  0  0  0  0  0  0  0
   -1.0254   -1.0339    0.0533 C   0  0  1  0  0  0  0  0  0  0  0  0
   -0.3918   -1.1550    0.9377 H   0  0  0  0  0  0  0  0  0  0  0  0
   -0.1663   -1.4494   -1.1535 C   0  0  0  0  0  0  0  0  0  0  0  0
    0.7214   -0.8087   -1.1572 H   0  0  0  0  0  0  0  0  0  0  0  0
    0.1788   -2.4685   -0.9503 H   0  0  0  0  0  0  0  0  0  0  0  0
   -0.7332   -1.4631   -2.5671 C   0  0  0  0  0  0  0  0  0  0  0  0
    0.1670   -1.5387   -3.6066 C   0  0  0  0  0  0  0  0  0  0  0  0
    1.2479   -1.5926   -3.4964 H   0  0  0  0  0  0  0  0  0  0  0  0
   -0.5329   -1.5744   -4.8023 N   0  0  0  0  0  0  0  0  0  0  0  0
   -0.1201   -1.6405   -5.7300 H   0  0  0  0  0  0  0  0  0  0  0  0
   -1.8865   -1.4878   -4.5547 C   0  0  0  0  0  0  0  0  0  0  0  0
   -2.9393   -1.4728   -5.4689 C   0  0  0  0  0  0  0  0  0  0  0  0
   -2.7440   -1.5571   -6.5320 H   0  0  0  0  0  0  0  0  0  0  0  0
   -4.2472   -1.3378   -4.9960 C   0  0  0  0  0  0  0  0  0  0  0  0
   -5.0805   -1.3212   -5.6920 H   0  0  0  0  0  0  0  0  0  0  0  0
   -4.4749   -1.2031   -3.6222 C   0  0  0  0  0  0  0  0  0  0  0  0
   -5.4875   -1.0705   -3.2534 H   0  0  0  0  0  0  0  0  0  0  0  0
   -3.4015   -1.2200   -2.7197 C   0  0  0  0  0  0  0  0  0  0  0  0
   -3.6249   -1.0669   -1.6766 H   0  0  0  0  0  0  0  0  0  0  0  0
   -2.0824   -1.3882   -3.1744 C   0  0  0  0  0  0  0  0  0  0  0  0
   -1.3995    0.4627    0.0341 C   0  0  0  0  0  0  0  0  0  0  0  0
   -2.4680    0.8339   -0.4365 O   0  0  0  0  0  0  0  0  0  0  0  0
   -0.6533    1.3691    0.7673 N   0  0  0  0  0  0  0  0  0  0  0  0
    0.1616    1.0176    1.2614 H   0  0  0  0  0  0  0  0  0  0  0  0
   -1.0440    2.7609    0.9573 C   0  0  0  0  0  0  0  0  0  0  0  0
   -1.9812    2.8220    1.5203 H   0  0  0  0  0  0  0  0  0  0  0  0
   -0.2696    3.2982    1.5132 H   0  0  0  0  0  0  0  0  0  0  0  0
   -1.1803    3.2570   -0.0096 H   0  0  0  0  0  0  0  0  0  0  0  0
  1  2  1  0  0  0  0
  2  3  1  0  0  0  0
  2  4  1  0  0  0  0
  2  5  1  0  0  0  0
  5  6  2  0  0  0  0
  5  7  1  0  0  0  0
  7  8  1  0  0  0  0
  7  9  1  0  0  0  0
  9 10  1  0  0  0  0
  9 11  1  0  0  0  0
  9 29  1  0  0  0  0
 11 12  1  0  0  0  0
 11 13  1  0  0  0  0
 11 14  1  0  0  0  0
 14 15  2  0  0  0  0
 14 28  1  0  0  0  0
 15 16  1  0  0  0  0
 15 17  1  0  0  0  0
 17 18  1  0  0  0  0
 17 19  1  0  0  0  0
 19 20  1  0  0  0  0
 19 28  2  0  0  0  0
 20 21  1  0  0  0  0
 20 22  2  0  0  0  0
 22 23  1  0  0  0  0
 22 24  1  0  0  0  0
 24 25  1  0  0  0  0
 24 26  2  0  0  0  0
 26 27  1  0  0  0  0
 26 28  1  0  0  0  0
 29 30  2  0  0  0  0
 29 31  1  0  0  0  0
 31 32  1  0  0  0  0
 31 33  1  0  0  0  0
 33 34  1  0  0  0  0
 33 35  1  0  0  0  0
 33 36  1  0  0  0  0
M  END
$$$$

  -OEChem-03222214083D

 36 37  0     1  0  0  0  0  0999 V2000
   -3.3922   -4.5406    1.5917 H   0  0  0  0  0  0  0  0  0  0  0  0
   -3.5395   -3.6658    0.9523 C   0  0  0  0  0  0  0  0  0  0  0  0
   -4.3301   -3.0456    1.3813 H   0  0  0  0  0  0  0  0  0  0  0  0
   -3.8476   -4.0024   -0.0405 H   0  0  0  0  0  0  0  0  0  0  0  0
   -2.2526   -2.8692    0.8506 C   0  0  0  0  0  0  0  0  0  0  0  0
   -1.2371   -3.2774    1.3925 O   0  0  0  0  0  0  0  0  0  0  0  0
   -2.2353   -1.6893    0.1373 N   0  0  0  0  0  0  0  0  0  0  0  0
   -3.1180   -1.3671   -0.2508 H   0  0  0  0  0  0  0  0  0  0  0  0
   -1.0796   -0.7867    0.0163 C   0  0  1  0  0  0  0  0  0  0  0  0
   -0.4707   -0.9993    0.9008 H   0  0  0  0  0  0  0  0  0  0  0  0
   -0.1524   -1.1561   -1.1553 C   0  0  0  0  0  0  0  0  0  0  0  0
    0.8018   -0.6486   -0.9803 H   0  0  0  0  0  0  0  0  0  0  0  0
    0.0437   -2.2312   -1.0873 H   0  0  0  0  0  0  0  0  0  0  0  0
   -0.5508   -0.8602   -2.5905 C   0  0  0  0  0  0  0  0  0  0  0  0
    0.3303   -1.2122   -3.5885 C   0  0  0  0  0  0  0  0  0  0  0  0
    1.3282   -1.6143   -3.4280 H   0  0  0  0  0  0  0  0  0  0  0  0
   -0.2638   -0.9662   -4.8172 N   0  0  0  0  0  0  0  0  0  0  0  0
    0.1639   -1.1286   -5.7263 H   0  0  0  0  0  0  0  0  0  0  0  0
   -1.5603   -0.5336   -4.6305 C   0  0  0  0  0  0  0  0  0  0  0  0
   -2.5315   -0.2286   -5.5835 C   0  0  0  0  0  0  0  0  0  0  0  0
   -2.2999   -0.2852   -6.6410 H   0  0  0  0  0  0  0  0  0  0  0  0
   -3.8102    0.1399   -5.1557 C   0  0  0  0  0  0  0  0  0  0  0  0
   -4.5803    0.3826   -5.8816 H   0  0  0  0  0  0  0  0  0  0  0  0
   -4.0974    0.1807   -3.7864 C   0  0  0  0  0  0  0  0  0  0  0  0
   -5.0922    0.4557   -3.4491 H   0  0  0  0  0  0  0  0  0  0  0  0
   -3.1075   -0.1337   -2.8445 C   0  0  0  0  0  0  0  0  0  0  0  0
   -3.3753   -0.1155   -1.8003 H   0  0  0  0  0  0  0  0  0  0  0  0
   -1.8105   -0.4726   -3.2578 C   0  0  0  0  0  0  0  0  0  0  0  0
   -1.3681    0.7211    0.1927 C   0  0  0  0  0  0  0  0  0  0  0  0
   -2.4719    1.1885   -0.0555 O   0  0  0  0  0  0  0  0  0  0  0  0
   -0.5199    1.4829    0.9790 N   0  0  0  0  0  0  0  0  0  0  0  0
    0.3360    1.0455    1.3069 H   0  0  0  0  0  0  0  0  0  0  0  0
   -0.8165    2.8474    1.3997 C   0  0  0  0  0  0  0  0  0  0  0  0
   -1.6977    2.8654    2.0498 H   0  0  0  0  0  0  0  0  0  0  0  0
    0.0303    3.2647    1.9531 H   0  0  0  0  0  0  0  0  0  0  0  0
   -1.0062    3.4839    0.5289 H   0  0  0  0  0  0  0  0  0  0  0  0
  1  2  1  0  0  0  0
  2  3  1  0  0  0  0
  2  4  1  0  0  0  0
  2  5  1  0  0  0  0
  5  6  2  0  0  0  0
  5  7  1  0  0  0  0
  7  8  1  0  0  0  0
  7  9  1  0  0  0  0
  9 10  1  0  0  0  0
  9 11  1  0  0  0  0
  9 29  1  0  0  0  0
 11 12  1  0  0  0  0
 11 13  1  0  0  0  0
 11 14  1  0  0  0  0
 14 15  2  0  0  0  0
 14 28  1  0  0  0  0
 15 16  1  0  0  0  0
 15 17  1  0  0  0  0
 17 18  1  0  0  0  0
 17 19  1  0  0  0  0
 19 20  1  0  0  0  0
 19 28  2  0  0  0  0
 20 21  1  0  0  0  0
 20 22  2  0  0  0  0
 22 23  1  0  0  0  0
 22 24  1  0  0  0  0
 24 25  1  0  0  0  0
 24 26  2  0  0  0  0
 26 27  1  0  0  0  0
 26 28  1  0  0  0  0
 29 30  2  0  0  0  0
 29 31  1  0  0  0  0
 31 32  1  0  0  0  0
 31 33  1  0  0  0  0
 33 34  1  0  0  0  0
 33 35  1  0  0  0  0
 33 36  1  0  0  0  0
M  END
$$$$

  -OEChem-03222214083D

 36 37  0     1  0  0  0  0  0999 V2000
   -3.3128   -4.6216    1.5307 H   0  0  0  0  0  0  0  0  0  0  0  0
   -3.4987   -3.6989    0.9736 C   0  0  0  0  0  0  0  0  0  0  0  0
   -4.2108   -3.0875    1.5331 H   0  0  0  0  0  0  0  0  0  0  0  0
   -3.9309   -3.9543    0.0031 H   0  0  0  0  0  0  0  0  0  0  0  0
   -2.2024   -2.9360    0.7767 C   0  0  0  0  0  0  0  0  0  0  0  0
   -1.1462   -3.4226    1.1501 O   0  0  0  0  0  0  0  0  0  0  0  0
   -2.2223   -1.7000    0.1654 N   0  0  0  0  0  0  0  0  0  0  0  0
   -3.1315   -1.3175   -0.0842 H   0  0  0  0  0  0  0  0  0  0  0  0
   -1.0567   -0.8218   -0.0198 C   0  0  1  0  0  0  0  0  0  0  0  0
   -0.3918   -1.1097    0.8011 H   0  0  0  0  0  0  0  0  0  0  0  0
   -0.2119   -1.1803   -1.2575 C   0  0  0  0  0  0  0  0  0  0  0  0
    0.7525   -0.6792   -1.1278 H   0  0  0  0  0  0  0  0  0  0  0  0
   -0.0155   -2.2567   -1.2082 H   0  0  0  0  0  0  0  0  0  0  0  0
   -0.6583   -0.8644   -2.6767 C   0  0  0  0  0  0  0  0  0  0  0  0
    0.0175   -1.5028   -3.6934 C   0  0  0  0  0  0  0  0  0  0  0  0
    0.8650   -2.1711   -3.5563 H   0  0  0  0  0  0  0  0  0  0  0  0
   -0.5439   -1.1369   -4.9064 N   0  0  0  0  0  0  0  0  0  0  0  0
   -0.2356   -1.4546   -5.8229 H   0  0  0  0  0  0  0  0  0  0  0  0
   -1.6275   -0.3132   -4.6882 C   0  0  0  0  0  0  0  0  0  0  0  0
   -2.4983    0.2506   -5.6202 C   0  0  0  0  0  0  0  0  0  0  0  0
   -2.3471    0.0879   -6.6813 H   0  0  0  0  0  0  0  0  0  0  0  0
   -3.5736    1.0193   -5.1658 C   0  0  0  0  0  0  0  0  0  0  0  0
   -4.2633    1.4688   -5.8741 H   0  0  0  0  0  0  0  0  0  0  0  0
   -3.7658    1.1925   -3.7907 C   0  0  0  0  0  0  0  0  0  0  0  0
   -4.6091    1.7730   -3.4287 H   0  0  0  0  0  0  0  0  0  0  0  0
   -2.8782    0.6147   -2.8722 C   0  0  0  0  0  0  0  0  0  0  0  0
   -3.0849    0.7454   -1.8255 H   0  0  0  0  0  0  0  0  0  0  0  0
   -1.7732   -0.1282   -3.3104 C   0  0  0  0  0  0  0  0  0  0  0  0
   -1.2587    0.6739    0.3101 C   0  0  0  0  0  0  0  0  0  0  0  0
   -2.3826    1.1604    0.3234 O   0  0  0  0  0  0  0  0  0  0  0  0
   -0.2894    1.3371    1.0449 N   0  0  0  0  0  0  0  0  0  0  0  0
    0.5999    0.8658    1.1817 H   0  0  0  0  0  0  0  0  0  0  0  0
   -0.4909    2.6442    1.6600 C   0  0  0  0  0  0  0  0  0  0  0  0
   -1.2596    2.5874    2.4377 H   0  0  0  0  0  0  0  0  0  0  0  0
    0.4398    2.9936    2.1172 H   0  0  0  0  0  0  0  0  0  0  0  0
   -0.8021    3.3778    0.9089 H   0  0  0  0  0  0  0  0  0  0  0  0
  1  2  1  0  0  0  0
  2  3  1  0  0  0  0
  2  4  1  0  0  0  0
  2  5  1  0  0  0  0
  5  6  2  0  0  0  0
  5  7  1  0  0  0  0
  7  8  1  0  0  0  0
  7  9  1  0  0  0  0
  9 10  1  0  0  0  0
  9 11  1  0  0  0  0
  9 29  1  0  0  0  0
 11 12  1  0  0  0  0
 11 13  1  0  0  0  0
 11 14  1  0  0  0  0
 14 15  2  0  0  0  0
 14 28  1  0  0  0  0
 15 16  1  0  0  0  0
 15 17  1  0  0  0  0
 17 18  1  0  0  0  0
 17 19  1  0  0  0  0
 19 20  1  0  0  0  0
 19 28  2  0  0  0  0
 20 21  1  0  0  0  0
 20 22  2  0  0  0  0
 22 23  1  0  0  0  0
 22 24  1  0  0  0  0
 24 25  1  0  0  0  0
 24 26  2  0  0  0  0
 26 27  1  0  0  0  0
 26 28  1  0  0  0  0
 29 30  2  0  0  0  0
 29 31  1  0  0  0  0
 31 32  1  0  0  0  0
 31 33  1  0  0  0  0
 33 34  1  0  0  0  0
 33 35  1  0  0  0  0
 33 36  1  0  0  0  0
M  END
$$$$

  -OEChem-03222214083D

 36 37  0     1  0  0  0  0  0999 V2000
   -3.4012   -4.9305    1.3648 H   0  0  0  0  0  0  0  0  0  0  0  0
   -3.5687   -4.0299    0.7677 C   0  0  0  0  0  0  0  0  0  0  0  0
   -4.3677   -3.4449    1.2296 H   0  0  0  0  0  0  0  0  0  0  0  0
   -3.8770   -4.3250   -0.2381 H   0  0  0  0  0  0  0  0  0  0  0  0
   -2.2978   -3.2049    0.6979 C   0  0  0  0  0  0  0  0  0  0  0  0
   -1.2707   -3.6181    1.2138 O   0  0  0  0  0  0  0  0  0  0  0  0
   -2.3047   -1.9895    0.0488 N   0  0  0  0  0  0  0  0  0  0  0  0
   -3.2003   -1.6453   -0.2952 H   0  0  0  0  0  0  0  0  0  0  0  0
   -1.1879   -1.0324    0.0336 C   0  0  1  0  0  0  0  0  0  0  0  0
   -0.5777   -1.2499    0.9160 H   0  0  0  0  0  0  0  0  0  0  0  0
   -0.2575   -1.3195   -1.1646 C   0  0  0  0  0  0  0  0  0  0  0  0
    0.6733   -0.7803   -0.9641 H   0  0  0  0  0  0  0  0  0  0  0  0
   -0.0128   -2.3867   -1.1381 H   0  0  0  0  0  0  0  0  0  0  0  0
   -0.6506   -0.9479   -2.5875 C   0  0  0  0  0  0  0  0  0  0  0  0
   -0.1593   -1.7458   -3.5980 C   0  0  0  0  0  0  0  0  0  0  0  0
    0.4038   -2.6648   -3.4498 H   0  0  0  0  0  0  0  0  0  0  0  0
   -0.5286   -1.2075   -4.8196 N   0  0  0  0  0  0  0  0  0  0  0  0
   -0.3167   -1.6050   -5.7320 H   0  0  0  0  0  0  0  0  0  0  0  0
   -1.1638   -0.0014   -4.6217 C   0  0  0  0  0  0  0  0  0  0  0  0
   -1.6385    0.8955   -5.5777 C   0  0  0  0  0  0  0  0  0  0  0  0
   -1.5788    0.6560   -6.6333 H   0  0  0  0  0  0  0  0  0  0  0  0
   -2.1768    2.1137   -5.1564 C   0  0  0  0  0  0  0  0  0  0  0  0
   -2.5540    2.8263   -5.8839 H   0  0  0  0  0  0  0  0  0  0  0  0
   -2.2024    2.4204   -3.7920 C   0  0  0  0  0  0  0  0  0  0  0  0
   -2.5940    3.3765   -3.4586 H   0  0  0  0  0  0  0  0  0  0  0  0
   -1.7172    1.5042   -2.8480 C   0  0  0  0  0  0  0  0  0  0  0  0
   -1.7185    1.8146   -1.8158 H   0  0  0  0  0  0  0  0  0  0  0  0
   -1.2267    0.2490   -3.2476 C   0  0  0  0  0  0  0  0  0  0  0  0
   -1.6717    0.4052    0.2841 C   0  0  0  0  0  0  0  0  0  0  0  0
   -2.8298    0.7095    0.0137 O   0  0  0  0  0  0  0  0  0  0  0  0
   -0.9816    1.2227    1.1622 N   0  0  0  0  0  0  0  0  0  0  0  0
   -0.0816    0.8950    1.5006 H   0  0  0  0  0  0  0  0  0  0  0  0
   -1.5045    2.4866    1.6675 C   0  0  0  0  0  0  0  0  0  0  0  0
   -2.3846    2.3127    2.2954 H   0  0  0  0  0  0  0  0  0  0  0  0
   -0.7453    2.9970    2.2679 H   0  0  0  0  0  0  0  0  0  0  0  0
   -1.7866    3.1445    0.8387 H   0  0  0  0  0  0  0  0  0  0  0  0
  1  2  1  0  0  0  0
  2  3  1  0  0  0  0
  2  4  1  0  0  0  0
  2  5  1  0  0  0  0
  5  6  2  0  0  0  0
  5  7  1  0  0  0  0
  7  8  1  0  0  0  0
  7  9  1  0  0  0  0
  9 10  1  0  0  0  0
  9 11  1  0  0  0  0
  9 29  1  0  0  0  0
 11 12  1  0  0  0  0
 11 13  1  0  0  0  0
 11 14  1  0  0  0  0
 14 15  2  0  0  0  0
 14 28  1  0  0  0  0
 15 16  1  0  0  0  0
 15 17  1  0  0  0  0
 17 18  1  0  0  0  0
 17 19  1  0  0  0  0
 19 20  1  0  0  0  0
 19 28  2  0  0  0  0
 20 21  1  0  0  0  0
 20 22  2  0  0  0  0
 22 23  1  0  0  0  0
 22 24  1  0  0  0  0
 24 25  1  0  0  0  0
 24 26  2  0  0  0  0
 26 27  1  0  0  0  0
 26 28  1  0  0  0  0
 29 30  2  0  0  0  0
 29 31  1  0  0  0  0
 31 32  1  0  0  0  0
 31 33  1  0  0  0  0
 33 34  1  0  0  0  0
 33 35  1  0  0  0  0
 33 36  1  0  0  0  0
M  END
$$$$

  -OEChem-03222214083D

 36 37  0     1  0  0  0  0  0999 V2000
   -3.3946   -4.7776    1.5618 H   0  0  0  0  0  0  0  0  0  0  0  0
   -3.5400   -3.9054    0.9185 C   0  0  0  0  0  0  0  0  0  0  0  0
   -4.3375   -3.2873    1.3381 H   0  0  0  0  0  0  0  0  0  0  0  0
   -3.8374   -4.2459   -0.0761 H   0  0  0  0  0  0  0  0  0  0  0  0
   -2.2561   -3.1026    0.8281 C   0  0  0  0  0  0  0  0  0  0  0  0
   -1.2517   -3.4857    1.4074 O   0  0  0  0  0  0  0  0  0  0  0  0
   -2.2274   -1.9391    0.0908 N   0  0  0  0  0  0  0  0  0  0  0  0
   -3.1045   -1.6161   -0.3161 H   0  0  0  0  0  0  0  0  0  0  0  0
   -1.0932   -1.0056    0.0226 C   0  0  1  0  0  0  0  0  0  0  0  0
   -0.4715   -1.1756    0.9075 H   0  0  0  0  0  0  0  0  0  0  0  0
   -0.2039   -1.3622   -1.1886 C   0  0  0  0  0  0  0  0  0  0  0  0
    0.7488   -0.8421   -1.0508 H   0  0  0  0  0  0  0  0  0  0  0  0
    0.0137   -2.4348   -1.1470 H   0  0  0  0  0  0  0  0  0  0  0  0
   -0.6915   -1.0036   -2.5810 C   0  0  0  0  0  0  0  0  0  0  0  0
   -0.5970   -1.9311   -3.5944 C   0  0  0  0  0  0  0  0  0  0  0  0
   -0.2965   -2.9687   -3.4664 H   0  0  0  0  0  0  0  0  0  0  0  0
   -0.9620   -1.3259   -4.7885 N   0  0  0  0  0  0  0  0  0  0  0  0
   -0.9960   -1.7818   -5.6975 H   0  0  0  0  0  0  0  0  0  0  0  0
   -1.1883    0.0194   -4.5815 C   0  0  0  0  0  0  0  0  0  0  0  0
   -1.5070    1.0158   -5.5038 C   0  0  0  0  0  0  0  0  0  0  0  0
   -1.6604    0.7679   -6.5481 H   0  0  0  0  0  0  0  0  0  0  0  0
   -1.6115    2.3396   -5.0650 C   0  0  0  0  0  0  0  0  0  0  0  0
   -1.8613    3.1293   -5.7672 H   0  0  0  0  0  0  0  0  0  0  0  0
   -1.3733    2.6456   -3.7198 C   0  0  0  0  0  0  0  0  0  0  0  0
   -1.4355    3.6742   -3.3787 H   0  0  0  0  0  0  0  0  0  0  0  0
   -1.0512    1.6303   -2.8081 C   0  0  0  0  0  0  0  0  0  0  0  0
   -0.8437    1.9094   -1.7849 H   0  0  0  0  0  0  0  0  0  0  0  0
   -0.9921    0.2909   -3.2265 C   0  0  0  0  0  0  0  0  0  0  0  0
   -1.5717    0.4498    0.1585 C   0  0  0  0  0  0  0  0  0  0  0  0
   -2.6881    0.7710   -0.2355 O   0  0  0  0  0  0  0  0  0  0  0  0
   -0.8927    1.3263    0.9872 N   0  0  0  0  0  0  0  0  0  0  0  0
   -0.0344    0.9958    1.4187 H   0  0  0  0  0  0  0  0  0  0  0  0
   -1.4001    2.6442    1.3501 C   0  0  0  0  0  0  0  0  0  0  0  0
   -2.3215    2.5517    1.9347 H   0  0  0  0  0  0  0  0  0  0  0  0
   -0.6603    3.1814    1.9514 H   0  0  0  0  0  0  0  0  0  0  0  0
   -1.6092    3.2361    0.4527 H   0  0  0  0  0  0  0  0  0  0  0  0
  1  2  1  0  0  0  0
  2  3  1  0  0  0  0
  2  4  1  0  0  0  0
  2  5  1  0  0  0  0
  5  6  2  0  0  0  0
  5  7  1  0  0  0  0
  7  8  1  0  0  0  0
  7  9  1  0  0  0  0
  9 10  1  0  0  0  0
  9 11  1  0  0  0  0
  9 29  1  0  0  0  0
 11 12  1  0  0  0  0
 11 13  1  0  0  0  0
 11 14  1  0  0  0  0
 14 15  2  0  0  0  0
 14 28  1  0  0  0  0
 15 16  1  0  0  0  0
 15 17  1  0  0  0  0
 17 18  1  0  0  0  0
 17 19  1  0  0  0  0
 19 20  1  0  0  0  0
 19 28  2  0  0  0  0
 20 21  1  0  0  0  0
 20 22  2  0  0  0  0
 22 23  1  0  0  0  0
 22 24  1  0  0  0  0
 24 25  1  0  0  0  0
 24 26  2  0  0  0  0
 26 27  1  0  0  0  0
 26 28  1  0  0  0  0
 29 30  2  0  0  0  0
 29 31  1  0  0  0  0
 31 32  1  0  0  0  0
 31 33  1  0  0  0  0
 33 34  1  0  0  0  0
 33 35  1  0  0  0  0
 33 36  1  0  0  0  0
M  END
$$$$

  -OEChem-03222214083D

 36 37  0     1  0  0  0  0  0999 V2000
   -3.4804   -4.6946    1.5414 H   0  0  0  0  0  0  0  0  0  0  0  0
   -3.5795   -3.8466    0.8580 C   0  0  0  0  0  0  0  0  0  0  0  0
   -4.3920   -3.2054    1.2081 H   0  0  0  0  0  0  0  0  0  0  0  0
   -3.8247   -4.2231   -0.1380 H   0  0  0  0  0  0  0  0  0  0  0  0
   -2.2839   -3.0591    0.8087 C   0  0  0  0  0  0  0  0  0  0  0  0
   -1.3156   -3.4313    1.4527 O   0  0  0  0  0  0  0  0  0  0  0  0
   -2.2015   -1.9260    0.0297 N   0  0  0  0  0  0  0  0  0  0  0  0
   -3.0526   -1.6056   -0.4310 H   0  0  0  0  0  0  0  0  0  0  0  0
   -1.0574   -1.0032   -0.0033 C   0  0  1  0  0  0  0  0  0  0  0  0
   -0.4772   -1.1494    0.9133 H   0  0  0  0  0  0  0  0  0  0  0  0
   -0.1246   -1.3812   -1.1721 C   0  0  0  0  0  0  0  0  0  0  0  0
    0.8358   -0.8804   -1.0159 H   0  0  0  0  0  0  0  0  0  0  0  0
    0.0673   -2.4585   -1.1303 H   0  0  0  0  0  0  0  0  0  0  0  0
   -0.6087   -1.0087   -2.5555 C   0  0  0  0  0  0  0  0  0  0  0  0
   -0.8287   -1.9463   -3.5370 C   0  0  0  0  0  0  0  0  0  0  0  0
   -0.7770   -3.0235   -3.3974 H   0  0  0  0  0  0  0  0  0  0  0  0
   -1.1272   -1.2781   -4.7190 N   0  0  0  0  0  0  0  0  0  0  0  0
   -1.3462   -1.7199   -5.6090 H   0  0  0  0  0  0  0  0  0  0  0  0
   -1.0190    0.0876   -4.5320 C   0  0  0  0  0  0  0  0  0  0  0  0
   -1.1688    1.1402   -5.4346 C   0  0  0  0  0  0  0  0  0  0  0  0
   -1.4471    0.9433   -6.4638 H   0  0  0  0  0  0  0  0  0  0  0  0
   -0.9446    2.4509   -4.9958 C   0  0  0  0  0  0  0  0  0  0  0  0
   -1.0581    3.2818   -5.6855 H   0  0  0  0  0  0  0  0  0  0  0  0
   -0.5626    2.6879   -3.6680 C   0  0  0  0  0  0  0  0  0  0  0  0
   -0.3790    3.7033   -3.3305 H   0  0  0  0  0  0  0  0  0  0  0  0
   -0.4161    1.6188   -2.7725 C   0  0  0  0  0  0  0  0  0  0  0  0
   -0.1055    1.8165   -1.7544 H   0  0  0  0  0  0  0  0  0  0  0  0
   -0.6693    0.3085   -3.2017 C   0  0  0  0  0  0  0  0  0  0  0  0
   -1.5338    0.4609    0.0465 C   0  0  0  0  0  0  0  0  0  0  0  0
   -2.6106    0.7770   -0.4479 O   0  0  0  0  0  0  0  0  0  0  0  0
   -0.9019    1.3657    0.8821 N   0  0  0  0  0  0  0  0  0  0  0  0
   -0.0879    1.0420    1.3967 H   0  0  0  0  0  0  0  0  0  0  0  0
   -1.4111    2.7074    1.1401 C   0  0  0  0  0  0  0  0  0  0  0  0
   -2.3795    2.6576    1.6490 H   0  0  0  0  0  0  0  0  0  0  0  0
   -0.7132    3.2614    1.7752 H   0  0  0  0  0  0  0  0  0  0  0  0
   -1.5337    3.2581    0.2012 H   0  0  0  0  0  0  0  0  0  0  0  0
  1  2  1  0  0  0  0
  2  3  1  0  0  0  0
  2  4  1  0  0  0  0
  2  5  1  0  0  0  0
  5  6  2  0  0  0  0
  5  7  1  0  0  0  0
  7  8  1  0  0  0  0
  7  9  1  0  0  0  0
  9 10  1  0  0  0  0
  9 11  1  0  0  0  0
  9 29  1  0  0  0  0
 11 12  1  0  0  0  0
 11 13  1  0  0  0  0
 11 14  1  0  0  0  0
 14 15  2  0  0  0  0
 14 28  1  0  0  0  0
 15 16  1  0  0  0  0
 15 17  1  0  0  0  0
 17 18  1  0  0  0  0
 17 19  1  0  0  0  0
 19 20  1  0  0  0  0
 19 28  2  0  0  0  0
 20 21  1  0  0  0  0
 20 22  2  0  0  0  0
 22 23  1  0  0  0  0
 22 24  1  0  0  0  0
 24 25  1  0  0  0  0
 24 26  2  0  0  0  0
 26 27  1  0  0  0  0
 26 28  1  0  0  0  0
 29 30  2  0  0  0  0
 29 31  1  0  0  0  0
 31 32  1  0  0  0  0
 31 33  1  0  0  0  0
 33 34  1  0  0  0  0
 33 35  1  0  0  0  0
 33 36  1  0  0  0  0
M  END
$$$$

  -OEChem-03222214083D

 36 37  0     1  0  0  0  0  0999 V2000
   -3.5931   -4.5941    1.5201 H   0  0  0  0  0  0  0  0  0  0  0  0
   -3.6415   -3.7730    0.7992 C   0  0  0  0  0  0  0  0  0  0  0  0
   -4.4544   -3.1009    1.0846 H   0  0  0  0  0  0  0  0  0  0  0  0
   -3.8491   -4.1846   -0.1913 H   0  0  0  0  0  0  0  0  0  0  0  0
   -2.3272   -3.0165    0.7792 C   0  0  0  0  0  0  0  0  0  0  0  0
   -1.3967   -3.3870    1.4772 O   0  0  0  0  0  0  0  0  0  0  0  0
   -2.1845   -1.9147   -0.0349 N   0  0  0  0  0  0  0  0  0  0  0  0
   -3.0113   -1.5833   -0.5307 H   0  0  0  0  0  0  0  0  0  0  0  0
   -1.0234   -1.0130   -0.0368 C   0  0  1  0  0  0  0  0  0  0  0  0
   -0.4924   -1.1405    0.9117 H   0  0  0  0  0  0  0  0  0  0  0  0
   -0.0388   -1.4182   -1.1501 C   0  0  0  0  0  0  0  0  0  0  0  0
    0.9270   -0.9393   -0.9626 H   0  0  0  0  0  0  0  0  0  0  0  0
    0.1246   -2.4996   -1.0987 H   0  0  0  0  0  0  0  0  0  0  0  0
   -0.4870   -1.0440   -2.5405 C   0  0  0  0  0  0  0  0  0  0  0  0
   -0.9822   -1.9293   -3.4671 C   0  0  0  0  0  0  0  0  0  0  0  0
   -1.1597   -2.9882   -3.2932 H   0  0  0  0  0  0  0  0  0  0  0  0
   -1.2072   -1.2281   -4.6488 N   0  0  0  0  0  0  0  0  0  0  0  0
   -1.5839   -1.6235   -5.5072 H   0  0  0  0  0  0  0  0  0  0  0  0
   -0.8241    0.0947   -4.5023 C   0  0  0  0  0  0  0  0  0  0  0  0
   -0.8366    1.1630   -5.3989 C   0  0  0  0  0  0  0  0  0  0  0  0
   -1.2108    1.0258   -6.4070 H   0  0  0  0  0  0  0  0  0  0  0  0
   -0.3574    2.4118   -4.9801 C   0  0  0  0  0  0  0  0  0  0  0  0
   -0.3636    3.2532   -5.6664 H   0  0  0  0  0  0  0  0  0  0  0  0
    0.1330    2.5747   -3.6760 C   0  0  0  0  0  0  0  0  0  0  0  0
    0.5065    3.5418   -3.3542 H   0  0  0  0  0  0  0  0  0  0  0  0
    0.1399    1.4929   -2.7843 C   0  0  0  0  0  0  0  0  0  0  0  0
    0.5208    1.6203   -1.7774 H   0  0  0  0  0  0  0  0  0  0  0  0
   -0.3530    0.2514   -3.2031 C   0  0  0  0  0  0  0  0  0  0  0  0
   -1.4701    0.4633   -0.0654 C   0  0  0  0  0  0  0  0  0  0  0  0
   -2.5160    0.7788   -0.6230 O   0  0  0  0  0  0  0  0  0  0  0  0
   -0.8656    1.3858    0.7710 N   0  0  0  0  0  0  0  0  0  0  0  0
   -0.0759    1.0719    1.3274 H   0  0  0  0  0  0  0  0  0  0  0  0
   -1.3492    2.7511    0.9378 C   0  0  0  0  0  0  0  0  0  0  0  0
   -2.3591    2.7513    1.3613 H   0  0  0  0  0  0  0  0  0  0  0  0
   -0.6909    3.3060    1.6129 H   0  0  0  0  0  0  0  0  0  0  0  0
   -1.3711    3.2699   -0.0265 H   0  0  0  0  0  0  0  0  0  0  0  0
  1  2  1  0  0  0  0
  2  3  1  0  0  0  0
  2  4  1  0  0  0  0
  2  5  1  0  0  0  0
  5  6  2  0  0  0  0
  5  7  1  0  0  0  0
  7  8  1  0  0  0  0
  7  9  1  0  0  0  0
  9 10  1  0  0  0  0
  9 11  1  0  0  0  0
  9 29  1  0  0  0  0
 11 12  1  0  0  0  0
 11 13  1  0  0  0  0
 11 14  1  0  0  0  0
 14 15  2  0  0  0  0
 14 28  1  0  0  0  0
 15 16  1  0  0  0  0
 15 17  1  0  0  0  0
 17 18  1  0  0  0  0
 17 19  1  0  0  0  0
 19 20  1  0  0  0  0
 19 28  2  0  0  0  0
 20 21  1  0  0  0  0
 20 22  2  0  0  0  0
 22 23  1  0  0  0  0
 22 24  1  0  0  0  0
 24 25  1  0  0  0  0
 24 26  2  0  0  0  0
 26 27  1  0  0  0  0
 26 28  1  0  0  0  0
 29 30  2  0  0  0  0
 29 31  1  0  0  0  0
 31 32  1  0  0  0  0
 31 33  1  0  0  0  0
 33 34  1  0  0  0  0
 33 35  1  0  0  0  0
 33 36  1  0  0  0  0
M  END
$$$$

  -OEChem-03222214083D

 36 37  0     1  0  0  0  0  0999 V2000
   -3.6838   -4.5157    1.5333 H   0  0  0  0  0  0  0  0  0  0  0  0
   -3.6966   -3.7157    0.7878 C   0  0  0  0  0  0  0  0  0  0  0  0
   -4.4921   -3.0109    1.0417 H   0  0  0  0  0  0  0  0  0  0  0  0
   -3.9038   -4.1506   -0.1928 H   0  0  0  0  0  0  0  0  0  0  0  0
   -2.3588   -3.0009    0.7658 C   0  0  0  0  0  0  0  0  0  0  0  0
   -1.4522   -3.3768    1.4917 O   0  0  0  0  0  0  0  0  0  0  0  0
   -2.1701   -1.9276   -0.0771 N   0  0  0  0  0  0  0  0  0  0  0  0
   -2.9830   -1.5813   -0.5858 H   0  0  0  0  0  0  0  0  0  0  0  0
   -0.9937   -1.0447   -0.0618 C   0  0  1  0  0  0  0  0  0  0  0  0
   -0.4947   -1.1568    0.9061 H   0  0  0  0  0  0  0  0  0  0  0  0
    0.0235   -1.4664   -1.1363 C   0  0  0  0  0  0  0  0  0  0  0  0
    0.9921   -1.0052   -0.9220 H   0  0  0  0  0  0  0  0  0  0  0  0
    0.1653   -2.5506   -1.0804 H   0  0  0  0  0  0  0  0  0  0  0  0
   -0.3941   -1.0903   -2.5340 C   0  0  0  0  0  0  0  0  0  0  0  0
   -1.1365   -1.8697   -3.3869 C   0  0  0  0  0  0  0  0  0  0  0  0
   -1.5283   -2.8575   -3.1561 H   0  0  0  0  0  0  0  0  0  0  0  0
   -1.2890   -1.1646   -4.5787 N   0  0  0  0  0  0  0  0  0  0  0  0
   -1.8073   -1.4872   -5.3924 H   0  0  0  0  0  0  0  0  0  0  0  0
   -0.6485    0.0617   -4.4983 C   0  0  0  0  0  0  0  0  0  0  0  0
   -0.5233    1.1050   -5.4157 C   0  0  0  0  0  0  0  0  0  0  0  0
   -0.9828    1.0298   -6.3947 H   0  0  0  0  0  0  0  0  0  0  0  0
    0.1999    2.2504   -5.0541 C   0  0  0  0  0  0  0  0  0  0  0  0
    0.3035    3.0709   -5.7578 H   0  0  0  0  0  0  0  0  0  0  0  0
    0.7877    2.3391   -3.7831 C   0  0  0  0  0  0  0  0  0  0  0  0
    1.3451    3.2282   -3.5052 H   0  0  0  0  0  0  0  0  0  0  0  0
    0.6536    1.2850   -2.8685 C   0  0  0  0  0  0  0  0  0  0  0  0
    1.1021    1.3532   -1.8836 H   0  0  0  0  0  0  0  0  0  0  0  0
   -0.0703    0.1457   -3.2368 C   0  0  0  0  0  0  0  0  0  0  0  0
   -1.4125    0.4384   -0.1516 C   0  0  0  0  0  0  0  0  0  0  0  0
   -2.4317    0.7523   -0.7583 O   0  0  0  0  0  0  0  0  0  0  0  0
   -0.8243    1.3767    0.6782 N   0  0  0  0  0  0  0  0  0  0  0  0
   -0.0498    1.0732    1.2606 H   0  0  0  0  0  0  0  0  0  0  0  0
   -1.2642    2.7645    0.7541 C   0  0  0  0  0  0  0  0  0  0  0  0
   -2.2971    2.8205    1.1132 H   0  0  0  0  0  0  0  0  0  0  0  0
   -0.6273    3.3261    1.4442 H   0  0  0  0  0  0  0  0  0  0  0  0
   -1.2075    3.2386   -0.2316 H   0  0  0  0  0  0  0  0  0  0  0  0
  1  2  1  0  0  0  0
  2  3  1  0  0  0  0
  2  4  1  0  0  0  0
  2  5  1  0  0  0  0
  5  6  2  0  0  0  0
  5  7  1  0  0  0  0
  7  8  1  0  0  0  0
  7  9  1  0  0  0  0
  9 10  1  0  0  0  0
  9 11  1  0  0  0  0
  9 29  1  0  0  0  0
 11 12  1  0  0  0  0
 11 13  1  0  0  0  0
 11 14  1  0  0  0  0
 14 15  2  0  0  0  0
 14 28  1  0  0  0  0
 15 16  1  0  0  0  0
 15 17  1  0  0  0  0
 17 18  1  0  0  0  0
 17 19  1  0  0  0  0
 19 20  1  0  0  0  0
 19 28  2  0  0  0  0
 20 21  1  0  0  0  0
 20 22  2  0  0  0  0
 22 23  1  0  0  0  0
 22 24  1  0  0  0  0
 24 25  1  0  0  0  0
 24 26  2  0  0  0  0
 26 27  1  0  0  0  0
 26 28  1  0  0  0  0
 29 30  2  0  0  0  0
 29 31  1  0  0  0  0
 31 32  1  0  0  0  0
 31 33  1  0  0  0  0
 33 34  1  0  0  0  0
 33 35  1  0  0  0  0
 33 36  1  0  0  0  0
M  END
$$$$

  -OEChem-03222214083D

 36 37  0     1  0  0  0  0  0999 V2000
   -3.7267   -4.4711    1.5742 H   0  0  0  0  0  0  0  0  0  0  0  0
   -3.7258   -3.6893    0.8095 C   0  0  0  0  0  0  0  0  0  0  0  0
   -4.5042   -2.9615    1.0510 H   0  0  0  0  0  0  0  0  0  0  0  0
   -3.9480   -4.1436   -0.1590 H   0  0  0  0  0  0  0  0  0  0  0  0
   -2.3728   -3.0047    0.7639 C   0  0  0  0  0  0  0  0  0  0  0  0
   -1.4674   -3.3910    1.4856 O   0  0  0  0  0  0  0  0  0  0  0  0
   -2.1704   -1.9431   -0.0910 N   0  0  0  0  0  0  0  0  0  0  0  0
   -2.9872   -1.5726   -0.5755 H   0  0  0  0  0  0  0  0  0  0  0  0
   -0.9844   -1.0723   -0.0744 C   0  0  1  0  0  0  0  0  0  0  0  0
   -0.4945   -1.1795    0.8984 H   0  0  0  0  0  0  0  0  0  0  0  0
    0.0425   -1.4967   -1.1386 C   0  0  0  0  0  0  0  0  0  0  0  0
    1.0101   -1.0409   -0.9097 H   0  0  0  0  0  0  0  0  0  0  0  0
    0.1787   -2.5817   -1.0861 H   0  0  0  0  0  0  0  0  0  0  0  0
   -0.3596   -1.1172   -2.5402 C   0  0  0  0  0  0  0  0  0  0  0  0
   -1.3193   -1.7374   -3.3022 C   0  0  0  0  0  0  0  0  0  0  0  0
   -1.9089   -2.5969   -2.9928 H   0  0  0  0  0  0  0  0  0  0  0  0
   -1.3938   -1.0636   -4.5190 N   0  0  0  0  0  0  0  0  0  0  0  0
   -2.0356   -1.2851   -5.2766 H   0  0  0  0  0  0  0  0  0  0  0  0
   -0.4986   -0.0062   -4.5393 C   0  0  0  0  0  0  0  0  0  0  0  0
   -0.2196    0.9528   -5.5130 C   0  0  0  0  0  0  0  0  0  0  0  0
   -0.7518    0.9426   -6.4575 H   0  0  0  0  0  0  0  0  0  0  0  0
    0.7528    1.9283   -5.2520 C   0  0  0  0  0  0  0  0  0  0  0  0
    0.9787    2.6818   -6.0006 H   0  0  0  0  0  0  0  0  0  0  0  0
    1.4320    1.9340   -4.0241 C   0  0  0  0  0  0  0  0  0  0  0  0
    2.1834    2.6919   -3.8250 H   0  0  0  0  0  0  0  0  0  0  0  0
    1.1414    0.9660   -3.0521 C   0  0  0  0  0  0  0  0  0  0  0  0
    1.6618    0.9722   -2.1008 H   0  0  0  0  0  0  0  0  0  0  0  0
    0.1709   -0.0056   -3.3208 C   0  0  0  0  0  0  0  0  0  0  0  0
   -1.3896    0.4131   -0.1834 C   0  0  0  0  0  0  0  0  0  0  0  0
   -2.4022    0.7255   -0.8021 O   0  0  0  0  0  0  0  0  0  0  0  0
   -0.8017    1.3561    0.6408 N   0  0  0  0  0  0  0  0  0  0  0  0
   -0.0155    1.0604    1.2116 H   0  0  0  0  0  0  0  0  0  0  0  0
   -1.2159    2.7532    0.6775 C   0  0  0  0  0  0  0  0  0  0  0  0
   -2.2597    2.8366    0.9985 H   0  0  0  0  0  0  0  0  0  0  0  0
   -0.5926    3.3135    1.3808 H   0  0  0  0  0  0  0  0  0  0  0  0
   -1.1142    3.2078   -0.3137 H   0  0  0  0  0  0  0  0  0  0  0  0
  1  2  1  0  0  0  0
  2  3  1  0  0  0  0
  2  4  1  0  0  0  0
  2  5  1  0  0  0  0
  5  6  2  0  0  0  0
  5  7  1  0  0  0  0
  7  8  1  0  0  0  0
  7  9  1  0  0  0  0
  9 10  1  0  0  0  0
  9 11  1  0  0  0  0
  9 29  1  0  0  0  0
 11 12  1  0  0  0  0
 11 13  1  0  0  0  0
 11 14  1  0  0  0  0
 14 15  2  0  0  0  0
 14 28  1  0  0  0  0
 15 16  1  0  0  0  0
 15 17  1  0  0  0  0
 17 18  1  0  0  0  0
 17 19  1  0  0  0  0
 19 20  1  0  0  0  0
 19 28  2  0  0  0  0
 20 21  1  0  0  0  0
 20 22  2  0  0  0  0
 22 23  1  0  0  0  0
 22 24  1  0  0  0  0
 24 25  1  0  0  0  0
 24 26  2  0  0  0  0
 26 27  1  0  0  0  0
 26 28  1  0  0  0  0
 29 30  2  0  0  0  0
 29 31  1  0  0  0  0
 31 32  1  0  0  0  0
 31 33  1  0  0  0  0
 33 34  1  0  0  0  0
 33 35  1  0  0  0  0
 33 36  1  0  0  0  0
M  END
$$$$

  -OEChem-03222214083D

 36 37  0     1  0  0  0  0  0999 V2000
   -3.7183   -4.4722    1.6142 H   0  0  0  0  0  0  0  0  0  0  0  0
   -3.7266   -3.6934    0.8464 C   0  0  0  0  0  0  0  0  0  0  0  0
   -4.4970   -2.9605    1.0977 H   0  0  0  0  0  0  0  0  0  0  0  0
   -3.9675   -4.1503   -0.1163 H   0  0  0  0  0  0  0  0  0  0  0  0
   -2.3708   -3.0166    0.7737 C   0  0  0  0  0  0  0  0  0  0  0  0
   -1.4521   -3.4123    1.4728 O   0  0  0  0  0  0  0  0  0  0  0  0
   -2.1818   -1.9509   -0.0797 N   0  0  0  0  0  0  0  0  0  0  0  0
   -3.0128   -1.5613   -0.5226 H   0  0  0  0  0  0  0  0  0  0  0  0
   -0.9927   -1.0830   -0.0737 C   0  0  1  0  0  0  0  0  0  0  0  0
   -0.4902   -1.1967    0.8923 H   0  0  0  0  0  0  0  0  0  0  0  0
    0.0251   -1.4918   -1.1545 C   0  0  0  0  0  0  0  0  0  0  0  0
    0.9863   -1.0272   -0.9184 H   0  0  0  0  0  0  0  0  0  0  0  0
    0.1744   -2.5756   -1.1145 H   0  0  0  0  0  0  0  0  0  0  0  0
   -0.3738   -1.1037   -2.5573 C   0  0  0  0  0  0  0  0  0  0  0  0
   -1.5032   -1.5085   -3.2272 C   0  0  0  0  0  0  0  0  0  0  0  0
   -2.2622   -2.1788   -2.8330 H   0  0  0  0  0  0  0  0  0  0  0  0
   -1.4953   -0.9019   -4.4804 N   0  0  0  0  0  0  0  0  0  0  0  0
   -2.2249   -0.9942   -5.1834 H   0  0  0  0  0  0  0  0  0  0  0  0
   -0.3731   -0.1025   -4.6202 C   0  0  0  0  0  0  0  0  0  0  0  0
    0.0635    0.7018   -5.6729 C   0  0  0  0  0  0  0  0  0  0  0  0
   -0.5198    0.7722   -6.5842 H   0  0  0  0  0  0  0  0  0  0  0  0
    1.2615    1.4164   -5.5355 C   0  0  0  0  0  0  0  0  0  0  0  0
    1.6130    2.0464   -6.3471 H   0  0  0  0  0  0  0  0  0  0  0  0
    2.0061    1.3184   -4.3504 C   0  0  0  0  0  0  0  0  0  0  0  0
    2.9340    1.8726   -4.2476 H   0  0  0  0  0  0  0  0  0  0  0  0
    1.5558    0.5082   -3.2981 C   0  0  0  0  0  0  0  0  0  0  0  0
    2.1322    0.4348   -2.3826 H   0  0  0  0  0  0  0  0  0  0  0  0
    0.3581   -0.2023   -3.4416 C   0  0  0  0  0  0  0  0  0  0  0  0
   -1.4021    0.4024   -0.1681 C   0  0  0  0  0  0  0  0  0  0  0  0
   -2.4247    0.7143   -0.7713 O   0  0  0  0  0  0  0  0  0  0  0  0
   -0.8057    1.3424    0.6530 N   0  0  0  0  0  0  0  0  0  0  0  0
    0.0041    1.0515    1.1922 H   0  0  0  0  0  0  0  0  0  0  0  0
   -1.2183    2.7397    0.6992 C   0  0  0  0  0  0  0  0  0  0  0  0
   -2.2654    2.8216    1.0091 H   0  0  0  0  0  0  0  0  0  0  0  0
   -0.6027    3.2921    1.4155 H   0  0  0  0  0  0  0  0  0  0  0  0
   -1.1046    3.2040   -0.2862 H   0  0  0  0  0  0  0  0  0  0  0  0
  1  2  1  0  0  0  0
  2  3  1  0  0  0  0
  2  4  1  0  0  0  0
  2  5  1  0  0  0  0
  5  6  2  0  0  0  0
  5  7  1  0  0  0  0
  7  8  1  0  0  0  0
  7  9  1  0  0  0  0
  9 10  1  0  0  0  0
  9 11  1  0  0  0  0
  9 29  1  0  0  0  0
 11 12  1  0  0  0  0
 11 13  1  0  0  0  0
 11 14  1  0  0  0  0
 14 15  2  0  0  0  0
 14 28  1  0  0  0  0
 15 16  1  0  0  0  0
 15 17  1  0  0  0  0
 17 18  1  0  0  0  0
 17 19  1  0  0  0  0
 19 20  1  0  0  0  0
 19 28  2  0  0  0  0
 20 21  1  0  0  0  0
 20 22  2  0  0  0  0
 22 23  1  0  0  0  0
 22 24  1  0  0  0  0
 24 25  1  0  0  0  0
 24 26  2  0  0  0  0
 26 27  1  0  0  0  0
 26 28  1  0  0  0  0
 29 30  2  0  0  0  0
 29 31  1  0  0  0  0
 31 32  1  0  0  0  0
 31 33  1  0  0  0  0
 33 34  1  0  0  0  0
 33 35  1  0  0  0  0
 33 36  1  0  0  0  0
M  END
$$$$

  -OEChem-03222214083D

 36 37  0     1  0  0  0  0  0999 V2000
   -3.6754   -4.4983    1.6253 H   0  0  0  0  0  0  0  0  0  0  0  0
   -3.7046   -3.7063    0.8716 C   0  0  0  0  0  0  0  0  0  0  0  0
   -4.4717   -2.9809    1.1533 H   0  0  0  0  0  0  0  0  0  0  0  0
   -3.9655   -4.1471   -0.0935 H   0  0  0  0  0  0  0  0  0  0  0  0
   -2.3538   -3.0231    0.7785 C   0  0  0  0  0  0  0  0  0  0  0  0
   -1.4197   -3.4204    1.4561 O   0  0  0  0  0  0  0  0  0  0  0  0
   -2.1912   -1.9444   -0.0640 N   0  0  0  0  0  0  0  0  0  0  0  0
   -3.0372   -1.5497   -0.4712 H   0  0  0  0  0  0  0  0  0  0  0  0
   -1.0047   -1.0731   -0.0726 C   0  0  1  0  0  0  0  0  0  0  0  0
   -0.4817   -1.1992    0.8809 H   0  0  0  0  0  0  0  0  0  0  0  0
   -0.0064   -1.4613   -1.1807 C   0  0  0  0  0  0  0  0  0  0  0  0
    0.9477   -0.9804   -0.9475 H   0  0  0  0  0  0  0  0  0  0  0  0
    0.1634   -2.5423   -1.1527 H   0  0  0  0  0  0  0  0  0  0  0  0
   -0.4080   -1.0663   -2.5839 C   0  0  0  0  0  0  0  0  0  0  0  0
   -1.6405   -1.2113   -3.1764 C   0  0  0  0  0  0  0  0  0  0  0  0
   -2.5227   -1.6336   -2.7046 H   0  0  0  0  0  0  0  0  0  0  0  0
   -1.5567   -0.7043   -4.4703 N   0  0  0  0  0  0  0  0  0  0  0  0
   -2.3300   -0.6435   -5.1286 H   0  0  0  0  0  0  0  0  0  0  0  0
   -0.2790   -0.2353   -4.7212 C   0  0  0  0  0  0  0  0  0  0  0  0
    0.2828    0.3569   -5.8524 C   0  0  0  0  0  0  0  0  0  0  0  0
   -0.3182    0.5174   -6.7404 H   0  0  0  0  0  0  0  0  0  0  0  0
    1.6306    0.7399   -5.8244 C   0  0  0  0  0  0  0  0  0  0  0  0
    2.0812    1.2018   -6.6979 H   0  0  0  0  0  0  0  0  0  0  0  0
    2.3977    0.5262   -4.6691 C   0  0  0  0  0  0  0  0  0  0  0  0
    3.4419    0.8230   -4.6504 H   0  0  0  0  0  0  0  0  0  0  0  0
    1.8206   -0.0688   -3.5377 C   0  0  0  0  0  0  0  0  0  0  0  0
    2.4147   -0.2344   -2.6459 H   0  0  0  0  0  0  0  0  0  0  0  0
    0.4731   -0.4467   -3.5709 C   0  0  0  0  0  0  0  0  0  0  0  0
   -1.4209    0.4117   -0.1344 C   0  0  0  0  0  0  0  0  0  0  0  0
   -2.4591    0.7267   -0.7095 O   0  0  0  0  0  0  0  0  0  0  0  0
   -0.8093    1.3423    0.6862 N   0  0  0  0  0  0  0  0  0  0  0  0
    0.0126    1.0467    1.2045 H   0  0  0  0  0  0  0  0  0  0  0  0
   -1.2354    2.7336    0.7733 C   0  0  0  0  0  0  0  0  0  0  0  0
   -2.2762    2.7965    1.1081 H   0  0  0  0  0  0  0  0  0  0  0  0
   -0.6104    3.2770    1.4883 H   0  0  0  0  0  0  0  0  0  0  0  0
   -1.1489    3.2217   -0.2032 H   0  0  0  0  0  0  0  0  0  0  0  0
  1  2  1  0  0  0  0
  2  3  1  0  0  0  0
  2  4  1  0  0  0  0
  2  5  1  0  0  0  0
  5  6  2  0  0  0  0
  5  7  1  0  0  0  0
  7  8  1  0  0  0  0
  7  9  1  0  0  0  0
  9 10  1  0  0  0  0
  9 11  1  0  0  0  0
  9 29  1  0  0  0  0
 11 12  1  0  0  0  0
 11 13  1  0  0  0  0
 11 14  1  0  0  0  0
 14 15  2  0  0  0  0
 14 28  1  0  0  0  0
 15 16  1  0  0  0  0
 15 17  1  0  0  0  0
 17 18  1  0  0  0  0
 17 19  1  0  0  0  0
 19 20  1  0  0  0  0
 19 28  2  0  0  0  0
 20 21  1  0  0  0  0
 20 22  2  0  0  0  0
 22 23  1  0  0  0  0
 22 24  1  0  0  0  0
 24 25  1  0  0  0  0
 24 26  2  0  0  0  0
 26 27  1  0  0  0  0
 26 28  1  0  0  0  0
 29 30  2  0  0  0  0
 29 31  1  0  0  0  0
 31 32  1  0  0  0  0
 31 33  1  0  0  0  0
 33 34  1  0  0  0  0
 33 35  1  0  0  0  0
 33 36  1  0  0  0  0
M  END
$$$$

  -OEChem-03222214083D

 36 37  0     1  0  0  0  0  0999 V2000
   -3.6182   -4.5340    1.5888 H   0  0  0  0  0  0  0  0  0  0  0  0
   -3.6707   -3.7261    0.8536 C   0  0  0  0  0  0  0  0  0  0  0  0
   -4.4440   -3.0188    1.1628 H   0  0  0  0  0  0  0  0  0  0  0  0
   -3.9401   -4.1497   -0.1168 H   0  0  0  0  0  0  0  0  0  0  0  0
   -2.3313   -3.0209    0.7567 C   0  0  0  0  0  0  0  0  0  0  0  0
   -1.3826   -3.4182    1.4138 O   0  0  0  0  0  0  0  0  0  0  0  0
   -2.1972   -1.9195   -0.0617 N   0  0  0  0  0  0  0  0  0  0  0  0
   -3.0534   -1.5350   -0.4558 H   0  0  0  0  0  0  0  0  0  0  0  0
   -1.0178   -1.0380   -0.0769 C   0  0  1  0  0  0  0  0  0  0  0  0
   -0.4765   -1.1817    0.8638 H   0  0  0  0  0  0  0  0  0  0  0  0
   -0.0379   -1.4115   -1.2072 C   0  0  0  0  0  0  0  0  0  0  0  0
    0.9129   -0.9187   -0.9843 H   0  0  0  0  0  0  0  0  0  0  0  0
    0.1445   -2.4907   -1.1837 H   0  0  0  0  0  0  0  0  0  0  0  0
   -0.4404   -1.0179   -2.6121 C   0  0  0  0  0  0  0  0  0  0  0  0
   -1.7029   -0.8899   -3.1445 C   0  0  0  0  0  0  0  0  0  0  0  0
   -2.6357   -1.0354   -2.6067 H   0  0  0  0  0  0  0  0  0  0  0  0
   -1.5709   -0.5165   -4.4797 N   0  0  0  0  0  0  0  0  0  0  0  0
   -2.3426   -0.3140   -5.1110 H   0  0  0  0  0  0  0  0  0  0  0  0
   -0.2338   -0.4095   -4.8199 C   0  0  0  0  0  0  0  0  0  0  0  0
    0.3949   -0.0690   -6.0179 C   0  0  0  0  0  0  0  0  0  0  0  0
   -0.1951    0.1727   -6.8949 H   0  0  0  0  0  0  0  0  0  0  0  0
    1.7956   -0.0457   -6.0715 C   0  0  0  0  0  0  0  0  0  0  0  0
    2.2985    0.2165   -6.9977 H   0  0  0  0  0  0  0  0  0  0  0  0
    2.5479   -0.3632   -4.9302 C   0  0  0  0  0  0  0  0  0  0  0  0
    3.6327   -0.3459   -4.9746 H   0  0  0  0  0  0  0  0  0  0  0  0
    1.9039   -0.7025   -3.7315 C   0  0  0  0  0  0  0  0  0  0  0  0
    2.4839   -0.9494   -2.8488 H   0  0  0  0  0  0  0  0  0  0  0  0
    0.5053   -0.7199   -3.6842 C   0  0  0  0  0  0  0  0  0  0  0  0
   -1.4338    0.4483   -0.0909 C   0  0  0  0  0  0  0  0  0  0  0  0
   -2.4849    0.7787   -0.6329 O   0  0  0  0  0  0  0  0  0  0  0  0
   -0.8021    1.3581    0.7378 N   0  0  0  0  0  0  0  0  0  0  0  0
    0.0294    1.0481    1.2324 H   0  0  0  0  0  0  0  0  0  0  0  0
   -1.2333    2.7430    0.8833 C   0  0  0  0  0  0  0  0  0  0  0  0
   -2.2609    2.7881    1.2590 H   0  0  0  0  0  0  0  0  0  0  0  0
   -0.5846    3.2686    1.5905 H   0  0  0  0  0  0  0  0  0  0  0  0
   -1.1870    3.2613   -0.0803 H   0  0  0  0  0  0  0  0  0  0  0  0
  1  2  1  0  0  0  0
  2  3  1  0  0  0  0
  2  4  1  0  0  0  0
  2  5  1  0  0  0  0
  5  6  2  0  0  0  0
  5  7  1  0  0  0  0
  7  8  1  0  0  0  0
  7  9  1  0  0  0  0
  9 10  1  0  0  0  0
  9 11  1  0  0  0  0
  9 29  1  0  0  0  0
 11 12  1  0  0  0  0
 11 13  1  0  0  0  0
 11 14  1  0  0  0  0
 14 15  2  0  0  0  0
 14 28  1  0  0  0  0
 15 16  1  0  0  0  0
 15 17  1  0  0  0  0
 17 18  1  0  0  0  0
 17 19  1  0  0  0  0
 19 20  1  0  0  0  0
 19 28  2  0  0  0  0
 20 21  1  0  0  0  0
 20 22  2  0  0  0  0
 22 23  1  0  0  0  0
 22 24  1  0  0  0  0
 24 25  1  0  0  0  0
 24 26  2  0  0  0  0
 26 27  1  0  0  0  0
 26 28  1  0  0  0  0
 29 30  2  0  0  0  0
 29 31  1  0  0  0  0
 31 32  1  0  0  0  0
 31 33  1  0  0  0  0
 33 34  1  0  0  0  0
 33 35  1  0  0  0  0
 33 36  1  0  0  0  0
M  END
$$$$

  -OEChem-03222214083D

 36 37  0     1  0  0  0  0  0999 V2000
   -3.5687   -4.5777    1.5135 H   0  0  0  0  0  0  0  0  0  0  0  0
   -3.6410   -3.7487    0.8036 C   0  0  0  0  0  0  0  0  0  0  0  0
   -4.4341   -3.0724    1.1318 H   0  0  0  0  0  0  0  0  0  0  0  0
   -3.8953   -4.1488   -0.1810 H   0  0  0  0  0  0  0  0  0  0  0  0
   -2.3214   -3.0039    0.7329 C   0  0  0  0  0  0  0  0  0  0  0  0
   -1.3656   -3.3909    1.3862 O   0  0  0  0  0  0  0  0  0  0  0  0
   -2.2127   -1.8806   -0.0593 N   0  0  0  0  0  0  0  0  0  0  0  0
   -3.0687   -1.5291   -0.4821 H   0  0  0  0  0  0  0  0  0  0  0  0
   -1.0417   -0.9893   -0.0905 C   0  0  1  0  0  0  0  0  0  0  0  0
   -0.4849   -1.1497    0.8383 H   0  0  0  0  0  0  0  0  0  0  0  0
   -0.0743   -1.3678   -1.2302 C   0  0  0  0  0  0  0  0  0  0  0  0
    0.8786   -0.8709   -1.0243 H   0  0  0  0  0  0  0  0  0  0  0  0
    0.1105   -2.4463   -1.1930 H   0  0  0  0  0  0  0  0  0  0  0  0
   -0.4769   -1.0011   -2.6430 C   0  0  0  0  0  0  0  0  0  0  0  0
   -1.7008   -0.6162   -3.1435 C   0  0  0  0  0  0  0  0  0  0  0  0
   -2.6187   -0.5051   -2.5723 H   0  0  0  0  0  0  0  0  0  0  0  0
   -1.5538   -0.3832   -4.5088 N   0  0  0  0  0  0  0  0  0  0  0  0
   -2.2920   -0.0619   -5.1312 H   0  0  0  0  0  0  0  0  0  0  0  0
   -0.2477   -0.6183   -4.9005 C   0  0  0  0  0  0  0  0  0  0  0  0
    0.3835   -0.5232   -6.1410 C   0  0  0  0  0  0  0  0  0  0  0  0
   -0.1764   -0.2138   -7.0164 H   0  0  0  0  0  0  0  0  0  0  0  0
    1.7471   -0.8335   -6.2390 C   0  0  0  0  0  0  0  0  0  0  0  0
    2.2516   -0.7655   -7.1983 H   0  0  0  0  0  0  0  0  0  0  0  0
    2.4609   -1.2340   -5.0991 C   0  0  0  0  0  0  0  0  0  0  0  0
    3.5164   -1.4759   -5.1779 H   0  0  0  0  0  0  0  0  0  0  0  0
    1.8155   -1.3236   -3.8573 C   0  0  0  0  0  0  0  0  0  0  0  0
    2.3640   -1.6338   -2.9742 H   0  0  0  0  0  0  0  0  0  0  0  0
    0.4547   -1.0099   -3.7670 C   0  0  0  0  0  0  0  0  0  0  0  0
   -1.4364    0.5027   -0.0569 C   0  0  0  0  0  0  0  0  0  0  0  0
   -2.4967    0.8679   -0.5558 O   0  0  0  0  0  0  0  0  0  0  0  0
   -0.7629    1.3800    0.7739 N   0  0  0  0  0  0  0  0  0  0  0  0
    0.0689    1.0377    1.2462 H   0  0  0  0  0  0  0  0  0  0  0  0
   -1.1765    2.7612    0.9890 C   0  0  0  0  0  0  0  0  0  0  0  0
   -2.1817    2.7980    1.4218 H   0  0  0  0  0  0  0  0  0  0  0  0
   -0.4865    3.2591    1.6766 H   0  0  0  0  0  0  0  0  0  0  0  0
   -1.1790    3.3118    0.0425 H   0  0  0  0  0  0  0  0  0  0  0  0
  1  2  1  0  0  0  0
  2  3  1  0  0  0  0
  2  4  1  0  0  0  0
  2  5  1  0  0  0  0
  5  6  2  0  0  0  0
  5  7  1  0  0  0  0
  7  8  1  0  0  0  0
  7  9  1  0  0  0  0
  9 10  1  0  0  0  0
  9 11  1  0  0  0  0
  9 29  1  0  0  0  0
 11 12  1  0  0  0  0
 11 13  1  0  0  0  0
 11 14  1  0  0  0  0
 14 15  2  0  0  0  0
 14 28  1  0  0  0  0
 15 16  1  0  0  0  0
 15 17  1  0  0  0  0
 17 18  1  0  0  0  0
 17 19  1  0  0  0  0
 19 20  1  0  0  0  0
 19 28  2  0  0  0  0
 20 21  1  0  0  0  0
 20 22  2  0  0  0  0
 22 23  1  0  0  0  0
 22 24  1  0  0  0  0
 24 25  1  0  0  0  0
 24 26  2  0  0  0  0
 26 27  1  0  0  0  0
 26 28  1  0  0  0  0
 29 30  2  0  0  0  0
 29 31  1  0  0  0  0
 31 32  1  0  0  0  0
 31 33  1  0  0  0  0
 33 34  1  0  0  0  0
 33 35  1  0  0  0  0
 33 36  1  0  0  0  0
M  END
$$$$

  -OEChem-03222214083D

 36 37  0     1  0  0  0  0  0999 V2000
   -3.5300   -4.6112    1.4425 H   0  0  0  0  0  0  0  0  0  0  0  0
   -3.6214   -3.7655    0.7552 C   0  0  0  0  0  0  0  0  0  0  0  0
   -4.4299   -3.1169    1.1011 H   0  0  0  0  0  0  0  0  0  0  0  0
   -3.8672   -4.1449   -0.2396 H   0  0  0  0  0  0  0  0  0  0  0  0
   -2.3189   -2.9895    0.7051 C   0  0  0  0  0  0  0  0  0  0  0  0
   -1.3541   -3.3730    1.3475 O   0  0  0  0  0  0  0  0  0  0  0  0
   -2.2349   -1.8447   -0.0584 N   0  0  0  0  0  0  0  0  0  0  0  0
   -3.0902   -1.5165   -0.5008 H   0  0  0  0  0  0  0  0  0  0  0  0
   -1.0686   -0.9490   -0.1088 C   0  0  1  0  0  0  0  0  0  0  0  0
   -0.4959   -1.1284    0.8068 H   0  0  0  0  0  0  0  0  0  0  0  0
   -0.1155   -1.3314   -1.2595 C   0  0  0  0  0  0  0  0  0  0  0  0
    0.8445   -0.8419   -1.0696 H   0  0  0  0  0  0  0  0  0  0  0  0
    0.0594   -2.4111   -1.2111 H   0  0  0  0  0  0  0  0  0  0  0  0
   -0.5201   -0.9861   -2.6784 C   0  0  0  0  0  0  0  0  0  0  0  0
   -1.6432   -0.3598   -3.1741 C   0  0  0  0  0  0  0  0  0  0  0  0
   -2.4937   -0.0055   -2.6003 H   0  0  0  0  0  0  0  0  0  0  0  0
   -1.5088   -0.2642   -4.5570 N   0  0  0  0  0  0  0  0  0  0  0  0
   -2.1851    0.1682   -5.1824 H   0  0  0  0  0  0  0  0  0  0  0  0
   -0.3104   -0.8206   -4.9659 C   0  0  0  0  0  0  0  0  0  0  0  0
    0.2700   -0.9607   -6.2267 C   0  0  0  0  0  0  0  0  0  0  0  0
   -0.2438   -0.5935   -7.1084 H   0  0  0  0  0  0  0  0  0  0  0  0
    1.5228   -1.5807   -6.3368 C   0  0  0  0  0  0  0  0  0  0  0  0
    1.9864   -1.6966   -7.3120 H   0  0  0  0  0  0  0  0  0  0  0  0
    2.1777   -2.0516   -5.1884 C   0  0  0  0  0  0  0  0  0  0  0  0
    3.1471   -2.5326   -5.2762 H   0  0  0  0  0  0  0  0  0  0  0  0
    1.5839   -1.9034   -3.9265 C   0  0  0  0  0  0  0  0  0  0  0  0
    2.0867   -2.2668   -3.0362 H   0  0  0  0  0  0  0  0  0  0  0  0
    0.3337   -1.2828   -3.8253 C   0  0  0  0  0  0  0  0  0  0  0  0
   -1.4369    0.5478   -0.0240 C   0  0  0  0  0  0  0  0  0  0  0  0
   -2.5103    0.9466   -0.4644 O   0  0  0  0  0  0  0  0  0  0  0  0
   -0.7162    1.3902    0.8038 N   0  0  0  0  0  0  0  0  0  0  0  0
    0.1160    1.0142    1.2495 H   0  0  0  0  0  0  0  0  0  0  0  0
   -1.1063    2.7657    1.0889 C   0  0  0  0  0  0  0  0  0  0  0  0
   -2.0861    2.7935    1.5768 H   0  0  0  0  0  0  0  0  0  0  0  0
   -0.3760    3.2354    1.7547 H   0  0  0  0  0  0  0  0  0  0  0  0
   -1.1556    3.3498    0.1640 H   0  0  0  0  0  0  0  0  0  0  0  0
  1  2  1  0  0  0  0
  2  3  1  0  0  0  0
  2  4  1  0  0  0  0
  2  5  1  0  0  0  0
  5  6  2  0  0  0  0
  5  7  1  0  0  0  0
  7  8  1  0  0  0  0
  7  9  1  0  0  0  0
  9 10  1  0  0  0  0
  9 11  1  0  0  0  0
  9 29  1  0  0  0  0
 11 12  1  0  0  0  0
 11 13  1  0  0  0  0
 11 14  1  0  0  0  0
 14 15  2  0  0  0  0
 14 28  1  0  0  0  0
 15 16  1  0  0  0  0
 15 17  1  0  0  0  0
 17 18  1  0  0  0  0
 17 19  1  0  0  0  0
 19 20  1  0  0  0  0
 19 28  2  0  0  0  0
 20 21  1  0  0  0  0
 20 22  2  0  0  0  0
 22 23  1  0  0  0  0
 22 24  1  0  0  0  0
 24 25  1  0  0  0  0
 24 26  2  0  0  0  0
 26 27  1  0  0  0  0
 26 28  1  0  0  0  0
 29 30  2  0  0  0  0
 29 31  1  0  0  0  0
 31 32  1  0  0  0  0
 31 33  1  0  0  0  0
 33 34  1  0  0  0  0
 33 35  1  0  0  0  0
 33 36  1  0  0  0  0
M  END
$$$$

  -OEChem-03222214083D

 36 37  0     1  0  0  0  0  0999 V2000
   -3.5219   -4.6328    1.3259 H   0  0  0  0  0  0  0  0  0  0  0  0
   -3.6212   -3.7615    0.6728 C   0  0  0  0  0  0  0  0  0  0  0  0
   -4.4331   -3.1327    1.0460 H   0  0  0  0  0  0  0  0  0  0  0  0
   -3.8672   -4.1028   -0.3355 H   0  0  0  0  0  0  0  0  0  0  0  0
   -2.3242   -2.9752    0.6505 C   0  0  0  0  0  0  0  0  0  0  0  0
   -1.3597   -3.3686    1.2877 O   0  0  0  0  0  0  0  0  0  0  0  0
   -2.2422   -1.8111   -0.0838 N   0  0  0  0  0  0  0  0  0  0  0  0
   -3.0899   -1.4862   -0.5438 H   0  0  0  0  0  0  0  0  0  0  0  0
   -1.0746   -0.9167   -0.1213 C   0  0  1  0  0  0  0  0  0  0  0  0
   -0.5014   -1.1166    0.7897 H   0  0  0  0  0  0  0  0  0  0  0  0
   -0.1237   -1.2962   -1.2755 C   0  0  0  0  0  0  0  0  0  0  0  0
    0.8457   -0.8268   -1.0828 H   0  0  0  0  0  0  0  0  0  0  0  0
    0.0304   -2.3791   -1.2269 H   0  0  0  0  0  0  0  0  0  0  0  0
   -0.5138   -0.9458   -2.6987 C   0  0  0  0  0  0  0  0  0  0  0  0
   -1.4708   -0.0927   -3.2068 C   0  0  0  0  0  0  0  0  0  0  0  0
   -2.1742    0.5108   -2.6438 H   0  0  0  0  0  0  0  0  0  0  0  0
   -1.3902   -0.1303   -4.5965 N   0  0  0  0  0  0  0  0  0  0  0  0
   -1.9753    0.4080   -5.2318 H   0  0  0  0  0  0  0  0  0  0  0  0
   -0.3900   -0.9952   -4.9998 C   0  0  0  0  0  0  0  0  0  0  0  0
    0.0691   -1.3621   -6.2649 C   0  0  0  0  0  0  0  0  0  0  0  0
   -0.3853   -0.9407   -7.1547 H   0  0  0  0  0  0  0  0  0  0  0  0
    1.1234   -2.2803   -6.3686 C   0  0  0  0  0  0  0  0  0  0  0  0
    1.4915   -2.5756   -7.3467 H   0  0  0  0  0  0  0  0  0  0  0  0
    1.7033   -2.8181   -5.2096 C   0  0  0  0  0  0  0  0  0  0  0  0
    2.5192   -3.5296   -5.2918 H   0  0  0  0  0  0  0  0  0  0  0  0
    1.2328   -2.4403   -3.9439 C   0  0  0  0  0  0  0  0  0  0  0  0
    1.6799   -2.8553   -3.0467 H   0  0  0  0  0  0  0  0  0  0  0  0
    0.1796   -1.5232   -3.8483 C   0  0  0  0  0  0  0  0  0  0  0  0
   -1.4377    0.5777    0.0043 C   0  0  0  0  0  0  0  0  0  0  0  0
   -2.5174    0.9881   -0.4086 O   0  0  0  0  0  0  0  0  0  0  0  0
   -0.7077    1.3975    0.8467 N   0  0  0  0  0  0  0  0  0  0  0  0
    0.1233    1.0057    1.2808 H   0  0  0  0  0  0  0  0  0  0  0  0
   -1.1102    2.7543    1.1970 C   0  0  0  0  0  0  0  0  0  0  0  0
   -2.0635    2.7441    1.7359 H   0  0  0  0  0  0  0  0  0  0  0  0
   -0.3552    3.2190    1.8384 H   0  0  0  0  0  0  0  0  0  0  0  0
   -1.2207    3.3663    0.2956 H   0  0  0  0  0  0  0  0  0  0  0  0
  1  2  1  0  0  0  0
  2  3  1  0  0  0  0
  2  4  1  0  0  0  0
  2  5  1  0  0  0  0
  5  6  2  0  0  0  0
  5  7  1  0  0  0  0
  7  8  1  0  0  0  0
  7  9  1  0  0  0  0
  9 10  1  0  0  0  0
  9 11  1  0  0  0  0
  9 29  1  0  0  0  0
 11 12  1  0  0  0  0
 11 13  1  0  0  0  0
 11 14  1  0  0  0  0
 14 15  2  0  0  0  0
 14 28  1  0  0  0  0
 15 16  1  0  0  0  0
 15 17  1  0  0  0  0
 17 18  1  0  0  0  0
 17 19  1  0  0  0  0
 19 20  1  0  0  0  0
 19 28  2  0  0  0  0
 20 21  1  0  0  0  0
 20 22  2  0  0  0  0
 22 23  1  0  0  0  0
 22 24  1  0  0  0  0
 24 25  1  0  0  0  0
 24 26  2  0  0  0  0
 26 27  1  0  0  0  0
 26 28  1  0  0  0  0
 29 30  2  0  0  0  0
 29 31  1  0  0  0  0
 31 32  1  0  0  0  0
 31 33  1  0  0  0  0
 33 34  1  0  0  0  0
 33 35  1  0  0  0  0
 33 36  1  0  0  0  0
M  END
$$$$

  -OEChem-03222214083D

 36 37  0     1  0  0  0  0  0999 V2000
   -3.5773   -4.6124    1.2059 H   0  0  0  0  0  0  0  0  0  0  0  0
   -3.6436   -3.7337    0.5584 C   0  0  0  0  0  0  0  0  0  0  0  0
   -4.4735   -3.1087    0.8964 H   0  0  0  0  0  0  0  0  0  0  0  0
   -3.8383   -4.0640   -0.4648 H   0  0  0  0  0  0  0  0  0  0  0  0
   -2.3474   -2.9474    0.6105 C   0  0  0  0  0  0  0  0  0  0  0  0
   -1.4146   -3.3501    1.2876 O   0  0  0  0  0  0  0  0  0  0  0  0
   -2.2262   -1.7793   -0.1112 N   0  0  0  0  0  0  0  0  0  0  0  0
   -3.0428   -1.4582   -0.6272 H   0  0  0  0  0  0  0  0  0  0  0  0
   -1.0472   -0.9002   -0.1126 C   0  0  1  0  0  0  0  0  0  0  0  0
   -0.4970   -1.1133    0.8093 H   0  0  0  0  0  0  0  0  0  0  0  0
   -0.0838   -1.2966   -1.2512 C   0  0  0  0  0  0  0  0  0  0  0  0
    0.8938   -0.8504   -1.0448 H   0  0  0  0  0  0  0  0  0  0  0  0
    0.0451   -2.3819   -1.1967 H   0  0  0  0  0  0  0  0  0  0  0  0
   -0.4505   -0.9316   -2.6782 C   0  0  0  0  0  0  0  0  0  0  0  0
   -1.1811    0.1200   -3.1907 C   0  0  0  0  0  0  0  0  0  0  0  0
   -1.6439    0.9273   -2.6331 H   0  0  0  0  0  0  0  0  0  0  0  0
   -1.2244   -0.0160   -4.5754 N   0  0  0  0  0  0  0  0  0  0  0  0
   -1.7031    0.6181   -5.2112 H   0  0  0  0  0  0  0  0  0  0  0  0
   -0.5248   -1.1397   -4.9727 C   0  0  0  0  0  0  0  0  0  0  0  0
   -0.2840   -1.6843   -6.2340 C   0  0  0  0  0  0  0  0  0  0  0  0
   -0.6820   -1.2047   -7.1213 H   0  0  0  0  0  0  0  0  0  0  0  0
    0.4777   -2.8563   -6.3371 C   0  0  0  0  0  0  0  0  0  0  0  0
    0.6734   -3.2925   -7.3120 H   0  0  0  0  0  0  0  0  0  0  0  0
    0.9883   -3.4658   -5.1813 C   0  0  0  0  0  0  0  0  0  0  0  0
    1.5786   -4.3735   -5.2629 H   0  0  0  0  0  0  0  0  0  0  0  0
    0.7393   -2.9073   -3.9194 C   0  0  0  0  0  0  0  0  0  0  0  0
    1.1363   -3.3793   -3.0269 H   0  0  0  0  0  0  0  0  0  0  0  0
   -0.0245   -1.7374   -3.8225 C   0  0  0  0  0  0  0  0  0  0  0  0
   -1.3994    0.5954    0.0138 C   0  0  0  0  0  0  0  0  0  0  0  0
   -2.4509    1.0266   -0.4480 O   0  0  0  0  0  0  0  0  0  0  0  0
   -0.6839    1.4017    0.8810 N   0  0  0  0  0  0  0  0  0  0  0  0
    0.1104    0.9867    1.3597 H   0  0  0  0  0  0  0  0  0  0  0  0
   -1.0779    2.7624    1.2262 C   0  0  0  0  0  0  0  0  0  0  0  0
   -2.0438    2.7632    1.7422 H   0  0  0  0  0  0  0  0  0  0  0  0
   -0.3323    3.2146    1.8873 H   0  0  0  0  0  0  0  0  0  0  0  0
   -1.1580    3.3790    0.3249 H   0  0  0  0  0  0  0  0  0  0  0  0
  1  2  1  0  0  0  0
  2  3  1  0  0  0  0
  2  4  1  0  0  0  0
  2  5  1  0  0  0  0
  5  6  2  0  0  0  0
  5  7  1  0  0  0  0
  7  8  1  0  0  0  0
  7  9  1  0  0  0  0
  9 10  1  0  0  0  0
  9 11  1  0  0  0  0
  9 29  1  0  0  0  0
 11 12  1  0  0  0  0
 11 13  1  0  0  0  0
 11 14  1  0  0  0  0
 14 15  2  0  0  0  0
 14 28  1  0  0  0  0
 15 16  1  0  0  0  0
 15 17  1  0  0  0  0
 17 18  1  0  0  0  0
 17 19  1  0  0  0  0
 19 20  1  0  0  0  0
 19 28  2  0  0  0  0
 20 21  1  0  0  0  0
 20 22  2  0  0  0  0
 22 23  1  0  0  0  0
 22 24  1  0  0  0  0
 24 25  1  0  0  0  0
 24 26  2  0  0  0  0
 26 27  1  0  0  0  0
 26 28  1  0  0  0  0
 29 30  2  0  0  0  0
 29 31  1  0  0  0  0
 31 32  1  0  0  0  0
 31 33  1  0  0  0  0
 33 34  1  0  0  0  0
 33 35  1  0  0  0  0
 33 36  1  0  0  0  0
M  END
$$$$

  -OEChem-03222214083D

 36 37  0     1  0  0  0  0  0999 V2000
   -3.6295   -4.6173    1.1142 H   0  0  0  0  0  0  0  0  0  0  0  0
   -3.6558   -3.7417    0.4599 C   0  0  0  0  0  0  0  0  0  0  0  0
   -4.5139   -3.1230    0.7332 H   0  0  0  0  0  0  0  0  0  0  0  0
   -3.7711   -4.0770   -0.5736 H   0  0  0  0  0  0  0  0  0  0  0  0
   -2.3739   -2.9437    0.6034 C   0  0  0  0  0  0  0  0  0  0  0  0
   -1.4969   -3.3249    1.3629 O   0  0  0  0  0  0  0  0  0  0  0  0
   -2.2007   -1.7921   -0.1337 N   0  0  0  0  0  0  0  0  0  0  0  0
   -2.9649   -1.5007   -0.7401 H   0  0  0  0  0  0  0  0  0  0  0  0
   -1.0170   -0.9213   -0.0878 C   0  0  1  0  0  0  0  0  0  0  0  0
   -0.5047   -1.1223    0.8582 H   0  0  0  0  0  0  0  0  0  0  0  0
   -0.0229   -1.3399   -1.1920 C   0  0  0  0  0  0  0  0  0  0  0  0
    0.9507   -0.8955   -0.9641 H   0  0  0  0  0  0  0  0  0  0  0  0
    0.1036   -2.4244   -1.1272 H   0  0  0  0  0  0  0  0  0  0  0  0
   -0.3634   -0.9660   -2.6228 C   0  0  0  0  0  0  0  0  0  0  0  0
   -0.8275    0.2251   -3.1387 C   0  0  0  0  0  0  0  0  0  0  0  0
   -1.0196    1.1393   -2.5837 H   0  0  0  0  0  0  0  0  0  0  0  0
   -1.0045    0.0644   -4.5097 N   0  0  0  0  0  0  0  0  0  0  0  0
   -1.3540    0.7805   -5.1428 H   0  0  0  0  0  0  0  0  0  0  0  0
   -0.6582   -1.2177   -4.8931 C   0  0  0  0  0  0  0  0  0  0  0  0
   -0.6672   -1.8427   -6.1398 C   0  0  0  0  0  0  0  0  0  0  0  0
   -0.9898   -1.2994   -7.0210 H   0  0  0  0  0  0  0  0  0  0  0  0
   -0.2535   -3.1779   -6.2365 C   0  0  0  0  0  0  0  0  0  0  0  0
   -0.2540   -3.6775   -7.2006 H   0  0  0  0  0  0  0  0  0  0  0  0
    0.1625   -3.8687   -5.0886 C   0  0  0  0  0  0  0  0  0  0  0  0
    0.4848   -4.9027   -5.1654 H   0  0  0  0  0  0  0  0  0  0  0  0
    0.1648   -3.2289   -3.8407 C   0  0  0  0  0  0  0  0  0  0  0  0
    0.4872   -3.7669   -2.9556 H   0  0  0  0  0  0  0  0  0  0  0  0
   -0.2503   -1.8942   -3.7490 C   0  0  0  0  0  0  0  0  0  0  0  0
   -1.3751    0.5765   -0.0132 C   0  0  0  0  0  0  0  0  0  0  0  0
   -2.3708    1.0091   -0.5841 O   0  0  0  0  0  0  0  0  0  0  0  0
   -0.7124    1.4057    0.8743 N   0  0  0  0  0  0  0  0  0  0  0  0
    0.0265    0.9944    1.4380 H   0  0  0  0  0  0  0  0  0  0  0  0
   -1.1213    2.7787    1.1467 C   0  0  0  0  0  0  0  0  0  0  0  0
   -2.1224    2.7993    1.5902 H   0  0  0  0  0  0  0  0  0  0  0  0
   -0.4235    3.2500    1.8454 H   0  0  0  0  0  0  0  0  0  0  0  0
   -1.1323    3.3665    0.2228 H   0  0  0  0  0  0  0  0  0  0  0  0
  1  2  1  0  0  0  0
  2  3  1  0  0  0  0
  2  4  1  0  0  0  0
  2  5  1  0  0  0  0
  5  6  2  0  0  0  0
  5  7  1  0  0  0  0
  7  8  1  0  0  0  0
  7  9  1  0  0  0  0
  9 10  1  0  0  0  0
  9 11  1  0  0  0  0
  9 29  1  0  0  0  0
 11 12  1  0  0  0  0
 11 13  1  0  0  0  0
 11 14  1  0  0  0  0
 14 15  2  0  0  0  0
 14 28  1  0  0  0  0
 15 16  1  0  0  0  0
 15 17  1  0  0  0  0
 17 18  1  0  0  0  0
 17 19  1  0  0  0  0
 19 20  1  0  0  0  0
 19 28  2  0  0  0  0
 20 21  1  0  0  0  0
 20 22  2  0  0  0  0
 22 23  1  0  0  0  0
 22 24  1  0  0  0  0
 24 25  1  0  0  0  0
 24 26  2  0  0  0  0
 26 27  1  0  0  0  0
 26 28  1  0  0  0  0
 29 30  2  0  0  0  0
 29 31  1  0  0  0  0
 31 32  1  0  0  0  0
 31 33  1  0  0  0  0
 33 34  1  0  0  0  0
 33 35  1  0  0  0  0
 33 36  1  0  0  0  0
M  END
$$$$

  -OEChem-03222214083D

 36 37  0     1  0  0  0  0  0999 V2000
   -3.6691   -4.6172    1.0764 H   0  0  0  0  0  0  0  0  0  0  0  0
   -3.6658   -3.7543    0.4045 C   0  0  0  0  0  0  0  0  0  0  0  0
   -4.5415   -3.1369    0.6195 H   0  0  0  0  0  0  0  0  0  0  0  0
   -3.7240   -4.1105   -0.6270 H   0  0  0  0  0  0  0  0  0  0  0  0
   -2.3993   -2.9432    0.6012 C   0  0  0  0  0  0  0  0  0  0  0  0
   -1.5700   -3.2938    1.4258 O   0  0  0  0  0  0  0  0  0  0  0  0
   -2.1845   -1.8151   -0.1602 N   0  0  0  0  0  0  0  0  0  0  0  0
   -2.9009   -1.5582   -0.8368 H   0  0  0  0  0  0  0  0  0  0  0  0
   -1.0028   -0.9446   -0.0798 C   0  0  1  0  0  0  0  0  0  0  0  0
   -0.5281   -1.1230    0.8899 H   0  0  0  0  0  0  0  0  0  0  0  0
    0.0252   -1.3863   -1.1404 C   0  0  0  0  0  0  0  0  0  0  0  0
    0.9870   -0.9252   -0.8963 H   0  0  0  0  0  0  0  0  0  0  0  0
    0.1676   -2.4682   -1.0632 H   0  0  0  0  0  0  0  0  0  0  0  0
   -0.3043   -1.0145   -2.5704 C   0  0  0  0  0  0  0  0  0  0  0  0
   -0.4897    0.2380   -3.1114 C   0  0  0  0  0  0  0  0  0  0  0  0
   -0.4227    1.1814   -2.5740 H   0  0  0  0  0  0  0  0  0  0  0  0
   -0.7914    0.0829   -4.4616 N   0  0  0  0  0  0  0  0  0  0  0  0
   -1.0063    0.8419   -5.1045 H   0  0  0  0  0  0  0  0  0  0  0  0
   -0.8132   -1.2586   -4.7994 C   0  0  0  0  0  0  0  0  0  0  0  0
   -1.0721   -1.9049   -6.0080 C   0  0  0  0  0  0  0  0  0  0  0  0
   -1.3031   -1.3291   -6.8972 H   0  0  0  0  0  0  0  0  0  0  0  0
   -1.0287   -3.3048   -6.0566 C   0  0  0  0  0  0  0  0  0  0  0  0
   -1.2260   -3.8215   -6.9910 H   0  0  0  0  0  0  0  0  0  0  0  0
   -0.7310   -4.0393   -4.8989 C   0  0  0  0  0  0  0  0  0  0  0  0
   -0.6984   -5.1240   -4.9391 H   0  0  0  0  0  0  0  0  0  0  0  0
   -0.4740   -3.3780   -3.6893 C   0  0  0  0  0  0  0  0  0  0  0  0
   -0.2452   -3.9479   -2.7949 H   0  0  0  0  0  0  0  0  0  0  0  0
   -0.5155   -1.9789   -3.6478 C   0  0  0  0  0  0  0  0  0  0  0  0
   -1.3531    0.5574   -0.0694 C   0  0  0  0  0  0  0  0  0  0  0  0
   -2.2850    0.9924   -0.7368 O   0  0  0  0  0  0  0  0  0  0  0  0
   -0.7284    1.4056    0.8280 N   0  0  0  0  0  0  0  0  0  0  0  0
   -0.0467    0.9965    1.4610 H   0  0  0  0  0  0  0  0  0  0  0  0
   -1.1271    2.7934    1.0308 C   0  0  0  0  0  0  0  0  0  0  0  0
   -2.1513    2.8447    1.4150 H   0  0  0  0  0  0  0  0  0  0  0  0
   -0.4614    3.2759    1.7530 H   0  0  0  0  0  0  0  0  0  0  0  0
   -1.0743    3.3504    0.0894 H   0  0  0  0  0  0  0  0  0  0  0  0
  1  2  1  0  0  0  0
  2  3  1  0  0  0  0
  2  4  1  0  0  0  0
  2  5  1  0  0  0  0
  5  6  2  0  0  0  0
  5  7  1  0  0  0  0
  7  8  1  0  0  0  0
  7  9  1  0  0  0  0
  9 10  1  0  0  0  0
  9 11  1  0  0  0  0
  9 29  1  0  0  0  0
 11 12  1  0  0  0  0
 11 13  1  0  0  0  0
 11 14  1  0  0  0  0
 14 15  2  0  0  0  0
 14 28  1  0  0  0  0
 15 16  1  0  0  0  0
 15 17  1  0  0  0  0
 17 18  1  0  0  0  0
 17 19  1  0  0  0  0
 19 20  1  0  0  0  0
 19 28  2  0  0  0  0
 20 21  1  0  0  0  0
 20 22  2  0  0  0  0
 22 23  1  0  0  0  0
 22 24  1  0  0  0  0
 24 25  1  0  0  0  0
 24 26  2  0  0  0  0
 26 27  1  0  0  0  0
 26 28  1  0  0  0  0
 29 30  2  0  0  0  0
 29 31  1  0  0  0  0
 31 32  1  0  0  0  0
 31 33  1  0  0  0  0
 33 34  1  0  0  0  0
 33 35  1  0  0  0  0
 33 36  1  0  0  0  0
M  END
$$$$

  -OEChem-03222214083D

 36 37  0     1  0  0  0  0  0999 V2000
   -3.7176   -4.6070    1.0772 H   0  0  0  0  0  0  0  0  0  0  0  0
   -3.6871   -3.7579    0.3886 C   0  0  0  0  0  0  0  0  0  0  0  0
   -4.5663   -3.1323    0.5609 H   0  0  0  0  0  0  0  0  0  0  0  0
   -3.7117   -4.1345   -0.6369 H   0  0  0  0  0  0  0  0  0  0  0  0
   -2.4242   -2.9482    0.6119 C   0  0  0  0  0  0  0  0  0  0  0  0
   -1.6279   -3.2819    1.4752 O   0  0  0  0  0  0  0  0  0  0  0  0
   -2.1706   -1.8462   -0.1748 N   0  0  0  0  0  0  0  0  0  0  0  0
   -2.8589   -1.6020   -0.8852 H   0  0  0  0  0  0  0  0  0  0  0  0
   -0.9877   -0.9798   -0.0744 C   0  0  1  0  0  0  0  0  0  0  0  0
   -0.5410   -1.1357    0.9126 H   0  0  0  0  0  0  0  0  0  0  0  0
    0.0626   -1.4384   -1.1027 C   0  0  0  0  0  0  0  0  0  0  0  0
    1.0179   -0.9710   -0.8455 H   0  0  0  0  0  0  0  0  0  0  0  0
    0.2077   -2.5201   -1.0245 H   0  0  0  0  0  0  0  0  0  0  0  0
   -0.2653   -1.0639   -2.5280 C   0  0  0  0  0  0  0  0  0  0  0  0
   -0.1704    0.1755   -3.1171 C   0  0  0  0  0  0  0  0  0  0  0  0
    0.1597    1.0878   -2.6253 H   0  0  0  0  0  0  0  0  0  0  0  0
   -0.5960    0.0512   -4.4376 N   0  0  0  0  0  0  0  0  0  0  0  0
   -0.6692    0.8168   -5.1038 H   0  0  0  0  0  0  0  0  0  0  0  0
   -0.9774   -1.2538   -4.7012 C   0  0  0  0  0  0  0  0  0  0  0  0
   -1.4780   -1.8611   -5.8528 C   0  0  0  0  0  0  0  0  0  0  0  0
   -1.6228   -1.2809   -6.7573 H   0  0  0  0  0  0  0  0  0  0  0  0
   -1.7900   -3.2278   -5.8241 C   0  0  0  0  0  0  0  0  0  0  0  0
   -2.1781   -3.7140   -6.7143 H   0  0  0  0  0  0  0  0  0  0  0  0
   -1.6006   -3.9683   -4.6472 C   0  0  0  0  0  0  0  0  0  0  0  0
   -1.8421   -5.0266   -4.6282 H   0  0  0  0  0  0  0  0  0  0  0  0
   -1.0978   -3.3466   -3.4953 C   0  0  0  0  0  0  0  0  0  0  0  0
   -0.9496   -3.9156   -2.5833 H   0  0  0  0  0  0  0  0  0  0  0  0
   -0.7864   -1.9829   -3.5335 C   0  0  0  0  0  0  0  0  0  0  0  0
   -1.3338    0.5231   -0.1264 C   0  0  0  0  0  0  0  0  0  0  0  0
   -2.2299    0.9404   -0.8511 O   0  0  0  0  0  0  0  0  0  0  0  0
   -0.7432    1.3984    0.7682 N   0  0  0  0  0  0  0  0  0  0  0  0
   -0.1025    1.0056    1.4523 H   0  0  0  0  0  0  0  0  0  0  0  0
   -1.1409    2.7950    0.9014 C   0  0  0  0  0  0  0  0  0  0  0  0
   -2.1817    2.8671    1.2342 H   0  0  0  0  0  0  0  0  0  0  0  0
   -0.5066    3.2999    1.6361 H   0  0  0  0  0  0  0  0  0  0  0  0
   -1.0400    3.3166   -0.0562 H   0  0  0  0  0  0  0  0  0  0  0  0
  1  2  1  0  0  0  0
  2  3  1  0  0  0  0
  2  4  1  0  0  0  0
  2  5  1  0  0  0  0
  5  6  2  0  0  0  0
  5  7  1  0  0  0  0
  7  8  1  0  0  0  0
  7  9  1  0  0  0  0
  9 10  1  0  0  0  0
  9 11  1  0  0  0  0
  9 29  1  0  0  0  0
 11 12  1  0  0  0  0
 11 13  1  0  0  0  0
 11 14  1  0  0  0  0
 14 15  2  0  0  0  0
 14 28  1  0  0  0  0
 15 16  1  0  0  0  0
 15 17  1  0  0  0  0
 17 18  1  0  0  0  0
 17 19  1  0  0  0  0
 19 20  1  0  0  0  0
 19 28  2  0  0  0  0
 20 21  1  0  0  0  0
 20 22  2  0  0  0  0
 22 23  1  0  0  0  0
 22 24  1  0  0  0  0
 24 25  1  0  0  0  0
 24 26  2  0  0  0  0
 26 27  1  0  0  0  0
 26 28  1  0  0  0  0
 29 30  2  0  0  0  0
 29 31  1  0  0  0  0
 31 32  1  0  0  0  0
 31 33  1  0  0  0  0
 33 34  1  0  0  0  0
 33 35  1  0  0  0  0
 33 36  1  0  0  0  0
M  END
$$$$

  -OEChem-03222214083D

 36 37  0     1  0  0  0  0  0999 V2000
   -3.7991   -4.5519    1.1511 H   0  0  0  0  0  0  0  0  0  0  0  0
   -3.7437   -3.7222    0.4413 C   0  0  0  0  0  0  0  0  0  0  0  0
   -4.6023   -3.0651    0.5993 H   0  0  0  0  0  0  0  0  0  0  0  0
   -3.7827   -4.1236   -0.5743 H   0  0  0  0  0  0  0  0  0  0  0  0
   -2.4563   -2.9461    0.6422 C   0  0  0  0  0  0  0  0  0  0  0  0
   -1.6637   -3.2843    1.5071 O   0  0  0  0  0  0  0  0  0  0  0  0
   -2.1810   -1.8653   -0.1654 N   0  0  0  0  0  0  0  0  0  0  0  0
   -2.8711   -1.6123   -0.8716 H   0  0  0  0  0  0  0  0  0  0  0  0
   -0.9905   -1.0092   -0.0734 C   0  0  1  0  0  0  0  0  0  0  0  0
   -0.5522   -1.1498    0.9195 H   0  0  0  0  0  0  0  0  0  0  0  0
    0.0670   -1.4751   -1.0904 C   0  0  0  0  0  0  0  0  0  0  0  0
    1.0223   -1.0092   -0.8311 H   0  0  0  0  0  0  0  0  0  0  0  0
    0.2074   -2.5583   -1.0177 H   0  0  0  0  0  0  0  0  0  0  0  0
   -0.2760   -1.0953   -2.5082 C   0  0  0  0  0  0  0  0  0  0  0  0
    0.0698    0.0596   -3.1685 C   0  0  0  0  0  0  0  0  0  0  0  0
    0.6387    0.8852   -2.7468 H   0  0  0  0  0  0  0  0  0  0  0  0
   -0.4663   -0.0141   -4.4526 N   0  0  0  0  0  0  0  0  0  0  0  0
   -0.4090    0.7196   -5.1550 H   0  0  0  0  0  0  0  0  0  0  0  0
   -1.1493   -1.2075   -4.6249 C   0  0  0  0  0  0  0  0  0  0  0  0
   -1.8490   -1.7323   -5.7116 C   0  0  0  0  0  0  0  0  0  0  0  0
   -1.9270   -1.1680   -6.6341 H   0  0  0  0  0  0  0  0  0  0  0  0
   -2.4465   -2.9956   -5.5949 C   0  0  0  0  0  0  0  0  0  0  0  0
   -2.9945   -3.4152   -6.4333 H   0  0  0  0  0  0  0  0  0  0  0  0
   -2.3341   -3.7199   -4.3979 C   0  0  0  0  0  0  0  0  0  0  0  0
   -2.7921   -4.7007   -4.3134 H   0  0  0  0  0  0  0  0  0  0  0  0
   -1.6294   -3.1816   -3.3119 C   0  0  0  0  0  0  0  0  0  0  0  0
   -1.5324   -3.7385   -2.3858 H   0  0  0  0  0  0  0  0  0  0  0  0
   -1.0449   -1.9164   -3.4346 C   0  0  0  0  0  0  0  0  0  0  0  0
   -1.3276    0.4943   -0.1640 C   0  0  0  0  0  0  0  0  0  0  0  0
   -2.2273    0.8965   -0.8924 O   0  0  0  0  0  0  0  0  0  0  0  0
   -0.7390    1.3850    0.7167 N   0  0  0  0  0  0  0  0  0  0  0  0
   -0.0924    1.0056    1.4023 H   0  0  0  0  0  0  0  0  0  0  0  0
   -1.1355    2.7839    0.8247 C   0  0  0  0  0  0  0  0  0  0  0  0
   -2.1877    2.8630    1.1181 H   0  0  0  0  0  0  0  0  0  0  0  0
   -0.5267    3.2918    1.5791 H   0  0  0  0  0  0  0  0  0  0  0  0
   -0.9970    3.2970   -0.1327 H   0  0  0  0  0  0  0  0  0  0  0  0
  1  2  1  0  0  0  0
  2  3  1  0  0  0  0
  2  4  1  0  0  0  0
  2  5  1  0  0  0  0
  5  6  2  0  0  0  0
  5  7  1  0  0  0  0
  7  8  1  0  0  0  0
  7  9  1  0  0  0  0
  9 10  1  0  0  0  0
  9 11  1  0  0  0  0
  9 29  1  0  0  0  0
 11 12  1  0  0  0  0
 11 13  1  0  0  0  0
 11 14  1  0  0  0  0
 14 15  2  0  0  0  0
 14 28  1  0  0  0  0
 15 16  1  0  0  0  0
 15 17  1  0  0  0  0
 17 18  1  0  0  0  0
 17 19  1  0  0  0  0
 19 20  1  0  0  0  0
 19 28  2  0  0  0  0
 20 21  1  0  0  0  0
 20 22  2  0  0  0  0
 22 23  1  0  0  0  0
 22 24  1  0  0  0  0
 24 25  1  0  0  0  0
 24 26  2  0  0  0  0
 26 27  1  0  0  0  0
 26 28  1  0  0  0  0
 29 30  2  0  0  0  0
 29 31  1  0  0  0  0
 31 32  1  0  0  0  0
 31 33  1  0  0  0  0
 33 34  1  0  0  0  0
 33 35  1  0  0  0  0
 33 36  1  0  0  0  0
M  END
$$$$

  -OEChem-03222214083D

 36 37  0     1  0  0  0  0  0999 V2000
   -3.8455   -4.4785    1.3595 H   0  0  0  0  0  0  0  0  0  0  0  0
   -3.7970   -3.6766    0.6175 C   0  0  0  0  0  0  0  0  0  0  0  0
   -4.6300   -2.9896    0.7863 H   0  0  0  0  0  0  0  0  0  0  0  0
   -3.8900   -4.1130   -0.3799 H   0  0  0  0  0  0  0  0  0  0  0  0
   -2.4802   -2.9332    0.7376 C   0  0  0  0  0  0  0  0  0  0  0  0
   -1.6497   -3.2884    1.5588 O   0  0  0  0  0  0  0  0  0  0  0  0
   -2.2191   -1.8659   -0.0933 N   0  0  0  0  0  0  0  0  0  0  0  0
   -2.9476   -1.5806   -0.7468 H   0  0  0  0  0  0  0  0  0  0  0  0
   -1.0124   -1.0292   -0.0518 C   0  0  1  0  0  0  0  0  0  0  0  0
   -0.5437   -1.1654    0.9279 H   0  0  0  0  0  0  0  0  0  0  0  0
    0.0204   -1.4871   -1.0994 C   0  0  0  0  0  0  0  0  0  0  0  0
    0.9857   -1.0343   -0.8532 H   0  0  0  0  0  0  0  0  0  0  0  0
    0.1475   -2.5728   -1.0407 H   0  0  0  0  0  0  0  0  0  0  0  0
   -0.3475   -1.0999   -2.5106 C   0  0  0  0  0  0  0  0  0  0  0  0
    0.2243   -0.0885   -3.2451 C   0  0  0  0  0  0  0  0  0  0  0  0
    0.9928    0.5943   -2.8906 H   0  0  0  0  0  0  0  0  0  0  0  0
   -0.3750   -0.0860   -4.5023 N   0  0  0  0  0  0  0  0  0  0  0  0
   -0.1812    0.5810   -5.2457 H   0  0  0  0  0  0  0  0  0  0  0  0
   -1.3016   -1.1110   -4.5965 C   0  0  0  0  0  0  0  0  0  0  0  0
   -2.1294   -1.5175   -5.6432 C   0  0  0  0  0  0  0  0  0  0  0  0
   -2.1242   -0.9786   -6.5841 H   0  0  0  0  0  0  0  0  0  0  0  0
   -2.9599   -2.6326   -5.4639 C   0  0  0  0  0  0  0  0  0  0  0  0
   -3.6076   -2.9611   -6.2712 H   0  0  0  0  0  0  0  0  0  0  0  0
   -2.9461   -3.3308   -4.2468 C   0  0  0  0  0  0  0  0  0  0  0  0
   -3.5803   -4.2021   -4.1153 H   0  0  0  0  0  0  0  0  0  0  0  0
   -2.1106   -2.9103   -3.2022 C   0  0  0  0  0  0  0  0  0  0  0  0
   -2.0817   -3.4590   -2.2677 H   0  0  0  0  0  0  0  0  0  0  0  0
   -1.3007   -1.7834   -3.3797 C   0  0  0  0  0  0  0  0  0  0  0  0
   -1.3432    0.4755   -0.1482 C   0  0  0  0  0  0  0  0  0  0  0  0
   -2.2767    0.8701   -0.8377 O   0  0  0  0  0  0  0  0  0  0  0  0
   -0.7191    1.3737    0.7000 N   0  0  0  0  0  0  0  0  0  0  0  0
   -0.0395    1.0033    1.3580 H   0  0  0  0  0  0  0  0  0  0  0  0
   -1.1004    2.7773    0.7985 C   0  0  0  0  0  0  0  0  0  0  0  0
   -2.1365    2.8694    1.1412 H   0  0  0  0  0  0  0  0  0  0  0  0
   -0.4521    3.2960    1.5114 H   0  0  0  0  0  0  0  0  0  0  0  0
   -1.0057    3.2699   -0.1751 H   0  0  0  0  0  0  0  0  0  0  0  0
  1  2  1  0  0  0  0
  2  3  1  0  0  0  0
  2  4  1  0  0  0  0
  2  5  1  0  0  0  0
  5  6  2  0  0  0  0
  5  7  1  0  0  0  0
  7  8  1  0  0  0  0
  7  9  1  0  0  0  0
  9 10  1  0  0  0  0
  9 11  1  0  0  0  0
  9 29  1  0  0  0  0
 11 12  1  0  0  0  0
 11 13  1  0  0  0  0
 11 14  1  0  0  0  0
 14 15  2  0  0  0  0
 14 28  1  0  0  0  0
 15 16  1  0  0  0  0
 15 17  1  0  0  0  0
 17 18  1  0  0  0  0
 17 19  1  0  0  0  0
 19 20  1  0  0  0  0
 19 28  2  0  0  0  0
 20 21  1  0  0  0  0
 20 22  2  0  0  0  0
 22 23  1  0  0  0  0
 22 24  1  0  0  0  0
 24 25  1  0  0  0  0
 24 26  2  0  0  0  0
 26 27  1  0  0  0  0
 26 28  1  0  0  0  0
 29 30  2  0  0  0  0
 29 31  1  0  0  0  0
 31 32  1  0  0  0  0
 31 33  1  0  0  0  0
 33 34  1  0  0  0  0
 33 35  1  0  0  0  0
 33 36  1  0  0  0  0
M  END
$$$$

  -OEChem-03222214083D

 36 37  0     1  0  0  0  0  0999 V2000
   -3.8541   -4.3763    1.6249 H   0  0  0  0  0  0  0  0  0  0  0  0
   -3.8196   -3.6159    0.8397 C   0  0  0  0  0  0  0  0  0  0  0  0
   -4.6106   -2.8847    1.0238 H   0  0  0  0  0  0  0  0  0  0  0  0
   -3.9943   -4.0977   -0.1254 H   0  0  0  0  0  0  0  0  0  0  0  0
   -2.4677   -2.9273    0.8383 C   0  0  0  0  0  0  0  0  0  0  0  0
   -1.5815   -3.3193    1.5808 O   0  0  0  0  0  0  0  0  0  0  0  0
   -2.2442   -1.8597   -0.0036 N   0  0  0  0  0  0  0  0  0  0  0  0
   -3.0303   -1.5148   -0.5539 H   0  0  0  0  0  0  0  0  0  0  0  0
   -1.0257   -1.0413   -0.0283 C   0  0  1  0  0  0  0  0  0  0  0  0
   -0.5091   -1.1864    0.9256 H   0  0  0  0  0  0  0  0  0  0  0  0
   -0.0342   -1.4716   -1.1293 C   0  0  0  0  0  0  0  0  0  0  0  0
    0.9434   -1.0350   -0.9031 H   0  0  0  0  0  0  0  0  0  0  0  0
    0.0816   -2.5597   -1.0946 H   0  0  0  0  0  0  0  0  0  0  0  0
   -0.4310   -1.0701   -2.5322 C   0  0  0  0  0  0  0  0  0  0  0  0
    0.3268   -0.2543   -3.3397 C   0  0  0  0  0  0  0  0  0  0  0  0
    1.2491    0.2421   -3.0472 H   0  0  0  0  0  0  0  0  0  0  0  0
   -0.3073   -0.1603   -4.5742 N   0  0  0  0  0  0  0  0  0  0  0  0
    0.0099    0.4033   -5.3596 H   0  0  0  0  0  0  0  0  0  0  0  0
   -1.4303   -0.9678   -4.5967 C   0  0  0  0  0  0  0  0  0  0  0  0
   -2.3456   -1.2304   -5.6160 C   0  0  0  0  0  0  0  0  0  0  0  0
   -2.2547   -0.7314   -6.5742 H   0  0  0  0  0  0  0  0  0  0  0  0
   -3.3725   -2.1558   -5.3888 C   0  0  0  0  0  0  0  0  0  0  0  0
   -4.0915   -2.3725   -6.1733 H   0  0  0  0  0  0  0  0  0  0  0  0
   -3.4588   -2.8166   -4.1552 C   0  0  0  0  0  0  0  0  0  0  0  0
   -4.2405   -3.5515   -3.9894 H   0  0  0  0  0  0  0  0  0  0  0  0
   -2.5323   -2.5398   -3.1396 C   0  0  0  0  0  0  0  0  0  0  0  0
   -2.5832   -3.0816   -2.2042 H   0  0  0  0  0  0  0  0  0  0  0  0
   -1.5296   -1.5857   -3.3532 C   0  0  0  0  0  0  0  0  0  0  0  0
   -1.3585    0.4640   -0.0981 C   0  0  0  0  0  0  0  0  0  0  0  0
   -2.3458    0.8562   -0.7099 O   0  0  0  0  0  0  0  0  0  0  0  0
   -0.6847    1.3582    0.7155 N   0  0  0  0  0  0  0  0  0  0  0  0
    0.0484    0.9891    1.3137 H   0  0  0  0  0  0  0  0  0  0  0  0
   -1.0587    2.7616    0.8431 C   0  0  0  0  0  0  0  0  0  0  0  0
   -2.0681    2.8531    1.2582 H   0  0  0  0  0  0  0  0  0  0  0  0
   -0.3619    3.2797    1.5088 H   0  0  0  0  0  0  0  0  0  0  0  0
   -1.0332    3.2556   -0.1340 H   0  0  0  0  0  0  0  0  0  0  0  0
  1  2  1  0  0  0  0
  2  3  1  0  0  0  0
  2  4  1  0  0  0  0
  2  5  1  0  0  0  0
  5  6  2  0  0  0  0
  5  7  1  0  0  0  0
  7  8  1  0  0  0  0
  7  9  1  0  0  0  0
  9 10  1  0  0  0  0
  9 11  1  0  0  0  0
  9 29  1  0  0  0  0
 11 12  1  0  0  0  0
 11 13  1  0  0  0  0
 11 14  1  0  0  0  0
 14 15  2  0  0  0  0
 14 28  1  0  0  0  0
 15 16  1  0  0  0  0
 15 17  1  0  0  0  0
 17 18  1  0  0  0  0
 17 19  1  0  0  0  0
 19 20  1  0  0  0  0
 19 28  2  0  0  0  0
 20 21  1  0  0  0  0
 20 22  2  0  0  0  0
 22 23  1  0  0  0  0
 22 24  1  0  0  0  0
 24 25  1  0  0  0  0
 24 26  2  0  0  0  0
 26 27  1  0  0  0  0
 26 28  1  0  0  0  0
 29 30  2  0  0  0  0
 29 31  1  0  0  0  0
 31 32  1  0  0  0  0
 31 33  1  0  0  0  0
 33 34  1  0  0  0  0
 33 35  1  0  0  0  0
 33 36  1  0  0  0  0
M  END
$$$$

  -OEChem-03222214083D

 36 37  0     1  0  0  0  0  0999 V2000
   -3.7295   -4.3945    1.8099 H   0  0  0  0  0  0  0  0  0  0  0  0
   -3.7551   -3.6117    1.0467 C   0  0  0  0  0  0  0  0  0  0  0  0
   -4.5072   -2.8708    1.3284 H   0  0  0  0  0  0  0  0  0  0  0  0
   -4.0349   -4.0603    0.0907 H   0  0  0  0  0  0  0  0  0  0  0  0
   -2.3950   -2.9507    0.9296 C   0  0  0  0  0  0  0  0  0  0  0  0
   -1.4551   -3.3626    1.5910 O   0  0  0  0  0  0  0  0  0  0  0  0
   -2.2287   -1.8770    0.0822 N   0  0  0  0  0  0  0  0  0  0  0  0
   -3.0632   -1.4891   -0.3560 H   0  0  0  0  0  0  0  0  0  0  0  0
   -1.0183   -1.0536   -0.0024 C   0  0  1  0  0  0  0  0  0  0  0  0
   -0.4537   -1.1997    0.9239 H   0  0  0  0  0  0  0  0  0  0  0  0
   -0.0737   -1.4543   -1.1545 C   0  0  0  0  0  0  0  0  0  0  0  0
    0.9119   -1.0247   -0.9493 H   0  0  0  0  0  0  0  0  0  0  0  0
    0.0411   -2.5427   -1.1317 H   0  0  0  0  0  0  0  0  0  0  0  0
   -0.4893   -1.0600   -2.5599 C   0  0  0  0  0  0  0  0  0  0  0  0
    0.4152   -0.5011   -3.4343 C   0  0  0  0  0  0  0  0  0  0  0  0
    1.4430   -0.2388   -3.1936 H   0  0  0  0  0  0  0  0  0  0  0  0
   -0.2155   -0.3074   -4.6561 N   0  0  0  0  0  0  0  0  0  0  0  0
    0.2052    0.1163   -5.4800 H   0  0  0  0  0  0  0  0  0  0  0  0
   -1.5002   -0.8113   -4.6081 C   0  0  0  0  0  0  0  0  0  0  0  0
   -2.4703   -0.8751   -5.6073 C   0  0  0  0  0  0  0  0  0  0  0  0
   -2.2755   -0.4537   -6.5869 H   0  0  0  0  0  0  0  0  0  0  0  0
   -3.6910   -1.5000   -5.3311 C   0  0  0  0  0  0  0  0  0  0  0  0
   -4.4580   -1.5589   -6.0976 H   0  0  0  0  0  0  0  0  0  0  0  0
   -3.9132   -2.0657   -4.0690 C   0  0  0  0  0  0  0  0  0  0  0  0
   -4.8519   -2.5698   -3.8610 H   0  0  0  0  0  0  0  0  0  0  0  0
   -2.9254   -1.9911   -3.0761 C   0  0  0  0  0  0  0  0  0  0  0  0
   -3.1082   -2.4691   -2.1263 H   0  0  0  0  0  0  0  0  0  0  0  0
   -1.7149   -1.3303   -3.3316 C   0  0  0  0  0  0  0  0  0  0  0  0
   -1.3748    0.4469   -0.0425 C   0  0  0  0  0  0  0  0  0  0  0  0
   -2.4123    0.8211   -0.5782 O   0  0  0  0  0  0  0  0  0  0  0  0
   -0.6712    1.3467    0.7392 N   0  0  0  0  0  0  0  0  0  0  0  0
    0.1124    0.9906    1.2783 H   0  0  0  0  0  0  0  0  0  0  0  0
   -1.0630    2.7416    0.9019 C   0  0  0  0  0  0  0  0  0  0  0  0
   -2.0475    2.8104    1.3765 H   0  0  0  0  0  0  0  0  0  0  0  0
   -0.3381    3.2672    1.5307 H   0  0  0  0  0  0  0  0  0  0  0  0
   -1.1046    3.2435   -0.0705 H   0  0  0  0  0  0  0  0  0  0  0  0
  1  2  1  0  0  0  0
  2  3  1  0  0  0  0
  2  4  1  0  0  0  0
  2  5  1  0  0  0  0
  5  6  2  0  0  0  0
  5  7  1  0  0  0  0
  7  8  1  0  0  0  0
  7  9  1  0  0  0  0
  9 10  1  0  0  0  0
  9 11  1  0  0  0  0
  9 29  1  0  0  0  0
 11 12  1  0  0  0  0
 11 13  1  0  0  0  0
 11 14  1  0  0  0  0
 14 15  2  0  0  0  0
 14 28  1  0  0  0  0
 15 16  1  0  0  0  0
 15 17  1  0  0  0  0
 17 18  1  0  0  0  0
 17 19  1  0  0  0  0
 19 20  1  0  0  0  0
 19 28  2  0  0  0  0
 20 21  1  0  0  0  0
 20 22  2  0  0  0  0
 22 23  1  0  0  0  0
 22 24  1  0  0  0  0
 24 25  1  0  0  0  0
 24 26  2  0  0  0  0
 26 27  1  0  0  0  0
 26 28  1  0  0  0  0
 29 30  2  0  0  0  0
 29 31  1  0  0  0  0
 31 32  1  0  0  0  0
 31 33  1  0  0  0  0
 33 34  1  0  0  0  0
 33 35  1  0  0  0  0
 33 36  1  0  0  0  0
M  END
$$$$

  -OEChem-03222214083D

 36 37  0     1  0  0  0  0  0999 V2000
   -3.5368   -4.5143    1.8766 H   0  0  0  0  0  0  0  0  0  0  0  0
   -3.6282   -3.7120    1.1391 C   0  0  0  0  0  0  0  0  0  0  0  0
   -4.3830   -3.0013    1.4840 H   0  0  0  0  0  0  0  0  0  0  0  0
   -3.9501   -4.1425    0.1877 H   0  0  0  0  0  0  0  0  0  0  0  0
   -2.2951   -3.0100    0.9631 C   0  0  0  0  0  0  0  0  0  0  0  0
   -1.3093   -3.4096    1.5625 O   0  0  0  0  0  0  0  0  0  0  0  0
   -2.2037   -1.9178    0.1279 N   0  0  0  0  0  0  0  0  0  0  0  0
   -3.0778   -1.5281   -0.2171 H   0  0  0  0  0  0  0  0  0  0  0  0
   -1.0210   -1.0554    0.0089 C   0  0  1  0  0  0  0  0  0  0  0  0
   -0.4187   -1.1975    0.9120 H   0  0  0  0  0  0  0  0  0  0  0  0
   -0.1125   -1.4369   -1.1750 C   0  0  0  0  0  0  0  0  0  0  0  0
    0.8690   -0.9890   -0.9908 H   0  0  0  0  0  0  0  0  0  0  0  0
    0.0238   -2.5226   -1.1391 H   0  0  0  0  0  0  0  0  0  0  0  0
   -0.5289   -1.0850   -2.5947 C   0  0  0  0  0  0  0  0  0  0  0  0
    0.4501   -0.8376   -3.5312 C   0  0  0  0  0  0  0  0  0  0  0  0
    1.5201   -0.8437   -3.3366 H   0  0  0  0  0  0  0  0  0  0  0  0
   -0.1566   -0.5924   -4.7542 N   0  0  0  0  0  0  0  0  0  0  0  0
    0.3261   -0.3754   -5.6231 H   0  0  0  0  0  0  0  0  0  0  0  0
   -1.5266   -0.6993   -4.6289 C   0  0  0  0  0  0  0  0  0  0  0  0
   -2.5160   -0.5473   -5.5998 C   0  0  0  0  0  0  0  0  0  0  0  0
   -2.2477   -0.3036   -6.6216 H   0  0  0  0  0  0  0  0  0  0  0  0
   -3.8564   -0.7114   -5.2361 C   0  0  0  0  0  0  0  0  0  0  0  0
   -4.6412   -0.5943   -5.9775 H   0  0  0  0  0  0  0  0  0  0  0  0
   -4.1819   -1.0220   -3.9106 C   0  0  0  0  0  0  0  0  0  0  0  0
   -5.2217   -1.1407   -3.6225 H   0  0  0  0  0  0  0  0  0  0  0  0
   -3.1723   -1.1712   -2.9491 C   0  0  0  0  0  0  0  0  0  0  0  0
   -3.4609   -1.3984   -1.9364 H   0  0  0  0  0  0  0  0  0  0  0  0
   -1.8238   -1.0097   -3.3005 C   0  0  0  0  0  0  0  0  0  0  0  0
   -1.4095    0.4375    0.0107 C   0  0  0  0  0  0  0  0  0  0  0  0
   -2.4953    0.7903   -0.4368 O   0  0  0  0  0  0  0  0  0  0  0  0
   -0.6912    1.3371    0.7789 N   0  0  0  0  0  0  0  0  0  0  0  0
    0.1504    0.9997    1.2363 H   0  0  0  0  0  0  0  0  0  0  0  0
   -1.1005    2.7212    0.9867 C   0  0  0  0  0  0  0  0  0  0  0  0
   -2.0847    2.7633    1.4650 H   0  0  0  0  0  0  0  0  0  0  0  0
   -0.3815    3.2349    1.6320 H   0  0  0  0  0  0  0  0  0  0  0  0
   -1.1499    3.2537    0.0311 H   0  0  0  0  0  0  0  0  0  0  0  0
  1  2  1  0  0  0  0
  2  3  1  0  0  0  0
  2  4  1  0  0  0  0
  2  5  1  0  0  0  0
  5  6  2  0  0  0  0
  5  7  1  0  0  0  0
  7  8  1  0  0  0  0
  7  9  1  0  0  0  0
  9 10  1  0  0  0  0
  9 11  1  0  0  0  0
  9 29  1  0  0  0  0
 11 12  1  0  0  0  0
 11 13  1  0  0  0  0
 11 14  1  0  0  0  0
 14 15  2  0  0  0  0
 14 28  1  0  0  0  0
 15 16  1  0  0  0  0
 15 17  1  0  0  0  0
 17 18  1  0  0  0  0
 17 19  1  0  0  0  0
 19 20  1  0  0  0  0
 19 28  2  0  0  0  0
 20 21  1  0  0  0  0
 20 22  2  0  0  0  0
 22 23  1  0  0  0  0
 22 24  1  0  0  0  0
 24 25  1  0  0  0  0
 24 26  2  0  0  0  0
 26 27  1  0  0  0  0
 26 28  1  0  0  0  0
 29 30  2  0  0  0  0
 29 31  1  0  0  0  0
 31 32  1  0  0  0  0
 31 33  1  0  0  0  0
 33 34  1  0  0  0  0
 33 35  1  0  0  0  0
 33 36  1  0  0  0  0
M  END
$$$$

  -OEChem-03222214083D

 36 37  0     1  0  0  0  0  0999 V2000
   -3.5122   -4.5802    1.6611 H   0  0  0  0  0  0  0  0  0  0  0  0
   -3.6254   -3.7122    1.0056 C   0  0  0  0  0  0  0  0  0  0  0  0
   -4.3908   -3.0534    1.4228 H   0  0  0  0  0  0  0  0  0  0  0  0
   -3.9471   -4.0552    0.0192 H   0  0  0  0  0  0  0  0  0  0  0  0
   -2.3080   -2.9690    0.8896 C   0  0  0  0  0  0  0  0  0  0  0  0
   -1.3190   -3.3821    1.4748 O   0  0  0  0  0  0  0  0  0  0  0  0
   -2.2356   -1.8260    0.1225 N   0  0  0  0  0  0  0  0  0  0  0  0
   -3.1058   -1.4717   -0.2647 H   0  0  0  0  0  0  0  0  0  0  0  0
   -1.0546   -0.9566    0.0128 C   0  0  1  0  0  0  0  0  0  0  0  0
   -0.4467   -1.1519    0.9020 H   0  0  0  0  0  0  0  0  0  0  0  0
   -0.1545   -1.3372   -1.1768 C   0  0  0  0  0  0  0  0  0  0  0  0
    0.8241   -0.8796   -1.0012 H   0  0  0  0  0  0  0  0  0  0  0  0
   -0.0087   -2.4217   -1.1370 H   0  0  0  0  0  0  0  0  0  0  0  0
   -0.5657   -0.9922   -2.5984 C   0  0  0  0  0  0  0  0  0  0  0  0
    0.3876   -1.0582   -3.5897 C   0  0  0  0  0  0  0  0  0  0  0  0
    1.4381   -1.2924   -3.4334 H   0  0  0  0  0  0  0  0  0  0  0  0
   -0.2181   -0.7911   -4.8085 N   0  0  0  0  0  0  0  0  0  0  0  0
    0.2499   -0.7723   -5.7120 H   0  0  0  0  0  0  0  0  0  0  0  0
   -1.5709   -0.5891   -4.6259 C   0  0  0  0  0  0  0  0  0  0  0  0
   -2.5583   -0.3209   -5.5734 C   0  0  0  0  0  0  0  0  0  0  0  0
   -2.3011   -0.2323   -6.6228 H   0  0  0  0  0  0  0  0  0  0  0  0
   -3.8827   -0.1702   -5.1512 C   0  0  0  0  0  0  0  0  0  0  0  0
   -4.6651    0.0421   -5.8737 H   0  0  0  0  0  0  0  0  0  0  0  0
   -4.1952   -0.2927   -3.7923 C   0  0  0  0  0  0  0  0  0  0  0  0
   -5.2211   -0.1700   -3.4593 H   0  0  0  0  0  0  0  0  0  0  0  0
   -3.1884   -0.5640   -2.8551 C   0  0  0  0  0  0  0  0  0  0  0  0
   -3.4658   -0.6420   -1.8158 H   0  0  0  0  0  0  0  0  0  0  0  0
   -1.8541   -0.7101   -3.2637 C   0  0  0  0  0  0  0  0  0  0  0  0
   -1.3731    0.5508    0.1129 C   0  0  0  0  0  0  0  0  0  0  0  0
   -2.4607    0.9850   -0.2465 O   0  0  0  0  0  0  0  0  0  0  0  0
   -0.5816    1.3663    0.9037 N   0  0  0  0  0  0  0  0  0  0  0  0
    0.2510    0.9573    1.3173 H   0  0  0  0  0  0  0  0  0  0  0  0
   -0.9263    2.7443    1.2327 C   0  0  0  0  0  0  0  0  0  0  0  0
   -1.8447    2.7771    1.8282 H   0  0  0  0  0  0  0  0  0  0  0  0
   -0.1214    3.2079    1.8109 H   0  0  0  0  0  0  0  0  0  0  0  0
   -1.0765    3.3307    0.3200 H   0  0  0  0  0  0  0  0  0  0  0  0
  1  2  1  0  0  0  0
  2  3  1  0  0  0  0
  2  4  1  0  0  0  0
  2  5  1  0  0  0  0
  5  6  2  0  0  0  0
  5  7  1  0  0  0  0
  7  8  1  0  0  0  0
  7  9  1  0  0  0  0
  9 10  1  0  0  0  0
  9 11  1  0  0  0  0
  9 29  1  0  0  0  0
 11 12  1  0  0  0  0
 11 13  1  0  0  0  0
 11 14  1  0  0  0  0
 14 15  2  0  0  0  0
 14 28  1  0  0  0  0
 15 16  1  0  0  0  0
 15 17  1  0  0  0  0
 17 18  1  0  0  0  0
 17 19  1  0  0  0  0
 19 20  1  0  0  0  0
 19 28  2  0  0  0  0
 20 21  1  0  0  0  0
 20 22  2  0  0  0  0
 22 23  1  0  0  0  0
 22 24  1  0  0  0  0
 24 25  1  0  0  0  0
 24 26  2  0  0  0  0
 26 27  1  0  0  0  0
 26 28  1  0  0  0  0
 29 30  2  0  0  0  0
 29 31  1  0  0  0  0
 31 32  1  0  0  0  0
 31 33  1  0  0  0  0
 33 34  1  0  0  0  0
 33 35  1  0  0  0  0
 33 36  1  0  0  0  0
M  END
$$$$

  -OEChem-03222214083D

 36 37  0     1  0  0  0  0  0999 V2000
   -3.4042   -4.5620    1.4794 H   0  0  0  0  0  0  0  0  0  0  0  0
   -3.5700   -3.6282    0.9351 C   0  0  0  0  0  0  0  0  0  0  0  0
   -4.2892   -3.0202    1.4892 H   0  0  0  0  0  0  0  0  0  0  0  0
   -3.9820   -3.8625   -0.0494 H   0  0  0  0  0  0  0  0  0  0  0  0
   -2.2635   -2.8732    0.7814 C   0  0  0  0  0  0  0  0  0  0  0  0
   -1.2280   -3.3497    1.2198 O   0  0  0  0  0  0  0  0  0  0  0  0
   -2.2524   -1.6522    0.1402 N   0  0  0  0  0  0  0  0  0  0  0  0
   -3.1530   -1.2635   -0.1300 H   0  0  0  0  0  0  0  0  0  0  0  0
   -1.0858   -0.7618    0.0284 C   0  0  1  0  0  0  0  0  0  0  0  0
   -0.4901   -1.0267    0.9079 H   0  0  0  0  0  0  0  0  0  0  0  0
   -0.1318   -1.1214   -1.1287 C   0  0  0  0  0  0  0  0  0  0  0  0
    0.8740   -0.8332   -0.8077 H   0  0  0  0  0  0  0  0  0  0  0  0
   -0.1281   -2.2122   -1.2273 H   0  0  0  0  0  0  0  0  0  0  0  0
   -0.3188   -0.5361   -2.5161 C   0  0  0  0  0  0  0  0  0  0  0  0
    0.5788   -0.8956   -3.4967 C   0  0  0  0  0  0  0  0  0  0  0  0
    1.4734   -1.4933   -3.3357 H   0  0  0  0  0  0  0  0  0  0  0  0
    0.1710   -0.3433   -4.7018 N   0  0  0  0  0  0  0  0  0  0  0  0
    0.6569   -0.4359   -5.5912 H   0  0  0  0  0  0  0  0  0  0  0  0
   -1.0544    0.2691   -4.5425 C   0  0  0  0  0  0  0  0  0  0  0  0
   -1.8655    0.8835   -5.4961 C   0  0  0  0  0  0  0  0  0  0  0  0
   -1.5285    0.9814   -6.5219 H   0  0  0  0  0  0  0  0  0  0  0  0
   -3.1257    1.3531   -5.1138 C   0  0  0  0  0  0  0  0  0  0  0  0
   -3.7720    1.8364   -5.8401 H   0  0  0  0  0  0  0  0  0  0  0  0
   -3.5623    1.1696   -3.7967 C   0  0  0  0  0  0  0  0  0  0  0  0
   -4.5524    1.5028   -3.5007 H   0  0  0  0  0  0  0  0  0  0  0  0
   -2.7315    0.5462   -2.8554 C   0  0  0  0  0  0  0  0  0  0  0  0
   -3.1229    0.3706   -1.8662 H   0  0  0  0  0  0  0  0  0  0  0  0
   -1.4395    0.1315   -3.2076 C   0  0  0  0  0  0  0  0  0  0  0  0
   -1.3345    0.7385    0.3055 C   0  0  0  0  0  0  0  0  0  0  0  0
   -2.4631    1.2059    0.2110 O   0  0  0  0  0  0  0  0  0  0  0  0
   -0.4393    1.4357    1.1000 N   0  0  0  0  0  0  0  0  0  0  0  0
    0.4532    0.9943    1.3001 H   0  0  0  0  0  0  0  0  0  0  0  0
   -0.7095    2.7564    1.6571 C   0  0  0  0  0  0  0  0  0  0  0  0
   -1.5354    2.7078    2.3744 H   0  0  0  0  0  0  0  0  0  0  0  0
    0.1764    3.1366    2.1746 H   0  0  0  0  0  0  0  0  0  0  0  0
   -0.9732    3.4621    0.8621 H   0  0  0  0  0  0  0  0  0  0  0  0
  1  2  1  0  0  0  0
  2  3  1  0  0  0  0
  2  4  1  0  0  0  0
  2  5  1  0  0  0  0
  5  6  2  0  0  0  0
  5  7  1  0  0  0  0
  7  8  1  0  0  0  0
  7  9  1  0  0  0  0
  9 10  1  0  0  0  0
  9 11  1  0  0  0  0
  9 29  1  0  0  0  0
 11 12  1  0  0  0  0
 11 13  1  0  0  0  0
 11 14  1  0  0  0  0
 14 15  2  0  0  0  0
 14 28  1  0  0  0  0
 15 16  1  0  0  0  0
 15 17  1  0  0  0  0
 17 18  1  0  0  0  0
 17 19  1  0  0  0  0
 19 20  1  0  0  0  0
 19 28  2  0  0  0  0
 20 21  1  0  0  0  0
 20 22  2  0  0  0  0
 22 23  1  0  0  0  0
 22 24  1  0  0  0  0
 24 25  1  0  0  0  0
 24 26  2  0  0  0  0
 26 27  1  0  0  0  0
 26 28  1  0  0  0  0
 29 30  2  0  0  0  0
 29 31  1  0  0  0  0
 31 32  1  0  0  0  0
 31 33  1  0  0  0  0
 33 34  1  0  0  0  0
 33 35  1  0  0  0  0
 33 36  1  0  0  0  0
M  END
$$$$

  -OEChem-03222214083D

 36 37  0     1  0  0  0  0  0999 V2000
   -3.4138   -5.0404    1.0935 H   0  0  0  0  0  0  0  0  0  0  0  0
   -3.6032   -4.0897    0.5874 C   0  0  0  0  0  0  0  0  0  0  0  0
   -4.3963   -3.5590    1.1199 H   0  0  0  0  0  0  0  0  0  0  0  0
   -3.9335   -4.2939   -0.4340 H   0  0  0  0  0  0  0  0  0  0  0  0
   -2.3415   -3.2476    0.5650 C   0  0  0  0  0  0  0  0  0  0  0  0
   -1.3078   -3.6800    1.0510 O   0  0  0  0  0  0  0  0  0  0  0  0
   -2.3659   -1.9945   -0.0083 N   0  0  0  0  0  0  0  0  0  0  0  0
   -3.2718   -1.6360   -0.3077 H   0  0  0  0  0  0  0  0  0  0  0  0
   -1.2672   -1.0170    0.0476 C   0  0  1  0  0  0  0  0  0  0  0  0
   -0.6868   -1.2776    0.9389 H   0  0  0  0  0  0  0  0  0  0  0  0
   -0.2755   -1.2329   -1.1190 C   0  0  0  0  0  0  0  0  0  0  0  0
    0.6955   -0.9089   -0.7308 H   0  0  0  0  0  0  0  0  0  0  0  0
   -0.1978   -2.3143   -1.2757 H   0  0  0  0  0  0  0  0  0  0  0  0
   -0.3796   -0.5712   -2.4907 C   0  0  0  0  0  0  0  0  0  0  0  0
    0.4031   -1.1484   -3.4684 C   0  0  0  0  0  0  0  0  0  0  0  0
    1.0145   -2.0382   -3.3335 H   0  0  0  0  0  0  0  0  0  0  0  0
    0.2699   -0.4297   -4.6429 N   0  0  0  0  0  0  0  0  0  0  0  0
    0.7260   -0.6450   -5.5268 H   0  0  0  0  0  0  0  0  0  0  0  0
   -0.5510    0.6545   -4.4301 C   0  0  0  0  0  0  0  0  0  0  0  0
   -0.9109    1.6442   -5.3438 C   0  0  0  0  0  0  0  0  0  0  0  0
   -0.5584    1.6007   -6.3683 H   0  0  0  0  0  0  0  0  0  0  0  0
   -1.7246    2.6956   -4.9182 C   0  0  0  0  0  0  0  0  0  0  0  0
   -2.0185    3.4767   -5.6130 H   0  0  0  0  0  0  0  0  0  0  0  0
   -2.1470    2.7415   -3.5865 C   0  0  0  0  0  0  0  0  0  0  0  0
   -2.7687    3.5631   -3.2433 H   0  0  0  0  0  0  0  0  0  0  0  0
   -1.7705    1.7352   -2.6852 C   0  0  0  0  0  0  0  0  0  0  0  0
   -2.1108    1.8483   -1.6721 H   0  0  0  0  0  0  0  0  0  0  0  0
   -0.9759    0.6497   -3.0957 C   0  0  0  0  0  0  0  0  0  0  0  0
   -1.7743    0.3951    0.3805 C   0  0  0  0  0  0  0  0  0  0  0  0
   -2.9521    0.6689    0.1649 O   0  0  0  0  0  0  0  0  0  0  0  0
   -1.1048    1.1683    1.3130 N   0  0  0  0  0  0  0  0  0  0  0  0
   -0.1775    0.8651    1.5965 H   0  0  0  0  0  0  0  0  0  0  0  0
   -1.6484    2.3956    1.8826 C   0  0  0  0  0  0  0  0  0  0  0  0
   -2.5590    2.1842    2.4531 H   0  0  0  0  0  0  0  0  0  0  0  0
   -0.9185    2.8555    2.5556 H   0  0  0  0  0  0  0  0  0  0  0  0
   -1.8870    3.1122    1.0897 H   0  0  0  0  0  0  0  0  0  0  0  0
  1  2  1  0  0  0  0
  2  3  1  0  0  0  0
  2  4  1  0  0  0  0
  2  5  1  0  0  0  0
  5  6  2  0  0  0  0
  5  7  1  0  0  0  0
  7  8  1  0  0  0  0
  7  9  1  0  0  0  0
  9 10  1  0  0  0  0
  9 11  1  0  0  0  0
  9 29  1  0  0  0  0
 11 12  1  0  0  0  0
 11 13  1  0  0  0  0
 11 14  1  0  0  0  0
 14 15  2  0  0  0  0
 14 28  1  0  0  0  0
 15 16  1  0  0  0  0
 15 17  1  0  0  0  0
 17 18  1  0  0  0  0
 17 19  1  0  0  0  0
 19 20  1  0  0  0  0
 19 28  2  0  0  0  0
 20 21  1  0  0  0  0
 20 22  2  0  0  0  0
 22 23  1  0  0  0  0
 22 24  1  0  0  0  0
 24 25  1  0  0  0  0
 24 26  2  0  0  0  0
 26 27  1  0  0  0  0
 26 28  1  0  0  0  0
 29 30  2  0  0  0  0
 29 31  1  0  0  0  0
 31 32  1  0  0  0  0
 31 33  1  0  0  0  0
 33 34  1  0  0  0  0
 33 35  1  0  0  0  0
 33 36  1  0  0  0  0
M  END
$$$$

  -OEChem-03222214083D

 36 37  0     1  0  0  0  0  0999 V2000
   -3.2683   -4.9559    1.3507 H   0  0  0  0  0  0  0  0  0  0  0  0
   -3.4673   -4.0254    0.8118 C   0  0  0  0  0  0  0  0  0  0  0  0
   -4.2448   -3.4704    1.3425 H   0  0  0  0  0  0  0  0  0  0  0  0
   -3.8238   -4.2687   -0.1920 H   0  0  0  0  0  0  0  0  0  0  0  0
   -2.2039   -3.1901    0.7246 C   0  0  0  0  0  0  0  0  0  0  0  0
   -1.1685   -3.5889    1.2346 O   0  0  0  0  0  0  0  0  0  0  0  0
   -2.2291   -1.9784    0.0690 N   0  0  0  0  0  0  0  0  0  0  0  0
   -3.1324   -1.6426   -0.2637 H   0  0  0  0  0  0  0  0  0  0  0  0
   -1.1240   -1.0073    0.0407 C   0  0  1  0  0  0  0  0  0  0  0  0
   -0.4874   -1.2162    0.9067 H   0  0  0  0  0  0  0  0  0  0  0  0
   -0.2388   -1.2834   -1.1984 C   0  0  0  0  0  0  0  0  0  0  0  0
    0.7683   -0.9595   -0.9183 H   0  0  0  0  0  0  0  0  0  0  0  0
   -0.1842   -2.3685   -1.3361 H   0  0  0  0  0  0  0  0  0  0  0  0
   -0.4986   -0.6277   -2.5496 C   0  0  0  0  0  0  0  0  0  0  0  0
   -0.1406   -1.3535   -3.6656 C   0  0  0  0  0  0  0  0  0  0  0  0
    0.2171   -2.3808   -3.6535 H   0  0  0  0  0  0  0  0  0  0  0  0
   -0.3317   -0.5750   -4.7948 N   0  0  0  0  0  0  0  0  0  0  0  0
   -0.1651   -0.8699   -5.7544 H   0  0  0  0  0  0  0  0  0  0  0  0
   -0.7140    0.6948   -4.4225 C   0  0  0  0  0  0  0  0  0  0  0  0
   -0.9488    1.8011   -5.2381 C   0  0  0  0  0  0  0  0  0  0  0  0
   -0.8834    1.7119   -6.3167 H   0  0  0  0  0  0  0  0  0  0  0  0
   -1.2558    3.0279   -4.6450 C   0  0  0  0  0  0  0  0  0  0  0  0
   -1.4448    3.9018   -5.2612 H   0  0  0  0  0  0  0  0  0  0  0  0
   -1.2979    3.1275   -3.2508 C   0  0  0  0  0  0  0  0  0  0  0  0
   -1.5158    4.0825   -2.7829 H   0  0  0  0  0  0  0  0  0  0  0  0
   -1.0557    2.0024   -2.4499 C   0  0  0  0  0  0  0  0  0  0  0  0
   -1.0675    2.1490   -1.3823 H   0  0  0  0  0  0  0  0  0  0  0  0
   -0.7941    0.7470   -3.0272 C   0  0  0  0  0  0  0  0  0  0  0  0
   -1.6497    0.4141    0.2887 C   0  0  0  0  0  0  0  0  0  0  0  0
   -2.7865    0.7172   -0.0599 O   0  0  0  0  0  0  0  0  0  0  0  0
   -0.9824    1.2551    1.1634 N   0  0  0  0  0  0  0  0  0  0  0  0
   -0.1058    0.9227    1.5550 H   0  0  0  0  0  0  0  0  0  0  0  0
   -1.5385    2.5109    1.6542 C   0  0  0  0  0  0  0  0  0  0  0  0
   -2.4006    2.3197    2.3016 H   0  0  0  0  0  0  0  0  0  0  0  0
   -0.7855    3.0574    2.2302 H   0  0  0  0  0  0  0  0  0  0  0  0
   -1.8582    3.1443    0.8199 H   0  0  0  0  0  0  0  0  0  0  0  0
  1  2  1  0  0  0  0
  2  3  1  0  0  0  0
  2  4  1  0  0  0  0
  2  5  1  0  0  0  0
  5  6  2  0  0  0  0
  5  7  1  0  0  0  0
  7  8  1  0  0  0  0
  7  9  1  0  0  0  0
  9 10  1  0  0  0  0
  9 11  1  0  0  0  0
  9 29  1  0  0  0  0
 11 12  1  0  0  0  0
 11 13  1  0  0  0  0
 11 14  1  0  0  0  0
 14 15  2  0  0  0  0
 14 28  1  0  0  0  0
 15 16  1  0  0  0  0
 15 17  1  0  0  0  0
 17 18  1  0  0  0  0
 17 19  1  0  0  0  0
 19 20  1  0  0  0  0
 19 28  2  0  0  0  0
 20 21  1  0  0  0  0
 20 22  2  0  0  0  0
 22 23  1  0  0  0  0
 22 24  1  0  0  0  0
 24 25  1  0  0  0  0
 24 26  2  0  0  0  0
 26 27  1  0  0  0  0
 26 28  1  0  0  0  0
 29 30  2  0  0  0  0
 29 31  1  0  0  0  0
 31 32  1  0  0  0  0
 31 33  1  0  0  0  0
 33 34  1  0  0  0  0
 33 35  1  0  0  0  0
 33 36  1  0  0  0  0
M  END
$$$$

  -OEChem-03222214083D

 36 37  0     1  0  0  0  0  0999 V2000
   -3.3780   -4.7987    1.4848 H   0  0  0  0  0  0  0  0  0  0  0  0
   -3.5167   -3.9332    0.8308 C   0  0  0  0  0  0  0  0  0  0  0  0
   -4.3404   -3.3280    1.2175 H   0  0  0  0  0  0  0  0  0  0  0  0
   -3.7715   -4.2850   -0.1718 H   0  0  0  0  0  0  0  0  0  0  0  0
   -2.2455   -3.1070    0.7812 C   0  0  0  0  0  0  0  0  0  0  0  0
   -1.2483   -3.4808    1.3781 O   0  0  0  0  0  0  0  0  0  0  0  0
   -2.2169   -1.9359    0.0558 N   0  0  0  0  0  0  0  0  0  0  0  0
   -3.0929   -1.6139   -0.3543 H   0  0  0  0  0  0  0  0  0  0  0  0
   -1.0978   -0.9810    0.0353 C   0  0  1  0  0  0  0  0  0  0  0  0
   -0.4895   -1.1513    0.9295 H   0  0  0  0  0  0  0  0  0  0  0  0
   -0.1982   -1.3232   -1.1773 C   0  0  0  0  0  0  0  0  0  0  0  0
    0.8175   -1.0183   -0.9082 H   0  0  0  0  0  0  0  0  0  0  0  0
   -0.1722   -2.4110   -1.3012 H   0  0  0  0  0  0  0  0  0  0  0  0
   -0.4872   -0.6680   -2.5152 C   0  0  0  0  0  0  0  0  0  0  0  0
   -0.4921   -1.4266   -3.6642 C   0  0  0  0  0  0  0  0  0  0  0  0
   -0.4165   -2.5112   -3.6976 H   0  0  0  0  0  0  0  0  0  0  0  0
   -0.6295   -0.5811   -4.7563 N   0  0  0  0  0  0  0  0  0  0  0  0
   -0.6839   -0.8744   -5.7291 H   0  0  0  0  0  0  0  0  0  0  0  0
   -0.5982    0.7337   -4.3381 C   0  0  0  0  0  0  0  0  0  0  0  0
   -0.6327    1.9086   -5.0885 C   0  0  0  0  0  0  0  0  0  0  0  0
   -0.7489    1.8676   -6.1656 H   0  0  0  0  0  0  0  0  0  0  0  0
   -0.4997    3.1375   -4.4339 C   0  0  0  0  0  0  0  0  0  0  0  0
   -0.5269    4.0630   -5.0009 H   0  0  0  0  0  0  0  0  0  0  0  0
   -0.3093    3.1684   -3.0469 C   0  0  0  0  0  0  0  0  0  0  0  0
   -0.1820    4.1193   -2.5391 H   0  0  0  0  0  0  0  0  0  0  0  0
   -0.2759    1.9760   -2.3101 C   0  0  0  0  0  0  0  0  0  0  0  0
   -0.0898    2.0289   -1.2476 H   0  0  0  0  0  0  0  0  0  0  0  0
   -0.4626    0.7417   -2.9498 C   0  0  0  0  0  0  0  0  0  0  0  0
   -1.6279    0.4579    0.1710 C   0  0  0  0  0  0  0  0  0  0  0  0
   -2.7222    0.7601   -0.2933 O   0  0  0  0  0  0  0  0  0  0  0  0
   -1.0046    1.3417    1.0360 N   0  0  0  0  0  0  0  0  0  0  0  0
   -0.1683    1.0193    1.5143 H   0  0  0  0  0  0  0  0  0  0  0  0
   -1.5550    2.6470    1.3808 C   0  0  0  0  0  0  0  0  0  0  0  0
   -2.5172    2.5342    1.8912 H   0  0  0  0  0  0  0  0  0  0  0  0
   -0.8707    3.1818    2.0464 H   0  0  0  0  0  0  0  0  0  0  0  0
   -1.7024    3.2520    0.4798 H   0  0  0  0  0  0  0  0  0  0  0  0
  1  2  1  0  0  0  0
  2  3  1  0  0  0  0
  2  4  1  0  0  0  0
  2  5  1  0  0  0  0
  5  6  2  0  0  0  0
  5  7  1  0  0  0  0
  7  8  1  0  0  0  0
  7  9  1  0  0  0  0
  9 10  1  0  0  0  0
  9 11  1  0  0  0  0
  9 29  1  0  0  0  0
 11 12  1  0  0  0  0
 11 13  1  0  0  0  0
 11 14  1  0  0  0  0
 14 15  2  0  0  0  0
 14 28  1  0  0  0  0
 15 16  1  0  0  0  0
 15 17  1  0  0  0  0
 17 18  1  0  0  0  0
 17 19  1  0  0  0  0
 19 20  1  0  0  0  0
 19 28  2  0  0  0  0
 20 21  1  0  0  0  0
 20 22  2  0  0  0  0
 22 23  1  0  0  0  0
 22 24  1  0  0  0  0
 24 25  1  0  0  0  0
 24 26  2  0  0  0  0
 26 27  1  0  0  0  0
 26 28  1  0  0  0  0
 29 30  2  0  0  0  0
 29 31  1  0  0  0  0
 31 32  1  0  0  0  0
 31 33  1  0  0  0  0
 33 34  1  0  0  0  0
 33 35  1  0  0  0  0
 33 36  1  0  0  0  0
M  END
$$$$

  -OEChem-03222214083D

 36 37  0     1  0  0  0  0  0999 V2000
   -3.4798   -4.7056    1.4914 H   0  0  0  0  0  0  0  0  0  0  0  0
   -3.5715   -3.8672    0.7953 C   0  0  0  0  0  0  0  0  0  0  0  0
   -4.4008   -3.2322    1.1164 H   0  0  0  0  0  0  0  0  0  0  0  0
   -3.7857   -4.2583   -0.2021 H   0  0  0  0  0  0  0  0  0  0  0  0
   -2.2836   -3.0661    0.7704 C   0  0  0  0  0  0  0  0  0  0  0  0
   -1.3229   -3.4314    1.4293 O   0  0  0  0  0  0  0  0  0  0  0  0
   -2.1986   -1.9285   -0.0025 N   0  0  0  0  0  0  0  0  0  0  0  0
   -3.0519   -1.6017   -0.4548 H   0  0  0  0  0  0  0  0  0  0  0  0
   -1.0666   -0.9889    0.0032 C   0  0  1  0  0  0  0  0  0  0  0  0
   -0.5061   -1.1323    0.9321 H   0  0  0  0  0  0  0  0  0  0  0  0
   -0.1099   -1.3557   -1.1551 C   0  0  0  0  0  0  0  0  0  0  0  0
    0.9019   -1.0677   -0.8549 H   0  0  0  0  0  0  0  0  0  0  0  0
   -0.1016   -2.4432   -1.2832 H   0  0  0  0  0  0  0  0  0  0  0  0
   -0.3802   -0.6886   -2.4845 C   0  0  0  0  0  0  0  0  0  0  0  0
   -0.6720   -1.3907   -3.6302 C   0  0  0  0  0  0  0  0  0  0  0  0
   -0.8340   -2.4649   -3.6834 H   0  0  0  0  0  0  0  0  0  0  0  0
   -0.7303   -0.4902   -4.6887 N   0  0  0  0  0  0  0  0  0  0  0  0
   -0.9511   -0.7261   -5.6535 H   0  0  0  0  0  0  0  0  0  0  0  0
   -0.3938    0.7786   -4.2530 C   0  0  0  0  0  0  0  0  0  0  0  0
   -0.2651    1.9789   -4.9516 C   0  0  0  0  0  0  0  0  0  0  0  0
   -0.4799    2.0192   -6.0135 H   0  0  0  0  0  0  0  0  0  0  0  0
    0.1546    3.1258   -4.2656 C   0  0  0  0  0  0  0  0  0  0  0  0
    0.2584    4.0684   -4.7950 H   0  0  0  0  0  0  0  0  0  0  0  0
    0.4542    3.0524   -2.8979 C   0  0  0  0  0  0  0  0  0  0  0  0
    0.7936    3.9380   -2.3699 H   0  0  0  0  0  0  0  0  0  0  0  0
    0.3202    1.8383   -2.2097 C   0  0  0  0  0  0  0  0  0  0  0  0
    0.5746    1.7869   -1.1588 H   0  0  0  0  0  0  0  0  0  0  0  0
   -0.1340    0.7000   -2.8876 C   0  0  0  0  0  0  0  0  0  0  0  0
   -1.5848    0.4632    0.0459 C   0  0  0  0  0  0  0  0  0  0  0  0
   -2.6493    0.7520   -0.4914 O   0  0  0  0  0  0  0  0  0  0  0  0
   -1.0054    1.3812    0.9054 N   0  0  0  0  0  0  0  0  0  0  0  0
   -0.1963    1.0814    1.4413 H   0  0  0  0  0  0  0  0  0  0  0  0
   -1.5348    2.7231    1.1145 C   0  0  0  0  0  0  0  0  0  0  0  0
   -2.5356    2.6760    1.5565 H   0  0  0  0  0  0  0  0  0  0  0  0
   -0.8837    3.2861    1.7901 H   0  0  0  0  0  0  0  0  0  0  0  0
   -1.5944    3.2624    0.1631 H   0  0  0  0  0  0  0  0  0  0  0  0
  1  2  1  0  0  0  0
  2  3  1  0  0  0  0
  2  4  1  0  0  0  0
  2  5  1  0  0  0  0
  5  6  2  0  0  0  0
  5  7  1  0  0  0  0
  7  8  1  0  0  0  0
  7  9  1  0  0  0  0
  9 10  1  0  0  0  0
  9 11  1  0  0  0  0
  9 29  1  0  0  0  0
 11 12  1  0  0  0  0
 11 13  1  0  0  0  0
 11 14  1  0  0  0  0
 14 15  2  0  0  0  0
 14 28  1  0  0  0  0
 15 16  1  0  0  0  0
 15 17  1  0  0  0  0
 17 18  1  0  0  0  0
 17 19  1  0  0  0  0
 19 20  1  0  0  0  0
 19 28  2  0  0  0  0
 20 21  1  0  0  0  0
 20 22  2  0  0  0  0
 22 23  1  0  0  0  0
 22 24  1  0  0  0  0
 24 25  1  0  0  0  0
 24 26  2  0  0  0  0
 26 27  1  0  0  0  0
 26 28  1  0  0  0  0
 29 30  2  0  0  0  0
 29 31  1  0  0  0  0
 31 32  1  0  0  0  0
 31 33  1  0  0  0  0
 33 34  1  0  0  0  0
 33 35  1  0  0  0  0
 33 36  1  0  0  0  0
M  END
$$$$

  -OEChem-03222214083D

 36 37  0     1  0  0  0  0  0999 V2000
   -3.5899   -4.6065    1.4916 H   0  0  0  0  0  0  0  0  0  0  0  0
   -3.6363   -3.7862    0.7698 C   0  0  0  0  0  0  0  0  0  0  0  0
   -4.4517   -3.1154    1.0510 H   0  0  0  0  0  0  0  0  0  0  0  0
   -3.8386   -4.1996   -0.2212 H   0  0  0  0  0  0  0  0  0  0  0  0
   -2.3232   -3.0273    0.7553 C   0  0  0  0  0  0  0  0  0  0  0  0
   -1.3924   -3.4008    1.4513 O   0  0  0  0  0  0  0  0  0  0  0  0
   -2.1826   -1.9200   -0.0523 N   0  0  0  0  0  0  0  0  0  0  0  0
   -3.0171   -1.5773   -0.5269 H   0  0  0  0  0  0  0  0  0  0  0  0
   -1.0303   -1.0065   -0.0315 C   0  0  1  0  0  0  0  0  0  0  0  0
   -0.5127   -1.1346    0.9245 H   0  0  0  0  0  0  0  0  0  0  0  0
   -0.0278   -1.4042   -1.1357 C   0  0  0  0  0  0  0  0  0  0  0  0
    0.9803   -1.1378   -0.8040 H   0  0  0  0  0  0  0  0  0  0  0  0
   -0.0424   -2.4919   -1.2606 H   0  0  0  0  0  0  0  0  0  0  0  0
   -0.2637   -0.7378   -2.4680 C   0  0  0  0  0  0  0  0  0  0  0  0
   -0.8100   -1.3494   -3.5701 C   0  0  0  0  0  0  0  0  0  0  0  0
   -1.1874   -2.3687   -3.6022 H   0  0  0  0  0  0  0  0  0  0  0  0
   -0.7936   -0.4322   -4.6177 N   0  0  0  0  0  0  0  0  0  0  0  0
   -1.1582   -0.5986   -5.5528 H   0  0  0  0  0  0  0  0  0  0  0  0
   -0.2054    0.7534   -4.2096 C   0  0  0  0  0  0  0  0  0  0  0  0
    0.0525    1.9405   -4.8953 C   0  0  0  0  0  0  0  0  0  0  0  0
   -0.2403    2.0460   -5.9338 H   0  0  0  0  0  0  0  0  0  0  0  0
    0.6960    2.9901   -4.2256 C   0  0  0  0  0  0  0  0  0  0  0  0
    0.9013    3.9204   -4.7465 H   0  0  0  0  0  0  0  0  0  0  0  0
    1.0789    2.8377   -2.8845 C   0  0  0  0  0  0  0  0  0  0  0  0
    1.5829    3.6499   -2.3699 H   0  0  0  0  0  0  0  0  0  0  0  0
    0.8126    1.6398   -2.2061 C   0  0  0  0  0  0  0  0  0  0  0  0
    1.1121    1.5201   -1.1713 H   0  0  0  0  0  0  0  0  0  0  0  0
    0.1564    0.6007   -2.8756 C   0  0  0  0  0  0  0  0  0  0  0  0
   -1.5027    0.4631   -0.0590 C   0  0  0  0  0  0  0  0  0  0  0  0
   -2.5424    0.7599   -0.6397 O   0  0  0  0  0  0  0  0  0  0  0  0
   -0.9300    1.3940    0.7903 N   0  0  0  0  0  0  0  0  0  0  0  0
   -0.1285    1.1012    1.3409 H   0  0  0  0  0  0  0  0  0  0  0  0
   -1.4046    2.7676    0.9055 C   0  0  0  0  0  0  0  0  0  0  0  0
   -2.4374    2.7877    1.2692 H   0  0  0  0  0  0  0  0  0  0  0  0
   -0.7796    3.3261    1.6087 H   0  0  0  0  0  0  0  0  0  0  0  0
   -1.3629    3.2688   -0.0675 H   0  0  0  0  0  0  0  0  0  0  0  0
  1  2  1  0  0  0  0
  2  3  1  0  0  0  0
  2  4  1  0  0  0  0
  2  5  1  0  0  0  0
  5  6  2  0  0  0  0
  5  7  1  0  0  0  0
  7  8  1  0  0  0  0
  7  9  1  0  0  0  0
  9 10  1  0  0  0  0
  9 11  1  0  0  0  0
  9 29  1  0  0  0  0
 11 12  1  0  0  0  0
 11 13  1  0  0  0  0
 11 14  1  0  0  0  0
 14 15  2  0  0  0  0
 14 28  1  0  0  0  0
 15 16  1  0  0  0  0
 15 17  1  0  0  0  0
 17 18  1  0  0  0  0
 17 19  1  0  0  0  0
 19 20  1  0  0  0  0
 19 28  2  0  0  0  0
 20 21  1  0  0  0  0
 20 22  2  0  0  0  0
 22 23  1  0  0  0  0
 22 24  1  0  0  0  0
 24 25  1  0  0  0  0
 24 26  2  0  0  0  0
 26 27  1  0  0  0  0
 26 28  1  0  0  0  0
 29 30  2  0  0  0  0
 29 31  1  0  0  0  0
 31 32  1  0  0  0  0
 31 33  1  0  0  0  0
 33 34  1  0  0  0  0
 33 35  1  0  0  0  0
 33 36  1  0  0  0  0
M  END
$$$$

  -OEChem-03222214083D

 36 37  0     1  0  0  0  0  0999 V2000
   -3.6847   -4.5198    1.5186 H   0  0  0  0  0  0  0  0  0  0  0  0
   -3.6940   -3.7231    0.7695 C   0  0  0  0  0  0  0  0  0  0  0  0
   -4.4906   -3.0171    1.0165 H   0  0  0  0  0  0  0  0  0  0  0  0
   -3.8966   -4.1622   -0.2102 H   0  0  0  0  0  0  0  0  0  0  0  0
   -2.3561   -3.0085    0.7493 C   0  0  0  0  0  0  0  0  0  0  0  0
   -1.4474   -3.3892    1.4701 O   0  0  0  0  0  0  0  0  0  0  0  0
   -2.1705   -1.9286   -0.0861 N   0  0  0  0  0  0  0  0  0  0  0  0
   -2.9900   -1.5715   -0.5758 H   0  0  0  0  0  0  0  0  0  0  0  0
   -0.9969   -1.0418   -0.0610 C   0  0  1  0  0  0  0  0  0  0  0  0
   -0.5072   -1.1569    0.9111 H   0  0  0  0  0  0  0  0  0  0  0  0
    0.0316   -1.4665   -1.1283 C   0  0  0  0  0  0  0  0  0  0  0  0
    1.0375   -1.2213   -0.7748 H   0  0  0  0  0  0  0  0  0  0  0  0
   -0.0058   -2.5538   -1.2508 H   0  0  0  0  0  0  0  0  0  0  0  0
   -0.1770   -0.8020   -2.4641 C   0  0  0  0  0  0  0  0  0  0  0  0
   -0.9553   -1.2819   -3.4884 C   0  0  0  0  0  0  0  0  0  0  0  0
   -1.5301   -2.2046   -3.4641 H   0  0  0  0  0  0  0  0  0  0  0  0
   -0.8778   -0.3705   -4.5391 N   0  0  0  0  0  0  0  0  0  0  0  0
   -1.3761   -0.4478   -5.4226 H   0  0  0  0  0  0  0  0  0  0  0  0
   -0.0570    0.6922   -4.1971 C   0  0  0  0  0  0  0  0  0  0  0  0
    0.3169    1.8391   -4.8974 C   0  0  0  0  0  0  0  0  0  0  0  0
   -0.0582    2.0132   -5.8996 H   0  0  0  0  0  0  0  0  0  0  0  0
    1.1790    2.7615   -4.2878 C   0  0  0  0  0  0  0  0  0  0  0  0
    1.4769    3.6589   -4.8218 H   0  0  0  0  0  0  0  0  0  0  0  0
    1.6563    2.5269   -2.9892 C   0  0  0  0  0  0  0  0  0  0  0  0
    2.3238    3.2436   -2.5211 H   0  0  0  0  0  0  0  0  0  0  0  0
    1.2717    1.3716   -2.2941 C   0  0  0  0  0  0  0  0  0  0  0  0
    1.6360    1.1896   -1.2892 H   0  0  0  0  0  0  0  0  0  0  0  0
    0.4092    0.4574   -2.9088 C   0  0  0  0  0  0  0  0  0  0  0  0
   -1.4264    0.4395   -0.1414 C   0  0  0  0  0  0  0  0  0  0  0  0
   -2.4470    0.7457   -0.7513 O   0  0  0  0  0  0  0  0  0  0  0  0
   -0.8483    1.3772    0.6957 N   0  0  0  0  0  0  0  0  0  0  0  0
   -0.0413    1.0884    1.2401 H   0  0  0  0  0  0  0  0  0  0  0  0
   -1.2492    2.7781    0.7170 C   0  0  0  0  0  0  0  0  0  0  0  0
   -2.3044    2.8719    0.9944 H   0  0  0  0  0  0  0  0  0  0  0  0
   -0.6504    3.3315    1.4466 H   0  0  0  0  0  0  0  0  0  0  0  0
   -1.1014    3.2317   -0.2689 H   0  0  0  0  0  0  0  0  0  0  0  0
  1  2  1  0  0  0  0
  2  3  1  0  0  0  0
  2  4  1  0  0  0  0
  2  5  1  0  0  0  0
  5  6  2  0  0  0  0
  5  7  1  0  0  0  0
  7  8  1  0  0  0  0
  7  9  1  0  0  0  0
  9 10  1  0  0  0  0
  9 11  1  0  0  0  0
  9 29  1  0  0  0  0
 11 12  1  0  0  0  0
 11 13  1  0  0  0  0
 11 14  1  0  0  0  0
 14 15  2  0  0  0  0
 14 28  1  0  0  0  0
 15 16  1  0  0  0  0
 15 17  1  0  0  0  0
 17 18  1  0  0  0  0
 17 19  1  0  0  0  0
 19 20  1  0  0  0  0
 19 28  2  0  0  0  0
 20 21  1  0  0  0  0
 20 22  2  0  0  0  0
 22 23  1  0  0  0  0
 22 24  1  0  0  0  0
 24 25  1  0  0  0  0
 24 26  2  0  0  0  0
 26 27  1  0  0  0  0
 26 28  1  0  0  0  0
 29 30  2  0  0  0  0
 29 31  1  0  0  0  0
 31 32  1  0  0  0  0
 31 33  1  0  0  0  0
 33 34  1  0  0  0  0
 33 35  1  0  0  0  0
 33 36  1  0  0  0  0
M  END
$$$$

  -OEChem-03222214083D

 36 37  0     1  0  0  0  0  0999 V2000
   -3.7108   -4.4872    1.5495 H   0  0  0  0  0  0  0  0  0  0  0  0
   -3.7146   -3.7014    0.7889 C   0  0  0  0  0  0  0  0  0  0  0  0
   -4.4967   -2.9792    1.0354 H   0  0  0  0  0  0  0  0  0  0  0  0
   -3.9356   -4.1513   -0.1819 H   0  0  0  0  0  0  0  0  0  0  0  0
   -2.3645   -3.0105    0.7442 C   0  0  0  0  0  0  0  0  0  0  0  0
   -1.4539   -3.4028    1.4560 O   0  0  0  0  0  0  0  0  0  0  0  0
   -2.1717   -1.9369   -0.0988 N   0  0  0  0  0  0  0  0  0  0  0  0
   -2.9956   -1.5602   -0.5653 H   0  0  0  0  0  0  0  0  0  0  0  0
   -0.9891   -1.0612   -0.0759 C   0  0  1  0  0  0  0  0  0  0  0  0
   -0.5036   -1.1781    0.8982 H   0  0  0  0  0  0  0  0  0  0  0  0
    0.0420   -1.4905   -1.1383 C   0  0  0  0  0  0  0  0  0  0  0  0
    1.0457   -1.2513   -0.7757 H   0  0  0  0  0  0  0  0  0  0  0  0
    0.0015   -2.5773   -1.2649 H   0  0  0  0  0  0  0  0  0  0  0  0
   -0.1576   -0.8239   -2.4749 C   0  0  0  0  0  0  0  0  0  0  0  0
   -1.1362   -1.1255   -3.3901 C   0  0  0  0  0  0  0  0  0  0  0  0
   -1.8939   -1.8961   -3.2712 H   0  0  0  0  0  0  0  0  0  0  0  0
   -0.9845   -0.2595   -4.4707 N   0  0  0  0  0  0  0  0  0  0  0  0
   -1.5897   -0.2277   -5.2878 H   0  0  0  0  0  0  0  0  0  0  0  0
    0.0754    0.6051   -4.2507 C   0  0  0  0  0  0  0  0  0  0  0  0
    0.5997    1.6432   -5.0208 C   0  0  0  0  0  0  0  0  0  0  0  0
    0.1603    1.8857   -5.9819 H   0  0  0  0  0  0  0  0  0  0  0  0
    1.6970    2.3680   -4.5349 C   0  0  0  0  0  0  0  0  0  0  0  0
    2.1151    3.1786   -5.1244 H   0  0  0  0  0  0  0  0  0  0  0  0
    2.2548    2.0474   -3.2879 C   0  0  0  0  0  0  0  0  0  0  0  0
    3.1050    2.6100   -2.9147 H   0  0  0  0  0  0  0  0  0  0  0  0
    1.7179    1.0028   -2.5218 C   0  0  0  0  0  0  0  0  0  0  0  0
    2.1476    0.7541   -1.5577 H   0  0  0  0  0  0  0  0  0  0  0  0
    0.6231    0.2838   -3.0140 C   0  0  0  0  0  0  0  0  0  0  0  0
   -1.4012    0.4253   -0.1641 C   0  0  0  0  0  0  0  0  0  0  0  0
   -2.4225    0.7352   -0.7715 O   0  0  0  0  0  0  0  0  0  0  0  0
   -0.8156    1.3630    0.6681 N   0  0  0  0  0  0  0  0  0  0  0  0
    0.0042    1.0775    1.1948 H   0  0  0  0  0  0  0  0  0  0  0  0
   -1.2100    2.7661    0.6863 C   0  0  0  0  0  0  0  0  0  0  0  0
   -2.2659    2.8648    0.9595 H   0  0  0  0  0  0  0  0  0  0  0  0
   -0.6120    3.3179    1.4179 H   0  0  0  0  0  0  0  0  0  0  0  0
   -1.0566    3.2183   -0.2993 H   0  0  0  0  0  0  0  0  0  0  0  0
  1  2  1  0  0  0  0
  2  3  1  0  0  0  0
  2  4  1  0  0  0  0
  2  5  1  0  0  0  0
  5  6  2  0  0  0  0
  5  7  1  0  0  0  0
  7  8  1  0  0  0  0
  7  9  1  0  0  0  0
  9 10  1  0  0  0  0
  9 11  1  0  0  0  0
  9 29  1  0  0  0  0
 11 12  1  0  0  0  0
 11 13  1  0  0  0  0
 11 14  1  0  0  0  0
 14 15  2  0  0  0  0
 14 28  1  0  0  0  0
 15 16  1  0  0  0  0
 15 17  1  0  0  0  0
 17 18  1  0  0  0  0
 17 19  1  0  0  0  0
 19 20  1  0  0  0  0
 19 28  2  0  0  0  0
 20 21  1  0  0  0  0
 20 22  2  0  0  0  0
 22 23  1  0  0  0  0
 22 24  1  0  0  0  0
 24 25  1  0  0  0  0
 24 26  2  0  0  0  0
 26 27  1  0  0  0  0
 26 28  1  0  0  0  0
 29 30  2  0  0  0  0
 29 31  1  0  0  0  0
 31 32  1  0  0  0  0
 31 33  1  0  0  0  0
 33 34  1  0  0  0  0
 33 35  1  0  0  0  0
 33 36  1  0  0  0  0
M  END
$$$$

  -OEChem-03222214083D

 36 37  0     1  0  0  0  0  0999 V2000
   -3.6930   -4.4970    1.5578 H   0  0  0  0  0  0  0  0  0  0  0  0
   -3.7099   -3.7042    0.8047 C   0  0  0  0  0  0  0  0  0  0  0  0
   -4.4828   -2.9803    1.0742 H   0  0  0  0  0  0  0  0  0  0  0  0
   -3.9541   -4.1444   -0.1651 H   0  0  0  0  0  0  0  0  0  0  0  0
   -2.3581   -3.0189    0.7371 C   0  0  0  0  0  0  0  0  0  0  0  0
   -1.4343   -3.4209    1.4260 O   0  0  0  0  0  0  0  0  0  0  0  0
   -2.1801   -1.9364   -0.0976 N   0  0  0  0  0  0  0  0  0  0  0  0
   -3.0159   -1.5494   -0.5330 H   0  0  0  0  0  0  0  0  0  0  0  0
   -0.9990   -1.0580   -0.0771 C   0  0  1  0  0  0  0  0  0  0  0  0
   -0.5047   -1.1821    0.8919 H   0  0  0  0  0  0  0  0  0  0  0  0
    0.0277   -1.4730   -1.1502 C   0  0  0  0  0  0  0  0  0  0  0  0
    1.0264   -1.2246   -0.7809 H   0  0  0  0  0  0  0  0  0  0  0  0
    0.0007   -2.5593   -1.2837 H   0  0  0  0  0  0  0  0  0  0  0  0
   -0.1674   -0.8032   -2.4879 C   0  0  0  0  0  0  0  0  0  0  0  0
   -1.2857   -0.8837   -3.2821 C   0  0  0  0  0  0  0  0  0  0  0  0
   -2.1859   -1.4458   -3.0469 H   0  0  0  0  0  0  0  0  0  0  0  0
   -1.0610   -0.1001   -4.4110 N   0  0  0  0  0  0  0  0  0  0  0  0
   -1.7344    0.0611   -5.1565 H   0  0  0  0  0  0  0  0  0  0  0  0
    0.1906    0.4895   -4.3472 C   0  0  0  0  0  0  0  0  0  0  0  0
    0.8511    1.3551   -5.2191 C   0  0  0  0  0  0  0  0  0  0  0  0
    0.3718    1.6754   -6.1374 H   0  0  0  0  0  0  0  0  0  0  0  0
    2.1381    1.8039   -4.8919 C   0  0  0  0  0  0  0  0  0  0  0  0
    2.6638    2.4779   -5.5616 H   0  0  0  0  0  0  0  0  0  0  0  0
    2.7477    1.3829   -3.7006 C   0  0  0  0  0  0  0  0  0  0  0  0
    3.7455    1.7307   -3.4514 H   0  0  0  0  0  0  0  0  0  0  0  0
    2.0727    0.5149   -2.8304 C   0  0  0  0  0  0  0  0  0  0  0  0
    2.5451    0.1908   -1.9097 H   0  0  0  0  0  0  0  0  0  0  0  0
    0.7867    0.0720   -3.1621 C   0  0  0  0  0  0  0  0  0  0  0  0
   -1.4170    0.4273   -0.1445 C   0  0  0  0  0  0  0  0  0  0  0  0
   -2.4494    0.7376   -0.7334 O   0  0  0  0  0  0  0  0  0  0  0  0
   -0.8260    1.3572    0.6918 N   0  0  0  0  0  0  0  0  0  0  0  0
    0.0083    1.0719    1.1958 H   0  0  0  0  0  0  0  0  0  0  0  0
   -1.2372    2.7545    0.7460 C   0  0  0  0  0  0  0  0  0  0  0  0
   -2.2865    2.8353    1.0485 H   0  0  0  0  0  0  0  0  0  0  0  0
   -0.6267    3.3001    1.4718 H   0  0  0  0  0  0  0  0  0  0  0  0
   -1.1151    3.2263   -0.2347 H   0  0  0  0  0  0  0  0  0  0  0  0
  1  2  1  0  0  0  0
  2  3  1  0  0  0  0
  2  4  1  0  0  0  0
  2  5  1  0  0  0  0
  5  6  2  0  0  0  0
  5  7  1  0  0  0  0
  7  8  1  0  0  0  0
  7  9  1  0  0  0  0
  9 10  1  0  0  0  0
  9 11  1  0  0  0  0
  9 29  1  0  0  0  0
 11 12  1  0  0  0  0
 11 13  1  0  0  0  0
 11 14  1  0  0  0  0
 14 15  2  0  0  0  0
 14 28  1  0  0  0  0
 15 16  1  0  0  0  0
 15 17  1  0  0  0  0
 17 18  1  0  0  0  0
 17 19  1  0  0  0  0
 19 20  1  0  0  0  0
 19 28  2  0  0  0  0
 20 21  1  0  0  0  0
 20 22  2  0  0  0  0
 22 23  1  0  0  0  0
 22 24  1  0  0  0  0
 24 25  1  0  0  0  0
 24 26  2  0  0  0  0
 26 27  1  0  0  0  0
 26 28  1  0  0  0  0
 29 30  2  0  0  0  0
 29 31  1  0  0  0  0
 31 32  1  0  0  0  0
 31 33  1  0  0  0  0
 33 34  1  0  0  0  0
 33 35  1  0  0  0  0
 33 36  1  0  0  0  0
M  END
$$$$

  -OEChem-03222214083D

 36 37  0     1  0  0  0  0  0999 V2000
   -3.6217   -4.5685    1.4843 H   0  0  0  0  0  0  0  0  0  0  0  0
   -3.6732   -3.7316    0.7822 C   0  0  0  0  0  0  0  0  0  0  0  0
   -4.4560   -3.0439    1.1113 H   0  0  0  0  0  0  0  0  0  0  0  0
   -3.9278   -4.1174   -0.2078 H   0  0  0  0  0  0  0  0  0  0  0  0
   -2.3394   -3.0114    0.7288 C   0  0  0  0  0  0  0  0  0  0  0  0
   -1.4059   -3.4026    1.4108 O   0  0  0  0  0  0  0  0  0  0  0  0
   -2.1900   -1.9092   -0.0858 N   0  0  0  0  0  0  0  0  0  0  0  0
   -3.0361   -1.5352   -0.5114 H   0  0  0  0  0  0  0  0  0  0  0  0
   -1.0185   -1.0177   -0.0723 C   0  0  1  0  0  0  0  0  0  0  0  0
   -0.5099   -1.1548    0.8874 H   0  0  0  0  0  0  0  0  0  0  0  0
   -0.0003   -1.4157   -1.1615 C   0  0  0  0  0  0  0  0  0  0  0  0
    0.9913   -1.1412   -0.7917 H   0  0  0  0  0  0  0  0  0  0  0  0
   -0.0009   -2.5028   -1.2910 H   0  0  0  0  0  0  0  0  0  0  0  0
   -0.1914   -0.7558   -2.5080 C   0  0  0  0  0  0  0  0  0  0  0  0
   -1.3723   -0.5898   -3.1929 C   0  0  0  0  0  0  0  0  0  0  0  0
   -2.3531   -0.9037   -2.8442 H   0  0  0  0  0  0  0  0  0  0  0  0
   -1.0873    0.0734   -4.3831 N   0  0  0  0  0  0  0  0  0  0  0  0
   -1.7774    0.3635   -5.0721 H   0  0  0  0  0  0  0  0  0  0  0  0
    0.2690    0.3334   -4.4762 C   0  0  0  0  0  0  0  0  0  0  0  0
    1.0234    0.9698   -5.4619 C   0  0  0  0  0  0  0  0  0  0  0  0
    0.5414    1.3648   -6.3493 H   0  0  0  0  0  0  0  0  0  0  0  0
    2.4093    1.0897   -5.2900 C   0  0  0  0  0  0  0  0  0  0  0  0
    3.0095    1.5822   -6.0493 H   0  0  0  0  0  0  0  0  0  0  0  0
    3.0219    0.5720   -4.1389 C   0  0  0  0  0  0  0  0  0  0  0  0
    4.0961    0.6622   -4.0100 H   0  0  0  0  0  0  0  0  0  0  0  0
    2.2520   -0.0627   -3.1532 C   0  0  0  0  0  0  0  0  0  0  0  0
    2.7265   -0.4642   -2.2642 H   0  0  0  0  0  0  0  0  0  0  0  0
    0.8678   -0.1750   -3.3286 C   0  0  0  0  0  0  0  0  0  0  0  0
   -1.4421    0.4672   -0.0991 C   0  0  0  0  0  0  0  0  0  0  0  0
   -2.4896    0.7873   -0.6552 O   0  0  0  0  0  0  0  0  0  0  0  0
   -0.8352    1.3798    0.7446 N   0  0  0  0  0  0  0  0  0  0  0  0
    0.0027    1.0817    1.2353 H   0  0  0  0  0  0  0  0  0  0  0  0
   -1.2745    2.7632    0.8775 C   0  0  0  0  0  0  0  0  0  0  0  0
   -2.3016    2.8043    1.2548 H   0  0  0  0  0  0  0  0  0  0  0  0
   -0.6275    3.2992    1.5785 H   0  0  0  0  0  0  0  0  0  0  0  0
   -1.2330    3.2731   -0.0908 H   0  0  0  0  0  0  0  0  0  0  0  0
  1  2  1  0  0  0  0
  2  3  1  0  0  0  0
  2  4  1  0  0  0  0
  2  5  1  0  0  0  0
  5  6  2  0  0  0  0
  5  7  1  0  0  0  0
  7  8  1  0  0  0  0
  7  9  1  0  0  0  0
  9 10  1  0  0  0  0
  9 11  1  0  0  0  0
  9 29  1  0  0  0  0
 11 12  1  0  0  0  0
 11 13  1  0  0  0  0
 11 14  1  0  0  0  0
 14 15  2  0  0  0  0
 14 28  1  0  0  0  0
 15 16  1  0  0  0  0
 15 17  1  0  0  0  0
 17 18  1  0  0  0  0
 17 19  1  0  0  0  0
 19 20  1  0  0  0  0
 19 28  2  0  0  0  0
 20 21  1  0  0  0  0
 20 22  2  0  0  0  0
 22 23  1  0  0  0  0
 22 24  1  0  0  0  0
 24 25  1  0  0  0  0
 24 26  2  0  0  0  0
 26 27  1  0  0  0  0
 26 28  1  0  0  0  0
 29 30  2  0  0  0  0
 29 31  1  0  0  0  0
 31 32  1  0  0  0  0
 31 33  1  0  0  0  0
 33 34  1  0  0  0  0
 33 35  1  0  0  0  0
 33 36  1  0  0  0  0
M  END
$$$$

  -OEChem-03222214083D

 36 37  0     1  0  0  0  0  0999 V2000
   -3.5369   -4.6147    1.4367 H   0  0  0  0  0  0  0  0  0  0  0  0
   -3.6257   -3.7554    0.7662 C   0  0  0  0  0  0  0  0  0  0  0  0
   -4.4141   -3.0976    1.1396 H   0  0  0  0  0  0  0  0  0  0  0  0
   -3.8985   -4.1125   -0.2297 H   0  0  0  0  0  0  0  0  0  0  0  0
   -2.3098   -3.0034    0.7040 C   0  0  0  0  0  0  0  0  0  0  0  0
   -1.3535   -3.3908    1.3564 O   0  0  0  0  0  0  0  0  0  0  0  0
   -2.2030   -1.8756   -0.0822 N   0  0  0  0  0  0  0  0  0  0  0  0
   -3.0608   -1.5218   -0.5006 H   0  0  0  0  0  0  0  0  0  0  0  0
   -1.0439   -0.9683   -0.0867 C   0  0  1  0  0  0  0  0  0  0  0  0
   -0.5147   -1.1224    0.8591 H   0  0  0  0  0  0  0  0  0  0  0  0
   -0.0386   -1.3534   -1.1935 C   0  0  0  0  0  0  0  0  0  0  0  0
    0.9518   -1.0579   -0.8351 H   0  0  0  0  0  0  0  0  0  0  0  0
   -0.0220   -2.4414   -1.3120 H   0  0  0  0  0  0  0  0  0  0  0  0
   -0.2301   -0.7163   -2.5523 C   0  0  0  0  0  0  0  0  0  0  0  0
   -1.3965   -0.2994   -3.1523 C   0  0  0  0  0  0  0  0  0  0  0  0
   -2.3925   -0.3654   -2.7208 H   0  0  0  0  0  0  0  0  0  0  0  0
   -1.0729    0.2308   -4.3981 N   0  0  0  0  0  0  0  0  0  0  0  0
   -1.7376    0.6397   -5.0511 H   0  0  0  0  0  0  0  0  0  0  0  0
    0.2917    0.1531   -4.6153 C   0  0  0  0  0  0  0  0  0  0  0  0
    1.0831    0.5472   -5.6942 C   0  0  0  0  0  0  0  0  0  0  0  0
    0.6295    1.0112   -6.5630 H   0  0  0  0  0  0  0  0  0  0  0  0
    2.4675    0.3341   -5.6393 C   0  0  0  0  0  0  0  0  0  0  0  0
    3.0958    0.6345   -6.4725 H   0  0  0  0  0  0  0  0  0  0  0  0
    3.0416   -0.2694   -4.5100 C   0  0  0  0  0  0  0  0  0  0  0  0
    4.1137   -0.4366   -4.4715 H   0  0  0  0  0  0  0  0  0  0  0  0
    2.2354   -0.6582   -3.4301 C   0  0  0  0  0  0  0  0  0  0  0  0
    2.6781   -1.1262   -2.5572 H   0  0  0  0  0  0  0  0  0  0  0  0
    0.8543   -0.4384   -3.4901 C   0  0  0  0  0  0  0  0  0  0  0  0
   -1.4630    0.5178   -0.0548 C   0  0  0  0  0  0  0  0  0  0  0  0
   -2.5308    0.8592   -0.5565 O   0  0  0  0  0  0  0  0  0  0  0  0
   -0.8203    1.4026    0.7922 N   0  0  0  0  0  0  0  0  0  0  0  0
    0.0249    1.0814    1.2556 H   0  0  0  0  0  0  0  0  0  0  0  0
   -1.2687    2.7714    1.0161 C   0  0  0  0  0  0  0  0  0  0  0  0
   -2.2646    2.7783    1.4714 H   0  0  0  0  0  0  0  0  0  0  0  0
   -0.5782    3.2898    1.6881 H   0  0  0  0  0  0  0  0  0  0  0  0
   -1.3083    3.3216    0.0700 H   0  0  0  0  0  0  0  0  0  0  0  0
  1  2  1  0  0  0  0
  2  3  1  0  0  0  0
  2  4  1  0  0  0  0
  2  5  1  0  0  0  0
  5  6  2  0  0  0  0
  5  7  1  0  0  0  0
  7  8  1  0  0  0  0
  7  9  1  0  0  0  0
  9 10  1  0  0  0  0
  9 11  1  0  0  0  0
  9 29  1  0  0  0  0
 11 12  1  0  0  0  0
 11 13  1  0  0  0  0
 11 14  1  0  0  0  0
 14 15  2  0  0  0  0
 14 28  1  0  0  0  0
 15 16  1  0  0  0  0
 15 17  1  0  0  0  0
 17 18  1  0  0  0  0
 17 19  1  0  0  0  0
 19 20  1  0  0  0  0
 19 28  2  0  0  0  0
 20 21  1  0  0  0  0
 20 22  2  0  0  0  0
 22 23  1  0  0  0  0
 22 24  1  0  0  0  0
 24 25  1  0  0  0  0
 24 26  2  0  0  0  0
 26 27  1  0  0  0  0
 26 28  1  0  0  0  0
 29 30  2  0  0  0  0
 29 31  1  0  0  0  0
 31 32  1  0  0  0  0
 31 33  1  0  0  0  0
 33 34  1  0  0  0  0
 33 35  1  0  0  0  0
 33 36  1  0  0  0  0
M  END
$$$$

  -OEChem-03222214083D

 36 37  0     1  0  0  0  0  0999 V2000
   -3.4792   -4.6431    1.4251 H   0  0  0  0  0  0  0  0  0  0  0  0
   -3.5918   -3.7848    0.7569 C   0  0  0  0  0  0  0  0  0  0  0  0
   -4.3924   -3.1454    1.1365 H   0  0  0  0  0  0  0  0  0  0  0  0
   -3.8631   -4.1462   -0.2378 H   0  0  0  0  0  0  0  0  0  0  0  0
   -2.2933   -3.0036    0.6869 C   0  0  0  0  0  0  0  0  0  0  0  0
   -1.3135   -3.3923    1.3027 O   0  0  0  0  0  0  0  0  0  0  0  0
   -2.2265   -1.8518   -0.0685 N   0  0  0  0  0  0  0  0  0  0  0  0
   -3.0955   -1.5128   -0.4756 H   0  0  0  0  0  0  0  0  0  0  0  0
   -1.0744   -0.9365   -0.1056 C   0  0  1  0  0  0  0  0  0  0  0  0
   -0.5164   -1.1115    0.8202 H   0  0  0  0  0  0  0  0  0  0  0  0
   -0.0914   -1.3095   -1.2373 C   0  0  0  0  0  0  0  0  0  0  0  0
    0.9046   -1.0062   -0.9001 H   0  0  0  0  0  0  0  0  0  0  0  0
   -0.0708   -2.3987   -1.3470 H   0  0  0  0  0  0  0  0  0  0  0  0
   -0.2924   -0.6926   -2.6068 C   0  0  0  0  0  0  0  0  0  0  0  0
   -1.3764   -0.0334   -3.1450 C   0  0  0  0  0  0  0  0  0  0  0  0
   -2.3331    0.1379   -2.6601 H   0  0  0  0  0  0  0  0  0  0  0  0
   -1.0400    0.3696   -4.4347 N   0  0  0  0  0  0  0  0  0  0  0  0
   -1.6488    0.8893   -5.0632 H   0  0  0  0  0  0  0  0  0  0  0  0
    0.2499   -0.0232   -4.7423 C   0  0  0  0  0  0  0  0  0  0  0  0
    1.0250    0.1462   -5.8896 C   0  0  0  0  0  0  0  0  0  0  0  0
    0.6225    0.6725   -6.7479 H   0  0  0  0  0  0  0  0  0  0  0  0
    2.3275   -0.3718   -5.9163 C   0  0  0  0  0  0  0  0  0  0  0  0
    2.9434   -0.2464   -6.8020 H   0  0  0  0  0  0  0  0  0  0  0  0
    2.8357   -1.0531   -4.7997 C   0  0  0  0  0  0  0  0  0  0  0  0
    3.8439   -1.4553   -4.8237 H   0  0  0  0  0  0  0  0  0  0  0  0
    2.0460   -1.2172   -3.6524 C   0  0  0  0  0  0  0  0  0  0  0  0
    2.4355   -1.7468   -2.7892 H   0  0  0  0  0  0  0  0  0  0  0  0
    0.7486   -0.6926   -3.6315 C   0  0  0  0  0  0  0  0  0  0  0  0
   -1.4742    0.5514   -0.0112 C   0  0  0  0  0  0  0  0  0  0  0  0
   -2.5626    0.9206   -0.4418 O   0  0  0  0  0  0  0  0  0  0  0  0
   -0.7780    1.4049    0.8258 N   0  0  0  0  0  0  0  0  0  0  0  0
    0.0827    1.0594    1.2406 H   0  0  0  0  0  0  0  0  0  0  0  0
   -1.1981    2.7715    1.1111 C   0  0  0  0  0  0  0  0  0  0  0  0
   -2.1803    2.7778    1.5949 H   0  0  0  0  0  0  0  0  0  0  0  0
   -0.4808    3.2553    1.7808 H   0  0  0  0  0  0  0  0  0  0  0  0
   -1.2560    3.3552    0.1864 H   0  0  0  0  0  0  0  0  0  0  0  0
  1  2  1  0  0  0  0
  2  3  1  0  0  0  0
  2  4  1  0  0  0  0
  2  5  1  0  0  0  0
  5  6  2  0  0  0  0
  5  7  1  0  0  0  0
  7  8  1  0  0  0  0
  7  9  1  0  0  0  0
  9 10  1  0  0  0  0
  9 11  1  0  0  0  0
  9 29  1  0  0  0  0
 11 12  1  0  0  0  0
 11 13  1  0  0  0  0
 11 14  1  0  0  0  0
 14 15  2  0  0  0  0
 14 28  1  0  0  0  0
 15 16  1  0  0  0  0
 15 17  1  0  0  0  0
 17 18  1  0  0  0  0
 17 19  1  0  0  0  0
 19 20  1  0  0  0  0
 19 28  2  0  0  0  0
 20 21  1  0  0  0  0
 20 22  2  0  0  0  0
 22 23  1  0  0  0  0
 22 24  1  0  0  0  0
 24 25  1  0  0  0  0
 24 26  2  0  0  0  0
 26 27  1  0  0  0  0
 26 28  1  0  0  0  0
 29 30  2  0  0  0  0
 29 31  1  0  0  0  0
 31 32  1  0  0  0  0
 31 33  1  0  0  0  0
 33 34  1  0  0  0  0
 33 35  1  0  0  0  0
 33 36  1  0  0  0  0
M  END
$$$$

  -OEChem-03222214083D

 36 37  0     1  0  0  0  0  0999 V2000
   -3.4184   -4.7023    1.3276 H   0  0  0  0  0  0  0  0  0  0  0  0
   -3.5552   -3.8248    0.6894 C   0  0  0  0  0  0  0  0  0  0  0  0
   -4.3630   -3.2140    1.0999 H   0  0  0  0  0  0  0  0  0  0  0  0
   -3.8325   -4.1582   -0.3136 H   0  0  0  0  0  0  0  0  0  0  0  0
   -2.2726   -3.0171    0.6296 C   0  0  0  0  0  0  0  0  0  0  0  0
   -1.2779   -3.4067    1.2207 O   0  0  0  0  0  0  0  0  0  0  0  0
   -2.2365   -1.8414   -0.0903 N   0  0  0  0  0  0  0  0  0  0  0  0
   -3.1136   -1.5119   -0.4888 H   0  0  0  0  0  0  0  0  0  0  0  0
   -1.0994   -0.9079   -0.1239 C   0  0  1  0  0  0  0  0  0  0  0  0
   -0.5291   -1.0984    0.7911 H   0  0  0  0  0  0  0  0  0  0  0  0
   -0.1199   -1.2526   -1.2684 C   0  0  0  0  0  0  0  0  0  0  0  0
    0.8783   -0.9520   -0.9354 H   0  0  0  0  0  0  0  0  0  0  0  0
   -0.0994   -2.3413   -1.3849 H   0  0  0  0  0  0  0  0  0  0  0  0
   -0.3150   -0.6380   -2.6416 C   0  0  0  0  0  0  0  0  0  0  0  0
   -1.2581    0.2366   -3.1400 C   0  0  0  0  0  0  0  0  0  0  0  0
   -2.1142    0.6440   -2.6130 H   0  0  0  0  0  0  0  0  0  0  0  0
   -0.9385    0.5084   -4.4679 N   0  0  0  0  0  0  0  0  0  0  0  0
   -1.4645    1.1261   -5.0824 H   0  0  0  0  0  0  0  0  0  0  0  0
    0.2015   -0.1786   -4.8414 C   0  0  0  0  0  0  0  0  0  0  0  0
    0.9059   -0.2300   -6.0443 C   0  0  0  0  0  0  0  0  0  0  0  0
    0.5692    0.3451   -6.8998 H   0  0  0  0  0  0  0  0  0  0  0  0
    2.0518   -1.0331   -6.1302 C   0  0  0  0  0  0  0  0  0  0  0  0
    2.6104   -1.0826   -7.0602 H   0  0  0  0  0  0  0  0  0  0  0  0
    2.4764   -1.7736   -5.0162 C   0  0  0  0  0  0  0  0  0  0  0  0
    3.3630   -2.3963   -5.0857 H   0  0  0  0  0  0  0  0  0  0  0  0
    1.7592   -1.7125   -3.8127 C   0  0  0  0  0  0  0  0  0  0  0  0
    2.0837   -2.2854   -2.9503 H   0  0  0  0  0  0  0  0  0  0  0  0
    0.6180   -0.9061   -3.7339 C   0  0  0  0  0  0  0  0  0  0  0  0
   -1.5153    0.5700    0.0243 C   0  0  0  0  0  0  0  0  0  0  0  0
   -2.6190    0.9372   -0.3670 O   0  0  0  0  0  0  0  0  0  0  0  0
   -0.8120    1.4074    0.8716 N   0  0  0  0  0  0  0  0  0  0  0  0
    0.0538    1.0548    1.2700 H   0  0  0  0  0  0  0  0  0  0  0  0
   -1.2515    2.7525    1.2226 C   0  0  0  0  0  0  0  0  0  0  0  0
   -2.2116    2.7172    1.7483 H   0  0  0  0  0  0  0  0  0  0  0  0
   -0.5166    3.2313    1.8770 H   0  0  0  0  0  0  0  0  0  0  0  0
   -1.3640    3.3661    0.3225 H   0  0  0  0  0  0  0  0  0  0  0  0
  1  2  1  0  0  0  0
  2  3  1  0  0  0  0
  2  4  1  0  0  0  0
  2  5  1  0  0  0  0
  5  6  2  0  0  0  0
  5  7  1  0  0  0  0
  7  8  1  0  0  0  0
  7  9  1  0  0  0  0
  9 10  1  0  0  0  0
  9 11  1  0  0  0  0
  9 29  1  0  0  0  0
 11 12  1  0  0  0  0
 11 13  1  0  0  0  0
 11 14  1  0  0  0  0
 14 15  2  0  0  0  0
 14 28  1  0  0  0  0
 15 16  1  0  0  0  0
 15 17  1  0  0  0  0
 17 18  1  0  0  0  0
 17 19  1  0  0  0  0
 19 20  1  0  0  0  0
 19 28  2  0  0  0  0
 20 21  1  0  0  0  0
 20 22  2  0  0  0  0
 22 23  1  0  0  0  0
 22 24  1  0  0  0  0
 24 25  1  0  0  0  0
 24 26  2  0  0  0  0
 26 27  1  0  0  0  0
 26 28  1  0  0  0  0
 29 30  2  0  0  0  0
 29 31  1  0  0  0  0
 31 32  1  0  0  0  0
 31 33  1  0  0  0  0
 33 34  1  0  0  0  0
 33 35  1  0  0  0  0
 33 36  1  0  0  0  0
M  END
$$$$

  -OEChem-03222214083D

 36 37  0     1  0  0  0  0  0999 V2000
   -3.5135   -4.6356    1.2186 H   0  0  0  0  0  0  0  0  0  0  0  0
   -3.6162   -3.7376    0.6029 C   0  0  0  0  0  0  0  0  0  0  0  0
   -4.4190   -3.1198    1.0125 H   0  0  0  0  0  0  0  0  0  0  0  0
   -3.8781   -4.0364   -0.4151 H   0  0  0  0  0  0  0  0  0  0  0  0
   -2.3151   -2.9577    0.5953 C   0  0  0  0  0  0  0  0  0  0  0  0
   -1.3446   -3.3821    1.2027 O   0  0  0  0  0  0  0  0  0  0  0  0
   -2.2345   -1.7673   -0.0960 N   0  0  0  0  0  0  0  0  0  0  0  0
   -3.0867   -1.4196   -0.5313 H   0  0  0  0  0  0  0  0  0  0  0  0
   -1.0658   -0.8727   -0.1114 C   0  0  1  0  0  0  0  0  0  0  0  0
   -0.4969   -1.1028    0.7952 H   0  0  0  0  0  0  0  0  0  0  0  0
   -0.1127   -1.2373   -1.2737 C   0  0  0  0  0  0  0  0  0  0  0  0
    0.9041   -0.9963   -0.9487 H   0  0  0  0  0  0  0  0  0  0  0  0
   -0.1524   -2.3237   -1.4031 H   0  0  0  0  0  0  0  0  0  0  0  0
   -0.2857   -0.5971   -2.6403 C   0  0  0  0  0  0  0  0  0  0  0  0
   -0.9981    0.5022   -3.0757 C   0  0  0  0  0  0  0  0  0  0  0  0
   -1.6240    1.1582   -2.4810 H   0  0  0  0  0  0  0  0  0  0  0  0
   -0.7845    0.6443   -4.4443 N   0  0  0  0  0  0  0  0  0  0  0  0
   -1.1951    1.3691   -5.0289 H   0  0  0  0  0  0  0  0  0  0  0  0
    0.0621   -0.3447   -4.9075 C   0  0  0  0  0  0  0  0  0  0  0  0
    0.5656   -0.6182   -6.1794 C   0  0  0  0  0  0  0  0  0  0  0  0
    0.2922    0.0080   -7.0214 H   0  0  0  0  0  0  0  0  0  0  0  0
    1.4275   -1.7101   -6.3524 C   0  0  0  0  0  0  0  0  0  0  0  0
    1.8278   -1.9352   -7.3365 H   0  0  0  0  0  0  0  0  0  0  0  0
    1.7729   -2.5127   -5.2546 C   0  0  0  0  0  0  0  0  0  0  0  0
    2.4405   -3.3582   -5.3894 H   0  0  0  0  0  0  0  0  0  0  0  0
    1.2578   -2.2280   -3.9818 C   0  0  0  0  0  0  0  0  0  0  0  0
    1.5237   -2.8493   -3.1329 H   0  0  0  0  0  0  0  0  0  0  0  0
    0.3972   -1.1359   -3.8163 C   0  0  0  0  0  0  0  0  0  0  0  0
   -1.4362    0.6122    0.0716 C   0  0  0  0  0  0  0  0  0  0  0  0
   -2.5176    1.0295   -0.3312 O   0  0  0  0  0  0  0  0  0  0  0  0
   -0.7067    1.4082    0.9367 N   0  0  0  0  0  0  0  0  0  0  0  0
    0.1270    1.0056    1.3559 H   0  0  0  0  0  0  0  0  0  0  0  0
   -1.1154    2.7498    1.3355 C   0  0  0  0  0  0  0  0  0  0  0  0
   -2.0594    2.7135    1.8894 H   0  0  0  0  0  0  0  0  0  0  0  0
   -0.3536    3.2011    1.9786 H   0  0  0  0  0  0  0  0  0  0  0  0
   -1.2460    3.3891    0.4560 H   0  0  0  0  0  0  0  0  0  0  0  0
  1  2  1  0  0  0  0
  2  3  1  0  0  0  0
  2  4  1  0  0  0  0
  2  5  1  0  0  0  0
  5  6  2  0  0  0  0
  5  7  1  0  0  0  0
  7  8  1  0  0  0  0
  7  9  1  0  0  0  0
  9 10  1  0  0  0  0
  9 11  1  0  0  0  0
  9 29  1  0  0  0  0
 11 12  1  0  0  0  0
 11 13  1  0  0  0  0
 11 14  1  0  0  0  0
 14 15  2  0  0  0  0
 14 28  1  0  0  0  0
 15 16  1  0  0  0  0
 15 17  1  0  0  0  0
 17 18  1  0  0  0  0
 17 19  1  0  0  0  0
 19 20  1  0  0  0  0
 19 28  2  0  0  0  0
 20 21  1  0  0  0  0
 20 22  2  0  0  0  0
 22 23  1  0  0  0  0
 22 24  1  0  0  0  0
 24 25  1  0  0  0  0
 24 26  2  0  0  0  0
 26 27  1  0  0  0  0
 26 28  1  0  0  0  0
 29 30  2  0  0  0  0
 29 31  1  0  0  0  0
 31 32  1  0  0  0  0
 31 33  1  0  0  0  0
 33 34  1  0  0  0  0
 33 35  1  0  0  0  0
 33 36  1  0  0  0  0
M  END
$$$$

  -OEChem-03222214083D

 36 37  0     1  0  0  0  0  0999 V2000
   -3.5628   -4.6449    1.1361 H   0  0  0  0  0  0  0  0  0  0  0  0
   -3.6296   -3.7544    0.5048 C   0  0  0  0  0  0  0  0  0  0  0  0
   -4.4610   -3.1374    0.8538 H   0  0  0  0  0  0  0  0  0  0  0  0
   -3.8226   -4.0659   -0.5245 H   0  0  0  0  0  0  0  0  0  0  0  0
   -2.3351   -2.9665    0.5730 C   0  0  0  0  0  0  0  0  0  0  0  0
   -1.4005   -3.3824    1.2397 O   0  0  0  0  0  0  0  0  0  0  0  0
   -2.2183   -1.7797   -0.1189 N   0  0  0  0  0  0  0  0  0  0  0  0
   -3.0376   -1.4464   -0.6235 H   0  0  0  0  0  0  0  0  0  0  0  0
   -1.0466   -0.8903   -0.0904 C   0  0  1  0  0  0  0  0  0  0  0  0
   -0.5034   -1.1202    0.8318 H   0  0  0  0  0  0  0  0  0  0  0  0
   -0.0704   -1.2610   -1.2335 C   0  0  0  0  0  0  0  0  0  0  0  0
    0.9439   -1.0366   -0.8899 H   0  0  0  0  0  0  0  0  0  0  0  0
   -0.1225   -2.3461   -1.3653 H   0  0  0  0  0  0  0  0  0  0  0  0
   -0.2154   -0.6057   -2.5976 C   0  0  0  0  0  0  0  0  0  0  0  0
   -0.6844    0.6361   -2.9765 C   0  0  0  0  0  0  0  0  0  0  0  0
   -1.0564    1.4221   -2.3263 H   0  0  0  0  0  0  0  0  0  0  0  0
   -0.5962    0.7307   -4.3625 N   0  0  0  0  0  0  0  0  0  0  0  0
   -0.8898    1.5338   -4.9144 H   0  0  0  0  0  0  0  0  0  0  0  0
   -0.0683   -0.4306   -4.8935 C   0  0  0  0  0  0  0  0  0  0  0  0
    0.2091   -0.8057   -6.2082 C   0  0  0  0  0  0  0  0  0  0  0  0
    0.0015   -0.1250   -7.0261 H   0  0  0  0  0  0  0  0  0  0  0  0
    0.7585   -2.0709   -6.4556 C   0  0  0  0  0  0  0  0  0  0  0  0
    0.9794   -2.3775   -7.4737 H   0  0  0  0  0  0  0  0  0  0  0  0
    1.0247   -2.9410   -5.3880 C   0  0  0  0  0  0  0  0  0  0  0  0
    1.4521   -3.9204   -5.5809 H   0  0  0  0  0  0  0  0  0  0  0  0
    0.7410   -2.5510   -4.0711 C   0  0  0  0  0  0  0  0  0  0  0  0
    0.9508   -3.2258   -3.2481 H   0  0  0  0  0  0  0  0  0  0  0  0
    0.1875   -1.2871   -3.8296 C   0  0  0  0  0  0  0  0  0  0  0  0
   -1.4321    0.5925    0.0704 C   0  0  0  0  0  0  0  0  0  0  0  0
   -2.4701    1.0188   -0.4255 O   0  0  0  0  0  0  0  0  0  0  0  0
   -0.7457    1.3976    0.9620 N   0  0  0  0  0  0  0  0  0  0  0  0
    0.0452    0.9880    1.4514 H   0  0  0  0  0  0  0  0  0  0  0  0
   -1.1618    2.7513    1.3089 C   0  0  0  0  0  0  0  0  0  0  0  0
   -2.1507    2.7406    1.7795 H   0  0  0  0  0  0  0  0  0  0  0  0
   -0.4505    3.1977    2.0106 H   0  0  0  0  0  0  0  0  0  0  0  0
   -1.2036    3.3806    0.4137 H   0  0  0  0  0  0  0  0  0  0  0  0
  1  2  1  0  0  0  0
  2  3  1  0  0  0  0
  2  4  1  0  0  0  0
  2  5  1  0  0  0  0
  5  6  2  0  0  0  0
  5  7  1  0  0  0  0
  7  8  1  0  0  0  0
  7  9  1  0  0  0  0
  9 10  1  0  0  0  0
  9 11  1  0  0  0  0
  9 29  1  0  0  0  0
 11 12  1  0  0  0  0
 11 13  1  0  0  0  0
 11 14  1  0  0  0  0
 14 15  2  0  0  0  0
 14 28  1  0  0  0  0
 15 16  1  0  0  0  0
 15 17  1  0  0  0  0
 17 18  1  0  0  0  0
 17 19  1  0  0  0  0
 19 20  1  0  0  0  0
 19 28  2  0  0  0  0
 20 21  1  0  0  0  0
 20 22  2  0  0  0  0
 22 23  1  0  0  0  0
 22 24  1  0  0  0  0
 24 25  1  0  0  0  0
 24 26  2  0  0  0  0
 26 27  1  0  0  0  0
 26 28  1  0  0  0  0
 29 30  2  0  0  0  0
 29 31  1  0  0  0  0
 31 32  1  0  0  0  0
 31 33  1  0  0  0  0
 33 34  1  0  0  0  0
 33 35  1  0  0  0  0
 33 36  1  0  0  0  0
M  END
$$$$

  -OEChem-03222214083D

 36 37  0     1  0  0  0  0  0999 V2000
   -3.6365   -4.6117    1.1143 H   0  0  0  0  0  0  0  0  0  0  0  0
   -3.6614   -3.7391    0.4558 C   0  0  0  0  0  0  0  0  0  0  0  0
   -4.5110   -3.1112    0.7348 H   0  0  0  0  0  0  0  0  0  0  0  0
   -3.7905   -4.0790   -0.5746 H   0  0  0  0  0  0  0  0  0  0  0  0
   -2.3710   -2.9519    0.5826 C   0  0  0  0  0  0  0  0  0  0  0  0
   -1.4779   -3.3551    1.3110 O   0  0  0  0  0  0  0  0  0  0  0  0
   -2.2068   -1.7861   -0.1342 N   0  0  0  0  0  0  0  0  0  0  0  0
   -2.9895   -1.4676   -0.7029 H   0  0  0  0  0  0  0  0  0  0  0  0
   -1.0273   -0.9093   -0.0760 C   0  0  1  0  0  0  0  0  0  0  0  0
   -0.5185   -1.1241    0.8690 H   0  0  0  0  0  0  0  0  0  0  0  0
   -0.0252   -1.3140   -1.1831 C   0  0  0  0  0  0  0  0  0  0  0  0
    0.9816   -1.0856   -0.8204 H   0  0  0  0  0  0  0  0  0  0  0  0
   -0.0726   -2.4003   -1.2991 H   0  0  0  0  0  0  0  0  0  0  0  0
   -0.1498   -0.6594   -2.5474 C   0  0  0  0  0  0  0  0  0  0  0  0
   -0.3438    0.6632   -2.8866 C   0  0  0  0  0  0  0  0  0  0  0  0
   -0.4450    1.4983   -2.1980 H   0  0  0  0  0  0  0  0  0  0  0  0
   -0.3907    0.7525   -4.2750 N   0  0  0  0  0  0  0  0  0  0  0  0
   -0.5517    1.6077   -4.8023 H   0  0  0  0  0  0  0  0  0  0  0  0
   -0.2266   -0.4964   -4.8442 C   0  0  0  0  0  0  0  0  0  0  0  0
   -0.2025   -0.9092   -6.1765 C   0  0  0  0  0  0  0  0  0  0  0  0
   -0.3282   -0.1866   -6.9752 H   0  0  0  0  0  0  0  0  0  0  0  0
   -0.0140   -2.2672   -6.4670 C   0  0  0  0  0  0  0  0  0  0  0  0
    0.0071   -2.6036   -7.4993 H   0  0  0  0  0  0  0  0  0  0  0  0
    0.1470   -3.1919   -5.4248 C   0  0  0  0  0  0  0  0  0  0  0  0
    0.2938   -4.2435   -5.6510 H   0  0  0  0  0  0  0  0  0  0  0  0
    0.1191   -2.7639   -4.0897 C   0  0  0  0  0  0  0  0  0  0  0  0
    0.2440   -3.4830   -3.2872 H   0  0  0  0  0  0  0  0  0  0  0  0
   -0.0705   -1.4055   -3.8042 C   0  0  0  0  0  0  0  0  0  0  0  0
   -1.4011    0.5815    0.0265 C   0  0  0  0  0  0  0  0  0  0  0  0
   -2.3810    1.0210   -0.5650 O   0  0  0  0  0  0  0  0  0  0  0  0
   -0.7456    1.4020    0.9275 N   0  0  0  0  0  0  0  0  0  0  0  0
   -0.0126    0.9843    1.4942 H   0  0  0  0  0  0  0  0  0  0  0  0
   -1.1556    2.7723    1.2100 C   0  0  0  0  0  0  0  0  0  0  0  0
   -2.1750    2.7938    1.6095 H   0  0  0  0  0  0  0  0  0  0  0  0
   -0.4857    3.2217    1.9494 H   0  0  0  0  0  0  0  0  0  0  0  0
   -1.1207    3.3792    0.2990 H   0  0  0  0  0  0  0  0  0  0  0  0
  1  2  1  0  0  0  0
  2  3  1  0  0  0  0
  2  4  1  0  0  0  0
  2  5  1  0  0  0  0
  5  6  2  0  0  0  0
  5  7  1  0  0  0  0
  7  8  1  0  0  0  0
  7  9  1  0  0  0  0
  9 10  1  0  0  0  0
  9 11  1  0  0  0  0
  9 29  1  0  0  0  0
 11 12  1  0  0  0  0
 11 13  1  0  0  0  0
 11 14  1  0  0  0  0
 14 15  2  0  0  0  0
 14 28  1  0  0  0  0
 15 16  1  0  0  0  0
 15 17  1  0  0  0  0
 17 18  1  0  0  0  0
 17 19  1  0  0  0  0
 19 20  1  0  0  0  0
 19 28  2  0  0  0  0
 20 21  1  0  0  0  0
 20 22  2  0  0  0  0
 22 23  1  0  0  0  0
 22 24  1  0  0  0  0
 24 25  1  0  0  0  0
 24 26  2  0  0  0  0
 26 27  1  0  0  0  0
 26 28  1  0  0  0  0
 29 30  2  0  0  0  0
 29 31  1  0  0  0  0
 31 32  1  0  0  0  0
 31 33  1  0  0  0  0
 33 34  1  0  0  0  0
 33 35  1  0  0  0  0
 33 36  1  0  0  0  0
M  END
$$$$

  -OEChem-03222214083D

 36 37  0     1  0  0  0  0  0999 V2000
   -3.7010   -4.5782    1.1312 H   0  0  0  0  0  0  0  0  0  0  0  0
   -3.6920   -3.7232    0.4495 C   0  0  0  0  0  0  0  0  0  0  0  0
   -4.5468   -3.0820    0.6772 H   0  0  0  0  0  0  0  0  0  0  0  0
   -3.7829   -4.0890   -0.5761 H   0  0  0  0  0  0  0  0  0  0  0  0
   -2.4016   -2.9415    0.6080 C   0  0  0  0  0  0  0  0  0  0  0  0
   -1.5521   -3.3173    1.4003 O   0  0  0  0  0  0  0  0  0  0  0  0
   -2.1896   -1.8092   -0.1484 N   0  0  0  0  0  0  0  0  0  0  0  0
   -2.9373   -1.5099   -0.7723 H   0  0  0  0  0  0  0  0  0  0  0  0
   -1.0037   -0.9430   -0.0702 C   0  0  1  0  0  0  0  0  0  0  0  0
   -0.5296   -1.1274    0.8988 H   0  0  0  0  0  0  0  0  0  0  0  0
    0.0249   -1.3837   -1.1361 C   0  0  0  0  0  0  0  0  0  0  0  0
    1.0219   -1.1427   -0.7547 H   0  0  0  0  0  0  0  0  0  0  0  0
   -0.0104   -2.4720   -1.2401 H   0  0  0  0  0  0  0  0  0  0  0  0
   -0.0889   -0.7326   -2.4982 C   0  0  0  0  0  0  0  0  0  0  0  0
    0.0041    0.6031   -2.8215 C   0  0  0  0  0  0  0  0  0  0  0  0
    0.1775    1.4178   -2.1223 H   0  0  0  0  0  0  0  0  0  0  0  0
   -0.1742    0.7260   -4.1967 N   0  0  0  0  0  0  0  0  0  0  0  0
   -0.1921    1.6045   -4.7100 H   0  0  0  0  0  0  0  0  0  0  0  0
   -0.3894   -0.5163   -4.7669 C   0  0  0  0  0  0  0  0  0  0  0  0
   -0.6237   -0.9006   -6.0873 C   0  0  0  0  0  0  0  0  0  0  0  0
   -0.6576   -0.1560   -6.8747 H   0  0  0  0  0  0  0  0  0  0  0  0
   -0.8141   -2.2580   -6.3801 C   0  0  0  0  0  0  0  0  0  0  0  0
   -0.9964   -2.5716   -7.4037 H   0  0  0  0  0  0  0  0  0  0  0  0
   -0.7698   -3.2116   -5.3520 C   0  0  0  0  0  0  0  0  0  0  0  0
   -0.9180   -4.2625   -5.5813 H   0  0  0  0  0  0  0  0  0  0  0  0
   -0.5352   -2.8125   -4.0283 C   0  0  0  0  0  0  0  0  0  0  0  0
   -0.5028   -3.5509   -3.2344 H   0  0  0  0  0  0  0  0  0  0  0  0
   -0.3440   -1.4551   -3.7423 C   0  0  0  0  0  0  0  0  0  0  0  0
   -1.3692    0.5546   -0.0484 C   0  0  0  0  0  0  0  0  0  0  0  0
   -2.3156    0.9783   -0.7021 O   0  0  0  0  0  0  0  0  0  0  0  0
   -0.7483    1.4053    0.8494 N   0  0  0  0  0  0  0  0  0  0  0  0
   -0.0594    1.0001    1.4771 H   0  0  0  0  0  0  0  0  0  0  0  0
   -1.1661    2.7855    1.0645 C   0  0  0  0  0  0  0  0  0  0  0  0
   -2.1981    2.8213    1.4290 H   0  0  0  0  0  0  0  0  0  0  0  0
   -0.5199    3.2643    1.8066 H   0  0  0  0  0  0  0  0  0  0  0  0
   -1.1018    3.3561    0.1321 H   0  0  0  0  0  0  0  0  0  0  0  0
  1  2  1  0  0  0  0
  2  3  1  0  0  0  0
  2  4  1  0  0  0  0
  2  5  1  0  0  0  0
  5  6  2  0  0  0  0
  5  7  1  0  0  0  0
  7  8  1  0  0  0  0
  7  9  1  0  0  0  0
  9 10  1  0  0  0  0
  9 11  1  0  0  0  0
  9 29  1  0  0  0  0
 11 12  1  0  0  0  0
 11 13  1  0  0  0  0
 11 14  1  0  0  0  0
 14 15  2  0  0  0  0
 14 28  1  0  0  0  0
 15 16  1  0  0  0  0
 15 17  1  0  0  0  0
 17 18  1  0  0  0  0
 17 19  1  0  0  0  0
 19 20  1  0  0  0  0
 19 28  2  0  0  0  0
 20 21  1  0  0  0  0
 20 22  2  0  0  0  0
 22 23  1  0  0  0  0
 22 24  1  0  0  0  0
 24 25  1  0  0  0  0
 24 26  2  0  0  0  0
 26 27  1  0  0  0  0
 26 28  1  0  0  0  0
 29 30  2  0  0  0  0
 29 31  1  0  0  0  0
 31 32  1  0  0  0  0
 31 33  1  0  0  0  0
 33 34  1  0  0  0  0
 33 35  1  0  0  0  0
 33 36  1  0  0  0  0
M  END
$$$$

  -OEChem-03222214083D

 36 37  0     1  0  0  0  0  0999 V2000
   -3.7597   -4.5382    1.1701 H   0  0  0  0  0  0  0  0  0  0  0  0
   -3.7248   -3.7050    0.4630 C   0  0  0  0  0  0  0  0  0  0  0  0
   -4.5717   -3.0425    0.6577 H   0  0  0  0  0  0  0  0  0  0  0  0
   -3.8053   -4.1010   -0.5522 H   0  0  0  0  0  0  0  0  0  0  0  0
   -2.4233   -2.9421    0.6190 C   0  0  0  0  0  0  0  0  0  0  0  0
   -1.5915   -3.3109    1.4330 O   0  0  0  0  0  0  0  0  0  0  0  0
   -2.1784   -1.8384   -0.1684 N   0  0  0  0  0  0  0  0  0  0  0  0
   -2.9150   -1.5369   -0.8047 H   0  0  0  0  0  0  0  0  0  0  0  0
   -0.9904   -0.9772   -0.0791 C   0  0  1  0  0  0  0  0  0  0  0  0
   -0.5439   -1.1352    0.9076 H   0  0  0  0  0  0  0  0  0  0  0  0
    0.0625   -1.4403   -1.1067 C   0  0  0  0  0  0  0  0  0  0  0  0
    1.0494   -1.1877   -0.7077 H   0  0  0  0  0  0  0  0  0  0  0  0
    0.0358   -2.5298   -1.2061 H   0  0  0  0  0  0  0  0  0  0  0  0
   -0.0505   -0.7911   -2.4646 C   0  0  0  0  0  0  0  0  0  0  0  0
    0.3121    0.4887   -2.8163 C   0  0  0  0  0  0  0  0  0  0  0  0
    0.7437    1.2317   -2.1499 H   0  0  0  0  0  0  0  0  0  0  0  0
    0.0071    0.6604   -4.1644 N   0  0  0  0  0  0  0  0  0  0  0  0
    0.1282    1.5236   -4.6890 H   0  0  0  0  0  0  0  0  0  0  0  0
   -0.5596   -0.4928   -4.6815 C   0  0  0  0  0  0  0  0  0  0  0  0
   -1.0379   -0.8027   -5.9548 C   0  0  0  0  0  0  0  0  0  0  0  0
   -0.9951   -0.0652   -6.7485 H   0  0  0  0  0  0  0  0  0  0  0  0
   -1.5736   -2.0765   -6.1921 C   0  0  0  0  0  0  0  0  0  0  0  0
   -1.9481   -2.3314   -7.1790 H   0  0  0  0  0  0  0  0  0  0  0  0
   -1.6269   -3.0217   -5.1558 C   0  0  0  0  0  0  0  0  0  0  0  0
   -2.0415   -4.0077   -5.3428 H   0  0  0  0  0  0  0  0  0  0  0  0
   -1.1463   -2.6971   -3.8789 C   0  0  0  0  0  0  0  0  0  0  0  0
   -1.1881   -3.4236   -3.0744 H   0  0  0  0  0  0  0  0  0  0  0  0
   -0.6111   -1.4247   -3.6517 C   0  0  0  0  0  0  0  0  0  0  0  0
   -1.3482    0.5231   -0.1220 C   0  0  0  0  0  0  0  0  0  0  0  0
   -2.2858    0.9240   -0.8023 O   0  0  0  0  0  0  0  0  0  0  0  0
   -0.7516    1.3991    0.7680 N   0  0  0  0  0  0  0  0  0  0  0  0
   -0.0759    1.0130    1.4212 H   0  0  0  0  0  0  0  0  0  0  0  0
   -1.1748    2.7844    0.9328 C   0  0  0  0  0  0  0  0  0  0  0  0
   -2.2189    2.8300    1.2598 H   0  0  0  0  0  0  0  0  0  0  0  0
   -0.5543    3.2816    1.6846 H   0  0  0  0  0  0  0  0  0  0  0  0
   -1.0769    3.3301   -0.0116 H   0  0  0  0  0  0  0  0  0  0  0  0
  1  2  1  0  0  0  0
  2  3  1  0  0  0  0
  2  4  1  0  0  0  0
  2  5  1  0  0  0  0
  5  6  2  0  0  0  0
  5  7  1  0  0  0  0
  7  8  1  0  0  0  0
  7  9  1  0  0  0  0
  9 10  1  0  0  0  0
  9 11  1  0  0  0  0
  9 29  1  0  0  0  0
 11 12  1  0  0  0  0
 11 13  1  0  0  0  0
 11 14  1  0  0  0  0
 14 15  2  0  0  0  0
 14 28  1  0  0  0  0
 15 16  1  0  0  0  0
 15 17  1  0  0  0  0
 17 18  1  0  0  0  0
 17 19  1  0  0  0  0
 19 20  1  0  0  0  0
 19 28  2  0  0  0  0
 20 21  1  0  0  0  0
 20 22  2  0  0  0  0
 22 23  1  0  0  0  0
 22 24  1  0  0  0  0
 24 25  1  0  0  0  0
 24 26  2  0  0  0  0
 26 27  1  0  0  0  0
 26 28  1  0  0  0  0
 29 30  2  0  0  0  0
 29 31  1  0  0  0  0
 31 32  1  0  0  0  0
 31 33  1  0  0  0  0
 33 34  1  0  0  0  0
 33 35  1  0  0  0  0
 33 36  1  0  0  0  0
M  END
$$$$

  -OEChem-03222214083D

 36 37  0     1  0  0  0  0  0999 V2000
   -3.8089   -4.5044    1.2299 H   0  0  0  0  0  0  0  0  0  0  0  0
   -3.7596   -3.6853    0.5070 C   0  0  0  0  0  0  0  0  0  0  0  0
   -4.5929   -3.0027    0.6905 H   0  0  0  0  0  0  0  0  0  0  0  0
   -3.8509   -4.0977   -0.5008 H   0  0  0  0  0  0  0  0  0  0  0  0
   -2.4432   -2.9447    0.6449 C   0  0  0  0  0  0  0  0  0  0  0  0
   -1.6160   -3.3127    1.4640 O   0  0  0  0  0  0  0  0  0  0  0  0
   -2.1816   -1.8607   -0.1640 N   0  0  0  0  0  0  0  0  0  0  0  0
   -2.9208   -1.5484   -0.7926 H   0  0  0  0  0  0  0  0  0  0  0  0
   -0.9886   -1.0062   -0.0814 C   0  0  1  0  0  0  0  0  0  0  0  0
   -0.5496   -1.1473    0.9111 H   0  0  0  0  0  0  0  0  0  0  0  0
    0.0707   -1.4784   -1.0972 C   0  0  0  0  0  0  0  0  0  0  0  0
    1.0570   -1.2272   -0.6951 H   0  0  0  0  0  0  0  0  0  0  0  0
    0.0389   -2.5674   -1.2020 H   0  0  0  0  0  0  0  0  0  0  0  0
   -0.0557   -0.8248   -2.4494 C   0  0  0  0  0  0  0  0  0  0  0  0
    0.5453    0.3379   -2.8700 C   0  0  0  0  0  0  0  0  0  0  0  0
    1.2072    0.9607   -2.2733 H   0  0  0  0  0  0  0  0  0  0  0  0
    0.1345    0.5751   -4.1799 N   0  0  0  0  0  0  0  0  0  0  0  0
    0.3878    1.3868   -4.7386 H   0  0  0  0  0  0  0  0  0  0  0  0
   -0.7271   -0.4241   -4.6040 C   0  0  0  0  0  0  0  0  0  0  0  0
   -1.4000   -0.6243   -5.8095 C   0  0  0  0  0  0  0  0  0  0  0  0
   -1.2884    0.0858   -6.6211 H   0  0  0  0  0  0  0  0  0  0  0  0
   -2.2207   -1.7518   -5.9553 C   0  0  0  0  0  0  0  0  0  0  0  0
   -2.7497   -1.9192   -6.8886 H   0  0  0  0  0  0  0  0  0  0  0  0
   -2.3592   -2.6635   -4.8972 C   0  0  0  0  0  0  0  0  0  0  0  0
   -2.9932   -3.5368   -5.0146 H   0  0  0  0  0  0  0  0  0  0  0  0
   -1.6809   -2.4499   -3.6886 C   0  0  0  0  0  0  0  0  0  0  0  0
   -1.7814   -3.1497   -2.8659 H   0  0  0  0  0  0  0  0  0  0  0  0
   -0.8663   -1.3215   -3.5523 C   0  0  0  0  0  0  0  0  0  0  0  0
   -1.3414    0.4946   -0.1619 C   0  0  0  0  0  0  0  0  0  0  0  0
   -2.2850    0.8778   -0.8443 O   0  0  0  0  0  0  0  0  0  0  0  0
   -0.7514    1.3892    0.7142 N   0  0  0  0  0  0  0  0  0  0  0  0
   -0.0701    1.0216    1.3719 H   0  0  0  0  0  0  0  0  0  0  0  0
   -1.1710    2.7796    0.8396 C   0  0  0  0  0  0  0  0  0  0  0  0
   -2.2199    2.8370    1.1485 H   0  0  0  0  0  0  0  0  0  0  0  0
   -0.5611    3.2920    1.5895 H   0  0  0  0  0  0  0  0  0  0  0  0
   -1.0553    3.3018   -0.1159 H   0  0  0  0  0  0  0  0  0  0  0  0
  1  2  1  0  0  0  0
  2  3  1  0  0  0  0
  2  4  1  0  0  0  0
  2  5  1  0  0  0  0
  5  6  2  0  0  0  0
  5  7  1  0  0  0  0
  7  8  1  0  0  0  0
  7  9  1  0  0  0  0
  9 10  1  0  0  0  0
  9 11  1  0  0  0  0
  9 29  1  0  0  0  0
 11 12  1  0  0  0  0
 11 13  1  0  0  0  0
 11 14  1  0  0  0  0
 14 15  2  0  0  0  0
 14 28  1  0  0  0  0
 15 16  1  0  0  0  0
 15 17  1  0  0  0  0
 17 18  1  0  0  0  0
 17 19  1  0  0  0  0
 19 20  1  0  0  0  0
 19 28  2  0  0  0  0
 20 21  1  0  0  0  0
 20 22  2  0  0  0  0
 22 23  1  0  0  0  0
 22 24  1  0  0  0  0
 24 25  1  0  0  0  0
 24 26  2  0  0  0  0
 26 27  1  0  0  0  0
 26 28  1  0  0  0  0
 29 30  2  0  0  0  0
 29 31  1  0  0  0  0
 31 32  1  0  0  0  0
 31 33  1  0  0  0  0
 33 34  1  0  0  0  0
 33 35  1  0  0  0  0
 33 36  1  0  0  0  0
M  END
$$$$

  -OEChem-03222214083D

 36 37  0     1  0  0  0  0  0999 V2000
   -3.8389   -4.4498    1.3625 H   0  0  0  0  0  0  0  0  0  0  0  0
   -3.7988   -3.6410    0.6274 C   0  0  0  0  0  0  0  0  0  0  0  0
   -4.6005   -2.9299    0.8416 H   0  0  0  0  0  0  0  0  0  0  0  0
   -3.9508   -4.0618   -0.3695 H   0  0  0  0  0  0  0  0  0  0  0  0
   -2.4549   -2.9412    0.6938 C   0  0  0  0  0  0  0  0  0  0  0  0
   -1.5967   -3.3343    1.4678 O   0  0  0  0  0  0  0  0  0  0  0  0
   -2.2066   -1.8619   -0.1252 N   0  0  0  0  0  0  0  0  0  0  0  0
   -2.9792   -1.5099   -0.6897 H   0  0  0  0  0  0  0  0  0  0  0  0
   -1.0033   -1.0196   -0.0775 C   0  0  1  0  0  0  0  0  0  0  0  0
   -0.5428   -1.1618    0.9053 H   0  0  0  0  0  0  0  0  0  0  0  0
    0.0409   -1.4827   -1.1140 C   0  0  0  0  0  0  0  0  0  0  0  0
    1.0352   -1.2442   -0.7245 H   0  0  0  0  0  0  0  0  0  0  0  0
   -0.0039   -2.5702   -1.2311 H   0  0  0  0  0  0  0  0  0  0  0  0
   -0.1092   -0.8200   -2.4600 C   0  0  0  0  0  0  0  0  0  0  0  0
    0.6902    0.1734   -2.9737 C   0  0  0  0  0  0  0  0  0  0  0  0
    1.5327    0.6354   -2.4647 H   0  0  0  0  0  0  0  0  0  0  0  0
    0.2123    0.4851   -4.2445 N   0  0  0  0  0  0  0  0  0  0  0  0
    0.5867    1.2080   -4.8547 H   0  0  0  0  0  0  0  0  0  0  0  0
   -0.8721   -0.3168   -4.5620 C   0  0  0  0  0  0  0  0  0  0  0  0
   -1.6713   -0.3878   -5.7032 C   0  0  0  0  0  0  0  0  0  0  0  0
   -1.4907    0.2794   -6.5385 H   0  0  0  0  0  0  0  0  0  0  0  0
   -2.7054   -1.3333   -5.7556 C   0  0  0  0  0  0  0  0  0  0  0  0
   -3.3343   -1.4000   -6.6383 H   0  0  0  0  0  0  0  0  0  0  0  0
   -2.9240   -2.1974   -4.6716 C   0  0  0  0  0  0  0  0  0  0  0  0
   -3.7194   -2.9347   -4.7183 H   0  0  0  0  0  0  0  0  0  0  0  0
   -2.1162   -2.1132   -3.5287 C   0  0  0  0  0  0  0  0  0  0  0  0
   -2.2731   -2.7853   -2.6928 H   0  0  0  0  0  0  0  0  0  0  0  0
   -1.0956   -1.1583   -3.4787 C   0  0  0  0  0  0  0  0  0  0  0  0
   -1.3523    0.4827   -0.1522 C   0  0  0  0  0  0  0  0  0  0  0  0
   -2.3324    0.8603   -0.7850 O   0  0  0  0  0  0  0  0  0  0  0  0
   -0.7344    1.3769    0.7048 N   0  0  0  0  0  0  0  0  0  0  0  0
   -0.0178    1.0133    1.3260 H   0  0  0  0  0  0  0  0  0  0  0  0
   -1.1521    2.7662    0.8479 C   0  0  0  0  0  0  0  0  0  0  0  0
   -2.1778    2.8206    1.2278 H   0  0  0  0  0  0  0  0  0  0  0  0
   -0.4946    3.2885    1.5494 H   0  0  0  0  0  0  0  0  0  0  0  0
   -1.1055    3.2819   -0.1171 H   0  0  0  0  0  0  0  0  0  0  0  0
  1  2  1  0  0  0  0
  2  3  1  0  0  0  0
  2  4  1  0  0  0  0
  2  5  1  0  0  0  0
  5  6  2  0  0  0  0
  5  7  1  0  0  0  0
  7  8  1  0  0  0  0
  7  9  1  0  0  0  0
  9 10  1  0  0  0  0
  9 11  1  0  0  0  0
  9 29  1  0  0  0  0
 11 12  1  0  0  0  0
 11 13  1  0  0  0  0
 11 14  1  0  0  0  0
 14 15  2  0  0  0  0
 14 28  1  0  0  0  0
 15 16  1  0  0  0  0
 15 17  1  0  0  0  0
 17 18  1  0  0  0  0
 17 19  1  0  0  0  0
 19 20  1  0  0  0  0
 19 28  2  0  0  0  0
 20 21  1  0  0  0  0
 20 22  2  0  0  0  0
 22 23  1  0  0  0  0
 22 24  1  0  0  0  0
 24 25  1  0  0  0  0
 24 26  2  0  0  0  0
 26 27  1  0  0  0  0
 26 28  1  0  0  0  0
 29 30  2  0  0  0  0
 29 31  1  0  0  0  0
 31 32  1  0  0  0  0
 31 33  1  0  0  0  0
 33 34  1  0  0  0  0
 33 35  1  0  0  0  0
 33 36  1  0  0  0  0
M  END
$$$$

  -OEChem-03222214083D

 36 37  0     1  0  0  0  0  0999 V2000
   -3.7908   -4.4408    1.5304 H   0  0  0  0  0  0  0  0  0  0  0  0
   -3.7892   -3.6297    0.7970 C   0  0  0  0  0  0  0  0  0  0  0  0
   -4.5615   -2.9066    1.0704 H   0  0  0  0  0  0  0  0  0  0  0  0
   -4.0190   -4.0439   -0.1876 H   0  0  0  0  0  0  0  0  0  0  0  0
   -2.4318   -2.9529    0.7693 C   0  0  0  0  0  0  0  0  0  0  0  0
   -1.5245   -3.3713    1.4709 O   0  0  0  0  0  0  0  0  0  0  0  0
   -2.2275   -1.8654   -0.0521 N   0  0  0  0  0  0  0  0  0  0  0  0
   -3.0426   -1.4743   -0.5230 H   0  0  0  0  0  0  0  0  0  0  0  0
   -1.0204   -1.0274   -0.0546 C   0  0  1  0  0  0  0  0  0  0  0  0
   -0.5193   -1.1789    0.9065 H   0  0  0  0  0  0  0  0  0  0  0  0
   -0.0094   -1.4605   -1.1376 C   0  0  0  0  0  0  0  0  0  0  0  0
    0.9971   -1.2358   -0.7713 H   0  0  0  0  0  0  0  0  0  0  0  0
   -0.0662   -2.5458   -1.2707 H   0  0  0  0  0  0  0  0  0  0  0  0
   -0.1850   -0.7905   -2.4806 C   0  0  0  0  0  0  0  0  0  0  0  0
    0.7723   -0.0167   -3.0941 C   0  0  0  0  0  0  0  0  0  0  0  0
    1.7406    0.2425   -2.6723 H   0  0  0  0  0  0  0  0  0  0  0  0
    0.2771    0.3758   -4.3339 N   0  0  0  0  0  0  0  0  0  0  0  0
    0.7612    0.9715   -5.0019 H   0  0  0  0  0  0  0  0  0  0  0  0
   -0.9739   -0.1773   -4.5464 C   0  0  0  0  0  0  0  0  0  0  0  0
   -1.8408   -0.0957   -5.6363 C   0  0  0  0  0  0  0  0  0  0  0  0
   -1.5763    0.5001   -6.5024 H   0  0  0  0  0  0  0  0  0  0  0  0
   -3.0527   -0.7978   -5.5989 C   0  0  0  0  0  0  0  0  0  0  0  0
   -3.7387   -0.7431   -6.4387 H   0  0  0  0  0  0  0  0  0  0  0  0
   -3.3755   -1.5792   -4.4802 C   0  0  0  0  0  0  0  0  0  0  0  0
   -4.3095   -2.1321   -4.4577 H   0  0  0  0  0  0  0  0  0  0  0  0
   -2.4942   -1.6520   -3.3921 C   0  0  0  0  0  0  0  0  0  0  0  0
   -2.7384   -2.2723   -2.5400 H   0  0  0  0  0  0  0  0  0  0  0  0
   -1.2951   -0.9315   -3.4221 C   0  0  0  0  0  0  0  0  0  0  0  0
   -1.3773    0.4740   -0.0950 C   0  0  0  0  0  0  0  0  0  0  0  0
   -2.4029    0.8478   -0.6541 O   0  0  0  0  0  0  0  0  0  0  0  0
   -0.7209    1.3621    0.7391 N   0  0  0  0  0  0  0  0  0  0  0  0
    0.0522    1.0052    1.2923 H   0  0  0  0  0  0  0  0  0  0  0  0
   -1.1265    2.7522    0.9066 C   0  0  0  0  0  0  0  0  0  0  0  0
   -2.1349    2.8090    1.3298 H   0  0  0  0  0  0  0  0  0  0  0  0
   -0.4380    3.2683    1.5826 H   0  0  0  0  0  0  0  0  0  0  0  0
   -1.1188    3.2722   -0.0572 H   0  0  0  0  0  0  0  0  0  0  0  0
  1  2  1  0  0  0  0
  2  3  1  0  0  0  0
  2  4  1  0  0  0  0
  2  5  1  0  0  0  0
  5  6  2  0  0  0  0
  5  7  1  0  0  0  0
  7  8  1  0  0  0  0
  7  9  1  0  0  0  0
  9 10  1  0  0  0  0
  9 11  1  0  0  0  0
  9 29  1  0  0  0  0
 11 12  1  0  0  0  0
 11 13  1  0  0  0  0
 11 14  1  0  0  0  0
 14 15  2  0  0  0  0
 14 28  1  0  0  0  0
 15 16  1  0  0  0  0
 15 17  1  0  0  0  0
 17 18  1  0  0  0  0
 17 19  1  0  0  0  0
 19 20  1  0  0  0  0
 19 28  2  0  0  0  0
 20 21  1  0  0  0  0
 20 22  2  0  0  0  0
 22 23  1  0  0  0  0
 22 24  1  0  0  0  0
 24 25  1  0  0  0  0
 24 26  2  0  0  0  0
 26 27  1  0  0  0  0
 26 28  1  0  0  0  0
 29 30  2  0  0  0  0
 29 31  1  0  0  0  0
 31 32  1  0  0  0  0
 31 33  1  0  0  0  0
 33 34  1  0  0  0  0
 33 35  1  0  0  0  0
 33 36  1  0  0  0  0
M  END
$$$$

  -OEChem-03222214083D

 36 37  0     1  0  0  0  0  0999 V2000
   -3.6916   -4.4704    1.6615 H   0  0  0  0  0  0  0  0  0  0  0  0
   -3.7316   -3.6564    0.9323 C   0  0  0  0  0  0  0  0  0  0  0  0
   -4.4862   -2.9338    1.2526 H   0  0  0  0  0  0  0  0  0  0  0  0
   -4.0184   -4.0668   -0.0389 H   0  0  0  0  0  0  0  0  0  0  0  0
   -2.3774   -2.9812    0.8279 C   0  0  0  0  0  0  0  0  0  0  0  0
   -1.4285   -3.4117    1.4642 O   0  0  0  0  0  0  0  0  0  0  0  0
   -2.2258   -1.8793    0.0143 N   0  0  0  0  0  0  0  0  0  0  0  0
   -3.0754   -1.4675   -0.3680 H   0  0  0  0  0  0  0  0  0  0  0  0
   -1.0265   -1.0311   -0.0296 C   0  0  1  0  0  0  0  0  0  0  0  0
   -0.4840   -1.1917    0.9074 H   0  0  0  0  0  0  0  0  0  0  0  0
   -0.0514   -1.4320   -1.1573 C   0  0  0  0  0  0  0  0  0  0  0  0
    0.9655   -1.2179   -0.8137 H   0  0  0  0  0  0  0  0  0  0  0  0
   -0.1165   -2.5156   -1.2996 H   0  0  0  0  0  0  0  0  0  0  0  0
   -0.2442   -0.7665   -2.5049 C   0  0  0  0  0  0  0  0  0  0  0  0
    0.8128   -0.2617   -3.2273 C   0  0  0  0  0  0  0  0  0  0  0  0
    1.8483   -0.2391   -2.8955 H   0  0  0  0  0  0  0  0  0  0  0  0
    0.3263    0.2115   -4.4401 N   0  0  0  0  0  0  0  0  0  0  0  0
    0.8821    0.6505   -5.1706 H   0  0  0  0  0  0  0  0  0  0  0  0
   -1.0313   -0.0312   -4.5336 C   0  0  0  0  0  0  0  0  0  0  0  0
   -1.9281    0.2368   -5.5674 C   0  0  0  0  0  0  0  0  0  0  0  0
   -1.5902    0.7321   -6.4705 H   0  0  0  0  0  0  0  0  0  0  0  0
   -3.2671   -0.1459   -5.4242 C   0  0  0  0  0  0  0  0  0  0  0  0
   -3.9792    0.0574   -6.2181 H   0  0  0  0  0  0  0  0  0  0  0  0
   -3.6856   -0.7969   -4.2560 C   0  0  0  0  0  0  0  0  0  0  0  0
   -4.7230   -1.0974   -4.1460 H   0  0  0  0  0  0  0  0  0  0  0  0
   -2.7703   -1.0592   -3.2265 C   0  0  0  0  0  0  0  0  0  0  0  0
   -3.1060   -1.5704   -2.3365 H   0  0  0  0  0  0  0  0  0  0  0  0
   -1.4345   -0.6599   -3.3576 C   0  0  0  0  0  0  0  0  0  0  0  0
   -1.3987    0.4669   -0.0275 C   0  0  0  0  0  0  0  0  0  0  0  0
   -2.4651    0.8326   -0.5108 O   0  0  0  0  0  0  0  0  0  0  0  0
   -0.7133    1.3486    0.7899 N   0  0  0  0  0  0  0  0  0  0  0  0
    0.1097    1.0016    1.2729 H   0  0  0  0  0  0  0  0  0  0  0  0
   -1.1195    2.7341    0.9925 C   0  0  0  0  0  0  0  0  0  0  0  0
   -2.1235    2.7798    1.4274 H   0  0  0  0  0  0  0  0  0  0  0  0
   -0.4256    3.2362    1.6734 H   0  0  0  0  0  0  0  0  0  0  0  0
   -1.1220    3.2748    0.0401 H   0  0  0  0  0  0  0  0  0  0  0  0
  1  2  1  0  0  0  0
  2  3  1  0  0  0  0
  2  4  1  0  0  0  0
  2  5  1  0  0  0  0
  5  6  2  0  0  0  0
  5  7  1  0  0  0  0
  7  8  1  0  0  0  0
  7  9  1  0  0  0  0
  9 10  1  0  0  0  0
  9 11  1  0  0  0  0
  9 29  1  0  0  0  0
 11 12  1  0  0  0  0
 11 13  1  0  0  0  0
 11 14  1  0  0  0  0
 14 15  2  0  0  0  0
 14 28  1  0  0  0  0
 15 16  1  0  0  0  0
 15 17  1  0  0  0  0
 17 18  1  0  0  0  0
 17 19  1  0  0  0  0
 19 20  1  0  0  0  0
 19 28  2  0  0  0  0
 20 21  1  0  0  0  0
 20 22  2  0  0  0  0
 22 23  1  0  0  0  0
 22 24  1  0  0  0  0
 24 25  1  0  0  0  0
 24 26  2  0  0  0  0
 26 27  1  0  0  0  0
 26 28  1  0  0  0  0
 29 30  2  0  0  0  0
 29 31  1  0  0  0  0
 31 32  1  0  0  0  0
 31 33  1  0  0  0  0
 33 34  1  0  0  0  0
 33 35  1  0  0  0  0
 33 36  1  0  0  0  0
M  END
$$$$

  -OEChem-03222214083D

 36 37  0     1  0  0  0  0  0999 V2000
   -3.5948   -4.5452    1.5929 H   0  0  0  0  0  0  0  0  0  0  0  0
   -3.6852   -3.6783    0.9323 C   0  0  0  0  0  0  0  0  0  0  0  0
   -4.4298   -2.9948    1.3477 H   0  0  0  0  0  0  0  0  0  0  0  0
   -4.0201   -4.0176   -0.0509 H   0  0  0  0  0  0  0  0  0  0  0  0
   -2.3470   -2.9754    0.8078 C   0  0  0  0  0  0  0  0  0  0  0  0
   -1.3663   -3.4217    1.3821 O   0  0  0  0  0  0  0  0  0  0  0  0
   -2.2455   -1.8307    0.0466 N   0  0  0  0  0  0  0  0  0  0  0  0
   -3.1155   -1.4221   -0.2876 H   0  0  0  0  0  0  0  0  0  0  0  0
   -1.0539   -0.9698   -0.0136 C   0  0  1  0  0  0  0  0  0  0  0  0
   -0.4858   -1.1712    0.9002 H   0  0  0  0  0  0  0  0  0  0  0  0
   -0.1026   -1.3486   -1.1673 C   0  0  0  0  0  0  0  0  0  0  0  0
    0.9182   -1.1320   -0.8366 H   0  0  0  0  0  0  0  0  0  0  0  0
   -0.1634   -2.4324   -1.3104 H   0  0  0  0  0  0  0  0  0  0  0  0
   -0.2964   -0.6943   -2.5219 C   0  0  0  0  0  0  0  0  0  0  0  0
    0.7784   -0.4835   -3.3559 C   0  0  0  0  0  0  0  0  0  0  0  0
    1.8168   -0.6894   -3.1060 H   0  0  0  0  0  0  0  0  0  0  0  0
    0.3086    0.0211   -4.5615 N   0  0  0  0  0  0  0  0  0  0  0  0
    0.8831    0.2688   -5.3641 H   0  0  0  0  0  0  0  0  0  0  0  0
   -1.0710    0.0849   -4.5410 C   0  0  0  0  0  0  0  0  0  0  0  0
   -1.9650    0.4854   -5.5339 C   0  0  0  0  0  0  0  0  0  0  0  0
   -1.5989    0.8349   -6.4927 H   0  0  0  0  0  0  0  0  0  0  0  0
   -3.3392    0.4249   -5.2769 C   0  0  0  0  0  0  0  0  0  0  0  0
   -4.0502    0.7356   -6.0364 H   0  0  0  0  0  0  0  0  0  0  0  0
   -3.7961   -0.0398   -4.0372 C   0  0  0  0  0  0  0  0  0  0  0  0
   -4.8617   -0.0870   -3.8356 H   0  0  0  0  0  0  0  0  0  0  0  0
   -2.8825   -0.4384   -3.0509 C   0  0  0  0  0  0  0  0  0  0  0  0
   -3.2553   -0.7899   -2.1000 H   0  0  0  0  0  0  0  0  0  0  0  0
   -1.5046   -0.3660   -3.2949 C   0  0  0  0  0  0  0  0  0  0  0  0
   -1.3938    0.5328    0.0838 C   0  0  0  0  0  0  0  0  0  0  0  0
   -2.4901    0.9382   -0.2866 O   0  0  0  0  0  0  0  0  0  0  0  0
   -0.6449    1.3541    0.9091 N   0  0  0  0  0  0  0  0  0  0  0  0
    0.2037    0.9691    1.3130 H   0  0  0  0  0  0  0  0  0  0  0  0
   -1.0226    2.7241    1.2358 C   0  0  0  0  0  0  0  0  0  0  0  0
   -1.9719    2.7403    1.7814 H   0  0  0  0  0  0  0  0  0  0  0  0
   -0.2557    3.1893    1.8628 H   0  0  0  0  0  0  0  0  0  0  0  0
   -1.1305    3.3197    0.3231 H   0  0  0  0  0  0  0  0  0  0  0  0
  1  2  1  0  0  0  0
  2  3  1  0  0  0  0
  2  4  1  0  0  0  0
  2  5  1  0  0  0  0
  5  6  2  0  0  0  0
  5  7  1  0  0  0  0
  7  8  1  0  0  0  0
  7  9  1  0  0  0  0
  9 10  1  0  0  0  0
  9 11  1  0  0  0  0
  9 29  1  0  0  0  0
 11 12  1  0  0  0  0
 11 13  1  0  0  0  0
 11 14  1  0  0  0  0
 14 15  2  0  0  0  0
 14 28  1  0  0  0  0
 15 16  1  0  0  0  0
 15 17  1  0  0  0  0
 17 18  1  0  0  0  0
 17 19  1  0  0  0  0
 19 20  1  0  0  0  0
 19 28  2  0  0  0  0
 20 21  1  0  0  0  0
 20 22  2  0  0  0  0
 22 23  1  0  0  0  0
 22 24  1  0  0  0  0
 24 25  1  0  0  0  0
 24 26  2  0  0  0  0
 26 27  1  0  0  0  0
 26 28  1  0  0  0  0
 29 30  2  0  0  0  0
 29 31  1  0  0  0  0
 31 32  1  0  0  0  0
 31 33  1  0  0  0  0
 33 34  1  0  0  0  0
 33 35  1  0  0  0  0
 33 36  1  0  0  0  0
M  END
$$$$

  -OEChem-03222214083D

 36 37  0     1  0  0  0  0  0999 V2000
   -3.5794   -4.5580    1.4634 H   0  0  0  0  0  0  0  0  0  0  0  0
   -3.6841   -3.6555    0.8546 C   0  0  0  0  0  0  0  0  0  0  0  0
   -4.4250   -3.0009    1.3201 H   0  0  0  0  0  0  0  0  0  0  0  0
   -4.0334   -3.9399   -0.1411 H   0  0  0  0  0  0  0  0  0  0  0  0
   -2.3515   -2.9385    0.7483 C   0  0  0  0  0  0  0  0  0  0  0  0
   -1.3543   -3.4212    1.2620 O   0  0  0  0  0  0  0  0  0  0  0  0
   -2.2732   -1.7442    0.0640 N   0  0  0  0  0  0  0  0  0  0  0  0
   -3.1498   -1.3357   -0.2511 H   0  0  0  0  0  0  0  0  0  0  0  0
   -1.0822   -0.8812    0.0031 C   0  0  1  0  0  0  0  0  0  0  0  0
   -0.5099   -1.1372    0.9006 H   0  0  0  0  0  0  0  0  0  0  0  0
   -0.1281   -1.2435   -1.1530 C   0  0  0  0  0  0  0  0  0  0  0  0
    0.8884   -1.0123   -0.8188 H   0  0  0  0  0  0  0  0  0  0  0  0
   -0.1741   -2.3282   -1.2958 H   0  0  0  0  0  0  0  0  0  0  0  0
   -0.3091   -0.5934   -2.5113 C   0  0  0  0  0  0  0  0  0  0  0  0
    0.7072   -0.6633   -3.4376 C   0  0  0  0  0  0  0  0  0  0  0  0
    1.6964   -1.0760   -3.2519 H   0  0  0  0  0  0  0  0  0  0  0  0
    0.2581   -0.1181   -4.6326 N   0  0  0  0  0  0  0  0  0  0  0  0
    0.8033   -0.0349   -5.4879 H   0  0  0  0  0  0  0  0  0  0  0  0
   -1.0760    0.2183   -4.5227 C   0  0  0  0  0  0  0  0  0  0  0  0
   -1.9470    0.7333   -5.4824 C   0  0  0  0  0  0  0  0  0  0  0  0
   -1.5886    0.9680   -6.4784 H   0  0  0  0  0  0  0  0  0  0  0  0
   -3.2904    0.9301   -5.1452 C   0  0  0  0  0  0  0  0  0  0  0  0
   -3.9842    1.3321   -5.8773 H   0  0  0  0  0  0  0  0  0  0  0  0
   -3.7417    0.5913   -3.8637 C   0  0  0  0  0  0  0  0  0  0  0  0
   -4.7860    0.7304   -3.6016 H   0  0  0  0  0  0  0  0  0  0  0  0
   -2.8510    0.0720   -2.9140 C   0  0  0  0  0  0  0  0  0  0  0  0
   -3.2315   -0.2016   -1.9409 H   0  0  0  0  0  0  0  0  0  0  0  0
   -1.4947   -0.0905   -3.2282 C   0  0  0  0  0  0  0  0  0  0  0  0
   -1.3563    0.6251    0.2109 C   0  0  0  0  0  0  0  0  0  0  0  0
   -2.4613    1.0932   -0.0368 O   0  0  0  0  0  0  0  0  0  0  0  0
   -0.5299    1.3587    1.0454 N   0  0  0  0  0  0  0  0  0  0  0  0
    0.3325    0.9218    1.3561 H   0  0  0  0  0  0  0  0  0  0  0  0
   -0.8364    2.7109    1.4974 C   0  0  0  0  0  0  0  0  0  0  0  0
   -1.7459    2.7141    2.1073 H   0  0  0  0  0  0  0  0  0  0  0  0
   -0.0133    3.1031    2.1020 H   0  0  0  0  0  0  0  0  0  0  0  0
   -0.9830    3.3776    0.6412 H   0  0  0  0  0  0  0  0  0  0  0  0
  1  2  1  0  0  0  0
  2  3  1  0  0  0  0
  2  4  1  0  0  0  0
  2  5  1  0  0  0  0
  5  6  2  0  0  0  0
  5  7  1  0  0  0  0
  7  8  1  0  0  0  0
  7  9  1  0  0  0  0
  9 10  1  0  0  0  0
  9 11  1  0  0  0  0
  9 29  1  0  0  0  0
 11 12  1  0  0  0  0
 11 13  1  0  0  0  0
 11 14  1  0  0  0  0
 14 15  2  0  0  0  0
 14 28  1  0  0  0  0
 15 16  1  0  0  0  0
 15 17  1  0  0  0  0
 17 18  1  0  0  0  0
 17 19  1  0  0  0  0
 19 20  1  0  0  0  0
 19 28  2  0  0  0  0
 20 21  1  0  0  0  0
 20 22  2  0  0  0  0
 22 23  1  0  0  0  0
 22 24  1  0  0  0  0
 24 25  1  0  0  0  0
 24 26  2  0  0  0  0
 26 27  1  0  0  0  0
 26 28  1  0  0  0  0
 29 30  2  0  0  0  0
 29 31  1  0  0  0  0
 31 32  1  0  0  0  0
 31 33  1  0  0  0  0
 33 34  1  0  0  0  0
 33 35  1  0  0  0  0
 33 36  1  0  0  0  0
M  END
$$$$

  -OEChem-03222214083D

 36 37  0     1  0  0  0  0  0999 V2000
   -3.5817   -4.9319    0.7220 H   0  0  0  0  0  0  0  0  0  0  0  0
   -3.7463   -3.9149    0.3553 C   0  0  0  0  0  0  0  0  0  0  0  0
   -4.4839   -3.4245    0.9950 H   0  0  0  0  0  0  0  0  0  0  0  0
   -4.1353   -3.9669   -0.6644 H   0  0  0  0  0  0  0  0  0  0  0  0
   -2.4454   -3.1351    0.3742 C   0  0  0  0  0  0  0  0  0  0  0  0
   -1.4275   -3.6539    0.8059 O   0  0  0  0  0  0  0  0  0  0  0  0
   -2.4174   -1.8416   -0.1030 N   0  0  0  0  0  0  0  0  0  0  0  0
   -3.3126   -1.4203   -0.3446 H   0  0  0  0  0  0  0  0  0  0  0  0
   -1.2764   -0.9193    0.0205 C   0  0  1  0  0  0  0  0  0  0  0  0
   -0.7765   -1.2722    0.9286 H   0  0  0  0  0  0  0  0  0  0  0  0
   -0.1807   -1.1378   -1.0500 C   0  0  0  0  0  0  0  0  0  0  0  0
    0.7725   -1.1330   -0.5111 H   0  0  0  0  0  0  0  0  0  0  0  0
   -0.3069   -2.1534   -1.4398 H   0  0  0  0  0  0  0  0  0  0  0  0
    0.0284   -0.2247   -2.2490 C   0  0  0  0  0  0  0  0  0  0  0  0
    1.0586   -0.5652   -3.0983 C   0  0  0  0  0  0  0  0  0  0  0  0
    1.7567   -1.3836   -2.9347 H   0  0  0  0  0  0  0  0  0  0  0  0
    1.0801    0.3230   -4.1614 N   0  0  0  0  0  0  0  0  0  0  0  0
    1.7452    0.3103   -4.9317 H   0  0  0  0  0  0  0  0  0  0  0  0
    0.0052    1.1804   -4.0715 C   0  0  0  0  0  0  0  0  0  0  0  0
   -0.3854    2.1829   -4.9585 C   0  0  0  0  0  0  0  0  0  0  0  0
    0.2150    2.4065   -5.8331 H   0  0  0  0  0  0  0  0  0  0  0  0
   -1.5699    2.8819   -4.7126 C   0  0  0  0  0  0  0  0  0  0  0  0
   -1.8934    3.6666   -5.3898 H   0  0  0  0  0  0  0  0  0  0  0  0
   -2.3530    2.5423   -3.6043 C   0  0  0  0  0  0  0  0  0  0  0  0
   -3.2917    3.0576   -3.4235 H   0  0  0  0  0  0  0  0  0  0  0  0
   -1.9423    1.5261   -2.7300 C   0  0  0  0  0  0  0  0  0  0  0  0
   -2.6094    1.2584   -1.9295 H   0  0  0  0  0  0  0  0  0  0  0  0
   -0.7249    0.8567   -2.9241 C   0  0  0  0  0  0  0  0  0  0  0  0
   -1.6446    0.5123    0.4606 C   0  0  0  0  0  0  0  0  0  0  0  0
   -2.8068    0.8882    0.3440 O   0  0  0  0  0  0  0  0  0  0  0  0
   -0.8865    1.1445    1.4317 N   0  0  0  0  0  0  0  0  0  0  0  0
    0.0382    0.7693    1.6205 H   0  0  0  0  0  0  0  0  0  0  0  0
   -1.3010    2.3655    2.1134 C   0  0  0  0  0  0  0  0  0  0  0  0
   -2.2020    2.1855    2.7093 H   0  0  0  0  0  0  0  0  0  0  0  0
   -0.5080    2.7123    2.7827 H   0  0  0  0  0  0  0  0  0  0  0  0
   -1.5104    3.1576    1.3868 H   0  0  0  0  0  0  0  0  0  0  0  0
  1  2  1  0  0  0  0
  2  3  1  0  0  0  0
  2  4  1  0  0  0  0
  2  5  1  0  0  0  0
  5  6  2  0  0  0  0
  5  7  1  0  0  0  0
  7  8  1  0  0  0  0
  7  9  1  0  0  0  0
  9 10  1  0  0  0  0
  9 11  1  0  0  0  0
  9 29  1  0  0  0  0
 11 12  1  0  0  0  0
 11 13  1  0  0  0  0
 11 14  1  0  0  0  0
 14 15  2  0  0  0  0
 14 28  1  0  0  0  0
 15 16  1  0  0  0  0
 15 17  1  0  0  0  0
 17 18  1  0  0  0  0
 17 19  1  0  0  0  0
 19 20  1  0  0  0  0
 19 28  2  0  0  0  0
 20 21  1  0  0  0  0
 20 22  2  0  0  0  0
 22 23  1  0  0  0  0
 22 24  1  0  0  0  0
 24 25  1  0  0  0  0
 24 26  2  0  0  0  0
 26 27  1  0  0  0  0
 26 28  1  0  0  0  0
 29 30  2  0  0  0  0
 29 31  1  0  0  0  0
 31 32  1  0  0  0  0
 31 33  1  0  0  0  0
 33 34  1  0  0  0  0
 33 35  1  0  0  0  0
 33 36  1  0  0  0  0
M  END
$$$$

  -OEChem-03222214083D

 36 37  0     1  0  0  0  0  0999 V2000
   -3.2327   -4.9392    1.3057 H   0  0  0  0  0  0  0  0  0  0  0  0
   -3.4349   -3.9943    0.7937 C   0  0  0  0  0  0  0  0  0  0  0  0
   -4.2276   -3.4657    1.3286 H   0  0  0  0  0  0  0  0  0  0  0  0
   -3.7725   -4.2104   -0.2229 H   0  0  0  0  0  0  0  0  0  0  0  0
   -2.1805   -3.1422    0.7540 C   0  0  0  0  0  0  0  0  0  0  0  0
   -1.1605   -3.5265    1.3038 O   0  0  0  0  0  0  0  0  0  0  0  0
   -2.1927   -1.9349    0.0899 N   0  0  0  0  0  0  0  0  0  0  0  0
   -3.0874   -1.6044   -0.2708 H   0  0  0  0  0  0  0  0  0  0  0  0
   -1.0883   -0.9612    0.0857 C   0  0  1  0  0  0  0  0  0  0  0  0
   -0.4424   -1.1595    0.9472 H   0  0  0  0  0  0  0  0  0  0  0  0
   -0.2477   -1.2577   -1.1876 C   0  0  0  0  0  0  0  0  0  0  0  0
    0.7953   -1.2106   -0.8596 H   0  0  0  0  0  0  0  0  0  0  0  0
   -0.4190   -2.2972   -1.4875 H   0  0  0  0  0  0  0  0  0  0  0  0
   -0.2995   -0.3777   -2.4303 C   0  0  0  0  0  0  0  0  0  0  0  0
   -0.0835   -0.9968   -3.6430 C   0  0  0  0  0  0  0  0  0  0  0  0
    0.0202   -2.0702   -3.7857 H   0  0  0  0  0  0  0  0  0  0  0  0
   -0.0573   -0.0396   -4.6444 N   0  0  0  0  0  0  0  0  0  0  0  0
    0.0573   -0.2233   -5.6387 H   0  0  0  0  0  0  0  0  0  0  0  0
   -0.1355    1.2170   -4.0859 C   0  0  0  0  0  0  0  0  0  0  0  0
   -0.0751    2.4576   -4.7191 C   0  0  0  0  0  0  0  0  0  0  0  0
   -0.0105    2.5195   -5.7995 H   0  0  0  0  0  0  0  0  0  0  0  0
   -0.0815    3.6175   -3.9402 C   0  0  0  0  0  0  0  0  0  0  0  0
   -0.0360    4.5940   -4.4129 H   0  0  0  0  0  0  0  0  0  0  0  0
   -0.1193    3.5118   -2.5458 C   0  0  0  0  0  0  0  0  0  0  0  0
   -0.0951    4.4089   -1.9350 H   0  0  0  0  0  0  0  0  0  0  0  0
   -0.1786    2.2526   -1.9318 C   0  0  0  0  0  0  0  0  0  0  0  0
   -0.1567    2.2176   -0.8569 H   0  0  0  0  0  0  0  0  0  0  0  0
   -0.2334    1.0785   -2.6988 C   0  0  0  0  0  0  0  0  0  0  0  0
   -1.6662    0.4468    0.3142 C   0  0  0  0  0  0  0  0  0  0  0  0
   -2.7730    0.7412   -0.1255 O   0  0  0  0  0  0  0  0  0  0  0  0
   -1.0519    1.3052    1.2114 N   0  0  0  0  0  0  0  0  0  0  0  0
   -0.2033    0.9795    1.6656 H   0  0  0  0  0  0  0  0  0  0  0  0
   -1.6520    2.5577    1.6557 C   0  0  0  0  0  0  0  0  0  0  0  0
   -2.5588    2.3617    2.2373 H   0  0  0  0  0  0  0  0  0  0  0  0
   -0.9483    3.1117    2.2843 H   0  0  0  0  0  0  0  0  0  0  0  0
   -1.9132    3.1855    0.7970 H   0  0  0  0  0  0  0  0  0  0  0  0
  1  2  1  0  0  0  0
  2  3  1  0  0  0  0
  2  4  1  0  0  0  0
  2  5  1  0  0  0  0
  5  6  2  0  0  0  0
  5  7  1  0  0  0  0
  7  8  1  0  0  0  0
  7  9  1  0  0  0  0
  9 10  1  0  0  0  0
  9 11  1  0  0  0  0
  9 29  1  0  0  0  0
 11 12  1  0  0  0  0
 11 13  1  0  0  0  0
 11 14  1  0  0  0  0
 14 15  2  0  0  0  0
 14 28  1  0  0  0  0
 15 16  1  0  0  0  0
 15 17  1  0  0  0  0
 17 18  1  0  0  0  0
 17 19  1  0  0  0  0
 19 20  1  0  0  0  0
 19 28  2  0  0  0  0
 20 21  1  0  0  0  0
 20 22  2  0  0  0  0
 22 23  1  0  0  0  0
 22 24  1  0  0  0  0
 24 25  1  0  0  0  0
 24 26  2  0  0  0  0
 26 27  1  0  0  0  0
 26 28  1  0  0  0  0
 29 30  2  0  0  0  0
 29 31  1  0  0  0  0
 31 32  1  0  0  0  0
 31 33  1  0  0  0  0
 33 34  1  0  0  0  0
 33 35  1  0  0  0  0
 33 36  1  0  0  0  0
M  END
$$$$

  -OEChem-03222214083D

 36 37  0     1  0  0  0  0  0999 V2000
   -3.3352   -4.8195    1.4508 H   0  0  0  0  0  0  0  0  0  0  0  0
   -3.4691   -3.9603    0.7877 C   0  0  0  0  0  0  0  0  0  0  0  0
   -4.3165   -3.3693    1.1434 H   0  0  0  0  0  0  0  0  0  0  0  0
   -3.6841   -4.3231   -0.2202 H   0  0  0  0  0  0  0  0  0  0  0  0
   -2.2136   -3.1090    0.7732 C   0  0  0  0  0  0  0  0  0  0  0  0
   -1.2353   -3.4478    1.4198 O   0  0  0  0  0  0  0  0  0  0  0  0
   -2.1790   -1.9527    0.0248 N   0  0  0  0  0  0  0  0  0  0  0  0
   -3.0482   -1.6498   -0.4142 H   0  0  0  0  0  0  0  0  0  0  0  0
   -1.0840   -0.9688    0.0465 C   0  0  1  0  0  0  0  0  0  0  0  0
   -0.4906   -1.1019    0.9567 H   0  0  0  0  0  0  0  0  0  0  0  0
   -0.1714   -1.2928   -1.1681 C   0  0  0  0  0  0  0  0  0  0  0  0
    0.8604   -1.2400   -0.8072 H   0  0  0  0  0  0  0  0  0  0  0  0
   -0.3320   -2.3298   -1.4811 H   0  0  0  0  0  0  0  0  0  0  0  0
   -0.2364   -0.3905   -2.3834 C   0  0  0  0  0  0  0  0  0  0  0  0
   -0.3017   -0.9077   -3.6573 C   0  0  0  0  0  0  0  0  0  0  0  0
   -0.4447   -1.9585   -3.8990 H   0  0  0  0  0  0  0  0  0  0  0  0
   -0.1796    0.1360   -4.5662 N   0  0  0  0  0  0  0  0  0  0  0  0
   -0.2214    0.0464   -5.5789 H   0  0  0  0  0  0  0  0  0  0  0  0
    0.0991    1.3114   -3.8976 C   0  0  0  0  0  0  0  0  0  0  0  0
    0.3818    2.5843   -4.3920 C   0  0  0  0  0  0  0  0  0  0  0  0
    0.3407    2.7791   -5.4578 H   0  0  0  0  0  0  0  0  0  0  0  0
    0.7393    3.5982   -3.4957 C   0  0  0  0  0  0  0  0  0  0  0  0
    0.9634    4.5950   -3.8637 H   0  0  0  0  0  0  0  0  0  0  0  0
    0.8357    3.3158   -2.1266 C   0  0  0  0  0  0  0  0  0  0  0  0
    1.1445    4.0932   -1.4347 H   0  0  0  0  0  0  0  0  0  0  0  0
    0.5473    2.0293   -1.6487 C   0  0  0  0  0  0  0  0  0  0  0  0
    0.6728    1.8147   -0.5967 H   0  0  0  0  0  0  0  0  0  0  0  0
    0.1290    1.0271   -2.5340 C   0  0  0  0  0  0  0  0  0  0  0  0
   -1.7101    0.4411    0.1241 C   0  0  0  0  0  0  0  0  0  0  0  0
   -2.7780    0.6721   -0.4356 O   0  0  0  0  0  0  0  0  0  0  0  0
   -1.2034    1.3830    1.0032 N   0  0  0  0  0  0  0  0  0  0  0  0
   -0.3944    1.1214    1.5586 H   0  0  0  0  0  0  0  0  0  0  0  0
   -1.8262    2.6817    1.2285 C   0  0  0  0  0  0  0  0  0  0  0  0
   -2.8234    2.5582    1.6636 H   0  0  0  0  0  0  0  0  0  0  0  0
   -1.2192    3.2779    1.9165 H   0  0  0  0  0  0  0  0  0  0  0  0
   -1.9182    3.2312    0.2853 H   0  0  0  0  0  0  0  0  0  0  0  0
  1  2  1  0  0  0  0
  2  3  1  0  0  0  0
  2  4  1  0  0  0  0
  2  5  1  0  0  0  0
  5  6  2  0  0  0  0
  5  7  1  0  0  0  0
  7  8  1  0  0  0  0
  7  9  1  0  0  0  0
  9 10  1  0  0  0  0
  9 11  1  0  0  0  0
  9 29  1  0  0  0  0
 11 12  1  0  0  0  0
 11 13  1  0  0  0  0
 11 14  1  0  0  0  0
 14 15  2  0  0  0  0
 14 28  1  0  0  0  0
 15 16  1  0  0  0  0
 15 17  1  0  0  0  0
 17 18  1  0  0  0  0
 17 19  1  0  0  0  0
 19 20  1  0  0  0  0
 19 28  2  0  0  0  0
 20 21  1  0  0  0  0
 20 22  2  0  0  0  0
 22 23  1  0  0  0  0
 22 24  1  0  0  0  0
 24 25  1  0  0  0  0
 24 26  2  0  0  0  0
 26 27  1  0  0  0  0
 26 28  1  0  0  0  0
 29 30  2  0  0  0  0
 29 31  1  0  0  0  0
 31 32  1  0  0  0  0
 31 33  1  0  0  0  0
 33 34  1  0  0  0  0
 33 35  1  0  0  0  0
 33 36  1  0  0  0  0
M  END
$$$$

  -OEChem-03222214083D

 36 37  0     1  0  0  0  0  0999 V2000
   -3.4930   -4.6966    1.4712 H   0  0  0  0  0  0  0  0  0  0  0  0
   -3.5633   -3.8741    0.7540 C   0  0  0  0  0  0  0  0  0  0  0  0
   -4.4096   -3.2393    1.0271 H   0  0  0  0  0  0  0  0  0  0  0  0
   -3.7339   -4.2890   -0.2423 H   0  0  0  0  0  0  0  0  0  0  0  0
   -2.2829   -3.0612    0.7629 C   0  0  0  0  0  0  0  0  0  0  0  0
   -1.3417   -3.4083    1.4584 O   0  0  0  0  0  0  0  0  0  0  0  0
   -2.1826   -1.9347   -0.0242 N   0  0  0  0  0  0  0  0  0  0  0  0
   -3.0280   -1.6154   -0.4964 H   0  0  0  0  0  0  0  0  0  0  0  0
   -1.0628   -0.9811    0.0143 C   0  0  1  0  0  0  0  0  0  0  0  0
   -0.5247   -1.1014    0.9598 H   0  0  0  0  0  0  0  0  0  0  0  0
   -0.0809   -1.3399   -1.1306 C   0  0  0  0  0  0  0  0  0  0  0  0
    0.9336   -1.3080   -0.7215 H   0  0  0  0  0  0  0  0  0  0  0  0
   -0.2527   -2.3730   -1.4512 H   0  0  0  0  0  0  0  0  0  0  0  0
   -0.1000   -0.4325   -2.3388 C   0  0  0  0  0  0  0  0  0  0  0  0
   -0.4016   -0.8552   -3.6116 C   0  0  0  0  0  0  0  0  0  0  0  0
   -0.7519   -1.8501   -3.8769 H   0  0  0  0  0  0  0  0  0  0  0  0
   -0.1911    0.2100   -4.4818 N   0  0  0  0  0  0  0  0  0  0  0  0
   -0.3600    0.1943   -5.4850 H   0  0  0  0  0  0  0  0  0  0  0  0
    0.3236    1.2942   -3.7937 C   0  0  0  0  0  0  0  0  0  0  0  0
    0.7349    2.5509   -4.2373 C   0  0  0  0  0  0  0  0  0  0  0  0
    0.6401    2.8189   -5.2836 H   0  0  0  0  0  0  0  0  0  0  0  0
    1.2814    3.4543   -3.3164 C   0  0  0  0  0  0  0  0  0  0  0  0
    1.6055    4.4365   -3.6470 H   0  0  0  0  0  0  0  0  0  0  0  0
    1.4247    3.0834   -1.9715 C   0  0  0  0  0  0  0  0  0  0  0  0
    1.8637    3.7786   -1.2624 H   0  0  0  0  0  0  0  0  0  0  0  0
    1.0081    1.8157   -1.5409 C   0  0  0  0  0  0  0  0  0  0  0  0
    1.1407    1.5245   -0.5062 H   0  0  0  0  0  0  0  0  0  0  0  0
    0.4286    0.9284   -2.4555 C   0  0  0  0  0  0  0  0  0  0  0  0
   -1.6293    0.4565    0.0132 C   0  0  0  0  0  0  0  0  0  0  0  0
   -2.6690    0.7038   -0.5912 O   0  0  0  0  0  0  0  0  0  0  0  0
   -1.1215    1.4091    0.8793 N   0  0  0  0  0  0  0  0  0  0  0  0
   -0.3131    1.1554    1.4385 H   0  0  0  0  0  0  0  0  0  0  0  0
   -1.6586    2.7599    0.9842 C   0  0  0  0  0  0  0  0  0  0  0  0
   -2.7005    2.7336    1.3202 H   0  0  0  0  0  0  0  0  0  0  0  0
   -1.0776    3.3429    1.7051 H   0  0  0  0  0  0  0  0  0  0  0  0
   -1.6130    3.2658    0.0136 H   0  0  0  0  0  0  0  0  0  0  0  0
  1  2  1  0  0  0  0
  2  3  1  0  0  0  0
  2  4  1  0  0  0  0
  2  5  1  0  0  0  0
  5  6  2  0  0  0  0
  5  7  1  0  0  0  0
  7  8  1  0  0  0  0
  7  9  1  0  0  0  0
  9 10  1  0  0  0  0
  9 11  1  0  0  0  0
  9 29  1  0  0  0  0
 11 12  1  0  0  0  0
 11 13  1  0  0  0  0
 11 14  1  0  0  0  0
 14 15  2  0  0  0  0
 14 28  1  0  0  0  0
 15 16  1  0  0  0  0
 15 17  1  0  0  0  0
 17 18  1  0  0  0  0
 17 19  1  0  0  0  0
 19 20  1  0  0  0  0
 19 28  2  0  0  0  0
 20 21  1  0  0  0  0
 20 22  2  0  0  0  0
 22 23  1  0  0  0  0
 22 24  1  0  0  0  0
 24 25  1  0  0  0  0
 24 26  2  0  0  0  0
 26 27  1  0  0  0  0
 26 28  1  0  0  0  0
 29 30  2  0  0  0  0
 29 31  1  0  0  0  0
 31 32  1  0  0  0  0
 31 33  1  0  0  0  0
 33 34  1  0  0  0  0
 33 35  1  0  0  0  0
 33 36  1  0  0  0  0
M  END
$$$$

  -OEChem-03222214083D

 36 37  0     1  0  0  0  0  0999 V2000
   -3.6113   -4.5843    1.5156 H   0  0  0  0  0  0  0  0  0  0  0  0
   -3.6379   -3.7929    0.7613 C   0  0  0  0  0  0  0  0  0  0  0  0
   -4.4601   -3.1122    0.9947 H   0  0  0  0  0  0  0  0  0  0  0  0
   -3.8145   -4.2444   -0.2179 H   0  0  0  0  0  0  0  0  0  0  0  0
   -2.3240   -3.0347    0.7525 C   0  0  0  0  0  0  0  0  0  0  0  0
   -1.4027   -3.3990    1.4656 O   0  0  0  0  0  0  0  0  0  0  0  0
   -2.1738   -1.9335   -0.0622 N   0  0  0  0  0  0  0  0  0  0  0  0
   -3.0049   -1.5915   -0.5432 H   0  0  0  0  0  0  0  0  0  0  0  0
   -1.0245   -1.0152   -0.0237 C   0  0  1  0  0  0  0  0  0  0  0  0
   -0.5196   -1.1306    0.9406 H   0  0  0  0  0  0  0  0  0  0  0  0
   -0.0063   -1.4074   -1.1215 C   0  0  0  0  0  0  0  0  0  0  0  0
    0.9970   -1.3996   -0.6845 H   0  0  0  0  0  0  0  0  0  0  0  0
   -0.1980   -2.4354   -1.4456 H   0  0  0  0  0  0  0  0  0  0  0  0
    0.0085   -0.4996   -2.3264 C   0  0  0  0  0  0  0  0  0  0  0  0
   -0.5263   -0.7982   -3.5559 C   0  0  0  0  0  0  0  0  0  0  0  0
   -1.0689   -1.7076   -3.8035 H   0  0  0  0  0  0  0  0  0  0  0  0
   -0.2580    0.2720   -4.4061 N   0  0  0  0  0  0  0  0  0  0  0  0
   -0.5645    0.3458   -5.3734 H   0  0  0  0  0  0  0  0  0  0  0  0
    0.4751    1.2426   -3.7436 C   0  0  0  0  0  0  0  0  0  0  0  0
    0.9864    2.4692   -4.1681 C   0  0  0  0  0  0  0  0  0  0  0  0
    0.8163    2.8101   -5.1833 H   0  0  0  0  0  0  0  0  0  0  0  0
    1.7240    3.2505   -3.2676 C   0  0  0  0  0  0  0  0  0  0  0  0
    2.1268    4.2078   -3.5845 H   0  0  0  0  0  0  0  0  0  0  0  0
    1.9473    2.7941   -1.9598 C   0  0  0  0  0  0  0  0  0  0  0  0
    2.5253    3.3981   -1.2672 H   0  0  0  0  0  0  0  0  0  0  0  0
    1.4280    1.5594   -1.5455 C   0  0  0  0  0  0  0  0  0  0  0  0
    1.6042    1.2009   -0.5378 H   0  0  0  0  0  0  0  0  0  0  0  0
    0.6791    0.7922   -2.4443 C   0  0  0  0  0  0  0  0  0  0  0  0
   -1.5222    0.4470   -0.0727 C   0  0  0  0  0  0  0  0  0  0  0  0
   -2.5409    0.7224   -0.7008 O   0  0  0  0  0  0  0  0  0  0  0  0
   -0.9865    1.3964    0.7796 N   0  0  0  0  0  0  0  0  0  0  0  0
   -0.1631    1.1355    1.3127 H   0  0  0  0  0  0  0  0  0  0  0  0
   -1.4081    2.7913    0.7754 C   0  0  0  0  0  0  0  0  0  0  0  0
   -2.4768    2.8710    0.9996 H   0  0  0  0  0  0  0  0  0  0  0  0
   -0.8545    3.3558    1.5315 H   0  0  0  0  0  0  0  0  0  0  0  0
   -1.2178    3.2434   -0.2039 H   0  0  0  0  0  0  0  0  0  0  0  0
  1  2  1  0  0  0  0
  2  3  1  0  0  0  0
  2  4  1  0  0  0  0
  2  5  1  0  0  0  0
  5  6  2  0  0  0  0
  5  7  1  0  0  0  0
  7  8  1  0  0  0  0
  7  9  1  0  0  0  0
  9 10  1  0  0  0  0
  9 11  1  0  0  0  0
  9 29  1  0  0  0  0
 11 12  1  0  0  0  0
 11 13  1  0  0  0  0
 11 14  1  0  0  0  0
 14 15  2  0  0  0  0
 14 28  1  0  0  0  0
 15 16  1  0  0  0  0
 15 17  1  0  0  0  0
 17 18  1  0  0  0  0
 17 19  1  0  0  0  0
 19 20  1  0  0  0  0
 19 28  2  0  0  0  0
 20 21  1  0  0  0  0
 20 22  2  0  0  0  0
 22 23  1  0  0  0  0
 22 24  1  0  0  0  0
 24 25  1  0  0  0  0
 24 26  2  0  0  0  0
 26 27  1  0  0  0  0
 26 28  1  0  0  0  0
 29 30  2  0  0  0  0
 29 31  1  0  0  0  0
 31 32  1  0  0  0  0
 31 33  1  0  0  0  0
 33 34  1  0  0  0  0
 33 35  1  0  0  0  0
 33 36  1  0  0  0  0
M  END
$$$$

  -OEChem-03222214083D

 36 37  0     1  0  0  0  0  0999 V2000
   -3.6758   -4.5158    1.5351 H   0  0  0  0  0  0  0  0  0  0  0  0
   -3.6858   -3.7260    0.7786 C   0  0  0  0  0  0  0  0  0  0  0  0
   -4.4815   -3.0173    1.0209 H   0  0  0  0  0  0  0  0  0  0  0  0
   -3.8905   -4.1741   -0.1966 H   0  0  0  0  0  0  0  0  0  0  0  0
   -2.3470   -3.0131    0.7498 C   0  0  0  0  0  0  0  0  0  0  0  0
   -1.4367   -3.3941    1.4681 O   0  0  0  0  0  0  0  0  0  0  0  0
   -2.1625   -1.9337   -0.0872 N   0  0  0  0  0  0  0  0  0  0  0  0
   -2.9849   -1.5714   -0.5678 H   0  0  0  0  0  0  0  0  0  0  0  0
   -0.9875   -1.0481   -0.0591 C   0  0  1  0  0  0  0  0  0  0  0  0
   -0.4966   -1.1593    0.9130 H   0  0  0  0  0  0  0  0  0  0  0  0
    0.0392   -1.4740   -1.1340 C   0  0  0  0  0  0  0  0  0  0  0  0
    1.0378   -1.4902   -0.6873 H   0  0  0  0  0  0  0  0  0  0  0  0
   -0.1755   -2.4973   -1.4583 H   0  0  0  0  0  0  0  0  0  0  0  0
    0.0721   -0.5696   -2.3389 C   0  0  0  0  0  0  0  0  0  0  0  0
   -0.6833   -0.7096   -3.4768 C   0  0  0  0  0  0  0  0  0  0  0  0
   -1.4130   -1.4956   -3.6566 H   0  0  0  0  0  0  0  0  0  0  0  0
   -0.3584    0.3434   -4.3292 N   0  0  0  0  0  0  0  0  0  0  0  0
   -0.7882    0.5198   -5.2344 H   0  0  0  0  0  0  0  0  0  0  0  0
    0.5971    1.1604   -3.7465 C   0  0  0  0  0  0  0  0  0  0  0  0
    1.2204    2.3260   -4.1924 C   0  0  0  0  0  0  0  0  0  0  0  0
    0.9717    2.7403   -5.1631 H   0  0  0  0  0  0  0  0  0  0  0  0
    2.1691    2.9511   -3.3708 C   0  0  0  0  0  0  0  0  0  0  0  0
    2.6616    3.8591   -3.7062 H   0  0  0  0  0  0  0  0  0  0  0  0
    2.4838    2.4040   -2.1173 C   0  0  0  0  0  0  0  0  0  0  0  0
    3.2214    2.8888   -1.4850 H   0  0  0  0  0  0  0  0  0  0  0  0
    1.8498    1.2327   -1.6791 C   0  0  0  0  0  0  0  0  0  0  0  0
    2.0921    0.8050   -0.7126 H   0  0  0  0  0  0  0  0  0  0  0  0
    0.9012    0.6184   -2.5033 C   0  0  0  0  0  0  0  0  0  0  0  0
   -1.4340    0.4299   -0.1407 C   0  0  0  0  0  0  0  0  0  0  0  0
   -2.4464    0.7229   -0.7719 O   0  0  0  0  0  0  0  0  0  0  0  0
   -0.8711    1.3779    0.6951 N   0  0  0  0  0  0  0  0  0  0  0  0
   -0.0350    1.1102    1.2048 H   0  0  0  0  0  0  0  0  0  0  0  0
   -1.2422    2.7865    0.6516 C   0  0  0  0  0  0  0  0  0  0  0  0
   -2.3102    2.9092    0.8594 H   0  0  0  0  0  0  0  0  0  0  0  0
   -0.6790    3.3499    1.4017 H   0  0  0  0  0  0  0  0  0  0  0  0
   -1.0234    3.2071   -0.3357 H   0  0  0  0  0  0  0  0  0  0  0  0
  1  2  1  0  0  0  0
  2  3  1  0  0  0  0
  2  4  1  0  0  0  0
  2  5  1  0  0  0  0
  5  6  2  0  0  0  0
  5  7  1  0  0  0  0
  7  8  1  0  0  0  0
  7  9  1  0  0  0  0
  9 10  1  0  0  0  0
  9 11  1  0  0  0  0
  9 29  1  0  0  0  0
 11 12  1  0  0  0  0
 11 13  1  0  0  0  0
 11 14  1  0  0  0  0
 14 15  2  0  0  0  0
 14 28  1  0  0  0  0
 15 16  1  0  0  0  0
 15 17  1  0  0  0  0
 17 18  1  0  0  0  0
 17 19  1  0  0  0  0
 19 20  1  0  0  0  0
 19 28  2  0  0  0  0
 20 21  1  0  0  0  0
 20 22  2  0  0  0  0
 22 23  1  0  0  0  0
 22 24  1  0  0  0  0
 24 25  1  0  0  0  0
 24 26  2  0  0  0  0
 26 27  1  0  0  0  0
 26 28  1  0  0  0  0
 29 30  2  0  0  0  0
 29 31  1  0  0  0  0
 31 32  1  0  0  0  0
 31 33  1  0  0  0  0
 33 34  1  0  0  0  0
 33 35  1  0  0  0  0
 33 36  1  0  0  0  0
M  END
$$$$

  -OEChem-03222214083D

 36 37  0     1  0  0  0  0  0999 V2000
   -3.6946   -4.5010    1.5346 H   0  0  0  0  0  0  0  0  0  0  0  0
   -3.6994   -3.7118    0.7776 C   0  0  0  0  0  0  0  0  0  0  0  0
   -4.4871   -2.9951    1.0224 H   0  0  0  0  0  0  0  0  0  0  0  0
   -3.9122   -4.1585   -0.1966 H   0  0  0  0  0  0  0  0  0  0  0  0
   -2.3536   -3.0122    0.7424 C   0  0  0  0  0  0  0  0  0  0  0  0
   -1.4425   -3.4021    1.4550 O   0  0  0  0  0  0  0  0  0  0  0  0
   -2.1655   -1.9330   -0.0942 N   0  0  0  0  0  0  0  0  0  0  0  0
   -2.9903   -1.5608   -0.5628 H   0  0  0  0  0  0  0  0  0  0  0  0
   -0.9840   -1.0557   -0.0699 C   0  0  1  0  0  0  0  0  0  0  0  0
   -0.4942   -1.1716    0.9021 H   0  0  0  0  0  0  0  0  0  0  0  0
    0.0426   -1.4868   -1.1416 C   0  0  0  0  0  0  0  0  0  0  0  0
    1.0376   -1.5091   -0.6879 H   0  0  0  0  0  0  0  0  0  0  0  0
   -0.1753   -2.5090   -1.4671 H   0  0  0  0  0  0  0  0  0  0  0  0
    0.0839   -0.5854   -2.3493 C   0  0  0  0  0  0  0  0  0  0  0  0
   -0.8478   -0.5400   -3.3577 C   0  0  0  0  0  0  0  0  0  0  0  0
   -1.7409   -1.1576   -3.4192 H   0  0  0  0  0  0  0  0  0  0  0  0
   -0.4539    0.4536   -4.2508 N   0  0  0  0  0  0  0  0  0  0  0  0
   -0.9747    0.7389   -5.0771 H   0  0  0  0  0  0  0  0  0  0  0  0
    0.7177    1.0539   -3.8196 C   0  0  0  0  0  0  0  0  0  0  0  0
    1.4805    2.0909   -4.3564 C   0  0  0  0  0  0  0  0  0  0  0  0
    1.1753    2.5725   -5.2788 H   0  0  0  0  0  0  0  0  0  0  0  0
    2.6431    2.5008   -3.6885 C   0  0  0  0  0  0  0  0  0  0  0  0
    3.2470    3.3062   -4.0962 H   0  0  0  0  0  0  0  0  0  0  0  0
    3.0277    1.8710   -2.4949 C   0  0  0  0  0  0  0  0  0  0  0  0
    3.9303    2.1887   -1.9819 H   0  0  0  0  0  0  0  0  0  0  0  0
    2.2510    0.8316   -1.9630 C   0  0  0  0  0  0  0  0  0  0  0  0
    2.5480    0.3425   -1.0416 H   0  0  0  0  0  0  0  0  0  0  0  0
    1.0916    0.4291   -2.6352 C   0  0  0  0  0  0  0  0  0  0  0  0
   -1.4138    0.4272   -0.1475 C   0  0  0  0  0  0  0  0  0  0  0  0
   -2.4330    0.7285   -0.7642 O   0  0  0  0  0  0  0  0  0  0  0  0
   -0.8370    1.3676    0.6870 N   0  0  0  0  0  0  0  0  0  0  0  0
    0.0081    1.0954    1.1796 H   0  0  0  0  0  0  0  0  0  0  0  0
   -1.2161    2.7747    0.6753 C   0  0  0  0  0  0  0  0  0  0  0  0
   -2.2804    2.8889    0.9066 H   0  0  0  0  0  0  0  0  0  0  0  0
   -0.6405    3.3269    1.4244 H   0  0  0  0  0  0  0  0  0  0  0  0
   -1.0191    3.2144   -0.3082 H   0  0  0  0  0  0  0  0  0  0  0  0
  1  2  1  0  0  0  0
  2  3  1  0  0  0  0
  2  4  1  0  0  0  0
  2  5  1  0  0  0  0
  5  6  2  0  0  0  0
  5  7  1  0  0  0  0
  7  8  1  0  0  0  0
  7  9  1  0  0  0  0
  9 10  1  0  0  0  0
  9 11  1  0  0  0  0
  9 29  1  0  0  0  0
 11 12  1  0  0  0  0
 11 13  1  0  0  0  0
 11 14  1  0  0  0  0
 14 15  2  0  0  0  0
 14 28  1  0  0  0  0
 15 16  1  0  0  0  0
 15 17  1  0  0  0  0
 17 18  1  0  0  0  0
 17 19  1  0  0  0  0
 19 20  1  0  0  0  0
 19 28  2  0  0  0  0
 20 21  1  0  0  0  0
 20 22  2  0  0  0  0
 22 23  1  0  0  0  0
 22 24  1  0  0  0  0
 24 25  1  0  0  0  0
 24 26  2  0  0  0  0
 26 27  1  0  0  0  0
 26 28  1  0  0  0  0
 29 30  2  0  0  0  0
 29 31  1  0  0  0  0
 31 32  1  0  0  0  0
 31 33  1  0  0  0  0
 33 34  1  0  0  0  0
 33 35  1  0  0  0  0
 33 36  1  0  0  0  0
M  END
$$$$

  -OEChem-03222214083D

 36 37  0     1  0  0  0  0  0999 V2000
   -3.6633   -4.5260    1.5211 H   0  0  0  0  0  0  0  0  0  0  0  0
   -3.6892   -3.7205    0.7817 C   0  0  0  0  0  0  0  0  0  0  0  0
   -4.4701   -3.0099    1.0634 H   0  0  0  0  0  0  0  0  0  0  0  0
   -3.9277   -4.1462   -0.1960 H   0  0  0  0  0  0  0  0  0  0  0  0
   -2.3458   -3.0186    0.7264 C   0  0  0  0  0  0  0  0  0  0  0  0
   -1.4206   -3.4145    1.4170 O   0  0  0  0  0  0  0  0  0  0  0  0
   -2.1786   -1.9254   -0.0966 N   0  0  0  0  0  0  0  0  0  0  0  0
   -3.0152   -1.5495   -0.5399 H   0  0  0  0  0  0  0  0  0  0  0  0
   -1.0022   -1.0411   -0.0728 C   0  0  1  0  0  0  0  0  0  0  0  0
   -0.5067   -1.1676    0.8952 H   0  0  0  0  0  0  0  0  0  0  0  0
    0.0252   -1.4569   -1.1510 C   0  0  0  0  0  0  0  0  0  0  0  0
    1.0152   -1.4671   -0.6872 H   0  0  0  0  0  0  0  0  0  0  0  0
   -0.1759   -2.4824   -1.4769 H   0  0  0  0  0  0  0  0  0  0  0  0
    0.0764   -0.5619   -2.3662 C   0  0  0  0  0  0  0  0  0  0  0  0
   -0.9581   -0.3007   -3.2326 C   0  0  0  0  0  0  0  0  0  0  0  0
   -1.9638   -0.7074   -3.1540 H   0  0  0  0  0  0  0  0  0  0  0  0
   -0.4942    0.5981   -4.1893 N   0  0  0  0  0  0  0  0  0  0  0  0
   -1.0563    1.0004   -4.9358 H   0  0  0  0  0  0  0  0  0  0  0  0
    0.8294    0.9222   -3.9449 C   0  0  0  0  0  0  0  0  0  0  0  0
    1.7105    1.7753   -4.6091 C   0  0  0  0  0  0  0  0  0  0  0  0
    1.3837    2.3212   -5.4870 H   0  0  0  0  0  0  0  0  0  0  0  0
    3.0191    1.9156   -4.1271 C   0  0  0  0  0  0  0  0  0  0  0  0
    3.7159    2.5759   -4.6348 H   0  0  0  0  0  0  0  0  0  0  0  0
    3.4290    1.2030   -2.9899 C   0  0  0  0  0  0  0  0  0  0  0  0
    4.4438    1.3117   -2.6194 H   0  0  0  0  0  0  0  0  0  0  0  0
    2.5331    0.3495   -2.3297 C   0  0  0  0  0  0  0  0  0  0  0  0
    2.8512   -0.2021   -1.4517 H   0  0  0  0  0  0  0  0  0  0  0  0
    1.2274    0.2152   -2.8155 C   0  0  0  0  0  0  0  0  0  0  0  0
   -1.4356    0.4413   -0.1203 C   0  0  0  0  0  0  0  0  0  0  0  0
   -2.4687    0.7484   -0.7111 O   0  0  0  0  0  0  0  0  0  0  0  0
   -0.8505    1.3690    0.7222 N   0  0  0  0  0  0  0  0  0  0  0  0
    0.0019    1.0924    1.2002 H   0  0  0  0  0  0  0  0  0  0  0  0
   -1.2597    2.7669    0.7712 C   0  0  0  0  0  0  0  0  0  0  0  0
   -2.3126    2.8490    1.0612 H   0  0  0  0  0  0  0  0  0  0  0  0
   -0.6573    3.3116    1.5045 H   0  0  0  0  0  0  0  0  0  0  0  0
   -1.1250    3.2387   -0.2079 H   0  0  0  0  0  0  0  0  0  0  0  0
  1  2  1  0  0  0  0
  2  3  1  0  0  0  0
  2  4  1  0  0  0  0
  2  5  1  0  0  0  0
  5  6  2  0  0  0  0
  5  7  1  0  0  0  0
  7  8  1  0  0  0  0
  7  9  1  0  0  0  0
  9 10  1  0  0  0  0
  9 11  1  0  0  0  0
  9 29  1  0  0  0  0
 11 12  1  0  0  0  0
 11 13  1  0  0  0  0
 11 14  1  0  0  0  0
 14 15  2  0  0  0  0
 14 28  1  0  0  0  0
 15 16  1  0  0  0  0
 15 17  1  0  0  0  0
 17 18  1  0  0  0  0
 17 19  1  0  0  0  0
 19 20  1  0  0  0  0
 19 28  2  0  0  0  0
 20 21  1  0  0  0  0
 20 22  2  0  0  0  0
 22 23  1  0  0  0  0
 22 24  1  0  0  0  0
 24 25  1  0  0  0  0
 24 26  2  0  0  0  0
 26 27  1  0  0  0  0
 26 28  1  0  0  0  0
 29 30  2  0  0  0  0
 29 31  1  0  0  0  0
 31 32  1  0  0  0  0
 31 33  1  0  0  0  0
 33 34  1  0  0  0  0
 33 35  1  0  0  0  0
 33 36  1  0  0  0  0
M  END
$$$$

  -OEChem-03222214083D

 36 37  0     1  0  0  0  0  0999 V2000
   -3.5866   -4.5914    1.4656 H   0  0  0  0  0  0  0  0  0  0  0  0
   -3.6464   -3.7598    0.7580 C   0  0  0  0  0  0  0  0  0  0  0  0
   -4.4443   -3.0844    1.0759 H   0  0  0  0  0  0  0  0  0  0  0  0
   -3.8854   -4.1561   -0.2317 H   0  0  0  0  0  0  0  0  0  0  0  0
   -2.3249   -3.0166    0.7115 C   0  0  0  0  0  0  0  0  0  0  0  0
   -1.3808   -3.4068    1.3795 O   0  0  0  0  0  0  0  0  0  0  0  0
   -2.1966   -1.8984   -0.0852 N   0  0  0  0  0  0  0  0  0  0  0  0
   -3.0467   -1.5385   -0.5154 H   0  0  0  0  0  0  0  0  0  0  0  0
   -1.0345   -0.9946   -0.0738 C   0  0  1  0  0  0  0  0  0  0  0  0
   -0.5254   -1.1350    0.8855 H   0  0  0  0  0  0  0  0  0  0  0  0
   -0.0078   -1.3924   -1.1607 C   0  0  0  0  0  0  0  0  0  0  0  0
    0.9791   -1.3657   -0.6907 H   0  0  0  0  0  0  0  0  0  0  0  0
   -0.1776   -2.4284   -1.4706 H   0  0  0  0  0  0  0  0  0  0  0  0
    0.0468   -0.5202   -2.3958 C   0  0  0  0  0  0  0  0  0  0  0  0
   -1.0102   -0.0357   -3.1319 C   0  0  0  0  0  0  0  0  0  0  0  0
   -2.0626   -0.2190   -2.9242 H   0  0  0  0  0  0  0  0  0  0  0  0
   -0.4933    0.7416   -4.1647 N   0  0  0  0  0  0  0  0  0  0  0  0
   -1.0486    1.2470   -4.8517 H   0  0  0  0  0  0  0  0  0  0  0  0
    0.8892    0.7637   -4.1050 C   0  0  0  0  0  0  0  0  0  0  0  0
    1.8404    1.3987   -4.9034 C   0  0  0  0  0  0  0  0  0  0  0  0
    1.5289    2.0048   -5.7467 H   0  0  0  0  0  0  0  0  0  0  0  0
    3.2001    1.2418   -4.6015 C   0  0  0  0  0  0  0  0  0  0  0  0
    3.9516    1.7306   -5.2143 H   0  0  0  0  0  0  0  0  0  0  0  0
    3.5909    0.4522   -3.5097 C   0  0  0  0  0  0  0  0  0  0  0  0
    4.6449    0.3290   -3.2798 H   0  0  0  0  0  0  0  0  0  0  0  0
    2.6250   -0.1806   -2.7140 C   0  0  0  0  0  0  0  0  0  0  0  0
    2.9284   -0.7931   -1.8718 H   0  0  0  0  0  0  0  0  0  0  0  0
    1.2685   -0.0163   -3.0179 C   0  0  0  0  0  0  0  0  0  0  0  0
   -1.4692    0.4877   -0.0690 C   0  0  0  0  0  0  0  0  0  0  0  0
   -2.5218    0.8108   -0.6146 O   0  0  0  0  0  0  0  0  0  0  0  0
   -0.8577    1.3920    0.7800 N   0  0  0  0  0  0  0  0  0  0  0  0
    0.0036    1.0995    1.2323 H   0  0  0  0  0  0  0  0  0  0  0  0
   -1.2818    2.7806    0.9078 C   0  0  0  0  0  0  0  0  0  0  0  0
   -2.3189    2.8351    1.2550 H   0  0  0  0  0  0  0  0  0  0  0  0
   -0.6488    3.3037    1.6308 H   0  0  0  0  0  0  0  0  0  0  0  0
   -1.2047    3.2945   -0.0561 H   0  0  0  0  0  0  0  0  0  0  0  0
  1  2  1  0  0  0  0
  2  3  1  0  0  0  0
  2  4  1  0  0  0  0
  2  5  1  0  0  0  0
  5  6  2  0  0  0  0
  5  7  1  0  0  0  0
  7  8  1  0  0  0  0
  7  9  1  0  0  0  0
  9 10  1  0  0  0  0
  9 11  1  0  0  0  0
  9 29  1  0  0  0  0
 11 12  1  0  0  0  0
 11 13  1  0  0  0  0
 11 14  1  0  0  0  0
 14 15  2  0  0  0  0
 14 28  1  0  0  0  0
 15 16  1  0  0  0  0
 15 17  1  0  0  0  0
 17 18  1  0  0  0  0
 17 19  1  0  0  0  0
 19 20  1  0  0  0  0
 19 28  2  0  0  0  0
 20 21  1  0  0  0  0
 20 22  2  0  0  0  0
 22 23  1  0  0  0  0
 22 24  1  0  0  0  0
 24 25  1  0  0  0  0
 24 26  2  0  0  0  0
 26 27  1  0  0  0  0
 26 28  1  0  0  0  0
 29 30  2  0  0  0  0
 29 31  1  0  0  0  0
 31 32  1  0  0  0  0
 31 33  1  0  0  0  0
 33 34  1  0  0  0  0
 33 35  1  0  0  0  0
 33 36  1  0  0  0  0
M  END
$$$$

  -OEChem-03222214083D

 36 37  0     1  0  0  0  0  0999 V2000
   -3.4764   -4.6567    1.4051 H   0  0  0  0  0  0  0  0  0  0  0  0
   -3.5859   -3.7950    0.7406 C   0  0  0  0  0  0  0  0  0  0  0  0
   -4.3867   -3.1564    1.1213 H   0  0  0  0  0  0  0  0  0  0  0  0
   -3.8550   -4.1513   -0.2567 H   0  0  0  0  0  0  0  0  0  0  0  0
   -2.2865   -3.0150    0.6790 C   0  0  0  0  0  0  0  0  0  0  0  0
   -1.3132   -3.4010    1.3064 O   0  0  0  0  0  0  0  0  0  0  0  0
   -2.2109   -1.8672   -0.0818 N   0  0  0  0  0  0  0  0  0  0  0  0
   -3.0767   -1.5271   -0.4961 H   0  0  0  0  0  0  0  0  0  0  0  0
   -1.0667   -0.9408   -0.0889 C   0  0  1  0  0  0  0  0  0  0  0  0
   -0.5355   -1.1004    0.8551 H   0  0  0  0  0  0  0  0  0  0  0  0
   -0.0485   -1.3156   -1.1933 C   0  0  0  0  0  0  0  0  0  0  0  0
    0.9409   -1.2582   -0.7302 H   0  0  0  0  0  0  0  0  0  0  0  0
   -0.1949   -2.3596   -1.4881 H   0  0  0  0  0  0  0  0  0  0  0  0
    0.0021   -0.4679   -2.4484 C   0  0  0  0  0  0  0  0  0  0  0  0
   -1.0022    0.2400   -3.0714 C   0  0  0  0  0  0  0  0  0  0  0  0
   -2.0440    0.2797   -2.7620 H   0  0  0  0  0  0  0  0  0  0  0  0
   -0.4535    0.8868   -4.1753 N   0  0  0  0  0  0  0  0  0  0  0  0
   -0.9661    1.4902   -4.8149 H   0  0  0  0  0  0  0  0  0  0  0  0
    0.8961    0.6018   -4.2798 C   0  0  0  0  0  0  0  0  0  0  0  0
    1.8618    1.0063   -5.2019 C   0  0  0  0  0  0  0  0  0  0  0  0
    1.5952    1.6676   -6.0190 H   0  0  0  0  0  0  0  0  0  0  0  0
    3.1781    0.5466   -5.0585 C   0  0  0  0  0  0  0  0  0  0  0  0
    3.9401    0.8535   -5.7688 H   0  0  0  0  0  0  0  0  0  0  0  0
    3.5110   -0.3116   -3.9996 C   0  0  0  0  0  0  0  0  0  0  0  0
    4.5305   -0.6694   -3.8918 H   0  0  0  0  0  0  0  0  0  0  0  0
    2.5310   -0.7112   -3.0793 C   0  0  0  0  0  0  0  0  0  0  0  0
    2.7871   -1.3787   -2.2632 H   0  0  0  0  0  0  0  0  0  0  0  0
    1.2194   -0.2441   -3.2253 C   0  0  0  0  0  0  0  0  0  0  0  0
   -1.5023    0.5384   -0.0146 C   0  0  0  0  0  0  0  0  0  0  0  0
   -2.5812    0.8787   -0.4924 O   0  0  0  0  0  0  0  0  0  0  0  0
   -0.8540    1.4136    0.8379 N   0  0  0  0  0  0  0  0  0  0  0  0
    0.0175    1.1012    1.2566 H   0  0  0  0  0  0  0  0  0  0  0  0
   -1.2904    2.7860    1.0645 C   0  0  0  0  0  0  0  0  0  0  0  0
   -2.2958    2.8026    1.4984 H   0  0  0  0  0  0  0  0  0  0  0  0
   -0.6081    3.2897    1.7561 H   0  0  0  0  0  0  0  0  0  0  0  0
   -1.3029    3.3448    0.1227 H   0  0  0  0  0  0  0  0  0  0  0  0
  1  2  1  0  0  0  0
  2  3  1  0  0  0  0
  2  4  1  0  0  0  0
  2  5  1  0  0  0  0
  5  6  2  0  0  0  0
  5  7  1  0  0  0  0
  7  8  1  0  0  0  0
  7  9  1  0  0  0  0
  9 10  1  0  0  0  0
  9 11  1  0  0  0  0
  9 29  1  0  0  0  0
 11 12  1  0  0  0  0
 11 13  1  0  0  0  0
 11 14  1  0  0  0  0
 14 15  2  0  0  0  0
 14 28  1  0  0  0  0
 15 16  1  0  0  0  0
 15 17  1  0  0  0  0
 17 18  1  0  0  0  0
 17 19  1  0  0  0  0
 19 20  1  0  0  0  0
 19 28  2  0  0  0  0
 20 21  1  0  0  0  0
 20 22  2  0  0  0  0
 22 23  1  0  0  0  0
 22 24  1  0  0  0  0
 24 25  1  0  0  0  0
 24 26  2  0  0  0  0
 26 27  1  0  0  0  0
 26 28  1  0  0  0  0
 29 30  2  0  0  0  0
 29 31  1  0  0  0  0
 31 32  1  0  0  0  0
 31 33  1  0  0  0  0
 33 34  1  0  0  0  0
 33 35  1  0  0  0  0
 33 36  1  0  0  0  0
M  END
$$$$

  -OEChem-03222214083D

 36 37  0     1  0  0  0  0  0999 V2000
   -3.3678   -4.7264    1.3011 H   0  0  0  0  0  0  0  0  0  0  0  0
   -3.5155   -3.8390    0.6794 C   0  0  0  0  0  0  0  0  0  0  0  0
   -4.3231   -3.2398    1.1068 H   0  0  0  0  0  0  0  0  0  0  0  0
   -3.7987   -4.1568   -0.3270 H   0  0  0  0  0  0  0  0  0  0  0  0
   -2.2388   -3.0224    0.6240 C   0  0  0  0  0  0  0  0  0  0  0  0
   -1.2451   -3.4010    1.2235 O   0  0  0  0  0  0  0  0  0  0  0  0
   -2.2079   -1.8490   -0.0995 N   0  0  0  0  0  0  0  0  0  0  0  0
   -3.0876   -1.5236   -0.4961 H   0  0  0  0  0  0  0  0  0  0  0  0
   -1.0861   -0.8963   -0.1079 C   0  0  1  0  0  0  0  0  0  0  0  0
   -0.5362   -1.0702    0.8227 H   0  0  0  0  0  0  0  0  0  0  0  0
   -0.0737   -1.2328   -1.2313 C   0  0  0  0  0  0  0  0  0  0  0  0
    0.9194   -1.1593   -0.7774 H   0  0  0  0  0  0  0  0  0  0  0  0
   -0.2045   -2.2787   -1.5269 H   0  0  0  0  0  0  0  0  0  0  0  0
   -0.0254   -0.3927   -2.4944 C   0  0  0  0  0  0  0  0  0  0  0  0
   -0.9098    0.5246   -3.0225 C   0  0  0  0  0  0  0  0  0  0  0  0
   -1.8817    0.7957   -2.6214 H   0  0  0  0  0  0  0  0  0  0  0  0
   -0.3560    1.0364   -4.1932 N   0  0  0  0  0  0  0  0  0  0  0  0
   -0.7958    1.7296   -4.7947 H   0  0  0  0  0  0  0  0  0  0  0  0
    0.8762    0.4594   -4.4380 C   0  0  0  0  0  0  0  0  0  0  0  0
    1.8001    0.6385   -5.4678 C   0  0  0  0  0  0  0  0  0  0  0  0
    1.5985    1.3444   -6.2658 H   0  0  0  0  0  0  0  0  0  0  0  0
    2.9881   -0.1056   -5.4563 C   0  0  0  0  0  0  0  0  0  0  0  0
    3.7167    0.0233   -6.2511 H   0  0  0  0  0  0  0  0  0  0  0  0
    3.2356   -1.0184   -4.4198 C   0  0  0  0  0  0  0  0  0  0  0  0
    4.1544   -1.5970   -4.4143 H   0  0  0  0  0  0  0  0  0  0  0  0
    2.2990   -1.1881   -3.3899 C   0  0  0  0  0  0  0  0  0  0  0  0
    2.4877   -1.8960   -2.5894 H   0  0  0  0  0  0  0  0  0  0  0  0
    1.1166   -0.4389   -3.4058 C   0  0  0  0  0  0  0  0  0  0  0  0
   -1.5483    0.5689    0.0263 C   0  0  0  0  0  0  0  0  0  0  0  0
   -2.6482    0.9017   -0.4059 O   0  0  0  0  0  0  0  0  0  0  0  0
   -0.8931    1.4289    0.8888 N   0  0  0  0  0  0  0  0  0  0  0  0
   -0.0214    1.1077    1.3007 H   0  0  0  0  0  0  0  0  0  0  0  0
   -1.3757    2.7651    1.2155 C   0  0  0  0  0  0  0  0  0  0  0  0
   -2.3395    2.7087    1.7324 H   0  0  0  0  0  0  0  0  0  0  0  0
   -0.6614    3.2744    1.8697 H   0  0  0  0  0  0  0  0  0  0  0  0
   -1.4971    3.3629    0.3059 H   0  0  0  0  0  0  0  0  0  0  0  0
  1  2  1  0  0  0  0
  2  3  1  0  0  0  0
  2  4  1  0  0  0  0
  2  5  1  0  0  0  0
  5  6  2  0  0  0  0
  5  7  1  0  0  0  0
  7  8  1  0  0  0  0
  7  9  1  0  0  0  0
  9 10  1  0  0  0  0
  9 11  1  0  0  0  0
  9 29  1  0  0  0  0
 11 12  1  0  0  0  0
 11 13  1  0  0  0  0
 11 14  1  0  0  0  0
 14 15  2  0  0  0  0
 14 28  1  0  0  0  0
 15 16  1  0  0  0  0
 15 17  1  0  0  0  0
 17 18  1  0  0  0  0
 17 19  1  0  0  0  0
 19 20  1  0  0  0  0
 19 28  2  0  0  0  0
 20 21  1  0  0  0  0
 20 22  2  0  0  0  0
 22 23  1  0  0  0  0
 22 24  1  0  0  0  0
 24 25  1  0  0  0  0
 24 26  2  0  0  0  0
 26 27  1  0  0  0  0
 26 28  1  0  0  0  0
 29 30  2  0  0  0  0
 29 31  1  0  0  0  0
 31 32  1  0  0  0  0
 31 33  1  0  0  0  0
 33 34  1  0  0  0  0
 33 35  1  0  0  0  0
 33 36  1  0  0  0  0
M  END
$$$$

  -OEChem-03222214083D

 36 37  0     1  0  0  0  0  0999 V2000
   -3.4032   -4.7079    1.2165 H   0  0  0  0  0  0  0  0  0  0  0  0
   -3.5335   -3.8097    0.6065 C   0  0  0  0  0  0  0  0  0  0  0  0
   -4.3443   -3.2118    1.0293 H   0  0  0  0  0  0  0  0  0  0  0  0
   -3.8017   -4.1094   -0.4096 H   0  0  0  0  0  0  0  0  0  0  0  0
   -2.2499   -3.0016    0.5861 C   0  0  0  0  0  0  0  0  0  0  0  0
   -1.2622   -3.4083    1.1771 O   0  0  0  0  0  0  0  0  0  0  0  0
   -2.2056   -1.8036   -0.0950 N   0  0  0  0  0  0  0  0  0  0  0  0
   -3.0752   -1.4644   -0.5024 H   0  0  0  0  0  0  0  0  0  0  0  0
   -1.0664   -0.8714   -0.0927 C   0  0  1  0  0  0  0  0  0  0  0  0
   -0.4982   -1.0870    0.8181 H   0  0  0  0  0  0  0  0  0  0  0  0
   -0.0899   -1.1929   -1.2533 C   0  0  0  0  0  0  0  0  0  0  0  0
    0.9181   -1.1705   -0.8272 H   0  0  0  0  0  0  0  0  0  0  0  0
   -0.2682   -2.2243   -1.5745 H   0  0  0  0  0  0  0  0  0  0  0  0
   -0.0330   -0.3279   -2.5019 C   0  0  0  0  0  0  0  0  0  0  0  0
   -0.7179    0.8029   -2.9018 C   0  0  0  0  0  0  0  0  0  0  0  0
   -1.5123    1.3142   -2.3691 H   0  0  0  0  0  0  0  0  0  0  0  0
   -0.2289    1.1910   -4.1463 N   0  0  0  0  0  0  0  0  0  0  0  0
   -0.5631    1.9872   -4.6849 H   0  0  0  0  0  0  0  0  0  0  0  0
    0.7661    0.3289   -4.5651 C   0  0  0  0  0  0  0  0  0  0  0  0
    1.5451    0.2994   -5.7217 C   0  0  0  0  0  0  0  0  0  0  0  0
    1.4145    1.0555   -6.4879 H   0  0  0  0  0  0  0  0  0  0  0  0
    2.4956   -0.7188   -5.8781 C   0  0  0  0  0  0  0  0  0  0  0  0
    3.1092   -0.7551   -6.7731 H   0  0  0  0  0  0  0  0  0  0  0  0
    2.6541   -1.6914   -4.8791 C   0  0  0  0  0  0  0  0  0  0  0  0
    3.3896   -2.4806   -5.0030 H   0  0  0  0  0  0  0  0  0  0  0  0
    1.8643   -1.6497   -3.7209 C   0  0  0  0  0  0  0  0  0  0  0  0
    1.9840   -2.4026   -2.9487 H   0  0  0  0  0  0  0  0  0  0  0  0
    0.9174   -0.6295   -3.5714 C   0  0  0  0  0  0  0  0  0  0  0  0
   -1.5060    0.5921    0.1014 C   0  0  0  0  0  0  0  0  0  0  0  0
   -2.5974    0.9628   -0.3207 O   0  0  0  0  0  0  0  0  0  0  0  0
   -0.8249    1.4149    0.9803 N   0  0  0  0  0  0  0  0  0  0  0  0
    0.0358    1.0588    1.3867 H   0  0  0  0  0  0  0  0  0  0  0  0
   -1.2752    2.7523    1.3459 C   0  0  0  0  0  0  0  0  0  0  0  0
   -2.2474    2.7061    1.8475 H   0  0  0  0  0  0  0  0  0  0  0  0
   -0.5572    3.2195    2.0266 H   0  0  0  0  0  0  0  0  0  0  0  0
   -1.3669    3.3831    0.4556 H   0  0  0  0  0  0  0  0  0  0  0  0
  1  2  1  0  0  0  0
  2  3  1  0  0  0  0
  2  4  1  0  0  0  0
  2  5  1  0  0  0  0
  5  6  2  0  0  0  0
  5  7  1  0  0  0  0
  7  8  1  0  0  0  0
  7  9  1  0  0  0  0
  9 10  1  0  0  0  0
  9 11  1  0  0  0  0
  9 29  1  0  0  0  0
 11 12  1  0  0  0  0
 11 13  1  0  0  0  0
 11 14  1  0  0  0  0
 14 15  2  0  0  0  0
 14 28  1  0  0  0  0
 15 16  1  0  0  0  0
 15 17  1  0  0  0  0
 17 18  1  0  0  0  0
 17 19  1  0  0  0  0
 19 20  1  0  0  0  0
 19 28  2  0  0  0  0
 20 21  1  0  0  0  0
 20 22  2  0  0  0  0
 22 23  1  0  0  0  0
 22 24  1  0  0  0  0
 24 25  1  0  0  0  0
 24 26  2  0  0  0  0
 26 27  1  0  0  0  0
 26 28  1  0  0  0  0
 29 30  2  0  0  0  0
 29 31  1  0  0  0  0
 31 32  1  0  0  0  0
 31 33  1  0  0  0  0
 33 34  1  0  0  0  0
 33 35  1  0  0  0  0
 33 36  1  0  0  0  0
M  END
$$$$

  -OEChem-03222214083D

 36 37  0     1  0  0  0  0  0999 V2000
   -3.4689   -4.6999    1.1142 H   0  0  0  0  0  0  0  0  0  0  0  0
   -3.5654   -3.7997    0.5009 C   0  0  0  0  0  0  0  0  0  0  0  0
   -4.3971   -3.2021    0.8817 H   0  0  0  0  0  0  0  0  0  0  0  0
   -3.7798   -4.0961   -0.5287 H   0  0  0  0  0  0  0  0  0  0  0  0
   -2.2810   -2.9939    0.5504 C   0  0  0  0  0  0  0  0  0  0  0  0
   -1.3210   -3.4114    1.1784 O   0  0  0  0  0  0  0  0  0  0  0  0
   -2.2007   -1.7898   -0.1163 N   0  0  0  0  0  0  0  0  0  0  0  0
   -3.0459   -1.4456   -0.5689 H   0  0  0  0  0  0  0  0  0  0  0  0
   -1.0486   -0.8743   -0.0770 C   0  0  1  0  0  0  0  0  0  0  0  0
   -0.4941   -1.1073    0.8379 H   0  0  0  0  0  0  0  0  0  0  0  0
   -0.0686   -1.1943   -1.2374 C   0  0  0  0  0  0  0  0  0  0  0  0
    0.9390   -1.2165   -0.8098 H   0  0  0  0  0  0  0  0  0  0  0  0
   -0.2823   -2.2127   -1.5781 H   0  0  0  0  0  0  0  0  0  0  0  0
    0.0186   -0.3094   -2.4722 C   0  0  0  0  0  0  0  0  0  0  0  0
   -0.4298    0.9661   -2.7573 C   0  0  0  0  0  0  0  0  0  0  0  0
   -0.9866    1.6310   -2.1049 H   0  0  0  0  0  0  0  0  0  0  0  0
   -0.0501    1.2811   -4.0592 N   0  0  0  0  0  0  0  0  0  0  0  0
   -0.2664    2.1528   -4.5379 H   0  0  0  0  0  0  0  0  0  0  0  0
    0.6473    0.2325   -4.6273 C   0  0  0  0  0  0  0  0  0  0  0  0
    1.2241    0.0740   -5.8877 C   0  0  0  0  0  0  0  0  0  0  0  0
    1.1590    0.8685   -6.6228 H   0  0  0  0  0  0  0  0  0  0  0  0
    1.8884   -1.1230   -6.1886 C   0  0  0  0  0  0  0  0  0  0  0  0
    2.3429   -1.2614   -7.1651 H   0  0  0  0  0  0  0  0  0  0  0  0
    1.9681   -2.1423   -5.2277 C   0  0  0  0  0  0  0  0  0  0  0  0
    2.4850   -3.0684   -5.4605 H   0  0  0  0  0  0  0  0  0  0  0  0
    1.3824   -1.9701   -3.9654 C   0  0  0  0  0  0  0  0  0  0  0  0
    1.4456   -2.7581   -3.2223 H   0  0  0  0  0  0  0  0  0  0  0  0
    0.7165   -0.7734   -3.6722 C   0  0  0  0  0  0  0  0  0  0  0  0
   -1.4880    0.5874    0.1216 C   0  0  0  0  0  0  0  0  0  0  0  0
   -2.5380    0.9865   -0.3724 O   0  0  0  0  0  0  0  0  0  0  0  0
   -0.8293    1.4003    1.0264 N   0  0  0  0  0  0  0  0  0  0  0  0
   -0.0115    1.0178    1.4934 H   0  0  0  0  0  0  0  0  0  0  0  0
   -1.2809    2.7400    1.3830 C   0  0  0  0  0  0  0  0  0  0  0  0
   -2.2772    2.7013    1.8359 H   0  0  0  0  0  0  0  0  0  0  0  0
   -0.5919    3.1920    2.1032 H   0  0  0  0  0  0  0  0  0  0  0  0
   -1.3208    3.3800    0.4954 H   0  0  0  0  0  0  0  0  0  0  0  0
  1  2  1  0  0  0  0
  2  3  1  0  0  0  0
  2  4  1  0  0  0  0
  2  5  1  0  0  0  0
  5  6  2  0  0  0  0
  5  7  1  0  0  0  0
  7  8  1  0  0  0  0
  7  9  1  0  0  0  0
  9 10  1  0  0  0  0
  9 11  1  0  0  0  0
  9 29  1  0  0  0  0
 11 12  1  0  0  0  0
 11 13  1  0  0  0  0
 11 14  1  0  0  0  0
 14 15  2  0  0  0  0
 14 28  1  0  0  0  0
 15 16  1  0  0  0  0
 15 17  1  0  0  0  0
 17 18  1  0  0  0  0
 17 19  1  0  0  0  0
 19 20  1  0  0  0  0
 19 28  2  0  0  0  0
 20 21  1  0  0  0  0
 20 22  2  0  0  0  0
 22 23  1  0  0  0  0
 22 24  1  0  0  0  0
 24 25  1  0  0  0  0
 24 26  2  0  0  0  0
 26 27  1  0  0  0  0
 26 28  1  0  0  0  0
 29 30  2  0  0  0  0
 29 31  1  0  0  0  0
 31 32  1  0  0  0  0
 31 33  1  0  0  0  0
 33 34  1  0  0  0  0
 33 35  1  0  0  0  0
 33 36  1  0  0  0  0
M  END
$$$$

  -OEChem-03222214083D

 36 37  0     1  0  0  0  0  0999 V2000
   -3.5591   -4.6603    1.0787 H   0  0  0  0  0  0  0  0  0  0  0  0
   -3.6143   -3.7657    0.4522 C   0  0  0  0  0  0  0  0  0  0  0  0
   -4.4587   -3.1557    0.7820 H   0  0  0  0  0  0  0  0  0  0  0  0
   -3.7763   -4.0706   -0.5845 H   0  0  0  0  0  0  0  0  0  0  0  0
   -2.3271   -2.9710    0.5618 C   0  0  0  0  0  0  0  0  0  0  0  0
   -1.4092   -3.3847    1.2521 O   0  0  0  0  0  0  0  0  0  0  0  0
   -2.1968   -1.7818   -0.1228 N   0  0  0  0  0  0  0  0  0  0  0  0
   -3.0062   -1.4453   -0.6417 H   0  0  0  0  0  0  0  0  0  0  0  0
   -1.0293   -0.8883   -0.0584 C   0  0  1  0  0  0  0  0  0  0  0  0
   -0.5002   -1.1160    0.8724 H   0  0  0  0  0  0  0  0  0  0  0  0
   -0.0372   -1.2424   -1.1994 C   0  0  0  0  0  0  0  0  0  0  0  0
    0.9644   -1.2875   -0.7611 H   0  0  0  0  0  0  0  0  0  0  0  0
   -0.2712   -2.2574   -1.5346 H   0  0  0  0  0  0  0  0  0  0  0  0
    0.0779   -0.3566   -2.4309 C   0  0  0  0  0  0  0  0  0  0  0  0
   -0.1077    0.9997   -2.6136 C   0  0  0  0  0  0  0  0  0  0  0  0
   -0.3952    1.7276   -1.8608 H   0  0  0  0  0  0  0  0  0  0  0  0
    0.1396    1.2981   -3.9501 N   0  0  0  0  0  0  0  0  0  0  0  0
    0.0505    2.2202   -4.3712 H   0  0  0  0  0  0  0  0  0  0  0  0
    0.4953    0.1560   -4.6415 C   0  0  0  0  0  0  0  0  0  0  0  0
    0.8340   -0.0472   -5.9792 C   0  0  0  0  0  0  0  0  0  0  0  0
    0.8410    0.7857   -6.6735 H   0  0  0  0  0  0  0  0  0  0  0  0
    1.1649   -1.3386   -6.4108 C   0  0  0  0  0  0  0  0  0  0  0  0
    1.4310   -1.5118   -7.4493 H   0  0  0  0  0  0  0  0  0  0  0  0
    1.1525   -2.4067   -5.5016 C   0  0  0  0  0  0  0  0  0  0  0  0
    1.4100   -3.4068   -5.8371 H   0  0  0  0  0  0  0  0  0  0  0  0
    0.8074   -2.1884   -4.1599 C   0  0  0  0  0  0  0  0  0  0  0  0
    0.7998   -3.0166   -3.4594 H   0  0  0  0  0  0  0  0  0  0  0  0
    0.4747   -0.8959   -3.7338 C   0  0  0  0  0  0  0  0  0  0  0  0
   -1.4548    0.5829    0.0967 C   0  0  0  0  0  0  0  0  0  0  0  0
   -2.4511    1.0059   -0.4797 O   0  0  0  0  0  0  0  0  0  0  0  0
   -0.8161    1.4008    1.0119 N   0  0  0  0  0  0  0  0  0  0  0  0
   -0.0570    0.9951    1.5527 H   0  0  0  0  0  0  0  0  0  0  0  0
   -1.2616    2.7521    1.3304 C   0  0  0  0  0  0  0  0  0  0  0  0
   -2.2743    2.7338    1.7469 H   0  0  0  0  0  0  0  0  0  0  0  0
   -0.5923    3.2059    2.0677 H   0  0  0  0  0  0  0  0  0  0  0  0
   -1.2607    3.3788    0.4324 H   0  0  0  0  0  0  0  0  0  0  0  0
  1  2  1  0  0  0  0
  2  3  1  0  0  0  0
  2  4  1  0  0  0  0
  2  5  1  0  0  0  0
  5  6  2  0  0  0  0
  5  7  1  0  0  0  0
  7  8  1  0  0  0  0
  7  9  1  0  0  0  0
  9 10  1  0  0  0  0
  9 11  1  0  0  0  0
  9 29  1  0  0  0  0
 11 12  1  0  0  0  0
 11 13  1  0  0  0  0
 11 14  1  0  0  0  0
 14 15  2  0  0  0  0
 14 28  1  0  0  0  0
 15 16  1  0  0  0  0
 15 17  1  0  0  0  0
 17 18  1  0  0  0  0
 17 19  1  0  0  0  0
 19 20  1  0  0  0  0
 19 28  2  0  0  0  0
 20 21  1  0  0  0  0
 20 22  2  0  0  0  0
 22 23  1  0  0  0  0
 22 24  1  0  0  0  0
 24 25  1  0  0  0  0
 24 26  2  0  0  0  0
 26 27  1  0  0  0  0
 26 28  1  0  0  0  0
 29 30  2  0  0  0  0
 29 31  1  0  0  0  0
 31 32  1  0  0  0  0
 31 33  1  0  0  0  0
 33 34  1  0  0  0  0
 33 35  1  0  0  0  0
 33 36  1  0  0  0  0
M  END
$$$$

  -OEChem-03222214083D

 36 37  0     1  0  0  0  0  0999 V2000
   -3.6604   -4.5874    1.1245 H   0  0  0  0  0  0  0  0  0  0  0  0
   -3.6648   -3.7247    0.4524 C   0  0  0  0  0  0  0  0  0  0  0  0
   -4.5101   -3.0821    0.7102 H   0  0  0  0  0  0  0  0  0  0  0  0
   -3.7841   -4.0782   -0.5746 H   0  0  0  0  0  0  0  0  0  0  0  0
   -2.3664   -2.9512    0.5846 C   0  0  0  0  0  0  0  0  0  0  0  0
   -1.4845   -3.3573    1.3246 O   0  0  0  0  0  0  0  0  0  0  0  0
   -2.1840   -1.7903   -0.1358 N   0  0  0  0  0  0  0  0  0  0  0  0
   -2.9662   -1.4537   -0.6954 H   0  0  0  0  0  0  0  0  0  0  0  0
   -1.0033   -0.9159   -0.0522 C   0  0  1  0  0  0  0  0  0  0  0  0
   -0.5078   -1.1226    0.9018 H   0  0  0  0  0  0  0  0  0  0  0  0
    0.0106   -1.3160   -1.1567 C   0  0  0  0  0  0  0  0  0  0  0  0
    1.0016   -1.3557   -0.6948 H   0  0  0  0  0  0  0  0  0  0  0  0
   -0.2163   -2.3368   -1.4760 H   0  0  0  0  0  0  0  0  0  0  0  0
    0.1488   -0.4360   -2.3866 C   0  0  0  0  0  0  0  0  0  0  0  0
    0.2411    0.9364   -2.4901 C   0  0  0  0  0  0  0  0  0  0  0  0
    0.2315    1.6463   -1.6671 H   0  0  0  0  0  0  0  0  0  0  0  0
    0.3521    1.2630   -3.8386 N   0  0  0  0  0  0  0  0  0  0  0  0
    0.4021    2.2085   -4.2116 H   0  0  0  0  0  0  0  0  0  0  0  0
    0.3334    0.1187   -4.6144 C   0  0  0  0  0  0  0  0  0  0  0  0
    0.4107   -0.0629   -5.9953 C   0  0  0  0  0  0  0  0  0  0  0  0
    0.5028    0.7932   -6.6544 H   0  0  0  0  0  0  0  0  0  0  0  0
    0.3687   -1.3631   -6.5166 C   0  0  0  0  0  0  0  0  0  0  0  0
    0.4294   -1.5200   -7.5894 H   0  0  0  0  0  0  0  0  0  0  0  0
    0.2491   -2.4619   -5.6529 C   0  0  0  0  0  0  0  0  0  0  0  0
    0.2172   -3.4689   -6.0578 H   0  0  0  0  0  0  0  0  0  0  0  0
    0.1701   -2.2652   -4.2666 C   0  0  0  0  0  0  0  0  0  0  0  0
    0.0775   -3.1178   -3.6025 H   0  0  0  0  0  0  0  0  0  0  0  0
    0.2116   -0.9634   -3.7504 C   0  0  0  0  0  0  0  0  0  0  0  0
   -1.4136    0.5668    0.0312 C   0  0  0  0  0  0  0  0  0  0  0  0
   -2.3782    0.9832   -0.6002 O   0  0  0  0  0  0  0  0  0  0  0  0
   -0.8015    1.4065    0.9454 N   0  0  0  0  0  0  0  0  0  0  0  0
   -0.0922    1.0009    1.5501 H   0  0  0  0  0  0  0  0  0  0  0  0
   -1.2567    2.7659    1.2126 C   0  0  0  0  0  0  0  0  0  0  0  0
   -2.2901    2.7603    1.5753 H   0  0  0  0  0  0  0  0  0  0  0  0
   -0.6252    3.2326    1.9749 H   0  0  0  0  0  0  0  0  0  0  0  0
   -1.2057    3.3737    0.3031 H   0  0  0  0  0  0  0  0  0  0  0  0
  1  2  1  0  0  0  0
  2  3  1  0  0  0  0
  2  4  1  0  0  0  0
  2  5  1  0  0  0  0
  5  6  2  0  0  0  0
  5  7  1  0  0  0  0
  7  8  1  0  0  0  0
  7  9  1  0  0  0  0
  9 10  1  0  0  0  0
  9 11  1  0  0  0  0
  9 29  1  0  0  0  0
 11 12  1  0  0  0  0
 11 13  1  0  0  0  0
 11 14  1  0  0  0  0
 14 15  2  0  0  0  0
 14 28  1  0  0  0  0
 15 16  1  0  0  0  0
 15 17  1  0  0  0  0
 17 18  1  0  0  0  0
 17 19  1  0  0  0  0
 19 20  1  0  0  0  0
 19 28  2  0  0  0  0
 20 21  1  0  0  0  0
 20 22  2  0  0  0  0
 22 23  1  0  0  0  0
 22 24  1  0  0  0  0
 24 25  1  0  0  0  0
 24 26  2  0  0  0  0
 26 27  1  0  0  0  0
 26 28  1  0  0  0  0
 29 30  2  0  0  0  0
 29 31  1  0  0  0  0
 31 32  1  0  0  0  0
 31 33  1  0  0  0  0
 33 34  1  0  0  0  0
 33 35  1  0  0  0  0
 33 36  1  0  0  0  0
M  END
$$$$

  -OEChem-03222214083D

 36 37  0     1  0  0  0  0  0999 V2000
   -3.7297   -4.5410    1.1903 H   0  0  0  0  0  0  0  0  0  0  0  0
   -3.7069   -3.6988    0.4929 C   0  0  0  0  0  0  0  0  0  0  0  0
   -4.5438   -3.0331    0.7177 H   0  0  0  0  0  0  0  0  0  0  0  0
   -3.8172   -4.0808   -0.5249 H   0  0  0  0  0  0  0  0  0  0  0  0
   -2.3964   -2.9460    0.6231 C   0  0  0  0  0  0  0  0  0  0  0  0
   -1.5427   -3.3340    1.4048 O   0  0  0  0  0  0  0  0  0  0  0  0
   -2.1719   -1.8226   -0.1429 N   0  0  0  0  0  0  0  0  0  0  0  0
   -2.9337   -1.4925   -0.7340 H   0  0  0  0  0  0  0  0  0  0  0  0
   -0.9833   -0.9605   -0.0543 C   0  0  1  0  0  0  0  0  0  0  0  0
   -0.5165   -1.1334    0.9205 H   0  0  0  0  0  0  0  0  0  0  0  0
    0.0517   -1.4000   -1.1201 C   0  0  0  0  0  0  0  0  0  0  0  0
    1.0327   -1.4217   -0.6358 H   0  0  0  0  0  0  0  0  0  0  0  0
   -0.1583   -2.4286   -1.4274 H   0  0  0  0  0  0  0  0  0  0  0  0
    0.1943   -0.5238   -2.3469 C   0  0  0  0  0  0  0  0  0  0  0  0
    0.5580    0.8036   -2.4099 C   0  0  0  0  0  0  0  0  0  0  0  0
    0.8091    1.4354   -1.5614 H   0  0  0  0  0  0  0  0  0  0  0  0
    0.5422    1.1904   -3.7474 N   0  0  0  0  0  0  0  0  0  0  0  0
    0.7363    2.1283   -4.0913 H   0  0  0  0  0  0  0  0  0  0  0  0
    0.1605    0.1296   -4.5502 C   0  0  0  0  0  0  0  0  0  0  0  0
   -0.0117    0.0287   -5.9308 C   0  0  0  0  0  0  0  0  0  0  0  0
    0.1676    0.8871   -6.5682 H   0  0  0  0  0  0  0  0  0  0  0  0
   -0.4203   -1.1943   -6.4806 C   0  0  0  0  0  0  0  0  0  0  0  0
   -0.5588   -1.2875   -7.5537 H   0  0  0  0  0  0  0  0  0  0  0  0
   -0.6523   -2.2976   -5.6456 C   0  0  0  0  0  0  0  0  0  0  0  0
   -0.9706   -3.2433   -6.0734 H   0  0  0  0  0  0  0  0  0  0  0  0
   -0.4764   -2.1831   -4.2593 C   0  0  0  0  0  0  0  0  0  0  0  0
   -0.6588   -3.0355   -3.6141 H   0  0  0  0  0  0  0  0  0  0  0  0
   -0.0662   -0.9597   -3.7164 C   0  0  0  0  0  0  0  0  0  0  0  0
   -1.3803    0.5296   -0.0548 C   0  0  0  0  0  0  0  0  0  0  0  0
   -2.3326    0.9202   -0.7207 O   0  0  0  0  0  0  0  0  0  0  0  0
   -0.7921    1.4030    0.8436 N   0  0  0  0  0  0  0  0  0  0  0  0
   -0.1098    1.0186    1.4912 H   0  0  0  0  0  0  0  0  0  0  0  0
   -1.2429    2.7766    1.0319 C   0  0  0  0  0  0  0  0  0  0  0  0
   -2.2801    2.7955    1.3827 H   0  0  0  0  0  0  0  0  0  0  0  0
   -0.6168    3.2815    1.7738 H   0  0  0  0  0  0  0  0  0  0  0  0
   -1.1791    3.3330    0.0907 H   0  0  0  0  0  0  0  0  0  0  0  0
  1  2  1  0  0  0  0
  2  3  1  0  0  0  0
  2  4  1  0  0  0  0
  2  5  1  0  0  0  0
  5  6  2  0  0  0  0
  5  7  1  0  0  0  0
  7  8  1  0  0  0  0
  7  9  1  0  0  0  0
  9 10  1  0  0  0  0
  9 11  1  0  0  0  0
  9 29  1  0  0  0  0
 11 12  1  0  0  0  0
 11 13  1  0  0  0  0
 11 14  1  0  0  0  0
 14 15  2  0  0  0  0
 14 28  1  0  0  0  0
 15 16  1  0  0  0  0
 15 17  1  0  0  0  0
 17 18  1  0  0  0  0
 17 19  1  0  0  0  0
 19 20  1  0  0  0  0
 19 28  2  0  0  0  0
 20 21  1  0  0  0  0
 20 22  2  0  0  0  0
 22 23  1  0  0  0  0
 22 24  1  0  0  0  0
 24 25  1  0  0  0  0
 24 26  2  0  0  0  0
 26 27  1  0  0  0  0
 26 28  1  0  0  0  0
 29 30  2  0  0  0  0
 29 31  1  0  0  0  0
 31 32  1  0  0  0  0
 31 33  1  0  0  0  0
 33 34  1  0  0  0  0
 33 35  1  0  0  0  0
 33 36  1  0  0  0  0
M  END
$$$$

  -OEChem-03222214083D

 36 37  0     1  0  0  0  0  0999 V2000
   -3.7734   -4.5059    1.2505 H   0  0  0  0  0  0  0  0  0  0  0  0
   -3.7376   -3.6826    0.5314 C   0  0  0  0  0  0  0  0  0  0  0  0
   -4.5650   -2.9989    0.7369 H   0  0  0  0  0  0  0  0  0  0  0  0
   -3.8516   -4.0902   -0.4761 H   0  0  0  0  0  0  0  0  0  0  0  0
   -2.4163   -2.9460    0.6459 C   0  0  0  0  0  0  0  0  0  0  0  0
   -1.5722   -3.3249    1.4425 O   0  0  0  0  0  0  0  0  0  0  0  0
   -2.1685   -1.8515   -0.1540 N   0  0  0  0  0  0  0  0  0  0  0  0
   -2.9276   -1.5161   -0.7457 H   0  0  0  0  0  0  0  0  0  0  0  0
   -0.9755   -0.9955   -0.0686 C   0  0  1  0  0  0  0  0  0  0  0  0
   -0.5277   -1.1416    0.9193 H   0  0  0  0  0  0  0  0  0  0  0  0
    0.0758   -1.4609   -1.1028 C   0  0  0  0  0  0  0  0  0  0  0  0
    1.0493   -1.4688   -0.6032 H   0  0  0  0  0  0  0  0  0  0  0  0
   -0.1235   -2.4932   -1.4064 H   0  0  0  0  0  0  0  0  0  0  0  0
    0.2100   -0.5860   -2.3254 C   0  0  0  0  0  0  0  0  0  0  0  0
    0.8240    0.6429   -2.4072 C   0  0  0  0  0  0  0  0  0  0  0  0
    1.3166    1.1616   -1.5883 H   0  0  0  0  0  0  0  0  0  0  0  0
    0.6881    1.0981   -3.7164 N   0  0  0  0  0  0  0  0  0  0  0  0
    1.0169    1.9954   -4.0655 H   0  0  0  0  0  0  0  0  0  0  0  0
   -0.0198    0.1802   -4.4750 C   0  0  0  0  0  0  0  0  0  0  0  0
   -0.4175    0.1899   -5.8122 C   0  0  0  0  0  0  0  0  0  0  0  0
   -0.1659    1.0292   -6.4510 H   0  0  0  0  0  0  0  0  0  0  0  0
   -1.1467   -0.8969   -6.3157 C   0  0  0  0  0  0  0  0  0  0  0  0
   -1.4630   -0.9027   -7.3544 H   0  0  0  0  0  0  0  0  0  0  0  0
   -1.4707   -1.9755   -5.4782 C   0  0  0  0  0  0  0  0  0  0  0  0
   -2.0372   -2.8148   -5.8696 H   0  0  0  0  0  0  0  0  0  0  0  0
   -1.0667   -1.9730   -4.1355 C   0  0  0  0  0  0  0  0  0  0  0  0
   -1.3181   -2.8023   -3.4831 H   0  0  0  0  0  0  0  0  0  0  0  0
   -0.3368   -0.8866   -3.6424 C   0  0  0  0  0  0  0  0  0  0  0  0
   -1.3588    0.4987   -0.1287 C   0  0  0  0  0  0  0  0  0  0  0  0
   -2.3155    0.8666   -0.8017 O   0  0  0  0  0  0  0  0  0  0  0  0
   -0.7816    1.3971    0.7521 N   0  0  0  0  0  0  0  0  0  0  0  0
   -0.0956    1.0356    1.4083 H   0  0  0  0  0  0  0  0  0  0  0  0
   -1.2276    2.7784    0.8892 C   0  0  0  0  0  0  0  0  0  0  0  0
   -2.2721    2.8132    1.2166 H   0  0  0  0  0  0  0  0  0  0  0  0
   -0.6154    3.3022    1.6296 H   0  0  0  0  0  0  0  0  0  0  0  0
   -1.1399    3.3060   -0.0665 H   0  0  0  0  0  0  0  0  0  0  0  0
  1  2  1  0  0  0  0
  2  3  1  0  0  0  0
  2  4  1  0  0  0  0
  2  5  1  0  0  0  0
  5  6  2  0  0  0  0
  5  7  1  0  0  0  0
  7  8  1  0  0  0  0
  7  9  1  0  0  0  0
  9 10  1  0  0  0  0
  9 11  1  0  0  0  0
  9 29  1  0  0  0  0
 11 12  1  0  0  0  0
 11 13  1  0  0  0  0
 11 14  1  0  0  0  0
 14 15  2  0  0  0  0
 14 28  1  0  0  0  0
 15 16  1  0  0  0  0
 15 17  1  0  0  0  0
 17 18  1  0  0  0  0
 17 19  1  0  0  0  0
 19 20  1  0  0  0  0
 19 28  2  0  0  0  0
 20 21  1  0  0  0  0
 20 22  2  0  0  0  0
 22 23  1  0  0  0  0
 22 24  1  0  0  0  0
 24 25  1  0  0  0  0
 24 26  2  0  0  0  0
 26 27  1  0  0  0  0
 26 28  1  0  0  0  0
 29 30  2  0  0  0  0
 29 31  1  0  0  0  0
 31 32  1  0  0  0  0
 31 33  1  0  0  0  0
 33 34  1  0  0  0  0
 33 35  1  0  0  0  0
 33 36  1  0  0  0  0
M  END
$$$$

  -OEChem-03222214083D

 36 37  0     1  0  0  0  0  0999 V2000
   -3.8022   -4.4789    1.2920 H   0  0  0  0  0  0  0  0  0  0  0  0
   -3.7638   -3.6569    0.5718 C   0  0  0  0  0  0  0  0  0  0  0  0
   -4.5744   -2.9581    0.7919 H   0  0  0  0  0  0  0  0  0  0  0  0
   -3.9041   -4.0622   -0.4331 H   0  0  0  0  0  0  0  0  0  0  0  0
   -2.4271   -2.9451    0.6606 C   0  0  0  0  0  0  0  0  0  0  0  0
   -1.5805   -3.3275    1.4528 O   0  0  0  0  0  0  0  0  0  0  0  0
   -2.1724   -1.8651   -0.1562 N   0  0  0  0  0  0  0  0  0  0  0  0
   -2.9417   -1.5128   -0.7247 H   0  0  0  0  0  0  0  0  0  0  0  0
   -0.9754   -1.0140   -0.0815 C   0  0  1  0  0  0  0  0  0  0  0  0
   -0.5315   -1.1465    0.9101 H   0  0  0  0  0  0  0  0  0  0  0  0
    0.0796   -1.4899   -1.1061 C   0  0  0  0  0  0  0  0  0  0  0  0
    1.0522   -1.4958   -0.6043 H   0  0  0  0  0  0  0  0  0  0  0  0
   -0.1204   -2.5217   -1.4126 H   0  0  0  0  0  0  0  0  0  0  0  0
    0.2004   -0.6127   -2.3257 C   0  0  0  0  0  0  0  0  0  0  0  0
    1.0333    0.4695   -2.4870 C   0  0  0  0  0  0  0  0  0  0  0  0
    1.7385    0.8428   -1.7482 H   0  0  0  0  0  0  0  0  0  0  0  0
    0.8006    0.9942   -3.7565 N   0  0  0  0  0  0  0  0  0  0  0  0
    1.2570    1.8146   -4.1485 H   0  0  0  0  0  0  0  0  0  0  0  0
   -0.1794    0.2626   -4.4089 C   0  0  0  0  0  0  0  0  0  0  0  0
   -0.7564    0.3960   -5.6721 C   0  0  0  0  0  0  0  0  0  0  0  0
   -0.4396    1.1923   -6.3361 H   0  0  0  0  0  0  0  0  0  0  0  0
   -1.7506   -0.5098   -6.0689 C   0  0  0  0  0  0  0  0  0  0  0  0
   -2.2094   -0.4167   -7.0485 H   0  0  0  0  0  0  0  0  0  0  0  0
   -2.1563   -1.5350   -5.2004 C   0  0  0  0  0  0  0  0  0  0  0  0
   -2.9280   -2.2332   -5.5097 H   0  0  0  0  0  0  0  0  0  0  0  0
   -1.5698   -1.6588   -3.9326 C   0  0  0  0  0  0  0  0  0  0  0  0
   -1.8791   -2.4466   -3.2541 H   0  0  0  0  0  0  0  0  0  0  0  0
   -0.5784   -0.7517   -3.5471 C   0  0  0  0  0  0  0  0  0  0  0  0
   -1.3530    0.4814   -0.1666 C   0  0  0  0  0  0  0  0  0  0  0  0
   -2.3292    0.8342   -0.8203 O   0  0  0  0  0  0  0  0  0  0  0  0
   -0.7737    1.3909    0.7014 N   0  0  0  0  0  0  0  0  0  0  0  0
   -0.0701    1.0431    1.3457 H   0  0  0  0  0  0  0  0  0  0  0  0
   -1.2273    2.7701    0.8314 C   0  0  0  0  0  0  0  0  0  0  0  0
   -2.2610    2.8009    1.1913 H   0  0  0  0  0  0  0  0  0  0  0  0
   -0.5961    3.3105    1.5432 H   0  0  0  0  0  0  0  0  0  0  0  0
   -1.1750    3.2830   -0.1347 H   0  0  0  0  0  0  0  0  0  0  0  0
  1  2  1  0  0  0  0
  2  3  1  0  0  0  0
  2  4  1  0  0  0  0
  2  5  1  0  0  0  0
  5  6  2  0  0  0  0
  5  7  1  0  0  0  0
  7  8  1  0  0  0  0
  7  9  1  0  0  0  0
  9 10  1  0  0  0  0
  9 11  1  0  0  0  0
  9 29  1  0  0  0  0
 11 12  1  0  0  0  0
 11 13  1  0  0  0  0
 11 14  1  0  0  0  0
 14 15  2  0  0  0  0
 14 28  1  0  0  0  0
 15 16  1  0  0  0  0
 15 17  1  0  0  0  0
 17 18  1  0  0  0  0
 17 19  1  0  0  0  0
 19 20  1  0  0  0  0
 19 28  2  0  0  0  0
 20 21  1  0  0  0  0
 20 22  2  0  0  0  0
 22 23  1  0  0  0  0
 22 24  1  0  0  0  0
 24 25  1  0  0  0  0
 24 26  2  0  0  0  0
 26 27  1  0  0  0  0
 26 28  1  0  0  0  0
 29 30  2  0  0  0  0
 29 31  1  0  0  0  0
 31 32  1  0  0  0  0
 31 33  1  0  0  0  0
 33 34  1  0  0  0  0
 33 35  1  0  0  0  0
 33 36  1  0  0  0  0
M  END
$$$$

  -OEChem-03222214083D

 36 37  0     1  0  0  0  0  0999 V2000
   -3.7995   -4.4578    1.3985 H   0  0  0  0  0  0  0  0  0  0  0  0
   -3.7801   -3.6440    0.6683 C   0  0  0  0  0  0  0  0  0  0  0  0
   -4.5676   -2.9287    0.9177 H   0  0  0  0  0  0  0  0  0  0  0  0
   -3.9731   -4.0570   -0.3247 H   0  0  0  0  0  0  0  0  0  0  0  0
   -2.4281   -2.9562    0.6885 C   0  0  0  0  0  0  0  0  0  0  0  0
   -1.5470   -3.3616    1.4300 O   0  0  0  0  0  0  0  0  0  0  0  0
   -2.1982   -1.8724   -0.1311 N   0  0  0  0  0  0  0  0  0  0  0  0
   -2.9970   -1.4892   -0.6355 H   0  0  0  0  0  0  0  0  0  0  0  0
   -0.9975   -1.0240   -0.0813 C   0  0  1  0  0  0  0  0  0  0  0  0
   -0.5358   -1.1611    0.9017 H   0  0  0  0  0  0  0  0  0  0  0  0
    0.0477   -1.4852   -1.1224 C   0  0  0  0  0  0  0  0  0  0  0  0
    1.0260   -1.5021   -0.6325 H   0  0  0  0  0  0  0  0  0  0  0  0
   -0.1645   -2.5114   -1.4394 H   0  0  0  0  0  0  0  0  0  0  0  0
    0.1488   -0.5995   -2.3383 C   0  0  0  0  0  0  0  0  0  0  0  0
    1.1555    0.2959   -2.6115 C   0  0  0  0  0  0  0  0  0  0  0  0
    2.0161    0.4952   -1.9773 H   0  0  0  0  0  0  0  0  0  0  0  0
    0.8676    0.8939   -3.8364 N   0  0  0  0  0  0  0  0  0  0  0  0
    1.4295    1.6106   -4.2901 H   0  0  0  0  0  0  0  0  0  0  0  0
   -0.3092    0.3813   -4.3589 C   0  0  0  0  0  0  0  0  0  0  0  0
   -0.9988    0.6528   -5.5409 C   0  0  0  0  0  0  0  0  0  0  0  0
   -0.6198    1.3927   -6.2369 H   0  0  0  0  0  0  0  0  0  0  0  0
   -2.1856   -0.0422   -5.8146 C   0  0  0  0  0  0  0  0  0  0  0  0
   -2.7336    0.1603   -6.7299 H   0  0  0  0  0  0  0  0  0  0  0  0
   -2.6666   -0.9984   -4.9068 C   0  0  0  0  0  0  0  0  0  0  0  0
   -3.5853   -1.5354   -5.1210 H   0  0  0  0  0  0  0  0  0  0  0  0
   -1.9655   -1.2608   -3.7212 C   0  0  0  0  0  0  0  0  0  0  0  0
   -2.3308   -1.9971   -3.0144 H   0  0  0  0  0  0  0  0  0  0  0  0
   -0.7853   -0.5608   -3.4550 C   0  0  0  0  0  0  0  0  0  0  0  0
   -1.3761    0.4726   -0.1477 C   0  0  0  0  0  0  0  0  0  0  0  0
   -2.3859    0.8228   -0.7503 O   0  0  0  0  0  0  0  0  0  0  0  0
   -0.7742    1.3764    0.7104 N   0  0  0  0  0  0  0  0  0  0  0  0
   -0.0120    1.0389    1.2901 H   0  0  0  0  0  0  0  0  0  0  0  0
   -1.2060    2.7623    0.8452 C   0  0  0  0  0  0  0  0  0  0  0  0
   -2.2360    2.8087    1.2144 H   0  0  0  0  0  0  0  0  0  0  0  0
   -0.5608    3.2925    1.5524 H   0  0  0  0  0  0  0  0  0  0  0  0
   -1.1544    3.2747   -0.1213 H   0  0  0  0  0  0  0  0  0  0  0  0
  1  2  1  0  0  0  0
  2  3  1  0  0  0  0
  2  4  1  0  0  0  0
  2  5  1  0  0  0  0
  5  6  2  0  0  0  0
  5  7  1  0  0  0  0
  7  8  1  0  0  0  0
  7  9  1  0  0  0  0
  9 10  1  0  0  0  0
  9 11  1  0  0  0  0
  9 29  1  0  0  0  0
 11 12  1  0  0  0  0
 11 13  1  0  0  0  0
 11 14  1  0  0  0  0
 14 15  2  0  0  0  0
 14 28  1  0  0  0  0
 15 16  1  0  0  0  0
 15 17  1  0  0  0  0
 17 18  1  0  0  0  0
 17 19  1  0  0  0  0
 19 20  1  0  0  0  0
 19 28  2  0  0  0  0
 20 21  1  0  0  0  0
 20 22  2  0  0  0  0
 22 23  1  0  0  0  0
 22 24  1  0  0  0  0
 24 25  1  0  0  0  0
 24 26  2  0  0  0  0
 26 27  1  0  0  0  0
 26 28  1  0  0  0  0
 29 30  2  0  0  0  0
 29 31  1  0  0  0  0
 31 32  1  0  0  0  0
 31 33  1  0  0  0  0
 33 34  1  0  0  0  0
 33 35  1  0  0  0  0
 33 36  1  0  0  0  0
M  END
$$$$

  -OEChem-03222214083D

 36 37  0     1  0  0  0  0  0999 V2000
   -3.7566   -4.4708    1.4668 H   0  0  0  0  0  0  0  0  0  0  0  0
   -3.7673   -3.6421    0.7536 C   0  0  0  0  0  0  0  0  0  0  0  0
   -4.5341   -2.9255    1.0576 H   0  0  0  0  0  0  0  0  0  0  0  0
   -4.0139   -4.0319   -0.2369 H   0  0  0  0  0  0  0  0  0  0  0  0
   -2.4103   -2.9656    0.7191 C   0  0  0  0  0  0  0  0  0  0  0  0
   -1.4931   -3.3978    1.3993 O   0  0  0  0  0  0  0  0  0  0  0  0
   -2.2179   -1.8619   -0.0834 N   0  0  0  0  0  0  0  0  0  0  0  0
   -3.0454   -1.4540   -0.5164 H   0  0  0  0  0  0  0  0  0  0  0  0
   -1.0169   -1.0125   -0.0626 C   0  0  1  0  0  0  0  0  0  0  0  0
   -0.5244   -1.1694    0.9021 H   0  0  0  0  0  0  0  0  0  0  0  0
    0.0032   -1.4478   -1.1394 C   0  0  0  0  0  0  0  0  0  0  0  0
    0.9927   -1.4819   -0.6731 H   0  0  0  0  0  0  0  0  0  0  0  0
   -0.2262   -2.4666   -1.4680 H   0  0  0  0  0  0  0  0  0  0  0  0
    0.0842   -0.5554   -2.3544 C   0  0  0  0  0  0  0  0  0  0  0  0
    1.2127    0.1116   -2.7691 C   0  0  0  0  0  0  0  0  0  0  0  0
    2.1715    0.1116   -2.2557 H   0  0  0  0  0  0  0  0  0  0  0  0
    0.9065    0.7720   -3.9558 N   0  0  0  0  0  0  0  0  0  0  0  0
    1.5486    1.3505   -4.4928 H   0  0  0  0  0  0  0  0  0  0  0  0
   -0.4007    0.5080   -4.3288 C   0  0  0  0  0  0  0  0  0  0  0  0
   -1.1475    0.9185   -5.4335 C   0  0  0  0  0  0  0  0  0  0  0  0
   -0.7087    1.5732   -6.1781 H   0  0  0  0  0  0  0  0  0  0  0  0
   -2.4699    0.4730   -5.5674 C   0  0  0  0  0  0  0  0  0  0  0  0
   -3.0654    0.7872   -6.4191 H   0  0  0  0  0  0  0  0  0  0  0  0
   -3.0253   -0.3786   -4.6009 C   0  0  0  0  0  0  0  0  0  0  0  0
   -4.0495   -0.7229   -4.7057 H   0  0  0  0  0  0  0  0  0  0  0  0
   -2.2633   -0.7829   -3.4955 C   0  0  0  0  0  0  0  0  0  0  0  0
   -2.6898   -1.4389   -2.7467 H   0  0  0  0  0  0  0  0  0  0  0  0
   -0.9479   -0.3275   -3.3614 C   0  0  0  0  0  0  0  0  0  0  0  0
   -1.3957    0.4853   -0.0766 C   0  0  0  0  0  0  0  0  0  0  0  0
   -2.4450    0.8426   -0.6030 O   0  0  0  0  0  0  0  0  0  0  0  0
   -0.7577    1.3682    0.7771 N   0  0  0  0  0  0  0  0  0  0  0  0
    0.0534    1.0299    1.2853 H   0  0  0  0  0  0  0  0  0  0  0  0
   -1.1787    2.7520    0.9585 C   0  0  0  0  0  0  0  0  0  0  0  0
   -2.1964    2.7933    1.3610 H   0  0  0  0  0  0  0  0  0  0  0  0
   -0.5097    3.2626    1.6579 H   0  0  0  0  0  0  0  0  0  0  0  0
   -1.1549    3.2873    0.0033 H   0  0  0  0  0  0  0  0  0  0  0  0
  1  2  1  0  0  0  0
  2  3  1  0  0  0  0
  2  4  1  0  0  0  0
  2  5  1  0  0  0  0
  5  6  2  0  0  0  0
  5  7  1  0  0  0  0
  7  8  1  0  0  0  0
  7  9  1  0  0  0  0
  9 10  1  0  0  0  0
  9 11  1  0  0  0  0
  9 29  1  0  0  0  0
 11 12  1  0  0  0  0
 11 13  1  0  0  0  0
 11 14  1  0  0  0  0
 14 15  2  0  0  0  0
 14 28  1  0  0  0  0
 15 16  1  0  0  0  0
 15 17  1  0  0  0  0
 17 18  1  0  0  0  0
 17 19  1  0  0  0  0
 19 20  1  0  0  0  0
 19 28  2  0  0  0  0
 20 21  1  0  0  0  0
 20 22  2  0  0  0  0
 22 23  1  0  0  0  0
 22 24  1  0  0  0  0
 24 25  1  0  0  0  0
 24 26  2  0  0  0  0
 26 27  1  0  0  0  0
 26 28  1  0  0  0  0
 29 30  2  0  0  0  0
 29 31  1  0  0  0  0
 31 32  1  0  0  0  0
 31 33  1  0  0  0  0
 33 34  1  0  0  0  0
 33 35  1  0  0  0  0
 33 36  1  0  0  0  0
M  END
$$$$

  -OEChem-03222214083D

 36 37  0     1  0  0  0  0  0999 V2000
   -3.6829   -4.5174    1.4846 H   0  0  0  0  0  0  0  0  0  0  0  0
   -3.7374   -3.6578    0.8107 C   0  0  0  0  0  0  0  0  0  0  0  0
   -4.4897   -2.9614    1.1890 H   0  0  0  0  0  0  0  0  0  0  0  0
   -4.0379   -4.0057   -0.1807 H   0  0  0  0  0  0  0  0  0  0  0  0
   -2.3874   -2.9708    0.7304 C   0  0  0  0  0  0  0  0  0  0  0  0
   -1.4315   -3.4296    1.3360 O   0  0  0  0  0  0  0  0  0  0  0  0
   -2.2438   -1.8300   -0.0301 N   0  0  0  0  0  0  0  0  0  0  0  0
   -3.0964   -1.4073   -0.3930 H   0  0  0  0  0  0  0  0  0  0  0  0
   -1.0450   -0.9764   -0.0352 C   0  0  1  0  0  0  0  0  0  0  0  0
   -0.5198   -1.1722    0.9052 H   0  0  0  0  0  0  0  0  0  0  0  0
   -0.0501   -1.3752   -1.1491 C   0  0  0  0  0  0  0  0  0  0  0  0
    0.9495   -1.4235   -0.7057 H   0  0  0  0  0  0  0  0  0  0  0  0
   -0.2919   -2.3872   -1.4891 H   0  0  0  0  0  0  0  0  0  0  0  0
    0.0159   -0.4758   -2.3635 C   0  0  0  0  0  0  0  0  0  0  0  0
    1.1998   -0.0640   -2.9300 C   0  0  0  0  0  0  0  0  0  0  0  0
    2.1922   -0.2720   -2.5366 H   0  0  0  0  0  0  0  0  0  0  0  0
    0.9028    0.6479   -4.0873 N   0  0  0  0  0  0  0  0  0  0  0  0
    1.5847    1.0738   -4.7113 H   0  0  0  0  0  0  0  0  0  0  0  0
   -0.4621    0.6441   -4.3113 C   0  0  0  0  0  0  0  0  0  0  0  0
   -1.2179    1.1813   -5.3533 C   0  0  0  0  0  0  0  0  0  0  0  0
   -0.7346    1.7297   -6.1540 H   0  0  0  0  0  0  0  0  0  0  0  0
   -2.6065    0.9961   -5.3539 C   0  0  0  0  0  0  0  0  0  0  0  0
   -3.2098    1.4097   -6.1565 H   0  0  0  0  0  0  0  0  0  0  0  0
   -3.2164    0.2726   -4.3190 C   0  0  0  0  0  0  0  0  0  0  0  0
   -4.2921    0.1270   -4.3197 H   0  0  0  0  0  0  0  0  0  0  0  0
   -2.4426   -0.2607   -3.2784 C   0  0  0  0  0  0  0  0  0  0  0  0
   -2.9177   -0.8164   -2.4799 H   0  0  0  0  0  0  0  0  0  0  0  0
   -1.0577   -0.0607   -3.2693 C   0  0  0  0  0  0  0  0  0  0  0  0
   -1.4028    0.5244    0.0405 C   0  0  0  0  0  0  0  0  0  0  0  0
   -2.4888    0.9113   -0.3796 O   0  0  0  0  0  0  0  0  0  0  0  0
   -0.7050    1.3575    0.8980 N   0  0  0  0  0  0  0  0  0  0  0  0
    0.1459    0.9956    1.3175 H   0  0  0  0  0  0  0  0  0  0  0  0
   -1.0993    2.7331    1.1763 C   0  0  0  0  0  0  0  0  0  0  0  0
   -2.0869    2.7608    1.6484 H   0  0  0  0  0  0  0  0  0  0  0  0
   -0.3800    3.2033    1.8536 H   0  0  0  0  0  0  0  0  0  0  0  0
   -1.1344    3.3156    0.2495 H   0  0  0  0  0  0  0  0  0  0  0  0
  1  2  1  0  0  0  0
  2  3  1  0  0  0  0
  2  4  1  0  0  0  0
  2  5  1  0  0  0  0
  5  6  2  0  0  0  0
  5  7  1  0  0  0  0
  7  8  1  0  0  0  0
  7  9  1  0  0  0  0
  9 10  1  0  0  0  0
  9 11  1  0  0  0  0
  9 29  1  0  0  0  0
 11 12  1  0  0  0  0
 11 13  1  0  0  0  0
 11 14  1  0  0  0  0
 14 15  2  0  0  0  0
 14 28  1  0  0  0  0
 15 16  1  0  0  0  0
 15 17  1  0  0  0  0
 17 18  1  0  0  0  0
 17 19  1  0  0  0  0
 19 20  1  0  0  0  0
 19 28  2  0  0  0  0
 20 21  1  0  0  0  0
 20 22  2  0  0  0  0
 22 23  1  0  0  0  0
 22 24  1  0  0  0  0
 24 25  1  0  0  0  0
 24 26  2  0  0  0  0
 26 27  1  0  0  0  0
 26 28  1  0  0  0  0
 29 30  2  0  0  0  0
 29 31  1  0  0  0  0
 31 32  1  0  0  0  0
 31 33  1  0  0  0  0
 33 34  1  0  0  0  0
 33 35  1  0  0  0  0
 33 36  1  0  0  0  0
M  END
$$$$

  -OEChem-03222214083D

 36 37  0     1  0  0  0  0  0999 V2000
   -3.6321   -4.5564    1.4023 H   0  0  0  0  0  0  0  0  0  0  0  0
   -3.7184   -3.6539    0.7909 C   0  0  0  0  0  0  0  0  0  0  0  0
   -4.4526   -2.9871    1.2492 H   0  0  0  0  0  0  0  0  0  0  0  0
   -4.0639   -3.9355   -0.2067 H   0  0  0  0  0  0  0  0  0  0  0  0
   -2.3742   -2.9577    0.6949 C   0  0  0  0  0  0  0  0  0  0  0  0
   -1.3909   -3.4512    1.2246 O   0  0  0  0  0  0  0  0  0  0  0  0
   -2.2683   -1.7685    0.0053 N   0  0  0  0  0  0  0  0  0  0  0  0
   -3.1371   -1.3368   -0.3035 H   0  0  0  0  0  0  0  0  0  0  0  0
   -1.0716   -0.9112   -0.0078 C   0  0  1  0  0  0  0  0  0  0  0  0
   -0.5306   -1.1594    0.9109 H   0  0  0  0  0  0  0  0  0  0  0  0
   -0.0839   -1.2789   -1.1386 C   0  0  0  0  0  0  0  0  0  0  0  0
    0.9187   -1.3296   -0.7022 H   0  0  0  0  0  0  0  0  0  0  0  0
   -0.3245   -2.2882   -1.4878 H   0  0  0  0  0  0  0  0  0  0  0  0
   -0.0148   -0.3777   -2.3534 C   0  0  0  0  0  0  0  0  0  0  0  0
    1.1495   -0.2238   -3.0713 C   0  0  0  0  0  0  0  0  0  0  0  0
    2.1188   -0.6288   -2.7896 H   0  0  0  0  0  0  0  0  0  0  0  0
    0.8712    0.5280   -4.2064 N   0  0  0  0  0  0  0  0  0  0  0  0
    1.5471    0.7976   -4.9177 H   0  0  0  0  0  0  0  0  0  0  0  0
   -0.4854    0.7777   -4.2864 C   0  0  0  0  0  0  0  0  0  0  0  0
   -1.2295    1.4280   -5.2708 C   0  0  0  0  0  0  0  0  0  0  0  0
   -0.7348    1.8724   -6.1271 H   0  0  0  0  0  0  0  0  0  0  0  0
   -2.6225    1.4884   -5.1427 C   0  0  0  0  0  0  0  0  0  0  0  0
   -3.2181    1.9928   -5.8978 H   0  0  0  0  0  0  0  0  0  0  0  0
   -3.2485    0.8839   -4.0441 C   0  0  0  0  0  0  0  0  0  0  0  0
   -4.3291    0.9194   -3.9465 H   0  0  0  0  0  0  0  0  0  0  0  0
   -2.4848    0.2334   -3.0650 C   0  0  0  0  0  0  0  0  0  0  0  0
   -2.9820   -0.2413   -2.2290 H   0  0  0  0  0  0  0  0  0  0  0  0
   -1.0888    0.2039   -3.1694 C   0  0  0  0  0  0  0  0  0  0  0  0
   -1.3841    0.5897    0.1822 C   0  0  0  0  0  0  0  0  0  0  0  0
   -2.4941    1.0219   -0.1096 O   0  0  0  0  0  0  0  0  0  0  0  0
   -0.6144    1.3446    1.0506 N   0  0  0  0  0  0  0  0  0  0  0  0
    0.2602    0.9425    1.3739 H   0  0  0  0  0  0  0  0  0  0  0  0
   -0.9623    2.6993    1.4634 C   0  0  0  0  0  0  0  0  0  0  0  0
   -1.9031    2.7002    2.0237 H   0  0  0  0  0  0  0  0  0  0  0  0
   -0.1779    3.1122    2.1048 H   0  0  0  0  0  0  0  0  0  0  0  0
   -1.0721    3.3497    0.5892 H   0  0  0  0  0  0  0  0  0  0  0  0
  1  2  1  0  0  0  0
  2  3  1  0  0  0  0
  2  4  1  0  0  0  0
  2  5  1  0  0  0  0
  5  6  2  0  0  0  0
  5  7  1  0  0  0  0
  7  8  1  0  0  0  0
  7  9  1  0  0  0  0
  9 10  1  0  0  0  0
  9 11  1  0  0  0  0
  9 29  1  0  0  0  0
 11 12  1  0  0  0  0
 11 13  1  0  0  0  0
 11 14  1  0  0  0  0
 14 15  2  0  0  0  0
 14 28  1  0  0  0  0
 15 16  1  0  0  0  0
 15 17  1  0  0  0  0
 17 18  1  0  0  0  0
 17 19  1  0  0  0  0
 19 20  1  0  0  0  0
 19 28  2  0  0  0  0
 20 21  1  0  0  0  0
 20 22  2  0  0  0  0
 22 23  1  0  0  0  0
 22 24  1  0  0  0  0
 24 25  1  0  0  0  0
 24 26  2  0  0  0  0
 26 27  1  0  0  0  0
 26 28  1  0  0  0  0
 29 30  2  0  0  0  0
 29 31  1  0  0  0  0
 31 32  1  0  0  0  0
 31 33  1  0  0  0  0
 33 34  1  0  0  0  0
 33 35  1  0  0  0  0
 33 36  1  0  0  0  0
M  END
$$$$

  -OEChem-03222214083D

 36 37  0     1  0  0  0  0  0999 V2000
   -3.5176   -4.5424    1.4545 H   0  0  0  0  0  0  0  0  0  0  0  0
   -3.6414   -3.6357    0.8557 C   0  0  0  0  0  0  0  0  0  0  0  0
   -4.3805   -2.9923    1.3396 H   0  0  0  0  0  0  0  0  0  0  0  0
   -4.0045   -3.9145   -0.1364 H   0  0  0  0  0  0  0  0  0  0  0  0
   -2.3181   -2.9045    0.7341 C   0  0  0  0  0  0  0  0  0  0  0  0
   -1.3042   -3.3916    1.2094 O   0  0  0  0  0  0  0  0  0  0  0  0
   -2.2681   -1.6905    0.0824 N   0  0  0  0  0  0  0  0  0  0  0  0
   -3.1579   -1.2789   -0.1910 H   0  0  0  0  0  0  0  0  0  0  0  0
   -1.0960   -0.8011    0.0450 C   0  0  1  0  0  0  0  0  0  0  0  0
   -0.5532   -1.0567    0.9609 H   0  0  0  0  0  0  0  0  0  0  0  0
   -0.0772   -1.1553   -1.0622 C   0  0  0  0  0  0  0  0  0  0  0  0
    0.9178   -1.1463   -0.6056 H   0  0  0  0  0  0  0  0  0  0  0  0
   -0.2662   -2.1869   -1.3768 H   0  0  0  0  0  0  0  0  0  0  0  0
   -0.0004   -0.3031   -2.3127 C   0  0  0  0  0  0  0  0  0  0  0  0
    1.0924   -0.4036   -3.1442 C   0  0  0  0  0  0  0  0  0  0  0  0
    1.9943   -0.9717   -2.9263 H   0  0  0  0  0  0  0  0  0  0  0  0
    0.8581    0.3577   -4.2816 N   0  0  0  0  0  0  0  0  0  0  0  0
    1.5032    0.4729   -5.0602 H   0  0  0  0  0  0  0  0  0  0  0  0
   -0.4353    0.8390   -4.2643 C   0  0  0  0  0  0  0  0  0  0  0  0
   -1.1311    1.5713   -5.2262 C   0  0  0  0  0  0  0  0  0  0  0  0
   -0.6322    1.9031   -6.1297 H   0  0  0  0  0  0  0  0  0  0  0  0
   -2.4853    1.8545   -5.0170 C   0  0  0  0  0  0  0  0  0  0  0  0
   -3.0443    2.4258   -5.7520 H   0  0  0  0  0  0  0  0  0  0  0  0
   -3.1256    1.3733   -3.8684 C   0  0  0  0  0  0  0  0  0  0  0  0
   -4.1833    1.5647   -3.7145 H   0  0  0  0  0  0  0  0  0  0  0  0
   -2.4087    0.6363   -2.9155 C   0  0  0  0  0  0  0  0  0  0  0  0
   -2.9367    0.2345   -2.0623 H   0  0  0  0  0  0  0  0  0  0  0  0
   -1.0365    0.4070   -3.0828 C   0  0  0  0  0  0  0  0  0  0  0  0
   -1.3970    0.6937    0.2942 C   0  0  0  0  0  0  0  0  0  0  0  0
   -2.5315    1.1244    0.1167 O   0  0  0  0  0  0  0  0  0  0  0  0
   -0.5806    1.4166    1.1471 N   0  0  0  0  0  0  0  0  0  0  0  0
    0.3271    1.0211    1.3729 H   0  0  0  0  0  0  0  0  0  0  0  0
   -0.9092    2.7489    1.6401 C   0  0  0  0  0  0  0  0  0  0  0  0
   -1.8161    2.7176    2.2533 H   0  0  0  0  0  0  0  0  0  0  0  0
   -0.0910    3.1375    2.2539 H   0  0  0  0  0  0  0  0  0  0  0  0
   -1.0712    3.4373    0.8038 H   0  0  0  0  0  0  0  0  0  0  0  0
  1  2  1  0  0  0  0
  2  3  1  0  0  0  0
  2  4  1  0  0  0  0
  2  5  1  0  0  0  0
  5  6  2  0  0  0  0
  5  7  1  0  0  0  0
  7  8  1  0  0  0  0
  7  9  1  0  0  0  0
  9 10  1  0  0  0  0
  9 11  1  0  0  0  0
  9 29  1  0  0  0  0
 11 12  1  0  0  0  0
 11 13  1  0  0  0  0
 11 14  1  0  0  0  0
 14 15  2  0  0  0  0
 14 28  1  0  0  0  0
 15 16  1  0  0  0  0
 15 17  1  0  0  0  0
 17 18  1  0  0  0  0
 17 19  1  0  0  0  0
 19 20  1  0  0  0  0
 19 28  2  0  0  0  0
 20 21  1  0  0  0  0
 20 22  2  0  0  0  0
 22 23  1  0  0  0  0
 22 24  1  0  0  0  0
 24 25  1  0  0  0  0
 24 26  2  0  0  0  0
 26 27  1  0  0  0  0
 26 28  1  0  0  0  0
 29 30  2  0  0  0  0
 29 31  1  0  0  0  0
 31 32  1  0  0  0  0
 31 33  1  0  0  0  0
 33 34  1  0  0  0  0
 33 35  1  0  0  0  0
 33 36  1  0  0  0  0
M  END
$$$$

  -OEChem-03222214083D

 36 37  0     1  0  0  0  0  0999 V2000
   -3.2098   -5.0857    1.0545 H   0  0  0  0  0  0  0  0  0  0  0  0
   -3.4443   -4.0927    0.6609 C   0  0  0  0  0  0  0  0  0  0  0  0
   -4.1746   -3.6154    1.3187 H   0  0  0  0  0  0  0  0  0  0  0  0
   -3.8785   -4.2023   -0.3359 H   0  0  0  0  0  0  0  0  0  0  0  0
   -2.1859   -3.2490    0.5877 C   0  0  0  0  0  0  0  0  0  0  0  0
   -1.1328   -3.6793    1.0310 O   0  0  0  0  0  0  0  0  0  0  0  0
   -2.2328   -1.9956    0.0167 N   0  0  0  0  0  0  0  0  0  0  0  0
   -3.1524   -1.6291   -0.2282 H   0  0  0  0  0  0  0  0  0  0  0  0
   -1.1354   -1.0140    0.0622 C   0  0  1  0  0  0  0  0  0  0  0  0
   -0.5125   -1.2658    0.9269 H   0  0  0  0  0  0  0  0  0  0  0  0
   -0.2108   -1.1813   -1.1716 C   0  0  0  0  0  0  0  0  0  0  0  0
    0.7644   -1.4667   -0.7627 H   0  0  0  0  0  0  0  0  0  0  0  0
   -0.5738   -2.0574   -1.7200 H   0  0  0  0  0  0  0  0  0  0  0  0
    0.0871   -0.1246   -2.2368 C   0  0  0  0  0  0  0  0  0  0  0  0
    0.9512   -0.5702   -3.2148 C   0  0  0  0  0  0  0  0  0  0  0  0
    1.3827   -1.5681   -3.2578 H   0  0  0  0  0  0  0  0  0  0  0  0
    1.1901    0.4509   -4.1147 N   0  0  0  0  0  0  0  0  0  0  0  0
    1.7892    0.3926   -4.9352 H   0  0  0  0  0  0  0  0  0  0  0  0
    0.4811    1.5692   -3.7416 C   0  0  0  0  0  0  0  0  0  0  0  0
    0.4549    2.8031   -4.3898 C   0  0  0  0  0  0  0  0  0  0  0  0
    1.0405    2.9651   -5.2878 H   0  0  0  0  0  0  0  0  0  0  0  0
   -0.3387    3.8248   -3.8685 C   0  0  0  0  0  0  0  0  0  0  0  0
   -0.3761    4.7934   -4.3580 H   0  0  0  0  0  0  0  0  0  0  0  0
   -1.0908    3.5875   -2.7156 C   0  0  0  0  0  0  0  0  0  0  0  0
   -1.7202    4.3737   -2.3099 H   0  0  0  0  0  0  0  0  0  0  0  0
   -1.0470    2.3381   -2.0800 C   0  0  0  0  0  0  0  0  0  0  0  0
   -1.6659    2.2352   -1.2072 H   0  0  0  0  0  0  0  0  0  0  0  0
   -0.2464    1.2899   -2.5765 C   0  0  0  0  0  0  0  0  0  0  0  0
   -1.6937    0.3716    0.4103 C   0  0  0  0  0  0  0  0  0  0  0  0
   -2.8612    0.6352    0.1313 O   0  0  0  0  0  0  0  0  0  0  0  0
   -1.0514    1.1630    1.3466 N   0  0  0  0  0  0  0  0  0  0  0  0
   -0.1132    0.8908    1.6260 H   0  0  0  0  0  0  0  0  0  0  0  0
   -1.6340    2.3702    1.9198 C   0  0  0  0  0  0  0  0  0  0  0  0
   -2.5476    2.1283    2.4728 H   0  0  0  0  0  0  0  0  0  0  0  0
   -0.9267    2.8399    2.6101 H   0  0  0  0  0  0  0  0  0  0  0  0
   -1.8781    3.0911    1.1327 H   0  0  0  0  0  0  0  0  0  0  0  0
  1  2  1  0  0  0  0
  2  3  1  0  0  0  0
  2  4  1  0  0  0  0
  2  5  1  0  0  0  0
  5  6  2  0  0  0  0
  5  7  1  0  0  0  0
  7  8  1  0  0  0  0
  7  9  1  0  0  0  0
  9 10  1  0  0  0  0
  9 11  1  0  0  0  0
  9 29  1  0  0  0  0
 11 12  1  0  0  0  0
 11 13  1  0  0  0  0
 11 14  1  0  0  0  0
 14 15  2  0  0  0  0
 14 28  1  0  0  0  0
 15 16  1  0  0  0  0
 15 17  1  0  0  0  0
 17 18  1  0  0  0  0
 17 19  1  0  0  0  0
 19 20  1  0  0  0  0
 19 28  2  0  0  0  0
 20 21  1  0  0  0  0
 20 22  2  0  0  0  0
 22 23  1  0  0  0  0
 22 24  1  0  0  0  0
 24 25  1  0  0  0  0
 24 26  2  0  0  0  0
 26 27  1  0  0  0  0
 26 28  1  0  0  0  0
 29 30  2  0  0  0  0
 29 31  1  0  0  0  0
 31 32  1  0  0  0  0
 31 33  1  0  0  0  0
 33 34  1  0  0  0  0
 33 35  1  0  0  0  0
 33 36  1  0  0  0  0
M  END
$$$$

  -OEChem-03222214083D

 36 37  0     1  0  0  0  0  0999 V2000
   -3.1773   -5.0068    1.1753 H   0  0  0  0  0  0  0  0  0  0  0  0
   -3.3912   -4.0566    0.6780 C   0  0  0  0  0  0  0  0  0  0  0  0
   -4.1994   -3.5528    1.2136 H   0  0  0  0  0  0  0  0  0  0  0  0
   -3.7133   -4.2596   -0.3461 H   0  0  0  0  0  0  0  0  0  0  0  0
   -2.1521   -3.1818    0.6676 C   0  0  0  0  0  0  0  0  0  0  0  0
   -1.1200   -3.5754    1.1874 O   0  0  0  0  0  0  0  0  0  0  0  0
   -2.1925   -1.9408    0.0694 N   0  0  0  0  0  0  0  0  0  0  0  0
   -3.0970   -1.6089   -0.2644 H   0  0  0  0  0  0  0  0  0  0  0  0
   -1.1090   -0.9440    0.1273 C   0  0  1  0  0  0  0  0  0  0  0  0
   -0.4846   -1.1692    0.9984 H   0  0  0  0  0  0  0  0  0  0  0  0
   -0.2068   -1.1581   -1.1221 C   0  0  0  0  0  0  0  0  0  0  0  0
    0.7790   -1.4048   -0.7147 H   0  0  0  0  0  0  0  0  0  0  0  0
   -0.5550   -2.0665   -1.6261 H   0  0  0  0  0  0  0  0  0  0  0  0
    0.0775   -0.1350   -2.2233 C   0  0  0  0  0  0  0  0  0  0  0  0
    0.6318   -0.6790   -3.3640 C   0  0  0  0  0  0  0  0  0  0  0  0
    0.8265   -1.7382   -3.5193 H   0  0  0  0  0  0  0  0  0  0  0  0
    0.9029    0.3302   -4.2696 N   0  0  0  0  0  0  0  0  0  0  0  0
    1.3082    0.2064   -5.1948 H   0  0  0  0  0  0  0  0  0  0  0  0
    0.5569    1.5446   -3.7234 C   0  0  0  0  0  0  0  0  0  0  0  0
    0.6888    2.8051   -4.3042 C   0  0  0  0  0  0  0  0  0  0  0  0
    1.0944    2.9091   -5.3043 H   0  0  0  0  0  0  0  0  0  0  0  0
    0.2927    3.9296   -3.5789 C   0  0  0  0  0  0  0  0  0  0  0  0
    0.3838    4.9213   -4.0122 H   0  0  0  0  0  0  0  0  0  0  0  0
   -0.2228    3.7677   -2.2900 C   0  0  0  0  0  0  0  0  0  0  0  0
   -0.5346    4.6371   -1.7194 H   0  0  0  0  0  0  0  0  0  0  0  0
   -0.3449    2.4888   -1.7279 C   0  0  0  0  0  0  0  0  0  0  0  0
   -0.7491    2.4374   -0.7352 H   0  0  0  0  0  0  0  0  0  0  0  0
    0.0397    1.3380   -2.4382 C   0  0  0  0  0  0  0  0  0  0  0  0
   -1.7055    0.4382    0.4284 C   0  0  0  0  0  0  0  0  0  0  0  0
   -2.8192    0.7377    0.0098 O   0  0  0  0  0  0  0  0  0  0  0  0
   -1.1016    1.2493    1.3760 N   0  0  0  0  0  0  0  0  0  0  0  0
   -0.2372    0.9144    1.7924 H   0  0  0  0  0  0  0  0  0  0  0  0
   -1.7478    2.4234    1.9521 C   0  0  0  0  0  0  0  0  0  0  0  0
   -2.6287    2.1280    2.5316 H   0  0  0  0  0  0  0  0  0  0  0  0
   -1.0545    2.9479    2.6165 H   0  0  0  0  0  0  0  0  0  0  0  0
   -2.0618    3.1185    1.1663 H   0  0  0  0  0  0  0  0  0  0  0  0
  1  2  1  0  0  0  0
  2  3  1  0  0  0  0
  2  4  1  0  0  0  0
  2  5  1  0  0  0  0
  5  6  2  0  0  0  0
  5  7  1  0  0  0  0
  7  8  1  0  0  0  0
  7  9  1  0  0  0  0
  9 10  1  0  0  0  0
  9 11  1  0  0  0  0
  9 29  1  0  0  0  0
 11 12  1  0  0  0  0
 11 13  1  0  0  0  0
 11 14  1  0  0  0  0
 14 15  2  0  0  0  0
 14 28  1  0  0  0  0
 15 16  1  0  0  0  0
 15 17  1  0  0  0  0
 17 18  1  0  0  0  0
 17 19  1  0  0  0  0
 19 20  1  0  0  0  0
 19 28  2  0  0  0  0
 20 21  1  0  0  0  0
 20 22  2  0  0  0  0
 22 23  1  0  0  0  0
 22 24  1  0  0  0  0
 24 25  1  0  0  0  0
 24 26  2  0  0  0  0
 26 27  1  0  0  0  0
 26 28  1  0  0  0  0
 29 30  2  0  0  0  0
 29 31  1  0  0  0  0
 31 32  1  0  0  0  0
 31 33  1  0  0  0  0
 33 34  1  0  0  0  0
 33 35  1  0  0  0  0
 33 36  1  0  0  0  0
M  END
$$$$

  -OEChem-03222214083D

 36 37  0     1  0  0  0  0  0999 V2000
   -3.1701   -4.8896    1.4838 H   0  0  0  0  0  0  0  0  0  0  0  0
   -3.3537   -4.0210    0.8452 C   0  0  0  0  0  0  0  0  0  0  0  0
   -4.2097   -3.4678    1.2393 H   0  0  0  0  0  0  0  0  0  0  0  0
   -3.5861   -4.3684   -0.1644 H   0  0  0  0  0  0  0  0  0  0  0  0
   -2.1287   -3.1271    0.8153 C   0  0  0  0  0  0  0  0  0  0  0  0
   -1.1388   -3.4204    1.4666 O   0  0  0  0  0  0  0  0  0  0  0  0
   -2.1362   -1.9789    0.0545 N   0  0  0  0  0  0  0  0  0  0  0  0
   -3.0189   -1.7026   -0.3766 H   0  0  0  0  0  0  0  0  0  0  0  0
   -1.0717   -0.9610    0.0704 C   0  0  1  0  0  0  0  0  0  0  0  0
   -0.4407   -1.0498    0.9603 H   0  0  0  0  0  0  0  0  0  0  0  0
   -0.2189   -1.2416   -1.2040 C   0  0  0  0  0  0  0  0  0  0  0  0
    0.7914   -1.4710   -0.8514 H   0  0  0  0  0  0  0  0  0  0  0  0
   -0.5801   -2.1511   -1.6965 H   0  0  0  0  0  0  0  0  0  0  0  0
   -0.0673   -0.1703   -2.2675 C   0  0  0  0  0  0  0  0  0  0  0  0
    0.0955   -0.5150   -3.5910 C   0  0  0  0  0  0  0  0  0  0  0  0
   -0.0336   -1.5167   -3.9946 H   0  0  0  0  0  0  0  0  0  0  0  0
    0.4029    0.6269   -4.3189 N   0  0  0  0  0  0  0  0  0  0  0  0
    0.5371    0.6677   -5.3267 H   0  0  0  0  0  0  0  0  0  0  0  0
    0.6215    1.6824   -3.4586 C   0  0  0  0  0  0  0  0  0  0  0  0
    1.0571    2.9804   -3.7228 C   0  0  0  0  0  0  0  0  0  0  0  0
    1.1946    3.3142   -4.7451 H   0  0  0  0  0  0  0  0  0  0  0  0
    1.3413    3.8333   -2.6507 C   0  0  0  0  0  0  0  0  0  0  0  0
    1.6844    4.8466   -2.8374 H   0  0  0  0  0  0  0  0  0  0  0  0
    1.2228    3.3608   -1.3374 C   0  0  0  0  0  0  0  0  0  0  0  0
    1.4866    4.0063   -0.5054 H   0  0  0  0  0  0  0  0  0  0  0  0
    0.7833    2.0513   -1.0955 C   0  0  0  0  0  0  0  0  0  0  0  0
    0.7640    1.6815   -0.0810 H   0  0  0  0  0  0  0  0  0  0  0  0
    0.4143    1.2195   -2.1607 C   0  0  0  0  0  0  0  0  0  0  0  0
   -1.8216    0.3925    0.1365 C   0  0  0  0  0  0  0  0  0  0  0  0
   -2.8779    0.5409   -0.4735 O   0  0  0  0  0  0  0  0  0  0  0  0
   -1.4199    1.3910    1.0060 N   0  0  0  0  0  0  0  0  0  0  0  0
   -0.6042    1.2130    1.5835 H   0  0  0  0  0  0  0  0  0  0  0  0
   -2.1262    2.6580    1.1507 C   0  0  0  0  0  0  0  0  0  0  0  0
   -3.1372    2.4918    1.5373 H   0  0  0  0  0  0  0  0  0  0  0  0
   -1.5918    3.3117    1.8466 H   0  0  0  0  0  0  0  0  0  0  0  0
   -2.1971    3.1681    0.1839 H   0  0  0  0  0  0  0  0  0  0  0  0
  1  2  1  0  0  0  0
  2  3  1  0  0  0  0
  2  4  1  0  0  0  0
  2  5  1  0  0  0  0
  5  6  2  0  0  0  0
  5  7  1  0  0  0  0
  7  8  1  0  0  0  0
  7  9  1  0  0  0  0
  9 10  1  0  0  0  0
  9 11  1  0  0  0  0
  9 29  1  0  0  0  0
 11 12  1  0  0  0  0
 11 13  1  0  0  0  0
 11 14  1  0  0  0  0
 14 15  2  0  0  0  0
 14 28  1  0  0  0  0
 15 16  1  0  0  0  0
 15 17  1  0  0  0  0
 17 18  1  0  0  0  0
 17 19  1  0  0  0  0
 19 20  1  0  0  0  0
 19 28  2  0  0  0  0
 20 21  1  0  0  0  0
 20 22  2  0  0  0  0
 22 23  1  0  0  0  0
 22 24  1  0  0  0  0
 24 25  1  0  0  0  0
 24 26  2  0  0  0  0
 26 27  1  0  0  0  0
 26 28  1  0  0  0  0
 29 30  2  0  0  0  0
 29 31  1  0  0  0  0
 31 32  1  0  0  0  0
 31 33  1  0  0  0  0
 33 34  1  0  0  0  0
 33 35  1  0  0  0  0
 33 36  1  0  0  0  0
M  END
$$$$

  -OEChem-03222214083D

 36 37  0     1  0  0  0  0  0999 V2000
   -3.3913   -4.7611    1.4804 H   0  0  0  0  0  0  0  0  0  0  0  0
   -3.4886   -3.9379    0.7671 C   0  0  0  0  0  0  0  0  0  0  0  0
   -4.3646   -3.3421    1.0349 H   0  0  0  0  0  0  0  0  0  0  0  0
   -3.6311   -4.3535   -0.2333 H   0  0  0  0  0  0  0  0  0  0  0  0
   -2.2430   -3.0721    0.7956 C   0  0  0  0  0  0  0  0  0  0  0  0
   -1.3122   -3.3617    1.5303 O   0  0  0  0  0  0  0  0  0  0  0  0
   -2.1642   -1.9556   -0.0077 N   0  0  0  0  0  0  0  0  0  0  0  0
   -3.0067   -1.6760   -0.5100 H   0  0  0  0  0  0  0  0  0  0  0  0
   -1.0795   -0.9613    0.0479 C   0  0  1  0  0  0  0  0  0  0  0  0
   -0.5293   -1.0345    0.9916 H   0  0  0  0  0  0  0  0  0  0  0  0
   -0.1130   -1.2834   -1.1270 C   0  0  0  0  0  0  0  0  0  0  0  0
    0.8633   -1.5141   -0.6897 H   0  0  0  0  0  0  0  0  0  0  0  0
   -0.4431   -2.1940   -1.6382 H   0  0  0  0  0  0  0  0  0  0  0  0
    0.1060   -0.2068   -2.1675 C   0  0  0  0  0  0  0  0  0  0  0  0
    0.0902   -0.4521   -3.5209 C   0  0  0  0  0  0  0  0  0  0  0  0
   -0.2093   -1.3893   -3.9845 H   0  0  0  0  0  0  0  0  0  0  0  0
    0.4984    0.7028   -4.1800 N   0  0  0  0  0  0  0  0  0  0  0  0
    0.5498    0.8192   -5.1896 H   0  0  0  0  0  0  0  0  0  0  0  0
    0.9052    1.6534   -3.2628 C   0  0  0  0  0  0  0  0  0  0  0  0
    1.4629    2.9189   -3.4453 C   0  0  0  0  0  0  0  0  0  0  0  0
    1.5864    3.3239   -4.4436 H   0  0  0  0  0  0  0  0  0  0  0  0
    1.8805    3.6477   -2.3247 C   0  0  0  0  0  0  0  0  0  0  0  0
    2.3198    4.6329   -2.4508 H   0  0  0  0  0  0  0  0  0  0  0  0
    1.7564    3.0922   -1.0435 C   0  0  0  0  0  0  0  0  0  0  0  0
    2.1069    3.6467   -0.1785 H   0  0  0  0  0  0  0  0  0  0  0  0
    1.1928    1.8189   -0.8780 C   0  0  0  0  0  0  0  0  0  0  0  0
    1.1336    1.3797    0.1098 H   0  0  0  0  0  0  0  0  0  0  0  0
    0.7247    1.1129   -1.9930 C   0  0  0  0  0  0  0  0  0  0  0  0
   -1.7621    0.4280    0.0055 C   0  0  0  0  0  0  0  0  0  0  0  0
   -2.7729    0.5923   -0.6737 O   0  0  0  0  0  0  0  0  0  0  0  0
   -1.3707    1.4401    0.8638 N   0  0  0  0  0  0  0  0  0  0  0  0
   -0.5715    1.2665    1.4644 H   0  0  0  0  0  0  0  0  0  0  0  0
   -1.9928    2.7579    0.8798 C   0  0  0  0  0  0  0  0  0  0  0  0
   -3.0534    2.6785    1.1408 H   0  0  0  0  0  0  0  0  0  0  0  0
   -1.5021    3.3994    1.6178 H   0  0  0  0  0  0  0  0  0  0  0  0
   -1.9051    3.2326   -0.1034 H   0  0  0  0  0  0  0  0  0  0  0  0
  1  2  1  0  0  0  0
  2  3  1  0  0  0  0
  2  4  1  0  0  0  0
  2  5  1  0  0  0  0
  5  6  2  0  0  0  0
  5  7  1  0  0  0  0
  7  8  1  0  0  0  0
  7  9  1  0  0  0  0
  9 10  1  0  0  0  0
  9 11  1  0  0  0  0
  9 29  1  0  0  0  0
 11 12  1  0  0  0  0
 11 13  1  0  0  0  0
 11 14  1  0  0  0  0
 14 15  2  0  0  0  0
 14 28  1  0  0  0  0
 15 16  1  0  0  0  0
 15 17  1  0  0  0  0
 17 18  1  0  0  0  0
 17 19  1  0  0  0  0
 19 20  1  0  0  0  0
 19 28  2  0  0  0  0
 20 21  1  0  0  0  0
 20 22  2  0  0  0  0
 22 23  1  0  0  0  0
 22 24  1  0  0  0  0
 24 25  1  0  0  0  0
 24 26  2  0  0  0  0
 26 27  1  0  0  0  0
 26 28  1  0  0  0  0
 29 30  2  0  0  0  0
 29 31  1  0  0  0  0
 31 32  1  0  0  0  0
 31 33  1  0  0  0  0
 33 34  1  0  0  0  0
 33 35  1  0  0  0  0
 33 36  1  0  0  0  0
M  END
$$$$

  -OEChem-03222214083D

 36 37  0     1  0  0  0  0  0999 V2000
   -3.5260   -4.6509    1.5062 H   0  0  0  0  0  0  0  0  0  0  0  0
   -3.5710   -3.8549    0.7575 C   0  0  0  0  0  0  0  0  0  0  0  0
   -4.4268   -3.2124    0.9781 H   0  0  0  0  0  0  0  0  0  0  0  0
   -3.7072   -4.3057   -0.2285 H   0  0  0  0  0  0  0  0  0  0  0  0
   -2.2906   -3.0414    0.7826 C   0  0  0  0  0  0  0  0  0  0  0  0
   -1.3758   -3.3621    1.5243 O   0  0  0  0  0  0  0  0  0  0  0  0
   -2.1603   -1.9419   -0.0376 N   0  0  0  0  0  0  0  0  0  0  0  0
   -2.9886   -1.6354   -0.5472 H   0  0  0  0  0  0  0  0  0  0  0  0
   -1.0409   -0.9877    0.0179 C   0  0  1  0  0  0  0  0  0  0  0  0
   -0.5231   -1.0704    0.9787 H   0  0  0  0  0  0  0  0  0  0  0  0
   -0.0366   -1.3472   -1.1091 C   0  0  0  0  0  0  0  0  0  0  0  0
    0.9204   -1.6004   -0.6426 H   0  0  0  0  0  0  0  0  0  0  0  0
   -0.3767   -2.2474   -1.6313 H   0  0  0  0  0  0  0  0  0  0  0  0
    0.2180   -0.2672   -2.1331 C   0  0  0  0  0  0  0  0  0  0  0  0
   -0.0279   -0.3832   -3.4800 C   0  0  0  0  0  0  0  0  0  0  0  0
   -0.5146   -1.2287   -3.9607 H   0  0  0  0  0  0  0  0  0  0  0  0
    0.4391    0.7722   -4.1008 N   0  0  0  0  0  0  0  0  0  0  0  0
    0.3597    0.9796   -5.0939 H   0  0  0  0  0  0  0  0  0  0  0  0
    1.0533    1.5993   -3.1763 C   0  0  0  0  0  0  0  0  0  0  0  0
    1.7014    2.8258   -3.3212 C   0  0  0  0  0  0  0  0  0  0  0  0
    1.7570    3.3021   -4.2939 H   0  0  0  0  0  0  0  0  0  0  0  0
    2.2877    3.4251   -2.1981 C   0  0  0  0  0  0  0  0  0  0  0  0
    2.7966    4.3793   -2.2975 H   0  0  0  0  0  0  0  0  0  0  0  0
    2.2313    2.7855   -0.9507 C   0  0  0  0  0  0  0  0  0  0  0  0
    2.7019    3.2442   -0.0865 H   0  0  0  0  0  0  0  0  0  0  0  0
    1.5761    1.5529   -0.8193 C   0  0  0  0  0  0  0  0  0  0  0  0
    1.5471    1.0479    0.1391 H   0  0  0  0  0  0  0  0  0  0  0  0
    0.9644    0.9746   -1.9372 C   0  0  0  0  0  0  0  0  0  0  0  0
   -1.6353    0.4394   -0.0545 C   0  0  0  0  0  0  0  0  0  0  0  0
   -2.6335    0.6496   -0.7395 O   0  0  0  0  0  0  0  0  0  0  0  0
   -1.1886    1.4347    0.7963 N   0  0  0  0  0  0  0  0  0  0  0  0
   -0.3639    1.2360    1.3530 H   0  0  0  0  0  0  0  0  0  0  0  0
   -1.6816    2.8049    0.7416 C   0  0  0  0  0  0  0  0  0  0  0  0
   -2.7591    2.8336    0.9340 H   0  0  0  0  0  0  0  0  0  0  0  0
   -1.1797    3.4165    1.4973 H   0  0  0  0  0  0  0  0  0  0  0  0
   -1.4861    3.2420   -0.2435 H   0  0  0  0  0  0  0  0  0  0  0  0
  1  2  1  0  0  0  0
  2  3  1  0  0  0  0
  2  4  1  0  0  0  0
  2  5  1  0  0  0  0
  5  6  2  0  0  0  0
  5  7  1  0  0  0  0
  7  8  1  0  0  0  0
  7  9  1  0  0  0  0
  9 10  1  0  0  0  0
  9 11  1  0  0  0  0
  9 29  1  0  0  0  0
 11 12  1  0  0  0  0
 11 13  1  0  0  0  0
 11 14  1  0  0  0  0
 14 15  2  0  0  0  0
 14 28  1  0  0  0  0
 15 16  1  0  0  0  0
 15 17  1  0  0  0  0
 17 18  1  0  0  0  0
 17 19  1  0  0  0  0
 19 20  1  0  0  0  0
 19 28  2  0  0  0  0
 20 21  1  0  0  0  0
 20 22  2  0  0  0  0
 22 23  1  0  0  0  0
 22 24  1  0  0  0  0
 24 25  1  0  0  0  0
 24 26  2  0  0  0  0
 26 27  1  0  0  0  0
 26 28  1  0  0  0  0
 29 30  2  0  0  0  0
 29 31  1  0  0  0  0
 31 32  1  0  0  0  0
 31 33  1  0  0  0  0
 33 34  1  0  0  0  0
 33 35  1  0  0  0  0
 33 36  1  0  0  0  0
M  END
$$$$

  -OEChem-03222214083D

 36 37  0     1  0  0  0  0  0999 V2000
   -3.6105   -4.5571    1.5437 H   0  0  0  0  0  0  0  0  0  0  0  0
   -3.6342   -3.7631    0.7921 C   0  0  0  0  0  0  0  0  0  0  0  0
   -4.4505   -3.0770    1.0305 H   0  0  0  0  0  0  0  0  0  0  0  0
   -3.8174   -4.2106   -0.1877 H   0  0  0  0  0  0  0  0  0  0  0  0
   -2.3145   -3.0149    0.7812 C   0  0  0  0  0  0  0  0  0  0  0  0
   -1.4059   -3.3657    1.5170 O   0  0  0  0  0  0  0  0  0  0  0  0
   -2.1441   -1.9378   -0.0611 N   0  0  0  0  0  0  0  0  0  0  0  0
   -2.9666   -1.5991   -0.5594 H   0  0  0  0  0  0  0  0  0  0  0  0
   -0.9861   -1.0300   -0.0255 C   0  0  1  0  0  0  0  0  0  0  0  0
   -0.4798   -1.1164    0.9412 H   0  0  0  0  0  0  0  0  0  0  0  0
    0.0251   -1.4324   -1.1289 C   0  0  0  0  0  0  0  0  0  0  0  0
    0.9698   -1.7207   -0.6574 H   0  0  0  0  0  0  0  0  0  0  0  0
   -0.3452   -2.3176   -1.6561 H   0  0  0  0  0  0  0  0  0  0  0  0
    0.3015   -0.3521   -2.1442 C   0  0  0  0  0  0  0  0  0  0  0  0
   -0.1718   -0.3029   -3.4323 C   0  0  0  0  0  0  0  0  0  0  0  0
   -0.8431   -1.0278   -3.8871 H   0  0  0  0  0  0  0  0  0  0  0  0
    0.3407    0.8493   -4.0245 N   0  0  0  0  0  0  0  0  0  0  0  0
    0.1323    1.1657   -4.9689 H   0  0  0  0  0  0  0  0  0  0  0  0
    1.1610    1.5267   -3.1367 C   0  0  0  0  0  0  0  0  0  0  0  0
    1.8948    2.7063   -3.2621 C   0  0  0  0  0  0  0  0  0  0  0  0
    1.8686    3.2693   -4.1883 H   0  0  0  0  0  0  0  0  0  0  0  0
    2.6670    3.1493   -2.1790 C   0  0  0  0  0  0  0  0  0  0  0  0
    3.2444    4.0649   -2.2645 H   0  0  0  0  0  0  0  0  0  0  0  0
    2.7021    2.4068   -0.9887 C   0  0  0  0  0  0  0  0  0  0  0  0
    3.3100    2.7483   -0.1563 H   0  0  0  0  0  0  0  0  0  0  0  0
    1.9591    1.2233   -0.8739 C   0  0  0  0  0  0  0  0  0  0  0  0
    1.9903    0.6409    0.0404 H   0  0  0  0  0  0  0  0  0  0  0  0
    1.1790    0.7972   -1.9542 C   0  0  0  0  0  0  0  0  0  0  0  0
   -1.5050    0.4253   -0.1226 C   0  0  0  0  0  0  0  0  0  0  0  0
   -2.5018    0.6694   -0.7989 O   0  0  0  0  0  0  0  0  0  0  0  0
   -1.0022    1.4098    0.7091 N   0  0  0  0  0  0  0  0  0  0  0  0
   -0.1471    1.1920    1.2105 H   0  0  0  0  0  0  0  0  0  0  0  0
   -1.4007    2.8072    0.5987 C   0  0  0  0  0  0  0  0  0  0  0  0
   -2.4819    2.9126    0.7374 H   0  0  0  0  0  0  0  0  0  0  0  0
   -0.8965    3.4045    1.3643 H   0  0  0  0  0  0  0  0  0  0  0  0
   -1.1302    3.2039   -0.3859 H   0  0  0  0  0  0  0  0  0  0  0  0
  1  2  1  0  0  0  0
  2  3  1  0  0  0  0
  2  4  1  0  0  0  0
  2  5  1  0  0  0  0
  5  6  2  0  0  0  0
  5  7  1  0  0  0  0
  7  8  1  0  0  0  0
  7  9  1  0  0  0  0
  9 10  1  0  0  0  0
  9 11  1  0  0  0  0
  9 29  1  0  0  0  0
 11 12  1  0  0  0  0
 11 13  1  0  0  0  0
 11 14  1  0  0  0  0
 14 15  2  0  0  0  0
 14 28  1  0  0  0  0
 15 16  1  0  0  0  0
 15 17  1  0  0  0  0
 17 18  1  0  0  0  0
 17 19  1  0  0  0  0
 19 20  1  0  0  0  0
 19 28  2  0  0  0  0
 20 21  1  0  0  0  0
 20 22  2  0  0  0  0
 22 23  1  0  0  0  0
 22 24  1  0  0  0  0
 24 25  1  0  0  0  0
 24 26  2  0  0  0  0
 26 27  1  0  0  0  0
 26 28  1  0  0  0  0
 29 30  2  0  0  0  0
 29 31  1  0  0  0  0
 31 32  1  0  0  0  0
 31 33  1  0  0  0  0
 33 34  1  0  0  0  0
 33 35  1  0  0  0  0
 33 36  1  0  0  0  0
M  END
$$$$

  -OEChem-03222214083D

 36 37  0     1  0  0  0  0  0999 V2000
   -3.6622   -4.5039    1.5602 H   0  0  0  0  0  0  0  0  0  0  0  0
   -3.6693   -3.7195    0.7982 C   0  0  0  0  0  0  0  0  0  0  0  0
   -4.4659   -3.0091    1.0324 H   0  0  0  0  0  0  0  0  0  0  0  0
   -3.8702   -4.1748   -0.1745 H   0  0  0  0  0  0  0  0  0  0  0  0
   -2.3305   -3.0063    0.7694 C   0  0  0  0  0  0  0  0  0  0  0  0
   -1.4230   -3.3798    1.4952 O   0  0  0  0  0  0  0  0  0  0  0  0
   -2.1420   -1.9355   -0.0778 N   0  0  0  0  0  0  0  0  0  0  0  0
   -2.9620   -1.5761   -0.5650 H   0  0  0  0  0  0  0  0  0  0  0  0
   -0.9615   -1.0568   -0.0562 C   0  0  1  0  0  0  0  0  0  0  0  0
   -0.4573   -1.1539    0.9105 H   0  0  0  0  0  0  0  0  0  0  0  0
    0.0470   -1.4825   -1.1512 C   0  0  0  0  0  0  0  0  0  0  0  0
    0.9840   -1.7930   -0.6790 H   0  0  0  0  0  0  0  0  0  0  0  0
   -0.3424   -2.3585   -1.6800 H   0  0  0  0  0  0  0  0  0  0  0  0
    0.3391   -0.4076   -2.1666 C   0  0  0  0  0  0  0  0  0  0  0  0
   -0.3347   -0.1886   -3.3431 C   0  0  0  0  0  0  0  0  0  0  0  0
   -1.1794   -0.7706   -3.7056 H   0  0  0  0  0  0  0  0  0  0  0  0
    0.2391    0.9252   -3.9530 N   0  0  0  0  0  0  0  0  0  0  0  0
   -0.0770    1.3428   -4.8255 H   0  0  0  0  0  0  0  0  0  0  0  0
    1.2713    1.4257   -3.1755 C   0  0  0  0  0  0  0  0  0  0  0  0
    2.1239    2.5158   -3.3499 C   0  0  0  0  0  0  0  0  0  0  0  0
    2.0349    3.1431   -4.2299 H   0  0  0  0  0  0  0  0  0  0  0  0
    3.0946    2.7873   -2.3751 C   0  0  0  0  0  0  0  0  0  0  0  0
    3.7657    3.6322   -2.4993 H   0  0  0  0  0  0  0  0  0  0  0  0
    3.2028    1.9671   -1.2415 C   0  0  0  0  0  0  0  0  0  0  0  0
    3.9593    2.1777   -0.4914 H   0  0  0  0  0  0  0  0  0  0  0  0
    2.3397    0.8742   -1.0763 C   0  0  0  0  0  0  0  0  0  0  0  0
    2.4236    0.2340   -0.2045 H   0  0  0  0  0  0  0  0  0  0  0  0
    1.3716    0.6142   -2.0520 C   0  0  0  0  0  0  0  0  0  0  0  0
   -1.4276    0.4156   -0.1513 C   0  0  0  0  0  0  0  0  0  0  0  0
   -2.4276    0.6916   -0.8106 O   0  0  0  0  0  0  0  0  0  0  0  0
   -0.8789    1.3802    0.6743 N   0  0  0  0  0  0  0  0  0  0  0  0
   -0.0161    1.1363    1.1504 H   0  0  0  0  0  0  0  0  0  0  0  0
   -1.2430    2.7882    0.5842 C   0  0  0  0  0  0  0  0  0  0  0  0
   -2.3175    2.9203    0.7495 H   0  0  0  0  0  0  0  0  0  0  0  0
   -0.7056    3.3659    1.3422 H   0  0  0  0  0  0  0  0  0  0  0  0
   -0.9858    3.1856   -0.4035 H   0  0  0  0  0  0  0  0  0  0  0  0
  1  2  1  0  0  0  0
  2  3  1  0  0  0  0
  2  4  1  0  0  0  0
  2  5  1  0  0  0  0
  5  6  2  0  0  0  0
  5  7  1  0  0  0  0
  7  8  1  0  0  0  0
  7  9  1  0  0  0  0
  9 10  1  0  0  0  0
  9 11  1  0  0  0  0
  9 29  1  0  0  0  0
 11 12  1  0  0  0  0
 11 13  1  0  0  0  0
 11 14  1  0  0  0  0
 14 15  2  0  0  0  0
 14 28  1  0  0  0  0
 15 16  1  0  0  0  0
 15 17  1  0  0  0  0
 17 18  1  0  0  0  0
 17 19  1  0  0  0  0
 19 20  1  0  0  0  0
 19 28  2  0  0  0  0
 20 21  1  0  0  0  0
 20 22  2  0  0  0  0
 22 23  1  0  0  0  0
 22 24  1  0  0  0  0
 24 25  1  0  0  0  0
 24 26  2  0  0  0  0
 26 27  1  0  0  0  0
 26 28  1  0  0  0  0
 29 30  2  0  0  0  0
 29 31  1  0  0  0  0
 31 32  1  0  0  0  0
 31 33  1  0  0  0  0
 33 34  1  0  0  0  0
 33 35  1  0  0  0  0
 33 36  1  0  0  0  0
M  END
$$$$

  -OEChem-03222214083D

 36 37  0     1  0  0  0  0  0999 V2000
   -3.6683   -4.5111    1.5396 H   0  0  0  0  0  0  0  0  0  0  0  0
   -3.6764   -3.7242    0.7802 C   0  0  0  0  0  0  0  0  0  0  0  0
   -4.4742   -3.0159    1.0169 H   0  0  0  0  0  0  0  0  0  0  0  0
   -3.8766   -4.1765   -0.1941 H   0  0  0  0  0  0  0  0  0  0  0  0
   -2.3383   -3.0099    0.7532 C   0  0  0  0  0  0  0  0  0  0  0  0
   -1.4277   -3.3913    1.4710 O   0  0  0  0  0  0  0  0  0  0  0  0
   -2.1542   -1.9303   -0.0838 N   0  0  0  0  0  0  0  0  0  0  0  0
   -2.9770   -1.5666   -0.5625 H   0  0  0  0  0  0  0  0  0  0  0  0
   -0.9718   -1.0540   -0.0611 C   0  0  1  0  0  0  0  0  0  0  0  0
   -0.4683   -1.1618    0.9048 H   0  0  0  0  0  0  0  0  0  0  0  0
    0.0403   -1.4801   -1.1527 C   0  0  0  0  0  0  0  0  0  0  0  0
    0.9715   -1.7939   -0.6720 H   0  0  0  0  0  0  0  0  0  0  0  0
   -0.3466   -2.3567   -1.6828 H   0  0  0  0  0  0  0  0  0  0  0  0
    0.3450   -0.4133   -2.1753 C   0  0  0  0  0  0  0  0  0  0  0  0
   -0.4732   -0.0111   -3.2037 C   0  0  0  0  0  0  0  0  0  0  0  0
   -1.4578   -0.4190   -3.4227 H   0  0  0  0  0  0  0  0  0  0  0  0
    0.1698    1.0286   -3.8710 N   0  0  0  0  0  0  0  0  0  0  0  0
   -0.2152    1.5449   -4.6589 H   0  0  0  0  0  0  0  0  0  0  0  0
    1.3894    1.3049   -3.2750 C   0  0  0  0  0  0  0  0  0  0  0  0
    2.3718    2.2514   -3.5660 C   0  0  0  0  0  0  0  0  0  0  0  0
    2.2410    2.9359   -4.3967 H   0  0  0  0  0  0  0  0  0  0  0  0
    3.5268    2.3041   -2.7727 C   0  0  0  0  0  0  0  0  0  0  0  0
    4.3004    3.0350   -2.9893 H   0  0  0  0  0  0  0  0  0  0  0  0
    3.6850    1.4124   -1.7006 C   0  0  0  0  0  0  0  0  0  0  0  0
    4.5823    1.4532   -1.0904 H   0  0  0  0  0  0  0  0  0  0  0  0
    2.6896    0.4666   -1.4159 C   0  0  0  0  0  0  0  0  0  0  0  0
    2.8118   -0.2254   -0.5894 H   0  0  0  0  0  0  0  0  0  0  0  0
    1.5397    0.4214   -2.2121 C   0  0  0  0  0  0  0  0  0  0  0  0
   -1.4233    0.4234   -0.1363 C   0  0  0  0  0  0  0  0  0  0  0  0
   -2.4284    0.7158   -0.7812 O   0  0  0  0  0  0  0  0  0  0  0  0
   -0.8592    1.3726    0.6966 N   0  0  0  0  0  0  0  0  0  0  0  0
    0.0012    1.1138    1.1703 H   0  0  0  0  0  0  0  0  0  0  0  0
   -1.2305    2.7810    0.6528 C   0  0  0  0  0  0  0  0  0  0  0  0
   -2.3020    2.9031    0.8425 H   0  0  0  0  0  0  0  0  0  0  0  0
   -0.6810    3.3399    1.4162 H   0  0  0  0  0  0  0  0  0  0  0  0
   -0.9942    3.2070   -0.3279 H   0  0  0  0  0  0  0  0  0  0  0  0
  1  2  1  0  0  0  0
  2  3  1  0  0  0  0
  2  4  1  0  0  0  0
  2  5  1  0  0  0  0
  5  6  2  0  0  0  0
  5  7  1  0  0  0  0
  7  8  1  0  0  0  0
  7  9  1  0  0  0  0
  9 10  1  0  0  0  0
  9 11  1  0  0  0  0
  9 29  1  0  0  0  0
 11 12  1  0  0  0  0
 11 13  1  0  0  0  0
 11 14  1  0  0  0  0
 14 15  2  0  0  0  0
 14 28  1  0  0  0  0
 15 16  1  0  0  0  0
 15 17  1  0  0  0  0
 17 18  1  0  0  0  0
 17 19  1  0  0  0  0
 19 20  1  0  0  0  0
 19 28  2  0  0  0  0
 20 21  1  0  0  0  0
 20 22  2  0  0  0  0
 22 23  1  0  0  0  0
 22 24  1  0  0  0  0
 24 25  1  0  0  0  0
 24 26  2  0  0  0  0
 26 27  1  0  0  0  0
 26 28  1  0  0  0  0
 29 30  2  0  0  0  0
 29 31  1  0  0  0  0
 31 32  1  0  0  0  0
 31 33  1  0  0  0  0
 33 34  1  0  0  0  0
 33 35  1  0  0  0  0
 33 36  1  0  0  0  0
M  END
$$$$

  -OEChem-03222214083D

 36 37  0     1  0  0  0  0  0999 V2000
   -3.6312   -4.5572    1.4867 H   0  0  0  0  0  0  0  0  0  0  0  0
   -3.6637   -3.7383    0.7625 C   0  0  0  0  0  0  0  0  0  0  0  0
   -4.4567   -3.0442    1.0513 H   0  0  0  0  0  0  0  0  0  0  0  0
   -3.8893   -4.1492   -0.2245 H   0  0  0  0  0  0  0  0  0  0  0  0
   -2.3301   -3.0164    0.7302 C   0  0  0  0  0  0  0  0  0  0  0  0
   -1.4076   -3.4022    1.4302 O   0  0  0  0  0  0  0  0  0  0  0  0
   -2.1681   -1.9172   -0.0853 N   0  0  0  0  0  0  0  0  0  0  0  0
   -3.0012   -1.5550   -0.5466 H   0  0  0  0  0  0  0  0  0  0  0  0
   -0.9952   -1.0284   -0.0611 C   0  0  1  0  0  0  0  0  0  0  0  0
   -0.4896   -1.1488    0.9026 H   0  0  0  0  0  0  0  0  0  0  0  0
    0.0249   -1.4406   -1.1520 C   0  0  0  0  0  0  0  0  0  0  0  0
    0.9520   -1.7382   -0.6544 H   0  0  0  0  0  0  0  0  0  0  0  0
   -0.3429   -2.3291   -1.6755 H   0  0  0  0  0  0  0  0  0  0  0  0
    0.3426   -0.3907   -2.1929 C   0  0  0  0  0  0  0  0  0  0  0  0
   -0.5417    0.2076   -3.0609 C   0  0  0  0  0  0  0  0  0  0  0  0
   -1.6078   -0.0045   -3.1217 H   0  0  0  0  0  0  0  0  0  0  0  0
    0.1644    1.1444   -3.8101 N   0  0  0  0  0  0  0  0  0  0  0  0
   -0.2410    1.7550   -4.5160 H   0  0  0  0  0  0  0  0  0  0  0  0
    1.4954    1.1618   -3.4294 C   0  0  0  0  0  0  0  0  0  0  0  0
    2.5749    1.9257   -3.8728 C   0  0  0  0  0  0  0  0  0  0  0  0
    2.4381    2.6602   -4.6584 H   0  0  0  0  0  0  0  0  0  0  0  0
    3.8350    1.7309   -3.2904 C   0  0  0  0  0  0  0  0  0  0  0  0
    4.6848    2.3178   -3.6264 H   0  0  0  0  0  0  0  0  0  0  0  0
    3.9995    0.7781   -2.2738 C   0  0  0  0  0  0  0  0  0  0  0  0
    4.9768    0.6288   -1.8246 H   0  0  0  0  0  0  0  0  0  0  0  0
    2.9067    0.0158   -1.8362 C   0  0  0  0  0  0  0  0  0  0  0  0
    3.0365   -0.7222   -1.0519 H   0  0  0  0  0  0  0  0  0  0  0  0
    1.6508    0.2158   -2.4217 C   0  0  0  0  0  0  0  0  0  0  0  0
   -1.4513    0.4472   -0.0980 C   0  0  0  0  0  0  0  0  0  0  0  0
   -2.4734    0.7478   -0.7114 O   0  0  0  0  0  0  0  0  0  0  0  0
   -0.8789    1.3812    0.7458 N   0  0  0  0  0  0  0  0  0  0  0  0
   -0.0155    1.1173    1.2118 H   0  0  0  0  0  0  0  0  0  0  0  0
   -1.2889    2.7791    0.7742 C   0  0  0  0  0  0  0  0  0  0  0  0
   -2.3477    2.8636    1.0411 H   0  0  0  0  0  0  0  0  0  0  0  0
   -0.7023    3.3295    1.5158 H   0  0  0  0  0  0  0  0  0  0  0  0
   -1.1334    3.2426   -0.2057 H   0  0  0  0  0  0  0  0  0  0  0  0
  1  2  1  0  0  0  0
  2  3  1  0  0  0  0
  2  4  1  0  0  0  0
  2  5  1  0  0  0  0
  5  6  2  0  0  0  0
  5  7  1  0  0  0  0
  7  8  1  0  0  0  0
  7  9  1  0  0  0  0
  9 10  1  0  0  0  0
  9 11  1  0  0  0  0
  9 29  1  0  0  0  0
 11 12  1  0  0  0  0
 11 13  1  0  0  0  0
 11 14  1  0  0  0  0
 14 15  2  0  0  0  0
 14 28  1  0  0  0  0
 15 16  1  0  0  0  0
 15 17  1  0  0  0  0
 17 18  1  0  0  0  0
 17 19  1  0  0  0  0
 19 20  1  0  0  0  0
 19 28  2  0  0  0  0
 20 21  1  0  0  0  0
 20 22  2  0  0  0  0
 22 23  1  0  0  0  0
 22 24  1  0  0  0  0
 24 25  1  0  0  0  0
 24 26  2  0  0  0  0
 26 27  1  0  0  0  0
 26 28  1  0  0  0  0
 29 30  2  0  0  0  0
 29 31  1  0  0  0  0
 31 32  1  0  0  0  0
 31 33  1  0  0  0  0
 33 34  1  0  0  0  0
 33 35  1  0  0  0  0
 33 36  1  0  0  0  0
M  END
$$$$

  -OEChem-03222214083D

 36 37  0     1  0  0  0  0  0999 V2000
   -3.5292   -4.6342    1.4218 H   0  0  0  0  0  0  0  0  0  0  0  0
   -3.6085   -3.7862    0.7356 C   0  0  0  0  0  0  0  0  0  0  0  0
   -4.4147   -3.1322    1.0762 H   0  0  0  0  0  0  0  0  0  0  0  0
   -3.8494   -4.1618   -0.2618 H   0  0  0  0  0  0  0  0  0  0  0  0
   -2.3000   -3.0196    0.6991 C   0  0  0  0  0  0  0  0  0  0  0  0
   -1.3517   -3.3980    1.3679 O   0  0  0  0  0  0  0  0  0  0  0  0
   -2.1879   -1.8911   -0.0850 N   0  0  0  0  0  0  0  0  0  0  0  0
   -3.0385   -1.5456   -0.5262 H   0  0  0  0  0  0  0  0  0  0  0  0
   -1.0368   -0.9737   -0.0658 C   0  0  1  0  0  0  0  0  0  0  0  0
   -0.5247   -1.1083    0.8928 H   0  0  0  0  0  0  0  0  0  0  0  0
   -0.0049   -1.3626   -1.1560 C   0  0  0  0  0  0  0  0  0  0  0  0
    0.9237   -1.6171   -0.6376 H   0  0  0  0  0  0  0  0  0  0  0  0
   -0.3349   -2.2762   -1.6606 H   0  0  0  0  0  0  0  0  0  0  0  0
    0.3180   -0.3381   -2.2260 C   0  0  0  0  0  0  0  0  0  0  0  0
   -0.5504    0.4532   -2.9456 C   0  0  0  0  0  0  0  0  0  0  0  0
   -1.6360    0.4403   -2.8682 H   0  0  0  0  0  0  0  0  0  0  0  0
    0.2033    1.2685   -3.7844 N   0  0  0  0  0  0  0  0  0  0  0  0
   -0.1778    1.9594   -4.4272 H   0  0  0  0  0  0  0  0  0  0  0  0
    1.5525    1.0138   -3.6181 C   0  0  0  0  0  0  0  0  0  0  0  0
    2.6790    1.5691   -4.2242 C   0  0  0  0  0  0  0  0  0  0  0  0
    2.5687    2.3462   -4.9722 H   0  0  0  0  0  0  0  0  0  0  0  0
    3.9502    1.1083   -3.8549 C   0  0  0  0  0  0  0  0  0  0  0  0
    4.8365    1.5303   -4.3194 H   0  0  0  0  0  0  0  0  0  0  0  0
    4.0779    0.1000   -2.8877 C   0  0  0  0  0  0  0  0  0  0  0  0
    5.0632   -0.2574   -2.6043 H   0  0  0  0  0  0  0  0  0  0  0  0
    2.9370   -0.4508   -2.2861 C   0  0  0  0  0  0  0  0  0  0  0  0
    3.0383   -1.2341   -1.5424 H   0  0  0  0  0  0  0  0  0  0  0  0
    1.6696    0.0156   -2.6570 C   0  0  0  0  0  0  0  0  0  0  0  0
   -1.5005    0.4986   -0.0426 C   0  0  0  0  0  0  0  0  0  0  0  0
   -2.5456    0.8141   -0.6067 O   0  0  0  0  0  0  0  0  0  0  0  0
   -0.9064    1.4065    0.8148 N   0  0  0  0  0  0  0  0  0  0  0  0
   -0.0367    1.1260    1.2592 H   0  0  0  0  0  0  0  0  0  0  0  0
   -1.3368    2.7939    0.9318 C   0  0  0  0  0  0  0  0  0  0  0  0
   -2.3764    2.8458    1.2721 H   0  0  0  0  0  0  0  0  0  0  0  0
   -0.7104    3.3234    1.6562 H   0  0  0  0  0  0  0  0  0  0  0  0
   -1.2548    3.3026   -0.0344 H   0  0  0  0  0  0  0  0  0  0  0  0
  1  2  1  0  0  0  0
  2  3  1  0  0  0  0
  2  4  1  0  0  0  0
  2  5  1  0  0  0  0
  5  6  2  0  0  0  0
  5  7  1  0  0  0  0
  7  8  1  0  0  0  0
  7  9  1  0  0  0  0
  9 10  1  0  0  0  0
  9 11  1  0  0  0  0
  9 29  1  0  0  0  0
 11 12  1  0  0  0  0
 11 13  1  0  0  0  0
 11 14  1  0  0  0  0
 14 15  2  0  0  0  0
 14 28  1  0  0  0  0
 15 16  1  0  0  0  0
 15 17  1  0  0  0  0
 17 18  1  0  0  0  0
 17 19  1  0  0  0  0
 19 20  1  0  0  0  0
 19 28  2  0  0  0  0
 20 21  1  0  0  0  0
 20 22  2  0  0  0  0
 22 23  1  0  0  0  0
 22 24  1  0  0  0  0
 24 25  1  0  0  0  0
 24 26  2  0  0  0  0
 26 27  1  0  0  0  0
 26 28  1  0  0  0  0
 29 30  2  0  0  0  0
 29 31  1  0  0  0  0
 31 32  1  0  0  0  0
 31 33  1  0  0  0  0
 33 34  1  0  0  0  0
 33 35  1  0  0  0  0
 33 36  1  0  0  0  0
M  END
$$$$

  -OEChem-03222214083D

 36 37  0     1  0  0  0  0  0999 V2000
   -3.4213   -4.6962    1.3345 H   0  0  0  0  0  0  0  0  0  0  0  0
   -3.5392   -3.8216    0.6887 C   0  0  0  0  0  0  0  0  0  0  0  0
   -4.3527   -3.2045    1.0775 H   0  0  0  0  0  0  0  0  0  0  0  0
   -3.7964   -4.1594   -0.3179 H   0  0  0  0  0  0  0  0  0  0  0  0
   -2.2511   -3.0208    0.6533 C   0  0  0  0  0  0  0  0  0  0  0  0
   -1.2803   -3.3955    1.2912 O   0  0  0  0  0  0  0  0  0  0  0  0
   -2.1841   -1.8638   -0.0937 N   0  0  0  0  0  0  0  0  0  0  0  0
   -3.0501   -1.5315   -0.5151 H   0  0  0  0  0  0  0  0  0  0  0  0
   -1.0556   -0.9186   -0.0761 C   0  0  1  0  0  0  0  0  0  0  0  0
   -0.5288   -1.0684    0.8722 H   0  0  0  0  0  0  0  0  0  0  0  0
   -0.0231   -1.2720   -1.1804 C   0  0  0  0  0  0  0  0  0  0  0  0
    0.9130   -1.4949   -0.6598 H   0  0  0  0  0  0  0  0  0  0  0  0
   -0.3285   -2.1992   -1.6757 H   0  0  0  0  0  0  0  0  0  0  0  0
    0.2988   -0.2621   -2.2688 C   0  0  0  0  0  0  0  0  0  0  0  0
   -0.4818    0.7216   -2.8398 C   0  0  0  0  0  0  0  0  0  0  0  0
   -1.5292    0.9196   -2.6273 H   0  0  0  0  0  0  0  0  0  0  0  0
    0.2943    1.4081   -3.7685 N   0  0  0  0  0  0  0  0  0  0  0  0
   -0.0304    2.1804   -4.3464 H   0  0  0  0  0  0  0  0  0  0  0  0
    1.5708    0.8797   -3.8147 C   0  0  0  0  0  0  0  0  0  0  0  0
    2.6869    1.2217   -4.5780 C   0  0  0  0  0  0  0  0  0  0  0  0
    2.6343    2.0397   -5.2877 H   0  0  0  0  0  0  0  0  0  0  0  0
    3.8736    0.4942   -4.4160 C   0  0  0  0  0  0  0  0  0  0  0  0
    4.7502    0.7495   -5.0041 H   0  0  0  0  0  0  0  0  0  0  0  0
    3.9281   -0.5649   -3.4975 C   0  0  0  0  0  0  0  0  0  0  0  0
    4.8472   -1.1305   -3.3766 H   0  0  0  0  0  0  0  0  0  0  0  0
    2.7982   -0.8989   -2.7364 C   0  0  0  0  0  0  0  0  0  0  0  0
    2.8409   -1.7218   -2.0306 H   0  0  0  0  0  0  0  0  0  0  0  0
    1.6161   -0.1653   -2.8992 C   0  0  0  0  0  0  0  0  0  0  0  0
   -1.5452    0.5411    0.0088 C   0  0  0  0  0  0  0  0  0  0  0  0
   -2.6159    0.8537   -0.5055 O   0  0  0  0  0  0  0  0  0  0  0  0
   -0.9433    1.4312    0.8791 N   0  0  0  0  0  0  0  0  0  0  0  0
   -0.0735    1.1417    1.3181 H   0  0  0  0  0  0  0  0  0  0  0  0
   -1.4310    2.7852    1.1090 C   0  0  0  0  0  0  0  0  0  0  0  0
   -2.4438    2.7620    1.5249 H   0  0  0  0  0  0  0  0  0  0  0  0
   -0.7793    3.3060    1.8172 H   0  0  0  0  0  0  0  0  0  0  0  0
   -1.4460    3.3516    0.1718 H   0  0  0  0  0  0  0  0  0  0  0  0
  1  2  1  0  0  0  0
  2  3  1  0  0  0  0
  2  4  1  0  0  0  0
  2  5  1  0  0  0  0
  5  6  2  0  0  0  0
  5  7  1  0  0  0  0
  7  8  1  0  0  0  0
  7  9  1  0  0  0  0
  9 10  1  0  0  0  0
  9 11  1  0  0  0  0
  9 29  1  0  0  0  0
 11 12  1  0  0  0  0
 11 13  1  0  0  0  0
 11 14  1  0  0  0  0
 14 15  2  0  0  0  0
 14 28  1  0  0  0  0
 15 16  1  0  0  0  0
 15 17  1  0  0  0  0
 17 18  1  0  0  0  0
 17 19  1  0  0  0  0
 19 20  1  0  0  0  0
 19 28  2  0  0  0  0
 20 21  1  0  0  0  0
 20 22  2  0  0  0  0
 22 23  1  0  0  0  0
 22 24  1  0  0  0  0
 24 25  1  0  0  0  0
 24 26  2  0  0  0  0
 26 27  1  0  0  0  0
 26 28  1  0  0  0  0
 29 30  2  0  0  0  0
 29 31  1  0  0  0  0
 31 32  1  0  0  0  0
 31 33  1  0  0  0  0
 33 34  1  0  0  0  0
 33 35  1  0  0  0  0
 33 36  1  0  0  0  0
M  END
$$$$

  -OEChem-03222214083D

 36 37  0     1  0  0  0  0  0999 V2000
   -3.3527   -4.7295    1.2164 H   0  0  0  0  0  0  0  0  0  0  0  0
   -3.4860   -3.8315    0.6068 C   0  0  0  0  0  0  0  0  0  0  0  0
   -4.3136   -3.2476    1.0166 H   0  0  0  0  0  0  0  0  0  0  0  0
   -3.7311   -4.1324   -0.4146 H   0  0  0  0  0  0  0  0  0  0  0  0
   -2.2149   -3.0035    0.6112 C   0  0  0  0  0  0  0  0  0  0  0  0
   -1.2417   -3.3805    1.2444 O   0  0  0  0  0  0  0  0  0  0  0  0
   -2.1648   -1.8213   -0.0965 N   0  0  0  0  0  0  0  0  0  0  0  0
   -3.0290   -1.4967   -0.5274 H   0  0  0  0  0  0  0  0  0  0  0  0
   -1.0440   -0.8677   -0.0603 C   0  0  1  0  0  0  0  0  0  0  0  0
   -0.4988   -1.0434    0.8730 H   0  0  0  0  0  0  0  0  0  0  0  0
   -0.0324   -1.1809   -1.1968 C   0  0  0  0  0  0  0  0  0  0  0  0
    0.9131   -1.4199   -0.7000 H   0  0  0  0  0  0  0  0  0  0  0  0
   -0.3514   -2.0952   -1.7078 H   0  0  0  0  0  0  0  0  0  0  0  0
    0.2944   -0.1617   -2.2784 C   0  0  0  0  0  0  0  0  0  0  0  0
   -0.3165    1.0086   -2.6851 C   0  0  0  0  0  0  0  0  0  0  0  0
   -1.2381    1.4353   -2.3018 H   0  0  0  0  0  0  0  0  0  0  0  0
    0.4372    1.5578   -3.7190 N   0  0  0  0  0  0  0  0  0  0  0  0
    0.2083    2.4133   -4.2207 H   0  0  0  0  0  0  0  0  0  0  0  0
    1.5300    0.7594   -3.9974 C   0  0  0  0  0  0  0  0  0  0  0  0
    2.5554    0.8815   -4.9353 C   0  0  0  0  0  0  0  0  0  0  0  0
    2.5804    1.7297   -5.6101 H   0  0  0  0  0  0  0  0  0  0  0  0
    3.5479   -0.1065   -4.9942 C   0  0  0  0  0  0  0  0  0  0  0  0
    4.3515   -0.0258   -5.7201 H   0  0  0  0  0  0  0  0  0  0  0  0
    3.5015   -1.2012   -4.1177 C   0  0  0  0  0  0  0  0  0  0  0  0
    4.2693   -1.9674   -4.1656 H   0  0  0  0  0  0  0  0  0  0  0  0
    2.4645   -1.3119   -3.1800 C   0  0  0  0  0  0  0  0  0  0  0  0
    2.4262   -2.1607   -2.5051 H   0  0  0  0  0  0  0  0  0  0  0  0
    1.4773   -0.3202   -3.1251 C   0  0  0  0  0  0  0  0  0  0  0  0
   -1.5535    0.5785    0.0793 C   0  0  0  0  0  0  0  0  0  0  0  0
   -2.6188    0.9037   -0.4375 O   0  0  0  0  0  0  0  0  0  0  0  0
   -0.9552    1.4479    0.9729 N   0  0  0  0  0  0  0  0  0  0  0  0
   -0.1067    1.1346    1.4368 H   0  0  0  0  0  0  0  0  0  0  0  0
   -1.4720    2.7776    1.2719 C   0  0  0  0  0  0  0  0  0  0  0  0
   -2.4674    2.7092    1.7229 H   0  0  0  0  0  0  0  0  0  0  0  0
   -0.8083    3.2906    1.9744 H   0  0  0  0  0  0  0  0  0  0  0  0
   -1.5378    3.3783    0.3588 H   0  0  0  0  0  0  0  0  0  0  0  0
  1  2  1  0  0  0  0
  2  3  1  0  0  0  0
  2  4  1  0  0  0  0
  2  5  1  0  0  0  0
  5  6  2  0  0  0  0
  5  7  1  0  0  0  0
  7  8  1  0  0  0  0
  7  9  1  0  0  0  0
  9 10  1  0  0  0  0
  9 11  1  0  0  0  0
  9 29  1  0  0  0  0
 11 12  1  0  0  0  0
 11 13  1  0  0  0  0
 11 14  1  0  0  0  0
 14 15  2  0  0  0  0
 14 28  1  0  0  0  0
 15 16  1  0  0  0  0
 15 17  1  0  0  0  0
 17 18  1  0  0  0  0
 17 19  1  0  0  0  0
 19 20  1  0  0  0  0
 19 28  2  0  0  0  0
 20 21  1  0  0  0  0
 20 22  2  0  0  0  0
 22 23  1  0  0  0  0
 22 24  1  0  0  0  0
 24 25  1  0  0  0  0
 24 26  2  0  0  0  0
 26 27  1  0  0  0  0
 26 28  1  0  0  0  0
 29 30  2  0  0  0  0
 29 31  1  0  0  0  0
 31 32  1  0  0  0  0
 31 33  1  0  0  0  0
 33 34  1  0  0  0  0
 33 35  1  0  0  0  0
 33 36  1  0  0  0  0
M  END
$$$$

  -OEChem-03222214083D

 36 37  0     1  0  0  0  0  0999 V2000
   -3.3598   -4.7499    1.0828 H   0  0  0  0  0  0  0  0  0  0  0  0
   -3.4749   -3.8405    0.4863 C   0  0  0  0  0  0  0  0  0  0  0  0
   -4.3265   -3.2733    0.8696 H   0  0  0  0  0  0  0  0  0  0  0  0
   -3.6704   -4.1217   -0.5514 H   0  0  0  0  0  0  0  0  0  0  0  0
   -2.2142   -3.0008    0.5651 C   0  0  0  0  0  0  0  0  0  0  0  0
   -1.2627   -3.3856    1.2257 O   0  0  0  0  0  0  0  0  0  0  0  0
   -2.1453   -1.8029   -0.1132 N   0  0  0  0  0  0  0  0  0  0  0  0
   -2.9890   -1.4786   -0.5833 H   0  0  0  0  0  0  0  0  0  0  0  0
   -1.0197   -0.8574   -0.0423 C   0  0  1  0  0  0  0  0  0  0  0  0
   -0.4741   -1.0569    0.8858 H   0  0  0  0  0  0  0  0  0  0  0  0
   -0.0188   -1.1499   -1.1949 C   0  0  0  0  0  0  0  0  0  0  0  0
    0.9269   -1.4311   -0.7209 H   0  0  0  0  0  0  0  0  0  0  0  0
   -0.3695   -2.0378   -1.7309 H   0  0  0  0  0  0  0  0  0  0  0  0
    0.3247   -0.1136   -2.2558 C   0  0  0  0  0  0  0  0  0  0  0  0
   -0.0766    1.1885   -2.4897 C   0  0  0  0  0  0  0  0  0  0  0  0
   -0.7980    1.7695   -1.9239 H   0  0  0  0  0  0  0  0  0  0  0  0
    0.5945    1.6563   -3.6164 N   0  0  0  0  0  0  0  0  0  0  0  0
    0.4725    2.5780   -4.0303 H   0  0  0  0  0  0  0  0  0  0  0  0
    1.4296    0.6795   -4.1225 C   0  0  0  0  0  0  0  0  0  0  0  0
    2.2896    0.6683   -5.2205 C   0  0  0  0  0  0  0  0  0  0  0  0
    2.3832    1.5459   -5.8501 H   0  0  0  0  0  0  0  0  0  0  0  0
    3.0282   -0.4906   -5.4973 C   0  0  0  0  0  0  0  0  0  0  0  0
    3.7015   -0.5143   -6.3491 H   0  0  0  0  0  0  0  0  0  0  0  0
    2.8977   -1.6197   -4.6746 C   0  0  0  0  0  0  0  0  0  0  0  0
    3.4706   -2.5165   -4.8897 H   0  0  0  0  0  0  0  0  0  0  0  0
    2.0278   -1.5953   -3.5749 C   0  0  0  0  0  0  0  0  0  0  0  0
    1.9242   -2.4686   -2.9394 H   0  0  0  0  0  0  0  0  0  0  0  0
    1.2928   -0.4344   -3.3048 C   0  0  0  0  0  0  0  0  0  0  0  0
   -1.5367    0.5818    0.1237 C   0  0  0  0  0  0  0  0  0  0  0  0
   -2.5658    0.9367   -0.4432 O   0  0  0  0  0  0  0  0  0  0  0  0
   -0.9538    1.4326    1.0453 N   0  0  0  0  0  0  0  0  0  0  0  0
   -0.1445    1.0888    1.5551 H   0  0  0  0  0  0  0  0  0  0  0  0
   -1.4803    2.7529    1.3675 C   0  0  0  0  0  0  0  0  0  0  0  0
   -2.4902    2.6714    1.7830 H   0  0  0  0  0  0  0  0  0  0  0  0
   -0.8410    3.2442    2.1073 H   0  0  0  0  0  0  0  0  0  0  0  0
   -1.5163    3.3806    0.4711 H   0  0  0  0  0  0  0  0  0  0  0  0
  1  2  1  0  0  0  0
  2  3  1  0  0  0  0
  2  4  1  0  0  0  0
  2  5  1  0  0  0  0
  5  6  2  0  0  0  0
  5  7  1  0  0  0  0
  7  8  1  0  0  0  0
  7  9  1  0  0  0  0
  9 10  1  0  0  0  0
  9 11  1  0  0  0  0
  9 29  1  0  0  0  0
 11 12  1  0  0  0  0
 11 13  1  0  0  0  0
 11 14  1  0  0  0  0
 14 15  2  0  0  0  0
 14 28  1  0  0  0  0
 15 16  1  0  0  0  0
 15 17  1  0  0  0  0
 17 18  1  0  0  0  0
 17 19  1  0  0  0  0
 19 20  1  0  0  0  0
 19 28  2  0  0  0  0
 20 21  1  0  0  0  0
 20 22  2  0  0  0  0
 22 23  1  0  0  0  0
 22 24  1  0  0  0  0
 24 25  1  0  0  0  0
 24 26  2  0  0  0  0
 26 27  1  0  0  0  0
 26 28  1  0  0  0  0
 29 30  2  0  0  0  0
 29 31  1  0  0  0  0
 31 32  1  0  0  0  0
 31 33  1  0  0  0  0
 33 34  1  0  0  0  0
 33 35  1  0  0  0  0
 33 36  1  0  0  0  0
M  END
$$$$

  -OEChem-03222214083D

 36 37  0     1  0  0  0  0  0999 V2000
   -3.4735   -4.7014    1.0578 H   0  0  0  0  0  0  0  0  0  0  0  0
   -3.5369   -3.8080    0.4302 C   0  0  0  0  0  0  0  0  0  0  0  0
   -4.3974   -3.2147    0.7489 H   0  0  0  0  0  0  0  0  0  0  0  0
   -3.6799   -4.1164   -0.6083 H   0  0  0  0  0  0  0  0  0  0  0  0
   -2.2664   -2.9889    0.5559 C   0  0  0  0  0  0  0  0  0  0  0  0
   -1.3487   -3.3855    1.2561 O   0  0  0  0  0  0  0  0  0  0  0  0
   -2.1509   -1.7948   -0.1223 N   0  0  0  0  0  0  0  0  0  0  0  0
   -2.9652   -1.4633   -0.6372 H   0  0  0  0  0  0  0  0  0  0  0  0
   -1.0040   -0.8769   -0.0282 C   0  0  1  0  0  0  0  0  0  0  0  0
   -0.4714   -1.0882    0.9045 H   0  0  0  0  0  0  0  0  0  0  0  0
   -0.0043   -1.1828   -1.1802 C   0  0  0  0  0  0  0  0  0  0  0  0
    0.9312   -1.5120   -0.7173 H   0  0  0  0  0  0  0  0  0  0  0  0
   -0.3927   -2.0447   -1.7319 H   0  0  0  0  0  0  0  0  0  0  0  0
    0.3687   -0.1384   -2.2241 C   0  0  0  0  0  0  0  0  0  0  0  0
    0.2102    1.2330   -2.2932 C   0  0  0  0  0  0  0  0  0  0  0  0
   -0.2646    1.8788   -1.5615 H   0  0  0  0  0  0  0  0  0  0  0  0
    0.7671    1.6786   -3.4883 N   0  0  0  0  0  0  0  0  0  0  0  0
    0.7679    2.6436   -3.8114 H   0  0  0  0  0  0  0  0  0  0  0  0
    1.2970    0.6190   -4.1984 C   0  0  0  0  0  0  0  0  0  0  0  0
    1.9518    0.5618   -5.4285 C   0  0  0  0  0  0  0  0  0  0  0  0
    2.1151    1.4666   -6.0030 H   0  0  0  0  0  0  0  0  0  0  0  0
    2.3957   -0.6780   -5.9082 C   0  0  0  0  0  0  0  0  0  0  0  0
    2.9074   -0.7382   -6.8640 H   0  0  0  0  0  0  0  0  0  0  0  0
    2.1808   -1.8407   -5.1533 C   0  0  0  0  0  0  0  0  0  0  0  0
    2.5274   -2.8001   -5.5256 H   0  0  0  0  0  0  0  0  0  0  0  0
    1.5195   -1.7688   -3.9184 C   0  0  0  0  0  0  0  0  0  0  0  0
    1.3548   -2.6683   -3.3344 H   0  0  0  0  0  0  0  0  0  0  0  0
    1.0751   -0.5272   -3.4460 C   0  0  0  0  0  0  0  0  0  0  0  0
   -1.5051    0.5696    0.1228 C   0  0  0  0  0  0  0  0  0  0  0  0
   -2.4888    0.9549   -0.5001 O   0  0  0  0  0  0  0  0  0  0  0  0
   -0.9314    1.4132    1.0577 N   0  0  0  0  0  0  0  0  0  0  0  0
   -0.1685    1.0424    1.6180 H   0  0  0  0  0  0  0  0  0  0  0  0
   -1.4404    2.7462    1.3562 C   0  0  0  0  0  0  0  0  0  0  0  0
   -2.4725    2.6905    1.7186 H   0  0  0  0  0  0  0  0  0  0  0  0
   -0.8277    3.2199    2.1292 H   0  0  0  0  0  0  0  0  0  0  0  0
   -1.4141    3.3764    0.4612 H   0  0  0  0  0  0  0  0  0  0  0  0
  1  2  1  0  0  0  0
  2  3  1  0  0  0  0
  2  4  1  0  0  0  0
  2  5  1  0  0  0  0
  5  6  2  0  0  0  0
  5  7  1  0  0  0  0
  7  8  1  0  0  0  0
  7  9  1  0  0  0  0
  9 10  1  0  0  0  0
  9 11  1  0  0  0  0
  9 29  1  0  0  0  0
 11 12  1  0  0  0  0
 11 13  1  0  0  0  0
 11 14  1  0  0  0  0
 14 15  2  0  0  0  0
 14 28  1  0  0  0  0
 15 16  1  0  0  0  0
 15 17  1  0  0  0  0
 17 18  1  0  0  0  0
 17 19  1  0  0  0  0
 19 20  1  0  0  0  0
 19 28  2  0  0  0  0
 20 21  1  0  0  0  0
 20 22  2  0  0  0  0
 22 23  1  0  0  0  0
 22 24  1  0  0  0  0
 24 25  1  0  0  0  0
 24 26  2  0  0  0  0
 26 27  1  0  0  0  0
 26 28  1  0  0  0  0
 29 30  2  0  0  0  0
 29 31  1  0  0  0  0
 31 32  1  0  0  0  0
 31 33  1  0  0  0  0
 33 34  1  0  0  0  0
 33 35  1  0  0  0  0
 33 36  1  0  0  0  0
M  END
$$$$

  -OEChem-03222214083D

 36 37  0     1  0  0  0  0  0999 V2000
   -3.5982   -4.6219    1.0791 H   0  0  0  0  0  0  0  0  0  0  0  0
   -3.6126   -3.7480    0.4218 C   0  0  0  0  0  0  0  0  0  0  0  0
   -4.4666   -3.1206    0.6885 H   0  0  0  0  0  0  0  0  0  0  0  0
   -3.7253   -4.0853   -0.6114 H   0  0  0  0  0  0  0  0  0  0  0  0
   -2.3238   -2.9615    0.5707 C   0  0  0  0  0  0  0  0  0  0  0  0
   -1.4424   -3.3644    1.3128 O   0  0  0  0  0  0  0  0  0  0  0  0
   -2.1508   -1.7881   -0.1314 N   0  0  0  0  0  0  0  0  0  0  0  0
   -2.9365   -1.4466   -0.6835 H   0  0  0  0  0  0  0  0  0  0  0  0
   -0.9817   -0.9001   -0.0187 C   0  0  1  0  0  0  0  0  0  0  0  0
   -0.4749   -1.1055    0.9294 H   0  0  0  0  0  0  0  0  0  0  0  0
    0.0265   -1.2525   -1.1505 C   0  0  0  0  0  0  0  0  0  0  0  0
    0.9473   -1.6063   -0.6766 H   0  0  0  0  0  0  0  0  0  0  0  0
   -0.3813   -2.1068   -1.6988 H   0  0  0  0  0  0  0  0  0  0  0  0
    0.4327   -0.2148   -2.1869 C   0  0  0  0  0  0  0  0  0  0  0  0
    0.5371    1.1603   -2.1171 C   0  0  0  0  0  0  0  0  0  0  0  0
    0.3338    1.7844   -1.2525 H   0  0  0  0  0  0  0  0  0  0  0  0
    0.9612    1.6300   -3.3566 N   0  0  0  0  0  0  0  0  0  0  0  0
    1.0925    2.6091   -3.6009 H   0  0  0  0  0  0  0  0  0  0  0  0
    1.1468    0.5777   -4.2325 C   0  0  0  0  0  0  0  0  0  0  0  0
    1.5616    0.5453   -5.5639 C   0  0  0  0  0  0  0  0  0  0  0  0
    1.7983    1.4662   -6.0852 H   0  0  0  0  0  0  0  0  0  0  0  0
    1.6696   -0.6909   -6.2148 C   0  0  0  0  0  0  0  0  0  0  0  0
    1.9918   -0.7316   -7.2510 H   0  0  0  0  0  0  0  0  0  0  0  0
    1.3626   -1.8748   -5.5277 C   0  0  0  0  0  0  0  0  0  0  0  0
    1.4482   -2.8320   -6.0328 H   0  0  0  0  0  0  0  0  0  0  0  0
    0.9439   -1.8272   -4.1901 C   0  0  0  0  0  0  0  0  0  0  0  0
    0.7074   -2.7442   -3.6609 H   0  0  0  0  0  0  0  0  0  0  0  0
    0.8349   -0.5887   -3.5447 C   0  0  0  0  0  0  0  0  0  0  0  0
   -1.4593    0.5611    0.0794 C   0  0  0  0  0  0  0  0  0  0  0  0
   -2.4135    0.9513   -0.5841 O   0  0  0  0  0  0  0  0  0  0  0  0
   -0.9000    1.4134    1.0161 N   0  0  0  0  0  0  0  0  0  0  0  0
   -0.1979    1.0242    1.6399 H   0  0  0  0  0  0  0  0  0  0  0  0
   -1.4145    2.7507    1.2857 C   0  0  0  0  0  0  0  0  0  0  0  0
   -2.4472    2.6986    1.6461 H   0  0  0  0  0  0  0  0  0  0  0  0
   -0.8055    3.2429    2.0500 H   0  0  0  0  0  0  0  0  0  0  0  0
   -1.3886    3.3623    0.3778 H   0  0  0  0  0  0  0  0  0  0  0  0
  1  2  1  0  0  0  0
  2  3  1  0  0  0  0
  2  4  1  0  0  0  0
  2  5  1  0  0  0  0
  5  6  2  0  0  0  0
  5  7  1  0  0  0  0
  7  8  1  0  0  0  0
  7  9  1  0  0  0  0
  9 10  1  0  0  0  0
  9 11  1  0  0  0  0
  9 29  1  0  0  0  0
 11 12  1  0  0  0  0
 11 13  1  0  0  0  0
 11 14  1  0  0  0  0
 14 15  2  0  0  0  0
 14 28  1  0  0  0  0
 15 16  1  0  0  0  0
 15 17  1  0  0  0  0
 17 18  1  0  0  0  0
 17 19  1  0  0  0  0
 19 20  1  0  0  0  0
 19 28  2  0  0  0  0
 20 21  1  0  0  0  0
 20 22  2  0  0  0  0
 22 23  1  0  0  0  0
 22 24  1  0  0  0  0
 24 25  1  0  0  0  0
 24 26  2  0  0  0  0
 26 27  1  0  0  0  0
 26 28  1  0  0  0  0
 29 30  2  0  0  0  0
 29 31  1  0  0  0  0
 31 32  1  0  0  0  0
 31 33  1  0  0  0  0
 33 34  1  0  0  0  0
 33 35  1  0  0  0  0
 33 36  1  0  0  0  0
M  END
$$$$

  -OEChem-03222214083D

 36 37  0     1  0  0  0  0  0999 V2000
   -3.6943   -4.5549    1.1602 H   0  0  0  0  0  0  0  0  0  0  0  0
   -3.6743   -3.7027    0.4752 C   0  0  0  0  0  0  0  0  0  0  0  0
   -4.5141   -3.0437    0.7084 H   0  0  0  0  0  0  0  0  0  0  0  0
   -3.7813   -4.0705   -0.5482 H   0  0  0  0  0  0  0  0  0  0  0  0
   -2.3667   -2.9470    0.6182 C   0  0  0  0  0  0  0  0  0  0  0  0
   -1.5117   -3.3433    1.3941 O   0  0  0  0  0  0  0  0  0  0  0  0
   -2.1458   -1.8106   -0.1292 N   0  0  0  0  0  0  0  0  0  0  0  0
   -2.9149   -1.4626   -0.7006 H   0  0  0  0  0  0  0  0  0  0  0  0
   -0.9603   -0.9452   -0.0179 C   0  0  1  0  0  0  0  0  0  0  0  0
   -0.4783   -1.1225    0.9488 H   0  0  0  0  0  0  0  0  0  0  0  0
    0.0587   -1.3522   -1.1186 C   0  0  0  0  0  0  0  0  0  0  0  0
    0.9694   -1.6983   -0.6203 H   0  0  0  0  0  0  0  0  0  0  0  0
   -0.3425   -2.2186   -1.6518 H   0  0  0  0  0  0  0  0  0  0  0  0
    0.4785   -0.3227   -2.1527 C   0  0  0  0  0  0  0  0  0  0  0  0
    0.8406    0.9963   -1.9779 C   0  0  0  0  0  0  0  0  0  0  0  0
    0.8936    1.5252   -1.0303 H   0  0  0  0  0  0  0  0  0  0  0  0
    1.1371    1.5344   -3.2267 N   0  0  0  0  0  0  0  0  0  0  0  0
    1.4086    2.4990   -3.4033 H   0  0  0  0  0  0  0  0  0  0  0  0
    0.9714    0.5791   -4.2128 C   0  0  0  0  0  0  0  0  0  0  0  0
    1.1413    0.6407   -5.5961 C   0  0  0  0  0  0  0  0  0  0  0  0
    1.4569    1.5645   -6.0681 H   0  0  0  0  0  0  0  0  0  0  0  0
    0.8982   -0.5053   -6.3655 C   0  0  0  0  0  0  0  0  0  0  0  0
    1.0255   -0.4730   -7.4434 H   0  0  0  0  0  0  0  0  0  0  0  0
    0.4894   -1.6944   -5.7437 C   0  0  0  0  0  0  0  0  0  0  0  0
    0.3009   -2.5811   -6.3411 H   0  0  0  0  0  0  0  0  0  0  0  0
    0.3217   -1.7426   -4.3524 C   0  0  0  0  0  0  0  0  0  0  0  0
    0.0055   -2.6641   -3.8758 H   0  0  0  0  0  0  0  0  0  0  0  0
    0.5647   -0.5944   -3.5878 C   0  0  0  0  0  0  0  0  0  0  0  0
   -1.4132    0.5292    0.0004 C   0  0  0  0  0  0  0  0  0  0  0  0
   -2.3585    0.8974   -0.6882 O   0  0  0  0  0  0  0  0  0  0  0  0
   -0.8674    1.4129    0.9162 N   0  0  0  0  0  0  0  0  0  0  0  0
   -0.1988    1.0383    1.5836 H   0  0  0  0  0  0  0  0  0  0  0  0
   -1.3700    2.7674    1.1126 C   0  0  0  0  0  0  0  0  0  0  0  0
   -2.4077    2.7444    1.4615 H   0  0  0  0  0  0  0  0  0  0  0  0
   -0.7648    3.2907    1.8590 H   0  0  0  0  0  0  0  0  0  0  0  0
   -1.3258    3.3323    0.1756 H   0  0  0  0  0  0  0  0  0  0  0  0
  1  2  1  0  0  0  0
  2  3  1  0  0  0  0
  2  4  1  0  0  0  0
  2  5  1  0  0  0  0
  5  6  2  0  0  0  0
  5  7  1  0  0  0  0
  7  8  1  0  0  0  0
  7  9  1  0  0  0  0
  9 10  1  0  0  0  0
  9 11  1  0  0  0  0
  9 29  1  0  0  0  0
 11 12  1  0  0  0  0
 11 13  1  0  0  0  0
 11 14  1  0  0  0  0
 14 15  2  0  0  0  0
 14 28  1  0  0  0  0
 15 16  1  0  0  0  0
 15 17  1  0  0  0  0
 17 18  1  0  0  0  0
 17 19  1  0  0  0  0
 19 20  1  0  0  0  0
 19 28  2  0  0  0  0
 20 21  1  0  0  0  0
 20 22  2  0  0  0  0
 22 23  1  0  0  0  0
 22 24  1  0  0  0  0
 24 25  1  0  0  0  0
 24 26  2  0  0  0  0
 26 27  1  0  0  0  0
 26 28  1  0  0  0  0
 29 30  2  0  0  0  0
 29 31  1  0  0  0  0
 31 32  1  0  0  0  0
 31 33  1  0  0  0  0
 33 34  1  0  0  0  0
 33 35  1  0  0  0  0
 33 36  1  0  0  0  0
M  END
$$$$

  -OEChem-03222214083D

 36 37  0     1  0  0  0  0  0999 V2000
   -3.7550   -4.5060    1.2613 H   0  0  0  0  0  0  0  0  0  0  0  0
   -3.7176   -3.6761    0.5502 C   0  0  0  0  0  0  0  0  0  0  0  0
   -4.5397   -2.9896    0.7666 H   0  0  0  0  0  0  0  0  0  0  0  0
   -3.8394   -4.0726   -0.4606 H   0  0  0  0  0  0  0  0  0  0  0  0
   -2.3914   -2.9484    0.6637 C   0  0  0  0  0  0  0  0  0  0  0  0
   -1.5475   -3.3320    1.4578 O   0  0  0  0  0  0  0  0  0  0  0  0
   -2.1426   -1.8491   -0.1287 N   0  0  0  0  0  0  0  0  0  0  0  0
   -2.9067   -1.5007   -0.7067 H   0  0  0  0  0  0  0  0  0  0  0  0
   -0.9492   -0.9941   -0.0320 C   0  0  1  0  0  0  0  0  0  0  0  0
   -0.4847   -1.1378    0.9487 H   0  0  0  0  0  0  0  0  0  0  0  0
    0.0816   -1.4419   -1.1017 C   0  0  0  0  0  0  0  0  0  0  0  0
    0.9892   -1.7603   -0.5797 H   0  0  0  0  0  0  0  0  0  0  0  0
   -0.2962   -2.3273   -1.6208 H   0  0  0  0  0  0  0  0  0  0  0  0
    0.4906   -0.4134   -2.1341 C   0  0  0  0  0  0  0  0  0  0  0  0
    1.0938    0.8046   -1.9122 C   0  0  0  0  0  0  0  0  0  0  0  0
    1.3781    1.2045   -0.9422 H   0  0  0  0  0  0  0  0  0  0  0  0
    1.2717    1.4256   -3.1453 N   0  0  0  0  0  0  0  0  0  0  0  0
    1.6749    2.3488   -3.2885 H   0  0  0  0  0  0  0  0  0  0  0  0
    0.7800    0.6250   -4.1620 C   0  0  0  0  0  0  0  0  0  0  0  0
    0.7227    0.8150   -5.5428 C   0  0  0  0  0  0  0  0  0  0  0  0
    1.1134    1.7239   -5.9864 H   0  0  0  0  0  0  0  0  0  0  0  0
    0.1523   -0.1820   -6.3461 C   0  0  0  0  0  0  0  0  0  0  0  0
    0.0998   -0.0475   -7.4224 H   0  0  0  0  0  0  0  0  0  0  0  0
   -0.3530   -1.3526   -5.7606 C   0  0  0  0  0  0  0  0  0  0  0  0
   -0.7966   -2.1225   -6.3845 H   0  0  0  0  0  0  0  0  0  0  0  0
   -0.2901   -1.5314   -4.3712 C   0  0  0  0  0  0  0  0  0  0  0  0
   -0.6844   -2.4348   -3.9188 H   0  0  0  0  0  0  0  0  0  0  0  0
    0.2828   -0.5331   -3.5745 C   0  0  0  0  0  0  0  0  0  0  0  0
   -1.3796    0.4880   -0.0870 C   0  0  0  0  0  0  0  0  0  0  0  0
   -2.3273    0.8314   -0.7859 O   0  0  0  0  0  0  0  0  0  0  0  0
   -0.8370    1.4026    0.7998 N   0  0  0  0  0  0  0  0  0  0  0  0
   -0.1729    1.0531    1.4845 H   0  0  0  0  0  0  0  0  0  0  0  0
   -1.3171    2.7739    0.9213 C   0  0  0  0  0  0  0  0  0  0  0  0
   -2.3587    2.7874    1.2595 H   0  0  0  0  0  0  0  0  0  0  0  0
   -0.7097    3.3238    1.6465 H   0  0  0  0  0  0  0  0  0  0  0  0
   -1.2526    3.2889   -0.0433 H   0  0  0  0  0  0  0  0  0  0  0  0
  1  2  1  0  0  0  0
  2  3  1  0  0  0  0
  2  4  1  0  0  0  0
  2  5  1  0  0  0  0
  5  6  2  0  0  0  0
  5  7  1  0  0  0  0
  7  8  1  0  0  0  0
  7  9  1  0  0  0  0
  9 10  1  0  0  0  0
  9 11  1  0  0  0  0
  9 29  1  0  0  0  0
 11 12  1  0  0  0  0
 11 13  1  0  0  0  0
 11 14  1  0  0  0  0
 14 15  2  0  0  0  0
 14 28  1  0  0  0  0
 15 16  1  0  0  0  0
 15 17  1  0  0  0  0
 17 18  1  0  0  0  0
 17 19  1  0  0  0  0
 19 20  1  0  0  0  0
 19 28  2  0  0  0  0
 20 21  1  0  0  0  0
 20 22  2  0  0  0  0
 22 23  1  0  0  0  0
 22 24  1  0  0  0  0
 24 25  1  0  0  0  0
 24 26  2  0  0  0  0
 26 27  1  0  0  0  0
 26 28  1  0  0  0  0
 29 30  2  0  0  0  0
 29 31  1  0  0  0  0
 31 32  1  0  0  0  0
 31 33  1  0  0  0  0
 33 34  1  0  0  0  0
 33 35  1  0  0  0  0
 33 36  1  0  0  0  0
M  END
$$$$

  -OEChem-03222214083D

 36 37  0     1  0  0  0  0  0999 V2000
   -3.7809   -4.4777    1.3294 H   0  0  0  0  0  0  0  0  0  0  0  0
   -3.7394   -3.6630    0.6012 C   0  0  0  0  0  0  0  0  0  0  0  0
   -4.5532   -2.9637    0.8081 H   0  0  0  0  0  0  0  0  0  0  0  0
   -3.8707   -4.0791   -0.4005 H   0  0  0  0  0  0  0  0  0  0  0  0
   -2.4052   -2.9478    0.6927 C   0  0  0  0  0  0  0  0  0  0  0  0
   -1.5646   -3.3190    1.4965 O   0  0  0  0  0  0  0  0  0  0  0  0
   -2.1438   -1.8770   -0.1339 N   0  0  0  0  0  0  0  0  0  0  0  0
   -2.9089   -1.5267   -0.7096 H   0  0  0  0  0  0  0  0  0  0  0  0
   -0.9459   -1.0278   -0.0523 C   0  0  1  0  0  0  0  0  0  0  0  0
   -0.4915   -1.1438    0.9368 H   0  0  0  0  0  0  0  0  0  0  0  0
    0.0944   -1.5014   -1.0976 C   0  0  0  0  0  0  0  0  0  0  0  0
    0.9985   -1.8013   -0.5586 H   0  0  0  0  0  0  0  0  0  0  0  0
   -0.2687   -2.3969   -1.6113 H   0  0  0  0  0  0  0  0  0  0  0  0
    0.4895   -0.4715   -2.1284 C   0  0  0  0  0  0  0  0  0  0  0  0
    1.3192    0.6083   -1.9323 C   0  0  0  0  0  0  0  0  0  0  0  0
    1.8235    0.8592   -1.0023 H   0  0  0  0  0  0  0  0  0  0  0  0
    1.3878    1.3131   -3.1313 N   0  0  0  0  0  0  0  0  0  0  0  0
    1.9157    2.1694   -3.2840 H   0  0  0  0  0  0  0  0  0  0  0  0
    0.5984    0.7044   -4.0932 C   0  0  0  0  0  0  0  0  0  0  0  0
    0.3346    1.0367   -5.4221 C   0  0  0  0  0  0  0  0  0  0  0  0
    0.7903    1.9144   -5.8670 H   0  0  0  0  0  0  0  0  0  0  0  0
   -0.5286    0.2241   -6.1708 C   0  0  0  0  0  0  0  0  0  0  0  0
   -0.7436    0.4713   -7.2061 H   0  0  0  0  0  0  0  0  0  0  0  0
   -1.1188   -0.9051   -5.5824 C   0  0  0  0  0  0  0  0  0  0  0  0
   -1.7901   -1.5304   -6.1629 H   0  0  0  0  0  0  0  0  0  0  0  0
   -0.8476   -1.2272   -4.2445 C   0  0  0  0  0  0  0  0  0  0  0  0
   -1.3069   -2.0949   -3.7834 H   0  0  0  0  0  0  0  0  0  0  0  0
    0.0189   -0.4145   -3.5063 C   0  0  0  0  0  0  0  0  0  0  0  0
   -1.3626    0.4566   -0.1595 C   0  0  0  0  0  0  0  0  0  0  0  0
   -2.3234    0.7780   -0.8518 O   0  0  0  0  0  0  0  0  0  0  0  0
   -0.8196    1.3932    0.7030 N   0  0  0  0  0  0  0  0  0  0  0  0
   -0.1232    1.0712    1.3680 H   0  0  0  0  0  0  0  0  0  0  0  0
   -1.2856    2.7722    0.7789 C   0  0  0  0  0  0  0  0  0  0  0  0
   -2.3358    2.8057    1.0873 H   0  0  0  0  0  0  0  0  0  0  0  0
   -0.6926    3.3322    1.5082 H   0  0  0  0  0  0  0  0  0  0  0  0
   -1.1882    3.2628   -0.1953 H   0  0  0  0  0  0  0  0  0  0  0  0
  1  2  1  0  0  0  0
  2  3  1  0  0  0  0
  2  4  1  0  0  0  0
  2  5  1  0  0  0  0
  5  6  2  0  0  0  0
  5  7  1  0  0  0  0
  7  8  1  0  0  0  0
  7  9  1  0  0  0  0
  9 10  1  0  0  0  0
  9 11  1  0  0  0  0
  9 29  1  0  0  0  0
 11 12  1  0  0  0  0
 11 13  1  0  0  0  0
 11 14  1  0  0  0  0
 14 15  2  0  0  0  0
 14 28  1  0  0  0  0
 15 16  1  0  0  0  0
 15 17  1  0  0  0  0
 17 18  1  0  0  0  0
 17 19  1  0  0  0  0
 19 20  1  0  0  0  0
 19 28  2  0  0  0  0
 20 21  1  0  0  0  0
 20 22  2  0  0  0  0
 22 23  1  0  0  0  0
 22 24  1  0  0  0  0
 24 25  1  0  0  0  0
 24 26  2  0  0  0  0
 26 27  1  0  0  0  0
 26 28  1  0  0  0  0
 29 30  2  0  0  0  0
 29 31  1  0  0  0  0
 31 32  1  0  0  0  0
 31 33  1  0  0  0  0
 33 34  1  0  0  0  0
 33 35  1  0  0  0  0
 33 36  1  0  0  0  0
M  END
$$$$

  -OEChem-03222214083D

 36 37  0     1  0  0  0  0  0999 V2000
   -3.7894   -4.4646    1.3872 H   0  0  0  0  0  0  0  0  0  0  0  0
   -3.7547   -3.6583    0.6492 C   0  0  0  0  0  0  0  0  0  0  0  0
   -4.5520   -2.9444    0.8698 H   0  0  0  0  0  0  0  0  0  0  0  0
   -3.9190   -4.0824   -0.3442 H   0  0  0  0  0  0  0  0  0  0  0  0
   -2.4078   -2.9625    0.6982 C   0  0  0  0  0  0  0  0  0  0  0  0
   -1.5488   -3.3452    1.4768 O   0  0  0  0  0  0  0  0  0  0  0  0
   -2.1566   -1.8959   -0.1372 N   0  0  0  0  0  0  0  0  0  0  0  0
   -2.9396   -1.5277   -0.6765 H   0  0  0  0  0  0  0  0  0  0  0  0
   -0.9583   -1.0454   -0.0680 C   0  0  1  0  0  0  0  0  0  0  0  0
   -0.5025   -1.1552    0.9210 H   0  0  0  0  0  0  0  0  0  0  0  0
    0.0846   -1.5171   -1.1092 C   0  0  0  0  0  0  0  0  0  0  0  0
    0.9893   -1.8126   -0.5690 H   0  0  0  0  0  0  0  0  0  0  0  0
   -0.2751   -2.4112   -1.6283 H   0  0  0  0  0  0  0  0  0  0  0  0
    0.4645   -0.4811   -2.1365 C   0  0  0  0  0  0  0  0  0  0  0  0
    1.4884    0.4306   -2.0337 C   0  0  0  0  0  0  0  0  0  0  0  0
    2.1778    0.5178   -1.1973 H   0  0  0  0  0  0  0  0  0  0  0  0
    1.4769    1.2090   -3.1888 N   0  0  0  0  0  0  0  0  0  0  0  0
    2.1180    1.9724   -3.3930 H   0  0  0  0  0  0  0  0  0  0  0  0
    0.4487    0.8112   -4.0286 C   0  0  0  0  0  0  0  0  0  0  0  0
    0.0296    1.2802   -5.2738 C   0  0  0  0  0  0  0  0  0  0  0  0
    0.5472    2.1054   -5.7500 H   0  0  0  0  0  0  0  0  0  0  0  0
   -1.0707    0.6736   -5.8970 C   0  0  0  0  0  0  0  0  0  0  0  0
   -1.4102    1.0294   -6.8651 H   0  0  0  0  0  0  0  0  0  0  0  0
   -1.7385   -0.3892   -5.2685 C   0  0  0  0  0  0  0  0  0  0  0  0
   -2.5941   -0.8532   -5.7494 H   0  0  0  0  0  0  0  0  0  0  0  0
   -1.3085   -0.8506   -4.0163 C   0  0  0  0  0  0  0  0  0  0  0  0
   -1.8246   -1.6650   -3.5197 H   0  0  0  0  0  0  0  0  0  0  0  0
   -0.2076   -0.2434   -3.4057 C   0  0  0  0  0  0  0  0  0  0  0  0
   -1.3737    0.4398   -0.1790 C   0  0  0  0  0  0  0  0  0  0  0  0
   -2.3598    0.7504   -0.8407 O   0  0  0  0  0  0  0  0  0  0  0  0
   -0.8246    1.3814    0.6735 N   0  0  0  0  0  0  0  0  0  0  0  0
   -0.0689    1.0826    1.2818 H   0  0  0  0  0  0  0  0  0  0  0  0
   -1.2680    2.7689    0.7229 C   0  0  0  0  0  0  0  0  0  0  0  0
   -2.3222    2.8242    1.0144 H   0  0  0  0  0  0  0  0  0  0  0  0
   -0.6776    3.3290    1.4543 H   0  0  0  0  0  0  0  0  0  0  0  0
   -1.1473    3.2437   -0.2566 H   0  0  0  0  0  0  0  0  0  0  0  0
  1  2  1  0  0  0  0
  2  3  1  0  0  0  0
  2  4  1  0  0  0  0
  2  5  1  0  0  0  0
  5  6  2  0  0  0  0
  5  7  1  0  0  0  0
  7  8  1  0  0  0  0
  7  9  1  0  0  0  0
  9 10  1  0  0  0  0
  9 11  1  0  0  0  0
  9 29  1  0  0  0  0
 11 12  1  0  0  0  0
 11 13  1  0  0  0  0
 11 14  1  0  0  0  0
 14 15  2  0  0  0  0
 14 28  1  0  0  0  0
 15 16  1  0  0  0  0
 15 17  1  0  0  0  0
 17 18  1  0  0  0  0
 17 19  1  0  0  0  0
 19 20  1  0  0  0  0
 19 28  2  0  0  0  0
 20 21  1  0  0  0  0
 20 22  2  0  0  0  0
 22 23  1  0  0  0  0
 22 24  1  0  0  0  0
 24 25  1  0  0  0  0
 24 26  2  0  0  0  0
 26 27  1  0  0  0  0
 26 28  1  0  0  0  0
 29 30  2  0  0  0  0
 29 31  1  0  0  0  0
 31 32  1  0  0  0  0
 31 33  1  0  0  0  0
 33 34  1  0  0  0  0
 33 35  1  0  0  0  0
 33 36  1  0  0  0  0
M  END
$$$$

  -OEChem-03222214083D

 36 37  0     1  0  0  0  0  0999 V2000
   -3.7693   -4.4674    1.4484 H   0  0  0  0  0  0  0  0  0  0  0  0
   -3.7567   -3.6592    0.7116 C   0  0  0  0  0  0  0  0  0  0  0  0
   -4.5379   -2.9389    0.9661 H   0  0  0  0  0  0  0  0  0  0  0  0
   -3.9646   -4.0783   -0.2758 H   0  0  0  0  0  0  0  0  0  0  0  0
   -2.4023   -2.9763    0.7085 C   0  0  0  0  0  0  0  0  0  0  0  0
   -1.5113   -3.3815    1.4383 O   0  0  0  0  0  0  0  0  0  0  0  0
   -2.1831   -1.8933   -0.1149 N   0  0  0  0  0  0  0  0  0  0  0  0
   -2.9918   -1.5031   -0.5977 H   0  0  0  0  0  0  0  0  0  0  0  0
   -0.9851   -1.0409   -0.0659 C   0  0  1  0  0  0  0  0  0  0  0  0
   -0.5089   -1.1656    0.9118 H   0  0  0  0  0  0  0  0  0  0  0  0
    0.0463   -1.4904   -1.1289 C   0  0  0  0  0  0  0  0  0  0  0  0
    0.9585   -1.7962   -0.6073 H   0  0  0  0  0  0  0  0  0  0  0  0
   -0.3244   -2.3752   -1.6565 H   0  0  0  0  0  0  0  0  0  0  0  0
    0.4064   -0.4436   -2.1539 C   0  0  0  0  0  0  0  0  0  0  0  0
    1.5804    0.2704   -2.1939 C   0  0  0  0  0  0  0  0  0  0  0  0
    2.3999    0.1819   -1.4843 H   0  0  0  0  0  0  0  0  0  0  0  0
    1.5271    1.1101   -3.3039 N   0  0  0  0  0  0  0  0  0  0  0  0
    2.2576    1.7580   -3.5899 H   0  0  0  0  0  0  0  0  0  0  0  0
    0.3341    0.9327   -3.9862 C   0  0  0  0  0  0  0  0  0  0  0  0
   -0.1741    1.5282   -5.1412 C   0  0  0  0  0  0  0  0  0  0  0  0
    0.4008    2.2828   -5.6666 H   0  0  0  0  0  0  0  0  0  0  0  0
   -1.4373    1.1399   -5.6105 C   0  0  0  0  0  0  0  0  0  0  0  0
   -1.8480    1.5966   -6.5059 H   0  0  0  0  0  0  0  0  0  0  0  0
   -2.1747    0.1648   -4.9212 C   0  0  0  0  0  0  0  0  0  0  0  0
   -3.1550   -0.1304   -5.2820 H   0  0  0  0  0  0  0  0  0  0  0  0
   -1.6536   -0.4254   -3.7610 C   0  0  0  0  0  0  0  0  0  0  0  0
   -2.2224   -1.1706   -3.2156 H   0  0  0  0  0  0  0  0  0  0  0  0
   -0.3931   -0.0334   -3.3010 C   0  0  0  0  0  0  0  0  0  0  0  0
   -1.4020    0.4464   -0.1343 C   0  0  0  0  0  0  0  0  0  0  0  0
   -2.4269    0.7641   -0.7313 O   0  0  0  0  0  0  0  0  0  0  0  0
   -0.8239    1.3685    0.7202 N   0  0  0  0  0  0  0  0  0  0  0  0
   -0.0128    1.0709    1.2531 H   0  0  0  0  0  0  0  0  0  0  0  0
   -1.2504    2.7597    0.7999 C   0  0  0  0  0  0  0  0  0  0  0  0
   -2.2990    2.8225    1.1092 H   0  0  0  0  0  0  0  0  0  0  0  0
   -0.6422    3.3005    1.5311 H   0  0  0  0  0  0  0  0  0  0  0  0
   -1.1396    3.2495   -0.1734 H   0  0  0  0  0  0  0  0  0  0  0  0
  1  2  1  0  0  0  0
  2  3  1  0  0  0  0
  2  4  1  0  0  0  0
  2  5  1  0  0  0  0
  5  6  2  0  0  0  0
  5  7  1  0  0  0  0
  7  8  1  0  0  0  0
  7  9  1  0  0  0  0
  9 10  1  0  0  0  0
  9 11  1  0  0  0  0
  9 29  1  0  0  0  0
 11 12  1  0  0  0  0
 11 13  1  0  0  0  0
 11 14  1  0  0  0  0
 14 15  2  0  0  0  0
 14 28  1  0  0  0  0
 15 16  1  0  0  0  0
 15 17  1  0  0  0  0
 17 18  1  0  0  0  0
 17 19  1  0  0  0  0
 19 20  1  0  0  0  0
 19 28  2  0  0  0  0
 20 21  1  0  0  0  0
 20 22  2  0  0  0  0
 22 23  1  0  0  0  0
 22 24  1  0  0  0  0
 24 25  1  0  0  0  0
 24 26  2  0  0  0  0
 26 27  1  0  0  0  0
 26 28  1  0  0  0  0
 29 30  2  0  0  0  0
 29 31  1  0  0  0  0
 31 32  1  0  0  0  0
 31 33  1  0  0  0  0
 33 34  1  0  0  0  0
 33 35  1  0  0  0  0
 33 36  1  0  0  0  0
M  END
$$$$

  -OEChem-03222214083D

 36 37  0     1  0  0  0  0  0999 V2000
   -3.7163   -4.5184    1.4257 H   0  0  0  0  0  0  0  0  0  0  0  0
   -3.7447   -3.6644    0.7431 C   0  0  0  0  0  0  0  0  0  0  0  0
   -4.5053   -2.9611    1.0904 H   0  0  0  0  0  0  0  0  0  0  0  0
   -4.0146   -4.0193   -0.2543 H   0  0  0  0  0  0  0  0  0  0  0  0
   -2.3901   -2.9833    0.7009 C   0  0  0  0  0  0  0  0  0  0  0  0
   -1.4614   -3.4266    1.3579 O   0  0  0  0  0  0  0  0  0  0  0  0
   -2.2124   -1.8611   -0.0789 N   0  0  0  0  0  0  0  0  0  0  0  0
   -3.0472   -1.4469   -0.4918 H   0  0  0  0  0  0  0  0  0  0  0  0
   -1.0154   -1.0056   -0.0446 C   0  0  1  0  0  0  0  0  0  0  0  0
   -0.5131   -1.1706    0.9140 H   0  0  0  0  0  0  0  0  0  0  0  0
   -0.0029   -1.4201   -1.1394 C   0  0  0  0  0  0  0  0  0  0  0  0
    0.9178   -1.7447   -0.6444 H   0  0  0  0  0  0  0  0  0  0  0  0
   -0.3911   -2.2903   -1.6784 H   0  0  0  0  0  0  0  0  0  0  0  0
    0.3428   -0.3620   -2.1606 C   0  0  0  0  0  0  0  0  0  0  0  0
    1.6074    0.1311   -2.3799 C   0  0  0  0  0  0  0  0  0  0  0  0
    2.4963   -0.1358   -1.8129 H   0  0  0  0  0  0  0  0  0  0  0  0
    1.5435    1.0096   -3.4582 N   0  0  0  0  0  0  0  0  0  0  0  0
    2.3306    1.5210   -3.8515 H   0  0  0  0  0  0  0  0  0  0  0  0
    0.2558    1.0531   -3.9660 C   0  0  0  0  0  0  0  0  0  0  0  0
   -0.2900    1.7495   -5.0447 C   0  0  0  0  0  0  0  0  0  0  0  0
    0.3307    2.4077   -5.6419 H   0  0  0  0  0  0  0  0  0  0  0  0
   -1.6490    1.5848   -5.3464 C   0  0  0  0  0  0  0  0  0  0  0  0
   -2.0898    2.1232   -6.1801 H   0  0  0  0  0  0  0  0  0  0  0  0
   -2.4410    0.7250   -4.5705 C   0  0  0  0  0  0  0  0  0  0  0  0
   -3.4946    0.6012   -4.8006 H   0  0  0  0  0  0  0  0  0  0  0  0
   -1.8787    0.0284   -3.4916 C   0  0  0  0  0  0  0  0  0  0  0  0
   -2.4892   -0.6309   -2.8846 H   0  0  0  0  0  0  0  0  0  0  0  0
   -0.5250    0.2043   -3.1893 C   0  0  0  0  0  0  0  0  0  0  0  0
   -1.4202    0.4861   -0.0222 C   0  0  0  0  0  0  0  0  0  0  0  0
   -2.4900    0.8302   -0.5172 O   0  0  0  0  0  0  0  0  0  0  0  0
   -0.7936    1.3612    0.8475 N   0  0  0  0  0  0  0  0  0  0  0  0
    0.0599    1.0449    1.2970 H   0  0  0  0  0  0  0  0  0  0  0  0
   -1.2163    2.7442    1.0301 C   0  0  0  0  0  0  0  0  0  0  0  0
   -2.2345    2.7838    1.4311 H   0  0  0  0  0  0  0  0  0  0  0  0
   -0.5495    3.2547    1.7313 H   0  0  0  0  0  0  0  0  0  0  0  0
   -1.1912    3.2804    0.0756 H   0  0  0  0  0  0  0  0  0  0  0  0
  1  2  1  0  0  0  0
  2  3  1  0  0  0  0
  2  4  1  0  0  0  0
  2  5  1  0  0  0  0
  5  6  2  0  0  0  0
  5  7  1  0  0  0  0
  7  8  1  0  0  0  0
  7  9  1  0  0  0  0
  9 10  1  0  0  0  0
  9 11  1  0  0  0  0
  9 29  1  0  0  0  0
 11 12  1  0  0  0  0
 11 13  1  0  0  0  0
 11 14  1  0  0  0  0
 14 15  2  0  0  0  0
 14 28  1  0  0  0  0
 15 16  1  0  0  0  0
 15 17  1  0  0  0  0
 17 18  1  0  0  0  0
 17 19  1  0  0  0  0
 19 20  1  0  0  0  0
 19 28  2  0  0  0  0
 20 21  1  0  0  0  0
 20 22  2  0  0  0  0
 22 23  1  0  0  0  0
 22 24  1  0  0  0  0
 24 25  1  0  0  0  0
 24 26  2  0  0  0  0
 26 27  1  0  0  0  0
 26 28  1  0  0  0  0
 29 30  2  0  0  0  0
 29 31  1  0  0  0  0
 31 32  1  0  0  0  0
 31 33  1  0  0  0  0
 33 34  1  0  0  0  0
 33 35  1  0  0  0  0
 33 36  1  0  0  0  0
M  END
$$$$

  -OEChem-03222214083D

 36 37  0     1  0  0  0  0  0999 V2000
   -3.6719   -4.5375    1.4160 H   0  0  0  0  0  0  0  0  0  0  0  0
   -3.7278   -3.6679    0.7552 C   0  0  0  0  0  0  0  0  0  0  0  0
   -4.4755   -2.9747    1.1485 H   0  0  0  0  0  0  0  0  0  0  0  0
   -4.0351   -3.9992   -0.2397 H   0  0  0  0  0  0  0  0  0  0  0  0
   -2.3764   -2.9838    0.6772 C   0  0  0  0  0  0  0  0  0  0  0  0
   -1.4118   -3.4676    1.2487 O   0  0  0  0  0  0  0  0  0  0  0  0
   -2.2424   -1.8143   -0.0399 N   0  0  0  0  0  0  0  0  0  0  0  0
   -3.0998   -1.3787   -0.3766 H   0  0  0  0  0  0  0  0  0  0  0  0
   -1.0463   -0.9572   -0.0170 C   0  0  1  0  0  0  0  0  0  0  0  0
   -0.5229   -1.1740    0.9199 H   0  0  0  0  0  0  0  0  0  0  0  0
   -0.0437   -1.3357   -1.1347 C   0  0  0  0  0  0  0  0  0  0  0  0
    0.8831   -1.6747   -0.6609 H   0  0  0  0  0  0  0  0  0  0  0  0
   -0.4440   -2.1931   -1.6853 H   0  0  0  0  0  0  0  0  0  0  0  0
    0.2945   -0.2687   -2.1513 C   0  0  0  0  0  0  0  0  0  0  0  0
    1.5800   -0.0029   -2.5627 C   0  0  0  0  0  0  0  0  0  0  0  0
    2.4795   -0.4500   -2.1453 H   0  0  0  0  0  0  0  0  0  0  0  0
    1.5224    0.9233   -3.5988 N   0  0  0  0  0  0  0  0  0  0  0  0
    2.3242    1.3016   -4.0987 H   0  0  0  0  0  0  0  0  0  0  0  0
    0.2053    1.1898   -3.9256 C   0  0  0  0  0  0  0  0  0  0  0  0
   -0.3449    1.9930   -4.9242 C   0  0  0  0  0  0  0  0  0  0  0  0
    0.2984    2.5676   -5.5808 H   0  0  0  0  0  0  0  0  0  0  0  0
   -1.7370    2.0372   -5.0738 C   0  0  0  0  0  0  0  0  0  0  0  0
   -2.1818    2.6588   -5.8450 H   0  0  0  0  0  0  0  0  0  0  0  0
   -2.5557    1.2682   -4.2345 C   0  0  0  0  0  0  0  0  0  0  0  0
   -3.6345    1.2946   -4.3541 H   0  0  0  0  0  0  0  0  0  0  0  0
   -1.9872    0.4640   -3.2368 C   0  0  0  0  0  0  0  0  0  0  0  0
   -2.6236   -0.1353   -2.5957 H   0  0  0  0  0  0  0  0  0  0  0  0
   -0.5982    0.4459   -3.0667 C   0  0  0  0  0  0  0  0  0  0  0  0
   -1.4182    0.5370    0.1192 C   0  0  0  0  0  0  0  0  0  0  0  0
   -2.5243    0.9196   -0.2515 O   0  0  0  0  0  0  0  0  0  0  0  0
   -0.7238    1.3415    1.0057 N   0  0  0  0  0  0  0  0  0  0  0  0
    0.1668    0.9965    1.3503 H   0  0  0  0  0  0  0  0  0  0  0  0
   -1.1211    2.7067    1.3283 C   0  0  0  0  0  0  0  0  0  0  0  0
   -2.1132    2.7189    1.7918 H   0  0  0  0  0  0  0  0  0  0  0  0
   -0.4085    3.1522    2.0288 H   0  0  0  0  0  0  0  0  0  0  0  0
   -1.1473    3.3217    0.4226 H   0  0  0  0  0  0  0  0  0  0  0  0
  1  2  1  0  0  0  0
  2  3  1  0  0  0  0
  2  4  1  0  0  0  0
  2  5  1  0  0  0  0
  5  6  2  0  0  0  0
  5  7  1  0  0  0  0
  7  8  1  0  0  0  0
  7  9  1  0  0  0  0
  9 10  1  0  0  0  0
  9 11  1  0  0  0  0
  9 29  1  0  0  0  0
 11 12  1  0  0  0  0
 11 13  1  0  0  0  0
 11 14  1  0  0  0  0
 14 15  2  0  0  0  0
 14 28  1  0  0  0  0
 15 16  1  0  0  0  0
 15 17  1  0  0  0  0
 17 18  1  0  0  0  0
 17 19  1  0  0  0  0
 19 20  1  0  0  0  0
 19 28  2  0  0  0  0
 20 21  1  0  0  0  0
 20 22  2  0  0  0  0
 22 23  1  0  0  0  0
 22 24  1  0  0  0  0
 24 25  1  0  0  0  0
 24 26  2  0  0  0  0
 26 27  1  0  0  0  0
 26 28  1  0  0  0  0
 29 30  2  0  0  0  0
 29 31  1  0  0  0  0
 31 32  1  0  0  0  0
 31 33  1  0  0  0  0
 33 34  1  0  0  0  0
 33 35  1  0  0  0  0
 33 36  1  0  0  0  0
M  END
$$$$

  -OEChem-03222214083D

 36 37  0     1  0  0  0  0  0999 V2000
   -3.4943   -4.5442    1.5332 H   0  0  0  0  0  0  0  0  0  0  0  0
   -3.6177   -3.6360    0.9367 C   0  0  0  0  0  0  0  0  0  0  0  0
   -4.3217   -2.9733    1.4457 H   0  0  0  0  0  0  0  0  0  0  0  0
   -4.0246   -3.9083   -0.0401 H   0  0  0  0  0  0  0  0  0  0  0  0
   -2.2813   -2.9396    0.7644 C   0  0  0  0  0  0  0  0  0  0  0  0
   -1.2660   -3.4472    1.2142 O   0  0  0  0  0  0  0  0  0  0  0  0
   -2.2169   -1.7365    0.0937 N   0  0  0  0  0  0  0  0  0  0  0  0
   -3.1033   -1.2936   -0.1425 H   0  0  0  0  0  0  0  0  0  0  0  0
   -1.0236   -0.8759    0.0360 C   0  0  1  0  0  0  0  0  0  0  0  0
   -0.4478   -1.1271    0.9327 H   0  0  0  0  0  0  0  0  0  0  0  0
   -0.0704   -1.2474   -1.1270 C   0  0  0  0  0  0  0  0  0  0  0  0
    0.8794   -1.5742   -0.6912 H   0  0  0  0  0  0  0  0  0  0  0  0
   -0.4905   -2.1170   -1.6428 H   0  0  0  0  0  0  0  0  0  0  0  0
    0.2281   -0.2078   -2.1869 C   0  0  0  0  0  0  0  0  0  0  0  0
    1.4378   -0.1868   -2.8439 C   0  0  0  0  0  0  0  0  0  0  0  0
    2.2985   -0.8026   -2.5919 H   0  0  0  0  0  0  0  0  0  0  0  0
    1.3728    0.7566   -3.8619 N   0  0  0  0  0  0  0  0  0  0  0  0
    2.1273    0.9851   -4.5059 H   0  0  0  0  0  0  0  0  0  0  0  0
    0.0879    1.2527   -3.9609 C   0  0  0  0  0  0  0  0  0  0  0  0
   -0.4661    2.1442   -4.8792 C   0  0  0  0  0  0  0  0  0  0  0  0
    0.1560    2.6088   -5.6359 H   0  0  0  0  0  0  0  0  0  0  0  0
   -1.8384    2.4139   -4.8216 C   0  0  0  0  0  0  0  0  0  0  0  0
   -2.2884    3.1057   -5.5272 H   0  0  0  0  0  0  0  0  0  0  0  0
   -2.6357    1.7683   -3.8671 C   0  0  0  0  0  0  0  0  0  0  0  0
   -3.7048    1.9554   -3.8346 H   0  0  0  0  0  0  0  0  0  0  0  0
   -2.0610    0.8730   -2.9540 C   0  0  0  0  0  0  0  0  0  0  0  0
   -2.6976    0.3534   -2.2486 H   0  0  0  0  0  0  0  0  0  0  0  0
   -0.6790    0.6450   -2.9690 C   0  0  0  0  0  0  0  0  0  0  0  0
   -1.3371    0.6183    0.2740 C   0  0  0  0  0  0  0  0  0  0  0  0
   -2.4767    1.0313    0.0813 O   0  0  0  0  0  0  0  0  0  0  0  0
   -0.5294    1.3622    1.1169 N   0  0  0  0  0  0  0  0  0  0  0  0
    0.3913    0.9899    1.3285 H   0  0  0  0  0  0  0  0  0  0  0  0
   -0.8589    2.7119    1.5594 C   0  0  0  0  0  0  0  0  0  0  0  0
   -1.7744    2.7063    2.1605 H   0  0  0  0  0  0  0  0  0  0  0  0
   -0.0474    3.1172    2.1711 H   0  0  0  0  0  0  0  0  0  0  0  0
   -1.0058    3.3726    0.6984 H   0  0  0  0  0  0  0  0  0  0  0  0
  1  2  1  0  0  0  0
  2  3  1  0  0  0  0
  2  4  1  0  0  0  0
  2  5  1  0  0  0  0
  5  6  2  0  0  0  0
  5  7  1  0  0  0  0
  7  8  1  0  0  0  0
  7  9  1  0  0  0  0
  9 10  1  0  0  0  0
  9 11  1  0  0  0  0
  9 29  1  0  0  0  0
 11 12  1  0  0  0  0
 11 13  1  0  0  0  0
 11 14  1  0  0  0  0
 14 15  2  0  0  0  0
 14 28  1  0  0  0  0
 15 16  1  0  0  0  0
 15 17  1  0  0  0  0
 17 18  1  0  0  0  0
 17 19  1  0  0  0  0
 19 20  1  0  0  0  0
 19 28  2  0  0  0  0
 20 21  1  0  0  0  0
 20 22  2  0  0  0  0
 22 23  1  0  0  0  0
 22 24  1  0  0  0  0
 24 25  1  0  0  0  0
 24 26  2  0  0  0  0
 26 27  1  0  0  0  0
 26 28  1  0  0  0  0
 29 30  2  0  0  0  0
 29 31  1  0  0  0  0
 31 32  1  0  0  0  0
 31 33  1  0  0  0  0
 33 34  1  0  0  0  0
 33 35  1  0  0  0  0
 33 36  1  0  0  0  0
M  END
$$$$

  -OEChem-03222214083D

 36 37  0     1  0  0  0  0  0999 V2000
   -3.3223   -4.9147    0.9819 H   0  0  0  0  0  0  0  0  0  0  0  0
   -3.5066   -3.9362    0.5296 C   0  0  0  0  0  0  0  0  0  0  0  0
   -4.2459   -3.4032    1.1324 H   0  0  0  0  0  0  0  0  0  0  0  0
   -3.9046   -4.0829   -0.4773 H   0  0  0  0  0  0  0  0  0  0  0  0
   -2.2180   -3.1386    0.4658 C   0  0  0  0  0  0  0  0  0  0  0  0
   -1.1766   -3.6266    0.8763 O   0  0  0  0  0  0  0  0  0  0  0  0
   -2.2278   -1.8630   -0.0579 N   0  0  0  0  0  0  0  0  0  0  0  0
   -3.1396   -1.4579   -0.2631 H   0  0  0  0  0  0  0  0  0  0  0  0
   -1.1019   -0.9181    0.0201 C   0  0  1  0  0  0  0  0  0  0  0  0
   -0.5683   -1.2276    0.9251 H   0  0  0  0  0  0  0  0  0  0  0  0
   -0.0345   -1.1288   -1.0827 C   0  0  0  0  0  0  0  0  0  0  0  0
    0.8986   -1.4081   -0.5820 H   0  0  0  0  0  0  0  0  0  0  0  0
   -0.3401   -2.0006   -1.6706 H   0  0  0  0  0  0  0  0  0  0  0  0
    0.2990   -0.0322   -2.0782 C   0  0  0  0  0  0  0  0  0  0  0  0
    1.4584   -0.1443   -2.8133 C   0  0  0  0  0  0  0  0  0  0  0  0
    2.2218   -0.9047   -2.6627 H   0  0  0  0  0  0  0  0  0  0  0  0
    1.5085    0.8920   -3.7343 N   0  0  0  0  0  0  0  0  0  0  0  0
    2.2636    1.0607   -4.3956 H   0  0  0  0  0  0  0  0  0  0  0  0
    0.3176    1.5868   -3.7174 C   0  0  0  0  0  0  0  0  0  0  0  0
   -0.1082    2.6352   -4.5327 C   0  0  0  0  0  0  0  0  0  0  0  0
    0.5636    3.0695   -5.2647 H   0  0  0  0  0  0  0  0  0  0  0  0
   -1.4214    3.1001   -4.4101 C   0  0  0  0  0  0  0  0  0  0  0  0
   -1.7733    3.9149   -5.0356 H   0  0  0  0  0  0  0  0  0  0  0  0
   -2.2921    2.4821   -3.5050 C   0  0  0  0  0  0  0  0  0  0  0  0
   -3.3253    2.8084   -3.4345 H   0  0  0  0  0  0  0  0  0  0  0  0
   -1.8429    1.4279   -2.6975 C   0  0  0  0  0  0  0  0  0  0  0  0
   -2.5597    0.9274   -2.0637 H   0  0  0  0  0  0  0  0  0  0  0  0
   -0.5059    1.0080   -2.7508 C   0  0  0  0  0  0  0  0  0  0  0  0
   -1.5073    0.5169    0.4181 C   0  0  0  0  0  0  0  0  0  0  0  0
   -2.6771    0.8635    0.2821 O   0  0  0  0  0  0  0  0  0  0  0  0
   -0.7600    1.2020    1.3605 N   0  0  0  0  0  0  0  0  0  0  0  0
    0.1925    0.8852    1.5155 H   0  0  0  0  0  0  0  0  0  0  0  0
   -1.1805    2.4664    1.9524 C   0  0  0  0  0  0  0  0  0  0  0  0
   -1.3522    3.2153    1.1718 H   0  0  0  0  0  0  0  0  0  0  0  0
   -2.1046    2.3341    2.5252 H   0  0  0  0  0  0  0  0  0  0  0  0
   -0.4070    2.8423    2.6289 H   0  0  0  0  0  0  0  0  0  0  0  0
  1  2  1  0  0  0  0
  2  3  1  0  0  0  0
  2  4  1  0  0  0  0
  2  5  1  0  0  0  0
  5  6  2  0  0  0  0
  5  7  1  0  0  0  0
  7  8  1  0  0  0  0
  7  9  1  0  0  0  0
  9 10  1  0  0  0  0
  9 11  1  0  0  0  0
  9 29  1  0  0  0  0
 11 12  1  0  0  0  0
 11 13  1  0  0  0  0
 11 14  1  0  0  0  0
 14 15  2  0  0  0  0
 14 28  1  0  0  0  0
 15 16  1  0  0  0  0
 15 17  1  0  0  0  0
 17 18  1  0  0  0  0
 17 19  1  0  0  0  0
 19 20  1  0  0  0  0
 19 28  2  0  0  0  0
 20 21  1  0  0  0  0
 20 22  2  0  0  0  0
 22 23  1  0  0  0  0
 22 24  1  0  0  0  0
 24 25  1  0  0  0  0
 24 26  2  0  0  0  0
 26 27  1  0  0  0  0
 26 28  1  0  0  0  0
 29 30  2  0  0  0  0
 29 31  1  0  0  0  0
 31 32  1  0  0  0  0
 31 33  1  0  0  0  0
 33 34  1  0  0  0  0
 33 35  1  0  0  0  0
 33 36  1  0  0  0  0
M  END
$$$$

  -OEChem-03222214083D

 36 37  0     1  0  0  0  0  0999 V2000
   -3.2100   -5.0313    1.1344 H   0  0  0  0  0  0  0  0  0  0  0  0
   -3.3988   -4.0922    0.6065 C   0  0  0  0  0  0  0  0  0  0  0  0
   -4.2281   -3.5745    1.0946 H   0  0  0  0  0  0  0  0  0  0  0  0
   -3.6760   -4.3178   -0.4261 H   0  0  0  0  0  0  0  0  0  0  0  0
   -2.1577   -3.2204    0.6300 C   0  0  0  0  0  0  0  0  0  0  0  0
   -1.1348   -3.6256    1.1588 O   0  0  0  0  0  0  0  0  0  0  0  0
   -2.1837   -1.9722    0.0464 N   0  0  0  0  0  0  0  0  0  0  0  0
   -3.0853   -1.6264   -0.2808 H   0  0  0  0  0  0  0  0  0  0  0  0
   -1.1008   -0.9785    0.1498 C   0  0  1  0  0  0  0  0  0  0  0  0
   -0.5009   -1.2094    1.0361 H   0  0  0  0  0  0  0  0  0  0  0  0
   -0.1506   -1.1501   -1.0654 C   0  0  0  0  0  0  0  0  0  0  0  0
    0.7028   -1.7264   -0.6917 H   0  0  0  0  0  0  0  0  0  0  0  0
   -0.6721   -1.8042   -1.7727 H   0  0  0  0  0  0  0  0  0  0  0  0
    0.4265   -0.0346   -1.9397 C   0  0  0  0  0  0  0  0  0  0  0  0
    1.2467   -0.5036   -2.9444 C   0  0  0  0  0  0  0  0  0  0  0  0
    1.4935   -1.5505   -3.1091 H   0  0  0  0  0  0  0  0  0  0  0  0
    1.7274    0.5634   -3.6797 N   0  0  0  0  0  0  0  0  0  0  0  0
    2.3600    0.5006   -4.4745 H   0  0  0  0  0  0  0  0  0  0  0  0
    1.1853    1.7338   -3.2012 C   0  0  0  0  0  0  0  0  0  0  0  0
    1.3971    3.0218   -3.6911 C   0  0  0  0  0  0  0  0  0  0  0  0
    2.0747    3.1902   -4.5205 H   0  0  0  0  0  0  0  0  0  0  0  0
    0.7153    4.0892   -3.1065 C   0  0  0  0  0  0  0  0  0  0  0  0
    0.8621    5.1007   -3.4735 H   0  0  0  0  0  0  0  0  0  0  0  0
   -0.1737    3.8413   -2.0577 C   0  0  0  0  0  0  0  0  0  0  0  0
   -0.7282    4.6631   -1.6145 H   0  0  0  0  0  0  0  0  0  0  0  0
   -0.3692    2.5363   -1.5820 C   0  0  0  0  0  0  0  0  0  0  0  0
   -1.0997    2.4254   -0.8015 H   0  0  0  0  0  0  0  0  0  0  0  0
    0.3313    1.4429   -2.1285 C   0  0  0  0  0  0  0  0  0  0  0  0
   -1.7058    0.3973    0.4521 C   0  0  0  0  0  0  0  0  0  0  0  0
   -2.8083    0.6917   -0.0003 O   0  0  0  0  0  0  0  0  0  0  0  0
   -1.1254    1.1926    1.4284 N   0  0  0  0  0  0  0  0  0  0  0  0
   -0.2303    0.8824    1.7970 H   0  0  0  0  0  0  0  0  0  0  0  0
   -1.6946    2.4322    1.9516 C   0  0  0  0  0  0  0  0  0  0  0  0
   -2.6704    2.6566    1.5088 H   0  0  0  0  0  0  0  0  0  0  0  0
   -1.0248    3.2707    1.7374 H   0  0  0  0  0  0  0  0  0  0  0  0
   -1.8262    2.3543    3.0351 H   0  0  0  0  0  0  0  0  0  0  0  0
  1  2  1  0  0  0  0
  2  3  1  0  0  0  0
  2  4  1  0  0  0  0
  2  5  1  0  0  0  0
  5  6  2  0  0  0  0
  5  7  1  0  0  0  0
  7  8  1  0  0  0  0
  7  9  1  0  0  0  0
  9 10  1  0  0  0  0
  9 11  1  0  0  0  0
  9 29  1  0  0  0  0
 11 12  1  0  0  0  0
 11 13  1  0  0  0  0
 11 14  1  0  0  0  0
 14 15  2  0  0  0  0
 14 28  1  0  0  0  0
 15 16  1  0  0  0  0
 15 17  1  0  0  0  0
 17 18  1  0  0  0  0
 17 19  1  0  0  0  0
 19 20  1  0  0  0  0
 19 28  2  0  0  0  0
 20 21  1  0  0  0  0
 20 22  2  0  0  0  0
 22 23  1  0  0  0  0
 22 24  1  0  0  0  0
 24 25  1  0  0  0  0
 24 26  2  0  0  0  0
 26 27  1  0  0  0  0
 26 28  1  0  0  0  0
 29 30  2  0  0  0  0
 29 31  1  0  0  0  0
 31 32  1  0  0  0  0
 31 33  1  0  0  0  0
 33 34  1  0  0  0  0
 33 35  1  0  0  0  0
 33 36  1  0  0  0  0
M  END
$$$$

  -OEChem-03222214083D

 36 37  0     1  0  0  0  0  0999 V2000
   -3.0240   -4.8913    1.6084 H   0  0  0  0  0  0  0  0  0  0  0  0
   -3.2411   -4.0311    0.9690 C   0  0  0  0  0  0  0  0  0  0  0  0
   -4.0948   -3.4894    1.3838 H   0  0  0  0  0  0  0  0  0  0  0  0
   -3.4974   -4.3907   -0.0306 H   0  0  0  0  0  0  0  0  0  0  0  0
   -2.0339   -3.1155    0.8964 C   0  0  0  0  0  0  0  0  0  0  0  0
   -1.0286   -3.3704    1.5399 O   0  0  0  0  0  0  0  0  0  0  0  0
   -2.0793   -1.9834    0.1138 N   0  0  0  0  0  0  0  0  0  0  0  0
   -2.9755   -1.7341   -0.3064 H   0  0  0  0  0  0  0  0  0  0  0  0
   -1.0379   -0.9406    0.0982 C   0  0  1  0  0  0  0  0  0  0  0  0
   -0.3645   -0.9838    0.9601 H   0  0  0  0  0  0  0  0  0  0  0  0
   -0.2616   -1.1853   -1.2307 C   0  0  0  0  0  0  0  0  0  0  0  0
    0.6633   -1.7037   -0.9587 H   0  0  0  0  0  0  0  0  0  0  0  0
   -0.8340   -1.8808   -1.8544 H   0  0  0  0  0  0  0  0  0  0  0  0
    0.1197   -0.0317   -2.1408 C   0  0  0  0  0  0  0  0  0  0  0  0
    0.5024   -0.2910   -3.4391 C   0  0  0  0  0  0  0  0  0  0  0  0
    0.3897   -1.2499   -3.9400 H   0  0  0  0  0  0  0  0  0  0  0  0
    0.9927    0.8750   -4.0108 N   0  0  0  0  0  0  0  0  0  0  0  0
    1.3060    0.9764   -4.9738 H   0  0  0  0  0  0  0  0  0  0  0  0
    1.1330    1.8410   -3.0385 C   0  0  0  0  0  0  0  0  0  0  0  0
    1.7023    3.1111   -3.1186 C   0  0  0  0  0  0  0  0  0  0  0  0
    2.0244    3.5077   -4.0749 H   0  0  0  0  0  0  0  0  0  0  0  0
    1.8837    3.8484   -1.9440 C   0  0  0  0  0  0  0  0  0  0  0  0
    2.3288    4.8381   -1.9863 H   0  0  0  0  0  0  0  0  0  0  0  0
    1.5378    3.2824   -0.7105 C   0  0  0  0  0  0  0  0  0  0  0  0
    1.7294    3.8287    0.2080 H   0  0  0  0  0  0  0  0  0  0  0  0
    0.9683    2.0021   -0.6570 C   0  0  0  0  0  0  0  0  0  0  0  0
    0.7889    1.5482    0.3056 H   0  0  0  0  0  0  0  0  0  0  0  0
    0.6862    1.2978   -1.8349 C   0  0  0  0  0  0  0  0  0  0  0  0
   -1.8736    0.3678    0.1497 C   0  0  0  0  0  0  0  0  0  0  0  0
   -2.9164    0.4526   -0.4965 O   0  0  0  0  0  0  0  0  0  0  0  0
   -1.5471    1.4168    0.9899 N   0  0  0  0  0  0  0  0  0  0  0  0
   -0.7295    1.3100    1.5815 H   0  0  0  0  0  0  0  0  0  0  0  0
   -2.3110    2.6562    1.0601 C   0  0  0  0  0  0  0  0  0  0  0  0
   -3.3419    2.4552    1.3702 H   0  0  0  0  0  0  0  0  0  0  0  0
   -1.8587    3.3385    1.7860 H   0  0  0  0  0  0  0  0  0  0  0  0
   -2.3254    3.1506    0.0828 H   0  0  0  0  0  0  0  0  0  0  0  0
  1  2  1  0  0  0  0
  2  3  1  0  0  0  0
  2  4  1  0  0  0  0
  2  5  1  0  0  0  0
  5  6  2  0  0  0  0
  5  7  1  0  0  0  0
  7  8  1  0  0  0  0
  7  9  1  0  0  0  0
  9 10  1  0  0  0  0
  9 11  1  0  0  0  0
  9 29  1  0  0  0  0
 11 12  1  0  0  0  0
 11 13  1  0  0  0  0
 11 14  1  0  0  0  0
 14 15  2  0  0  0  0
 14 28  1  0  0  0  0
 15 16  1  0  0  0  0
 15 17  1  0  0  0  0
 17 18  1  0  0  0  0
 17 19  1  0  0  0  0
 19 20  1  0  0  0  0
 19 28  2  0  0  0  0
 20 21  1  0  0  0  0
 20 22  2  0  0  0  0
 22 23  1  0  0  0  0
 22 24  1  0  0  0  0
 24 25  1  0  0  0  0
 24 26  2  0  0  0  0
 26 27  1  0  0  0  0
 26 28  1  0  0  0  0
 29 30  2  0  0  0  0
 29 31  1  0  0  0  0
 31 32  1  0  0  0  0
 31 33  1  0  0  0  0
 33 34  1  0  0  0  0
 33 35  1  0  0  0  0
 33 36  1  0  0  0  0
M  END
$$$$

  -OEChem-03222214083D

 36 37  0     1  0  0  0  0  0999 V2000
   -3.3739   -4.7317    1.5327 H   0  0  0  0  0  0  0  0  0  0  0  0
   -3.4623   -3.9332    0.7908 C   0  0  0  0  0  0  0  0  0  0  0  0
   -4.3575   -3.3460    1.0096 H   0  0  0  0  0  0  0  0  0  0  0  0
   -3.5626   -4.3818   -0.2004 H   0  0  0  0  0  0  0  0  0  0  0  0
   -2.2358   -3.0421    0.8335 C   0  0  0  0  0  0  0  0  0  0  0  0
   -1.3366   -3.2714    1.6263 O   0  0  0  0  0  0  0  0  0  0  0  0
   -2.1441   -1.9635   -0.0177 N   0  0  0  0  0  0  0  0  0  0  0  0
   -2.9697   -1.7258   -0.5682 H   0  0  0  0  0  0  0  0  0  0  0  0
   -1.0897   -0.9379    0.0510 C   0  0  1  0  0  0  0  0  0  0  0  0
   -0.5579   -0.9414    1.0076 H   0  0  0  0  0  0  0  0  0  0  0  0
   -0.1103   -1.2447   -1.1162 C   0  0  0  0  0  0  0  0  0  0  0  0
    0.7685   -1.7335   -0.6843 H   0  0  0  0  0  0  0  0  0  0  0  0
   -0.5696   -1.9691   -1.7970 H   0  0  0  0  0  0  0  0  0  0  0  0
    0.3699   -0.0826   -1.9580 C   0  0  0  0  0  0  0  0  0  0  0  0
    0.6912   -0.2086   -3.2900 C   0  0  0  0  0  0  0  0  0  0  0  0
    0.4813   -1.0818   -3.9039 H   0  0  0  0  0  0  0  0  0  0  0  0
    1.2925    0.9716   -3.7134 N   0  0  0  0  0  0  0  0  0  0  0  0
    1.6022    1.1680   -4.6628 H   0  0  0  0  0  0  0  0  0  0  0  0
    1.5188    1.7992   -2.6310 C   0  0  0  0  0  0  0  0  0  0  0  0
    2.1792    3.0243   -2.5423 C   0  0  0  0  0  0  0  0  0  0  0  0
    2.5491    3.5122   -3.4373 H   0  0  0  0  0  0  0  0  0  0  0  0
    2.3808    3.5998   -1.2816 C   0  0  0  0  0  0  0  0  0  0  0  0
    2.8959    4.5521   -1.1951 H   0  0  0  0  0  0  0  0  0  0  0  0
    1.9505    2.9266   -0.1298 C   0  0  0  0  0  0  0  0  0  0  0  0
    2.1428    3.3544    0.8494 H   0  0  0  0  0  0  0  0  0  0  0  0
    1.2883    1.6957   -0.2391 C   0  0  0  0  0  0  0  0  0  0  0  0
    1.0045    1.1566    0.6557 H   0  0  0  0  0  0  0  0  0  0  0  0
    1.0184    1.1555   -1.5030 C   0  0  0  0  0  0  0  0  0  0  0  0
   -1.8609    0.4018   -0.0989 C   0  0  0  0  0  0  0  0  0  0  0  0
   -2.8126    0.4719   -0.8746 O   0  0  0  0  0  0  0  0  0  0  0  0
   -1.6019    1.4892    0.7159 N   0  0  0  0  0  0  0  0  0  0  0  0
   -0.8097    1.4234    1.3456 H   0  0  0  0  0  0  0  0  0  0  0  0
   -2.2642    2.7779    0.5591 C   0  0  0  0  0  0  0  0  0  0  0  0
   -3.3464    2.6725    0.6887 H   0  0  0  0  0  0  0  0  0  0  0  0
   -1.8948    3.4857    1.3072 H   0  0  0  0  0  0  0  0  0  0  0  0
   -2.0652    3.1901   -0.4358 H   0  0  0  0  0  0  0  0  0  0  0  0
  1  2  1  0  0  0  0
  2  3  1  0  0  0  0
  2  4  1  0  0  0  0
  2  5  1  0  0  0  0
  5  6  2  0  0  0  0
  5  7  1  0  0  0  0
  7  8  1  0  0  0  0
  7  9  1  0  0  0  0
  9 10  1  0  0  0  0
  9 11  1  0  0  0  0
  9 29  1  0  0  0  0
 11 12  1  0  0  0  0
 11 13  1  0  0  0  0
 11 14  1  0  0  0  0
 14 15  2  0  0  0  0
 14 28  1  0  0  0  0
 15 16  1  0  0  0  0
 15 17  1  0  0  0  0
 17 18  1  0  0  0  0
 17 19  1  0  0  0  0
 19 20  1  0  0  0  0
 19 28  2  0  0  0  0
 20 21  1  0  0  0  0
 20 22  2  0  0  0  0
 22 23  1  0  0  0  0
 22 24  1  0  0  0  0
 24 25  1  0  0  0  0
 24 26  2  0  0  0  0
 26 27  1  0  0  0  0
 26 28  1  0  0  0  0
 29 30  2  0  0  0  0
 29 31  1  0  0  0  0
 31 32  1  0  0  0  0
 31 33  1  0  0  0  0
 33 34  1  0  0  0  0
 33 35  1  0  0  0  0
 33 36  1  0  0  0  0
M  END
$$$$

  -OEChem-03222214083D

 36 37  0     1  0  0  0  0  0999 V2000
   -3.4627   -4.6491    1.5663 H   0  0  0  0  0  0  0  0  0  0  0  0
   -3.5241   -3.8558    0.8159 C   0  0  0  0  0  0  0  0  0  0  0  0
   -4.3912   -3.2286    1.0369 H   0  0  0  0  0  0  0  0  0  0  0  0
   -3.6542   -4.3110   -0.1688 H   0  0  0  0  0  0  0  0  0  0  0  0
   -2.2592   -3.0184    0.8356 C   0  0  0  0  0  0  0  0  0  0  0  0
   -1.3587   -3.2861    1.6149 O   0  0  0  0  0  0  0  0  0  0  0  0
   -2.1311   -1.9496   -0.0239 N   0  0  0  0  0  0  0  0  0  0  0  0
   -2.9542   -1.6766   -0.5611 H   0  0  0  0  0  0  0  0  0  0  0  0
   -1.0336   -0.9701    0.0289 C   0  0  1  0  0  0  0  0  0  0  0  0
   -0.5110   -0.9956    0.9902 H   0  0  0  0  0  0  0  0  0  0  0  0
   -0.0410   -1.3109   -1.1135 C   0  0  0  0  0  0  0  0  0  0  0  0
    0.8217   -1.8205   -0.6730 H   0  0  0  0  0  0  0  0  0  0  0  0
   -0.5085   -2.0188   -1.8057 H   0  0  0  0  0  0  0  0  0  0  0  0
    0.4561   -0.1361   -1.9227 C   0  0  0  0  0  0  0  0  0  0  0  0
    0.5379   -0.0980   -3.2942 C   0  0  0  0  0  0  0  0  0  0  0  0
    0.1485   -0.8570   -3.9692 H   0  0  0  0  0  0  0  0  0  0  0  0
    1.1790    1.0844   -3.6537 N   0  0  0  0  0  0  0  0  0  0  0  0
    1.3508    1.3936   -4.6079 H   0  0  0  0  0  0  0  0  0  0  0  0
    1.6143    1.7557   -2.5249 C   0  0  0  0  0  0  0  0  0  0  0  0
    2.3517    2.9301   -2.3761 C   0  0  0  0  0  0  0  0  0  0  0  0
    2.6422    3.5064   -3.2475 H   0  0  0  0  0  0  0  0  0  0  0  0
    2.7273    3.3421   -1.0903 C   0  0  0  0  0  0  0  0  0  0  0  0
    3.3040    4.2529   -0.9595 H   0  0  0  0  0  0  0  0  0  0  0  0
    2.3817    2.5645    0.0249 C   0  0  0  0  0  0  0  0  0  0  0  0
    2.6998    2.8713    1.0168 H   0  0  0  0  0  0  0  0  0  0  0  0
    1.6397    1.3865   -0.1399 C   0  0  0  0  0  0  0  0  0  0  0  0
    1.3997    0.7687    0.7181 H   0  0  0  0  0  0  0  0  0  0  0  0
    1.2233    1.0055   -1.4215 C   0  0  0  0  0  0  0  0  0  0  0  0
   -1.7102    0.4180   -0.1194 C   0  0  0  0  0  0  0  0  0  0  0  0
   -2.6816    0.5424   -0.8628 O   0  0  0  0  0  0  0  0  0  0  0  0
   -1.3602    1.4810    0.6938 N   0  0  0  0  0  0  0  0  0  0  0  0
   -0.5073    1.3831    1.2342 H   0  0  0  0  0  0  0  0  0  0  0  0
   -1.9239    2.8152    0.5329 C   0  0  0  0  0  0  0  0  0  0  0  0
   -3.0128    2.7891    0.6462 H   0  0  0  0  0  0  0  0  0  0  0  0
   -1.5158    3.4914    1.2900 H   0  0  0  0  0  0  0  0  0  0  0  0
   -1.6806    3.2150   -0.4572 H   0  0  0  0  0  0  0  0  0  0  0  0
  1  2  1  0  0  0  0
  2  3  1  0  0  0  0
  2  4  1  0  0  0  0
  2  5  1  0  0  0  0
  5  6  2  0  0  0  0
  5  7  1  0  0  0  0
  7  8  1  0  0  0  0
  7  9  1  0  0  0  0
  9 10  1  0  0  0  0
  9 11  1  0  0  0  0
  9 29  1  0  0  0  0
 11 12  1  0  0  0  0
 11 13  1  0  0  0  0
 11 14  1  0  0  0  0
 14 15  2  0  0  0  0
 14 28  1  0  0  0  0
 15 16  1  0  0  0  0
 15 17  1  0  0  0  0
 17 18  1  0  0  0  0
 17 19  1  0  0  0  0
 19 20  1  0  0  0  0
 19 28  2  0  0  0  0
 20 21  1  0  0  0  0
 20 22  2  0  0  0  0
 22 23  1  0  0  0  0
 22 24  1  0  0  0  0
 24 25  1  0  0  0  0
 24 26  2  0  0  0  0
 26 27  1  0  0  0  0
 26 28  1  0  0  0  0
 29 30  2  0  0  0  0
 29 31  1  0  0  0  0
 31 32  1  0  0  0  0
 31 33  1  0  0  0  0
 33 34  1  0  0  0  0
 33 35  1  0  0  0  0
 33 36  1  0  0  0  0
M  END
$$$$

  -OEChem-03222214083D

 36 37  0     1  0  0  0  0  0999 V2000
   -3.5597   -4.5738    1.5670 H   0  0  0  0  0  0  0  0  0  0  0  0
   -3.5891   -3.7859    0.8091 C   0  0  0  0  0  0  0  0  0  0  0  0
   -4.4324   -3.1243    1.0214 H   0  0  0  0  0  0  0  0  0  0  0  0
   -3.7323   -4.2455   -0.1717 H   0  0  0  0  0  0  0  0  0  0  0  0
   -2.2939   -2.9968    0.8250 C   0  0  0  0  0  0  0  0  0  0  0  0
   -1.4007   -3.3013    1.5993 O   0  0  0  0  0  0  0  0  0  0  0  0
   -2.1270   -1.9362   -0.0384 N   0  0  0  0  0  0  0  0  0  0  0  0
   -2.9413   -1.6317   -0.5713 H   0  0  0  0  0  0  0  0  0  0  0  0
   -0.9875   -1.0058    0.0035 C   0  0  1  0  0  0  0  0  0  0  0  0
   -0.4747   -1.0551    0.9691 H   0  0  0  0  0  0  0  0  0  0  0  0
    0.0127   -1.3884   -1.1157 C   0  0  0  0  0  0  0  0  0  0  0  0
    0.8531   -1.9275   -0.6677 H   0  0  0  0  0  0  0  0  0  0  0  0
   -0.4720   -2.0767   -1.8156 H   0  0  0  0  0  0  0  0  0  0  0  0
    0.5410   -0.2178   -1.9072 C   0  0  0  0  0  0  0  0  0  0  0  0
    0.4015   -0.0178   -3.2588 C   0  0  0  0  0  0  0  0  0  0  0  0
   -0.1655   -0.6528   -3.9361 H   0  0  0  0  0  0  0  0  0  0  0  0
    1.0914    1.1477   -3.5860 N   0  0  0  0  0  0  0  0  0  0  0  0
    1.1416    1.5587   -4.5159 H   0  0  0  0  0  0  0  0  0  0  0  0
    1.7205    1.6677   -2.4666 C   0  0  0  0  0  0  0  0  0  0  0  0
    2.5364    2.7853   -2.2935 C   0  0  0  0  0  0  0  0  0  0  0  0
    2.7562    3.4355   -3.1329 H   0  0  0  0  0  0  0  0  0  0  0  0
    3.0744    3.0493   -1.0260 C   0  0  0  0  0  0  0  0  0  0  0  0
    3.7135    3.9151   -0.8787 H   0  0  0  0  0  0  0  0  0  0  0  0
    2.8010    2.1885    0.0483 C   0  0  0  0  0  0  0  0  0  0  0  0
    3.2332    2.3880    1.0244 H   0  0  0  0  0  0  0  0  0  0  0  0
    1.9792    1.0680   -0.1379 C   0  0  0  0  0  0  0  0  0  0  0  0
    1.7804    0.3901    0.6853 H   0  0  0  0  0  0  0  0  0  0  0  0
    1.4246    0.8273   -1.4002 C   0  0  0  0  0  0  0  0  0  0  0  0
   -1.5681    0.4239   -0.1401 C   0  0  0  0  0  0  0  0  0  0  0  0
   -2.5384    0.6125   -0.8710 O   0  0  0  0  0  0  0  0  0  0  0  0
   -1.1333    1.4539    0.6747 N   0  0  0  0  0  0  0  0  0  0  0  0
   -0.2633    1.2969    1.1736 H   0  0  0  0  0  0  0  0  0  0  0  0
   -1.5809    2.8297    0.5010 C   0  0  0  0  0  0  0  0  0  0  0  0
   -2.6713    2.8941    0.5777 H   0  0  0  0  0  0  0  0  0  0  0  0
   -1.1445    3.4680    1.2751 H   0  0  0  0  0  0  0  0  0  0  0  0
   -1.2721    3.2098   -0.4786 H   0  0  0  0  0  0  0  0  0  0  0  0
  1  2  1  0  0  0  0
  2  3  1  0  0  0  0
  2  4  1  0  0  0  0
  2  5  1  0  0  0  0
  5  6  2  0  0  0  0
  5  7  1  0  0  0  0
  7  8  1  0  0  0  0
  7  9  1  0  0  0  0
  9 10  1  0  0  0  0
  9 11  1  0  0  0  0
  9 29  1  0  0  0  0
 11 12  1  0  0  0  0
 11 13  1  0  0  0  0
 11 14  1  0  0  0  0
 14 15  2  0  0  0  0
 14 28  1  0  0  0  0
 15 16  1  0  0  0  0
 15 17  1  0  0  0  0
 17 18  1  0  0  0  0
 17 19  1  0  0  0  0
 19 20  1  0  0  0  0
 19 28  2  0  0  0  0
 20 21  1  0  0  0  0
 20 22  2  0  0  0  0
 22 23  1  0  0  0  0
 22 24  1  0  0  0  0
 24 25  1  0  0  0  0
 24 26  2  0  0  0  0
 26 27  1  0  0  0  0
 26 28  1  0  0  0  0
 29 30  2  0  0  0  0
 29 31  1  0  0  0  0
 31 32  1  0  0  0  0
 31 33  1  0  0  0  0
 33 34  1  0  0  0  0
 33 35  1  0  0  0  0
 33 36  1  0  0  0  0
M  END
$$$$

  -OEChem-03222214083D

 36 37  0     1  0  0  0  0  0999 V2000
   -3.6344   -4.5035    1.5819 H   0  0  0  0  0  0  0  0  0  0  0  0
   -3.6398   -3.7215    0.8175 C   0  0  0  0  0  0  0  0  0  0  0  0
   -4.4485   -3.0203    1.0371 H   0  0  0  0  0  0  0  0  0  0  0  0
   -3.8202   -4.1822   -0.1568 H   0  0  0  0  0  0  0  0  0  0  0  0
   -2.3099   -2.9919    0.8066 C   0  0  0  0  0  0  0  0  0  0  0  0
   -1.4151   -3.3378    1.5613 O   0  0  0  0  0  0  0  0  0  0  0  0
   -2.1159   -1.9351   -0.0559 N   0  0  0  0  0  0  0  0  0  0  0  0
   -2.9277   -1.5974   -0.5719 H   0  0  0  0  0  0  0  0  0  0  0  0
   -0.9424   -1.0476   -0.0313 C   0  0  1  0  0  0  0  0  0  0  0  0
   -0.4274   -1.1198    0.9319 H   0  0  0  0  0  0  0  0  0  0  0  0
    0.0489   -1.4629   -1.1451 C   0  0  0  0  0  0  0  0  0  0  0  0
    0.8740   -2.0307   -0.7042 H   0  0  0  0  0  0  0  0  0  0  0  0
   -0.4599   -2.1313   -1.8473 H   0  0  0  0  0  0  0  0  0  0  0  0
    0.5981   -0.2977   -1.9284 C   0  0  0  0  0  0  0  0  0  0  0  0
    0.2446    0.0774   -3.2013 C   0  0  0  0  0  0  0  0  0  0  0  0
   -0.4971   -0.4182   -3.8239 H   0  0  0  0  0  0  0  0  0  0  0  0
    0.9793    1.2176   -3.5205 N   0  0  0  0  0  0  0  0  0  0  0  0
    0.9053    1.7369   -4.3926 H   0  0  0  0  0  0  0  0  0  0  0  0
    1.8099    1.5699   -2.4688 C   0  0  0  0  0  0  0  0  0  0  0  0
    2.7169    2.6170   -2.3075 C   0  0  0  0  0  0  0  0  0  0  0  0
    2.8613    3.3413   -3.1016 H   0  0  0  0  0  0  0  0  0  0  0  0
    3.4397    2.7171   -1.1100 C   0  0  0  0  0  0  0  0  0  0  0  0
    4.1506    3.5265   -0.9731 H   0  0  0  0  0  0  0  0  0  0  0  0
    3.2519    1.7691   -0.0922 C   0  0  0  0  0  0  0  0  0  0  0  0
    3.8213    1.8453    0.8293 H   0  0  0  0  0  0  0  0  0  0  0  0
    2.3368    0.7209   -0.2649 C   0  0  0  0  0  0  0  0  0  0  0  0
    2.1955   -0.0209    0.5144 H   0  0  0  0  0  0  0  0  0  0  0  0
    1.6126    0.6366   -1.4587 C   0  0  0  0  0  0  0  0  0  0  0  0
   -1.4486    0.4101   -0.1607 C   0  0  0  0  0  0  0  0  0  0  0  0
   -2.4213    0.6524   -0.8723 O   0  0  0  0  0  0  0  0  0  0  0  0
   -0.9419    1.4071    0.6533 N   0  0  0  0  0  0  0  0  0  0  0  0
   -0.0666    1.1993    1.1245 H   0  0  0  0  0  0  0  0  0  0  0  0
   -1.3166    2.8065    0.4985 C   0  0  0  0  0  0  0  0  0  0  0  0
   -2.3988    2.9313    0.6103 H   0  0  0  0  0  0  0  0  0  0  0  0
   -0.8203    3.4151    1.2605 H   0  0  0  0  0  0  0  0  0  0  0  0
   -1.0182    3.1740   -0.4891 H   0  0  0  0  0  0  0  0  0  0  0  0
  1  2  1  0  0  0  0
  2  3  1  0  0  0  0
  2  4  1  0  0  0  0
  2  5  1  0  0  0  0
  5  6  2  0  0  0  0
  5  7  1  0  0  0  0
  7  8  1  0  0  0  0
  7  9  1  0  0  0  0
  9 10  1  0  0  0  0
  9 11  1  0  0  0  0
  9 29  1  0  0  0  0
 11 12  1  0  0  0  0
 11 13  1  0  0  0  0
 11 14  1  0  0  0  0
 14 15  2  0  0  0  0
 14 28  1  0  0  0  0
 15 16  1  0  0  0  0
 15 17  1  0  0  0  0
 17 18  1  0  0  0  0
 17 19  1  0  0  0  0
 19 20  1  0  0  0  0
 19 28  2  0  0  0  0
 20 21  1  0  0  0  0
 20 22  2  0  0  0  0
 22 23  1  0  0  0  0
 22 24  1  0  0  0  0
 24 25  1  0  0  0  0
 24 26  2  0  0  0  0
 26 27  1  0  0  0  0
 26 28  1  0  0  0  0
 29 30  2  0  0  0  0
 29 31  1  0  0  0  0
 31 32  1  0  0  0  0
 31 33  1  0  0  0  0
 33 34  1  0  0  0  0
 33 35  1  0  0  0  0
 33 36  1  0  0  0  0
M  END
$$$$

  -OEChem-03222214083D

 36 37  0     1  0  0  0  0  0999 V2000
   -3.6512   -4.4959    1.5711 H   0  0  0  0  0  0  0  0  0  0  0  0
   -3.6525   -3.7152    0.8052 C   0  0  0  0  0  0  0  0  0  0  0  0
   -4.4545   -3.0067    1.0262 H   0  0  0  0  0  0  0  0  0  0  0  0
   -3.8402   -4.1760   -0.1676 H   0  0  0  0  0  0  0  0  0  0  0  0
   -2.3160   -2.9973    0.7888 C   0  0  0  0  0  0  0  0  0  0  0  0
   -1.4172   -3.3598    1.5310 O   0  0  0  0  0  0  0  0  0  0  0  0
   -2.1193   -1.9346   -0.0662 N   0  0  0  0  0  0  0  0  0  0  0  0
   -2.9321   -1.5848   -0.5719 H   0  0  0  0  0  0  0  0  0  0  0  0
   -0.9343   -1.0621   -0.0475 C   0  0  1  0  0  0  0  0  0  0  0  0
   -0.4154   -1.1500    0.9124 H   0  0  0  0  0  0  0  0  0  0  0  0
    0.0509   -1.4858   -1.1625 C   0  0  0  0  0  0  0  0  0  0  0  0
    0.8676   -2.0712   -0.7289 H   0  0  0  0  0  0  0  0  0  0  0  0
   -0.4702   -2.1420   -1.8669 H   0  0  0  0  0  0  0  0  0  0  0  0
    0.6109   -0.3266   -1.9473 C   0  0  0  0  0  0  0  0  0  0  0  0
    0.0793    0.2280   -3.0864 C   0  0  0  0  0  0  0  0  0  0  0  0
   -0.8253   -0.1073   -3.5897 H   0  0  0  0  0  0  0  0  0  0  0  0
    0.8835    1.3095   -3.4399 N   0  0  0  0  0  0  0  0  0  0  0  0
    0.7195    1.9265   -4.2326 H   0  0  0  0  0  0  0  0  0  0  0  0
    1.9209    1.4592   -2.5331 C   0  0  0  0  0  0  0  0  0  0  0  0
    2.9602    2.3859   -2.4499 C   0  0  0  0  0  0  0  0  0  0  0  0
    3.0537    3.1698   -3.1934 H   0  0  0  0  0  0  0  0  0  0  0  0
    3.8801    2.2885   -1.3959 C   0  0  0  0  0  0  0  0  0  0  0  0
    4.6954    3.0019   -1.3209 H   0  0  0  0  0  0  0  0  0  0  0  0
    3.7514    1.2685   -0.4404 C   0  0  0  0  0  0  0  0  0  0  0  0
    4.4690    1.1931    0.3711 H   0  0  0  0  0  0  0  0  0  0  0  0
    2.7020    0.3431   -0.5329 C   0  0  0  0  0  0  0  0  0  0  0  0
    2.6012   -0.4510    0.2000 H   0  0  0  0  0  0  0  0  0  0  0  0
    1.7885    0.4502   -1.5866 C   0  0  0  0  0  0  0  0  0  0  0  0
   -1.4078    0.4069   -0.1563 C   0  0  0  0  0  0  0  0  0  0  0  0
   -2.3808    0.6793   -0.8567 O   0  0  0  0  0  0  0  0  0  0  0  0
   -0.8680    1.3826    0.6619 N   0  0  0  0  0  0  0  0  0  0  0  0
    0.0009    1.1474    1.1328 H   0  0  0  0  0  0  0  0  0  0  0  0
   -1.2264    2.7898    0.5444 C   0  0  0  0  0  0  0  0  0  0  0  0
   -2.3046    2.9258    0.6797 H   0  0  0  0  0  0  0  0  0  0  0  0
   -0.7083    3.3763    1.3093 H   0  0  0  0  0  0  0  0  0  0  0  0
   -0.9423    3.1741   -0.4409 H   0  0  0  0  0  0  0  0  0  0  0  0
  1  2  1  0  0  0  0
  2  3  1  0  0  0  0
  2  4  1  0  0  0  0
  2  5  1  0  0  0  0
  5  6  2  0  0  0  0
  5  7  1  0  0  0  0
  7  8  1  0  0  0  0
  7  9  1  0  0  0  0
  9 10  1  0  0  0  0
  9 11  1  0  0  0  0
  9 29  1  0  0  0  0
 11 12  1  0  0  0  0
 11 13  1  0  0  0  0
 11 14  1  0  0  0  0
 14 15  2  0  0  0  0
 14 28  1  0  0  0  0
 15 16  1  0  0  0  0
 15 17  1  0  0  0  0
 17 18  1  0  0  0  0
 17 19  1  0  0  0  0
 19 20  1  0  0  0  0
 19 28  2  0  0  0  0
 20 21  1  0  0  0  0
 20 22  2  0  0  0  0
 22 23  1  0  0  0  0
 22 24  1  0  0  0  0
 24 25  1  0  0  0  0
 24 26  2  0  0  0  0
 26 27  1  0  0  0  0
 26 28  1  0  0  0  0
 29 30  2  0  0  0  0
 29 31  1  0  0  0  0
 31 32  1  0  0  0  0
 31 33  1  0  0  0  0
 33 34  1  0  0  0  0
 33 35  1  0  0  0  0
 33 36  1  0  0  0  0
M  END
$$$$

  -OEChem-03222214083D

 36 37  0     1  0  0  0  0  0999 V2000
   -3.6499   -4.5245    1.5264 H   0  0  0  0  0  0  0  0  0  0  0  0
   -3.6548   -3.7346    0.7701 C   0  0  0  0  0  0  0  0  0  0  0  0
   -4.4640   -3.0360    0.9965 H   0  0  0  0  0  0  0  0  0  0  0  0
   -3.8345   -4.1852   -0.2090 H   0  0  0  0  0  0  0  0  0  0  0  0
   -2.3247   -3.0051    0.7677 C   0  0  0  0  0  0  0  0  0  0  0  0
   -1.4244   -3.3722    1.5056 O   0  0  0  0  0  0  0  0  0  0  0  0
   -2.1356   -1.9275   -0.0704 N   0  0  0  0  0  0  0  0  0  0  0  0
   -2.9488   -1.5805   -0.5771 H   0  0  0  0  0  0  0  0  0  0  0  0
   -0.9540   -1.0507   -0.0434 C   0  0  1  0  0  0  0  0  0  0  0  0
   -0.4387   -1.1507    0.9173 H   0  0  0  0  0  0  0  0  0  0  0  0
    0.0404   -1.4710   -1.1529 C   0  0  0  0  0  0  0  0  0  0  0  0
    0.8485   -2.0602   -0.7093 H   0  0  0  0  0  0  0  0  0  0  0  0
   -0.4755   -2.1288   -1.8596 H   0  0  0  0  0  0  0  0  0  0  0  0
    0.6159   -0.3256   -1.9506 C   0  0  0  0  0  0  0  0  0  0  0  0
   -0.0284    0.4031   -2.9229 C   0  0  0  0  0  0  0  0  0  0  0  0
   -1.0496    0.2374   -3.2621 H   0  0  0  0  0  0  0  0  0  0  0  0
    0.8440    1.4009   -3.3500 N   0  0  0  0  0  0  0  0  0  0  0  0
    0.6298    2.1036   -4.0544 H   0  0  0  0  0  0  0  0  0  0  0  0
    2.0391    1.3283   -2.6534 C   0  0  0  0  0  0  0  0  0  0  0  0
    3.1963    2.1047   -2.7122 C   0  0  0  0  0  0  0  0  0  0  0  0
    3.2611    2.9366   -3.4046 H   0  0  0  0  0  0  0  0  0  0  0  0
    4.2709    1.7945   -1.8667 C   0  0  0  0  0  0  0  0  0  0  0  0
    5.1787    2.3897   -1.9029 H   0  0  0  0  0  0  0  0  0  0  0  0
    4.1753    0.7154   -0.9743 C   0  0  0  0  0  0  0  0  0  0  0  0
    5.0101    0.4761   -0.3221 H   0  0  0  0  0  0  0  0  0  0  0  0
    3.0062   -0.0575   -0.9231 C   0  0  0  0  0  0  0  0  0  0  0  0
    2.9316   -0.8946   -0.2368 H   0  0  0  0  0  0  0  0  0  0  0  0
    1.9387    0.2591   -1.7702 C   0  0  0  0  0  0  0  0  0  0  0  0
   -1.4216    0.4204   -0.1254 C   0  0  0  0  0  0  0  0  0  0  0  0
   -2.3944    0.7091   -0.8196 O   0  0  0  0  0  0  0  0  0  0  0  0
   -0.8746    1.3803    0.7063 N   0  0  0  0  0  0  0  0  0  0  0  0
   -0.0160    1.1296    1.1885 H   0  0  0  0  0  0  0  0  0  0  0  0
   -1.2393    2.7890    0.6317 C   0  0  0  0  0  0  0  0  0  0  0  0
   -2.3166    2.9168    0.7811 H   0  0  0  0  0  0  0  0  0  0  0  0
   -0.7159    3.3556    1.4079 H   0  0  0  0  0  0  0  0  0  0  0  0
   -0.9663    3.2022   -0.3449 H   0  0  0  0  0  0  0  0  0  0  0  0
  1  2  1  0  0  0  0
  2  3  1  0  0  0  0
  2  4  1  0  0  0  0
  2  5  1  0  0  0  0
  5  6  2  0  0  0  0
  5  7  1  0  0  0  0
  7  8  1  0  0  0  0
  7  9  1  0  0  0  0
  9 10  1  0  0  0  0
  9 11  1  0  0  0  0
  9 29  1  0  0  0  0
 11 12  1  0  0  0  0
 11 13  1  0  0  0  0
 11 14  1  0  0  0  0
 14 15  2  0  0  0  0
 14 28  1  0  0  0  0
 15 16  1  0  0  0  0
 15 17  1  0  0  0  0
 17 18  1  0  0  0  0
 17 19  1  0  0  0  0
 19 20  1  0  0  0  0
 19 28  2  0  0  0  0
 20 21  1  0  0  0  0
 20 22  2  0  0  0  0
 22 23  1  0  0  0  0
 22 24  1  0  0  0  0
 24 25  1  0  0  0  0
 24 26  2  0  0  0  0
 26 27  1  0  0  0  0
 26 28  1  0  0  0  0
 29 30  2  0  0  0  0
 29 31  1  0  0  0  0
 31 32  1  0  0  0  0
 31 33  1  0  0  0  0
 33 34  1  0  0  0  0
 33 35  1  0  0  0  0
 33 36  1  0  0  0  0
M  END
$$$$

  -OEChem-03222214083D

 36 37  0     1  0  0  0  0  0999 V2000
   -3.5993   -4.5717    1.4800 H   0  0  0  0  0  0  0  0  0  0  0  0
   -3.6322   -3.7559    0.7524 C   0  0  0  0  0  0  0  0  0  0  0  0
   -4.4406   -3.0732    1.0250 H   0  0  0  0  0  0  0  0  0  0  0  0
   -3.8343   -4.1734   -0.2368 H   0  0  0  0  0  0  0  0  0  0  0  0
   -2.3097   -3.0136    0.7392 C   0  0  0  0  0  0  0  0  0  0  0  0
   -1.3924   -3.3838    1.4542 O   0  0  0  0  0  0  0  0  0  0  0  0
   -2.1513   -1.9140   -0.0765 N   0  0  0  0  0  0  0  0  0  0  0  0
   -2.9790   -1.5687   -0.5602 H   0  0  0  0  0  0  0  0  0  0  0  0
   -0.9835   -1.0189   -0.0469 C   0  0  1  0  0  0  0  0  0  0  0  0
   -0.4680   -1.1286    0.9126 H   0  0  0  0  0  0  0  0  0  0  0  0
    0.0267   -1.4234   -1.1507 C   0  0  0  0  0  0  0  0  0  0  0  0
    0.8325   -1.9975   -0.6848 H   0  0  0  0  0  0  0  0  0  0  0  0
   -0.4703   -2.1012   -1.8520 H   0  0  0  0  0  0  0  0  0  0  0  0
    0.6153   -0.2988   -1.9769 C   0  0  0  0  0  0  0  0  0  0  0  0
   -0.0578    0.6026   -2.7715 C   0  0  0  0  0  0  0  0  0  0  0  0
   -1.1329    0.6133   -2.9462 H   0  0  0  0  0  0  0  0  0  0  0  0
    0.8745    1.4968   -3.2895 N   0  0  0  0  0  0  0  0  0  0  0  0
    0.6585    2.2748   -3.9094 H   0  0  0  0  0  0  0  0  0  0  0  0
    2.1433    1.1898   -2.8298 C   0  0  0  0  0  0  0  0  0  0  0  0
    3.3803    1.7931   -3.0568 C   0  0  0  0  0  0  0  0  0  0  0  0
    3.4547    2.6633   -3.6995 H   0  0  0  0  0  0  0  0  0  0  0  0
    4.5226    1.2603   -2.4435 C   0  0  0  0  0  0  0  0  0  0  0  0
    5.4930    1.7186   -2.6117 H   0  0  0  0  0  0  0  0  0  0  0  0
    4.4138    0.1343   -1.6132 C   0  0  0  0  0  0  0  0  0  0  0  0
    5.3003   -0.2774   -1.1400 H   0  0  0  0  0  0  0  0  0  0  0  0
    3.1644   -0.4634   -1.3930 C   0  0  0  0  0  0  0  0  0  0  0  0
    3.0828   -1.3352   -0.7527 H   0  0  0  0  0  0  0  0  0  0  0  0
    2.0272    0.0737   -2.0081 C   0  0  0  0  0  0  0  0  0  0  0  0
   -1.4639    0.4474   -0.0868 C   0  0  0  0  0  0  0  0  0  0  0  0
   -2.4554    0.7442   -0.7499 O   0  0  0  0  0  0  0  0  0  0  0  0
   -0.9117    1.3910    0.7593 N   0  0  0  0  0  0  0  0  0  0  0  0
   -0.0559    1.1318    1.2425 H   0  0  0  0  0  0  0  0  0  0  0  0
   -1.3156    2.7908    0.7586 C   0  0  0  0  0  0  0  0  0  0  0  0
   -2.3851    2.8820    0.9750 H   0  0  0  0  0  0  0  0  0  0  0  0
   -0.7621    3.3432    1.5238 H   0  0  0  0  0  0  0  0  0  0  0  0
   -1.1111    3.2466   -0.2159 H   0  0  0  0  0  0  0  0  0  0  0  0
  1  2  1  0  0  0  0
  2  3  1  0  0  0  0
  2  4  1  0  0  0  0
  2  5  1  0  0  0  0
  5  6  2  0  0  0  0
  5  7  1  0  0  0  0
  7  8  1  0  0  0  0
  7  9  1  0  0  0  0
  9 10  1  0  0  0  0
  9 11  1  0  0  0  0
  9 29  1  0  0  0  0
 11 12  1  0  0  0  0
 11 13  1  0  0  0  0
 11 14  1  0  0  0  0
 14 15  2  0  0  0  0
 14 28  1  0  0  0  0
 15 16  1  0  0  0  0
 15 17  1  0  0  0  0
 17 18  1  0  0  0  0
 17 19  1  0  0  0  0
 19 20  1  0  0  0  0
 19 28  2  0  0  0  0
 20 21  1  0  0  0  0
 20 22  2  0  0  0  0
 22 23  1  0  0  0  0
 22 24  1  0  0  0  0
 24 25  1  0  0  0  0
 24 26  2  0  0  0  0
 26 27  1  0  0  0  0
 26 28  1  0  0  0  0
 29 30  2  0  0  0  0
 29 31  1  0  0  0  0
 31 32  1  0  0  0  0
 31 33  1  0  0  0  0
 33 34  1  0  0  0  0
 33 35  1  0  0  0  0
 33 36  1  0  0  0  0
M  END
$$$$

  -OEChem-03222214083D

 36 37  0     1  0  0  0  0  0999 V2000
   -3.5010   -4.6472    1.3966 H   0  0  0  0  0  0  0  0  0  0  0  0
   -3.5732   -3.8013    0.7074 C   0  0  0  0  0  0  0  0  0  0  0  0
   -4.3955   -3.1565    1.0267 H   0  0  0  0  0  0  0  0  0  0  0  0
   -3.7844   -4.1808   -0.2952 H   0  0  0  0  0  0  0  0  0  0  0  0
   -2.2732   -3.0194    0.7022 C   0  0  0  0  0  0  0  0  0  0  0  0
   -1.3362   -3.3853    1.3935 O   0  0  0  0  0  0  0  0  0  0  0  0
   -2.1557   -1.8907   -0.0802 N   0  0  0  0  0  0  0  0  0  0  0  0
   -2.9966   -1.5592   -0.5507 H   0  0  0  0  0  0  0  0  0  0  0  0
   -1.0133   -0.9631   -0.0397 C   0  0  1  0  0  0  0  0  0  0  0  0
   -0.4984   -1.0836    0.9191 H   0  0  0  0  0  0  0  0  0  0  0  0
    0.0168   -1.3392   -1.1381 C   0  0  0  0  0  0  0  0  0  0  0  0
    0.8283   -1.8804   -0.6434 H   0  0  0  0  0  0  0  0  0  0  0  0
   -0.4477   -2.0480   -1.8312 H   0  0  0  0  0  0  0  0  0  0  0  0
    0.6119   -0.2318   -1.9909 C   0  0  0  0  0  0  0  0  0  0  0  0
   -0.0165    0.8311   -2.6056 C   0  0  0  0  0  0  0  0  0  0  0  0
   -1.0873    1.0239   -2.6152 H   0  0  0  0  0  0  0  0  0  0  0  0
    0.9539    1.6054   -3.2335 N   0  0  0  0  0  0  0  0  0  0  0  0
    0.7723    2.4466   -3.7770 H   0  0  0  0  0  0  0  0  0  0  0  0
    2.2080    1.0589   -3.0338 C   0  0  0  0  0  0  0  0  0  0  0  0
    3.4706    1.4679   -3.4616 C   0  0  0  0  0  0  0  0  0  0  0  0
    3.5799    2.3631   -4.0635 H   0  0  0  0  0  0  0  0  0  0  0  0
    4.5917    0.7067   -3.1050 C   0  0  0  0  0  0  0  0  0  0  0  0
    5.5813    1.0129   -3.4309 H   0  0  0  0  0  0  0  0  0  0  0  0
    4.4353   -0.4519   -2.3293 C   0  0  0  0  0  0  0  0  0  0  0  0
    5.3048   -1.0423   -2.0566 H   0  0  0  0  0  0  0  0  0  0  0  0
    3.1595   -0.8535   -1.9073 C   0  0  0  0  0  0  0  0  0  0  0  0
    3.0429   -1.7529   -1.3121 H   0  0  0  0  0  0  0  0  0  0  0  0
    2.0423   -0.0877   -2.2645 C   0  0  0  0  0  0  0  0  0  0  0  0
   -1.5220    0.4925   -0.0275 C   0  0  0  0  0  0  0  0  0  0  0  0
   -2.5320    0.7906   -0.6602 O   0  0  0  0  0  0  0  0  0  0  0  0
   -0.9756    1.4211    0.8393 N   0  0  0  0  0  0  0  0  0  0  0  0
   -0.1183    1.1595    1.3189 H   0  0  0  0  0  0  0  0  0  0  0  0
   -1.4247    2.8055    0.9141 C   0  0  0  0  0  0  0  0  0  0  0  0
   -2.4827    2.8521    1.1930 H   0  0  0  0  0  0  0  0  0  0  0  0
   -0.8460    3.3493    1.6670 H   0  0  0  0  0  0  0  0  0  0  0  0
   -1.2914    3.3036   -0.0521 H   0  0  0  0  0  0  0  0  0  0  0  0
  1  2  1  0  0  0  0
  2  3  1  0  0  0  0
  2  4  1  0  0  0  0
  2  5  1  0  0  0  0
  5  6  2  0  0  0  0
  5  7  1  0  0  0  0
  7  8  1  0  0  0  0
  7  9  1  0  0  0  0
  9 10  1  0  0  0  0
  9 11  1  0  0  0  0
  9 29  1  0  0  0  0
 11 12  1  0  0  0  0
 11 13  1  0  0  0  0
 11 14  1  0  0  0  0
 14 15  2  0  0  0  0
 14 28  1  0  0  0  0
 15 16  1  0  0  0  0
 15 17  1  0  0  0  0
 17 18  1  0  0  0  0
 17 19  1  0  0  0  0
 19 20  1  0  0  0  0
 19 28  2  0  0  0  0
 20 21  1  0  0  0  0
 20 22  2  0  0  0  0
 22 23  1  0  0  0  0
 22 24  1  0  0  0  0
 24 25  1  0  0  0  0
 24 26  2  0  0  0  0
 26 27  1  0  0  0  0
 26 28  1  0  0  0  0
 29 30  2  0  0  0  0
 29 31  1  0  0  0  0
 31 32  1  0  0  0  0
 31 33  1  0  0  0  0
 33 34  1  0  0  0  0
 33 35  1  0  0  0  0
 33 36  1  0  0  0  0
M  END
$$$$

  -OEChem-03222214083D

 36 37  0     1  0  0  0  0  0999 V2000
   -3.3899   -4.7097    1.2960 H   0  0  0  0  0  0  0  0  0  0  0  0
   -3.4868   -3.8443    0.6344 C   0  0  0  0  0  0  0  0  0  0  0  0
   -4.3352   -3.2407    0.9660 H   0  0  0  0  0  0  0  0  0  0  0  0
   -3.6746   -4.1975   -0.3824 H   0  0  0  0  0  0  0  0  0  0  0  0
   -2.2171   -3.0153    0.6687 C   0  0  0  0  0  0  0  0  0  0  0  0
   -1.2771   -3.3634    1.3652 O   0  0  0  0  0  0  0  0  0  0  0  0
   -2.1320   -1.8624   -0.0815 N   0  0  0  0  0  0  0  0  0  0  0  0
   -2.9729   -1.5559   -0.5682 H   0  0  0  0  0  0  0  0  0  0  0  0
   -1.0137   -0.9074   -0.0242 C   0  0  1  0  0  0  0  0  0  0  0  0
   -0.4879   -1.0394    0.9273 H   0  0  0  0  0  0  0  0  0  0  0  0
    0.0140   -1.2403   -1.1402 C   0  0  0  0  0  0  0  0  0  0  0  0
    0.8377   -1.7643   -0.6465 H   0  0  0  0  0  0  0  0  0  0  0  0
   -0.4384   -1.9576   -1.8324 H   0  0  0  0  0  0  0  0  0  0  0  0
    0.6082   -0.1370   -2.0047 C   0  0  0  0  0  0  0  0  0  0  0  0
    0.1014    1.0784   -2.4222 C   0  0  0  0  0  0  0  0  0  0  0  0
   -0.8980    1.4642   -2.2387 H   0  0  0  0  0  0  0  0  0  0  0  0
    1.0828    1.7302   -3.1630 N   0  0  0  0  0  0  0  0  0  0  0  0
    0.9749    2.6382   -3.6103 H   0  0  0  0  0  0  0  0  0  0  0  0
    2.2234    0.9541   -3.2387 C   0  0  0  0  0  0  0  0  0  0  0  0
    3.4511    1.1735   -3.8629 C   0  0  0  0  0  0  0  0  0  0  0  0
    3.6306    2.0938   -4.4075 H   0  0  0  0  0  0  0  0  0  0  0  0
    4.4455    0.1900   -3.7770 C   0  0  0  0  0  0  0  0  0  0  0  0
    5.4065    0.3467   -4.2574 H   0  0  0  0  0  0  0  0  0  0  0  0
    4.1984   -0.9983   -3.0735 C   0  0  0  0  0  0  0  0  0  0  0  0
    4.9682   -1.7616   -3.0113 H   0  0  0  0  0  0  0  0  0  0  0  0
    2.9592   -1.2060   -2.4506 C   0  0  0  0  0  0  0  0  0  0  0  0
    2.7702   -2.1278   -1.9103 H   0  0  0  0  0  0  0  0  0  0  0  0
    1.9704   -0.2174   -2.5352 C   0  0  0  0  0  0  0  0  0  0  0  0
   -1.5617    0.5305    0.0321 C   0  0  0  0  0  0  0  0  0  0  0  0
   -2.5738    0.8255   -0.5976 O   0  0  0  0  0  0  0  0  0  0  0  0
   -1.0337    1.4492    0.9206 N   0  0  0  0  0  0  0  0  0  0  0  0
   -0.1953    1.1802    1.4289 H   0  0  0  0  0  0  0  0  0  0  0  0
   -1.5423    2.8065    1.0701 C   0  0  0  0  0  0  0  0  0  0  0  0
   -2.5960    2.7909    1.3684 H   0  0  0  0  0  0  0  0  0  0  0  0
   -0.9744    3.3394    1.8388 H   0  0  0  0  0  0  0  0  0  0  0  0
   -1.4498    3.3561    0.1275 H   0  0  0  0  0  0  0  0  0  0  0  0
  1  2  1  0  0  0  0
  2  3  1  0  0  0  0
  2  4  1  0  0  0  0
  2  5  1  0  0  0  0
  5  6  2  0  0  0  0
  5  7  1  0  0  0  0
  7  8  1  0  0  0  0
  7  9  1  0  0  0  0
  9 10  1  0  0  0  0
  9 11  1  0  0  0  0
  9 29  1  0  0  0  0
 11 12  1  0  0  0  0
 11 13  1  0  0  0  0
 11 14  1  0  0  0  0
 14 15  2  0  0  0  0
 14 28  1  0  0  0  0
 15 16  1  0  0  0  0
 15 17  1  0  0  0  0
 17 18  1  0  0  0  0
 17 19  1  0  0  0  0
 19 20  1  0  0  0  0
 19 28  2  0  0  0  0
 20 21  1  0  0  0  0
 20 22  2  0  0  0  0
 22 23  1  0  0  0  0
 22 24  1  0  0  0  0
 24 25  1  0  0  0  0
 24 26  2  0  0  0  0
 26 27  1  0  0  0  0
 26 28  1  0  0  0  0
 29 30  2  0  0  0  0
 29 31  1  0  0  0  0
 31 32  1  0  0  0  0
 31 33  1  0  0  0  0
 33 34  1  0  0  0  0
 33 35  1  0  0  0  0
 33 36  1  0  0  0  0
M  END
$$$$

  -OEChem-03222214083D

 36 37  0     1  0  0  0  0  0999 V2000
   -3.3281   -4.7532    1.1353 H   0  0  0  0  0  0  0  0  0  0  0  0
   -3.4303   -3.8603    0.5122 C   0  0  0  0  0  0  0  0  0  0  0  0
   -4.3051   -3.2967    0.8454 H   0  0  0  0  0  0  0  0  0  0  0  0
   -3.5779   -4.1704   -0.5252 H   0  0  0  0  0  0  0  0  0  0  0  0
   -2.1857   -2.9999    0.6234 C   0  0  0  0  0  0  0  0  0  0  0  0
   -1.2685   -3.3420    1.3523 O   0  0  0  0  0  0  0  0  0  0  0  0
   -2.0939   -1.8285   -0.0972 N   0  0  0  0  0  0  0  0  0  0  0  0
   -2.9152   -1.5317   -0.6225 H   0  0  0  0  0  0  0  0  0  0  0  0
   -0.9857   -0.8647    0.0061 C   0  0  1  0  0  0  0  0  0  0  0  0
   -0.4652   -1.0135    0.9578 H   0  0  0  0  0  0  0  0  0  0  0  0
    0.0444   -1.1606   -1.1193 C   0  0  0  0  0  0  0  0  0  0  0  0
    0.8690   -1.6996   -0.6421 H   0  0  0  0  0  0  0  0  0  0  0  0
   -0.4124   -1.8576   -1.8294 H   0  0  0  0  0  0  0  0  0  0  0  0
    0.6561   -0.0518   -1.9663 C   0  0  0  0  0  0  0  0  0  0  0  0
    0.3284    1.2750   -2.1760 C   0  0  0  0  0  0  0  0  0  0  0  0
   -0.5175    1.8174   -1.7647 H   0  0  0  0  0  0  0  0  0  0  0  0
    1.2622    1.8229   -3.0511 N   0  0  0  0  0  0  0  0  0  0  0  0
    1.2494    2.7792   -3.3992 H   0  0  0  0  0  0  0  0  0  0  0  0
    2.1925    0.8717   -3.4224 C   0  0  0  0  0  0  0  0  0  0  0  0
    3.2964    0.9348   -4.2728 C   0  0  0  0  0  0  0  0  0  0  0  0
    3.5470    1.8620   -4.7758 H   0  0  0  0  0  0  0  0  0  0  0  0
    4.0737   -0.2150   -4.4685 C   0  0  0  0  0  0  0  0  0  0  0  0
    4.9358   -0.1815   -5.1280 H   0  0  0  0  0  0  0  0  0  0  0  0
    3.7372   -1.4096   -3.8142 C   0  0  0  0  0  0  0  0  0  0  0  0
    4.3389   -2.3002   -3.9679 H   0  0  0  0  0  0  0  0  0  0  0  0
    2.6235   -1.4592   -2.9634 C   0  0  0  0  0  0  0  0  0  0  0  0
    2.3607   -2.3841   -2.4604 H   0  0  0  0  0  0  0  0  0  0  0  0
    1.8520   -0.3065   -2.7709 C   0  0  0  0  0  0  0  0  0  0  0  0
   -1.5658    0.5580    0.0829 C   0  0  0  0  0  0  0  0  0  0  0  0
   -2.5391    0.8663   -0.5981 O   0  0  0  0  0  0  0  0  0  0  0  0
   -1.0777    1.4660    1.0050 N   0  0  0  0  0  0  0  0  0  0  0  0
   -0.3015    1.1687    1.5906 H   0  0  0  0  0  0  0  0  0  0  0  0
   -1.6540    2.7881    1.2155 C   0  0  0  0  0  0  0  0  0  0  0  0
   -2.6972    2.7042    1.5378 H   0  0  0  0  0  0  0  0  0  0  0  0
   -1.0957    3.3247    1.9887 H   0  0  0  0  0  0  0  0  0  0  0  0
   -1.6160    3.3751    0.2920 H   0  0  0  0  0  0  0  0  0  0  0  0
  1  2  1  0  0  0  0
  2  3  1  0  0  0  0
  2  4  1  0  0  0  0
  2  5  1  0  0  0  0
  5  6  2  0  0  0  0
  5  7  1  0  0  0  0
  7  8  1  0  0  0  0
  7  9  1  0  0  0  0
  9 10  1  0  0  0  0
  9 11  1  0  0  0  0
  9 29  1  0  0  0  0
 11 12  1  0  0  0  0
 11 13  1  0  0  0  0
 11 14  1  0  0  0  0
 14 15  2  0  0  0  0
 14 28  1  0  0  0  0
 15 16  1  0  0  0  0
 15 17  1  0  0  0  0
 17 18  1  0  0  0  0
 17 19  1  0  0  0  0
 19 20  1  0  0  0  0
 19 28  2  0  0  0  0
 20 21  1  0  0  0  0
 20 22  2  0  0  0  0
 22 23  1  0  0  0  0
 22 24  1  0  0  0  0
 24 25  1  0  0  0  0
 24 26  2  0  0  0  0
 26 27  1  0  0  0  0
 26 28  1  0  0  0  0
 29 30  2  0  0  0  0
 29 31  1  0  0  0  0
 31 32  1  0  0  0  0
 31 33  1  0  0  0  0
 33 34  1  0  0  0  0
 33 35  1  0  0  0  0
 33 36  1  0  0  0  0
M  END
$$$$

  -OEChem-03222214083D

 36 37  0     1  0  0  0  0  0999 V2000
   -3.3889   -4.7251    1.0696 H   0  0  0  0  0  0  0  0  0  0  0  0
   -3.4512   -3.8423    0.4270 C   0  0  0  0  0  0  0  0  0  0  0  0
   -4.3329   -3.2621    0.7099 H   0  0  0  0  0  0  0  0  0  0  0  0
   -3.5554   -4.1682   -0.6108 H   0  0  0  0  0  0  0  0  0  0  0  0
   -2.2022   -2.9951    0.5796 C   0  0  0  0  0  0  0  0  0  0  0  0
   -1.3043   -3.3550    1.3239 O   0  0  0  0  0  0  0  0  0  0  0  0
   -2.0855   -1.8140   -0.1208 N   0  0  0  0  0  0  0  0  0  0  0  0
   -2.8900   -1.5055   -0.6650 H   0  0  0  0  0  0  0  0  0  0  0  0
   -0.9681   -0.8650    0.0128 C   0  0  1  0  0  0  0  0  0  0  0  0
   -0.4522   -1.0358    0.9633 H   0  0  0  0  0  0  0  0  0  0  0  0
    0.0565   -1.1509   -1.1207 C   0  0  0  0  0  0  0  0  0  0  0  0
    0.8723   -1.7260   -0.6716 H   0  0  0  0  0  0  0  0  0  0  0  0
   -0.4267   -1.8114   -1.8482 H   0  0  0  0  0  0  0  0  0  0  0  0
    0.6872   -0.0375   -1.9456 C   0  0  0  0  0  0  0  0  0  0  0  0
    0.5684    1.3398   -1.9483 C   0  0  0  0  0  0  0  0  0  0  0  0
   -0.0758    1.9475   -1.3215 H   0  0  0  0  0  0  0  0  0  0  0  0
    1.4182    1.8497   -2.9265 N   0  0  0  0  0  0  0  0  0  0  0  0
    1.5163    2.8343   -3.1642 H   0  0  0  0  0  0  0  0  0  0  0  0
    2.0934    0.8255   -3.5617 C   0  0  0  0  0  0  0  0  0  0  0  0
    3.0337    0.8281   -4.5921 C   0  0  0  0  0  0  0  0  0  0  0  0
    3.3528    1.7631   -5.0390 H   0  0  0  0  0  0  0  0  0  0  0  0
    3.5580   -0.3922   -5.0409 C   0  0  0  0  0  0  0  0  0  0  0  0
    4.2904   -0.4065   -5.8427 H   0  0  0  0  0  0  0  0  0  0  0  0
    3.1376   -1.5957   -4.4549 C   0  0  0  0  0  0  0  0  0  0  0  0
    3.5454   -2.5401   -4.8027 H   0  0  0  0  0  0  0  0  0  0  0  0
    2.1906   -1.5838   -3.4210 C   0  0  0  0  0  0  0  0  0  0  0  0
    1.8638   -2.5138   -2.9675 H   0  0  0  0  0  0  0  0  0  0  0  0
    1.6694   -0.3616   -2.9795 C   0  0  0  0  0  0  0  0  0  0  0  0
   -1.5430    0.5590    0.1025 C   0  0  0  0  0  0  0  0  0  0  0  0
   -2.4888    0.8940   -0.6025 O   0  0  0  0  0  0  0  0  0  0  0  0
   -1.0616    1.4476    1.0480 N   0  0  0  0  0  0  0  0  0  0  0  0
   -0.3232    1.1199    1.6655 H   0  0  0  0  0  0  0  0  0  0  0  0
   -1.6399    2.7659    1.2785 C   0  0  0  0  0  0  0  0  0  0  0  0
   -2.6921    2.6775    1.5692 H   0  0  0  0  0  0  0  0  0  0  0  0
   -1.1015    3.2792    2.0813 H   0  0  0  0  0  0  0  0  0  0  0  0
   -1.5747    3.3776    0.3727 H   0  0  0  0  0  0  0  0  0  0  0  0
  1  2  1  0  0  0  0
  2  3  1  0  0  0  0
  2  4  1  0  0  0  0
  2  5  1  0  0  0  0
  5  6  2  0  0  0  0
  5  7  1  0  0  0  0
  7  8  1  0  0  0  0
  7  9  1  0  0  0  0
  9 10  1  0  0  0  0
  9 11  1  0  0  0  0
  9 29  1  0  0  0  0
 11 12  1  0  0  0  0
 11 13  1  0  0  0  0
 11 14  1  0  0  0  0
 14 15  2  0  0  0  0
 14 28  1  0  0  0  0
 15 16  1  0  0  0  0
 15 17  1  0  0  0  0
 17 18  1  0  0  0  0
 17 19  1  0  0  0  0
 19 20  1  0  0  0  0
 19 28  2  0  0  0  0
 20 21  1  0  0  0  0
 20 22  2  0  0  0  0
 22 23  1  0  0  0  0
 22 24  1  0  0  0  0
 24 25  1  0  0  0  0
 24 26  2  0  0  0  0
 26 27  1  0  0  0  0
 26 28  1  0  0  0  0
 29 30  2  0  0  0  0
 29 31  1  0  0  0  0
 31 32  1  0  0  0  0
 31 33  1  0  0  0  0
 33 34  1  0  0  0  0
 33 35  1  0  0  0  0
 33 36  1  0  0  0  0
M  END
$$$$

  -OEChem-03222214083D

 36 37  0     1  0  0  0  0  0999 V2000
   -3.5264   -4.6386    1.0426 H   0  0  0  0  0  0  0  0  0  0  0  0
   -3.5271   -3.7755    0.3712 C   0  0  0  0  0  0  0  0  0  0  0  0
   -4.4003   -3.1571    0.5928 H   0  0  0  0  0  0  0  0  0  0  0  0
   -3.5930   -4.1310   -0.6599 H   0  0  0  0  0  0  0  0  0  0  0  0
   -2.2577   -2.9666    0.5589 C   0  0  0  0  0  0  0  0  0  0  0  0
   -1.3957   -3.3484    1.3341 O   0  0  0  0  0  0  0  0  0  0  0  0
   -2.0819   -1.7937   -0.1426 N   0  0  0  0  0  0  0  0  0  0  0  0
   -2.8605   -1.4596   -0.7092 H   0  0  0  0  0  0  0  0  0  0  0  0
   -0.9407   -0.8786    0.0242 C   0  0  1  0  0  0  0  0  0  0  0  0
   -0.4464   -1.0590    0.9842 H   0  0  0  0  0  0  0  0  0  0  0  0
    0.0849   -1.1941   -1.1019 C   0  0  0  0  0  0  0  0  0  0  0  0
    0.8738   -1.8146   -0.6652 H   0  0  0  0  0  0  0  0  0  0  0  0
   -0.4264   -1.8173   -1.8426 H   0  0  0  0  0  0  0  0  0  0  0  0
    0.7580   -0.0913   -1.9047 C   0  0  0  0  0  0  0  0  0  0  0  0
    0.8795    1.2708   -1.7147 C   0  0  0  0  0  0  0  0  0  0  0  0
    0.4827    1.8540   -0.8912 H   0  0  0  0  0  0  0  0  0  0  0  0
    1.6157    1.7952   -2.7738 N   0  0  0  0  0  0  0  0  0  0  0  0
    1.8398    2.7793   -2.9035 H   0  0  0  0  0  0  0  0  0  0  0  0
    1.9815    0.7921   -3.6512 C   0  0  0  0  0  0  0  0  0  0  0  0
    2.7115    0.8161   -4.8399 C   0  0  0  0  0  0  0  0  0  0  0  0
    3.1024    1.7523   -5.2226 H   0  0  0  0  0  0  0  0  0  0  0  0
    2.9319   -0.3838   -5.5304 C   0  0  0  0  0  0  0  0  0  0  0  0
    3.4968   -0.3807   -6.4578 H   0  0  0  0  0  0  0  0  0  0  0  0
    2.4232   -1.5891   -5.0239 C   0  0  0  0  0  0  0  0  0  0  0  0
    2.5951   -2.5180   -5.5590 H   0  0  0  0  0  0  0  0  0  0  0  0
    1.6917   -1.5990   -3.8277 C   0  0  0  0  0  0  0  0  0  0  0  0
    1.2986   -2.5308   -3.4345 H   0  0  0  0  0  0  0  0  0  0  0  0
    1.4716   -0.3963   -3.1450 C   0  0  0  0  0  0  0  0  0  0  0  0
   -1.4968    0.5574    0.0862 C   0  0  0  0  0  0  0  0  0  0  0  0
   -2.4201    0.9004   -0.6443 O   0  0  0  0  0  0  0  0  0  0  0  0
   -1.0333    1.4420    1.0452 N   0  0  0  0  0  0  0  0  0  0  0  0
   -0.3623    1.0851    1.7206 H   0  0  0  0  0  0  0  0  0  0  0  0
   -1.6309    2.7518    1.2758 C   0  0  0  0  0  0  0  0  0  0  0  0
   -2.6833    2.6480    1.5604 H   0  0  0  0  0  0  0  0  0  0  0  0
   -1.1041    3.2706    2.0824 H   0  0  0  0  0  0  0  0  0  0  0  0
   -1.5693    3.3667    0.3717 H   0  0  0  0  0  0  0  0  0  0  0  0
  1  2  1  0  0  0  0
  2  3  1  0  0  0  0
  2  4  1  0  0  0  0
  2  5  1  0  0  0  0
  5  6  2  0  0  0  0
  5  7  1  0  0  0  0
  7  8  1  0  0  0  0
  7  9  1  0  0  0  0
  9 10  1  0  0  0  0
  9 11  1  0  0  0  0
  9 29  1  0  0  0  0
 11 12  1  0  0  0  0
 11 13  1  0  0  0  0
 11 14  1  0  0  0  0
 14 15  2  0  0  0  0
 14 28  1  0  0  0  0
 15 16  1  0  0  0  0
 15 17  1  0  0  0  0
 17 18  1  0  0  0  0
 17 19  1  0  0  0  0
 19 20  1  0  0  0  0
 19 28  2  0  0  0  0
 20 21  1  0  0  0  0
 20 22  2  0  0  0  0
 22 23  1  0  0  0  0
 22 24  1  0  0  0  0
 24 25  1  0  0  0  0
 24 26  2  0  0  0  0
 26 27  1  0  0  0  0
 26 28  1  0  0  0  0
 29 30  2  0  0  0  0
 29 31  1  0  0  0  0
 31 32  1  0  0  0  0
 31 33  1  0  0  0  0
 33 34  1  0  0  0  0
 33 35  1  0  0  0  0
 33 36  1  0  0  0  0
M  END
$$$$

  -OEChem-03222214083D

 36 37  0     1  0  0  0  0  0999 V2000
   -3.6503   -4.5810    1.0983 H   0  0  0  0  0  0  0  0  0  0  0  0
   -3.6220   -3.7222    0.4219 C   0  0  0  0  0  0  0  0  0  0  0  0
   -4.4755   -3.0752    0.6381 H   0  0  0  0  0  0  0  0  0  0  0  0
   -3.6973   -4.0814   -0.6072 H   0  0  0  0  0  0  0  0  0  0  0  0
   -2.3281   -2.9526    0.6069 C   0  0  0  0  0  0  0  0  0  0  0  0
   -1.4936   -3.3385    1.4097 O   0  0  0  0  0  0  0  0  0  0  0  0
   -2.0988   -1.8106   -0.1290 N   0  0  0  0  0  0  0  0  0  0  0  0
   -2.8579   -1.4639   -0.7148 H   0  0  0  0  0  0  0  0  0  0  0  0
   -0.9282   -0.9319    0.0288 C   0  0  1  0  0  0  0  0  0  0  0  0
   -0.4456   -1.1007    0.9966 H   0  0  0  0  0  0  0  0  0  0  0  0
    0.0886   -1.2990   -1.0891 C   0  0  0  0  0  0  0  0  0  0  0  0
    0.8601   -1.9400   -0.6516 H   0  0  0  0  0  0  0  0  0  0  0  0
   -0.4428   -1.9115   -1.8240 H   0  0  0  0  0  0  0  0  0  0  0  0
    0.7808   -0.2036   -1.8830 C   0  0  0  0  0  0  0  0  0  0  0  0
    1.1359    1.0810   -1.5274 C   0  0  0  0  0  0  0  0  0  0  0  0
    0.9825    1.5483   -0.5605 H   0  0  0  0  0  0  0  0  0  0  0  0
    1.7503    1.6829   -2.6216 N   0  0  0  0  0  0  0  0  0  0  0  0
    2.0988    2.6385   -2.6505 H   0  0  0  0  0  0  0  0  0  0  0  0
    1.8079    0.8016   -3.6848 C   0  0  0  0  0  0  0  0  0  0  0  0
    2.3243    0.9391   -4.9733 C   0  0  0  0  0  0  0  0  0  0  0  0
    2.7769    1.8740   -5.2844 H   0  0  0  0  0  0  0  0  0  0  0  0
    2.2501   -0.1455   -5.8576 C   0  0  0  0  0  0  0  0  0  0  0  0
    2.6468   -0.0539   -6.8644 H   0  0  0  0  0  0  0  0  0  0  0  0
    1.6638   -1.3505   -5.4427 C   0  0  0  0  0  0  0  0  0  0  0  0
    1.6080   -2.1902   -6.1288 H   0  0  0  0  0  0  0  0  0  0  0  0
    1.1479   -1.4751   -4.1446 C   0  0  0  0  0  0  0  0  0  0  0  0
    0.6963   -2.4083   -3.8257 H   0  0  0  0  0  0  0  0  0  0  0  0
    1.2208   -0.3865   -3.2665 C   0  0  0  0  0  0  0  0  0  0  0  0
   -1.4445    0.5226    0.0335 C   0  0  0  0  0  0  0  0  0  0  0  0
   -2.3535    0.8615   -0.7169 O   0  0  0  0  0  0  0  0  0  0  0  0
   -0.9745    1.4278    0.9702 N   0  0  0  0  0  0  0  0  0  0  0  0
   -0.3423    1.0731    1.6826 H   0  0  0  0  0  0  0  0  0  0  0  0
   -1.5259    2.7685    1.1263 C   0  0  0  0  0  0  0  0  0  0  0  0
   -2.5802    2.7178    1.4180 H   0  0  0  0  0  0  0  0  0  0  0  0
   -0.9779    3.3152    1.8997 H   0  0  0  0  0  0  0  0  0  0  0  0
   -1.4463    3.3274    0.1877 H   0  0  0  0  0  0  0  0  0  0  0  0
  1  2  1  0  0  0  0
  2  3  1  0  0  0  0
  2  4  1  0  0  0  0
  2  5  1  0  0  0  0
  5  6  2  0  0  0  0
  5  7  1  0  0  0  0
  7  8  1  0  0  0  0
  7  9  1  0  0  0  0
  9 10  1  0  0  0  0
  9 11  1  0  0  0  0
  9 29  1  0  0  0  0
 11 12  1  0  0  0  0
 11 13  1  0  0  0  0
 11 14  1  0  0  0  0
 14 15  2  0  0  0  0
 14 28  1  0  0  0  0
 15 16  1  0  0  0  0
 15 17  1  0  0  0  0
 17 18  1  0  0  0  0
 17 19  1  0  0  0  0
 19 20  1  0  0  0  0
 19 28  2  0  0  0  0
 20 21  1  0  0  0  0
 20 22  2  0  0  0  0
 22 23  1  0  0  0  0
 22 24  1  0  0  0  0
 24 25  1  0  0  0  0
 24 26  2  0  0  0  0
 26 27  1  0  0  0  0
 26 28  1  0  0  0  0
 29 30  2  0  0  0  0
 29 31  1  0  0  0  0
 31 32  1  0  0  0  0
 31 33  1  0  0  0  0
 33 34  1  0  0  0  0
 33 35  1  0  0  0  0
 33 36  1  0  0  0  0
M  END
$$$$

  -OEChem-03222214083D

 36 37  0     1  0  0  0  0  0999 V2000
   -3.7395   -4.5105    1.2371 H   0  0  0  0  0  0  0  0  0  0  0  0
   -3.6917   -3.6794    0.5281 C   0  0  0  0  0  0  0  0  0  0  0  0
   -4.5217   -2.9976    0.7279 H   0  0  0  0  0  0  0  0  0  0  0  0
   -3.7897   -4.0750   -0.4857 H   0  0  0  0  0  0  0  0  0  0  0  0
   -2.3720   -2.9454    0.6719 C   0  0  0  0  0  0  0  0  0  0  0  0
   -1.5480   -3.3193    1.4912 O   0  0  0  0  0  0  0  0  0  0  0  0
   -2.1094   -1.8457   -0.1151 N   0  0  0  0  0  0  0  0  0  0  0  0
   -2.8618   -1.4971   -0.7085 H   0  0  0  0  0  0  0  0  0  0  0  0
   -0.9185   -0.9901    0.0122 C   0  0  1  0  0  0  0  0  0  0  0  0
   -0.4451   -1.1286    0.9893 H   0  0  0  0  0  0  0  0  0  0  0  0
    0.0958   -1.4126   -1.0848 C   0  0  0  0  0  0  0  0  0  0  0  0
    0.8644   -2.0400   -0.6232 H   0  0  0  0  0  0  0  0  0  0  0  0
   -0.4296   -2.0467   -1.8047 H   0  0  0  0  0  0  0  0  0  0  0  0
    0.7842   -0.3194   -1.8786 C   0  0  0  0  0  0  0  0  0  0  0  0
    1.3578    0.8435   -1.4133 C   0  0  0  0  0  0  0  0  0  0  0  0
    1.4168    1.1522   -0.3735 H   0  0  0  0  0  0  0  0  0  0  0  0
    1.8578    1.5462   -2.5056 N   0  0  0  0  0  0  0  0  0  0  0  0
    2.3211    2.4513   -2.4643 H   0  0  0  0  0  0  0  0  0  0  0  0
    1.6141    0.8498   -3.6760 C   0  0  0  0  0  0  0  0  0  0  0  0
    1.9176    1.1440   -5.0054 C   0  0  0  0  0  0  0  0  0  0  0  0
    2.4348    2.0630   -5.2577 H   0  0  0  0  0  0  0  0  0  0  0  0
    1.5445    0.2380   -6.0075 C   0  0  0  0  0  0  0  0  0  0  0  0
    1.7726    0.4542   -7.0468 H   0  0  0  0  0  0  0  0  0  0  0  0
    0.8759   -0.9476   -5.6686 C   0  0  0  0  0  0  0  0  0  0  0  0
    0.5879   -1.6485   -6.4461 H   0  0  0  0  0  0  0  0  0  0  0  0
    0.5755   -1.2309   -4.3284 C   0  0  0  0  0  0  0  0  0  0  0  0
    0.0567   -2.1476   -4.0694 H   0  0  0  0  0  0  0  0  0  0  0  0
    0.9492   -0.3215   -3.3311 C   0  0  0  0  0  0  0  0  0  0  0  0
   -1.3941    0.4786   -0.0557 C   0  0  0  0  0  0  0  0  0  0  0  0
   -2.3103    0.7973   -0.8070 O   0  0  0  0  0  0  0  0  0  0  0  0
   -0.9063    1.4143    0.8413 N   0  0  0  0  0  0  0  0  0  0  0  0
   -0.2787    1.0813    1.5672 H   0  0  0  0  0  0  0  0  0  0  0  0
   -1.4254    2.7738    0.9315 C   0  0  0  0  0  0  0  0  0  0  0  0
   -2.4783    2.7631    1.2324 H   0  0  0  0  0  0  0  0  0  0  0  0
   -0.8588    3.3470    1.6716 H   0  0  0  0  0  0  0  0  0  0  0  0
   -1.3404    3.2815   -0.0354 H   0  0  0  0  0  0  0  0  0  0  0  0
  1  2  1  0  0  0  0
  2  3  1  0  0  0  0
  2  4  1  0  0  0  0
  2  5  1  0  0  0  0
  5  6  2  0  0  0  0
  5  7  1  0  0  0  0
  7  8  1  0  0  0  0
  7  9  1  0  0  0  0
  9 10  1  0  0  0  0
  9 11  1  0  0  0  0
  9 29  1  0  0  0  0
 11 12  1  0  0  0  0
 11 13  1  0  0  0  0
 11 14  1  0  0  0  0
 14 15  2  0  0  0  0
 14 28  1  0  0  0  0
 15 16  1  0  0  0  0
 15 17  1  0  0  0  0
 17 18  1  0  0  0  0
 17 19  1  0  0  0  0
 19 20  1  0  0  0  0
 19 28  2  0  0  0  0
 20 21  1  0  0  0  0
 20 22  2  0  0  0  0
 22 23  1  0  0  0  0
 22 24  1  0  0  0  0
 24 25  1  0  0  0  0
 24 26  2  0  0  0  0
 26 27  1  0  0  0  0
 26 28  1  0  0  0  0
 29 30  2  0  0  0  0
 29 31  1  0  0  0  0
 31 32  1  0  0  0  0
 31 33  1  0  0  0  0
 33 34  1  0  0  0  0
 33 35  1  0  0  0  0
 33 36  1  0  0  0  0
M  END
$$$$

  -OEChem-03222214083D

 36 37  0     1  0  0  0  0  0999 V2000
   -3.7849   -4.4699    1.3524 H   0  0  0  0  0  0  0  0  0  0  0  0
   -3.7246   -3.6695    0.6101 C   0  0  0  0  0  0  0  0  0  0  0  0
   -4.5418   -2.9654    0.7839 H   0  0  0  0  0  0  0  0  0  0  0  0
   -3.8336   -4.1044   -0.3863 H   0  0  0  0  0  0  0  0  0  0  0  0
   -2.3915   -2.9542    0.7202 C   0  0  0  0  0  0  0  0  0  0  0  0
   -1.5666   -3.3171    1.5437 O   0  0  0  0  0  0  0  0  0  0  0  0
   -2.1146   -1.8897   -0.1092 N   0  0  0  0  0  0  0  0  0  0  0  0
   -2.8686   -1.5449   -0.7029 H   0  0  0  0  0  0  0  0  0  0  0  0
   -0.9167   -1.0415   -0.0092 C   0  0  1  0  0  0  0  0  0  0  0  0
   -0.4523   -1.1473    0.9763 H   0  0  0  0  0  0  0  0  0  0  0  0
    0.1035   -1.5025   -1.0804 C   0  0  0  0  0  0  0  0  0  0  0  0
    0.8774   -2.0986   -0.5868 H   0  0  0  0  0  0  0  0  0  0  0  0
   -0.3972   -2.1697   -1.7881 H   0  0  0  0  0  0  0  0  0  0  0  0
    0.7738   -0.4035   -1.8744 C   0  0  0  0  0  0  0  0  0  0  0  0
    1.5560    0.6129   -1.3748 C   0  0  0  0  0  0  0  0  0  0  0  0
    1.8211    0.7532   -0.3299 H   0  0  0  0  0  0  0  0  0  0  0  0
    1.9438    1.4174   -2.4427 N   0  0  0  0  0  0  0  0  0  0  0  0
    2.5204    2.2529   -2.3752 H   0  0  0  0  0  0  0  0  0  0  0  0
    1.4088    0.9364   -3.6255 C   0  0  0  0  0  0  0  0  0  0  0  0
    1.5035    1.4002   -4.9376 C   0  0  0  0  0  0  0  0  0  0  0  0
    2.0821    2.2888   -5.1633 H   0  0  0  0  0  0  0  0  0  0  0  0
    0.8387    0.7050   -5.9571 C   0  0  0  0  0  0  0  0  0  0  0  0
    0.9014    1.0553   -6.9831 H   0  0  0  0  0  0  0  0  0  0  0  0
    0.0890   -0.4411   -5.6524 C   0  0  0  0  0  0  0  0  0  0  0  0
   -0.4288   -0.9759   -6.4427 H   0  0  0  0  0  0  0  0  0  0  0  0
    0.0021   -0.8975   -4.3292 C   0  0  0  0  0  0  0  0  0  0  0  0
   -0.5817   -1.7806   -4.0930 H   0  0  0  0  0  0  0  0  0  0  0  0
    0.6703   -0.2003   -3.3162 C   0  0  0  0  0  0  0  0  0  0  0  0
   -1.3658    0.4326   -0.1381 C   0  0  0  0  0  0  0  0  0  0  0  0
   -2.2862    0.7311   -0.8930 O   0  0  0  0  0  0  0  0  0  0  0  0
   -0.8667    1.3951    0.7228 N   0  0  0  0  0  0  0  0  0  0  0  0
   -0.1993    1.0969    1.4272 H   0  0  0  0  0  0  0  0  0  0  0  0
   -1.3181    2.7810    0.7178 C   0  0  0  0  0  0  0  0  0  0  0  0
   -2.3970    2.8346    0.8976 H   0  0  0  0  0  0  0  0  0  0  0  0
   -0.8088    3.3474    1.5031 H   0  0  0  0  0  0  0  0  0  0  0  0
   -1.0973    3.2507   -0.2466 H   0  0  0  0  0  0  0  0  0  0  0  0
  1  2  1  0  0  0  0
  2  3  1  0  0  0  0
  2  4  1  0  0  0  0
  2  5  1  0  0  0  0
  5  6  2  0  0  0  0
  5  7  1  0  0  0  0
  7  8  1  0  0  0  0
  7  9  1  0  0  0  0
  9 10  1  0  0  0  0
  9 11  1  0  0  0  0
  9 29  1  0  0  0  0
 11 12  1  0  0  0  0
 11 13  1  0  0  0  0
 11 14  1  0  0  0  0
 14 15  2  0  0  0  0
 14 28  1  0  0  0  0
 15 16  1  0  0  0  0
 15 17  1  0  0  0  0
 17 18  1  0  0  0  0
 17 19  1  0  0  0  0
 19 20  1  0  0  0  0
 19 28  2  0  0  0  0
 20 21  1  0  0  0  0
 20 22  2  0  0  0  0
 22 23  1  0  0  0  0
 22 24  1  0  0  0  0
 24 25  1  0  0  0  0
 24 26  2  0  0  0  0
 26 27  1  0  0  0  0
 26 28  1  0  0  0  0
 29 30  2  0  0  0  0
 29 31  1  0  0  0  0
 31 32  1  0  0  0  0
 31 33  1  0  0  0  0
 33 34  1  0  0  0  0
 33 35  1  0  0  0  0
 33 36  1  0  0  0  0
M  END
$$$$

  -OEChem-03222214083D

 36 37  0     1  0  0  0  0  0999 V2000
   -3.7929   -4.4529    1.4151 H   0  0  0  0  0  0  0  0  0  0  0  0
   -3.7413   -3.6583    0.6655 C   0  0  0  0  0  0  0  0  0  0  0  0
   -4.5446   -2.9422    0.8547 H   0  0  0  0  0  0  0  0  0  0  0  0
   -3.8809   -4.0984   -0.3248 H   0  0  0  0  0  0  0  0  0  0  0  0
   -2.3965   -2.9599    0.7366 C   0  0  0  0  0  0  0  0  0  0  0  0
   -1.5617   -3.3192    1.5517 O   0  0  0  0  0  0  0  0  0  0  0  0
   -2.1210   -1.9139   -0.1166 N   0  0  0  0  0  0  0  0  0  0  0  0
   -2.8861   -1.5612   -0.6909 H   0  0  0  0  0  0  0  0  0  0  0  0
   -0.9195   -1.0686   -0.0377 C   0  0  1  0  0  0  0  0  0  0  0  0
   -0.4560   -1.1561    0.9501 H   0  0  0  0  0  0  0  0  0  0  0  0
    0.1035   -1.5439   -1.0967 C   0  0  0  0  0  0  0  0  0  0  0  0
    0.8808   -2.1228   -0.5884 H   0  0  0  0  0  0  0  0  0  0  0  0
   -0.3827   -2.2252   -1.8018 H   0  0  0  0  0  0  0  0  0  0  0  0
    0.7556   -0.4369   -1.8888 C   0  0  0  0  0  0  0  0  0  0  0  0
    1.7396    0.4099   -1.4357 C   0  0  0  0  0  0  0  0  0  0  0  0
    2.1996    0.3756   -0.4511 H   0  0  0  0  0  0  0  0  0  0  0  0
    2.0366    1.3022   -2.4629 N   0  0  0  0  0  0  0  0  0  0  0  0
    2.7316    2.0445   -2.4192 H   0  0  0  0  0  0  0  0  0  0  0  0
    1.2412    1.0451   -3.5682 C   0  0  0  0  0  0  0  0  0  0  0  0
    1.1606    1.6610   -4.8173 C   0  0  0  0  0  0  0  0  0  0  0  0
    1.8037    2.5004   -5.0560 H   0  0  0  0  0  0  0  0  0  0  0  0
    0.2356    1.1832   -5.7564 C   0  0  0  0  0  0  0  0  0  0  0  0
    0.1604    1.6538   -6.7321 H   0  0  0  0  0  0  0  0  0  0  0  0
   -0.5978    0.1009   -5.4350 C   0  0  0  0  0  0  0  0  0  0  0  0
   -1.3182   -0.2634   -6.1610 H   0  0  0  0  0  0  0  0  0  0  0  0
   -0.5076   -0.5097   -4.1761 C   0  0  0  0  0  0  0  0  0  0  0  0
   -1.1560   -1.3406   -3.9199 H   0  0  0  0  0  0  0  0  0  0  0  0
    0.4234   -0.0323   -3.2484 C   0  0  0  0  0  0  0  0  0  0  0  0
   -1.3597    0.4062   -0.1945 C   0  0  0  0  0  0  0  0  0  0  0  0
   -2.3061    0.6871   -0.9247 O   0  0  0  0  0  0  0  0  0  0  0  0
   -0.8509    1.3821    0.6445 N   0  0  0  0  0  0  0  0  0  0  0  0
   -0.1174    1.1123    1.2920 H   0  0  0  0  0  0  0  0  0  0  0  0
   -1.2876    2.7718    0.6077 C   0  0  0  0  0  0  0  0  0  0  0  0
   -2.3611    2.8420    0.8135 H   0  0  0  0  0  0  0  0  0  0  0  0
   -0.7528    3.3564    1.3624 H   0  0  0  0  0  0  0  0  0  0  0  0
   -1.0870    3.2088   -0.3764 H   0  0  0  0  0  0  0  0  0  0  0  0
  1  2  1  0  0  0  0
  2  3  1  0  0  0  0
  2  4  1  0  0  0  0
  2  5  1  0  0  0  0
  5  6  2  0  0  0  0
  5  7  1  0  0  0  0
  7  8  1  0  0  0  0
  7  9  1  0  0  0  0
  9 10  1  0  0  0  0
  9 11  1  0  0  0  0
  9 29  1  0  0  0  0
 11 12  1  0  0  0  0
 11 13  1  0  0  0  0
 11 14  1  0  0  0  0
 14 15  2  0  0  0  0
 14 28  1  0  0  0  0
 15 16  1  0  0  0  0
 15 17  1  0  0  0  0
 17 18  1  0  0  0  0
 17 19  1  0  0  0  0
 19 20  1  0  0  0  0
 19 28  2  0  0  0  0
 20 21  1  0  0  0  0
 20 22  2  0  0  0  0
 22 23  1  0  0  0  0
 22 24  1  0  0  0  0
 24 25  1  0  0  0  0
 24 26  2  0  0  0  0
 26 27  1  0  0  0  0
 26 28  1  0  0  0  0
 29 30  2  0  0  0  0
 29 31  1  0  0  0  0
 31 32  1  0  0  0  0
 31 33  1  0  0  0  0
 33 34  1  0  0  0  0
 33 35  1  0  0  0  0
 33 36  1  0  0  0  0
M  END
$$$$

  -OEChem-03222214083D

 36 37  0     1  0  0  0  0  0999 V2000
   -3.7816   -4.4526    1.4611 H   0  0  0  0  0  0  0  0  0  0  0  0
   -3.7445   -3.6592    0.7095 C   0  0  0  0  0  0  0  0  0  0  0  0
   -4.5350   -2.9351    0.9219 H   0  0  0  0  0  0  0  0  0  0  0  0
   -3.9170   -4.0985   -0.2760 H   0  0  0  0  0  0  0  0  0  0  0  0
   -2.3918   -2.9741    0.7402 C   0  0  0  0  0  0  0  0  0  0  0  0
   -1.5327   -3.3482    1.5228 O   0  0  0  0  0  0  0  0  0  0  0  0
   -2.1360   -1.9253   -0.1155 N   0  0  0  0  0  0  0  0  0  0  0  0
   -2.9204   -1.5572   -0.6529 H   0  0  0  0  0  0  0  0  0  0  0  0
   -0.9356   -1.0775   -0.0529 C   0  0  1  0  0  0  0  0  0  0  0  0
   -0.4629   -1.1642    0.9304 H   0  0  0  0  0  0  0  0  0  0  0  0
    0.0846   -1.5444   -1.1174 C   0  0  0  0  0  0  0  0  0  0  0  0
    0.8671   -2.1200   -0.6133 H   0  0  0  0  0  0  0  0  0  0  0  0
   -0.4001   -2.2242   -1.8254 H   0  0  0  0  0  0  0  0  0  0  0  0
    0.7203   -0.4287   -1.9086 C   0  0  0  0  0  0  0  0  0  0  0  0
    1.8787    0.2313   -1.5748 C   0  0  0  0  0  0  0  0  0  0  0  0
    2.4971    0.0234   -0.7047 H   0  0  0  0  0  0  0  0  0  0  0  0
    2.1132    1.1944   -2.5532 N   0  0  0  0  0  0  0  0  0  0  0  0
    2.9084    1.8289   -2.5792 H   0  0  0  0  0  0  0  0  0  0  0  0
    1.1113    1.1632   -3.5098 C   0  0  0  0  0  0  0  0  0  0  0  0
    0.9031    1.9207   -4.6623 C   0  0  0  0  0  0  0  0  0  0  0  0
    1.6065    2.6969   -4.9411 H   0  0  0  0  0  0  0  0  0  0  0  0
   -0.2281    1.6672   -5.4510 C   0  0  0  0  0  0  0  0  0  0  0  0
   -0.4047    2.2499   -6.3498 H   0  0  0  0  0  0  0  0  0  0  0  0
   -1.1368    0.6655   -5.0764 C   0  0  0  0  0  0  0  0  0  0  0  0
   -2.0177    0.4768   -5.6822 H   0  0  0  0  0  0  0  0  0  0  0  0
   -0.9159   -0.0899   -3.9160 C   0  0  0  0  0  0  0  0  0  0  0  0
   -1.6211   -0.8565   -3.6128 H   0  0  0  0  0  0  0  0  0  0  0  0
    0.2190    0.1640   -3.1408 C   0  0  0  0  0  0  0  0  0  0  0  0
   -1.3819    0.3974   -0.1976 C   0  0  0  0  0  0  0  0  0  0  0  0
   -2.3628    0.6703   -0.8852 O   0  0  0  0  0  0  0  0  0  0  0  0
   -0.8619    1.3724    0.6353 N   0  0  0  0  0  0  0  0  0  0  0  0
   -0.0591    1.1228    1.2039 H   0  0  0  0  0  0  0  0  0  0  0  0
   -1.2850    2.7663    0.5871 C   0  0  0  0  0  0  0  0  0  0  0  0
   -2.3557    2.8499    0.8007 H   0  0  0  0  0  0  0  0  0  0  0  0
   -0.7387    3.3529    1.3316 H   0  0  0  0  0  0  0  0  0  0  0  0
   -1.0882    3.1916   -0.4028 H   0  0  0  0  0  0  0  0  0  0  0  0
  1  2  1  0  0  0  0
  2  3  1  0  0  0  0
  2  4  1  0  0  0  0
  2  5  1  0  0  0  0
  5  6  2  0  0  0  0
  5  7  1  0  0  0  0
  7  8  1  0  0  0  0
  7  9  1  0  0  0  0
  9 10  1  0  0  0  0
  9 11  1  0  0  0  0
  9 29  1  0  0  0  0
 11 12  1  0  0  0  0
 11 13  1  0  0  0  0
 11 14  1  0  0  0  0
 14 15  2  0  0  0  0
 14 28  1  0  0  0  0
 15 16  1  0  0  0  0
 15 17  1  0  0  0  0
 17 18  1  0  0  0  0
 17 19  1  0  0  0  0
 19 20  1  0  0  0  0
 19 28  2  0  0  0  0
 20 21  1  0  0  0  0
 20 22  2  0  0  0  0
 22 23  1  0  0  0  0
 22 24  1  0  0  0  0
 24 25  1  0  0  0  0
 24 26  2  0  0  0  0
 26 27  1  0  0  0  0
 26 28  1  0  0  0  0
 29 30  2  0  0  0  0
 29 31  1  0  0  0  0
 31 32  1  0  0  0  0
 31 33  1  0  0  0  0
 33 34  1  0  0  0  0
 33 35  1  0  0  0  0
 33 36  1  0  0  0  0
M  END
$$$$

  -OEChem-03222214083D

 36 37  0     1  0  0  0  0  0999 V2000
   -3.7535   -4.4686    1.4974 H   0  0  0  0  0  0  0  0  0  0  0  0
   -3.7383   -3.6752    0.7449 C   0  0  0  0  0  0  0  0  0  0  0  0
   -4.5178   -2.9478    0.9845 H   0  0  0  0  0  0  0  0  0  0  0  0
   -3.9463   -4.1129   -0.2344 H   0  0  0  0  0  0  0  0  0  0  0  0
   -2.3823   -2.9958    0.7290 C   0  0  0  0  0  0  0  0  0  0  0  0
   -1.4844   -3.4034    1.4490 O   0  0  0  0  0  0  0  0  0  0  0  0
   -2.1682   -1.9130   -0.0957 N   0  0  0  0  0  0  0  0  0  0  0  0
   -2.9810   -1.5210   -0.5703 H   0  0  0  0  0  0  0  0  0  0  0  0
   -0.9717   -1.0579   -0.0462 C   0  0  1  0  0  0  0  0  0  0  0  0
   -0.4773   -1.1743    0.9236 H   0  0  0  0  0  0  0  0  0  0  0  0
    0.0387   -1.4899   -1.1357 C   0  0  0  0  0  0  0  0  0  0  0  0
    0.8308   -2.0744   -0.6570 H   0  0  0  0  0  0  0  0  0  0  0  0
   -0.4570   -2.1554   -1.8497 H   0  0  0  0  0  0  0  0  0  0  0  0
    0.6563   -0.3601   -1.9241 C   0  0  0  0  0  0  0  0  0  0  0  0
    1.9417    0.1012   -1.7660 C   0  0  0  0  0  0  0  0  0  0  0  0
    2.6630   -0.2730   -1.0428 H   0  0  0  0  0  0  0  0  0  0  0  0
    2.1480    1.1137   -2.6996 N   0  0  0  0  0  0  0  0  0  0  0  0
    3.0141    1.6331   -2.8264 H   0  0  0  0  0  0  0  0  0  0  0  0
    1.0143    1.2905   -3.4754 C   0  0  0  0  0  0  0  0  0  0  0  0
    0.7422    2.1577   -4.5334 C   0  0  0  0  0  0  0  0  0  0  0  0
    1.4956    2.8594   -4.8729 H   0  0  0  0  0  0  0  0  0  0  0  0
   -0.5159    2.1087   -5.1501 C   0  0  0  0  0  0  0  0  0  0  0  0
   -0.7439    2.7796   -5.9729 H   0  0  0  0  0  0  0  0  0  0  0  0
   -1.4826    1.1948   -4.7037 C   0  0  0  0  0  0  0  0  0  0  0  0
   -2.4588    1.1609   -5.1777 H   0  0  0  0  0  0  0  0  0  0  0  0
   -1.1961    0.3277   -3.6397 C   0  0  0  0  0  0  0  0  0  0  0  0
   -1.9448   -0.3716   -3.2819 H   0  0  0  0  0  0  0  0  0  0  0  0
    0.0598    0.3846   -3.0275 C   0  0  0  0  0  0  0  0  0  0  0  0
   -1.4197    0.4212   -0.1162 C   0  0  0  0  0  0  0  0  0  0  0  0
   -2.4472    0.7142   -0.7231 O   0  0  0  0  0  0  0  0  0  0  0  0
   -0.8644    1.3605    0.7345 N   0  0  0  0  0  0  0  0  0  0  0  0
   -0.0135    1.0986    1.2222 H   0  0  0  0  0  0  0  0  0  0  0  0
   -1.2788    2.7579    0.7500 C   0  0  0  0  0  0  0  0  0  0  0  0
   -2.3442    2.8405    0.9893 H   0  0  0  0  0  0  0  0  0  0  0  0
   -0.7135    3.3117    1.5055 H   0  0  0  0  0  0  0  0  0  0  0  0
   -1.0995    3.2203   -0.2265 H   0  0  0  0  0  0  0  0  0  0  0  0
  1  2  1  0  0  0  0
  2  3  1  0  0  0  0
  2  4  1  0  0  0  0
  2  5  1  0  0  0  0
  5  6  2  0  0  0  0
  5  7  1  0  0  0  0
  7  8  1  0  0  0  0
  7  9  1  0  0  0  0
  9 10  1  0  0  0  0
  9 11  1  0  0  0  0
  9 29  1  0  0  0  0
 11 12  1  0  0  0  0
 11 13  1  0  0  0  0
 11 14  1  0  0  0  0
 14 15  2  0  0  0  0
 14 28  1  0  0  0  0
 15 16  1  0  0  0  0
 15 17  1  0  0  0  0
 17 18  1  0  0  0  0
 17 19  1  0  0  0  0
 19 20  1  0  0  0  0
 19 28  2  0  0  0  0
 20 21  1  0  0  0  0
 20 22  2  0  0  0  0
 22 23  1  0  0  0  0
 22 24  1  0  0  0  0
 24 25  1  0  0  0  0
 24 26  2  0  0  0  0
 26 27  1  0  0  0  0
 26 28  1  0  0  0  0
 29 30  2  0  0  0  0
 29 31  1  0  0  0  0
 31 32  1  0  0  0  0
 31 33  1  0  0  0  0
 33 34  1  0  0  0  0
 33 35  1  0  0  0  0
 33 36  1  0  0  0  0
M  END
$$$$

  -OEChem-03222214083D

 36 37  0     1  0  0  0  0  0999 V2000
   -3.7013   -4.5224    1.4734 H   0  0  0  0  0  0  0  0  0  0  0  0
   -3.7216   -3.6993    0.7537 C   0  0  0  0  0  0  0  0  0  0  0  0
   -4.4914   -2.9855    1.0575 H   0  0  0  0  0  0  0  0  0  0  0  0
   -3.9732   -4.0986   -0.2318 H   0  0  0  0  0  0  0  0  0  0  0  0
   -2.3689   -3.0140    0.7042 C   0  0  0  0  0  0  0  0  0  0  0  0
   -1.4322   -3.4595    1.3484 O   0  0  0  0  0  0  0  0  0  0  0  0
   -2.2018   -1.8839   -0.0664 N   0  0  0  0  0  0  0  0  0  0  0  0
   -3.0422   -1.4682   -0.4667 H   0  0  0  0  0  0  0  0  0  0  0  0
   -1.0105   -1.0207   -0.0220 C   0  0  1  0  0  0  0  0  0  0  0  0
   -0.4965   -1.1810    0.9313 H   0  0  0  0  0  0  0  0  0  0  0  0
   -0.0056   -1.4105   -1.1339 C   0  0  0  0  0  0  0  0  0  0  0  0
    0.7927   -2.0087   -0.6830 H   0  0  0  0  0  0  0  0  0  0  0  0
   -0.5139   -2.0582   -1.8555 H   0  0  0  0  0  0  0  0  0  0  0  0
    0.6017   -0.2696   -1.9186 C   0  0  0  0  0  0  0  0  0  0  0  0
    1.9516   -0.0115   -1.9703 C   0  0  0  0  0  0  0  0  0  0  0  0
    2.7173   -0.5453   -1.4118 H   0  0  0  0  0  0  0  0  0  0  0  0
    2.1560    1.0393   -2.8595 N   0  0  0  0  0  0  0  0  0  0  0  0
    3.0593    1.4407   -3.1021 H   0  0  0  0  0  0  0  0  0  0  0  0
    0.9562    1.4182   -3.4358 C   0  0  0  0  0  0  0  0  0  0  0  0
    0.6633    2.3818   -4.4011 C   0  0  0  0  0  0  0  0  0  0  0  0
    1.4507    3.0050   -4.8100 H   0  0  0  0  0  0  0  0  0  0  0  0
   -0.6598    2.5280   -4.8390 C   0  0  0  0  0  0  0  0  0  0  0  0
   -0.9059    3.2755   -5.5871 H   0  0  0  0  0  0  0  0  0  0  0  0
   -1.6663    1.7030   -4.3163 C   0  0  0  0  0  0  0  0  0  0  0  0
   -2.6908    1.8111   -4.6585 H   0  0  0  0  0  0  0  0  0  0  0  0
   -1.3571    0.7381   -3.3478 C   0  0  0  0  0  0  0  0  0  0  0  0
   -2.1371    0.0997   -2.9464 H   0  0  0  0  0  0  0  0  0  0  0  0
   -0.0396    0.6118   -2.8940 C   0  0  0  0  0  0  0  0  0  0  0  0
   -1.4499    0.4612    0.0136 C   0  0  0  0  0  0  0  0  0  0  0  0
   -2.5294    0.7819   -0.4784 O   0  0  0  0  0  0  0  0  0  0  0  0
   -0.8460    1.3434    0.8917 N   0  0  0  0  0  0  0  0  0  0  0  0
    0.0479    1.0635    1.2834 H   0  0  0  0  0  0  0  0  0  0  0  0
   -1.2623    2.7337    1.0272 C   0  0  0  0  0  0  0  0  0  0  0  0
   -2.3067    2.7919    1.3513 H   0  0  0  0  0  0  0  0  0  0  0  0
   -0.6424    3.2431    1.7712 H   0  0  0  0  0  0  0  0  0  0  0  0
   -1.1588    3.2576    0.0710 H   0  0  0  0  0  0  0  0  0  0  0  0
  1  2  1  0  0  0  0
  2  3  1  0  0  0  0
  2  4  1  0  0  0  0
  2  5  1  0  0  0  0
  5  6  2  0  0  0  0
  5  7  1  0  0  0  0
  7  8  1  0  0  0  0
  7  9  1  0  0  0  0
  9 10  1  0  0  0  0
  9 11  1  0  0  0  0
  9 29  1  0  0  0  0
 11 12  1  0  0  0  0
 11 13  1  0  0  0  0
 11 14  1  0  0  0  0
 14 15  2  0  0  0  0
 14 28  1  0  0  0  0
 15 16  1  0  0  0  0
 15 17  1  0  0  0  0
 17 18  1  0  0  0  0
 17 19  1  0  0  0  0
 19 20  1  0  0  0  0
 19 28  2  0  0  0  0
 20 21  1  0  0  0  0
 20 22  2  0  0  0  0
 22 23  1  0  0  0  0
 22 24  1  0  0  0  0
 24 25  1  0  0  0  0
 24 26  2  0  0  0  0
 26 27  1  0  0  0  0
 26 28  1  0  0  0  0
 29 30  2  0  0  0  0
 29 31  1  0  0  0  0
 31 32  1  0  0  0  0
 31 33  1  0  0  0  0
 33 34  1  0  0  0  0
 33 35  1  0  0  0  0
 33 36  1  0  0  0  0
M  END
$$$$

  -OEChem-03222214083D

 36 37  0     1  0  0  0  0  0999 V2000
   -3.5892   -4.5855    1.4747 H   0  0  0  0  0  0  0  0  0  0  0  0
   -3.6631   -3.7191    0.8114 C   0  0  0  0  0  0  0  0  0  0  0  0
   -4.4146   -3.0336    1.2109 H   0  0  0  0  0  0  0  0  0  0  0  0
   -3.9779   -4.0581   -0.1785 H   0  0  0  0  0  0  0  0  0  0  0  0
   -2.3210   -3.0190    0.7145 C   0  0  0  0  0  0  0  0  0  0  0  0
   -1.3394   -3.5003    1.2584 O   0  0  0  0  0  0  0  0  0  0  0  0
   -2.2129   -1.8401    0.0087 N   0  0  0  0  0  0  0  0  0  0  0  0
   -3.0815   -1.4077   -0.3034 H   0  0  0  0  0  0  0  0  0  0  0  0
   -1.0270   -0.9687    0.0290 C   0  0  1  0  0  0  0  0  0  0  0  0
   -0.4804   -1.1794    0.9540 H   0  0  0  0  0  0  0  0  0  0  0  0
   -0.0424   -1.3213   -1.1137 C   0  0  0  0  0  0  0  0  0  0  0  0
    0.7650   -1.9309   -0.6949 H   0  0  0  0  0  0  0  0  0  0  0  0
   -0.5724   -1.9557   -1.8312 H   0  0  0  0  0  0  0  0  0  0  0  0
    0.5499   -0.1800   -1.9141 C   0  0  0  0  0  0  0  0  0  0  0  0
    1.8906   -0.1237   -2.2195 C   0  0  0  0  0  0  0  0  0  0  0  0
    2.6495   -0.8060   -1.8418 H   0  0  0  0  0  0  0  0  0  0  0  0
    2.1018    0.9524   -3.0738 N   0  0  0  0  0  0  0  0  0  0  0  0
    3.0007    1.2319   -3.4612 H   0  0  0  0  0  0  0  0  0  0  0  0
    0.8928    1.5238   -3.4223 C   0  0  0  0  0  0  0  0  0  0  0  0
    0.6021    2.5658   -4.3027 C   0  0  0  0  0  0  0  0  0  0  0  0
    1.4023    3.0988   -4.8041 H   0  0  0  0  0  0  0  0  0  0  0  0
   -0.7362    2.9013   -4.5422 C   0  0  0  0  0  0  0  0  0  0  0  0
   -0.9823    3.7107   -5.2229 H   0  0  0  0  0  0  0  0  0  0  0  0
   -1.7597    2.1754   -3.9177 C   0  0  0  0  0  0  0  0  0  0  0  0
   -2.7993    2.4187   -4.1157 H   0  0  0  0  0  0  0  0  0  0  0  0
   -1.4493    1.1284   -3.0385 C   0  0  0  0  0  0  0  0  0  0  0  0
   -2.2508    0.5552   -2.5872 H   0  0  0  0  0  0  0  0  0  0  0  0
   -0.1113    0.8246   -2.7572 C   0  0  0  0  0  0  0  0  0  0  0  0
   -1.4391    0.5117    0.1876 C   0  0  0  0  0  0  0  0  0  0  0  0
   -2.5621    0.8633   -0.1653 O   0  0  0  0  0  0  0  0  0  0  0  0
   -0.7599    1.3259    1.0764 N   0  0  0  0  0  0  0  0  0  0  0  0
    0.1657    1.0212    1.3623 H   0  0  0  0  0  0  0  0  0  0  0  0
   -1.1529    2.7032    1.3478 C   0  0  0  0  0  0  0  0  0  0  0  0
   -2.1597    2.7383    1.7769 H   0  0  0  0  0  0  0  0  0  0  0  0
   -0.4595    3.1606    2.0599 H   0  0  0  0  0  0  0  0  0  0  0  0
   -1.1411    3.2924    0.4245 H   0  0  0  0  0  0  0  0  0  0  0  0
  1  2  1  0  0  0  0
  2  3  1  0  0  0  0
  2  4  1  0  0  0  0
  2  5  1  0  0  0  0
  5  6  2  0  0  0  0
  5  7  1  0  0  0  0
  7  8  1  0  0  0  0
  7  9  1  0  0  0  0
  9 10  1  0  0  0  0
  9 11  1  0  0  0  0
  9 29  1  0  0  0  0
 11 12  1  0  0  0  0
 11 13  1  0  0  0  0
 11 14  1  0  0  0  0
 14 15  2  0  0  0  0
 14 28  1  0  0  0  0
 15 16  1  0  0  0  0
 15 17  1  0  0  0  0
 17 18  1  0  0  0  0
 17 19  1  0  0  0  0
 19 20  1  0  0  0  0
 19 28  2  0  0  0  0
 20 21  1  0  0  0  0
 20 22  2  0  0  0  0
 22 23  1  0  0  0  0
 22 24  1  0  0  0  0
 24 25  1  0  0  0  0
 24 26  2  0  0  0  0
 26 27  1  0  0  0  0
 26 28  1  0  0  0  0
 29 30  2  0  0  0  0
 29 31  1  0  0  0  0
 31 32  1  0  0  0  0
 31 33  1  0  0  0  0
 33 34  1  0  0  0  0
 33 35  1  0  0  0  0
 33 36  1  0  0  0  0
M  END
$$$$

  -OEChem-03222214083D

 36 37  0     1  0  0  0  0  0999 V2000
   -3.5965   -4.8254    0.9412 H   0  0  0  0  0  0  0  0  0  0  0  0
   -3.6942   -3.8678    0.4221 C   0  0  0  0  0  0  0  0  0  0  0  0
   -4.4705   -3.2773    0.9147 H   0  0  0  0  0  0  0  0  0  0  0  0
   -3.9904   -4.0566   -0.6126 H   0  0  0  0  0  0  0  0  0  0  0  0
   -2.3757   -3.1186    0.4534 C   0  0  0  0  0  0  0  0  0  0  0  0
   -1.3976   -3.6222    0.9835 O   0  0  0  0  0  0  0  0  0  0  0  0
   -2.2833   -1.8729   -0.1293 N   0  0  0  0  0  0  0  0  0  0  0  0
   -3.1545   -1.4410   -0.4344 H   0  0  0  0  0  0  0  0  0  0  0  0
   -1.1292   -0.9707    0.0171 C   0  0  1  0  0  0  0  0  0  0  0  0
   -0.6397   -1.2479    0.9566 H   0  0  0  0  0  0  0  0  0  0  0  0
   -0.0480   -1.2339   -1.0621 C   0  0  0  0  0  0  0  0  0  0  0  0
    0.7371   -1.8472   -0.6072 H   0  0  0  0  0  0  0  0  0  0  0  0
   -0.5111   -1.8507   -1.8390 H   0  0  0  0  0  0  0  0  0  0  0  0
    0.5982   -0.0721   -1.7948 C   0  0  0  0  0  0  0  0  0  0  0  0
    1.8980   -0.1898   -2.2346 C   0  0  0  0  0  0  0  0  0  0  0  0
    2.5634   -1.0190   -2.0036 H   0  0  0  0  0  0  0  0  0  0  0  0
    2.2216    0.9343   -2.9817 N   0  0  0  0  0  0  0  0  0  0  0  0
    3.1232    1.1153   -3.4183 H   0  0  0  0  0  0  0  0  0  0  0  0
    1.0980    1.7139   -3.1621 C   0  0  0  0  0  0  0  0  0  0  0  0
    0.9317    2.8761   -3.9149 C   0  0  0  0  0  0  0  0  0  0  0  0
    1.7795    3.3335   -4.4125 H   0  0  0  0  0  0  0  0  0  0  0  0
   -0.3476    3.4279   -4.0386 C   0  0  0  0  0  0  0  0  0  0  0  0
   -0.4988    4.3320   -4.6208 H   0  0  0  0  0  0  0  0  0  0  0  0
   -1.4394    2.7883   -3.4389 C   0  0  0  0  0  0  0  0  0  0  0  0
   -2.4404    3.1905   -3.5630 H   0  0  0  0  0  0  0  0  0  0  0  0
   -1.2508    1.6179   -2.6903 C   0  0  0  0  0  0  0  0  0  0  0  0
   -2.1199    1.1112   -2.2939 H   0  0  0  0  0  0  0  0  0  0  0  0
    0.0376    1.0994   -2.4959 C   0  0  0  0  0  0  0  0  0  0  0  0
   -1.5709    0.4801    0.3044 C   0  0  0  0  0  0  0  0  0  0  0  0
   -2.7070    0.8284   -0.0078 O   0  0  0  0  0  0  0  0  0  0  0  0
   -0.9321    1.2135    1.2888 N   0  0  0  0  0  0  0  0  0  0  0  0
   -0.0013    0.9092    1.5588 H   0  0  0  0  0  0  0  0  0  0  0  0
   -1.3913    2.5251    1.7297 C   0  0  0  0  0  0  0  0  0  0  0  0
   -2.3719    2.4458    2.2104 H   0  0  0  0  0  0  0  0  0  0  0  0
   -0.6865    2.9489    2.4514 H   0  0  0  0  0  0  0  0  0  0  0  0
   -1.4689    3.2104    0.8787 H   0  0  0  0  0  0  0  0  0  0  0  0
  1  2  1  0  0  0  0
  2  3  1  0  0  0  0
  2  4  1  0  0  0  0
  2  5  1  0  0  0  0
  5  6  2  0  0  0  0
  5  7  1  0  0  0  0
  7  8  1  0  0  0  0
  7  9  1  0  0  0  0
  9 10  1  0  0  0  0
  9 11  1  0  0  0  0
  9 29  1  0  0  0  0
 11 12  1  0  0  0  0
 11 13  1  0  0  0  0
 11 14  1  0  0  0  0
 14 15  2  0  0  0  0
 14 28  1  0  0  0  0
 15 16  1  0  0  0  0
 15 17  1  0  0  0  0
 17 18  1  0  0  0  0
 17 19  1  0  0  0  0
 19 20  1  0  0  0  0
 19 28  2  0  0  0  0
 20 21  1  0  0  0  0
 20 22  2  0  0  0  0
 22 23  1  0  0  0  0
 22 24  1  0  0  0  0
 24 25  1  0  0  0  0
 24 26  2  0  0  0  0
 26 27  1  0  0  0  0
 26 28  1  0  0  0  0
 29 30  2  0  0  0  0
 29 31  1  0  0  0  0
 31 32  1  0  0  0  0
 31 33  1  0  0  0  0
 33 34  1  0  0  0  0
 33 35  1  0  0  0  0
 33 36  1  0  0  0  0
M  END
$$$$

  -OEChem-03222214083D

 36 37  0     1  0  0  0  0  0999 V2000
   -3.4472   -5.0006    0.9393 H   0  0  0  0  0  0  0  0  0  0  0  0
   -3.5941   -4.0468    0.4249 C   0  0  0  0  0  0  0  0  0  0  0  0
   -4.3987   -3.4990    0.9217 H   0  0  0  0  0  0  0  0  0  0  0  0
   -3.8823   -4.2448   -0.6102 H   0  0  0  0  0  0  0  0  0  0  0  0
   -2.3147   -3.2323    0.4588 C   0  0  0  0  0  0  0  0  0  0  0  0
   -1.3155   -3.6830    0.9966 O   0  0  0  0  0  0  0  0  0  0  0  0
   -2.2824   -1.9816   -0.1190 N   0  0  0  0  0  0  0  0  0  0  0  0
   -3.1715   -1.5938   -0.4334 H   0  0  0  0  0  0  0  0  0  0  0  0
   -1.1800   -1.0184    0.0451 C   0  0  1  0  0  0  0  0  0  0  0  0
   -0.6616   -1.2686    0.9766 H   0  0  0  0  0  0  0  0  0  0  0  0
   -0.1151   -1.1969   -1.0675 C   0  0  0  0  0  0  0  0  0  0  0  0
    0.6895   -1.7977   -0.6296 H   0  0  0  0  0  0  0  0  0  0  0  0
   -0.5791   -1.8238   -1.8363 H   0  0  0  0  0  0  0  0  0  0  0  0
    0.5306   -0.0538   -1.8505 C   0  0  0  0  0  0  0  0  0  0  0  0
    1.6705   -0.4071   -2.5414 C   0  0  0  0  0  0  0  0  0  0  0  0
    2.1336   -1.3917   -2.5191 H   0  0  0  0  0  0  0  0  0  0  0  0
    2.1509    0.6962   -3.2238 N   0  0  0  0  0  0  0  0  0  0  0  0
    2.9884    0.7184   -3.8018 H   0  0  0  0  0  0  0  0  0  0  0  0
    1.2840    1.7531   -3.0623 C   0  0  0  0  0  0  0  0  0  0  0  0
    1.3777    3.0266   -3.6225 C   0  0  0  0  0  0  0  0  0  0  0  0
    2.2312    3.2976   -4.2339 H   0  0  0  0  0  0  0  0  0  0  0  0
    0.3485    3.9426   -3.3988 C   0  0  0  0  0  0  0  0  0  0  0  0
    0.3995    4.9400   -3.8257 H   0  0  0  0  0  0  0  0  0  0  0  0
   -0.7629    3.5553   -2.6455 C   0  0  0  0  0  0  0  0  0  0  0  0
   -1.5843    4.2495   -2.4956 H   0  0  0  0  0  0  0  0  0  0  0  0
   -0.8355    2.2680   -2.0951 C   0  0  0  0  0  0  0  0  0  0  0  0
   -1.7450    2.0227   -1.5756 H   0  0  0  0  0  0  0  0  0  0  0  0
    0.2148    1.3445   -2.2556 C   0  0  0  0  0  0  0  0  0  0  0  0
   -1.7506    0.3798    0.3273 C   0  0  0  0  0  0  0  0  0  0  0  0
   -2.8914    0.6425   -0.0488 O   0  0  0  0  0  0  0  0  0  0  0  0
   -1.2018    1.1651    1.3254 N   0  0  0  0  0  0  0  0  0  0  0  0
   -0.2641    0.9264    1.6362 H   0  0  0  0  0  0  0  0  0  0  0  0
   -1.7689    2.4424    1.7402 C   0  0  0  0  0  0  0  0  0  0  0  0
   -2.7709    2.3004    2.1585 H   0  0  0  0  0  0  0  0  0  0  0  0
   -1.1384    2.9042    2.5061 H   0  0  0  0  0  0  0  0  0  0  0  0
   -1.8350    3.1271    0.8881 H   0  0  0  0  0  0  0  0  0  0  0  0
  1  2  1  0  0  0  0
  2  3  1  0  0  0  0
  2  4  1  0  0  0  0
  2  5  1  0  0  0  0
  5  6  2  0  0  0  0
  5  7  1  0  0  0  0
  7  8  1  0  0  0  0
  7  9  1  0  0  0  0
  9 10  1  0  0  0  0
  9 11  1  0  0  0  0
  9 29  1  0  0  0  0
 11 12  1  0  0  0  0
 11 13  1  0  0  0  0
 11 14  1  0  0  0  0
 14 15  2  0  0  0  0
 14 28  1  0  0  0  0
 15 16  1  0  0  0  0
 15 17  1  0  0  0  0
 17 18  1  0  0  0  0
 17 19  1  0  0  0  0
 19 20  1  0  0  0  0
 19 28  2  0  0  0  0
 20 21  1  0  0  0  0
 20 22  2  0  0  0  0
 22 23  1  0  0  0  0
 22 24  1  0  0  0  0
 24 25  1  0  0  0  0
 24 26  2  0  0  0  0
 26 27  1  0  0  0  0
 26 28  1  0  0  0  0
 29 30  2  0  0  0  0
 29 31  1  0  0  0  0
 31 32  1  0  0  0  0
 31 33  1  0  0  0  0
 33 34  1  0  0  0  0
 33 35  1  0  0  0  0
 33 36  1  0  0  0  0
M  END
$$$$

  -OEChem-03222214083D

 36 37  0     1  0  0  0  0  0999 V2000
   -3.2992   -4.9666    1.0008 H   0  0  0  0  0  0  0  0  0  0  0  0
   -3.4115   -4.0543    0.4082 C   0  0  0  0  0  0  0  0  0  0  0  0
   -4.3325   -3.5493    0.7099 H   0  0  0  0  0  0  0  0  0  0  0  0
   -3.4819   -4.3262   -0.6478 H   0  0  0  0  0  0  0  0  0  0  0  0
   -2.2227   -3.1385    0.6287 C   0  0  0  0  0  0  0  0  0  0  0  0
   -1.3227   -3.4724    1.3825 O   0  0  0  0  0  0  0  0  0  0  0  0
   -2.1602   -1.9264   -0.0237 N   0  0  0  0  0  0  0  0  0  0  0  0
   -2.9816   -1.6350   -0.5533 H   0  0  0  0  0  0  0  0  0  0  0  0
   -1.1461   -0.8892    0.2371 C   0  0  1  0  0  0  0  0  0  0  0  0
   -0.6869   -1.0379    1.2198 H   0  0  0  0  0  0  0  0  0  0  0  0
   -0.0420   -1.1312   -0.8314 C   0  0  0  0  0  0  0  0  0  0  0  0
    0.6026   -1.9126   -0.4142 H   0  0  0  0  0  0  0  0  0  0  0  0
   -0.5501   -1.5757   -1.6949 H   0  0  0  0  0  0  0  0  0  0  0  0
    0.8834   -0.0945   -1.4678 C   0  0  0  0  0  0  0  0  0  0  0  0
    1.7638   -0.6334   -2.3831 C   0  0  0  0  0  0  0  0  0  0  0  0
    1.8399   -1.6915   -2.6249 H   0  0  0  0  0  0  0  0  0  0  0  0
    2.5539    0.3728   -2.9080 N   0  0  0  0  0  0  0  0  0  0  0  0
    3.2945    0.2497   -3.5950 H   0  0  0  0  0  0  0  0  0  0  0  0
    2.1556    1.5855   -2.3950 C   0  0  0  0  0  0  0  0  0  0  0  0
    2.6695    2.8467   -2.6937 C   0  0  0  0  0  0  0  0  0  0  0  0
    3.5051    2.9511   -3.3769 H   0  0  0  0  0  0  0  0  0  0  0  0
    2.0839    3.9718   -2.1106 C   0  0  0  0  0  0  0  0  0  0  0  0
    2.4666    4.9644   -2.3293 H   0  0  0  0  0  0  0  0  0  0  0  0
    0.9853    3.8106   -1.2618 C   0  0  0  0  0  0  0  0  0  0  0  0
    0.5048    4.6826   -0.8288 H   0  0  0  0  0  0  0  0  0  0  0  0
    0.4887    2.5300   -0.9783 C   0  0  0  0  0  0  0  0  0  0  0  0
   -0.3842    2.4753   -0.3596 H   0  0  0  0  0  0  0  0  0  0  0  0
    1.0860    1.3783   -1.5150 C   0  0  0  0  0  0  0  0  0  0  0  0
   -1.8790    0.4597    0.3177 C   0  0  0  0  0  0  0  0  0  0  0  0
   -2.8405    0.6917   -0.4083 O   0  0  0  0  0  0  0  0  0  0  0  0
   -1.5715    1.3426    1.3395 N   0  0  0  0  0  0  0  0  0  0  0  0
   -0.8218    1.0793    1.9737 H   0  0  0  0  0  0  0  0  0  0  0  0
   -2.3697    2.5245    1.6450 C   0  0  0  0  0  0  0  0  0  0  0  0
   -3.3707    2.2336    1.9799 H   0  0  0  0  0  0  0  0  0  0  0  0
   -1.8935    3.1068    2.4397 H   0  0  0  0  0  0  0  0  0  0  0  0
   -2.4665    3.1646    0.7617 H   0  0  0  0  0  0  0  0  0  0  0  0
  1  2  1  0  0  0  0
  2  3  1  0  0  0  0
  2  4  1  0  0  0  0
  2  5  1  0  0  0  0
  5  6  2  0  0  0  0
  5  7  1  0  0  0  0
  7  8  1  0  0  0  0
  7  9  1  0  0  0  0
  9 10  1  0  0  0  0
  9 11  1  0  0  0  0
  9 29  1  0  0  0  0
 11 12  1  0  0  0  0
 11 13  1  0  0  0  0
 11 14  1  0  0  0  0
 14 15  2  0  0  0  0
 14 28  1  0  0  0  0
 15 16  1  0  0  0  0
 15 17  1  0  0  0  0
 17 18  1  0  0  0  0
 17 19  1  0  0  0  0
 19 20  1  0  0  0  0
 19 28  2  0  0  0  0
 20 21  1  0  0  0  0
 20 22  2  0  0  0  0
 22 23  1  0  0  0  0
 22 24  1  0  0  0  0
 24 25  1  0  0  0  0
 24 26  2  0  0  0  0
 26 27  1  0  0  0  0
 26 28  1  0  0  0  0
 29 30  2  0  0  0  0
 29 31  1  0  0  0  0
 31 32  1  0  0  0  0
 31 33  1  0  0  0  0
 33 34  1  0  0  0  0
 33 35  1  0  0  0  0
 33 36  1  0  0  0  0
M  END
$$$$

  -OEChem-03222214083D

 36 37  0     1  0  0  0  0  0999 V2000
   -3.4477   -4.6520    1.5500 H   0  0  0  0  0  0  0  0  0  0  0  0
   -3.4996   -3.8844    0.7729 C   0  0  0  0  0  0  0  0  0  0  0  0
   -4.4101   -3.2976    0.9177 H   0  0  0  0  0  0  0  0  0  0  0  0
   -3.5407   -4.3733   -0.2034 H   0  0  0  0  0  0  0  0  0  0  0  0
   -2.2831   -2.9812    0.8484 C   0  0  0  0  0  0  0  0  0  0  0  0
   -1.4307   -3.1697    1.7013 O   0  0  0  0  0  0  0  0  0  0  0  0
   -2.1466   -1.9389   -0.0415 N   0  0  0  0  0  0  0  0  0  0  0  0
   -2.9394   -1.7303   -0.6492 H   0  0  0  0  0  0  0  0  0  0  0  0
   -1.1014   -0.9048    0.0453 C   0  0  1  0  0  0  0  0  0  0  0  0
   -0.6043   -0.8696    1.0194 H   0  0  0  0  0  0  0  0  0  0  0  0
   -0.0976   -1.2208   -1.0908 C   0  0  0  0  0  0  0  0  0  0  0  0
    0.6259   -1.9429   -0.6996 H   0  0  0  0  0  0  0  0  0  0  0  0
   -0.6347   -1.7149   -1.9077 H   0  0  0  0  0  0  0  0  0  0  0  0
    0.6683   -0.0700   -1.7099 C   0  0  0  0  0  0  0  0  0  0  0  0
    1.3231   -0.2123   -2.9119 C   0  0  0  0  0  0  0  0  0  0  0  0
    1.2135   -1.0604   -3.5841 H   0  0  0  0  0  0  0  0  0  0  0  0
    2.0998    0.9182   -3.1341 N   0  0  0  0  0  0  0  0  0  0  0  0
    2.6639    1.0932   -3.9630 H   0  0  0  0  0  0  0  0  0  0  0  0
    2.1088    1.7081   -2.0027 C   0  0  0  0  0  0  0  0  0  0  0  0
    2.8316    2.8655   -1.7157 C   0  0  0  0  0  0  0  0  0  0  0  0
    3.4480    3.3287   -2.4780 H   0  0  0  0  0  0  0  0  0  0  0  0
    2.7756    3.3996   -0.4231 C   0  0  0  0  0  0  0  0  0  0  0  0
    3.3360    4.2979   -0.1814 H   0  0  0  0  0  0  0  0  0  0  0  0
    2.0327    2.7455    0.5684 C   0  0  0  0  0  0  0  0  0  0  0  0
    2.0303    3.1317    1.5832 H   0  0  0  0  0  0  0  0  0  0  0  0
    1.3137    1.5823    0.2587 C   0  0  0  0  0  0  0  0  0  0  0  0
    0.8018    1.0494    1.0489 H   0  0  0  0  0  0  0  0  0  0  0  0
    1.2924    1.0942   -1.0557 C   0  0  0  0  0  0  0  0  0  0  0  0
   -1.8822    0.4164   -0.2078 C   0  0  0  0  0  0  0  0  0  0  0  0
   -2.7727    0.4352   -1.0560 O   0  0  0  0  0  0  0  0  0  0  0  0
   -1.7002    1.5522    0.5606 N   0  0  0  0  0  0  0  0  0  0  0  0
   -0.9305    1.5488    1.2204 H   0  0  0  0  0  0  0  0  0  0  0  0
   -2.3678    2.8179    0.2839 C   0  0  0  0  0  0  0  0  0  0  0  0
   -3.4553    2.6951    0.3165 H   0  0  0  0  0  0  0  0  0  0  0  0
   -2.0835    3.5649    1.0309 H   0  0  0  0  0  0  0  0  0  0  0  0
   -2.0832    3.1907   -0.7056 H   0  0  0  0  0  0  0  0  0  0  0  0
  1  2  1  0  0  0  0
  2  3  1  0  0  0  0
  2  4  1  0  0  0  0
  2  5  1  0  0  0  0
  5  6  2  0  0  0  0
  5  7  1  0  0  0  0
  7  8  1  0  0  0  0
  7  9  1  0  0  0  0
  9 10  1  0  0  0  0
  9 11  1  0  0  0  0
  9 29  1  0  0  0  0
 11 12  1  0  0  0  0
 11 13  1  0  0  0  0
 11 14  1  0  0  0  0
 14 15  2  0  0  0  0
 14 28  1  0  0  0  0
 15 16  1  0  0  0  0
 15 17  1  0  0  0  0
 17 18  1  0  0  0  0
 17 19  1  0  0  0  0
 19 20  1  0  0  0  0
 19 28  2  0  0  0  0
 20 21  1  0  0  0  0
 20 22  2  0  0  0  0
 22 23  1  0  0  0  0
 22 24  1  0  0  0  0
 24 25  1  0  0  0  0
 24 26  2  0  0  0  0
 26 27  1  0  0  0  0
 26 28  1  0  0  0  0
 29 30  2  0  0  0  0
 29 31  1  0  0  0  0
 31 32  1  0  0  0  0
 31 33  1  0  0  0  0
 33 34  1  0  0  0  0
 33 35  1  0  0  0  0
 33 36  1  0  0  0  0
M  END
$$$$

  -OEChem-03222214083D

 36 37  0     1  0  0  0  0  0999 V2000
   -3.4467   -4.6232    1.6136 H   0  0  0  0  0  0  0  0  0  0  0  0
   -3.5041   -3.8502    0.8421 C   0  0  0  0  0  0  0  0  0  0  0  0
   -4.3845   -3.2304    1.0289 H   0  0  0  0  0  0  0  0  0  0  0  0
   -3.6064   -4.3326   -0.1329 H   0  0  0  0  0  0  0  0  0  0  0  0
   -2.2525   -2.9934    0.8669 C   0  0  0  0  0  0  0  0  0  0  0  0
   -1.3639   -3.2298    1.6696 O   0  0  0  0  0  0  0  0  0  0  0  0
   -2.1224   -1.9437   -0.0156 N   0  0  0  0  0  0  0  0  0  0  0  0
   -2.9403   -1.6929   -0.5714 H   0  0  0  0  0  0  0  0  0  0  0  0
   -1.0393   -0.9485    0.0363 C   0  0  1  0  0  0  0  0  0  0  0  0
   -0.5193   -0.9521    0.9986 H   0  0  0  0  0  0  0  0  0  0  0  0
   -0.0575   -1.2704   -1.1138 C   0  0  0  0  0  0  0  0  0  0  0  0
    0.6702   -1.9984   -0.7422 H   0  0  0  0  0  0  0  0  0  0  0  0
   -0.6059   -1.7489   -1.9322 H   0  0  0  0  0  0  0  0  0  0  0  0
    0.6909   -0.0906   -1.6924 C   0  0  0  0  0  0  0  0  0  0  0  0
    1.1001   -0.0168   -3.0028 C   0  0  0  0  0  0  0  0  0  0  0  0
    0.8204   -0.7166   -3.7873 H   0  0  0  0  0  0  0  0  0  0  0  0
    1.9000    1.1124   -3.1464 N   0  0  0  0  0  0  0  0  0  0  0  0
    2.3226    1.4278   -4.0171 H   0  0  0  0  0  0  0  0  0  0  0  0
    2.1277    1.6933   -1.9126 C   0  0  0  0  0  0  0  0  0  0  0  0
    2.9235    2.7782   -1.5451 C   0  0  0  0  0  0  0  0  0  0  0  0
    3.4443    3.3556   -2.3010 H   0  0  0  0  0  0  0  0  0  0  0  0
    3.0595    3.0949   -0.1873 C   0  0  0  0  0  0  0  0  0  0  0  0
    3.6804    3.9330    0.1155 H   0  0  0  0  0  0  0  0  0  0  0  0
    2.4215    2.3085    0.7822 C   0  0  0  0  0  0  0  0  0  0  0  0
    2.5582    2.5341    1.8357 H   0  0  0  0  0  0  0  0  0  0  0  0
    1.6242    1.2221    0.3963 C   0  0  0  0  0  0  0  0  0  0  0  0
    1.1722    0.5938    1.1547 H   0  0  0  0  0  0  0  0  0  0  0  0
    1.4378    0.9432   -0.9649 C   0  0  0  0  0  0  0  0  0  0  0  0
   -1.7411    0.4224   -0.1591 C   0  0  0  0  0  0  0  0  0  0  0  0
   -2.6889    0.5071   -0.9381 O   0  0  0  0  0  0  0  0  0  0  0  0
   -1.4380    1.5189    0.6279 N   0  0  0  0  0  0  0  0  0  0  0  0
   -0.5775    1.4689    1.1632 H   0  0  0  0  0  0  0  0  0  0  0  0
   -2.0301    2.8325    0.4095 C   0  0  0  0  0  0  0  0  0  0  0  0
   -3.1216    2.7802    0.4822 H   0  0  0  0  0  0  0  0  0  0  0  0
   -1.6693    3.5385    1.1636 H   0  0  0  0  0  0  0  0  0  0  0  0
   -1.7590    3.2127   -0.5811 H   0  0  0  0  0  0  0  0  0  0  0  0
  1  2  1  0  0  0  0
  2  3  1  0  0  0  0
  2  4  1  0  0  0  0
  2  5  1  0  0  0  0
  5  6  2  0  0  0  0
  5  7  1  0  0  0  0
  7  8  1  0  0  0  0
  7  9  1  0  0  0  0
  9 10  1  0  0  0  0
  9 11  1  0  0  0  0
  9 29  1  0  0  0  0
 11 12  1  0  0  0  0
 11 13  1  0  0  0  0
 11 14  1  0  0  0  0
 14 15  2  0  0  0  0
 14 28  1  0  0  0  0
 15 16  1  0  0  0  0
 15 17  1  0  0  0  0
 17 18  1  0  0  0  0
 17 19  1  0  0  0  0
 19 20  1  0  0  0  0
 19 28  2  0  0  0  0
 20 21  1  0  0  0  0
 20 22  2  0  0  0  0
 22 23  1  0  0  0  0
 22 24  1  0  0  0  0
 24 25  1  0  0  0  0
 24 26  2  0  0  0  0
 26 27  1  0  0  0  0
 26 28  1  0  0  0  0
 29 30  2  0  0  0  0
 29 31  1  0  0  0  0
 31 32  1  0  0  0  0
 31 33  1  0  0  0  0
 33 34  1  0  0  0  0
 33 35  1  0  0  0  0
 33 36  1  0  0  0  0
M  END
$$$$

  -OEChem-03222214083D

 36 37  0     1  0  0  0  0  0999 V2000
   -3.5639   -4.5466    1.6007 H   0  0  0  0  0  0  0  0  0  0  0  0
   -3.5866   -3.7726    0.8285 C   0  0  0  0  0  0  0  0  0  0  0  0
   -4.4359   -3.1116    1.0172 H   0  0  0  0  0  0  0  0  0  0  0  0
   -3.7148   -4.2508   -0.1455 H   0  0  0  0  0  0  0  0  0  0  0  0
   -2.2958   -2.9758    0.8488 C   0  0  0  0  0  0  0  0  0  0  0  0
   -1.4199   -3.2500    1.6536 O   0  0  0  0  0  0  0  0  0  0  0  0
   -2.1167   -1.9370   -0.0385 N   0  0  0  0  0  0  0  0  0  0  0  0
   -2.9214   -1.6535   -0.5973 H   0  0  0  0  0  0  0  0  0  0  0  0
   -0.9916   -0.9899    0.0115 C   0  0  1  0  0  0  0  0  0  0  0  0
   -0.4924   -1.0122    0.9845 H   0  0  0  0  0  0  0  0  0  0  0  0
    0.0142   -1.3589   -1.1014 C   0  0  0  0  0  0  0  0  0  0  0  0
    0.7134   -2.1026   -0.7066 H   0  0  0  0  0  0  0  0  0  0  0  0
   -0.5223   -1.8252   -1.9342 H   0  0  0  0  0  0  0  0  0  0  0  0
    0.7933   -0.1843   -1.6440 C   0  0  0  0  0  0  0  0  0  0  0  0
    1.0195    0.0744   -2.9741 C   0  0  0  0  0  0  0  0  0  0  0  0
    0.5986   -0.4860   -3.8061 H   0  0  0  0  0  0  0  0  0  0  0  0
    1.8530    1.1869   -3.0553 N   0  0  0  0  0  0  0  0  0  0  0  0
    2.1703    1.6215   -3.9193 H   0  0  0  0  0  0  0  0  0  0  0  0
    2.2352    1.5957   -1.7890 C   0  0  0  0  0  0  0  0  0  0  0  0
    3.0846    2.6177   -1.3660 C   0  0  0  0  0  0  0  0  0  0  0  0
    3.5479    3.2782   -2.0906 H   0  0  0  0  0  0  0  0  0  0  0  0
    3.3419    2.7687    0.0034 C   0  0  0  0  0  0  0  0  0  0  0  0
    4.0042    3.5581    0.3466 H   0  0  0  0  0  0  0  0  0  0  0  0
    2.7636    1.8870    0.9284 C   0  0  0  0  0  0  0  0  0  0  0  0
    2.9857    1.9913    1.9864 H   0  0  0  0  0  0  0  0  0  0  0  0
    1.9124    0.8632    0.4901 C   0  0  0  0  0  0  0  0  0  0  0  0
    1.4926    0.1646    1.2057 H   0  0  0  0  0  0  0  0  0  0  0  0
    1.6260    0.7420   -0.8761 C   0  0  0  0  0  0  0  0  0  0  0  0
   -1.5977    0.4228   -0.1904 C   0  0  0  0  0  0  0  0  0  0  0  0
   -2.5437    0.5673   -0.9622 O   0  0  0  0  0  0  0  0  0  0  0  0
   -1.2147    1.4897    0.6024 N   0  0  0  0  0  0  0  0  0  0  0  0
   -0.3357    1.3830    1.1001 H   0  0  0  0  0  0  0  0  0  0  0  0
   -1.7112    2.8423    0.3857 C   0  0  0  0  0  0  0  0  0  0  0  0
   -2.8035    2.8683    0.4587 H   0  0  0  0  0  0  0  0  0  0  0  0
   -1.3007    3.5196    1.1406 H   0  0  0  0  0  0  0  0  0  0  0  0
   -1.4138    3.2038   -0.6043 H   0  0  0  0  0  0  0  0  0  0  0  0
  1  2  1  0  0  0  0
  2  3  1  0  0  0  0
  2  4  1  0  0  0  0
  2  5  1  0  0  0  0
  5  6  2  0  0  0  0
  5  7  1  0  0  0  0
  7  8  1  0  0  0  0
  7  9  1  0  0  0  0
  9 10  1  0  0  0  0
  9 11  1  0  0  0  0
  9 29  1  0  0  0  0
 11 12  1  0  0  0  0
 11 13  1  0  0  0  0
 11 14  1  0  0  0  0
 14 15  2  0  0  0  0
 14 28  1  0  0  0  0
 15 16  1  0  0  0  0
 15 17  1  0  0  0  0
 17 18  1  0  0  0  0
 17 19  1  0  0  0  0
 19 20  1  0  0  0  0
 19 28  2  0  0  0  0
 20 21  1  0  0  0  0
 20 22  2  0  0  0  0
 22 23  1  0  0  0  0
 22 24  1  0  0  0  0
 24 25  1  0  0  0  0
 24 26  2  0  0  0  0
 26 27  1  0  0  0  0
 26 28  1  0  0  0  0
 29 30  2  0  0  0  0
 29 31  1  0  0  0  0
 31 32  1  0  0  0  0
 31 33  1  0  0  0  0
 33 34  1  0  0  0  0
 33 35  1  0  0  0  0
 33 36  1  0  0  0  0
M  END
$$$$

  -OEChem-03222214083D

 36 37  0     1  0  0  0  0  0999 V2000
   -3.6210   -4.4995    1.5988 H   0  0  0  0  0  0  0  0  0  0  0  0
   -3.6230   -3.7261    0.8257 C   0  0  0  0  0  0  0  0  0  0  0  0
   -4.4499   -3.0383    1.0177 H   0  0  0  0  0  0  0  0  0  0  0  0
   -3.7712   -4.2010   -0.1471 H   0  0  0  0  0  0  0  0  0  0  0  0
   -2.3072   -2.9712    0.8378 C   0  0  0  0  0  0  0  0  0  0  0  0
   -1.4271   -3.2867    1.6225 O   0  0  0  0  0  0  0  0  0  0  0  0
   -2.1079   -1.9293   -0.0413 N   0  0  0  0  0  0  0  0  0  0  0  0
   -2.9120   -1.6127   -0.5822 H   0  0  0  0  0  0  0  0  0  0  0  0
   -0.9453   -1.0287   -0.0095 C   0  0  1  0  0  0  0  0  0  0  0  0
   -0.4348   -1.0818    0.9569 H   0  0  0  0  0  0  0  0  0  0  0  0
    0.0418   -1.4362   -1.1241 C   0  0  0  0  0  0  0  0  0  0  0  0
    0.7192   -2.2062   -0.7416 H   0  0  0  0  0  0  0  0  0  0  0  0
   -0.5170   -1.8760   -1.9566 H   0  0  0  0  0  0  0  0  0  0  0  0
    0.8425   -0.2737   -1.6559 C   0  0  0  0  0  0  0  0  0  0  0  0
    0.8572    0.1812   -2.9516 C   0  0  0  0  0  0  0  0  0  0  0  0
    0.2685   -0.2252   -3.7713 H   0  0  0  0  0  0  0  0  0  0  0  0
    1.7297    1.2661   -3.0054 N   0  0  0  0  0  0  0  0  0  0  0  0
    1.9244    1.8213   -3.8360 H   0  0  0  0  0  0  0  0  0  0  0  0
    2.3029    1.4895   -1.7638 C   0  0  0  0  0  0  0  0  0  0  0  0
    3.2277    2.4358   -1.3226 C   0  0  0  0  0  0  0  0  0  0  0  0
    3.6154    3.1820   -2.0074 H   0  0  0  0  0  0  0  0  0  0  0  0
    3.6527    2.4046    0.0132 C   0  0  0  0  0  0  0  0  0  0  0  0
    4.3745    3.1340    0.3692 H   0  0  0  0  0  0  0  0  0  0  0  0
    3.1577    1.4244    0.8871 C   0  0  0  0  0  0  0  0  0  0  0  0
    3.5022    1.3942    1.9167 H   0  0  0  0  0  0  0  0  0  0  0  0
    2.2283    0.4784    0.4328 C   0  0  0  0  0  0  0  0  0  0  0  0
    1.8584   -0.2920    1.1015 H   0  0  0  0  0  0  0  0  0  0  0  0
    1.7931    0.5309   -0.8963 C   0  0  0  0  0  0  0  0  0  0  0  0
   -1.4674    0.4191   -0.1777 C   0  0  0  0  0  0  0  0  0  0  0  0
   -2.4163    0.6354   -0.9284 O   0  0  0  0  0  0  0  0  0  0  0  0
   -0.9934    1.4411    0.6250 N   0  0  0  0  0  0  0  0  0  0  0  0
   -0.1115    1.2614    1.0972 H   0  0  0  0  0  0  0  0  0  0  0  0
   -1.3865    2.8301    0.4301 C   0  0  0  0  0  0  0  0  0  0  0  0
   -2.4741    2.9367    0.4996 H   0  0  0  0  0  0  0  0  0  0  0  0
   -0.9301    3.4618    1.1979 H   0  0  0  0  0  0  0  0  0  0  0  0
   -1.0581    3.1843   -0.5526 H   0  0  0  0  0  0  0  0  0  0  0  0
  1  2  1  0  0  0  0
  2  3  1  0  0  0  0
  2  4  1  0  0  0  0
  2  5  1  0  0  0  0
  5  6  2  0  0  0  0
  5  7  1  0  0  0  0
  7  8  1  0  0  0  0
  7  9  1  0  0  0  0
  9 10  1  0  0  0  0
  9 11  1  0  0  0  0
  9 29  1  0  0  0  0
 11 12  1  0  0  0  0
 11 13  1  0  0  0  0
 11 14  1  0  0  0  0
 14 15  2  0  0  0  0
 14 28  1  0  0  0  0
 15 16  1  0  0  0  0
 15 17  1  0  0  0  0
 17 18  1  0  0  0  0
 17 19  1  0  0  0  0
 19 20  1  0  0  0  0
 19 28  2  0  0  0  0
 20 21  1  0  0  0  0
 20 22  2  0  0  0  0
 22 23  1  0  0  0  0
 22 24  1  0  0  0  0
 24 25  1  0  0  0  0
 24 26  2  0  0  0  0
 26 27  1  0  0  0  0
 26 28  1  0  0  0  0
 29 30  2  0  0  0  0
 29 31  1  0  0  0  0
 31 32  1  0  0  0  0
 31 33  1  0  0  0  0
 33 34  1  0  0  0  0
 33 35  1  0  0  0  0
 33 36  1  0  0  0  0
M  END
$$$$

  -OEChem-03222214083D

 36 37  0     1  0  0  0  0  0999 V2000
   -3.6330   -4.4775    1.6093 H   0  0  0  0  0  0  0  0  0  0  0  0
   -3.6319   -3.7056    0.8346 C   0  0  0  0  0  0  0  0  0  0  0  0
   -4.4396   -2.9991    1.0406 H   0  0  0  0  0  0  0  0  0  0  0  0
   -3.8087   -4.1784   -0.1344 H   0  0  0  0  0  0  0  0  0  0  0  0
   -2.2991   -2.9811    0.8204 C   0  0  0  0  0  0  0  0  0  0  0  0
   -1.4073   -3.3263    1.5789 O   0  0  0  0  0  0  0  0  0  0  0  0
   -2.0972   -1.9331   -0.0514 N   0  0  0  0  0  0  0  0  0  0  0  0
   -2.9044   -1.5976   -0.5755 H   0  0  0  0  0  0  0  0  0  0  0  0
   -0.9140   -1.0592   -0.0373 C   0  0  1  0  0  0  0  0  0  0  0  0
   -0.3876   -1.1349    0.9194 H   0  0  0  0  0  0  0  0  0  0  0  0
    0.0525   -1.4798   -1.1638 C   0  0  0  0  0  0  0  0  0  0  0  0
    0.7194   -2.2694   -0.8038 H   0  0  0  0  0  0  0  0  0  0  0  0
   -0.5274   -1.8953   -1.9943 H   0  0  0  0  0  0  0  0  0  0  0  0
    0.8603   -0.3217   -1.6910 C   0  0  0  0  0  0  0  0  0  0  0  0
    0.6780    0.3350   -2.8835 C   0  0  0  0  0  0  0  0  0  0  0  0
   -0.0806    0.0969   -3.6266 H   0  0  0  0  0  0  0  0  0  0  0  0
    1.6118    1.3683   -2.9378 N   0  0  0  0  0  0  0  0  0  0  0  0
    1.7045    2.0343   -3.7019 H   0  0  0  0  0  0  0  0  0  0  0  0
    2.3897    1.3808   -1.7905 C   0  0  0  0  0  0  0  0  0  0  0  0
    3.4301    2.2125   -1.3759 C   0  0  0  0  0  0  0  0  0  0  0  0
    3.7612    3.0294   -2.0077 H   0  0  0  0  0  0  0  0  0  0  0  0
    4.0414    1.9767   -0.1357 C   0  0  0  0  0  0  0  0  0  0  0  0
    4.8542    2.6153    0.1980 H   0  0  0  0  0  0  0  0  0  0  0  0
    3.6092    0.9130    0.6719 C   0  0  0  0  0  0  0  0  0  0  0  0
    4.0901    0.7282    1.6279 H   0  0  0  0  0  0  0  0  0  0  0  0
    2.5630    0.0829    0.2455 C   0  0  0  0  0  0  0  0  0  0  0  0
    2.2312   -0.7472    0.8616 H   0  0  0  0  0  0  0  0  0  0  0  0
    1.9562    0.3314   -0.9898 C   0  0  0  0  0  0  0  0  0  0  0  0
   -1.3907    0.4058   -0.1753 C   0  0  0  0  0  0  0  0  0  0  0  0
   -2.3411    0.6662   -0.9098 O   0  0  0  0  0  0  0  0  0  0  0  0
   -0.8616    1.3974    0.6306 N   0  0  0  0  0  0  0  0  0  0  0  0
    0.0161    1.1753    1.0930 H   0  0  0  0  0  0  0  0  0  0  0  0
   -1.2138    2.8023    0.4750 C   0  0  0  0  0  0  0  0  0  0  0  0
   -2.2942    2.9429    0.5844 H   0  0  0  0  0  0  0  0  0  0  0  0
   -0.7107    3.4037    1.2383 H   0  0  0  0  0  0  0  0  0  0  0  0
   -0.9073    3.1649   -0.5118 H   0  0  0  0  0  0  0  0  0  0  0  0
  1  2  1  0  0  0  0
  2  3  1  0  0  0  0
  2  4  1  0  0  0  0
  2  5  1  0  0  0  0
  5  6  2  0  0  0  0
  5  7  1  0  0  0  0
  7  8  1  0  0  0  0
  7  9  1  0  0  0  0
  9 10  1  0  0  0  0
  9 11  1  0  0  0  0
  9 29  1  0  0  0  0
 11 12  1  0  0  0  0
 11 13  1  0  0  0  0
 11 14  1  0  0  0  0
 14 15  2  0  0  0  0
 14 28  1  0  0  0  0
 15 16  1  0  0  0  0
 15 17  1  0  0  0  0
 17 18  1  0  0  0  0
 17 19  1  0  0  0  0
 19 20  1  0  0  0  0
 19 28  2  0  0  0  0
 20 21  1  0  0  0  0
 20 22  2  0  0  0  0
 22 23  1  0  0  0  0
 22 24  1  0  0  0  0
 24 25  1  0  0  0  0
 24 26  2  0  0  0  0
 26 27  1  0  0  0  0
 26 28  1  0  0  0  0
 29 30  2  0  0  0  0
 29 31  1  0  0  0  0
 31 32  1  0  0  0  0
 31 33  1  0  0  0  0
 33 34  1  0  0  0  0
 33 35  1  0  0  0  0
 33 36  1  0  0  0  0
M  END
$$$$

  -OEChem-03222214083D

 36 37  0     1  0  0  0  0  0999 V2000
   -3.6421   -4.5023    1.5642 H   0  0  0  0  0  0  0  0  0  0  0  0
   -3.6378   -3.7213    0.7987 C   0  0  0  0  0  0  0  0  0  0  0  0
   -4.4480   -3.0188    1.0085 H   0  0  0  0  0  0  0  0  0  0  0  0
   -3.8081   -4.1829   -0.1768 H   0  0  0  0  0  0  0  0  0  0  0  0
   -2.3063   -2.9940    0.8009 C   0  0  0  0  0  0  0  0  0  0  0  0
   -1.4174   -3.3467    1.5592 O   0  0  0  0  0  0  0  0  0  0  0  0
   -2.1029   -1.9349   -0.0571 N   0  0  0  0  0  0  0  0  0  0  0  0
   -2.9071   -1.5987   -0.5851 H   0  0  0  0  0  0  0  0  0  0  0  0
   -0.9177   -1.0638   -0.0355 C   0  0  1  0  0  0  0  0  0  0  0  0
   -0.3896   -1.1520    0.9196 H   0  0  0  0  0  0  0  0  0  0  0  0
    0.0475   -1.4835   -1.1633 C   0  0  0  0  0  0  0  0  0  0  0  0
    0.7044   -2.2856   -0.8125 H   0  0  0  0  0  0  0  0  0  0  0  0
   -0.5378   -1.8859   -1.9963 H   0  0  0  0  0  0  0  0  0  0  0  0
    0.8649   -0.3330   -1.6932 C   0  0  0  0  0  0  0  0  0  0  0  0
    0.5289    0.5037   -2.7306 C   0  0  0  0  0  0  0  0  0  0  0  0
   -0.3771    0.4335   -3.3303 H   0  0  0  0  0  0  0  0  0  0  0  0
    1.5329    1.4638   -2.8359 N   0  0  0  0  0  0  0  0  0  0  0  0
    1.5494    2.2218   -3.5150 H   0  0  0  0  0  0  0  0  0  0  0  0
    2.5034    1.2585   -1.8681 C   0  0  0  0  0  0  0  0  0  0  0  0
    3.6761    1.9491   -1.5627 C   0  0  0  0  0  0  0  0  0  0  0  0
    3.9641    2.8197   -2.1416 H   0  0  0  0  0  0  0  0  0  0  0  0
    4.4759    1.5020   -0.5010 C   0  0  0  0  0  0  0  0  0  0  0  0
    5.3930    2.0290   -0.2538 H   0  0  0  0  0  0  0  0  0  0  0  0
    4.0950    0.3727    0.2407 C   0  0  0  0  0  0  0  0  0  0  0  0
    4.7192    0.0265    1.0590 H   0  0  0  0  0  0  0  0  0  0  0  0
    2.9135   -0.3136   -0.0745 C   0  0  0  0  0  0  0  0  0  0  0  0
    2.6169   -1.1905    0.4925 H   0  0  0  0  0  0  0  0  0  0  0  0
    2.1229    0.1409   -1.1347 C   0  0  0  0  0  0  0  0  0  0  0  0
   -1.3846    0.4048   -0.1530 C   0  0  0  0  0  0  0  0  0  0  0  0
   -2.3193    0.6863   -0.8997 O   0  0  0  0  0  0  0  0  0  0  0  0
   -0.8469    1.3817    0.6645 N   0  0  0  0  0  0  0  0  0  0  0  0
    0.0099    1.1384    1.1547 H   0  0  0  0  0  0  0  0  0  0  0  0
   -1.1880    2.7918    0.5336 C   0  0  0  0  0  0  0  0  0  0  0  0
   -2.2676    2.9388    0.6445 H   0  0  0  0  0  0  0  0  0  0  0  0
   -0.6811    3.3757    1.3079 H   0  0  0  0  0  0  0  0  0  0  0  0
   -0.8780    3.1694   -0.4464 H   0  0  0  0  0  0  0  0  0  0  0  0
  1  2  1  0  0  0  0
  2  3  1  0  0  0  0
  2  4  1  0  0  0  0
  2  5  1  0  0  0  0
  5  6  2  0  0  0  0
  5  7  1  0  0  0  0
  7  8  1  0  0  0  0
  7  9  1  0  0  0  0
  9 10  1  0  0  0  0
  9 11  1  0  0  0  0
  9 29  1  0  0  0  0
 11 12  1  0  0  0  0
 11 13  1  0  0  0  0
 11 14  1  0  0  0  0
 14 15  2  0  0  0  0
 14 28  1  0  0  0  0
 15 16  1  0  0  0  0
 15 17  1  0  0  0  0
 17 18  1  0  0  0  0
 17 19  1  0  0  0  0
 19 20  1  0  0  0  0
 19 28  2  0  0  0  0
 20 21  1  0  0  0  0
 20 22  2  0  0  0  0
 22 23  1  0  0  0  0
 22 24  1  0  0  0  0
 24 25  1  0  0  0  0
 24 26  2  0  0  0  0
 26 27  1  0  0  0  0
 26 28  1  0  0  0  0
 29 30  2  0  0  0  0
 29 31  1  0  0  0  0
 31 32  1  0  0  0  0
 31 33  1  0  0  0  0
 33 34  1  0  0  0  0
 33 35  1  0  0  0  0
 33 36  1  0  0  0  0
M  END
$$$$

  -OEChem-03222214083D

 36 37  0     1  0  0  0  0  0999 V2000
   -3.6304   -4.5399    1.5116 H   0  0  0  0  0  0  0  0  0  0  0  0
   -3.6318   -3.7500    0.7553 C   0  0  0  0  0  0  0  0  0  0  0  0
   -4.4557   -3.0637    0.9653 H   0  0  0  0  0  0  0  0  0  0  0  0
   -3.7851   -4.2032   -0.2271 H   0  0  0  0  0  0  0  0  0  0  0  0
   -2.3123   -3.0015    0.7791 C   0  0  0  0  0  0  0  0  0  0  0  0
   -1.4235   -3.3535    1.5378 O   0  0  0  0  0  0  0  0  0  0  0  0
   -2.1184   -1.9259   -0.0607 N   0  0  0  0  0  0  0  0  0  0  0  0
   -2.9213   -1.5976   -0.5953 H   0  0  0  0  0  0  0  0  0  0  0  0
   -0.9408   -1.0443   -0.0261 C   0  0  1  0  0  0  0  0  0  0  0  0
   -0.4182   -1.1421    0.9310 H   0  0  0  0  0  0  0  0  0  0  0  0
    0.0383   -1.4608   -1.1458 C   0  0  0  0  0  0  0  0  0  0  0  0
    0.6854   -2.2653   -0.7839 H   0  0  0  0  0  0  0  0  0  0  0  0
   -0.5401   -1.8685   -1.9812 H   0  0  0  0  0  0  0  0  0  0  0  0
    0.8710   -0.3275   -1.6964 C   0  0  0  0  0  0  0  0  0  0  0  0
    0.4517    0.6684   -2.5487 C   0  0  0  0  0  0  0  0  0  0  0  0
   -0.5488    0.7575   -2.9704 H   0  0  0  0  0  0  0  0  0  0  0  0
    1.5208    1.5399   -2.7395 N   0  0  0  0  0  0  0  0  0  0  0  0
    1.5018    2.3714   -3.3262 H   0  0  0  0  0  0  0  0  0  0  0  0
    2.6197    1.1229   -2.0065 C   0  0  0  0  0  0  0  0  0  0  0  0
    3.8978    1.6618   -1.8609 C   0  0  0  0  0  0  0  0  0  0  0  0
    4.1700    2.5711   -2.3852 H   0  0  0  0  0  0  0  0  0  0  0  0
    4.8219    1.0133   -1.0293 C   0  0  0  0  0  0  0  0  0  0  0  0
    5.8211    1.4210   -0.9076 H   0  0  0  0  0  0  0  0  0  0  0  0
    4.4577   -0.1623   -0.3548 C   0  0  0  0  0  0  0  0  0  0  0  0
    5.1754   -0.6640    0.2874 H   0  0  0  0  0  0  0  0  0  0  0  0
    3.1695   -0.6946   -0.5082 C   0  0  0  0  0  0  0  0  0  0  0  0
    2.8857   -1.6045    0.0109 H   0  0  0  0  0  0  0  0  0  0  0  0
    2.2544   -0.0418   -1.3408 C   0  0  0  0  0  0  0  0  0  0  0  0
   -1.4120    0.4231   -0.1177 C   0  0  0  0  0  0  0  0  0  0  0  0
   -2.3385    0.7180   -0.8691 O   0  0  0  0  0  0  0  0  0  0  0  0
   -0.8773    1.3887    0.7152 N   0  0  0  0  0  0  0  0  0  0  0  0
   -0.0386    1.1327    1.2297 H   0  0  0  0  0  0  0  0  0  0  0  0
   -1.2281    2.7996    0.6197 C   0  0  0  0  0  0  0  0  0  0  0  0
   -2.3091    2.9357    0.7296 H   0  0  0  0  0  0  0  0  0  0  0  0
   -0.7289    3.3667    1.4113 H   0  0  0  0  0  0  0  0  0  0  0  0
   -0.9169    3.2058   -0.3484 H   0  0  0  0  0  0  0  0  0  0  0  0
  1  2  1  0  0  0  0
  2  3  1  0  0  0  0
  2  4  1  0  0  0  0
  2  5  1  0  0  0  0
  5  6  2  0  0  0  0
  5  7  1  0  0  0  0
  7  8  1  0  0  0  0
  7  9  1  0  0  0  0
  9 10  1  0  0  0  0
  9 11  1  0  0  0  0
  9 29  1  0  0  0  0
 11 12  1  0  0  0  0
 11 13  1  0  0  0  0
 11 14  1  0  0  0  0
 14 15  2  0  0  0  0
 14 28  1  0  0  0  0
 15 16  1  0  0  0  0
 15 17  1  0  0  0  0
 17 18  1  0  0  0  0
 17 19  1  0  0  0  0
 19 20  1  0  0  0  0
 19 28  2  0  0  0  0
 20 21  1  0  0  0  0
 20 22  2  0  0  0  0
 22 23  1  0  0  0  0
 22 24  1  0  0  0  0
 24 25  1  0  0  0  0
 24 26  2  0  0  0  0
 26 27  1  0  0  0  0
 26 28  1  0  0  0  0
 29 30  2  0  0  0  0
 29 31  1  0  0  0  0
 31 32  1  0  0  0  0
 31 33  1  0  0  0  0
 33 34  1  0  0  0  0
 33 35  1  0  0  0  0
 33 36  1  0  0  0  0
M  END
$$$$

  -OEChem-03222214083D

 36 37  0     1  0  0  0  0  0999 V2000
   -3.5759   -4.5882    1.4536 H   0  0  0  0  0  0  0  0  0  0  0  0
   -3.6029   -3.7723    0.7257 C   0  0  0  0  0  0  0  0  0  0  0  0
   -4.4292   -3.1032    0.9776 H   0  0  0  0  0  0  0  0  0  0  0  0
   -3.7727   -4.1927   -0.2684 H   0  0  0  0  0  0  0  0  0  0  0  0
   -2.2926   -3.0083    0.7482 C   0  0  0  0  0  0  0  0  0  0  0  0
   -1.3932   -3.3586    1.4950 O   0  0  0  0  0  0  0  0  0  0  0  0
   -2.1246   -1.9118   -0.0699 N   0  0  0  0  0  0  0  0  0  0  0  0
   -2.9365   -1.5906   -0.5952 H   0  0  0  0  0  0  0  0  0  0  0  0
   -0.9651   -1.0071   -0.0223 C   0  0  1  0  0  0  0  0  0  0  0  0
   -0.4481   -1.1093    0.9374 H   0  0  0  0  0  0  0  0  0  0  0  0
    0.0362   -1.4078   -1.1316 C   0  0  0  0  0  0  0  0  0  0  0  0
    0.6803   -2.2029   -0.7456 H   0  0  0  0  0  0  0  0  0  0  0  0
   -0.5267   -1.8367   -1.9670 H   0  0  0  0  0  0  0  0  0  0  0  0
    0.8825   -0.2935   -1.7139 C   0  0  0  0  0  0  0  0  0  0  0  0
    0.4588    0.8449   -2.3653 C   0  0  0  0  0  0  0  0  0  0  0  0
   -0.5749    1.0922   -2.6041 H   0  0  0  0  0  0  0  0  0  0  0  0
    1.5807    1.6136   -2.6609 N   0  0  0  0  0  0  0  0  0  0  0  0
    1.5691    2.5044   -3.1531 H   0  0  0  0  0  0  0  0  0  0  0  0
    2.7262    0.9915   -2.1962 C   0  0  0  0  0  0  0  0  0  0  0  0
    4.0682    1.3686   -2.2434 C   0  0  0  0  0  0  0  0  0  0  0  0
    4.3577    2.3005   -2.7157 H   0  0  0  0  0  0  0  0  0  0  0  0
    5.0345    0.5289   -1.6723 C   0  0  0  0  0  0  0  0  0  0  0  0
    6.0834    0.8087   -1.7023 H   0  0  0  0  0  0  0  0  0  0  0  0
    4.6475   -0.6740   -1.0628 C   0  0  0  0  0  0  0  0  0  0  0  0
    5.3973   -1.3234   -0.6208 H   0  0  0  0  0  0  0  0  0  0  0  0
    3.2953   -1.0433   -1.0233 C   0  0  0  0  0  0  0  0  0  0  0  0
    2.9984   -1.9747   -0.5526 H   0  0  0  0  0  0  0  0  0  0  0  0
    2.3353   -0.2009   -1.5968 C   0  0  0  0  0  0  0  0  0  0  0  0
   -1.4642    0.4503   -0.0811 C   0  0  0  0  0  0  0  0  0  0  0  0
   -2.3997    0.7466   -0.8199 O   0  0  0  0  0  0  0  0  0  0  0  0
   -0.9433    1.4070    0.7704 N   0  0  0  0  0  0  0  0  0  0  0  0
   -0.1172    1.1488    1.3041 H   0  0  0  0  0  0  0  0  0  0  0  0
   -1.3453    2.8070    0.7383 C   0  0  0  0  0  0  0  0  0  0  0  0
   -2.4239    2.9012    0.9023 H   0  0  0  0  0  0  0  0  0  0  0  0
   -0.8283    3.3656    1.5244 H   0  0  0  0  0  0  0  0  0  0  0  0
   -1.0938    3.2542   -0.2289 H   0  0  0  0  0  0  0  0  0  0  0  0
  1  2  1  0  0  0  0
  2  3  1  0  0  0  0
  2  4  1  0  0  0  0
  2  5  1  0  0  0  0
  5  6  2  0  0  0  0
  5  7  1  0  0  0  0
  7  8  1  0  0  0  0
  7  9  1  0  0  0  0
  9 10  1  0  0  0  0
  9 11  1  0  0  0  0
  9 29  1  0  0  0  0
 11 12  1  0  0  0  0
 11 13  1  0  0  0  0
 11 14  1  0  0  0  0
 14 15  2  0  0  0  0
 14 28  1  0  0  0  0
 15 16  1  0  0  0  0
 15 17  1  0  0  0  0
 17 18  1  0  0  0  0
 17 19  1  0  0  0  0
 19 20  1  0  0  0  0
 19 28  2  0  0  0  0
 20 21  1  0  0  0  0
 20 22  2  0  0  0  0
 22 23  1  0  0  0  0
 22 24  1  0  0  0  0
 24 25  1  0  0  0  0
 24 26  2  0  0  0  0
 26 27  1  0  0  0  0
 26 28  1  0  0  0  0
 29 30  2  0  0  0  0
 29 31  1  0  0  0  0
 31 32  1  0  0  0  0
 31 33  1  0  0  0  0
 33 34  1  0  0  0  0
 33 35  1  0  0  0  0
 33 36  1  0  0  0  0
M  END
$$$$

  -OEChem-03222214083D

 36 37  0     1  0  0  0  0  0999 V2000
   -3.4811   -4.6495    1.3544 H   0  0  0  0  0  0  0  0  0  0  0  0
   -3.5351   -3.8033    0.6637 C   0  0  0  0  0  0  0  0  0  0  0  0
   -4.3857   -3.1758    0.9409 H   0  0  0  0  0  0  0  0  0  0  0  0
   -3.6867   -4.1844   -0.3490 H   0  0  0  0  0  0  0  0  0  0  0  0
   -2.2529   -2.9953    0.7259 C   0  0  0  0  0  0  0  0  0  0  0  0
   -1.3558   -3.3268    1.4839 O   0  0  0  0  0  0  0  0  0  0  0  0
   -2.1079   -1.8803   -0.0707 N   0  0  0  0  0  0  0  0  0  0  0  0
   -2.9192   -1.5794   -0.6089 H   0  0  0  0  0  0  0  0  0  0  0  0
   -0.9743   -0.9447   -0.0003 C   0  0  1  0  0  0  0  0  0  0  0  0
   -0.4657   -1.0444    0.9643 H   0  0  0  0  0  0  0  0  0  0  0  0
    0.0500   -1.3240   -1.0997 C   0  0  0  0  0  0  0  0  0  0  0  0
    0.6991   -2.0981   -0.6810 H   0  0  0  0  0  0  0  0  0  0  0  0
   -0.4897   -1.7844   -1.9336 H   0  0  0  0  0  0  0  0  0  0  0  0
    0.9069   -0.2260   -1.7088 C   0  0  0  0  0  0  0  0  0  0  0  0
    0.5491    1.0316   -2.1503 C   0  0  0  0  0  0  0  0  0  0  0  0
   -0.4601    1.4364   -2.1865 H   0  0  0  0  0  0  0  0  0  0  0  0
    1.7000    1.6878   -2.5753 N   0  0  0  0  0  0  0  0  0  0  0  0
    1.7294    2.6240   -2.9735 H   0  0  0  0  0  0  0  0  0  0  0  0
    2.8053    0.8736   -2.4115 C   0  0  0  0  0  0  0  0  0  0  0  0
    4.1561    1.0857   -2.6869 C   0  0  0  0  0  0  0  0  0  0  0  0
    4.4875    2.0294   -3.1056 H   0  0  0  0  0  0  0  0  0  0  0  0
    5.0764    0.0647   -2.4148 C   0  0  0  0  0  0  0  0  0  0  0  0
    6.1315    0.2148   -2.6233 H   0  0  0  0  0  0  0  0  0  0  0  0
    4.6352   -1.1520   -1.8738 C   0  0  0  0  0  0  0  0  0  0  0  0
    5.3497   -1.9424   -1.6645 H   0  0  0  0  0  0  0  0  0  0  0  0
    3.2738   -1.3529   -1.6031 C   0  0  0  0  0  0  0  0  0  0  0  0
    2.9375   -2.2969   -1.1877 H   0  0  0  0  0  0  0  0  0  0  0  0
    2.3575   -0.3288   -1.8752 C   0  0  0  0  0  0  0  0  0  0  0  0
   -1.5190    0.4952   -0.0378 C   0  0  0  0  0  0  0  0  0  0  0  0
   -2.4575    0.7785   -0.7770 O   0  0  0  0  0  0  0  0  0  0  0  0
   -1.0337    1.4525    0.8336 N   0  0  0  0  0  0  0  0  0  0  0  0
   -0.2377    1.1967    1.4123 H   0  0  0  0  0  0  0  0  0  0  0  0
   -1.5327    2.8204    0.8862 C   0  0  0  0  0  0  0  0  0  0  0  0
   -2.6073    2.8292    1.0969 H   0  0  0  0  0  0  0  0  0  0  0  0
   -1.0227    3.3778    1.6778 H   0  0  0  0  0  0  0  0  0  0  0  0
   -1.3555    3.3299   -0.0665 H   0  0  0  0  0  0  0  0  0  0  0  0
  1  2  1  0  0  0  0
  2  3  1  0  0  0  0
  2  4  1  0  0  0  0
  2  5  1  0  0  0  0
  5  6  2  0  0  0  0
  5  7  1  0  0  0  0
  7  8  1  0  0  0  0
  7  9  1  0  0  0  0
  9 10  1  0  0  0  0
  9 11  1  0  0  0  0
  9 29  1  0  0  0  0
 11 12  1  0  0  0  0
 11 13  1  0  0  0  0
 11 14  1  0  0  0  0
 14 15  2  0  0  0  0
 14 28  1  0  0  0  0
 15 16  1  0  0  0  0
 15 17  1  0  0  0  0
 17 18  1  0  0  0  0
 17 19  1  0  0  0  0
 19 20  1  0  0  0  0
 19 28  2  0  0  0  0
 20 21  1  0  0  0  0
 20 22  2  0  0  0  0
 22 23  1  0  0  0  0
 22 24  1  0  0  0  0
 24 25  1  0  0  0  0
 24 26  2  0  0  0  0
 26 27  1  0  0  0  0
 26 28  1  0  0  0  0
 29 30  2  0  0  0  0
 29 31  1  0  0  0  0
 31 32  1  0  0  0  0
 31 33  1  0  0  0  0
 33 34  1  0  0  0  0
 33 35  1  0  0  0  0
 33 36  1  0  0  0  0
M  END
$$$$

  -OEChem-03222214083D

 36 37  0     1  0  0  0  0  0999 V2000
   -3.3985   -4.7014    1.2498 H   0  0  0  0  0  0  0  0  0  0  0  0
   -3.4616   -3.8435    0.5743 C   0  0  0  0  0  0  0  0  0  0  0  0
   -4.3396   -3.2495    0.8396 H   0  0  0  0  0  0  0  0  0  0  0  0
   -3.5727   -4.2090   -0.4494 H   0  0  0  0  0  0  0  0  0  0  0  0
   -2.2089   -2.9959    0.6889 C   0  0  0  0  0  0  0  0  0  0  0  0
   -1.3243   -3.3131    1.4673 O   0  0  0  0  0  0  0  0  0  0  0  0
   -2.0769   -1.8602   -0.0805 N   0  0  0  0  0  0  0  0  0  0  0  0
   -2.8756   -1.5803   -0.6482 H   0  0  0  0  0  0  0  0  0  0  0  0
   -0.9687   -0.8981    0.0311 C   0  0  1  0  0  0  0  0  0  0  0  0
   -0.4709   -1.0057    1.0004 H   0  0  0  0  0  0  0  0  0  0  0  0
    0.0742   -1.2365   -1.0656 C   0  0  0  0  0  0  0  0  0  0  0  0
    0.7321   -1.9991   -0.6384 H   0  0  0  0  0  0  0  0  0  0  0  0
   -0.4469   -1.7045   -1.9072 H   0  0  0  0  0  0  0  0  0  0  0  0
    0.9384   -0.1397   -1.6726 C   0  0  0  0  0  0  0  0  0  0  0  0
    0.7067    1.2062   -1.8829 C   0  0  0  0  0  0  0  0  0  0  0  0
   -0.2133    1.7489   -1.6831 H   0  0  0  0  0  0  0  0  0  0  0  0
    1.8501    1.7642   -2.4465 N   0  0  0  0  0  0  0  0  0  0  0  0
    1.9503    2.7358   -2.7324 H   0  0  0  0  0  0  0  0  0  0  0  0
    2.8251    0.7996   -2.6112 C   0  0  0  0  0  0  0  0  0  0  0  0
    4.1165    0.8715   -3.1328 C   0  0  0  0  0  0  0  0  0  0  0  0
    4.5072    1.8155   -3.4958 H   0  0  0  0  0  0  0  0  0  0  0  0
    4.8980   -0.2906   -3.1815 C   0  0  0  0  0  0  0  0  0  0  0  0
    5.9056   -0.2510   -3.5842 H   0  0  0  0  0  0  0  0  0  0  0  0
    4.3782   -1.5058   -2.7117 C   0  0  0  0  0  0  0  0  0  0  0  0
    4.9840   -2.4060   -2.7515 H   0  0  0  0  0  0  0  0  0  0  0  0
    3.0769   -1.5641   -2.1921 C   0  0  0  0  0  0  0  0  0  0  0  0
    2.6767   -2.5065   -1.8333 H   0  0  0  0  0  0  0  0  0  0  0  0
    2.3006   -0.3992   -2.1433 C   0  0  0  0  0  0  0  0  0  0  0  0
   -1.5554    0.5241    0.0134 C   0  0  0  0  0  0  0  0  0  0  0  0
   -2.4653    0.8079   -0.7592 O   0  0  0  0  0  0  0  0  0  0  0  0
   -1.1150    1.4764    0.9148 N   0  0  0  0  0  0  0  0  0  0  0  0
   -0.3662    1.2102    1.5492 H   0  0  0  0  0  0  0  0  0  0  0  0
   -1.6648    2.8236    0.9970 C   0  0  0  0  0  0  0  0  0  0  0  0
   -2.7386    2.7872    1.2088 H   0  0  0  0  0  0  0  0  0  0  0  0
   -1.1738    3.3832    1.7989 H   0  0  0  0  0  0  0  0  0  0  0  0
   -1.5088    3.3600    0.0553 H   0  0  0  0  0  0  0  0  0  0  0  0
  1  2  1  0  0  0  0
  2  3  1  0  0  0  0
  2  4  1  0  0  0  0
  2  5  1  0  0  0  0
  5  6  2  0  0  0  0
  5  7  1  0  0  0  0
  7  8  1  0  0  0  0
  7  9  1  0  0  0  0
  9 10  1  0  0  0  0
  9 11  1  0  0  0  0
  9 29  1  0  0  0  0
 11 12  1  0  0  0  0
 11 13  1  0  0  0  0
 11 14  1  0  0  0  0
 14 15  2  0  0  0  0
 14 28  1  0  0  0  0
 15 16  1  0  0  0  0
 15 17  1  0  0  0  0
 17 18  1  0  0  0  0
 17 19  1  0  0  0  0
 19 20  1  0  0  0  0
 19 28  2  0  0  0  0
 20 21  1  0  0  0  0
 20 22  2  0  0  0  0
 22 23  1  0  0  0  0
 22 24  1  0  0  0  0
 24 25  1  0  0  0  0
 24 26  2  0  0  0  0
 26 27  1  0  0  0  0
 26 28  1  0  0  0  0
 29 30  2  0  0  0  0
 29 31  1  0  0  0  0
 31 32  1  0  0  0  0
 31 33  1  0  0  0  0
 33 34  1  0  0  0  0
 33 35  1  0  0  0  0
 33 36  1  0  0  0  0
M  END
$$$$

  -OEChem-03222214083D

 36 37  0     1  0  0  0  0  0999 V2000
   -3.3604   -4.7137    1.1356 H   0  0  0  0  0  0  0  0  0  0  0  0
   -3.4132   -3.8474    0.4702 C   0  0  0  0  0  0  0  0  0  0  0  0
   -4.3103   -3.2721    0.7111 H   0  0  0  0  0  0  0  0  0  0  0  0
   -3.4807   -4.1995   -0.5619 H   0  0  0  0  0  0  0  0  0  0  0  0
   -2.1804   -2.9805    0.6418 C   0  0  0  0  0  0  0  0  0  0  0  0
   -1.3165   -3.2960    1.4439 O   0  0  0  0  0  0  0  0  0  0  0  0
   -2.0422   -1.8298   -0.1036 N   0  0  0  0  0  0  0  0  0  0  0  0
   -2.8236   -1.5533   -0.6965 H   0  0  0  0  0  0  0  0  0  0  0  0
   -0.9445   -0.8615    0.0487 C   0  0  1  0  0  0  0  0  0  0  0  0
   -0.4546   -0.9830    1.0203 H   0  0  0  0  0  0  0  0  0  0  0  0
    0.1023   -1.1774   -1.0511 C   0  0  0  0  0  0  0  0  0  0  0  0
    0.7587   -1.9511   -0.6402 H   0  0  0  0  0  0  0  0  0  0  0  0
   -0.4223   -1.6242   -1.9023 H   0  0  0  0  0  0  0  0  0  0  0  0
    0.9800   -0.0863   -1.6464 C   0  0  0  0  0  0  0  0  0  0  0  0
    0.9186    1.2937   -1.6255 C   0  0  0  0  0  0  0  0  0  0  0  0
    0.1478    1.9101   -1.1749 H   0  0  0  0  0  0  0  0  0  0  0  0
    2.0167    1.7901   -2.3228 N   0  0  0  0  0  0  0  0  0  0  0  0
    2.2115    2.7752   -2.4885 H   0  0  0  0  0  0  0  0  0  0  0  0
    2.7938    0.7528   -2.8017 C   0  0  0  0  0  0  0  0  0  0  0  0
    3.9714    0.7423   -3.5494 C   0  0  0  0  0  0  0  0  0  0  0  0
    4.4338    1.6744   -3.8542 H   0  0  0  0  0  0  0  0  0  0  0  0
    4.5459   -0.4870   -3.9006 C   0  0  0  0  0  0  0  0  0  0  0  0
    5.4624   -0.5115   -4.4825 H   0  0  0  0  0  0  0  0  0  0  0  0
    3.9372   -1.6862   -3.5011 C   0  0  0  0  0  0  0  0  0  0  0  0
    4.3829   -2.6380   -3.7739 H   0  0  0  0  0  0  0  0  0  0  0  0
    2.7528   -1.6609   -2.7509 C   0  0  0  0  0  0  0  0  0  0  0  0
    2.2807   -2.5883   -2.4438 H   0  0  0  0  0  0  0  0  0  0  0  0
    2.1841   -0.4295   -2.4032 C   0  0  0  0  0  0  0  0  0  0  0  0
   -1.5541    0.5516    0.0441 C   0  0  0  0  0  0  0  0  0  0  0  0
   -2.4502    0.8396   -0.7419 O   0  0  0  0  0  0  0  0  0  0  0  0
   -1.1457    1.4911    0.9748 N   0  0  0  0  0  0  0  0  0  0  0  0
   -0.4522    1.1994    1.6589 H   0  0  0  0  0  0  0  0  0  0  0  0
   -1.7644    2.8037    1.1151 C   0  0  0  0  0  0  0  0  0  0  0  0
   -2.8299    2.7031    1.3478 H   0  0  0  0  0  0  0  0  0  0  0  0
   -1.2851    3.3620    1.9250 H   0  0  0  0  0  0  0  0  0  0  0  0
   -1.6579    3.3796    0.1899 H   0  0  0  0  0  0  0  0  0  0  0  0
  1  2  1  0  0  0  0
  2  3  1  0  0  0  0
  2  4  1  0  0  0  0
  2  5  1  0  0  0  0
  5  6  2  0  0  0  0
  5  7  1  0  0  0  0
  7  8  1  0  0  0  0
  7  9  1  0  0  0  0
  9 10  1  0  0  0  0
  9 11  1  0  0  0  0
  9 29  1  0  0  0  0
 11 12  1  0  0  0  0
 11 13  1  0  0  0  0
 11 14  1  0  0  0  0
 14 15  2  0  0  0  0
 14 28  1  0  0  0  0
 15 16  1  0  0  0  0
 15 17  1  0  0  0  0
 17 18  1  0  0  0  0
 17 19  1  0  0  0  0
 19 20  1  0  0  0  0
 19 28  2  0  0  0  0
 20 21  1  0  0  0  0
 20 22  2  0  0  0  0
 22 23  1  0  0  0  0
 22 24  1  0  0  0  0
 24 25  1  0  0  0  0
 24 26  2  0  0  0  0
 26 27  1  0  0  0  0
 26 28  1  0  0  0  0
 29 30  2  0  0  0  0
 29 31  1  0  0  0  0
 31 32  1  0  0  0  0
 31 33  1  0  0  0  0
 33 34  1  0  0  0  0
 33 35  1  0  0  0  0
 33 36  1  0  0  0  0
M  END
$$$$

  -OEChem-03222214083D

 36 37  0     1  0  0  0  0  0999 V2000
   -3.4700   -4.6549    1.0752 H   0  0  0  0  0  0  0  0  0  0  0  0
   -3.4649   -3.8045    0.3877 C   0  0  0  0  0  0  0  0  0  0  0  0
   -4.3504   -3.1932    0.5781 H   0  0  0  0  0  0  0  0  0  0  0  0
   -3.5026   -4.1798   -0.6378 H   0  0  0  0  0  0  0  0  0  0  0  0
   -2.2105   -2.9759    0.5900 C   0  0  0  0  0  0  0  0  0  0  0  0
   -1.3730   -3.3209    1.4079 O   0  0  0  0  0  0  0  0  0  0  0  0
   -2.0270   -1.8194   -0.1366 N   0  0  0  0  0  0  0  0  0  0  0  0
   -2.7919   -1.5108   -0.7358 H   0  0  0  0  0  0  0  0  0  0  0  0
   -0.9168   -0.8738    0.0647 C   0  0  1  0  0  0  0  0  0  0  0  0
   -0.4457   -1.0160    1.0425 H   0  0  0  0  0  0  0  0  0  0  0  0
    0.1338   -1.1835   -1.0342 C   0  0  0  0  0  0  0  0  0  0  0  0
    0.7679   -1.9918   -0.6553 H   0  0  0  0  0  0  0  0  0  0  0  0
   -0.4032   -1.5803   -1.9024 H   0  0  0  0  0  0  0  0  0  0  0  0
    1.0428   -0.0999   -1.5920 C   0  0  0  0  0  0  0  0  0  0  0  0
    1.1806    1.2490   -1.3324 C   0  0  0  0  0  0  0  0  0  0  0  0
    0.6090    1.8430   -0.6300 H   0  0  0  0  0  0  0  0  0  0  0  0
    2.1955    1.7494   -2.1440 N   0  0  0  0  0  0  0  0  0  0  0  0
    2.4971    2.7208   -2.1782 H   0  0  0  0  0  0  0  0  0  0  0  0
    2.7236    0.7435   -2.9303 C   0  0  0  0  0  0  0  0  0  0  0  0
    3.7386    0.7460   -3.8871 C   0  0  0  0  0  0  0  0  0  0  0  0
    4.2673    1.6630   -4.1219 H   0  0  0  0  0  0  0  0  0  0  0  0
    4.0642   -0.4511   -4.5395 C   0  0  0  0  0  0  0  0  0  0  0  0
    4.8514   -0.4650   -5.2873 H   0  0  0  0  0  0  0  0  0  0  0  0
    3.3734   -1.6318   -4.2276 C   0  0  0  0  0  0  0  0  0  0  0  0
    3.6271   -2.5582   -4.7339 H   0  0  0  0  0  0  0  0  0  0  0  0
    2.3550   -1.6201   -3.2639 C   0  0  0  0  0  0  0  0  0  0  0  0
    1.8188   -2.5319   -3.0221 H   0  0  0  0  0  0  0  0  0  0  0  0
    2.0348   -0.4208   -2.6168 C   0  0  0  0  0  0  0  0  0  0  0  0
   -1.5228    0.5435    0.0542 C   0  0  0  0  0  0  0  0  0  0  0  0
   -2.3978    0.8388   -0.7528 O   0  0  0  0  0  0  0  0  0  0  0  0
   -1.1460    1.4732    1.0086 N   0  0  0  0  0  0  0  0  0  0  0  0
   -0.5141    1.1587    1.7405 H   0  0  0  0  0  0  0  0  0  0  0  0
   -1.7760    2.7815    1.1394 C   0  0  0  0  0  0  0  0  0  0  0  0
   -2.8423    2.6724    1.3638 H   0  0  0  0  0  0  0  0  0  0  0  0
   -1.3069    3.3473    1.9501 H   0  0  0  0  0  0  0  0  0  0  0  0
   -1.6678    3.3547    0.2125 H   0  0  0  0  0  0  0  0  0  0  0  0
  1  2  1  0  0  0  0
  2  3  1  0  0  0  0
  2  4  1  0  0  0  0
  2  5  1  0  0  0  0
  5  6  2  0  0  0  0
  5  7  1  0  0  0  0
  7  8  1  0  0  0  0
  7  9  1  0  0  0  0
  9 10  1  0  0  0  0
  9 11  1  0  0  0  0
  9 29  1  0  0  0  0
 11 12  1  0  0  0  0
 11 13  1  0  0  0  0
 11 14  1  0  0  0  0
 14 15  2  0  0  0  0
 14 28  1  0  0  0  0
 15 16  1  0  0  0  0
 15 17  1  0  0  0  0
 17 18  1  0  0  0  0
 17 19  1  0  0  0  0
 19 20  1  0  0  0  0
 19 28  2  0  0  0  0
 20 21  1  0  0  0  0
 20 22  2  0  0  0  0
 22 23  1  0  0  0  0
 22 24  1  0  0  0  0
 24 25  1  0  0  0  0
 24 26  2  0  0  0  0
 26 27  1  0  0  0  0
 26 28  1  0  0  0  0
 29 30  2  0  0  0  0
 29 31  1  0  0  0  0
 31 32  1  0  0  0  0
 31 33  1  0  0  0  0
 33 34  1  0  0  0  0
 33 35  1  0  0  0  0
 33 36  1  0  0  0  0
M  END
$$$$

  -OEChem-03222214083D

 36 37  0     1  0  0  0  0  0999 V2000
   -3.5964   -4.6099    1.0390 H   0  0  0  0  0  0  0  0  0  0  0  0
   -3.5534   -3.7554    0.3579 C   0  0  0  0  0  0  0  0  0  0  0  0
   -4.4317   -3.1273    0.5249 H   0  0  0  0  0  0  0  0  0  0  0  0
   -3.5673   -4.1238   -0.6707 H   0  0  0  0  0  0  0  0  0  0  0  0
   -2.2888   -2.9547    0.6033 C   0  0  0  0  0  0  0  0  0  0  0  0
   -1.4942   -3.3097    1.4588 O   0  0  0  0  0  0  0  0  0  0  0  0
   -2.0429   -1.8171   -0.1338 N   0  0  0  0  0  0  0  0  0  0  0  0
   -2.7750   -1.4933   -0.7651 H   0  0  0  0  0  0  0  0  0  0  0  0
   -0.9010   -0.9129    0.0796 C   0  0  1  0  0  0  0  0  0  0  0  0
   -0.4426   -1.0628    1.0623 H   0  0  0  0  0  0  0  0  0  0  0  0
    0.1371   -1.2576   -1.0199 C   0  0  0  0  0  0  0  0  0  0  0  0
    0.7404   -2.0988   -0.6646 H   0  0  0  0  0  0  0  0  0  0  0  0
   -0.4222   -1.6124   -1.8922 H   0  0  0  0  0  0  0  0  0  0  0  0
    1.0766   -0.1906   -1.5534 C   0  0  0  0  0  0  0  0  0  0  0  0
    1.4175    1.0592   -1.0807 C   0  0  0  0  0  0  0  0  0  0  0  0
    1.0626    1.5273   -0.1703 H   0  0  0  0  0  0  0  0  0  0  0  0
    2.3251    1.6288   -1.9699 N   0  0  0  0  0  0  0  0  0  0  0  0
    2.7366    2.5551   -1.8799 H   0  0  0  0  0  0  0  0  0  0  0  0
    2.5848    0.7615   -3.0145 C   0  0  0  0  0  0  0  0  0  0  0  0
    3.4120    0.8735   -4.1320 C   0  0  0  0  0  0  0  0  0  0  0  0
    3.9928    1.7747   -4.2937 H   0  0  0  0  0  0  0  0  0  0  0  0
    3.4821   -0.1932   -5.0389 C   0  0  0  0  0  0  0  0  0  0  0  0
    4.1218   -0.1206   -5.9133 H   0  0  0  0  0  0  0  0  0  0  0  0
    2.7279   -1.3554   -4.8164 C   0  0  0  0  0  0  0  0  0  0  0  0
    2.7853   -2.1817   -5.5183 H   0  0  0  0  0  0  0  0  0  0  0  0
    1.8989   -1.4542   -3.6896 C   0  0  0  0  0  0  0  0  0  0  0  0
    1.3160   -2.3524   -3.5147 H   0  0  0  0  0  0  0  0  0  0  0  0
    1.8315   -0.3837   -2.7901 C   0  0  0  0  0  0  0  0  0  0  0  0
   -1.4618    0.5246    0.0341 C   0  0  0  0  0  0  0  0  0  0  0  0
   -2.3141    0.8292   -0.7938 O   0  0  0  0  0  0  0  0  0  0  0  0
   -1.0804    1.4603    0.9808 N   0  0  0  0  0  0  0  0  0  0  0  0
   -0.4997    1.1343    1.7485 H   0  0  0  0  0  0  0  0  0  0  0  0
   -1.6689    2.7916    1.0624 C   0  0  0  0  0  0  0  0  0  0  0  0
   -2.7434    2.7242    1.2623 H   0  0  0  0  0  0  0  0  0  0  0  0
   -1.2011    3.3636    1.8694 H   0  0  0  0  0  0  0  0  0  0  0  0
   -1.5184    3.3348    0.1235 H   0  0  0  0  0  0  0  0  0  0  0  0
  1  2  1  0  0  0  0
  2  3  1  0  0  0  0
  2  4  1  0  0  0  0
  2  5  1  0  0  0  0
  5  6  2  0  0  0  0
  5  7  1  0  0  0  0
  7  8  1  0  0  0  0
  7  9  1  0  0  0  0
  9 10  1  0  0  0  0
  9 11  1  0  0  0  0
  9 29  1  0  0  0  0
 11 12  1  0  0  0  0
 11 13  1  0  0  0  0
 11 14  1  0  0  0  0
 14 15  2  0  0  0  0
 14 28  1  0  0  0  0
 15 16  1  0  0  0  0
 15 17  1  0  0  0  0
 17 18  1  0  0  0  0
 17 19  1  0  0  0  0
 19 20  1  0  0  0  0
 19 28  2  0  0  0  0
 20 21  1  0  0  0  0
 20 22  2  0  0  0  0
 22 23  1  0  0  0  0
 22 24  1  0  0  0  0
 24 25  1  0  0  0  0
 24 26  2  0  0  0  0
 26 27  1  0  0  0  0
 26 28  1  0  0  0  0
 29 30  2  0  0  0  0
 29 31  1  0  0  0  0
 31 32  1  0  0  0  0
 31 33  1  0  0  0  0
 33 34  1  0  0  0  0
 33 35  1  0  0  0  0
 33 36  1  0  0  0  0
M  END
$$$$

  -OEChem-03222214083D

 36 37  0     1  0  0  0  0  0999 V2000
   -3.7180   -4.5324    1.1732 H   0  0  0  0  0  0  0  0  0  0  0  0
   -3.6521   -3.7008    0.4661 C   0  0  0  0  0  0  0  0  0  0  0  0
   -4.5002   -3.0315    0.6293 H   0  0  0  0  0  0  0  0  0  0  0  0
   -3.7002   -4.0979   -0.5507 H   0  0  0  0  0  0  0  0  0  0  0  0
   -2.3512   -2.9471    0.6655 C   0  0  0  0  0  0  0  0  0  0  0  0
   -1.5593   -3.3046    1.5227 O   0  0  0  0  0  0  0  0  0  0  0  0
   -2.0699   -1.8472   -0.1147 N   0  0  0  0  0  0  0  0  0  0  0  0
   -2.8001   -1.5120   -0.7425 H   0  0  0  0  0  0  0  0  0  0  0  0
   -0.8951   -0.9785    0.0598 C   0  0  1  0  0  0  0  0  0  0  0  0
   -0.4343   -1.1124    1.0433 H   0  0  0  0  0  0  0  0  0  0  0  0
    0.1230   -1.3749   -1.0387 C   0  0  0  0  0  0  0  0  0  0  0  0
    0.7149   -2.2227   -0.6802 H   0  0  0  0  0  0  0  0  0  0  0  0
   -0.4505   -1.7284   -1.9013 H   0  0  0  0  0  0  0  0  0  0  0  0
    1.0649   -0.3106   -1.5666 C   0  0  0  0  0  0  0  0  0  0  0  0
    1.5875    0.7933   -0.9295 C   0  0  0  0  0  0  0  0  0  0  0  0
    1.4161    1.0752    0.1045 H   0  0  0  0  0  0  0  0  0  0  0  0
    2.3939    1.4756   -1.8361 N   0  0  0  0  0  0  0  0  0  0  0  0
    2.9030    2.3352   -1.6428 H   0  0  0  0  0  0  0  0  0  0  0  0
    2.4033    0.8234   -3.0560 C   0  0  0  0  0  0  0  0  0  0  0  0
    3.0517    1.1133   -4.2564 C   0  0  0  0  0  0  0  0  0  0  0  0
    3.6814    1.9920   -4.3394 H   0  0  0  0  0  0  0  0  0  0  0  0
    2.8781    0.2546   -5.3505 C   0  0  0  0  0  0  0  0  0  0  0  0
    3.3762    0.4668   -6.2918 H   0  0  0  0  0  0  0  0  0  0  0  0
    2.0616   -0.8800   -5.2306 C   0  0  0  0  0  0  0  0  0  0  0  0
    1.9286   -1.5440   -6.0793 H   0  0  0  0  0  0  0  0  0  0  0  0
    1.4150   -1.1599   -4.0181 C   0  0  0  0  0  0  0  0  0  0  0  0
    0.7842   -2.0375   -3.9252 H   0  0  0  0  0  0  0  0  0  0  0  0
    1.5908   -0.2971   -2.9298 C   0  0  0  0  0  0  0  0  0  0  0  0
   -1.4016    0.4787   -0.0354 C   0  0  0  0  0  0  0  0  0  0  0  0
   -2.2604    0.7788   -0.8588 O   0  0  0  0  0  0  0  0  0  0  0  0
   -0.9797    1.4347    0.8733 N   0  0  0  0  0  0  0  0  0  0  0  0
   -0.4104    1.1171    1.6522 H   0  0  0  0  0  0  0  0  0  0  0  0
   -1.5152    2.7904    0.9027 C   0  0  0  0  0  0  0  0  0  0  0  0
   -2.5888    2.7735    1.1175 H   0  0  0  0  0  0  0  0  0  0  0  0
   -1.0153    3.3785    1.6781 H   0  0  0  0  0  0  0  0  0  0  0  0
   -1.3565    3.2864   -0.0609 H   0  0  0  0  0  0  0  0  0  0  0  0
  1  2  1  0  0  0  0
  2  3  1  0  0  0  0
  2  4  1  0  0  0  0
  2  5  1  0  0  0  0
  5  6  2  0  0  0  0
  5  7  1  0  0  0  0
  7  8  1  0  0  0  0
  7  9  1  0  0  0  0
  9 10  1  0  0  0  0
  9 11  1  0  0  0  0
  9 29  1  0  0  0  0
 11 12  1  0  0  0  0
 11 13  1  0  0  0  0
 11 14  1  0  0  0  0
 14 15  2  0  0  0  0
 14 28  1  0  0  0  0
 15 16  1  0  0  0  0
 15 17  1  0  0  0  0
 17 18  1  0  0  0  0
 17 19  1  0  0  0  0
 19 20  1  0  0  0  0
 19 28  2  0  0  0  0
 20 21  1  0  0  0  0
 20 22  2  0  0  0  0
 22 23  1  0  0  0  0
 22 24  1  0  0  0  0
 24 25  1  0  0  0  0
 24 26  2  0  0  0  0
 26 27  1  0  0  0  0
 26 28  1  0  0  0  0
 29 30  2  0  0  0  0
 29 31  1  0  0  0  0
 31 32  1  0  0  0  0
 31 33  1  0  0  0  0
 33 34  1  0  0  0  0
 33 35  1  0  0  0  0
 33 36  1  0  0  0  0
M  END
$$$$

  -OEChem-03222214083D

 36 37  0     1  0  0  0  0  0999 V2000
   -3.7824   -4.4828    1.3216 H   0  0  0  0  0  0  0  0  0  0  0  0
   -3.7109   -3.6765    0.5862 C   0  0  0  0  0  0  0  0  0  0  0  0
   -4.5403   -2.9823    0.7414 H   0  0  0  0  0  0  0  0  0  0  0  0
   -3.7867   -4.1057   -0.4158 H   0  0  0  0  0  0  0  0  0  0  0  0
   -2.3892   -2.9479    0.7373 C   0  0  0  0  0  0  0  0  0  0  0  0
   -1.5923   -3.2939    1.5948 O   0  0  0  0  0  0  0  0  0  0  0  0
   -2.0908   -1.8893   -0.0923 N   0  0  0  0  0  0  0  0  0  0  0  0
   -2.8251   -1.5549   -0.7160 H   0  0  0  0  0  0  0  0  0  0  0  0
   -0.8946   -1.0421    0.0344 C   0  0  1  0  0  0  0  0  0  0  0  0
   -0.4282   -1.1478    1.0188 H   0  0  0  0  0  0  0  0  0  0  0  0
    0.1090   -1.4865   -1.0552 C   0  0  0  0  0  0  0  0  0  0  0  0
    0.7042   -2.3217   -0.6730 H   0  0  0  0  0  0  0  0  0  0  0  0
   -0.4642   -1.8663   -1.9062 H   0  0  0  0  0  0  0  0  0  0  0  0
    1.0386   -0.4165   -1.5855 C   0  0  0  0  0  0  0  0  0  0  0  0
    1.7440    0.5127   -0.8548 C   0  0  0  0  0  0  0  0  0  0  0  0
    1.7526    0.5931    0.2286 H   0  0  0  0  0  0  0  0  0  0  0  0
    2.4487    1.3158   -1.7469 N   0  0  0  0  0  0  0  0  0  0  0  0
    3.0578    2.0902   -1.4921 H   0  0  0  0  0  0  0  0  0  0  0  0
    2.1996    0.9184   -3.0492 C   0  0  0  0  0  0  0  0  0  0  0  0
    2.6612    1.4122   -4.2692 C   0  0  0  0  0  0  0  0  0  0  0  0
    3.3409    2.2563   -4.2954 H   0  0  0  0  0  0  0  0  0  0  0  0
    2.2325    0.8052   -5.4575 C   0  0  0  0  0  0  0  0  0  0  0  0
    2.5816    1.1804   -6.4148 H   0  0  0  0  0  0  0  0  0  0  0  0
    1.3511   -0.2854   -5.4109 C   0  0  0  0  0  0  0  0  0  0  0  0
    1.0180   -0.7525   -6.3328 H   0  0  0  0  0  0  0  0  0  0  0  0
    0.8948   -0.7728   -4.1776 C   0  0  0  0  0  0  0  0  0  0  0  0
    0.2113   -1.6141   -4.1427 H   0  0  0  0  0  0  0  0  0  0  0  0
    1.3259   -0.1619   -2.9943 C   0  0  0  0  0  0  0  0  0  0  0  0
   -1.3581    0.4256   -0.1175 C   0  0  0  0  0  0  0  0  0  0  0  0
   -2.2330    0.7099   -0.9301 O   0  0  0  0  0  0  0  0  0  0  0  0
   -0.8993    1.4068    0.7445 N   0  0  0  0  0  0  0  0  0  0  0  0
   -0.2777    1.1217    1.4944 H   0  0  0  0  0  0  0  0  0  0  0  0
   -1.3551    2.7906    0.6921 C   0  0  0  0  0  0  0  0  0  0  0  0
   -2.4409    2.8436    0.8248 H   0  0  0  0  0  0  0  0  0  0  0  0
   -0.8819    3.3751    1.4867 H   0  0  0  0  0  0  0  0  0  0  0  0
   -1.0951    3.2416   -0.2716 H   0  0  0  0  0  0  0  0  0  0  0  0
  1  2  1  0  0  0  0
  2  3  1  0  0  0  0
  2  4  1  0  0  0  0
  2  5  1  0  0  0  0
  5  6  2  0  0  0  0
  5  7  1  0  0  0  0
  7  8  1  0  0  0  0
  7  9  1  0  0  0  0
  9 10  1  0  0  0  0
  9 11  1  0  0  0  0
  9 29  1  0  0  0  0
 11 12  1  0  0  0  0
 11 13  1  0  0  0  0
 11 14  1  0  0  0  0
 14 15  2  0  0  0  0
 14 28  1  0  0  0  0
 15 16  1  0  0  0  0
 15 17  1  0  0  0  0
 17 18  1  0  0  0  0
 17 19  1  0  0  0  0
 19 20  1  0  0  0  0
 19 28  2  0  0  0  0
 20 21  1  0  0  0  0
 20 22  2  0  0  0  0
 22 23  1  0  0  0  0
 22 24  1  0  0  0  0
 24 25  1  0  0  0  0
 24 26  2  0  0  0  0
 26 27  1  0  0  0  0
 26 28  1  0  0  0  0
 29 30  2  0  0  0  0
 29 31  1  0  0  0  0
 31 32  1  0  0  0  0
 31 33  1  0  0  0  0
 33 34  1  0  0  0  0
 33 35  1  0  0  0  0
 33 36  1  0  0  0  0
M  END
$$$$

  -OEChem-03222214083D

 36 37  0     1  0  0  0  0  0999 V2000
   -3.8097   -4.4400    1.4413 H   0  0  0  0  0  0  0  0  0  0  0  0
   -3.7439   -3.6492    0.6889 C   0  0  0  0  0  0  0  0  0  0  0  0
   -4.5460   -2.9281    0.8637 H   0  0  0  0  0  0  0  0  0  0  0  0
   -3.8718   -4.0935   -0.3009 H   0  0  0  0  0  0  0  0  0  0  0  0
   -2.3973   -2.9561    0.7736 C   0  0  0  0  0  0  0  0  0  0  0  0
   -1.5790   -3.3043    1.6100 O   0  0  0  0  0  0  0  0  0  0  0  0
   -2.1010   -1.9267   -0.0925 N   0  0  0  0  0  0  0  0  0  0  0  0
   -2.8524   -1.5815   -0.6894 H   0  0  0  0  0  0  0  0  0  0  0  0
   -0.8945   -1.0900   -0.0067 C   0  0  1  0  0  0  0  0  0  0  0  0
   -0.4231   -1.1701    0.9777 H   0  0  0  0  0  0  0  0  0  0  0  0
    0.1045   -1.5605   -1.0858 C   0  0  0  0  0  0  0  0  0  0  0  0
    0.7121   -2.3742   -0.6779 H   0  0  0  0  0  0  0  0  0  0  0  0
   -0.4551   -1.9724   -1.9309 H   0  0  0  0  0  0  0  0  0  0  0  0
    1.0121   -0.4748   -1.6143 C   0  0  0  0  0  0  0  0  0  0  0  0
    1.9007    0.2667   -0.8708 C   0  0  0  0  0  0  0  0  0  0  0  0
    2.0927    0.1435    0.1921 H   0  0  0  0  0  0  0  0  0  0  0  0
    2.5098    1.1820   -1.7246 N   0  0  0  0  0  0  0  0  0  0  0  0
    3.2232    1.8567   -1.4574 H   0  0  0  0  0  0  0  0  0  0  0  0
    2.0131    1.0435   -3.0101 C   0  0  0  0  0  0  0  0  0  0  0  0
    2.3037    1.7260   -4.1913 C   0  0  0  0  0  0  0  0  0  0  0  0
    3.0400    2.5218   -4.1964 H   0  0  0  0  0  0  0  0  0  0  0  0
    1.6303    1.3707   -5.3682 C   0  0  0  0  0  0  0  0  0  0  0  0
    1.8456    1.8931   -6.2954 H   0  0  0  0  0  0  0  0  0  0  0  0
    0.6748    0.3432   -5.3484 C   0  0  0  0  0  0  0  0  0  0  0  0
    0.1500    0.0729   -6.2595 H   0  0  0  0  0  0  0  0  0  0  0  0
    0.3908   -0.3348   -4.1541 C   0  0  0  0  0  0  0  0  0  0  0  0
   -0.3520   -1.1252   -4.1364 H   0  0  0  0  0  0  0  0  0  0  0  0
    1.0718    0.0204   -2.9847 C   0  0  0  0  0  0  0  0  0  0  0  0
   -1.3407    0.3790   -0.1963 C   0  0  0  0  0  0  0  0  0  0  0  0
   -2.2511    0.6436   -0.9768 O   0  0  0  0  0  0  0  0  0  0  0  0
   -0.8558    1.3771    0.6301 N   0  0  0  0  0  0  0  0  0  0  0  0
   -0.1337    1.1272    1.2973 H   0  0  0  0  0  0  0  0  0  0  0  0
   -1.2720    2.7697    0.5269 C   0  0  0  0  0  0  0  0  0  0  0  0
   -2.3481    2.8626    0.7070 H   0  0  0  0  0  0  0  0  0  0  0  0
   -0.7446    3.3782    1.2676 H   0  0  0  0  0  0  0  0  0  0  0  0
   -1.0452    3.1633   -0.4697 H   0  0  0  0  0  0  0  0  0  0  0  0
  1  2  1  0  0  0  0
  2  3  1  0  0  0  0
  2  4  1  0  0  0  0
  2  5  1  0  0  0  0
  5  6  2  0  0  0  0
  5  7  1  0  0  0  0
  7  8  1  0  0  0  0
  7  9  1  0  0  0  0
  9 10  1  0  0  0  0
  9 11  1  0  0  0  0
  9 29  1  0  0  0  0
 11 12  1  0  0  0  0
 11 13  1  0  0  0  0
 11 14  1  0  0  0  0
 14 15  2  0  0  0  0
 14 28  1  0  0  0  0
 15 16  1  0  0  0  0
 15 17  1  0  0  0  0
 17 18  1  0  0  0  0
 17 19  1  0  0  0  0
 19 20  1  0  0  0  0
 19 28  2  0  0  0  0
 20 21  1  0  0  0  0
 20 22  2  0  0  0  0
 22 23  1  0  0  0  0
 22 24  1  0  0  0  0
 24 25  1  0  0  0  0
 24 26  2  0  0  0  0
 26 27  1  0  0  0  0
 26 28  1  0  0  0  0
 29 30  2  0  0  0  0
 29 31  1  0  0  0  0
 31 32  1  0  0  0  0
 31 33  1  0  0  0  0
 33 34  1  0  0  0  0
 33 35  1  0  0  0  0
 33 36  1  0  0  0  0
M  END
$$$$

  -OEChem-03222214083D

 36 37  0     1  0  0  0  0  0999 V2000
   -3.8082   -4.4233    1.5137 H   0  0  0  0  0  0  0  0  0  0  0  0
   -3.7547   -3.6427    0.7498 C   0  0  0  0  0  0  0  0  0  0  0  0
   -4.5391   -2.9067    0.9422 H   0  0  0  0  0  0  0  0  0  0  0  0
   -3.9218   -4.0963   -0.2301 H   0  0  0  0  0  0  0  0  0  0  0  0
   -2.3950   -2.9712    0.7842 C   0  0  0  0  0  0  0  0  0  0  0  0
   -1.5604   -3.3192    1.6046 O   0  0  0  0  0  0  0  0  0  0  0  0
   -2.1070   -1.9587   -0.1048 N   0  0  0  0  0  0  0  0  0  0  0  0
   -2.8707   -1.6099   -0.6836 H   0  0  0  0  0  0  0  0  0  0  0  0
   -0.8993   -1.1215   -0.0412 C   0  0  1  0  0  0  0  0  0  0  0  0
   -0.4279   -1.1825    0.9448 H   0  0  0  0  0  0  0  0  0  0  0  0
    0.1053   -1.6014   -1.1089 C   0  0  0  0  0  0  0  0  0  0  0  0
    0.7216   -2.3976   -0.6800 H   0  0  0  0  0  0  0  0  0  0  0  0
   -0.4364   -2.0352   -1.9551 H   0  0  0  0  0  0  0  0  0  0  0  0
    0.9953   -0.5026   -1.6352 C   0  0  0  0  0  0  0  0  0  0  0  0
    2.0584    0.0503   -0.9613 C   0  0  0  0  0  0  0  0  0  0  0  0
    2.4185   -0.2635    0.0160 H   0  0  0  0  0  0  0  0  0  0  0  0
    2.5859    1.0619   -1.7597 N   0  0  0  0  0  0  0  0  0  0  0  0
    3.3967    1.6335   -1.5316 H   0  0  0  0  0  0  0  0  0  0  0  0
    1.8573    1.1780   -2.9326 C   0  0  0  0  0  0  0  0  0  0  0  0
    1.9858    2.0380   -4.0233 C   0  0  0  0  0  0  0  0  0  0  0  0
    2.7783    2.7776   -4.0464 H   0  0  0  0  0  0  0  0  0  0  0  0
    1.0744    1.9364   -5.0841 C   0  0  0  0  0  0  0  0  0  0  0  0
    1.1602    2.6004   -5.9389 H   0  0  0  0  0  0  0  0  0  0  0  0
    0.0462    0.9823   -5.0393 C   0  0  0  0  0  0  0  0  0  0  0  0
   -0.6650    0.9114   -5.8565 H   0  0  0  0  0  0  0  0  0  0  0  0
   -0.0714    0.1219   -3.9385 C   0  0  0  0  0  0  0  0  0  0  0  0
   -0.8722   -0.6089   -3.8937 H   0  0  0  0  0  0  0  0  0  0  0  0
    0.8486    0.2223   -2.8903 C   0  0  0  0  0  0  0  0  0  0  0  0
   -1.3409    0.3460   -0.2550 C   0  0  0  0  0  0  0  0  0  0  0  0
   -2.2653    0.5952   -1.0251 O   0  0  0  0  0  0  0  0  0  0  0  0
   -0.8470    1.3571    0.5495 N   0  0  0  0  0  0  0  0  0  0  0  0
   -0.0581    1.1311    1.1465 H   0  0  0  0  0  0  0  0  0  0  0  0
   -1.2080    2.7569    0.3666 C   0  0  0  0  0  0  0  0  0  0  0  0
   -2.2831    2.8988    0.5191 H   0  0  0  0  0  0  0  0  0  0  0  0
   -0.6722    3.3826    1.0867 H   0  0  0  0  0  0  0  0  0  0  0  0
   -0.9475    3.0899   -0.6439 H   0  0  0  0  0  0  0  0  0  0  0  0
  1  2  1  0  0  0  0
  2  3  1  0  0  0  0
  2  4  1  0  0  0  0
  2  5  1  0  0  0  0
  5  6  2  0  0  0  0
  5  7  1  0  0  0  0
  7  8  1  0  0  0  0
  7  9  1  0  0  0  0
  9 10  1  0  0  0  0
  9 11  1  0  0  0  0
  9 29  1  0  0  0  0
 11 12  1  0  0  0  0
 11 13  1  0  0  0  0
 11 14  1  0  0  0  0
 14 15  2  0  0  0  0
 14 28  1  0  0  0  0
 15 16  1  0  0  0  0
 15 17  1  0  0  0  0
 17 18  1  0  0  0  0
 17 19  1  0  0  0  0
 19 20  1  0  0  0  0
 19 28  2  0  0  0  0
 20 21  1  0  0  0  0
 20 22  2  0  0  0  0
 22 23  1  0  0  0  0
 22 24  1  0  0  0  0
 24 25  1  0  0  0  0
 24 26  2  0  0  0  0
 26 27  1  0  0  0  0
 26 28  1  0  0  0  0
 29 30  2  0  0  0  0
 29 31  1  0  0  0  0
 31 32  1  0  0  0  0
 31 33  1  0  0  0  0
 33 34  1  0  0  0  0
 33 35  1  0  0  0  0
 33 36  1  0  0  0  0
M  END
$$$$

  -OEChem-03222214083D

 36 37  0     1  0  0  0  0  0999 V2000
   -3.7783   -4.4434    1.5182 H   0  0  0  0  0  0  0  0  0  0  0  0
   -3.7412   -3.6577    0.7585 C   0  0  0  0  0  0  0  0  0  0  0  0
   -4.5265   -2.9276    0.9683 H   0  0  0  0  0  0  0  0  0  0  0  0
   -3.9219   -4.1059   -0.2214 H   0  0  0  0  0  0  0  0  0  0  0  0
   -2.3850   -2.9787    0.7745 C   0  0  0  0  0  0  0  0  0  0  0  0
   -1.5270   -3.3414    1.5637 O   0  0  0  0  0  0  0  0  0  0  0  0
   -2.1257   -1.9460   -0.0996 N   0  0  0  0  0  0  0  0  0  0  0  0
   -2.9096   -1.5840   -0.6422 H   0  0  0  0  0  0  0  0  0  0  0  0
   -0.9223   -1.1016   -0.0485 C   0  0  1  0  0  0  0  0  0  0  0  0
   -0.4350   -1.1763    0.9289 H   0  0  0  0  0  0  0  0  0  0  0  0
    0.0741   -1.5635   -1.1317 C   0  0  0  0  0  0  0  0  0  0  0  0
    0.6976   -2.3600   -0.7135 H   0  0  0  0  0  0  0  0  0  0  0  0
   -0.4734   -1.9932   -1.9768 H   0  0  0  0  0  0  0  0  0  0  0  0
    0.9507   -0.4562   -1.6636 C   0  0  0  0  0  0  0  0  0  0  0  0
    2.1733   -0.0999   -1.1464 C   0  0  0  0  0  0  0  0  0  0  0  0
    2.6676   -0.5794   -0.3040 H   0  0  0  0  0  0  0  0  0  0  0  0
    2.6584    0.9645   -1.9023 N   0  0  0  0  0  0  0  0  0  0  0  0
    3.5558    1.4252   -1.7658 H   0  0  0  0  0  0  0  0  0  0  0  0
    1.7567    1.2970   -2.9006 C   0  0  0  0  0  0  0  0  0  0  0  0
    1.7917    2.2763   -3.8934 C   0  0  0  0  0  0  0  0  0  0  0  0
    2.6440    2.9413   -3.9766 H   0  0  0  0  0  0  0  0  0  0  0  0
    0.7099    2.3901   -4.7782 C   0  0  0  0  0  0  0  0  0  0  0  0
    0.7212    3.1486   -5.5551 H   0  0  0  0  0  0  0  0  0  0  0  0
   -0.3914    1.5284   -4.6573 C   0  0  0  0  0  0  0  0  0  0  0  0
   -1.2332    1.6229   -5.3365 H   0  0  0  0  0  0  0  0  0  0  0  0
   -0.4138    0.5469   -3.6563 C   0  0  0  0  0  0  0  0  0  0  0  0
   -1.2698   -0.1118   -3.5492 H   0  0  0  0  0  0  0  0  0  0  0  0
    0.6727    0.4348   -2.7834 C   0  0  0  0  0  0  0  0  0  0  0  0
   -1.3746    0.3677   -0.2201 C   0  0  0  0  0  0  0  0  0  0  0  0
   -2.3396    0.6234   -0.9372 O   0  0  0  0  0  0  0  0  0  0  0  0
   -0.8629    1.3617    0.5940 N   0  0  0  0  0  0  0  0  0  0  0  0
   -0.0271    1.1356    1.1238 H   0  0  0  0  0  0  0  0  0  0  0  0
   -1.2449    2.7618    0.4607 C   0  0  0  0  0  0  0  0  0  0  0  0
   -2.3214    2.8833    0.6209 H   0  0  0  0  0  0  0  0  0  0  0  0
   -0.7167    3.3697    1.2015 H   0  0  0  0  0  0  0  0  0  0  0  0
   -0.9925    3.1340   -0.5382 H   0  0  0  0  0  0  0  0  0  0  0  0
  1  2  1  0  0  0  0
  2  3  1  0  0  0  0
  2  4  1  0  0  0  0
  2  5  1  0  0  0  0
  5  6  2  0  0  0  0
  5  7  1  0  0  0  0
  7  8  1  0  0  0  0
  7  9  1  0  0  0  0
  9 10  1  0  0  0  0
  9 11  1  0  0  0  0
  9 29  1  0  0  0  0
 11 12  1  0  0  0  0
 11 13  1  0  0  0  0
 11 14  1  0  0  0  0
 14 15  2  0  0  0  0
 14 28  1  0  0  0  0
 15 16  1  0  0  0  0
 15 17  1  0  0  0  0
 17 18  1  0  0  0  0
 17 19  1  0  0  0  0
 19 20  1  0  0  0  0
 19 28  2  0  0  0  0
 20 21  1  0  0  0  0
 20 22  2  0  0  0  0
 22 23  1  0  0  0  0
 22 24  1  0  0  0  0
 24 25  1  0  0  0  0
 24 26  2  0  0  0  0
 26 27  1  0  0  0  0
 26 28  1  0  0  0  0
 29 30  2  0  0  0  0
 29 31  1  0  0  0  0
 31 32  1  0  0  0  0
 31 33  1  0  0  0  0
 33 34  1  0  0  0  0
 33 35  1  0  0  0  0
 33 36  1  0  0  0  0
M  END
$$$$

  -OEChem-03222214083D

 36 37  0     1  0  0  0  0  0999 V2000
   -3.7379   -4.4903    1.4998 H   0  0  0  0  0  0  0  0  0  0  0  0
   -3.7220   -3.6983    0.7458 C   0  0  0  0  0  0  0  0  0  0  0  0
   -4.5137   -2.9802    0.9728 H   0  0  0  0  0  0  0  0  0  0  0  0
   -3.9114   -4.1413   -0.2349 H   0  0  0  0  0  0  0  0  0  0  0  0
   -2.3741   -3.0025    0.7473 C   0  0  0  0  0  0  0  0  0  0  0  0
   -1.4792   -3.4020    1.4755 O   0  0  0  0  0  0  0  0  0  0  0  0
   -2.1602   -1.9214   -0.0798 N   0  0  0  0  0  0  0  0  0  0  0  0
   -2.9705   -1.5384   -0.5660 H   0  0  0  0  0  0  0  0  0  0  0  0
   -0.9662   -1.0635   -0.0290 C   0  0  1  0  0  0  0  0  0  0  0  0
   -0.4611   -1.1770    0.9355 H   0  0  0  0  0  0  0  0  0  0  0  0
    0.0264   -1.4866   -1.1335 C   0  0  0  0  0  0  0  0  0  0  0  0
    0.6586   -2.2904   -0.7428 H   0  0  0  0  0  0  0  0  0  0  0  0
   -0.5310   -1.8995   -1.9805 H   0  0  0  0  0  0  0  0  0  0  0  0
    0.8890   -0.3663   -1.6643 C   0  0  0  0  0  0  0  0  0  0  0  0
    2.2180   -0.1992   -1.3556 C   0  0  0  0  0  0  0  0  0  0  0  0
    2.7919   -0.8271   -0.6772 H   0  0  0  0  0  0  0  0  0  0  0  0
    2.6855    0.9035   -2.0652 N   0  0  0  0  0  0  0  0  0  0  0  0
    3.6398    1.2575   -2.0445 H   0  0  0  0  0  0  0  0  0  0  0  0
    1.6794    1.4235   -2.8621 C   0  0  0  0  0  0  0  0  0  0  0  0
    1.6713    2.4933   -3.7571 C   0  0  0  0  0  0  0  0  0  0  0  0
    2.5661    3.0859   -3.9093 H   0  0  0  0  0  0  0  0  0  0  0  0
    0.4940    2.7881   -4.4579 C   0  0  0  0  0  0  0  0  0  0  0  0
    0.4708    3.6190   -5.1565 H   0  0  0  0  0  0  0  0  0  0  0  0
   -0.6548    2.0078   -4.2598 C   0  0  0  0  0  0  0  0  0  0  0  0
   -1.5671    2.2344   -4.8033 H   0  0  0  0  0  0  0  0  0  0  0  0
   -0.6332    0.9348   -3.3577 C   0  0  0  0  0  0  0  0  0  0  0  0
   -1.5236    0.3342   -3.2007 H   0  0  0  0  0  0  0  0  0  0  0  0
    0.5415    0.6522   -2.6521 C   0  0  0  0  0  0  0  0  0  0  0  0
   -1.4234    0.4117   -0.1050 C   0  0  0  0  0  0  0  0  0  0  0  0
   -2.4363    0.6974   -0.7399 O   0  0  0  0  0  0  0  0  0  0  0  0
   -0.8795    1.3602    0.7423 N   0  0  0  0  0  0  0  0  0  0  0  0
   -0.0094    1.1124    1.2034 H   0  0  0  0  0  0  0  0  0  0  0  0
   -1.2622    2.7660    0.6960 C   0  0  0  0  0  0  0  0  0  0  0  0
   -2.3363    2.8794    0.8768 H   0  0  0  0  0  0  0  0  0  0  0  0
   -0.7240    3.3292    1.4643 H   0  0  0  0  0  0  0  0  0  0  0  0
   -1.0214    3.1946   -0.2828 H   0  0  0  0  0  0  0  0  0  0  0  0
  1  2  1  0  0  0  0
  2  3  1  0  0  0  0
  2  4  1  0  0  0  0
  2  5  1  0  0  0  0
  5  6  2  0  0  0  0
  5  7  1  0  0  0  0
  7  8  1  0  0  0  0
  7  9  1  0  0  0  0
  9 10  1  0  0  0  0
  9 11  1  0  0  0  0
  9 29  1  0  0  0  0
 11 12  1  0  0  0  0
 11 13  1  0  0  0  0
 11 14  1  0  0  0  0
 14 15  2  0  0  0  0
 14 28  1  0  0  0  0
 15 16  1  0  0  0  0
 15 17  1  0  0  0  0
 17 18  1  0  0  0  0
 17 19  1  0  0  0  0
 19 20  1  0  0  0  0
 19 28  2  0  0  0  0
 20 21  1  0  0  0  0
 20 22  2  0  0  0  0
 22 23  1  0  0  0  0
 22 24  1  0  0  0  0
 24 25  1  0  0  0  0
 24 26  2  0  0  0  0
 26 27  1  0  0  0  0
 26 28  1  0  0  0  0
 29 30  2  0  0  0  0
 29 31  1  0  0  0  0
 31 32  1  0  0  0  0
 31 33  1  0  0  0  0
 33 34  1  0  0  0  0
 33 35  1  0  0  0  0
 33 36  1  0  0  0  0
M  END
$$$$

  -OEChem-03222214083D

 36 37  0     1  0  0  0  0  0999 V2000
   -3.6707   -4.5692    1.4440 H   0  0  0  0  0  0  0  0  0  0  0  0
   -3.6981   -3.7318    0.7413 C   0  0  0  0  0  0  0  0  0  0  0  0
   -4.4725   -3.0297    1.0601 H   0  0  0  0  0  0  0  0  0  0  0  0
   -3.9472   -4.1127   -0.2521 H   0  0  0  0  0  0  0  0  0  0  0  0
   -2.3509   -3.0357    0.7054 C   0  0  0  0  0  0  0  0  0  0  0  0
   -1.4179   -3.4724    1.3608 O   0  0  0  0  0  0  0  0  0  0  0  0
   -2.1843   -1.9054   -0.0648 N   0  0  0  0  0  0  0  0  0  0  0  0
   -3.0232   -1.4961   -0.4752 H   0  0  0  0  0  0  0  0  0  0  0  0
   -1.0018   -1.0320   -0.0050 C   0  0  1  0  0  0  0  0  0  0  0  0
   -0.4842   -1.1855    0.9475 H   0  0  0  0  0  0  0  0  0  0  0  0
   -0.0017   -1.4080   -1.1227 C   0  0  0  0  0  0  0  0  0  0  0  0
    0.6356   -2.2200   -0.7579 H   0  0  0  0  0  0  0  0  0  0  0  0
   -0.5649   -1.8027   -1.9748 H   0  0  0  0  0  0  0  0  0  0  0  0
    0.8547   -0.2774   -1.6511 C   0  0  0  0  0  0  0  0  0  0  0  0
    2.2284   -0.2890   -1.5813 C   0  0  0  0  0  0  0  0  0  0  0  0
    2.8270   -1.0532   -1.0901 H   0  0  0  0  0  0  0  0  0  0  0  0
    2.7056    0.8435   -2.2325 N   0  0  0  0  0  0  0  0  0  0  0  0
    3.6868    1.0923   -2.3418 H   0  0  0  0  0  0  0  0  0  0  0  0
    1.6567    1.5435   -2.8006 C   0  0  0  0  0  0  0  0  0  0  0  0
    1.6474    2.6974   -3.5844 C   0  0  0  0  0  0  0  0  0  0  0  0
    2.5728    3.2162   -3.8080 H   0  0  0  0  0  0  0  0  0  0  0  0
    0.4286    3.1694   -4.0879 C   0  0  0  0  0  0  0  0  0  0  0  0
    0.4024    4.0667   -4.6989 H   0  0  0  0  0  0  0  0  0  0  0  0
   -0.7571    2.4724   -3.8166 C   0  0  0  0  0  0  0  0  0  0  0  0
   -1.7015    2.8268   -4.2184 H   0  0  0  0  0  0  0  0  0  0  0  0
   -0.7312    1.3126   -3.0300 C   0  0  0  0  0  0  0  0  0  0  0  0
   -1.6513    0.7692   -2.8447 H   0  0  0  0  0  0  0  0  0  0  0  0
    0.4817    0.8629   -2.4938 C   0  0  0  0  0  0  0  0  0  0  0  0
   -1.4712    0.4397    0.0219 C   0  0  0  0  0  0  0  0  0  0  0  0
   -2.5392    0.7400   -0.5079 O   0  0  0  0  0  0  0  0  0  0  0  0
   -0.9006    1.3378    0.9053 N   0  0  0  0  0  0  0  0  0  0  0  0
    0.0041    1.0842    1.2910 H   0  0  0  0  0  0  0  0  0  0  0  0
   -1.3308    2.7269    1.0031 C   0  0  0  0  0  0  0  0  0  0  0  0
   -2.3856    2.7840    1.2922 H   0  0  0  0  0  0  0  0  0  0  0  0
   -0.7393    3.2525    1.7585 H   0  0  0  0  0  0  0  0  0  0  0  0
   -1.1994    3.2358    0.0421 H   0  0  0  0  0  0  0  0  0  0  0  0
  1  2  1  0  0  0  0
  2  3  1  0  0  0  0
  2  4  1  0  0  0  0
  2  5  1  0  0  0  0
  5  6  2  0  0  0  0
  5  7  1  0  0  0  0
  7  8  1  0  0  0  0
  7  9  1  0  0  0  0
  9 10  1  0  0  0  0
  9 11  1  0  0  0  0
  9 29  1  0  0  0  0
 11 12  1  0  0  0  0
 11 13  1  0  0  0  0
 11 14  1  0  0  0  0
 14 15  2  0  0  0  0
 14 28  1  0  0  0  0
 15 16  1  0  0  0  0
 15 17  1  0  0  0  0
 17 18  1  0  0  0  0
 17 19  1  0  0  0  0
 19 20  1  0  0  0  0
 19 28  2  0  0  0  0
 20 21  1  0  0  0  0
 20 22  2  0  0  0  0
 22 23  1  0  0  0  0
 22 24  1  0  0  0  0
 24 25  1  0  0  0  0
 24 26  2  0  0  0  0
 26 27  1  0  0  0  0
 26 28  1  0  0  0  0
 29 30  2  0  0  0  0
 29 31  1  0  0  0  0
 31 32  1  0  0  0  0
 31 33  1  0  0  0  0
 33 34  1  0  0  0  0
 33 35  1  0  0  0  0
 33 36  1  0  0  0  0
M  END
$$$$

  -OEChem-03222214083D

 36 37  0     1  0  0  0  0  0999 V2000
   -3.6189   -4.7472    1.1636 H   0  0  0  0  0  0  0  0  0  0  0  0
   -3.6717   -3.8549    0.5336 C   0  0  0  0  0  0  0  0  0  0  0  0
   -4.4654   -3.2050    0.9103 H   0  0  0  0  0  0  0  0  0  0  0  0
   -3.9118   -4.1583   -0.4882 H   0  0  0  0  0  0  0  0  0  0  0  0
   -2.3453   -3.1190    0.5560 C   0  0  0  0  0  0  0  0  0  0  0  0
   -1.3987   -3.5810    1.1736 O   0  0  0  0  0  0  0  0  0  0  0  0
   -2.2124   -1.9271   -0.1231 N   0  0  0  0  0  0  0  0  0  0  0  0
   -3.0647   -1.5123   -0.4990 H   0  0  0  0  0  0  0  0  0  0  0  0
   -1.0604   -1.0211    0.0125 C   0  0  1  0  0  0  0  0  0  0  0  0
   -0.5672   -1.2248    0.9684 H   0  0  0  0  0  0  0  0  0  0  0  0
   -0.0045   -1.3163   -1.0795 C   0  0  0  0  0  0  0  0  0  0  0  0
    0.6306   -2.1358   -0.7274 H   0  0  0  0  0  0  0  0  0  0  0  0
   -0.5373   -1.6850   -1.9619 H   0  0  0  0  0  0  0  0  0  0  0  0
    0.8602   -0.1679   -1.5657 C   0  0  0  0  0  0  0  0  0  0  0  0
    2.2194   -0.3310   -1.7132 C   0  0  0  0  0  0  0  0  0  0  0  0
    2.7810   -1.2134   -1.4127 H   0  0  0  0  0  0  0  0  0  0  0  0
    2.7460    0.8250   -2.2751 N   0  0  0  0  0  0  0  0  0  0  0  0
    3.7284    0.9824   -2.4914 H   0  0  0  0  0  0  0  0  0  0  0  0
    1.7248    1.6890   -2.6167 C   0  0  0  0  0  0  0  0  0  0  0  0
    1.7729    2.9202   -3.2699 C   0  0  0  0  0  0  0  0  0  0  0  0
    2.7261    3.3621   -3.5374 H   0  0  0  0  0  0  0  0  0  0  0  0
    0.5743    3.5658   -3.5931 C   0  0  0  0  0  0  0  0  0  0  0  0
    0.5911    4.5249   -4.1022 H   0  0  0  0  0  0  0  0  0  0  0  0
   -0.6486    2.9556   -3.2865 C   0  0  0  0  0  0  0  0  0  0  0  0
   -1.5813    3.4369   -3.5650 H   0  0  0  0  0  0  0  0  0  0  0  0
   -0.6768    1.7156   -2.6331 C   0  0  0  0  0  0  0  0  0  0  0  0
   -1.6333    1.2413   -2.4547 H   0  0  0  0  0  0  0  0  0  0  0  0
    0.5195    1.0940   -2.2466 C   0  0  0  0  0  0  0  0  0  0  0  0
   -1.5631    0.4307    0.1498 C   0  0  0  0  0  0  0  0  0  0  0  0
   -2.6549    0.7336   -0.3273 O   0  0  0  0  0  0  0  0  0  0  0  0
   -1.0149    1.2683    1.1041 N   0  0  0  0  0  0  0  0  0  0  0  0
   -0.0969    1.0142    1.4574 H   0  0  0  0  0  0  0  0  0  0  0  0
   -1.4867    2.6300    1.3214 C   0  0  0  0  0  0  0  0  0  0  0  0
   -2.5377    2.6286    1.6288 H   0  0  0  0  0  0  0  0  0  0  0  0
   -0.8987    3.1118    2.1084 H   0  0  0  0  0  0  0  0  0  0  0  0
   -1.3875    3.2191    0.4036 H   0  0  0  0  0  0  0  0  0  0  0  0
  1  2  1  0  0  0  0
  2  3  1  0  0  0  0
  2  4  1  0  0  0  0
  2  5  1  0  0  0  0
  5  6  2  0  0  0  0
  5  7  1  0  0  0  0
  7  8  1  0  0  0  0
  7  9  1  0  0  0  0
  9 10  1  0  0  0  0
  9 11  1  0  0  0  0
  9 29  1  0  0  0  0
 11 12  1  0  0  0  0
 11 13  1  0  0  0  0
 11 14  1  0  0  0  0
 14 15  2  0  0  0  0
 14 28  1  0  0  0  0
 15 16  1  0  0  0  0
 15 17  1  0  0  0  0
 17 18  1  0  0  0  0
 17 19  1  0  0  0  0
 19 20  1  0  0  0  0
 19 28  2  0  0  0  0
 20 21  1  0  0  0  0
 20 22  2  0  0  0  0
 22 23  1  0  0  0  0
 22 24  1  0  0  0  0
 24 25  1  0  0  0  0
 24 26  2  0  0  0  0
 26 27  1  0  0  0  0
 26 28  1  0  0  0  0
 29 30  2  0  0  0  0
 29 31  1  0  0  0  0
 31 32  1  0  0  0  0
 31 33  1  0  0  0  0
 33 34  1  0  0  0  0
 33 35  1  0  0  0  0
 33 36  1  0  0  0  0
M  END
$$$$

  -OEChem-03222214083D

 36 37  0     1  0  0  0  0  0999 V2000
   -3.5024   -4.8654    1.1168 H   0  0  0  0  0  0  0  0  0  0  0  0
   -3.6015   -3.9423    0.5388 C   0  0  0  0  0  0  0  0  0  0  0  0
   -4.4068   -3.3423    0.9697 H   0  0  0  0  0  0  0  0  0  0  0  0
   -3.8579   -4.1974   -0.4923 H   0  0  0  0  0  0  0  0  0  0  0  0
   -2.3007   -3.1624    0.5703 C   0  0  0  0  0  0  0  0  0  0  0  0
   -1.3317   -3.6101    1.1631 O   0  0  0  0  0  0  0  0  0  0  0  0
   -2.2165   -1.9468   -0.0731 N   0  0  0  0  0  0  0  0  0  0  0  0
   -3.0859   -1.5518   -0.4310 H   0  0  0  0  0  0  0  0  0  0  0  0
   -1.0923   -1.0069    0.0718 C   0  0  1  0  0  0  0  0  0  0  0  0
   -0.5797   -1.2190    1.0158 H   0  0  0  0  0  0  0  0  0  0  0  0
   -0.0429   -1.2565   -1.0383 C   0  0  0  0  0  0  0  0  0  0  0  0
    0.5978   -2.0796   -0.7039 H   0  0  0  0  0  0  0  0  0  0  0  0
   -0.5936   -1.6238   -1.9106 H   0  0  0  0  0  0  0  0  0  0  0  0
    0.8290   -0.1273   -1.5751 C   0  0  0  0  0  0  0  0  0  0  0  0
    2.0872   -0.4692   -2.0212 C   0  0  0  0  0  0  0  0  0  0  0  0
    2.5305   -1.4597   -1.9410 H   0  0  0  0  0  0  0  0  0  0  0  0
    2.7062    0.6586   -2.5358 N   0  0  0  0  0  0  0  0  0  0  0  0
    3.6477    0.6938   -2.9211 H   0  0  0  0  0  0  0  0  0  0  0  0
    1.8155    1.7092   -2.5550 C   0  0  0  0  0  0  0  0  0  0  0  0
    1.9995    2.9963   -3.0588 C   0  0  0  0  0  0  0  0  0  0  0  0
    2.9651    3.3010   -3.4467 H   0  0  0  0  0  0  0  0  0  0  0  0
    0.9165    3.8787   -3.0773 C   0  0  0  0  0  0  0  0  0  0  0  0
    1.0368    4.8847   -3.4682 H   0  0  0  0  0  0  0  0  0  0  0  0
   -0.3341    3.4437   -2.6268 C   0  0  0  0  0  0  0  0  0  0  0  0
   -1.1909    4.1087   -2.6780 H   0  0  0  0  0  0  0  0  0  0  0  0
   -0.4960    2.1436   -2.1281 C   0  0  0  0  0  0  0  0  0  0  0  0
   -1.4951    1.8382   -1.8593 H   0  0  0  0  0  0  0  0  0  0  0  0
    0.5984    1.2666   -2.0299 C   0  0  0  0  0  0  0  0  0  0  0  0
   -1.6474    0.4157    0.2601 C   0  0  0  0  0  0  0  0  0  0  0  0
   -2.7554    0.6895   -0.1975 O   0  0  0  0  0  0  0  0  0  0  0  0
   -1.1183    1.2471    1.2307 N   0  0  0  0  0  0  0  0  0  0  0  0
   -0.1893    1.0171    1.5726 H   0  0  0  0  0  0  0  0  0  0  0  0
   -1.6615    2.5660    1.5314 C   0  0  0  0  0  0  0  0  0  0  0  0
   -2.6995    2.4858    1.8710 H   0  0  0  0  0  0  0  0  0  0  0  0
   -1.0771    3.0431    2.3239 H   0  0  0  0  0  0  0  0  0  0  0  0
   -1.6283    3.2059    0.6433 H   0  0  0  0  0  0  0  0  0  0  0  0
  1  2  1  0  0  0  0
  2  3  1  0  0  0  0
  2  4  1  0  0  0  0
  2  5  1  0  0  0  0
  5  6  2  0  0  0  0
  5  7  1  0  0  0  0
  7  8  1  0  0  0  0
  7  9  1  0  0  0  0
  9 10  1  0  0  0  0
  9 11  1  0  0  0  0
  9 29  1  0  0  0  0
 11 12  1  0  0  0  0
 11 13  1  0  0  0  0
 11 14  1  0  0  0  0
 14 15  2  0  0  0  0
 14 28  1  0  0  0  0
 15 16  1  0  0  0  0
 15 17  1  0  0  0  0
 17 18  1  0  0  0  0
 17 19  1  0  0  0  0
 19 20  1  0  0  0  0
 19 28  2  0  0  0  0
 20 21  1  0  0  0  0
 20 22  2  0  0  0  0
 22 23  1  0  0  0  0
 22 24  1  0  0  0  0
 24 25  1  0  0  0  0
 24 26  2  0  0  0  0
 26 27  1  0  0  0  0
 26 28  1  0  0  0  0
 29 30  2  0  0  0  0
 29 31  1  0  0  0  0
 31 32  1  0  0  0  0
 31 33  1  0  0  0  0
 33 34  1  0  0  0  0
 33 35  1  0  0  0  0
 33 36  1  0  0  0  0
M  END
$$$$

  -OEChem-03222214083D

 36 37  0     1  0  0  0  0  0999 V2000
   -3.3013   -4.9524    1.1528 H   0  0  0  0  0  0  0  0  0  0  0  0
   -3.4418   -4.0314    0.5800 C   0  0  0  0  0  0  0  0  0  0  0  0
   -4.2987   -3.4900    0.9883 H   0  0  0  0  0  0  0  0  0  0  0  0
   -3.6458   -4.2919   -0.4614 H   0  0  0  0  0  0  0  0  0  0  0  0
   -2.1964   -3.1695    0.6625 C   0  0  0  0  0  0  0  0  0  0  0  0
   -1.2235   -3.5580    1.2890 O   0  0  0  0  0  0  0  0  0  0  0  0
   -2.1621   -1.9503    0.0211 N   0  0  0  0  0  0  0  0  0  0  0  0
   -3.0337   -1.6106   -0.3847 H   0  0  0  0  0  0  0  0  0  0  0  0
   -1.0825   -0.9599    0.1716 C   0  0  1  0  0  0  0  0  0  0  0  0
   -0.5433   -1.1467    1.1062 H   0  0  0  0  0  0  0  0  0  0  0  0
   -0.0630   -1.1843   -0.9730 C   0  0  0  0  0  0  0  0  0  0  0  0
    0.5978   -1.9936   -0.6435 H   0  0  0  0  0  0  0  0  0  0  0  0
   -0.6398   -1.5777   -1.8170 H   0  0  0  0  0  0  0  0  0  0  0  0
    0.8010   -0.0910   -1.6002 C   0  0  0  0  0  0  0  0  0  0  0  0
    1.8567   -0.5617   -2.3524 C   0  0  0  0  0  0  0  0  0  0  0  0
    2.1251   -1.6105   -2.4635 H   0  0  0  0  0  0  0  0  0  0  0  0
    2.5425    0.5092   -2.8969 N   0  0  0  0  0  0  0  0  0  0  0  0
    3.3728    0.4473   -3.4824 H   0  0  0  0  0  0  0  0  0  0  0  0
    1.8860    1.6797   -2.5932 C   0  0  0  0  0  0  0  0  0  0  0  0
    2.2198    2.9714   -2.9972 C   0  0  0  0  0  0  0  0  0  0  0  0
    3.1172    3.1503   -3.5788 H   0  0  0  0  0  0  0  0  0  0  0  0
    1.3719    4.0270   -2.6588 C   0  0  0  0  0  0  0  0  0  0  0  0
    1.6108    5.0411   -2.9650 H   0  0  0  0  0  0  0  0  0  0  0  0
    0.1950    3.7622   -1.9531 C   0  0  0  0  0  0  0  0  0  0  0  0
   -0.4904    4.5719   -1.7210 H   0  0  0  0  0  0  0  0  0  0  0  0
   -0.1199    2.4532   -1.5605 C   0  0  0  0  0  0  0  0  0  0  0  0
   -1.0720    2.3149   -1.0781 H   0  0  0  0  0  0  0  0  0  0  0  0
    0.7501    1.3799   -1.8314 C   0  0  0  0  0  0  0  0  0  0  0  0
   -1.7181    0.4243    0.3560 C   0  0  0  0  0  0  0  0  0  0  0  0
   -2.7868    0.6860   -0.1902 O   0  0  0  0  0  0  0  0  0  0  0  0
   -1.2404    1.2775    1.3358 N   0  0  0  0  0  0  0  0  0  0  0  0
   -0.3720    1.0193    1.7967 H   0  0  0  0  0  0  0  0  0  0  0  0
   -1.9200    2.4996    1.7487 C   0  0  0  0  0  0  0  0  0  0  0  0
   -2.0788    3.1644    0.8936 H   0  0  0  0  0  0  0  0  0  0  0  0
   -1.3175    3.0330    2.4903 H   0  0  0  0  0  0  0  0  0  0  0  0
   -2.8913    2.2636    2.1958 H   0  0  0  0  0  0  0  0  0  0  0  0
  1  2  1  0  0  0  0
  2  3  1  0  0  0  0
  2  4  1  0  0  0  0
  2  5  1  0  0  0  0
  5  6  2  0  0  0  0
  5  7  1  0  0  0  0
  7  8  1  0  0  0  0
  7  9  1  0  0  0  0
  9 10  1  0  0  0  0
  9 11  1  0  0  0  0
  9 29  1  0  0  0  0
 11 12  1  0  0  0  0
 11 13  1  0  0  0  0
 11 14  1  0  0  0  0
 14 15  2  0  0  0  0
 14 28  1  0  0  0  0
 15 16  1  0  0  0  0
 15 17  1  0  0  0  0
 17 18  1  0  0  0  0
 17 19  1  0  0  0  0
 19 20  1  0  0  0  0
 19 28  2  0  0  0  0
 20 21  1  0  0  0  0
 20 22  2  0  0  0  0
 22 23  1  0  0  0  0
 22 24  1  0  0  0  0
 24 25  1  0  0  0  0
 24 26  2  0  0  0  0
 26 27  1  0  0  0  0
 26 28  1  0  0  0  0
 29 30  2  0  0  0  0
 29 31  1  0  0  0  0
 31 32  1  0  0  0  0
 31 33  1  0  0  0  0
 33 34  1  0  0  0  0
 33 35  1  0  0  0  0
 33 36  1  0  0  0  0
M  END
$$$$

  -OEChem-03222214083D

 36 37  0     1  0  0  0  0  0999 V2000
   -3.4132   -4.6297    1.5696 H   0  0  0  0  0  0  0  0  0  0  0  0
   -3.4682   -3.8612    0.7935 C   0  0  0  0  0  0  0  0  0  0  0  0
   -4.3808   -3.2779    0.9388 H   0  0  0  0  0  0  0  0  0  0  0  0
   -3.5072   -4.3491   -0.1835 H   0  0  0  0  0  0  0  0  0  0  0  0
   -2.2552   -2.9538    0.8707 C   0  0  0  0  0  0  0  0  0  0  0  0
   -1.4046   -3.1383    1.7262 O   0  0  0  0  0  0  0  0  0  0  0  0
   -2.1213   -1.9119   -0.0200 N   0  0  0  0  0  0  0  0  0  0  0  0
   -2.9131   -1.7077   -0.6304 H   0  0  0  0  0  0  0  0  0  0  0  0
   -1.0711   -0.8829    0.0574 C   0  0  1  0  0  0  0  0  0  0  0  0
   -0.5486   -0.8637    1.0182 H   0  0  0  0  0  0  0  0  0  0  0  0
   -0.1132   -1.1788   -1.1151 C   0  0  0  0  0  0  0  0  0  0  0  0
    0.4385   -2.0910   -0.8652 H   0  0  0  0  0  0  0  0  0  0  0  0
   -0.7177   -1.3991   -2.0020 H   0  0  0  0  0  0  0  0  0  0  0  0
    0.8944   -0.1221   -1.5254 C   0  0  0  0  0  0  0  0  0  0  0  0
    1.7426   -0.3709   -2.5809 C   0  0  0  0  0  0  0  0  0  0  0  0
    1.6536   -1.2122   -3.2650 H   0  0  0  0  0  0  0  0  0  0  0  0
    2.6773    0.6525   -2.6585 N   0  0  0  0  0  0  0  0  0  0  0  0
    3.4030    0.7376   -3.3671 H   0  0  0  0  0  0  0  0  0  0  0  0
    2.5718    1.4620   -1.5475 C   0  0  0  0  0  0  0  0  0  0  0  0
    3.3718    2.5308   -1.1454 C   0  0  0  0  0  0  0  0  0  0  0  0
    4.1630    2.8968   -1.7904 H   0  0  0  0  0  0  0  0  0  0  0  0
    3.1611    3.0992    0.1151 C   0  0  0  0  0  0  0  0  0  0  0  0
    3.7773    3.9294    0.4481 H   0  0  0  0  0  0  0  0  0  0  0  0
    2.1885    2.5588    0.9655 C   0  0  0  0  0  0  0  0  0  0  0  0
    2.0647    2.9617    1.9663 H   0  0  0  0  0  0  0  0  0  0  0  0
    1.3960    1.4837    0.5384 C   0  0  0  0  0  0  0  0  0  0  0  0
    0.7137    1.0307    1.2420 H   0  0  0  0  0  0  0  0  0  0  0  0
    1.5302    0.9713   -0.7607 C   0  0  0  0  0  0  0  0  0  0  0  0
   -1.8478    0.4431   -0.1886 C   0  0  0  0  0  0  0  0  0  0  0  0
   -2.7337    0.4650   -1.0417 O   0  0  0  0  0  0  0  0  0  0  0  0
   -1.6647    1.5856    0.5689 N   0  0  0  0  0  0  0  0  0  0  0  0
   -0.9222    1.5780    1.2585 H   0  0  0  0  0  0  0  0  0  0  0  0
   -2.3643    2.8394    0.3162 C   0  0  0  0  0  0  0  0  0  0  0  0
   -3.4465    2.7022    0.4122 H   0  0  0  0  0  0  0  0  0  0  0  0
   -2.0480    3.5992    1.0372 H   0  0  0  0  0  0  0  0  0  0  0  0
   -2.1418    3.2054   -0.6916 H   0  0  0  0  0  0  0  0  0  0  0  0
  1  2  1  0  0  0  0
  2  3  1  0  0  0  0
  2  4  1  0  0  0  0
  2  5  1  0  0  0  0
  5  6  2  0  0  0  0
  5  7  1  0  0  0  0
  7  8  1  0  0  0  0
  7  9  1  0  0  0  0
  9 10  1  0  0  0  0
  9 11  1  0  0  0  0
  9 29  1  0  0  0  0
 11 12  1  0  0  0  0
 11 13  1  0  0  0  0
 11 14  1  0  0  0  0
 14 15  2  0  0  0  0
 14 28  1  0  0  0  0
 15 16  1  0  0  0  0
 15 17  1  0  0  0  0
 17 18  1  0  0  0  0
 17 19  1  0  0  0  0
 19 20  1  0  0  0  0
 19 28  2  0  0  0  0
 20 21  1  0  0  0  0
 20 22  2  0  0  0  0
 22 23  1  0  0  0  0
 22 24  1  0  0  0  0
 24 25  1  0  0  0  0
 24 26  2  0  0  0  0
 26 27  1  0  0  0  0
 26 28  1  0  0  0  0
 29 30  2  0  0  0  0
 29 31  1  0  0  0  0
 31 32  1  0  0  0  0
 31 33  1  0  0  0  0
 33 34  1  0  0  0  0
 33 35  1  0  0  0  0
 33 36  1  0  0  0  0
M  END
$$$$

  -OEChem-03222214083D

 36 37  0     1  0  0  0  0  0999 V2000
   -3.4627   -4.6042    1.6318 H   0  0  0  0  0  0  0  0  0  0  0  0
   -3.5396   -3.8058    0.8884 C   0  0  0  0  0  0  0  0  0  0  0  0
   -4.3964   -3.1749    1.1369 H   0  0  0  0  0  0  0  0  0  0  0  0
   -3.6991   -4.2541   -0.0952 H   0  0  0  0  0  0  0  0  0  0  0  0
   -2.2694   -2.9766    0.8798 C   0  0  0  0  0  0  0  0  0  0  0  0
   -1.3475   -3.2622    1.6267 O   0  0  0  0  0  0  0  0  0  0  0  0
   -2.1618   -1.8955    0.0325 N   0  0  0  0  0  0  0  0  0  0  0  0
   -3.0007   -1.6105   -0.4728 H   0  0  0  0  0  0  0  0  0  0  0  0
   -1.0551   -0.9255    0.0611 C   0  0  1  0  0  0  0  0  0  0  0  0
   -0.4747   -0.9975    0.9842 H   0  0  0  0  0  0  0  0  0  0  0  0
   -0.1736   -1.1906   -1.1727 C   0  0  0  0  0  0  0  0  0  0  0  0
    0.3779   -2.1197   -0.9969 H   0  0  0  0  0  0  0  0  0  0  0  0
   -0.8217   -1.3541   -2.0405 H   0  0  0  0  0  0  0  0  0  0  0  0
    0.8233   -0.1088   -1.5349 C   0  0  0  0  0  0  0  0  0  0  0  0
    1.4284   -0.0835   -2.7697 C   0  0  0  0  0  0  0  0  0  0  0  0
    1.1620   -0.7217   -3.6097 H   0  0  0  0  0  0  0  0  0  0  0  0
    2.3973    0.9122   -2.7654 N   0  0  0  0  0  0  0  0  0  0  0  0
    2.9833    1.1688   -3.5573 H   0  0  0  0  0  0  0  0  0  0  0  0
    2.5336    1.4310   -1.4932 C   0  0  0  0  0  0  0  0  0  0  0  0
    3.4360    2.3735   -1.0015 C   0  0  0  0  0  0  0  0  0  0  0  0
    4.1310    2.8679   -1.6711 H   0  0  0  0  0  0  0  0  0  0  0  0
    3.4496    2.6515    0.3697 C   0  0  0  0  0  0  0  0  0  0  0  0
    4.1488    3.3797    0.7701 H   0  0  0  0  0  0  0  0  0  0  0  0
    2.5865    1.9595    1.2289 C   0  0  0  0  0  0  0  0  0  0  0  0
    2.6289    2.1446    2.2983 H   0  0  0  0  0  0  0  0  0  0  0  0
    1.6871    1.0140    0.7163 C   0  0  0  0  0  0  0  0  0  0  0  0
    1.0736    0.4532    1.4091 H   0  0  0  0  0  0  0  0  0  0  0  0
    1.6166    0.7830   -0.6673 C   0  0  0  0  0  0  0  0  0  0  0  0
   -1.7225    0.4723   -0.0425 C   0  0  0  0  0  0  0  0  0  0  0  0
   -2.7023    0.6108   -0.7723 O   0  0  0  0  0  0  0  0  0  0  0  0
   -1.3519    1.5355    0.7608 N   0  0  0  0  0  0  0  0  0  0  0  0
   -0.4632    1.4529    1.2432 H   0  0  0  0  0  0  0  0  0  0  0  0
   -1.9343    2.8651    0.6296 C   0  0  0  0  0  0  0  0  0  0  0  0
   -3.0184    2.8271    0.7789 H   0  0  0  0  0  0  0  0  0  0  0  0
   -1.5081    3.5388    1.3791 H   0  0  0  0  0  0  0  0  0  0  0  0
   -1.7284    3.2766   -0.3641 H   0  0  0  0  0  0  0  0  0  0  0  0
  1  2  1  0  0  0  0
  2  3  1  0  0  0  0
  2  4  1  0  0  0  0
  2  5  1  0  0  0  0
  5  6  2  0  0  0  0
  5  7  1  0  0  0  0
  7  8  1  0  0  0  0
  7  9  1  0  0  0  0
  9 10  1  0  0  0  0
  9 11  1  0  0  0  0
  9 29  1  0  0  0  0
 11 12  1  0  0  0  0
 11 13  1  0  0  0  0
 11 14  1  0  0  0  0
 14 15  2  0  0  0  0
 14 28  1  0  0  0  0
 15 16  1  0  0  0  0
 15 17  1  0  0  0  0
 17 18  1  0  0  0  0
 17 19  1  0  0  0  0
 19 20  1  0  0  0  0
 19 28  2  0  0  0  0
 20 21  1  0  0  0  0
 20 22  2  0  0  0  0
 22 23  1  0  0  0  0
 22 24  1  0  0  0  0
 24 25  1  0  0  0  0
 24 26  2  0  0  0  0
 26 27  1  0  0  0  0
 26 28  1  0  0  0  0
 29 30  2  0  0  0  0
 29 31  1  0  0  0  0
 31 32  1  0  0  0  0
 31 33  1  0  0  0  0
 33 34  1  0  0  0  0
 33 35  1  0  0  0  0
 33 36  1  0  0  0  0
M  END
$$$$

  -OEChem-03222214083D

 36 37  0     1  0  0  0  0  0999 V2000
   -3.6037   -4.5555    1.5563 H   0  0  0  0  0  0  0  0  0  0  0  0
   -3.6107   -3.7848    0.7804 C   0  0  0  0  0  0  0  0  0  0  0  0
   -4.4770   -3.1371    0.9347 H   0  0  0  0  0  0  0  0  0  0  0  0
   -3.6947   -4.2686   -0.1957 H   0  0  0  0  0  0  0  0  0  0  0  0
   -2.3348   -2.9671    0.8451 C   0  0  0  0  0  0  0  0  0  0  0  0
   -1.4894   -3.2188    1.6888 O   0  0  0  0  0  0  0  0  0  0  0  0
   -2.1346   -1.9382   -0.0494 N   0  0  0  0  0  0  0  0  0  0  0  0
   -2.9198   -1.6761   -0.6447 H   0  0  0  0  0  0  0  0  0  0  0  0
   -1.0211   -0.9798    0.0237 C   0  0  1  0  0  0  0  0  0  0  0  0
   -0.5522   -1.0058    1.0092 H   0  0  0  0  0  0  0  0  0  0  0  0
    0.0041   -1.3348   -1.0666 C   0  0  0  0  0  0  0  0  0  0  0  0
    0.5330   -2.2416   -0.7564 H   0  0  0  0  0  0  0  0  0  0  0  0
   -0.5272   -1.5652   -1.9961 H   0  0  0  0  0  0  0  0  0  0  0  0
    1.0243   -0.2538   -1.3516 C   0  0  0  0  0  0  0  0  0  0  0  0
    1.5940   -0.0757   -2.5897 C   0  0  0  0  0  0  0  0  0  0  0  0
    1.3158   -0.6148   -3.4928 H   0  0  0  0  0  0  0  0  0  0  0  0
    2.5538    0.9246   -2.4841 N   0  0  0  0  0  0  0  0  0  0  0  0
    3.1213    1.2798   -3.2510 H   0  0  0  0  0  0  0  0  0  0  0  0
    2.6818    1.3250   -1.1673 C   0  0  0  0  0  0  0  0  0  0  0  0
    3.5466    2.2498   -0.5836 C   0  0  0  0  0  0  0  0  0  0  0  0
    4.2357    2.8173   -1.1992 H   0  0  0  0  0  0  0  0  0  0  0  0
    3.5246    2.4214    0.8054 C   0  0  0  0  0  0  0  0  0  0  0  0
    4.1937    3.1366    1.2751 H   0  0  0  0  0  0  0  0  0  0  0  0
    2.6591    1.6481    1.5909 C   0  0  0  0  0  0  0  0  0  0  0  0
    2.6674    1.7584    2.6714 H   0  0  0  0  0  0  0  0  0  0  0  0
    1.7971    0.7201    0.9898 C   0  0  0  0  0  0  0  0  0  0  0  0
    1.1678    0.1047    1.6212 H   0  0  0  0  0  0  0  0  0  0  0  0
    1.7790    0.5848   -0.4076 C   0  0  0  0  0  0  0  0  0  0  0  0
   -1.6086    0.4327   -0.2147 C   0  0  0  0  0  0  0  0  0  0  0  0
   -2.5203    0.5715   -1.0269 O   0  0  0  0  0  0  0  0  0  0  0  0
   -1.2484    1.5094    0.5750 N   0  0  0  0  0  0  0  0  0  0  0  0
   -0.3846    1.4078    1.1003 H   0  0  0  0  0  0  0  0  0  0  0  0
   -1.7342    2.8605    0.3264 C   0  0  0  0  0  0  0  0  0  0  0  0
   -2.8285    2.8894    0.3567 H   0  0  0  0  0  0  0  0  0  0  0  0
   -1.3521    3.5440    1.0908 H   0  0  0  0  0  0  0  0  0  0  0  0
   -1.3982    3.2123   -0.6547 H   0  0  0  0  0  0  0  0  0  0  0  0
  1  2  1  0  0  0  0
  2  3  1  0  0  0  0
  2  4  1  0  0  0  0
  2  5  1  0  0  0  0
  5  6  2  0  0  0  0
  5  7  1  0  0  0  0
  7  8  1  0  0  0  0
  7  9  1  0  0  0  0
  9 10  1  0  0  0  0
  9 11  1  0  0  0  0
  9 29  1  0  0  0  0
 11 12  1  0  0  0  0
 11 13  1  0  0  0  0
 11 14  1  0  0  0  0
 14 15  2  0  0  0  0
 14 28  1  0  0  0  0
 15 16  1  0  0  0  0
 15 17  1  0  0  0  0
 17 18  1  0  0  0  0
 17 19  1  0  0  0  0
 19 20  1  0  0  0  0
 19 28  2  0  0  0  0
 20 21  1  0  0  0  0
 20 22  2  0  0  0  0
 22 23  1  0  0  0  0
 22 24  1  0  0  0  0
 24 25  1  0  0  0  0
 24 26  2  0  0  0  0
 26 27  1  0  0  0  0
 26 28  1  0  0  0  0
 29 30  2  0  0  0  0
 29 31  1  0  0  0  0
 31 32  1  0  0  0  0
 31 33  1  0  0  0  0
 33 34  1  0  0  0  0
 33 35  1  0  0  0  0
 33 36  1  0  0  0  0
M  END
$$$$

  -OEChem-03222214083D

 36 37  0     1  0  0  0  0  0999 V2000
   -3.6471   -4.5084    1.5795 H   0  0  0  0  0  0  0  0  0  0  0  0
   -3.6442   -3.7359    0.8053 C   0  0  0  0  0  0  0  0  0  0  0  0
   -4.4826   -3.0576    0.9816 H   0  0  0  0  0  0  0  0  0  0  0  0
   -3.7690   -4.2136   -0.1694 H   0  0  0  0  0  0  0  0  0  0  0  0
   -2.3379   -2.9655    0.8405 C   0  0  0  0  0  0  0  0  0  0  0  0
   -1.4779   -3.2571    1.6563 O   0  0  0  0  0  0  0  0  0  0  0  0
   -2.1266   -1.9349   -0.0498 N   0  0  0  0  0  0  0  0  0  0  0  0
   -2.9171   -1.6425   -0.6232 H   0  0  0  0  0  0  0  0  0  0  0  0
   -0.9779   -1.0179    0.0011 C   0  0  1  0  0  0  0  0  0  0  0  0
   -0.4992   -1.0660    0.9815 H   0  0  0  0  0  0  0  0  0  0  0  0
    0.0327   -1.4097   -1.0905 C   0  0  0  0  0  0  0  0  0  0  0  0
    0.5438   -2.3273   -0.7828 H   0  0  0  0  0  0  0  0  0  0  0  0
   -0.5034   -1.6245   -2.0207 H   0  0  0  0  0  0  0  0  0  0  0  0
    1.0617   -0.3351   -1.3548 C   0  0  0  0  0  0  0  0  0  0  0  0
    1.4506    0.0796   -2.6054 C   0  0  0  0  0  0  0  0  0  0  0  0
    1.0365   -0.2785   -3.5457 H   0  0  0  0  0  0  0  0  0  0  0  0
    2.4327    1.0525   -2.4447 N   0  0  0  0  0  0  0  0  0  0  0  0
    2.8940    1.5523   -3.2022 H   0  0  0  0  0  0  0  0  0  0  0  0
    2.7274    1.2216   -1.1030 C   0  0  0  0  0  0  0  0  0  0  0  0
    3.6508    2.0489   -0.4646 C   0  0  0  0  0  0  0  0  0  0  0  0
    4.2691    2.7272   -1.0422 H   0  0  0  0  0  0  0  0  0  0  0  0
    3.7776    1.9826    0.9289 C   0  0  0  0  0  0  0  0  0  0  0  0
    4.4948    2.6183    1.4400 H   0  0  0  0  0  0  0  0  0  0  0  0
    2.9940    1.0801    1.6621 C   0  0  0  0  0  0  0  0  0  0  0  0
    3.1127    1.0126    2.7397 H   0  0  0  0  0  0  0  0  0  0  0  0
    2.0693    0.2538    1.0086 C   0  0  0  0  0  0  0  0  0  0  0  0
    1.4947   -0.4630    1.5847 H   0  0  0  0  0  0  0  0  0  0  0  0
    1.9185    0.3483   -0.3822 C   0  0  0  0  0  0  0  0  0  0  0  0
   -1.4884    0.4271   -0.2039 C   0  0  0  0  0  0  0  0  0  0  0  0
   -2.4097    0.6345   -0.9896 O   0  0  0  0  0  0  0  0  0  0  0  0
   -1.0364    1.4597    0.5976 N   0  0  0  0  0  0  0  0  0  0  0  0
   -0.1673    1.2867    1.0969 H   0  0  0  0  0  0  0  0  0  0  0  0
   -1.4372    2.8450    0.3905 C   0  0  0  0  0  0  0  0  0  0  0  0
   -2.5261    2.9449    0.4510 H   0  0  0  0  0  0  0  0  0  0  0  0
   -0.9910    3.4840    1.1585 H   0  0  0  0  0  0  0  0  0  0  0  0
   -1.1040    3.1960   -0.5918 H   0  0  0  0  0  0  0  0  0  0  0  0
  1  2  1  0  0  0  0
  2  3  1  0  0  0  0
  2  4  1  0  0  0  0
  2  5  1  0  0  0  0
  5  6  2  0  0  0  0
  5  7  1  0  0  0  0
  7  8  1  0  0  0  0
  7  9  1  0  0  0  0
  9 10  1  0  0  0  0
  9 11  1  0  0  0  0
  9 29  1  0  0  0  0
 11 12  1  0  0  0  0
 11 13  1  0  0  0  0
 11 14  1  0  0  0  0
 14 15  2  0  0  0  0
 14 28  1  0  0  0  0
 15 16  1  0  0  0  0
 15 17  1  0  0  0  0
 17 18  1  0  0  0  0
 17 19  1  0  0  0  0
 19 20  1  0  0  0  0
 19 28  2  0  0  0  0
 20 21  1  0  0  0  0
 20 22  2  0  0  0  0
 22 23  1  0  0  0  0
 22 24  1  0  0  0  0
 24 25  1  0  0  0  0
 24 26  2  0  0  0  0
 26 27  1  0  0  0  0
 26 28  1  0  0  0  0
 29 30  2  0  0  0  0
 29 31  1  0  0  0  0
 31 32  1  0  0  0  0
 31 33  1  0  0  0  0
 33 34  1  0  0  0  0
 33 35  1  0  0  0  0
 33 36  1  0  0  0  0
M  END
$$$$

  -OEChem-03222214083D

 36 37  0     1  0  0  0  0  0999 V2000
   -3.6575   -4.4749    1.6082 H   0  0  0  0  0  0  0  0  0  0  0  0
   -3.6489   -3.7046    0.8319 C   0  0  0  0  0  0  0  0  0  0  0  0
   -4.4600   -2.9990    1.0279 H   0  0  0  0  0  0  0  0  0  0  0  0
   -3.8144   -4.1799   -0.1380 H   0  0  0  0  0  0  0  0  0  0  0  0
   -2.3173   -2.9776    0.8313 C   0  0  0  0  0  0  0  0  0  0  0  0
   -1.4374   -3.3113    1.6088 O   0  0  0  0  0  0  0  0  0  0  0  0
   -2.1058   -1.9383   -0.0487 N   0  0  0  0  0  0  0  0  0  0  0  0
   -2.9055   -1.6157   -0.5919 H   0  0  0  0  0  0  0  0  0  0  0  0
   -0.9299   -1.0556   -0.0241 C   0  0  1  0  0  0  0  0  0  0  0  0
   -0.4231   -1.1296    0.9419 H   0  0  0  0  0  0  0  0  0  0  0  0
    0.0472   -1.4673   -1.1384 C   0  0  0  0  0  0  0  0  0  0  0  0
    0.5449   -2.4014   -0.8592 H   0  0  0  0  0  0  0  0  0  0  0  0
   -0.5128   -1.6516   -2.0610 H   0  0  0  0  0  0  0  0  0  0  0  0
    1.0823   -0.4003   -1.3964 C   0  0  0  0  0  0  0  0  0  0  0  0
    1.2806    0.2546   -2.5875 C   0  0  0  0  0  0  0  0  0  0  0  0
    0.7128    0.0898   -3.5011 H   0  0  0  0  0  0  0  0  0  0  0  0
    2.3059    1.1776   -2.3938 N   0  0  0  0  0  0  0  0  0  0  0  0
    2.6626    1.8157   -3.1023 H   0  0  0  0  0  0  0  0  0  0  0  0
    2.7831    1.1059   -1.0950 C   0  0  0  0  0  0  0  0  0  0  0  0
    3.7880    1.8138   -0.4357 C   0  0  0  0  0  0  0  0  0  0  0  0
    4.3450    2.5852   -0.9562 H   0  0  0  0  0  0  0  0  0  0  0  0
    4.0714    1.5111    0.9036 C   0  0  0  0  0  0  0  0  0  0  0  0
    4.8531    2.0529    1.4283 H   0  0  0  0  0  0  0  0  0  0  0  0
    3.3557    0.5000    1.5625 C   0  0  0  0  0  0  0  0  0  0  0  0
    3.5877    0.2569    2.5953 H   0  0  0  0  0  0  0  0  0  0  0  0
    2.3487   -0.2060    0.8897 C   0  0  0  0  0  0  0  0  0  0  0  0
    1.8104   -1.0016    1.3949 H   0  0  0  0  0  0  0  0  0  0  0  0
    2.0580    0.1159   -0.4413 C   0  0  0  0  0  0  0  0  0  0  0  0
   -1.3887    0.4103   -0.1870 C   0  0  0  0  0  0  0  0  0  0  0  0
   -2.3190    0.6715   -0.9453 O   0  0  0  0  0  0  0  0  0  0  0  0
   -0.8646    1.4044    0.6190 N   0  0  0  0  0  0  0  0  0  0  0  0
    0.0076    1.1793    1.0923 H   0  0  0  0  0  0  0  0  0  0  0  0
   -1.2060    2.8102    0.4503 C   0  0  0  0  0  0  0  0  0  0  0  0
   -2.2859    2.9590    0.5545 H   0  0  0  0  0  0  0  0  0  0  0  0
   -0.7011    3.4145    1.2100 H   0  0  0  0  0  0  0  0  0  0  0  0
   -0.8940    3.1621   -0.5385 H   0  0  0  0  0  0  0  0  0  0  0  0
  1  2  1  0  0  0  0
  2  3  1  0  0  0  0
  2  4  1  0  0  0  0
  2  5  1  0  0  0  0
  5  6  2  0  0  0  0
  5  7  1  0  0  0  0
  7  8  1  0  0  0  0
  7  9  1  0  0  0  0
  9 10  1  0  0  0  0
  9 11  1  0  0  0  0
  9 29  1  0  0  0  0
 11 12  1  0  0  0  0
 11 13  1  0  0  0  0
 11 14  1  0  0  0  0
 14 15  2  0  0  0  0
 14 28  1  0  0  0  0
 15 16  1  0  0  0  0
 15 17  1  0  0  0  0
 17 18  1  0  0  0  0
 17 19  1  0  0  0  0
 19 20  1  0  0  0  0
 19 28  2  0  0  0  0
 20 21  1  0  0  0  0
 20 22  2  0  0  0  0
 22 23  1  0  0  0  0
 22 24  1  0  0  0  0
 24 25  1  0  0  0  0
 24 26  2  0  0  0  0
 26 27  1  0  0  0  0
 26 28  1  0  0  0  0
 29 30  2  0  0  0  0
 29 31  1  0  0  0  0
 31 32  1  0  0  0  0
 31 33  1  0  0  0  0
 33 34  1  0  0  0  0
 33 35  1  0  0  0  0
 33 36  1  0  0  0  0
M  END
$$$$

  -OEChem-03222214083D

 36 37  0     1  0  0  0  0  0999 V2000
   -3.6283   -4.4857    1.6080 H   0  0  0  0  0  0  0  0  0  0  0  0
   -3.6252   -3.7137    0.8334 C   0  0  0  0  0  0  0  0  0  0  0  0
   -4.4338   -3.0075    1.0371 H   0  0  0  0  0  0  0  0  0  0  0  0
   -3.7986   -4.1867   -0.1362 H   0  0  0  0  0  0  0  0  0  0  0  0
   -2.2929   -2.9882    0.8241 C   0  0  0  0  0  0  0  0  0  0  0  0
   -1.4040   -3.3318    1.5869 O   0  0  0  0  0  0  0  0  0  0  0  0
   -2.0896   -1.9405   -0.0480 N   0  0  0  0  0  0  0  0  0  0  0  0
   -2.8933   -1.6125   -0.5816 H   0  0  0  0  0  0  0  0  0  0  0  0
   -0.9051   -1.0693   -0.0366 C   0  0  1  0  0  0  0  0  0  0  0  0
   -0.3739   -1.1581    0.9164 H   0  0  0  0  0  0  0  0  0  0  0  0
    0.0460   -1.4841   -1.1707 C   0  0  0  0  0  0  0  0  0  0  0  0
    0.5361   -2.4302   -0.9199 H   0  0  0  0  0  0  0  0  0  0  0  0
   -0.5346   -1.6429   -2.0851 H   0  0  0  0  0  0  0  0  0  0  0  0
    1.0812   -0.4210   -1.4308 C   0  0  0  0  0  0  0  0  0  0  0  0
    1.1091    0.4528   -2.4903 C   0  0  0  0  0  0  0  0  0  0  0  0
    0.3881    0.4818   -3.3051 H   0  0  0  0  0  0  0  0  0  0  0  0
    2.2000    1.2996   -2.3046 N   0  0  0  0  0  0  0  0  0  0  0  0
    2.4723    2.0515   -2.9345 H   0  0  0  0  0  0  0  0  0  0  0  0
    2.8691    0.9795   -1.1337 C   0  0  0  0  0  0  0  0  0  0  0  0
    3.9937    1.5321   -0.5209 C   0  0  0  0  0  0  0  0  0  0  0  0
    4.5076    2.3716   -0.9761 H   0  0  0  0  0  0  0  0  0  0  0  0
    4.4502    0.9871    0.6879 C   0  0  0  0  0  0  0  0  0  0  0  0
    5.3254    1.4066    1.1752 H   0  0  0  0  0  0  0  0  0  0  0  0
    3.7817   -0.1030    1.2664 C   0  0  0  0  0  0  0  0  0  0  0  0
    4.1420   -0.5267    2.1991 H   0  0  0  0  0  0  0  0  0  0  0  0
    2.6531   -0.6518    0.6414 C   0  0  0  0  0  0  0  0  0  0  0  0
    2.1379   -1.5007    1.0812 H   0  0  0  0  0  0  0  0  0  0  0  0
    2.2026   -0.0971   -0.5609 C   0  0  0  0  0  0  0  0  0  0  0  0
   -1.3506    0.4027   -0.1728 C   0  0  0  0  0  0  0  0  0  0  0  0
   -2.2764    0.6880   -0.9278 O   0  0  0  0  0  0  0  0  0  0  0  0
   -0.8001    1.3812    0.6342 N   0  0  0  0  0  0  0  0  0  0  0  0
    0.0622    1.1335    1.1139 H   0  0  0  0  0  0  0  0  0  0  0  0
   -1.1262    2.7936    0.4912 C   0  0  0  0  0  0  0  0  0  0  0  0
   -2.2034    2.9540    0.6059 H   0  0  0  0  0  0  0  0  0  0  0  0
   -0.6089    3.3788    1.2574 H   0  0  0  0  0  0  0  0  0  0  0  0
   -0.8173    3.1584   -0.4939 H   0  0  0  0  0  0  0  0  0  0  0  0
  1  2  1  0  0  0  0
  2  3  1  0  0  0  0
  2  4  1  0  0  0  0
  2  5  1  0  0  0  0
  5  6  2  0  0  0  0
  5  7  1  0  0  0  0
  7  8  1  0  0  0  0
  7  9  1  0  0  0  0
  9 10  1  0  0  0  0
  9 11  1  0  0  0  0
  9 29  1  0  0  0  0
 11 12  1  0  0  0  0
 11 13  1  0  0  0  0
 11 14  1  0  0  0  0
 14 15  2  0  0  0  0
 14 28  1  0  0  0  0
 15 16  1  0  0  0  0
 15 17  1  0  0  0  0
 17 18  1  0  0  0  0
 17 19  1  0  0  0  0
 19 20  1  0  0  0  0
 19 28  2  0  0  0  0
 20 21  1  0  0  0  0
 20 22  2  0  0  0  0
 22 23  1  0  0  0  0
 22 24  1  0  0  0  0
 24 25  1  0  0  0  0
 24 26  2  0  0  0  0
 26 27  1  0  0  0  0
 26 28  1  0  0  0  0
 29 30  2  0  0  0  0
 29 31  1  0  0  0  0
 31 32  1  0  0  0  0
 31 33  1  0  0  0  0
 33 34  1  0  0  0  0
 33 35  1  0  0  0  0
 33 36  1  0  0  0  0
M  END
$$$$

  -OEChem-03222214083D

 36 37  0     1  0  0  0  0  0999 V2000
   -3.6280   -4.5174    1.5559 H   0  0  0  0  0  0  0  0  0  0  0  0
   -3.6235   -3.7363    0.7906 C   0  0  0  0  0  0  0  0  0  0  0  0
   -4.4407   -3.0401    0.9939 H   0  0  0  0  0  0  0  0  0  0  0  0
   -3.7824   -4.1994   -0.1862 H   0  0  0  0  0  0  0  0  0  0  0  0
   -2.2980   -2.9986    0.8052 C   0  0  0  0  0  0  0  0  0  0  0  0
   -1.4154   -3.3430    1.5746 O   0  0  0  0  0  0  0  0  0  0  0  0
   -2.0940   -1.9397   -0.0531 N   0  0  0  0  0  0  0  0  0  0  0  0
   -2.8923   -1.6169   -0.5975 H   0  0  0  0  0  0  0  0  0  0  0  0
   -0.9112   -1.0661   -0.0296 C   0  0  1  0  0  0  0  0  0  0  0  0
   -0.3785   -1.1646    0.9220 H   0  0  0  0  0  0  0  0  0  0  0  0
    0.0405   -1.4801   -1.1642 C   0  0  0  0  0  0  0  0  0  0  0  0
    0.5193   -2.4341   -0.9227 H   0  0  0  0  0  0  0  0  0  0  0  0
   -0.5432   -1.6275   -2.0786 H   0  0  0  0  0  0  0  0  0  0  0  0
    1.0854   -0.4279   -1.4328 C   0  0  0  0  0  0  0  0  0  0  0  0
    0.9860    0.6206   -2.3163 C   0  0  0  0  0  0  0  0  0  0  0  0
    0.1380    0.8166   -2.9704 H   0  0  0  0  0  0  0  0  0  0  0  0
    2.1447    1.3840   -2.1926 N   0  0  0  0  0  0  0  0  0  0  0  0
    2.3547    2.2227   -2.7301 H   0  0  0  0  0  0  0  0  0  0  0  0
    2.9801    0.8432   -1.2278 C   0  0  0  0  0  0  0  0  0  0  0  0
    4.2244    1.2438   -0.7414 C   0  0  0  0  0  0  0  0  0  0  0  0
    4.7079    2.1292   -1.1390 H   0  0  0  0  0  0  0  0  0  0  0  0
    4.8398    0.4875    0.2662 C   0  0  0  0  0  0  0  0  0  0  0  0
    5.8090    0.7873    0.6535 H   0  0  0  0  0  0  0  0  0  0  0  0
    4.2064   -0.6575    0.7741 C   0  0  0  0  0  0  0  0  0  0  0  0
    4.6873   -1.2422    1.5528 H   0  0  0  0  0  0  0  0  0  0  0  0
    2.9558   -1.0521    0.2774 C   0  0  0  0  0  0  0  0  0  0  0  0
    2.4626   -1.9382    0.6654 H   0  0  0  0  0  0  0  0  0  0  0  0
    2.3512   -0.2912   -0.7282 C   0  0  0  0  0  0  0  0  0  0  0  0
   -1.3578    0.4061   -0.1487 C   0  0  0  0  0  0  0  0  0  0  0  0
   -2.2611    0.7054   -0.9251 O   0  0  0  0  0  0  0  0  0  0  0  0
   -0.8115    1.3770    0.6701 N   0  0  0  0  0  0  0  0  0  0  0  0
    0.0273    1.1168    1.1834 H   0  0  0  0  0  0  0  0  0  0  0  0
   -1.1375    2.7914    0.5460 C   0  0  0  0  0  0  0  0  0  0  0  0
   -2.2162    2.9491    0.6506 H   0  0  0  0  0  0  0  0  0  0  0  0
   -0.6301    3.3647    1.3276 H   0  0  0  0  0  0  0  0  0  0  0  0
   -0.8176    3.1727   -0.4292 H   0  0  0  0  0  0  0  0  0  0  0  0
  1  2  1  0  0  0  0
  2  3  1  0  0  0  0
  2  4  1  0  0  0  0
  2  5  1  0  0  0  0
  5  6  2  0  0  0  0
  5  7  1  0  0  0  0
  7  8  1  0  0  0  0
  7  9  1  0  0  0  0
  9 10  1  0  0  0  0
  9 11  1  0  0  0  0
  9 29  1  0  0  0  0
 11 12  1  0  0  0  0
 11 13  1  0  0  0  0
 11 14  1  0  0  0  0
 14 15  2  0  0  0  0
 14 28  1  0  0  0  0
 15 16  1  0  0  0  0
 15 17  1  0  0  0  0
 17 18  1  0  0  0  0
 17 19  1  0  0  0  0
 19 20  1  0  0  0  0
 19 28  2  0  0  0  0
 20 21  1  0  0  0  0
 20 22  2  0  0  0  0
 22 23  1  0  0  0  0
 22 24  1  0  0  0  0
 24 25  1  0  0  0  0
 24 26  2  0  0  0  0
 26 27  1  0  0  0  0
 26 28  1  0  0  0  0
 29 30  2  0  0  0  0
 29 31  1  0  0  0  0
 31 32  1  0  0  0  0
 31 33  1  0  0  0  0
 33 34  1  0  0  0  0
 33 35  1  0  0  0  0
 33 36  1  0  0  0  0
M  END
$$$$

  -OEChem-03222214083D

 36 37  0     1  0  0  0  0  0999 V2000
   -3.6139   -4.5534    1.5000 H   0  0  0  0  0  0  0  0  0  0  0  0
   -3.6103   -3.7690    0.7379 C   0  0  0  0  0  0  0  0  0  0  0  0
   -4.4485   -3.0934    0.9243 H   0  0  0  0  0  0  0  0  0  0  0  0
   -3.7345   -4.2316   -0.2441 H   0  0  0  0  0  0  0  0  0  0  0  0
   -2.3035   -3.0002    0.7855 C   0  0  0  0  0  0  0  0  0  0  0  0
   -1.4260   -3.3357    1.5647 O   0  0  0  0  0  0  0  0  0  0  0  0
   -2.1075   -1.9272   -0.0574 N   0  0  0  0  0  0  0  0  0  0  0  0
   -2.9003   -1.6187   -0.6179 H   0  0  0  0  0  0  0  0  0  0  0  0
   -0.9354   -1.0395   -0.0148 C   0  0  1  0  0  0  0  0  0  0  0  0
   -0.4117   -1.1410    0.9414 H   0  0  0  0  0  0  0  0  0  0  0  0
    0.0336   -1.4550   -1.1371 C   0  0  0  0  0  0  0  0  0  0  0  0
    0.5009   -2.4110   -0.8825 H   0  0  0  0  0  0  0  0  0  0  0  0
   -0.5419   -1.6110   -2.0554 H   0  0  0  0  0  0  0  0  0  0  0  0
    1.0939   -0.4214   -1.4319 C   0  0  0  0  0  0  0  0  0  0  0  0
    0.9308    0.7631   -2.1133 C   0  0  0  0  0  0  0  0  0  0  0  0
    0.0046    1.1027   -2.5755 H   0  0  0  0  0  0  0  0  0  0  0  0
    2.1487    1.4380   -2.0864 N   0  0  0  0  0  0  0  0  0  0  0  0
    2.3306    2.3386   -2.5244 H   0  0  0  0  0  0  0  0  0  0  0  0
    3.0900    0.7071   -1.3800 C   0  0  0  0  0  0  0  0  0  0  0  0
    4.4265    0.9628   -1.0721 C   0  0  0  0  0  0  0  0  0  0  0  0
    4.9014    1.8756   -1.4140 H   0  0  0  0  0  0  0  0  0  0  0  0
    5.1447    0.0259   -0.3155 C   0  0  0  0  0  0  0  0  0  0  0  0
    6.1861    0.2110   -0.0690 H   0  0  0  0  0  0  0  0  0  0  0  0
    4.5196   -1.1510    0.1244 C   0  0  0  0  0  0  0  0  0  0  0  0
    5.0775   -1.8749    0.7107 H   0  0  0  0  0  0  0  0  0  0  0  0
    3.1759   -1.3980   -0.1917 C   0  0  0  0  0  0  0  0  0  0  0  0
    2.6899   -2.3074    0.1476 H   0  0  0  0  0  0  0  0  0  0  0  0
    2.4684   -0.4600   -0.9509 C   0  0  0  0  0  0  0  0  0  0  0  0
   -1.3960    0.4282   -0.1164 C   0  0  0  0  0  0  0  0  0  0  0  0
   -2.2756    0.7381   -0.9147 O   0  0  0  0  0  0  0  0  0  0  0  0
   -0.8639    1.3918    0.7204 N   0  0  0  0  0  0  0  0  0  0  0  0
   -0.0588    1.1189    1.2788 H   0  0  0  0  0  0  0  0  0  0  0  0
   -1.1951    2.8069    0.6196 C   0  0  0  0  0  0  0  0  0  0  0  0
   -2.2769    2.9562    0.7021 H   0  0  0  0  0  0  0  0  0  0  0  0
   -0.7098    3.3659    1.4255 H   0  0  0  0  0  0  0  0  0  0  0  0
   -0.8541    3.2117   -0.3388 H   0  0  0  0  0  0  0  0  0  0  0  0
  1  2  1  0  0  0  0
  2  3  1  0  0  0  0
  2  4  1  0  0  0  0
  2  5  1  0  0  0  0
  5  6  2  0  0  0  0
  5  7  1  0  0  0  0
  7  8  1  0  0  0  0
  7  9  1  0  0  0  0
  9 10  1  0  0  0  0
  9 11  1  0  0  0  0
  9 29  1  0  0  0  0
 11 12  1  0  0  0  0
 11 13  1  0  0  0  0
 11 14  1  0  0  0  0
 14 15  2  0  0  0  0
 14 28  1  0  0  0  0
 15 16  1  0  0  0  0
 15 17  1  0  0  0  0
 17 18  1  0  0  0  0
 17 19  1  0  0  0  0
 19 20  1  0  0  0  0
 19 28  2  0  0  0  0
 20 21  1  0  0  0  0
 20 22  2  0  0  0  0
 22 23  1  0  0  0  0
 22 24  1  0  0  0  0
 24 25  1  0  0  0  0
 24 26  2  0  0  0  0
 26 27  1  0  0  0  0
 26 28  1  0  0  0  0
 29 30  2  0  0  0  0
 29 31  1  0  0  0  0
 31 32  1  0  0  0  0
 31 33  1  0  0  0  0
 33 34  1  0  0  0  0
 33 35  1  0  0  0  0
 33 36  1  0  0  0  0
M  END
$$$$

  -OEChem-03222214083D

 36 37  0     1  0  0  0  0  0999 V2000
   -3.5735   -4.5934    1.4206 H   0  0  0  0  0  0  0  0  0  0  0  0
   -3.5883   -3.7751    0.6953 C   0  0  0  0  0  0  0  0  0  0  0  0
   -4.4315   -3.1182    0.9224 H   0  0  0  0  0  0  0  0  0  0  0  0
   -3.7200   -4.1938   -0.3053 H   0  0  0  0  0  0  0  0  0  0  0  0
   -2.2901   -2.9935    0.7629 C   0  0  0  0  0  0  0  0  0  0  0  0
   -1.4188   -3.3222    1.5514 O   0  0  0  0  0  0  0  0  0  0  0  0
   -2.1010   -1.9080   -0.0650 N   0  0  0  0  0  0  0  0  0  0  0  0
   -2.8893   -1.6118   -0.6384 H   0  0  0  0  0  0  0  0  0  0  0  0
   -0.9459   -0.9994   -0.0003 C   0  0  1  0  0  0  0  0  0  0  0  0
   -0.4361   -1.0964    0.9639 H   0  0  0  0  0  0  0  0  0  0  0  0
    0.0497   -1.4095   -1.1057 C   0  0  0  0  0  0  0  0  0  0  0  0
    0.5102   -2.3603   -0.8229 H   0  0  0  0  0  0  0  0  0  0  0  0
   -0.5108   -1.5884   -2.0289 H   0  0  0  0  0  0  0  0  0  0  0  0
    1.1260   -0.3938   -1.4297 C   0  0  0  0  0  0  0  0  0  0  0  0
    0.9672    0.8961   -1.8881 C   0  0  0  0  0  0  0  0  0  0  0  0
    0.0187    1.3675   -2.1417 H   0  0  0  0  0  0  0  0  0  0  0  0
    2.2281    1.4780   -1.9806 N   0  0  0  0  0  0  0  0  0  0  0  0
    2.4177    2.4209   -2.3137 H   0  0  0  0  0  0  0  0  0  0  0  0
    3.2017    0.5828   -1.5734 C   0  0  0  0  0  0  0  0  0  0  0  0
    4.5885    0.7026   -1.4814 C   0  0  0  0  0  0  0  0  0  0  0  0
    5.0779    1.6277   -1.7649 H   0  0  0  0  0  0  0  0  0  0  0  0
    5.3386   -0.3868   -1.0174 C   0  0  0  0  0  0  0  0  0  0  0  0
    6.4190   -0.3087   -0.9402 H   0  0  0  0  0  0  0  0  0  0  0  0
    4.6943   -1.5779   -0.6510 C   0  0  0  0  0  0  0  0  0  0  0  0
    5.2766   -2.4201   -0.2895 H   0  0  0  0  0  0  0  0  0  0  0  0
    3.2998   -1.6868   -0.7502 C   0  0  0  0  0  0  0  0  0  0  0  0
    2.8034   -2.6090   -0.4664 H   0  0  0  0  0  0  0  0  0  0  0  0
    2.5566   -0.5966   -1.2177 C   0  0  0  0  0  0  0  0  0  0  0  0
   -1.4436    0.4553   -0.0931 C   0  0  0  0  0  0  0  0  0  0  0  0
   -2.3223    0.7531   -0.8963 O   0  0  0  0  0  0  0  0  0  0  0  0
   -0.9468    1.4249    0.7583 N   0  0  0  0  0  0  0  0  0  0  0  0
   -0.1717    1.1605    1.3616 H   0  0  0  0  0  0  0  0  0  0  0  0
   -1.3633    2.8206    0.7170 C   0  0  0  0  0  0  0  0  0  0  0  0
   -2.4455    2.9026    0.8633 H   0  0  0  0  0  0  0  0  0  0  0  0
   -0.8654    3.3860    1.5104 H   0  0  0  0  0  0  0  0  0  0  0  0
   -1.1018    3.2699   -0.2465 H   0  0  0  0  0  0  0  0  0  0  0  0
  1  2  1  0  0  0  0
  2  3  1  0  0  0  0
  2  4  1  0  0  0  0
  2  5  1  0  0  0  0
  5  6  2  0  0  0  0
  5  7  1  0  0  0  0
  7  8  1  0  0  0  0
  7  9  1  0  0  0  0
  9 10  1  0  0  0  0
  9 11  1  0  0  0  0
  9 29  1  0  0  0  0
 11 12  1  0  0  0  0
 11 13  1  0  0  0  0
 11 14  1  0  0  0  0
 14 15  2  0  0  0  0
 14 28  1  0  0  0  0
 15 16  1  0  0  0  0
 15 17  1  0  0  0  0
 17 18  1  0  0  0  0
 17 19  1  0  0  0  0
 19 20  1  0  0  0  0
 19 28  2  0  0  0  0
 20 21  1  0  0  0  0
 20 22  2  0  0  0  0
 22 23  1  0  0  0  0
 22 24  1  0  0  0  0
 24 25  1  0  0  0  0
 24 26  2  0  0  0  0
 26 27  1  0  0  0  0
 26 28  1  0  0  0  0
 29 30  2  0  0  0  0
 29 31  1  0  0  0  0
 31 32  1  0  0  0  0
 31 33  1  0  0  0  0
 33 34  1  0  0  0  0
 33 35  1  0  0  0  0
 33 36  1  0  0  0  0
M  END
$$$$

  -OEChem-03222214083D

 36 37  0     1  0  0  0  0  0999 V2000
   -3.5079   -4.6333    1.3464 H   0  0  0  0  0  0  0  0  0  0  0  0
   -3.5312   -3.8053    0.6322 C   0  0  0  0  0  0  0  0  0  0  0  0
   -4.4004   -3.1790    0.8469 H   0  0  0  0  0  0  0  0  0  0  0  0
   -3.6247   -4.2136   -0.3771 H   0  0  0  0  0  0  0  0  0  0  0  0
   -2.2608   -2.9839    0.7434 C   0  0  0  0  0  0  0  0  0  0  0  0
   -1.4024   -3.2918    1.5541 O   0  0  0  0  0  0  0  0  0  0  0  0
   -2.0832   -1.8838   -0.0676 N   0  0  0  0  0  0  0  0  0  0  0  0
   -2.8620   -1.6086   -0.6639 H   0  0  0  0  0  0  0  0  0  0  0  0
   -0.9523   -0.9472    0.0261 C   0  0  1  0  0  0  0  0  0  0  0  0
   -0.4574   -1.0393    0.9986 H   0  0  0  0  0  0  0  0  0  0  0  0
    0.0706   -1.3405   -1.0640 C   0  0  0  0  0  0  0  0  0  0  0  0
    0.5356   -2.2784   -0.7480 H   0  0  0  0  0  0  0  0  0  0  0  0
   -0.4714   -1.5493   -1.9922 H   0  0  0  0  0  0  0  0  0  0  0  0
    1.1577   -0.3374   -1.4104 C   0  0  0  0  0  0  0  0  0  0  0  0
    1.0639    1.0212   -1.6321 C   0  0  0  0  0  0  0  0  0  0  0  0
    0.1477    1.6074   -1.6569 H   0  0  0  0  0  0  0  0  0  0  0  0
    2.3448    1.5143   -1.8609 N   0  0  0  0  0  0  0  0  0  0  0  0
    2.5725    2.4812   -2.0829 H   0  0  0  0  0  0  0  0  0  0  0  0
    3.2735    0.4933   -1.7828 C   0  0  0  0  0  0  0  0  0  0  0  0
    4.6602    0.4949   -1.9331 C   0  0  0  0  0  0  0  0  0  0  0  0
    5.1854    1.4174   -2.1540 H   0  0  0  0  0  0  0  0  0  0  0  0
    5.3627   -0.7095   -1.7944 C   0  0  0  0  0  0  0  0  0  0  0  0
    6.4427   -0.7245   -1.9076 H   0  0  0  0  0  0  0  0  0  0  0  0
    4.6710   -1.8962   -1.5093 C   0  0  0  0  0  0  0  0  0  0  0  0
    5.2165   -2.8288   -1.4016 H   0  0  0  0  0  0  0  0  0  0  0  0
    3.2761   -1.8843   -1.3637 C   0  0  0  0  0  0  0  0  0  0  0  0
    2.7450   -2.8048   -1.1451 H   0  0  0  0  0  0  0  0  0  0  0  0
    2.5783   -0.6778   -1.5028 C   0  0  0  0  0  0  0  0  0  0  0  0
   -1.4930    0.4912   -0.0592 C   0  0  0  0  0  0  0  0  0  0  0  0
   -2.3597    0.7767   -0.8787 O   0  0  0  0  0  0  0  0  0  0  0  0
   -1.0387    1.4644    0.8124 N   0  0  0  0  0  0  0  0  0  0  0  0
   -0.3091    1.1995    1.4697 H   0  0  0  0  0  0  0  0  0  0  0  0
   -1.5269    2.8374    0.8138 C   0  0  0  0  0  0  0  0  0  0  0  0
   -2.6099    2.8596    0.9739 H   0  0  0  0  0  0  0  0  0  0  0  0
   -1.0486    3.4067    1.6166 H   0  0  0  0  0  0  0  0  0  0  0  0
   -1.3006    3.3256   -0.1398 H   0  0  0  0  0  0  0  0  0  0  0  0
  1  2  1  0  0  0  0
  2  3  1  0  0  0  0
  2  4  1  0  0  0  0
  2  5  1  0  0  0  0
  5  6  2  0  0  0  0
  5  7  1  0  0  0  0
  7  8  1  0  0  0  0
  7  9  1  0  0  0  0
  9 10  1  0  0  0  0
  9 11  1  0  0  0  0
  9 29  1  0  0  0  0
 11 12  1  0  0  0  0
 11 13  1  0  0  0  0
 11 14  1  0  0  0  0
 14 15  2  0  0  0  0
 14 28  1  0  0  0  0
 15 16  1  0  0  0  0
 15 17  1  0  0  0  0
 17 18  1  0  0  0  0
 17 19  1  0  0  0  0
 19 20  1  0  0  0  0
 19 28  2  0  0  0  0
 20 21  1  0  0  0  0
 20 22  2  0  0  0  0
 22 23  1  0  0  0  0
 22 24  1  0  0  0  0
 24 25  1  0  0  0  0
 24 26  2  0  0  0  0
 26 27  1  0  0  0  0
 26 28  1  0  0  0  0
 29 30  2  0  0  0  0
 29 31  1  0  0  0  0
 31 32  1  0  0  0  0
 31 33  1  0  0  0  0
 33 34  1  0  0  0  0
 33 35  1  0  0  0  0
 33 36  1  0  0  0  0
M  END
$$$$

  -OEChem-03222214083D

 36 37  0     1  0  0  0  0  0999 V2000
   -3.4277   -4.6678    1.2350 H   0  0  0  0  0  0  0  0  0  0  0  0
   -3.4556   -3.8243    0.5395 C   0  0  0  0  0  0  0  0  0  0  0  0
   -4.3503   -3.2306    0.7414 H   0  0  0  0  0  0  0  0  0  0  0  0
   -3.5052   -4.2111   -0.4811 H   0  0  0  0  0  0  0  0  0  0  0  0
   -2.2156   -2.9669    0.7090 C   0  0  0  0  0  0  0  0  0  0  0  0
   -1.3825   -3.2561    1.5524 O   0  0  0  0  0  0  0  0  0  0  0  0
   -2.0375   -1.8532   -0.0833 N   0  0  0  0  0  0  0  0  0  0  0  0
   -2.7981   -1.5937   -0.7095 H   0  0  0  0  0  0  0  0  0  0  0  0
   -0.9333   -0.8911    0.0605 C   0  0  1  0  0  0  0  0  0  0  0  0
   -0.4605   -0.9821    1.0437 H   0  0  0  0  0  0  0  0  0  0  0  0
    0.1150   -1.2592   -1.0153 C   0  0  0  0  0  0  0  0  0  0  0  0
    0.5845   -2.1901   -0.6837 H   0  0  0  0  0  0  0  0  0  0  0  0
   -0.4092   -1.4783   -1.9513 H   0  0  0  0  0  0  0  0  0  0  0  0
    1.2132   -0.2668   -1.3618 C   0  0  0  0  0  0  0  0  0  0  0  0
    1.2416    1.1130   -1.3377 C   0  0  0  0  0  0  0  0  0  0  0  0
    0.4165    1.7771   -1.1011 H   0  0  0  0  0  0  0  0  0  0  0  0
    2.5133    1.5303   -1.7202 N   0  0  0  0  0  0  0  0  0  0  0  0
    2.8097    2.4988   -1.8201 H   0  0  0  0  0  0  0  0  0  0  0  0
    3.3169    0.4391   -1.9917 C   0  0  0  0  0  0  0  0  0  0  0  0
    4.6463    0.3476   -2.4044 C   0  0  0  0  0  0  0  0  0  0  0  0
    5.2317    1.2458   -2.5668 H   0  0  0  0  0  0  0  0  0  0  0  0
    5.2130   -0.9185   -2.6054 C   0  0  0  0  0  0  0  0  0  0  0  0
    6.2471   -1.0060   -2.9252 H   0  0  0  0  0  0  0  0  0  0  0  0
    4.4443   -2.0729   -2.3941 C   0  0  0  0  0  0  0  0  0  0  0  0
    4.8841   -3.0534   -2.5498 H   0  0  0  0  0  0  0  0  0  0  0  0
    3.1079   -1.9662   -1.9830 C   0  0  0  0  0  0  0  0  0  0  0  0
    2.5145   -2.8602   -1.8233 H   0  0  0  0  0  0  0  0  0  0  0  0
    2.5474   -0.6986   -1.7812 C   0  0  0  0  0  0  0  0  0  0  0  0
   -1.5200    0.5292   -0.0290 C   0  0  0  0  0  0  0  0  0  0  0  0
   -2.3723    0.7946   -0.8695 O   0  0  0  0  0  0  0  0  0  0  0  0
   -1.1299    1.5069    0.8695 N   0  0  0  0  0  0  0  0  0  0  0  0
   -0.4729    1.2365    1.5973 H   0  0  0  0  0  0  0  0  0  0  0  0
   -1.7232    2.8377    0.9147 C   0  0  0  0  0  0  0  0  0  0  0  0
   -2.7965    2.7720    1.1217 H   0  0  0  0  0  0  0  0  0  0  0  0
   -1.2550    3.4333    1.7043 H   0  0  0  0  0  0  0  0  0  0  0  0
   -1.5795    3.3554   -0.0394 H   0  0  0  0  0  0  0  0  0  0  0  0
  1  2  1  0  0  0  0
  2  3  1  0  0  0  0
  2  4  1  0  0  0  0
  2  5  1  0  0  0  0
  5  6  2  0  0  0  0
  5  7  1  0  0  0  0
  7  8  1  0  0  0  0
  7  9  1  0  0  0  0
  9 10  1  0  0  0  0
  9 11  1  0  0  0  0
  9 29  1  0  0  0  0
 11 12  1  0  0  0  0
 11 13  1  0  0  0  0
 11 14  1  0  0  0  0
 14 15  2  0  0  0  0
 14 28  1  0  0  0  0
 15 16  1  0  0  0  0
 15 17  1  0  0  0  0
 17 18  1  0  0  0  0
 17 19  1  0  0  0  0
 19 20  1  0  0  0  0
 19 28  2  0  0  0  0
 20 21  1  0  0  0  0
 20 22  2  0  0  0  0
 22 23  1  0  0  0  0
 22 24  1  0  0  0  0
 24 25  1  0  0  0  0
 24 26  2  0  0  0  0
 26 27  1  0  0  0  0
 26 28  1  0  0  0  0
 29 30  2  0  0  0  0
 29 31  1  0  0  0  0
 31 32  1  0  0  0  0
 31 33  1  0  0  0  0
 33 34  1  0  0  0  0
 33 35  1  0  0  0  0
 33 36  1  0  0  0  0
M  END
$$$$

  -OEChem-03222214083D

 36 37  0     1  0  0  0  0  0999 V2000
   -3.4386   -4.6660    1.1292 H   0  0  0  0  0  0  0  0  0  0  0  0
   -3.4375   -3.8200    0.4361 C   0  0  0  0  0  0  0  0  0  0  0  0
   -4.3394   -3.2263    0.6034 H   0  0  0  0  0  0  0  0  0  0  0  0
   -3.4455   -4.2031   -0.5871 H   0  0  0  0  0  0  0  0  0  0  0  0
   -2.2053   -2.9639    0.6588 C   0  0  0  0  0  0  0  0  0  0  0  0
   -1.4016   -3.2613    1.5275 O   0  0  0  0  0  0  0  0  0  0  0  0
   -2.0035   -1.8382   -0.1099 N   0  0  0  0  0  0  0  0  0  0  0  0
   -2.7438   -1.5691   -0.7567 H   0  0  0  0  0  0  0  0  0  0  0  0
   -0.9101   -0.8735    0.0895 C   0  0  1  0  0  0  0  0  0  0  0  0
   -0.4597   -0.9778    1.0818 H   0  0  0  0  0  0  0  0  0  0  0  0
    0.1541   -1.2188   -0.9783 C   0  0  0  0  0  0  0  0  0  0  0  0
    0.6188   -2.1591   -0.6642 H   0  0  0  0  0  0  0  0  0  0  0  0
   -0.3618   -1.4122   -1.9246 H   0  0  0  0  0  0  0  0  0  0  0  0
    1.2679   -0.2367   -1.2990 C   0  0  0  0  0  0  0  0  0  0  0  0
    1.4443    1.1031   -1.0202 C   0  0  0  0  0  0  0  0  0  0  0  0
    0.7546    1.7610   -0.5060 H   0  0  0  0  0  0  0  0  0  0  0  0
    2.6729    1.4989   -1.5427 N   0  0  0  0  0  0  0  0  0  0  0  0
    3.0515    2.4428   -1.5067 H   0  0  0  0  0  0  0  0  0  0  0  0
    3.3013    0.4337   -2.1592 C   0  0  0  0  0  0  0  0  0  0  0  0
    4.5258    0.3308   -2.8193 C   0  0  0  0  0  0  0  0  0  0  0  0
    5.1712    1.1970   -2.9128 H   0  0  0  0  0  0  0  0  0  0  0  0
    4.9090   -0.9052   -3.3580 C   0  0  0  0  0  0  0  0  0  0  0  0
    5.8598   -1.0013   -3.8737 H   0  0  0  0  0  0  0  0  0  0  0  0
    4.0648   -2.0186   -3.2317 C   0  0  0  0  0  0  0  0  0  0  0  0
    4.3626   -2.9754   -3.6496 H   0  0  0  0  0  0  0  0  0  0  0  0
    2.8358   -1.9007   -2.5670 C   0  0  0  0  0  0  0  0  0  0  0  0
    2.1813   -2.7607   -2.4696 H   0  0  0  0  0  0  0  0  0  0  0  0
    2.4601   -0.6636   -2.0302 C   0  0  0  0  0  0  0  0  0  0  0  0
   -1.5166    0.5400   -0.0037 C   0  0  0  0  0  0  0  0  0  0  0  0
   -2.3494    0.7992   -0.8656 O   0  0  0  0  0  0  0  0  0  0  0  0
   -1.1777    1.5118    0.9220 N   0  0  0  0  0  0  0  0  0  0  0  0
   -0.5814    1.2279    1.6952 H   0  0  0  0  0  0  0  0  0  0  0  0
   -1.8082    2.8255    0.9666 C   0  0  0  0  0  0  0  0  0  0  0  0
   -2.8822    2.7288    1.1576 H   0  0  0  0  0  0  0  0  0  0  0  0
   -1.3668    3.4289    1.7657 H   0  0  0  0  0  0  0  0  0  0  0  0
   -1.6652    3.3525    0.0172 H   0  0  0  0  0  0  0  0  0  0  0  0
  1  2  1  0  0  0  0
  2  3  1  0  0  0  0
  2  4  1  0  0  0  0
  2  5  1  0  0  0  0
  5  6  2  0  0  0  0
  5  7  1  0  0  0  0
  7  8  1  0  0  0  0
  7  9  1  0  0  0  0
  9 10  1  0  0  0  0
  9 11  1  0  0  0  0
  9 29  1  0  0  0  0
 11 12  1  0  0  0  0
 11 13  1  0  0  0  0
 11 14  1  0  0  0  0
 14 15  2  0  0  0  0
 14 28  1  0  0  0  0
 15 16  1  0  0  0  0
 15 17  1  0  0  0  0
 17 18  1  0  0  0  0
 17 19  1  0  0  0  0
 19 20  1  0  0  0  0
 19 28  2  0  0  0  0
 20 21  1  0  0  0  0
 20 22  2  0  0  0  0
 22 23  1  0  0  0  0
 22 24  1  0  0  0  0
 24 25  1  0  0  0  0
 24 26  2  0  0  0  0
 26 27  1  0  0  0  0
 26 28  1  0  0  0  0
 29 30  2  0  0  0  0
 29 31  1  0  0  0  0
 31 32  1  0  0  0  0
 31 33  1  0  0  0  0
 33 34  1  0  0  0  0
 33 35  1  0  0  0  0
 33 36  1  0  0  0  0
M  END
$$$$

  -OEChem-03222214083D

 36 37  0     1  0  0  0  0  0999 V2000
   -3.5617   -4.6272    1.0563 H   0  0  0  0  0  0  0  0  0  0  0  0
   -3.5080   -3.7852    0.3605 C   0  0  0  0  0  0  0  0  0  0  0  0
   -4.4031   -3.1704    0.4815 H   0  0  0  0  0  0  0  0  0  0  0  0
   -3.4761   -4.1738   -0.6603 H   0  0  0  0  0  0  0  0  0  0  0  0
   -2.2687   -2.9556    0.6381 C   0  0  0  0  0  0  0  0  0  0  0  0
   -1.5106   -3.2692    1.5415 O   0  0  0  0  0  0  0  0  0  0  0  0
   -2.0079   -1.8363   -0.1221 N   0  0  0  0  0  0  0  0  0  0  0  0
   -2.7143   -1.5477   -0.7979 H   0  0  0  0  0  0  0  0  0  0  0  0
   -0.8924   -0.9057    0.1138 C   0  0  1  0  0  0  0  0  0  0  0  0
   -0.4609   -1.0278    1.1122 H   0  0  0  0  0  0  0  0  0  0  0  0
    0.1708   -1.2577   -0.9521 C   0  0  0  0  0  0  0  0  0  0  0  0
    0.6077   -2.2226   -0.6743 H   0  0  0  0  0  0  0  0  0  0  0  0
   -0.3476   -1.3981   -1.9068 H   0  0  0  0  0  0  0  0  0  0  0  0
    1.3101   -0.2953   -1.2304 C   0  0  0  0  0  0  0  0  0  0  0  0
    1.6410    0.9329   -0.6979 C   0  0  0  0  0  0  0  0  0  0  0  0
    1.1135    1.4681    0.0817 H   0  0  0  0  0  0  0  0  0  0  0  0
    2.7938    1.3862   -1.3343 N   0  0  0  0  0  0  0  0  0  0  0  0
    3.2573    2.2737   -1.1526 H   0  0  0  0  0  0  0  0  0  0  0  0
    3.2192    0.4665   -2.2744 C   0  0  0  0  0  0  0  0  0  0  0  0
    4.3031    0.4661   -3.1527 C   0  0  0  0  0  0  0  0  0  0  0  0
    4.9917    1.3035   -3.1721 H   0  0  0  0  0  0  0  0  0  0  0  0
    4.4886   -0.6298   -4.0071 C   0  0  0  0  0  0  0  0  0  0  0  0
    5.3282   -0.6450   -4.6958 H   0  0  0  0  0  0  0  0  0  0  0  0
    3.5904   -1.7074   -3.9726 C   0  0  0  0  0  0  0  0  0  0  0  0
    3.7364   -2.5564   -4.6333 H   0  0  0  0  0  0  0  0  0  0  0  0
    2.5031   -1.6927   -3.0870 C   0  0  0  0  0  0  0  0  0  0  0  0
    1.8059   -2.5237   -3.0583 H   0  0  0  0  0  0  0  0  0  0  0  0
    2.3246   -0.5948   -2.2378 C   0  0  0  0  0  0  0  0  0  0  0  0
   -1.4662    0.5227    0.0002 C   0  0  0  0  0  0  0  0  0  0  0  0
   -2.2662    0.7939   -0.8891 O   0  0  0  0  0  0  0  0  0  0  0  0
   -1.1422    1.4942    0.9317 N   0  0  0  0  0  0  0  0  0  0  0  0
   -0.6075    1.1980    1.7438 H   0  0  0  0  0  0  0  0  0  0  0  0
   -1.7387    2.8245    0.9318 C   0  0  0  0  0  0  0  0  0  0  0  0
   -2.8224    2.7594    1.0750 H   0  0  0  0  0  0  0  0  0  0  0  0
   -1.3175    3.4279    1.7417 H   0  0  0  0  0  0  0  0  0  0  0  0
   -1.5387    3.3338   -0.0169 H   0  0  0  0  0  0  0  0  0  0  0  0
  1  2  1  0  0  0  0
  2  3  1  0  0  0  0
  2  4  1  0  0  0  0
  2  5  1  0  0  0  0
  5  6  2  0  0  0  0
  5  7  1  0  0  0  0
  7  8  1  0  0  0  0
  7  9  1  0  0  0  0
  9 10  1  0  0  0  0
  9 11  1  0  0  0  0
  9 29  1  0  0  0  0
 11 12  1  0  0  0  0
 11 13  1  0  0  0  0
 11 14  1  0  0  0  0
 14 15  2  0  0  0  0
 14 28  1  0  0  0  0
 15 16  1  0  0  0  0
 15 17  1  0  0  0  0
 17 18  1  0  0  0  0
 17 19  1  0  0  0  0
 19 20  1  0  0  0  0
 19 28  2  0  0  0  0
 20 21  1  0  0  0  0
 20 22  2  0  0  0  0
 22 23  1  0  0  0  0
 22 24  1  0  0  0  0
 24 25  1  0  0  0  0
 24 26  2  0  0  0  0
 26 27  1  0  0  0  0
 26 28  1  0  0  0  0
 29 30  2  0  0  0  0
 29 31  1  0  0  0  0
 31 32  1  0  0  0  0
 31 33  1  0  0  0  0
 33 34  1  0  0  0  0
 33 35  1  0  0  0  0
 33 36  1  0  0  0  0
M  END
$$$$

  -OEChem-03222214083D

 36 37  0     1  0  0  0  0  0999 V2000
   -3.6929   -4.5589    1.1260 H   0  0  0  0  0  0  0  0  0  0  0  0
   -3.6105   -3.7317    0.4152 C   0  0  0  0  0  0  0  0  0  0  0  0
   -4.4790   -3.0788    0.5317 H   0  0  0  0  0  0  0  0  0  0  0  0
   -3.6023   -4.1385   -0.5990 H   0  0  0  0  0  0  0  0  0  0  0  0
   -2.3361   -2.9490    0.6687 C   0  0  0  0  0  0  0  0  0  0  0  0
   -1.5823   -3.2788    1.5701 O   0  0  0  0  0  0  0  0  0  0  0  0
   -2.0383   -1.8545   -0.1135 N   0  0  0  0  0  0  0  0  0  0  0  0
   -2.7420   -1.5462   -0.7836 H   0  0  0  0  0  0  0  0  0  0  0  0
   -0.8861   -0.9641    0.0975 C   0  0  1  0  0  0  0  0  0  0  0  0
   -0.4483   -1.0895    1.0926 H   0  0  0  0  0  0  0  0  0  0  0  0
    0.1523   -1.3463   -0.9799 C   0  0  0  0  0  0  0  0  0  0  0  0
    0.5712   -2.3253   -0.7261 H   0  0  0  0  0  0  0  0  0  0  0  0
   -0.3835   -1.4565   -1.9287 H   0  0  0  0  0  0  0  0  0  0  0  0
    1.2998   -0.3920   -1.2403 C   0  0  0  0  0  0  0  0  0  0  0  0
    1.7707    0.6713   -0.5016 C   0  0  0  0  0  0  0  0  0  0  0  0
    1.3894    1.0064    0.4567 H   0  0  0  0  0  0  0  0  0  0  0  0
    2.8446    1.2327   -1.1880 N   0  0  0  0  0  0  0  0  0  0  0  0
    3.3869    2.0370   -0.8806 H   0  0  0  0  0  0  0  0  0  0  0  0
    3.0778    0.5425   -2.3640 C   0  0  0  0  0  0  0  0  0  0  0  0
    4.0258    0.7163   -3.3724 C   0  0  0  0  0  0  0  0  0  0  0  0
    4.7531    1.5177   -3.3066 H   0  0  0  0  0  0  0  0  0  0  0  0
    4.0247   -0.1575   -4.4689 C   0  0  0  0  0  0  0  0  0  0  0  0
    4.7567   -0.0347   -5.2615 H   0  0  0  0  0  0  0  0  0  0  0  0
    3.0786   -1.1911   -4.5429 C   0  0  0  0  0  0  0  0  0  0  0  0
    3.0790   -1.8670   -5.3926 H   0  0  0  0  0  0  0  0  0  0  0  0
    2.1308   -1.3550   -3.5226 C   0  0  0  0  0  0  0  0  0  0  0  0
    1.3981   -2.1536   -3.5761 H   0  0  0  0  0  0  0  0  0  0  0  0
    2.1380   -0.4780   -2.4322 C   0  0  0  0  0  0  0  0  0  0  0  0
   -1.4033    0.4857   -0.0375 C   0  0  0  0  0  0  0  0  0  0  0  0
   -2.2106    0.7664   -0.9178 O   0  0  0  0  0  0  0  0  0  0  0  0
   -1.0351    1.4629    0.8715 N   0  0  0  0  0  0  0  0  0  0  0  0
   -0.5188    1.1613    1.6926 H   0  0  0  0  0  0  0  0  0  0  0  0
   -1.5799    2.8151    0.8452 C   0  0  0  0  0  0  0  0  0  0  0  0
   -2.6626    2.7959    1.0087 H   0  0  0  0  0  0  0  0  0  0  0  0
   -1.1209    3.4234    1.6302 H   0  0  0  0  0  0  0  0  0  0  0  0
   -1.3779    3.2906   -0.1205 H   0  0  0  0  0  0  0  0  0  0  0  0
  1  2  1  0  0  0  0
  2  3  1  0  0  0  0
  2  4  1  0  0  0  0
  2  5  1  0  0  0  0
  5  6  2  0  0  0  0
  5  7  1  0  0  0  0
  7  8  1  0  0  0  0
  7  9  1  0  0  0  0
  9 10  1  0  0  0  0
  9 11  1  0  0  0  0
  9 29  1  0  0  0  0
 11 12  1  0  0  0  0
 11 13  1  0  0  0  0
 11 14  1  0  0  0  0
 14 15  2  0  0  0  0
 14 28  1  0  0  0  0
 15 16  1  0  0  0  0
 15 17  1  0  0  0  0
 17 18  1  0  0  0  0
 17 19  1  0  0  0  0
 19 20  1  0  0  0  0
 19 28  2  0  0  0  0
 20 21  1  0  0  0  0
 20 22  2  0  0  0  0
 22 23  1  0  0  0  0
 22 24  1  0  0  0  0
 24 25  1  0  0  0  0
 24 26  2  0  0  0  0
 26 27  1  0  0  0  0
 26 28  1  0  0  0  0
 29 30  2  0  0  0  0
 29 31  1  0  0  0  0
 31 32  1  0  0  0  0
 31 33  1  0  0  0  0
 33 34  1  0  0  0  0
 33 35  1  0  0  0  0
 33 36  1  0  0  0  0
M  END
$$$$

  -OEChem-03222214083D

 36 37  0     1  0  0  0  0  0999 V2000
   -3.7861   -4.4944    1.2728 H   0  0  0  0  0  0  0  0  0  0  0  0
   -3.6999   -3.6866    0.5408 C   0  0  0  0  0  0  0  0  0  0  0  0
   -4.5366   -2.9969    0.6761 H   0  0  0  0  0  0  0  0  0  0  0  0
   -3.7479   -4.1151   -0.4632 H   0  0  0  0  0  0  0  0  0  0  0  0
   -2.3870   -2.9506    0.7269 C   0  0  0  0  0  0  0  0  0  0  0  0
   -1.6153   -3.2855    1.6113 O   0  0  0  0  0  0  0  0  0  0  0  0
   -2.0739   -1.8905   -0.0953 N   0  0  0  0  0  0  0  0  0  0  0  0
   -2.7908   -1.5679   -0.7445 H   0  0  0  0  0  0  0  0  0  0  0  0
   -0.8893   -1.0333    0.0632 C   0  0  1  0  0  0  0  0  0  0  0  0
   -0.4370   -1.1471    1.0533 H   0  0  0  0  0  0  0  0  0  0  0  0
    0.1222   -1.4553   -1.0219 C   0  0  0  0  0  0  0  0  0  0  0  0
    0.5347   -2.4366   -0.7671 H   0  0  0  0  0  0  0  0  0  0  0  0
   -0.4278   -1.5658   -1.9620 H   0  0  0  0  0  0  0  0  0  0  0  0
    1.2651   -0.4971   -1.2780 C   0  0  0  0  0  0  0  0  0  0  0  0
    1.8740    0.3672   -0.3962 C   0  0  0  0  0  0  0  0  0  0  0  0
    1.6326    0.4754    0.6571 H   0  0  0  0  0  0  0  0  0  0  0  0
    2.8625    1.0616   -1.0880 N   0  0  0  0  0  0  0  0  0  0  0  0
    3.4780    1.7678   -0.6905 H   0  0  0  0  0  0  0  0  0  0  0  0
    2.8986    0.6553   -2.4106 C   0  0  0  0  0  0  0  0  0  0  0  0
    3.6992    1.0538   -3.4810 C   0  0  0  0  0  0  0  0  0  0  0  0
    4.4572    1.8165   -3.3429 H   0  0  0  0  0  0  0  0  0  0  0  0
    3.5087    0.4573   -4.7352 C   0  0  0  0  0  0  0  0  0  0  0  0
    4.1231    0.7588   -5.5784 H   0  0  0  0  0  0  0  0  0  0  0  0
    2.5244   -0.5286   -4.9024 C   0  0  0  0  0  0  0  0  0  0  0  0
    2.3786   -0.9896   -5.8745 H   0  0  0  0  0  0  0  0  0  0  0  0
    1.7257   -0.9203   -3.8184 C   0  0  0  0  0  0  0  0  0  0  0  0
    0.9631   -1.6810   -3.9464 H   0  0  0  0  0  0  0  0  0  0  0  0
    1.9200   -0.3188   -2.5699 C   0  0  0  0  0  0  0  0  0  0  0  0
   -1.3522    0.4320   -0.1024 C   0  0  0  0  0  0  0  0  0  0  0  0
   -2.1863    0.7136   -0.9575 O   0  0  0  0  0  0  0  0  0  0  0  0
   -0.9246    1.4190    0.7685 N   0  0  0  0  0  0  0  0  0  0  0  0
   -0.3504    1.1350    1.5555 H   0  0  0  0  0  0  0  0  0  0  0  0
   -1.3906    2.7983    0.6979 C   0  0  0  0  0  0  0  0  0  0  0  0
   -2.4726    2.8470    0.8598 H   0  0  0  0  0  0  0  0  0  0  0  0
   -0.8982    3.4037    1.4650 H   0  0  0  0  0  0  0  0  0  0  0  0
   -1.1610    3.2296   -0.2825 H   0  0  0  0  0  0  0  0  0  0  0  0
  1  2  1  0  0  0  0
  2  3  1  0  0  0  0
  2  4  1  0  0  0  0
  2  5  1  0  0  0  0
  5  6  2  0  0  0  0
  5  7  1  0  0  0  0
  7  8  1  0  0  0  0
  7  9  1  0  0  0  0
  9 10  1  0  0  0  0
  9 11  1  0  0  0  0
  9 29  1  0  0  0  0
 11 12  1  0  0  0  0
 11 13  1  0  0  0  0
 11 14  1  0  0  0  0
 14 15  2  0  0  0  0
 14 28  1  0  0  0  0
 15 16  1  0  0  0  0
 15 17  1  0  0  0  0
 17 18  1  0  0  0  0
 17 19  1  0  0  0  0
 19 20  1  0  0  0  0
 19 28  2  0  0  0  0
 20 21  1  0  0  0  0
 20 22  2  0  0  0  0
 22 23  1  0  0  0  0
 22 24  1  0  0  0  0
 24 25  1  0  0  0  0
 24 26  2  0  0  0  0
 26 27  1  0  0  0  0
 26 28  1  0  0  0  0
 29 30  2  0  0  0  0
 29 31  1  0  0  0  0
 31 32  1  0  0  0  0
 31 33  1  0  0  0  0
 33 34  1  0  0  0  0
 33 35  1  0  0  0  0
 33 36  1  0  0  0  0
M  END
$$$$

  -OEChem-03222214083D

 36 37  0     1  0  0  0  0  0999 V2000
   -3.8272   -4.4458    1.4164 H   0  0  0  0  0  0  0  0  0  0  0  0
   -3.7486   -3.6554    0.6650 C   0  0  0  0  0  0  0  0  0  0  0  0
   -4.5577   -2.9380    0.8224 H   0  0  0  0  0  0  0  0  0  0  0  0
   -3.8528   -4.1012   -0.3273 H   0  0  0  0  0  0  0  0  0  0  0  0
   -2.4071   -2.9567    0.7791 C   0  0  0  0  0  0  0  0  0  0  0  0
   -1.6074   -3.2988    1.6356 O   0  0  0  0  0  0  0  0  0  0  0  0
   -2.0961   -1.9270   -0.0815 N   0  0  0  0  0  0  0  0  0  0  0  0
   -2.8343   -1.5891   -0.6983 H   0  0  0  0  0  0  0  0  0  0  0  0
   -0.8905   -1.0918    0.0219 C   0  0  1  0  0  0  0  0  0  0  0  0
   -0.4215   -1.1872    1.0062 H   0  0  0  0  0  0  0  0  0  0  0  0
    0.0980   -1.5459   -1.0678 C   0  0  0  0  0  0  0  0  0  0  0  0
    0.5155   -2.5208   -0.7976 H   0  0  0  0  0  0  0  0  0  0  0  0
   -0.4586   -1.6765   -2.0010 H   0  0  0  0  0  0  0  0  0  0  0  0
    1.2269   -0.5739   -1.3238 C   0  0  0  0  0  0  0  0  0  0  0  0
    1.9872    0.0717   -0.3753 C   0  0  0  0  0  0  0  0  0  0  0  0
    1.9040   -0.0608    0.7005 H   0  0  0  0  0  0  0  0  0  0  0  0
    2.8881    0.8984   -1.0408 N   0  0  0  0  0  0  0  0  0  0  0  0
    3.5918    1.4852   -0.5979 H   0  0  0  0  0  0  0  0  0  0  0  0
    2.7129    0.7948   -2.4107 C   0  0  0  0  0  0  0  0  0  0  0  0
    3.3643    1.4165   -3.4760 C   0  0  0  0  0  0  0  0  0  0  0  0
    4.1652    2.1235   -3.2906 H   0  0  0  0  0  0  0  0  0  0  0  0
    2.9694    1.1157   -4.7870 C   0  0  0  0  0  0  0  0  0  0  0  0
    3.4668    1.5922   -5.6265 H   0  0  0  0  0  0  0  0  0  0  0  0
    1.9304    0.2008   -5.0156 C   0  0  0  0  0  0  0  0  0  0  0  0
    1.6242   -0.0291   -6.0316 H   0  0  0  0  0  0  0  0  0  0  0  0
    1.2833   -0.4178   -3.9362 C   0  0  0  0  0  0  0  0  0  0  0  0
    0.4782   -1.1233   -4.1120 H   0  0  0  0  0  0  0  0  0  0  0  0
    1.6842   -0.1144   -2.6304 C   0  0  0  0  0  0  0  0  0  0  0  0
   -1.3220    0.3807   -0.1721 C   0  0  0  0  0  0  0  0  0  0  0  0
   -2.2010    0.6519   -0.9854 O   0  0  0  0  0  0  0  0  0  0  0  0
   -0.8469    1.3803    0.6583 N   0  0  0  0  0  0  0  0  0  0  0  0
   -0.1400    1.1301    1.3415 H   0  0  0  0  0  0  0  0  0  0  0  0
   -1.2469    2.7765    0.5350 C   0  0  0  0  0  0  0  0  0  0  0  0
   -2.3273    2.8805    0.6808 H   0  0  0  0  0  0  0  0  0  0  0  0
   -0.7376    3.3844    1.2887 H   0  0  0  0  0  0  0  0  0  0  0  0
   -0.9854    3.1628   -0.4559 H   0  0  0  0  0  0  0  0  0  0  0  0
  1  2  1  0  0  0  0
  2  3  1  0  0  0  0
  2  4  1  0  0  0  0
  2  5  1  0  0  0  0
  5  6  2  0  0  0  0
  5  7  1  0  0  0  0
  7  8  1  0  0  0  0
  7  9  1  0  0  0  0
  9 10  1  0  0  0  0
  9 11  1  0  0  0  0
  9 29  1  0  0  0  0
 11 12  1  0  0  0  0
 11 13  1  0  0  0  0
 11 14  1  0  0  0  0
 14 15  2  0  0  0  0
 14 28  1  0  0  0  0
 15 16  1  0  0  0  0
 15 17  1  0  0  0  0
 17 18  1  0  0  0  0
 17 19  1  0  0  0  0
 19 20  1  0  0  0  0
 19 28  2  0  0  0  0
 20 21  1  0  0  0  0
 20 22  2  0  0  0  0
 22 23  1  0  0  0  0
 22 24  1  0  0  0  0
 24 25  1  0  0  0  0
 24 26  2  0  0  0  0
 26 27  1  0  0  0  0
 26 28  1  0  0  0  0
 29 30  2  0  0  0  0
 29 31  1  0  0  0  0
 31 32  1  0  0  0  0
 31 33  1  0  0  0  0
 33 34  1  0  0  0  0
 33 35  1  0  0  0  0
 33 36  1  0  0  0  0
M  END
$$$$

  -OEChem-03222214083D

 36 37  0     1  0  0  0  0  0999 V2000
   -3.8419   -4.4050    1.5380 H   0  0  0  0  0  0  0  0  0  0  0  0
   -3.7747   -3.6317    0.7675 C   0  0  0  0  0  0  0  0  0  0  0  0
   -4.5551   -2.8879    0.9452 H   0  0  0  0  0  0  0  0  0  0  0  0
   -3.9366   -4.0934   -0.2095 H   0  0  0  0  0  0  0  0  0  0  0  0
   -2.4105   -2.9694    0.8084 C   0  0  0  0  0  0  0  0  0  0  0  0
   -1.5862   -3.3150    1.6401 O   0  0  0  0  0  0  0  0  0  0  0  0
   -2.1079   -1.9664   -0.0867 N   0  0  0  0  0  0  0  0  0  0  0  0
   -2.8647   -1.6183   -0.6747 H   0  0  0  0  0  0  0  0  0  0  0  0
   -0.8915   -1.1420   -0.0276 C   0  0  1  0  0  0  0  0  0  0  0  0
   -0.4151   -1.2145    0.9549 H   0  0  0  0  0  0  0  0  0  0  0  0
    0.0927   -1.6188   -1.1085 C   0  0  0  0  0  0  0  0  0  0  0  0
    0.5240   -2.5785   -0.8062 H   0  0  0  0  0  0  0  0  0  0  0  0
   -0.4524   -1.7853   -2.0425 H   0  0  0  0  0  0  0  0  0  0  0  0
    1.2021   -0.6261   -1.3603 C   0  0  0  0  0  0  0  0  0  0  0  0
    2.1142   -0.1916   -0.4266 C   0  0  0  0  0  0  0  0  0  0  0  0
    2.1852   -0.5451    0.6000 H   0  0  0  0  0  0  0  0  0  0  0  0
    2.9274    0.7587   -1.0383 N   0  0  0  0  0  0  0  0  0  0  0  0
    3.7135    1.2352   -0.6008 H   0  0  0  0  0  0  0  0  0  0  0  0
    2.5359    0.9513   -2.3531 C   0  0  0  0  0  0  0  0  0  0  0  0
    3.0301    1.7907   -3.3518 C   0  0  0  0  0  0  0  0  0  0  0  0
    3.8757    2.4395   -3.1532 H   0  0  0  0  0  0  0  0  0  0  0  0
    2.4175    1.7857   -4.6127 C   0  0  0  0  0  0  0  0  0  0  0  0
    2.7899    2.4344   -5.3999 H   0  0  0  0  0  0  0  0  0  0  0  0
    1.3203    0.9461   -4.8578 C   0  0  0  0  0  0  0  0  0  0  0  0
    0.8433    0.9478   -5.8333 H   0  0  0  0  0  0  0  0  0  0  0  0
    0.8341    0.1049   -3.8463 C   0  0  0  0  0  0  0  0  0  0  0  0
   -0.0182   -0.5402   -4.0324 H   0  0  0  0  0  0  0  0  0  0  0  0
    1.4555    0.1094   -2.5930 C   0  0  0  0  0  0  0  0  0  0  0  0
   -1.2999    0.3323   -0.2515 C   0  0  0  0  0  0  0  0  0  0  0  0
   -2.2041    0.5954   -1.0399 O   0  0  0  0  0  0  0  0  0  0  0  0
   -0.7879    1.3395    0.5464 N   0  0  0  0  0  0  0  0  0  0  0  0
    0.0138    1.1060    1.1231 H   0  0  0  0  0  0  0  0  0  0  0  0
   -1.1129    2.7455    0.3437 C   0  0  0  0  0  0  0  0  0  0  0  0
   -2.1874    2.9131    0.4726 H   0  0  0  0  0  0  0  0  0  0  0  0
   -0.5784    3.3655    1.0697 H   0  0  0  0  0  0  0  0  0  0  0  0
   -0.8237    3.0632   -0.6639 H   0  0  0  0  0  0  0  0  0  0  0  0
  1  2  1  0  0  0  0
  2  3  1  0  0  0  0
  2  4  1  0  0  0  0
  2  5  1  0  0  0  0
  5  6  2  0  0  0  0
  5  7  1  0  0  0  0
  7  8  1  0  0  0  0
  7  9  1  0  0  0  0
  9 10  1  0  0  0  0
  9 11  1  0  0  0  0
  9 29  1  0  0  0  0
 11 12  1  0  0  0  0
 11 13  1  0  0  0  0
 11 14  1  0  0  0  0
 14 15  2  0  0  0  0
 14 28  1  0  0  0  0
 15 16  1  0  0  0  0
 15 17  1  0  0  0  0
 17 18  1  0  0  0  0
 17 19  1  0  0  0  0
 19 20  1  0  0  0  0
 19 28  2  0  0  0  0
 20 21  1  0  0  0  0
 20 22  2  0  0  0  0
 22 23  1  0  0  0  0
 22 24  1  0  0  0  0
 24 25  1  0  0  0  0
 24 26  2  0  0  0  0
 26 27  1  0  0  0  0
 26 28  1  0  0  0  0
 29 30  2  0  0  0  0
 29 31  1  0  0  0  0
 31 32  1  0  0  0  0
 31 33  1  0  0  0  0
 33 34  1  0  0  0  0
 33 35  1  0  0  0  0
 33 36  1  0  0  0  0
M  END
$$$$

  -OEChem-03222214083D

 36 37  0     1  0  0  0  0  0999 V2000
   -3.8292   -4.3898    1.5699 H   0  0  0  0  0  0  0  0  0  0  0  0
   -3.7694   -3.6212    0.7944 C   0  0  0  0  0  0  0  0  0  0  0  0
   -4.5445   -2.8734    0.9786 H   0  0  0  0  0  0  0  0  0  0  0  0
   -3.9458   -4.0876   -0.1779 H   0  0  0  0  0  0  0  0  0  0  0  0
   -2.4022   -2.9643    0.8136 C   0  0  0  0  0  0  0  0  0  0  0  0
   -1.5678   -3.3083    1.6359 O   0  0  0  0  0  0  0  0  0  0  0  0
   -2.1057   -1.9730   -0.0963 N   0  0  0  0  0  0  0  0  0  0  0  0
   -2.8673   -1.6296   -0.6807 H   0  0  0  0  0  0  0  0  0  0  0  0
   -0.8877   -1.1507   -0.0579 C   0  0  1  0  0  0  0  0  0  0  0  0
   -0.4038   -1.2110    0.9220 H   0  0  0  0  0  0  0  0  0  0  0  0
    0.0903   -1.6426   -1.1362 C   0  0  0  0  0  0  0  0  0  0  0  0
    0.5263   -2.5938   -0.8146 H   0  0  0  0  0  0  0  0  0  0  0  0
   -0.4485   -1.8283   -2.0706 H   0  0  0  0  0  0  0  0  0  0  0  0
    1.1896   -0.6430   -1.3933 C   0  0  0  0  0  0  0  0  0  0  0  0
    2.2627   -0.4119   -0.5663 C   0  0  0  0  0  0  0  0  0  0  0  0
    2.4845   -0.9581    0.3485 H   0  0  0  0  0  0  0  0  0  0  0  0
    3.0025    0.6318   -1.1170 N   0  0  0  0  0  0  0  0  0  0  0  0
    3.8719    1.0030   -0.7391 H   0  0  0  0  0  0  0  0  0  0  0  0
    2.4003    1.0891   -2.2785 C   0  0  0  0  0  0  0  0  0  0  0  0
    2.7455    2.1099   -3.1644 C   0  0  0  0  0  0  0  0  0  0  0  0
    3.6402    2.6994   -2.9985 H   0  0  0  0  0  0  0  0  0  0  0  0
    1.9181    2.3662   -4.2671 C   0  0  0  0  0  0  0  0  0  0  0  0
    2.1733    3.1578   -4.9651 H   0  0  0  0  0  0  0  0  0  0  0  0
    0.7557    1.6056   -4.4666 C   0  0  0  0  0  0  0  0  0  0  0  0
    0.1101    1.8119   -5.3149 H   0  0  0  0  0  0  0  0  0  0  0  0
    0.4198    0.5808   -3.5706 C   0  0  0  0  0  0  0  0  0  0  0  0
   -0.4858   -0.0004   -3.7132 H   0  0  0  0  0  0  0  0  0  0  0  0
    1.2584    0.3229   -2.4816 C   0  0  0  0  0  0  0  0  0  0  0  0
   -1.2925    0.3223   -0.2961 C   0  0  0  0  0  0  0  0  0  0  0  0
   -2.1950    0.5787   -1.0894 O   0  0  0  0  0  0  0  0  0  0  0  0
   -0.7692    1.3363    0.4853 N   0  0  0  0  0  0  0  0  0  0  0  0
    0.0499    1.1028    1.0378 H   0  0  0  0  0  0  0  0  0  0  0  0
   -1.0431    2.7430    0.2220 C   0  0  0  0  0  0  0  0  0  0  0  0
   -2.1167    2.9460    0.2948 H   0  0  0  0  0  0  0  0  0  0  0  0
   -0.5242    3.3717    0.9518 H   0  0  0  0  0  0  0  0  0  0  0  0
   -0.6979    3.0174   -0.7808 H   0  0  0  0  0  0  0  0  0  0  0  0
  1  2  1  0  0  0  0
  2  3  1  0  0  0  0
  2  4  1  0  0  0  0
  2  5  1  0  0  0  0
  5  6  2  0  0  0  0
  5  7  1  0  0  0  0
  7  8  1  0  0  0  0
  7  9  1  0  0  0  0
  9 10  1  0  0  0  0
  9 11  1  0  0  0  0
  9 29  1  0  0  0  0
 11 12  1  0  0  0  0
 11 13  1  0  0  0  0
 11 14  1  0  0  0  0
 14 15  2  0  0  0  0
 14 28  1  0  0  0  0
 15 16  1  0  0  0  0
 15 17  1  0  0  0  0
 17 18  1  0  0  0  0
 17 19  1  0  0  0  0
 19 20  1  0  0  0  0
 19 28  2  0  0  0  0
 20 21  1  0  0  0  0
 20 22  2  0  0  0  0
 22 23  1  0  0  0  0
 22 24  1  0  0  0  0
 24 25  1  0  0  0  0
 24 26  2  0  0  0  0
 26 27  1  0  0  0  0
 26 28  1  0  0  0  0
 29 30  2  0  0  0  0
 29 31  1  0  0  0  0
 31 32  1  0  0  0  0
 31 33  1  0  0  0  0
 33 34  1  0  0  0  0
 33 35  1  0  0  0  0
 33 36  1  0  0  0  0
M  END
$$$$

  -OEChem-03222214083D

 36 37  0     1  0  0  0  0  0999 V2000
   -3.7752   -4.4281    1.5590 H   0  0  0  0  0  0  0  0  0  0  0  0
   -3.7418   -3.6494    0.7918 C   0  0  0  0  0  0  0  0  0  0  0  0
   -4.5224   -2.9141    1.0016 H   0  0  0  0  0  0  0  0  0  0  0  0
   -3.9329   -4.1060   -0.1823 H   0  0  0  0  0  0  0  0  0  0  0  0
   -2.3827   -2.9758    0.7906 C   0  0  0  0  0  0  0  0  0  0  0  0
   -1.5200   -3.3365    1.5756 O   0  0  0  0  0  0  0  0  0  0  0  0
   -2.1248   -1.9525   -0.0955 N   0  0  0  0  0  0  0  0  0  0  0  0
   -2.9085   -1.5963   -0.6417 H   0  0  0  0  0  0  0  0  0  0  0  0
   -0.9168   -1.1149   -0.0608 C   0  0  1  0  0  0  0  0  0  0  0  0
   -0.4167   -1.1937    0.9097 H   0  0  0  0  0  0  0  0  0  0  0  0
    0.0566   -1.5790   -1.1572 C   0  0  0  0  0  0  0  0  0  0  0  0
    0.5022   -2.5315   -0.8527 H   0  0  0  0  0  0  0  0  0  0  0  0
   -0.4893   -1.7562   -2.0894 H   0  0  0  0  0  0  0  0  0  0  0  0
    1.1443   -0.5680   -1.4211 C   0  0  0  0  0  0  0  0  0  0  0  0
    2.3570   -0.5358   -0.7762 C   0  0  0  0  0  0  0  0  0  0  0  0
    2.6847   -1.2397   -0.0136 H   0  0  0  0  0  0  0  0  0  0  0  0
    3.0745    0.5469   -1.2784 N   0  0  0  0  0  0  0  0  0  0  0  0
    4.0209    0.8049   -1.0051 H   0  0  0  0  0  0  0  0  0  0  0  0
    2.3337    1.2096   -2.2439 C   0  0  0  0  0  0  0  0  0  0  0  0
    2.6176    2.3319   -3.0221 C   0  0  0  0  0  0  0  0  0  0  0  0
    3.5693    2.8415   -2.9215 H   0  0  0  0  0  0  0  0  0  0  0  0
    1.6567    2.7914   -3.9338 C   0  0  0  0  0  0  0  0  0  0  0  0
    1.8629    3.6639   -4.5466 H   0  0  0  0  0  0  0  0  0  0  0  0
    0.4270    2.1264   -4.0543 C   0  0  0  0  0  0  0  0  0  0  0  0
   -0.3187    2.4856   -4.7569 H   0  0  0  0  0  0  0  0  0  0  0  0
    0.1536    0.9987   -3.2677 C   0  0  0  0  0  0  0  0  0  0  0  0
   -0.8011    0.4884   -3.3512 H   0  0  0  0  0  0  0  0  0  0  0  0
    1.1191    0.5440   -2.3638 C   0  0  0  0  0  0  0  0  0  0  0  0
   -1.3450    0.3589   -0.2412 C   0  0  0  0  0  0  0  0  0  0  0  0
   -2.2868    0.6263   -0.9842 O   0  0  0  0  0  0  0  0  0  0  0  0
   -0.8135    1.3529    0.5598 N   0  0  0  0  0  0  0  0  0  0  0  0
    0.0350    1.1186    1.0664 H   0  0  0  0  0  0  0  0  0  0  0  0
   -1.1378    2.7614    0.3744 C   0  0  0  0  0  0  0  0  0  0  0  0
   -2.2135    2.9276    0.4951 H   0  0  0  0  0  0  0  0  0  0  0  0
   -0.6113    3.3705    1.1152 H   0  0  0  0  0  0  0  0  0  0  0  0
   -0.8385    3.0935   -0.6256 H   0  0  0  0  0  0  0  0  0  0  0  0
  1  2  1  0  0  0  0
  2  3  1  0  0  0  0
  2  4  1  0  0  0  0
  2  5  1  0  0  0  0
  5  6  2  0  0  0  0
  5  7  1  0  0  0  0
  7  8  1  0  0  0  0
  7  9  1  0  0  0  0
  9 10  1  0  0  0  0
  9 11  1  0  0  0  0
  9 29  1  0  0  0  0
 11 12  1  0  0  0  0
 11 13  1  0  0  0  0
 11 14  1  0  0  0  0
 14 15  2  0  0  0  0
 14 28  1  0  0  0  0
 15 16  1  0  0  0  0
 15 17  1  0  0  0  0
 17 18  1  0  0  0  0
 17 19  1  0  0  0  0
 19 20  1  0  0  0  0
 19 28  2  0  0  0  0
 20 21  1  0  0  0  0
 20 22  2  0  0  0  0
 22 23  1  0  0  0  0
 22 24  1  0  0  0  0
 24 25  1  0  0  0  0
 24 26  2  0  0  0  0
 26 27  1  0  0  0  0
 26 28  1  0  0  0  0
 29 30  2  0  0  0  0
 29 31  1  0  0  0  0
 31 32  1  0  0  0  0
 31 33  1  0  0  0  0
 33 34  1  0  0  0  0
 33 35  1  0  0  0  0
 33 36  1  0  0  0  0
M  END
$$$$

  -OEChem-03222214083D

 36 37  0     1  0  0  0  0  0999 V2000
   -3.7346   -4.4970    1.4932 H   0  0  0  0  0  0  0  0  0  0  0  0
   -3.7199   -3.6934    0.7517 C   0  0  0  0  0  0  0  0  0  0  0  0
   -4.5064   -2.9749    0.9951 H   0  0  0  0  0  0  0  0  0  0  0  0
   -3.9180   -4.1202   -0.2345 H   0  0  0  0  0  0  0  0  0  0  0  0
   -2.3690   -3.0035    0.7544 C   0  0  0  0  0  0  0  0  0  0  0  0
   -1.4795   -3.4000    1.4908 O   0  0  0  0  0  0  0  0  0  0  0  0
   -2.1485   -1.9292   -0.0796 N   0  0  0  0  0  0  0  0  0  0  0  0
   -2.9536   -1.5545   -0.5804 H   0  0  0  0  0  0  0  0  0  0  0  0
   -0.9555   -1.0709   -0.0291 C   0  0  1  0  0  0  0  0  0  0  0  0
   -0.4468   -1.1840    0.9337 H   0  0  0  0  0  0  0  0  0  0  0  0
    0.0245   -1.4930   -1.1397 C   0  0  0  0  0  0  0  0  0  0  0  0
    0.4778   -2.4500   -0.8614 H   0  0  0  0  0  0  0  0  0  0  0  0
   -0.5288   -1.6516   -2.0710 H   0  0  0  0  0  0  0  0  0  0  0  0
    1.1049   -0.4716   -1.4051 C   0  0  0  0  0  0  0  0  0  0  0  0
    2.4100   -0.6097   -0.9964 C   0  0  0  0  0  0  0  0  0  0  0  0
    2.8044   -1.4416   -0.4160 H   0  0  0  0  0  0  0  0  0  0  0  0
    3.1189    0.4987   -1.4508 N   0  0  0  0  0  0  0  0  0  0  0  0
    4.1140    0.6608   -1.3087 H   0  0  0  0  0  0  0  0  0  0  0  0
    2.2927    1.3259   -2.1927 C   0  0  0  0  0  0  0  0  0  0  0  0
    2.5499    2.5203   -2.8655 C   0  0  0  0  0  0  0  0  0  0  0  0
    3.5413    2.9585   -2.8433 H   0  0  0  0  0  0  0  0  0  0  0  0
    1.5130    3.1414   -3.5747 C   0  0  0  0  0  0  0  0  0  0  0  0
    1.6970    4.0714   -4.1042 H   0  0  0  0  0  0  0  0  0  0  0  0
    0.2387    2.5564   -3.6095 C   0  0  0  0  0  0  0  0  0  0  0  0
   -0.5639    3.0328   -4.1647 H   0  0  0  0  0  0  0  0  0  0  0  0
   -0.0059    1.3543   -2.9312 C   0  0  0  0  0  0  0  0  0  0  0  0
   -0.9917    0.9015   -2.9676 H   0  0  0  0  0  0  0  0  0  0  0  0
    1.0274    0.7483   -2.2070 C   0  0  0  0  0  0  0  0  0  0  0  0
   -1.4068    0.4028   -0.1199 C   0  0  0  0  0  0  0  0  0  0  0  0
   -2.3916    0.6904   -0.7966 O   0  0  0  0  0  0  0  0  0  0  0  0
   -0.8668    1.3583    0.7214 N   0  0  0  0  0  0  0  0  0  0  0  0
    0.0058    1.1132    1.1802 H   0  0  0  0  0  0  0  0  0  0  0  0
   -1.2285    2.7675    0.6389 C   0  0  0  0  0  0  0  0  0  0  0  0
   -2.3045    2.8985    0.7948 H   0  0  0  0  0  0  0  0  0  0  0  0
   -0.6988    3.3385    1.4074 H   0  0  0  0  0  0  0  0  0  0  0  0
   -0.9610    3.1736   -0.3425 H   0  0  0  0  0  0  0  0  0  0  0  0
  1  2  1  0  0  0  0
  2  3  1  0  0  0  0
  2  4  1  0  0  0  0
  2  5  1  0  0  0  0
  5  6  2  0  0  0  0
  5  7  1  0  0  0  0
  7  8  1  0  0  0  0
  7  9  1  0  0  0  0
  9 10  1  0  0  0  0
  9 11  1  0  0  0  0
  9 29  1  0  0  0  0
 11 12  1  0  0  0  0
 11 13  1  0  0  0  0
 11 14  1  0  0  0  0
 14 15  2  0  0  0  0
 14 28  1  0  0  0  0
 15 16  1  0  0  0  0
 15 17  1  0  0  0  0
 17 18  1  0  0  0  0
 17 19  1  0  0  0  0
 19 20  1  0  0  0  0
 19 28  2  0  0  0  0
 20 21  1  0  0  0  0
 20 22  2  0  0  0  0
 22 23  1  0  0  0  0
 22 24  1  0  0  0  0
 24 25  1  0  0  0  0
 24 26  2  0  0  0  0
 26 27  1  0  0  0  0
 26 28  1  0  0  0  0
 29 30  2  0  0  0  0
 29 31  1  0  0  0  0
 31 32  1  0  0  0  0
 31 33  1  0  0  0  0
 33 34  1  0  0  0  0
 33 35  1  0  0  0  0
 33 36  1  0  0  0  0
M  END
$$$$

  -OEChem-03222214083D

 36 37  0     1  0  0  0  0  0999 V2000
   -3.6749   -4.5995    1.3921 H   0  0  0  0  0  0  0  0  0  0  0  0
   -3.6900   -3.7592    0.6924 C   0  0  0  0  0  0  0  0  0  0  0  0
   -4.4888   -3.0728    0.9838 H   0  0  0  0  0  0  0  0  0  0  0  0
   -3.8933   -4.1397   -0.3114 H   0  0  0  0  0  0  0  0  0  0  0  0
   -2.3548   -3.0397    0.7107 C   0  0  0  0  0  0  0  0  0  0  0  0
   -1.4415   -3.4608    1.4028 O   0  0  0  0  0  0  0  0  0  0  0  0
   -2.1733   -1.9138   -0.0630 N   0  0  0  0  0  0  0  0  0  0  0  0
   -2.9984   -1.5242   -0.5180 H   0  0  0  0  0  0  0  0  0  0  0  0
   -0.9986   -1.0321    0.0179 C   0  0  1  0  0  0  0  0  0  0  0  0
   -0.4897   -1.1823    0.9756 H   0  0  0  0  0  0  0  0  0  0  0  0
    0.0017   -1.4064   -1.0950 C   0  0  0  0  0  0  0  0  0  0  0  0
    0.4584   -2.3693   -0.8437 H   0  0  0  0  0  0  0  0  0  0  0  0
   -0.5521   -1.5435   -2.0293 H   0  0  0  0  0  0  0  0  0  0  0  0
    1.0809   -0.3784   -1.3582 C   0  0  0  0  0  0  0  0  0  0  0  0
    2.4186   -0.6637   -1.2133 C   0  0  0  0  0  0  0  0  0  0  0  0
    2.8242   -1.5992   -0.8329 H   0  0  0  0  0  0  0  0  0  0  0  0
    3.1464    0.4515   -1.6130 N   0  0  0  0  0  0  0  0  0  0  0  0
    4.1620    0.5242   -1.6126 H   0  0  0  0  0  0  0  0  0  0  0  0
    2.2956    1.4211   -2.1109 C   0  0  0  0  0  0  0  0  0  0  0  0
    2.5695    2.6677   -2.6732 C   0  0  0  0  0  0  0  0  0  0  0  0
    3.5898    3.0296   -2.7334 H   0  0  0  0  0  0  0  0  0  0  0  0
    1.5115    3.4372   -3.1725 C   0  0  0  0  0  0  0  0  0  0  0  0
    1.7068    4.4097   -3.6146 H   0  0  0  0  0  0  0  0  0  0  0  0
    0.2020    2.9400   -3.1229 C   0  0  0  0  0  0  0  0  0  0  0  0
   -0.6176    3.5236   -3.5316 H   0  0  0  0  0  0  0  0  0  0  0  0
   -0.0563    1.6842   -2.5561 C   0  0  0  0  0  0  0  0  0  0  0  0
   -1.0703    1.3006   -2.5552 H   0  0  0  0  0  0  0  0  0  0  0  0
    0.9950    0.9336   -2.0122 C   0  0  0  0  0  0  0  0  0  0  0  0
   -1.4766    0.4339    0.0209 C   0  0  0  0  0  0  0  0  0  0  0  0
   -2.4995    0.7350   -0.5906 O   0  0  0  0  0  0  0  0  0  0  0  0
   -0.9357    1.3452    0.9093 N   0  0  0  0  0  0  0  0  0  0  0  0
   -0.0443    1.0938    1.3274 H   0  0  0  0  0  0  0  0  0  0  0  0
   -1.3492    2.7419    0.9541 C   0  0  0  0  0  0  0  0  0  0  0  0
   -2.4227    2.8193    1.1560 H   0  0  0  0  0  0  0  0  0  0  0  0
   -0.8119    3.2682    1.7487 H   0  0  0  0  0  0  0  0  0  0  0  0
   -1.1319    3.2359    0.0012 H   0  0  0  0  0  0  0  0  0  0  0  0
  1  2  1  0  0  0  0
  2  3  1  0  0  0  0
  2  4  1  0  0  0  0
  2  5  1  0  0  0  0
  5  6  2  0  0  0  0
  5  7  1  0  0  0  0
  7  8  1  0  0  0  0
  7  9  1  0  0  0  0
  9 10  1  0  0  0  0
  9 11  1  0  0  0  0
  9 29  1  0  0  0  0
 11 12  1  0  0  0  0
 11 13  1  0  0  0  0
 11 14  1  0  0  0  0
 14 15  2  0  0  0  0
 14 28  1  0  0  0  0
 15 16  1  0  0  0  0
 15 17  1  0  0  0  0
 17 18  1  0  0  0  0
 17 19  1  0  0  0  0
 19 20  1  0  0  0  0
 19 28  2  0  0  0  0
 20 21  1  0  0  0  0
 20 22  2  0  0  0  0
 22 23  1  0  0  0  0
 22 24  1  0  0  0  0
 24 25  1  0  0  0  0
 24 26  2  0  0  0  0
 26 27  1  0  0  0  0
 26 28  1  0  0  0  0
 29 30  2  0  0  0  0
 29 31  1  0  0  0  0
 31 32  1  0  0  0  0
 31 33  1  0  0  0  0
 33 34  1  0  0  0  0
 33 35  1  0  0  0  0
 33 36  1  0  0  0  0
M  END
$$$$

  -OEChem-03222214083D

 36 37  0     1  0  0  0  0  0999 V2000
   -3.6052   -4.7399    1.1991 H   0  0  0  0  0  0  0  0  0  0  0  0
   -3.6415   -3.8637    0.5456 C   0  0  0  0  0  0  0  0  0  0  0  0
   -4.4707   -3.2247    0.8588 H   0  0  0  0  0  0  0  0  0  0  0  0
   -3.8138   -4.1961   -0.4809 H   0  0  0  0  0  0  0  0  0  0  0  0
   -2.3360   -3.0956    0.6278 C   0  0  0  0  0  0  0  0  0  0  0  0
   -1.4202   -3.5169    1.3163 O   0  0  0  0  0  0  0  0  0  0  0  0
   -2.1840   -1.9252   -0.0836 N   0  0  0  0  0  0  0  0  0  0  0  0
   -3.0146   -1.5449   -0.5365 H   0  0  0  0  0  0  0  0  0  0  0  0
   -1.0456   -1.0048    0.0653 C   0  0  1  0  0  0  0  0  0  0  0  0
   -0.5619   -1.1790    1.0321 H   0  0  0  0  0  0  0  0  0  0  0  0
    0.0059   -1.3277   -1.0188 C   0  0  0  0  0  0  0  0  0  0  0  0
    0.4631   -2.2920   -0.7731 H   0  0  0  0  0  0  0  0  0  0  0  0
   -0.5257   -1.4562   -1.9673 H   0  0  0  0  0  0  0  0  0  0  0  0
    1.0925   -0.2981   -1.2730 C   0  0  0  0  0  0  0  0  0  0  0  0
    2.4035   -0.7021   -1.3892 C   0  0  0  0  0  0  0  0  0  0  0  0
    2.7643   -1.7137   -1.2135 H   0  0  0  0  0  0  0  0  0  0  0  0
    3.1802    0.3986   -1.7237 N   0  0  0  0  0  0  0  0  0  0  0  0
    4.1888    0.3901   -1.8619 H   0  0  0  0  0  0  0  0  0  0  0  0
    2.3694    1.4893   -1.9618 C   0  0  0  0  0  0  0  0  0  0  0  0
    2.7073    2.7695   -2.3990 C   0  0  0  0  0  0  0  0  0  0  0  0
    3.7467    3.0432   -2.5414 H   0  0  0  0  0  0  0  0  0  0  0  0
    1.6865    3.6856   -2.6733 C   0  0  0  0  0  0  0  0  0  0  0  0
    1.9294    4.6867   -3.0175 H   0  0  0  0  0  0  0  0  0  0  0  0
    0.3489    3.2948   -2.5371 C   0  0  0  0  0  0  0  0  0  0  0  0
   -0.4478    3.9893   -2.7859 H   0  0  0  0  0  0  0  0  0  0  0  0
    0.0297    2.0023   -2.0983 C   0  0  0  0  0  0  0  0  0  0  0  0
   -1.0128    1.7163   -2.0583 H   0  0  0  0  0  0  0  0  0  0  0  0
    1.0467    1.0976   -1.7538 C   0  0  0  0  0  0  0  0  0  0  0  0
   -1.5752    0.4390    0.1337 C   0  0  0  0  0  0  0  0  0  0  0  0
   -2.6047    0.7337   -0.4697 O   0  0  0  0  0  0  0  0  0  0  0  0
   -1.0811    1.3187    1.0796 N   0  0  0  0  0  0  0  0  0  0  0  0
   -0.1931    1.0745    1.5096 H   0  0  0  0  0  0  0  0  0  0  0  0
   -1.5774    2.6796    1.2392 C   0  0  0  0  0  0  0  0  0  0  0  0
   -2.6509    2.6749    1.4554 H   0  0  0  0  0  0  0  0  0  0  0  0
   -1.0626    3.1727    2.0693 H   0  0  0  0  0  0  0  0  0  0  0  0
   -1.4026    3.2609    0.3281 H   0  0  0  0  0  0  0  0  0  0  0  0
  1  2  1  0  0  0  0
  2  3  1  0  0  0  0
  2  4  1  0  0  0  0
  2  5  1  0  0  0  0
  5  6  2  0  0  0  0
  5  7  1  0  0  0  0
  7  8  1  0  0  0  0
  7  9  1  0  0  0  0
  9 10  1  0  0  0  0
  9 11  1  0  0  0  0
  9 29  1  0  0  0  0
 11 12  1  0  0  0  0
 11 13  1  0  0  0  0
 11 14  1  0  0  0  0
 14 15  2  0  0  0  0
 14 28  1  0  0  0  0
 15 16  1  0  0  0  0
 15 17  1  0  0  0  0
 17 18  1  0  0  0  0
 17 19  1  0  0  0  0
 19 20  1  0  0  0  0
 19 28  2  0  0  0  0
 20 21  1  0  0  0  0
 20 22  2  0  0  0  0
 22 23  1  0  0  0  0
 22 24  1  0  0  0  0
 24 25  1  0  0  0  0
 24 26  2  0  0  0  0
 26 27  1  0  0  0  0
 26 28  1  0  0  0  0
 29 30  2  0  0  0  0
 29 31  1  0  0  0  0
 31 32  1  0  0  0  0
 31 33  1  0  0  0  0
 33 34  1  0  0  0  0
 33 35  1  0  0  0  0
 33 36  1  0  0  0  0
M  END
$$$$

  -OEChem-03222214083D

 36 37  0     1  0  0  0  0  0999 V2000
   -3.4752   -4.8774    1.0569 H   0  0  0  0  0  0  0  0  0  0  0  0
   -3.5508   -3.9591    0.4680 C   0  0  0  0  0  0  0  0  0  0  0  0
   -4.4002   -3.3761    0.8322 H   0  0  0  0  0  0  0  0  0  0  0  0
   -3.7214   -4.2238   -0.5782 H   0  0  0  0  0  0  0  0  0  0  0  0
   -2.2738   -3.1503    0.5954 C   0  0  0  0  0  0  0  0  0  0  0  0
   -1.3506   -3.5660    1.2773 O   0  0  0  0  0  0  0  0  0  0  0  0
   -2.1595   -1.9450   -0.0626 N   0  0  0  0  0  0  0  0  0  0  0  0
   -2.9969   -1.5804   -0.5158 H   0  0  0  0  0  0  0  0  0  0  0  0
   -1.0560   -0.9902    0.1312 C   0  0  1  0  0  0  0  0  0  0  0  0
   -0.5648   -1.1846    1.0900 H   0  0  0  0  0  0  0  0  0  0  0  0
   -0.0029   -1.2562   -0.9688 C   0  0  0  0  0  0  0  0  0  0  0  0
    0.4585   -2.2253   -0.7511 H   0  0  0  0  0  0  0  0  0  0  0  0
   -0.5532   -1.3694   -1.9087 H   0  0  0  0  0  0  0  0  0  0  0  0
    1.0949   -0.2426   -1.2655 C   0  0  0  0  0  0  0  0  0  0  0  0
    2.2973   -0.7394   -1.7199 C   0  0  0  0  0  0  0  0  0  0  0  0
    2.5520   -1.7953   -1.7859 H   0  0  0  0  0  0  0  0  0  0  0  0
    3.1388    0.3187   -2.0228 N   0  0  0  0  0  0  0  0  0  0  0  0
    4.0957    0.2369   -2.3602 H   0  0  0  0  0  0  0  0  0  0  0  0
    2.4493    1.5057   -1.9105 C   0  0  0  0  0  0  0  0  0  0  0  0
    2.8893    2.7960   -2.2026 C   0  0  0  0  0  0  0  0  0  0  0  0
    3.9168    2.9714   -2.5015 H   0  0  0  0  0  0  0  0  0  0  0  0
    1.9810    3.8547   -2.1288 C   0  0  0  0  0  0  0  0  0  0  0  0
    2.3021    4.8672   -2.3545 H   0  0  0  0  0  0  0  0  0  0  0  0
    0.6456    3.5955   -1.8039 C   0  0  0  0  0  0  0  0  0  0  0  0
   -0.0760    4.4068   -1.7913 H   0  0  0  0  0  0  0  0  0  0  0  0
    0.2253    2.2889   -1.5176 C   0  0  0  0  0  0  0  0  0  0  0  0
   -0.8290    2.1371   -1.3440 H   0  0  0  0  0  0  0  0  0  0  0  0
    1.1413    1.2217   -1.5075 C   0  0  0  0  0  0  0  0  0  0  0  0
   -1.6513    0.4200    0.2570 C   0  0  0  0  0  0  0  0  0  0  0  0
   -2.6664    0.7121   -0.3705 O   0  0  0  0  0  0  0  0  0  0  0  0
   -1.2020    1.2782    1.2449 N   0  0  0  0  0  0  0  0  0  0  0  0
   -0.3446    1.0228    1.7277 H   0  0  0  0  0  0  0  0  0  0  0  0
   -1.8152    2.5683    1.5352 C   0  0  0  0  0  0  0  0  0  0  0  0
   -1.7895    3.2157    0.6529 H   0  0  0  0  0  0  0  0  0  0  0  0
   -1.2748    3.0675    2.3451 H   0  0  0  0  0  0  0  0  0  0  0  0
   -2.8570    2.4360    1.8454 H   0  0  0  0  0  0  0  0  0  0  0  0
  1  2  1  0  0  0  0
  2  3  1  0  0  0  0
  2  4  1  0  0  0  0
  2  5  1  0  0  0  0
  5  6  2  0  0  0  0
  5  7  1  0  0  0  0
  7  8  1  0  0  0  0
  7  9  1  0  0  0  0
  9 10  1  0  0  0  0
  9 11  1  0  0  0  0
  9 29  1  0  0  0  0
 11 12  1  0  0  0  0
 11 13  1  0  0  0  0
 11 14  1  0  0  0  0
 14 15  2  0  0  0  0
 14 28  1  0  0  0  0
 15 16  1  0  0  0  0
 15 17  1  0  0  0  0
 17 18  1  0  0  0  0
 17 19  1  0  0  0  0
 19 20  1  0  0  0  0
 19 28  2  0  0  0  0
 20 21  1  0  0  0  0
 20 22  2  0  0  0  0
 22 23  1  0  0  0  0
 22 24  1  0  0  0  0
 24 25  1  0  0  0  0
 24 26  2  0  0  0  0
 26 27  1  0  0  0  0
 26 28  1  0  0  0  0
 29 30  2  0  0  0  0
 29 31  1  0  0  0  0
 31 32  1  0  0  0  0
 31 33  1  0  0  0  0
 33 34  1  0  0  0  0
 33 35  1  0  0  0  0
 33 36  1  0  0  0  0
M  END
$$$$

  -OEChem-03222214083D

 36 37  0     1  0  0  0  0  0999 V2000
   -3.4069   -4.9159    1.0260 H   0  0  0  0  0  0  0  0  0  0  0  0
   -3.4799   -4.0048    0.4258 C   0  0  0  0  0  0  0  0  0  0  0  0
   -4.3851   -3.4647    0.7132 H   0  0  0  0  0  0  0  0  0  0  0  0
   -3.5490   -4.2822   -0.6288 H   0  0  0  0  0  0  0  0  0  0  0  0
   -2.2611   -3.1307    0.6523 C   0  0  0  0  0  0  0  0  0  0  0  0
   -1.3757   -3.4974    1.4081 O   0  0  0  0  0  0  0  0  0  0  0  0
   -2.1528   -1.9241   -0.0046 N   0  0  0  0  0  0  0  0  0  0  0  0
   -2.9633   -1.6061   -0.5351 H   0  0  0  0  0  0  0  0  0  0  0  0
   -1.0956   -0.9276    0.2393 C   0  0  1  0  0  0  0  0  0  0  0  0
   -0.6374   -1.0973    1.2190 H   0  0  0  0  0  0  0  0  0  0  0  0
   -0.0051   -1.2117   -0.8236 C   0  0  0  0  0  0  0  0  0  0  0  0
    0.4504   -2.1700   -0.5514 H   0  0  0  0  0  0  0  0  0  0  0  0
   -0.5373   -1.3690   -1.7680 H   0  0  0  0  0  0  0  0  0  0  0  0
    1.1230   -0.2488   -1.1803 C   0  0  0  0  0  0  0  0  0  0  0  0
    2.1654   -0.8085   -1.8884 C   0  0  0  0  0  0  0  0  0  0  0  0
    2.2647   -1.8676   -2.1171 H   0  0  0  0  0  0  0  0  0  0  0  0
    3.0884    0.1756   -2.1973 N   0  0  0  0  0  0  0  0  0  0  0  0
    3.9652    0.0324   -2.6939 H   0  0  0  0  0  0  0  0  0  0  0  0
    2.5928    1.4041   -1.8251 C   0  0  0  0  0  0  0  0  0  0  0  0
    3.1666    2.6585   -2.0278 C   0  0  0  0  0  0  0  0  0  0  0  0
    4.1553    2.7462   -2.4643 H   0  0  0  0  0  0  0  0  0  0  0  0
    2.4375    3.7991   -1.6859 C   0  0  0  0  0  0  0  0  0  0  0  0
    2.8619    4.7868   -1.8388 H   0  0  0  0  0  0  0  0  0  0  0  0
    1.1382    3.6600   -1.1892 C   0  0  0  0  0  0  0  0  0  0  0  0
    0.5448    4.5430   -0.9724 H   0  0  0  0  0  0  0  0  0  0  0  0
    0.5847    2.3861   -0.9955 C   0  0  0  0  0  0  0  0  0  0  0  0
   -0.4467    2.3448   -0.6929 H   0  0  0  0  0  0  0  0  0  0  0  0
    1.3299    1.2220   -1.2511 C   0  0  0  0  0  0  0  0  0  0  0  0
   -1.7474    0.4601    0.3247 C   0  0  0  0  0  0  0  0  0  0  0  0
   -2.7020    0.7417   -0.3932 O   0  0  0  0  0  0  0  0  0  0  0  0
   -1.3772    1.3312    1.3360 N   0  0  0  0  0  0  0  0  0  0  0  0
   -0.6059    1.0493    1.9356 H   0  0  0  0  0  0  0  0  0  0  0  0
   -2.0836    2.5719    1.6341 C   0  0  0  0  0  0  0  0  0  0  0  0
   -3.0759    2.3568    2.0437 H   0  0  0  0  0  0  0  0  0  0  0  0
   -1.5225    3.1571    2.3691 H   0  0  0  0  0  0  0  0  0  0  0  0
   -2.2005    3.1802    0.7310 H   0  0  0  0  0  0  0  0  0  0  0  0
  1  2  1  0  0  0  0
  2  3  1  0  0  0  0
  2  4  1  0  0  0  0
  2  5  1  0  0  0  0
  5  6  2  0  0  0  0
  5  7  1  0  0  0  0
  7  8  1  0  0  0  0
  7  9  1  0  0  0  0
  9 10  1  0  0  0  0
  9 11  1  0  0  0  0
  9 29  1  0  0  0  0
 11 12  1  0  0  0  0
 11 13  1  0  0  0  0
 11 14  1  0  0  0  0
 14 15  2  0  0  0  0
 14 28  1  0  0  0  0
 15 16  1  0  0  0  0
 15 17  1  0  0  0  0
 17 18  1  0  0  0  0
 17 19  1  0  0  0  0
 19 20  1  0  0  0  0
 19 28  2  0  0  0  0
 20 21  1  0  0  0  0
 20 22  2  0  0  0  0
 22 23  1  0  0  0  0
 22 24  1  0  0  0  0
 24 25  1  0  0  0  0
 24 26  2  0  0  0  0
 26 27  1  0  0  0  0
 26 28  1  0  0  0  0
 29 30  2  0  0  0  0
 29 31  1  0  0  0  0
 31 32  1  0  0  0  0
 31 33  1  0  0  0  0
 33 34  1  0  0  0  0
 33 35  1  0  0  0  0
 33 36  1  0  0  0  0
M  END
$$$$
