@<TRIPOS>MOLECULE
default_name
   24    24     1     0     0
SMALL
No Charge or Current Charge


@<TRIPOS>ATOM
      1 H1          25.9570    25.0770    24.4200 H          1 ACE       0.112300
      2 CH3         25.9880    26.1290    24.1430 C.3        1 ACE      -0.366200
      3 H2          25.3960    26.7150    24.8430 H          1 ACE       0.112300
      4 H3          25.6060    26.2610    23.1330 H          1 ACE       0.112300
      5 C           27.4210    26.6080    24.1940 C.2        1 ACE       0.597200
      6 O           28.3090    25.8230    24.5100 O.2        1 ACE      -0.567900
      7 N           27.6160    27.8860    23.8750 N.am       2 CHI      -0.567900
      8 H           26.8180    28.4610    23.6400 H          2 CHI      -0.567900
      9 CA          28.8760    28.6370    23.9060 C.3        2 CHI      -0.567900
     10 HA          29.4550    28.3430    24.7800 H          2 CHI      -0.567900
     11 CB          29.6730    28.3320    22.6230 C.3        2 CHI      -0.567900
     12 HB2         29.7330    27.2500    22.5070 H          2 CHI      -0.567900
     13 HB3         29.1180    28.7310    21.7730 H          2 CHI      -0.567900
     14 CG          31.0880    28.8640    22.5540 C.2        2 CHI      -0.567900
     15 ND1         31.9200    28.7200    21.4690 N.pl3      2 CHI      -0.567900
     16 HD1         31.6590    28.3020    20.5940 H          2 CHI      -0.567900
     17 CE1         33.1140    29.2540    21.7740 C.2        2 CHI      -0.567900
     18 HE1         33.9670    29.2930    21.1120 H          2 CHI      -0.567900
     19 NE2         33.1070    29.7350    23.0240 N.2        2 CHI      -0.567900
     20 CD2         31.8170    29.4990    23.5280 C.2        2 CHI      -0.567900
     21 HD2         31.4630    29.7610    24.5150 H          2 CHI      -0.567900
     22 C           28.5380    30.1300    24.0460 C.2        2 CHI      -0.567900
     23 O           27.5440    30.5400    23.4010 O.co2      2 CHI      -0.567900
     24 OXT         29.2310    30.8050    24.8330 O.co2      2 CHI      -0.567900
@<TRIPOS>BOND
     1     5     6 2   
     2     5     7 am  
     3     2     3 1   
     4     2     4 1   
     5     2     5 1   
     6     1     2 1   
     7    22    23 1   
     8    22    24 1   
     9    20    21 1   
    10    19    20 1   
    11    17    18 1   
    12    17    19 2   
    13    15    16 1   
    14    15    17 1   
    15    14    15 1   
    16    14    20 2   
    17    11    12 1   
    18    11    13 1   
    19    11    14 1   
    20     9    10 1   
    21     9    11 1   
    22     9    22 1   
    23     7     8 1   
    24     7     9 1   
@<TRIPOS>SUBSTRUCTURE
     1 ACE         1 TEMP              0 ****  ****    0 ROOT
