@<TRIPOS>MOLECULE
default_name
   22    22     1     0     0
SMALL
No Charge or Current Charge


@<TRIPOS>ATOM
      1 N           27.2990    25.4240    23.8420 N.4        1 NPR       0.000000
      2 H2          26.9420    25.2240    22.9080 H          1 NPR       0.000000
      3 H3          26.5220    25.4320    24.4910 H          1 NPR       0.000000
      4 CD          28.3360    24.4410    24.2330 C.3        1 NPR       0.000000
      5 HD2         28.6560    23.8840    23.3480 H          1 NPR       0.000000
      6 HD3         27.9660    23.7350    24.9810 H          1 NPR       0.000000
      7 CG          29.5340    25.2240    24.7710 C.3        1 NPR       0.000000
      8 HG2         30.4710    24.6770    24.6350 H          1 NPR       0.000000
      9 HG3         29.3880    25.4640    25.8280 H          1 NPR       0.000000
     10 CB          29.4810    26.4930    23.9190 C.3        1 NPR       0.000000
     11 HB2         29.9110    26.2960    22.9320 H          1 NPR       0.000000
     12 HB3         30.0030    27.3260    24.3960 H          1 NPR       0.000000
     13 CA          27.9720    26.7480    23.8030 C.3        1 NPR       0.000000
     14 HA          27.6520    27.3320    24.6680 H          1 NPR       0.000000
     15 C           27.5870    27.5160    22.5330 C.2        1 NPR       0.000000
     16 O           26.9890    26.9040    21.6530 O.2        1 NPR       0.000000
     17 N           27.9140    28.8110    22.4420 N.am       2 NME      -0.415700
     18 H           28.4040    29.2580    23.2040 H          2 NME       0.271900
     19 CH3         27.6040    29.6400    21.2760 C.3        2 NME      -0.149000
     20 HH31        26.5640    29.4960    20.9760 H          2 NME       0.097600
     21 HH32        27.7600    30.6950    21.5090 H          2 NME       0.097600
     22 HH33        28.2480    29.3640    20.4380 H          2 NME       0.097600
@<TRIPOS>BOND
     1    15    16 2   
     2    15    17 am  
     3    13    14 1   
     4    13    15 1   
     5    10    11 1   
     6    10    12 1   
     7    10    13 1   
     8     7     8 1   
     9     7     9 1   
    10     7    10 1   
    11     4     5 1   
    12     4     6 1   
    13     4     7 1   
    14     1     2 1   
    15     1     3 1   
    16     1     4 1   
    17     1    13 1   
    18    19    20 1   
    19    19    21 1   
    20    19    22 1   
    21    17    18 1   
    22    17    19 1   
@<TRIPOS>SUBSTRUCTURE
     1 NPR         1 TEMP              0 ****  ****    0 ROOT
