@<TRIPOS>MOLECULE
default_name
   31    30     1     0     0
SMALL
No Charge or Current Charge


@<TRIPOS>ATOM
      1 H1          26.0500    25.1730    24.7060 H          1 ACE       0.112300
      2 CH3         26.0320    26.1830    24.2990 C.3        1 ACE      -0.366200
      3 H2          25.4100    26.8190    24.9270 H          1 ACE       0.112300
      4 H3          25.6380    26.1620    23.2850 H          1 ACE       0.112300
      5 C           27.4400    26.7270    24.2760 C.2        1 ACE       0.597200
      6 O           28.3720    26.0420    24.6790 O.2        1 ACE      -0.567900
      7 N           27.5940    27.9630    23.8060 N.am       2 ILE      -0.415700
      8 H           26.7760    28.4760    23.5130 H          2 ILE       0.271900
      9 CA          28.8790    28.6710    23.7140 C.3        2 ILE      -0.059700
     10 HA          29.4860    28.3630    24.5660 H          2 ILE       0.086900
     11 CB          29.6290    28.2580    22.4220 C.3        2 ILE       0.130300
     12 HB          29.6900    27.1680    22.4200 H          2 ILE       0.018700
     13 CG2         28.8820    28.6880    21.1450 C.3        2 ILE      -0.320400
     14 HG21        28.8600    29.7760    21.0610 H          2 ILE       0.088200
     15 HG22        29.3690    28.2730    20.2640 H          2 ILE       0.088200
     16 HG23        27.8570    28.3160    21.1650 H          2 ILE       0.088200
     17 CG1         31.0760    28.8000    22.4240 C.3        2 ILE      -0.043000
     18 HG12        31.0710    29.8750    22.2390 H          2 ILE       0.023600
     19 HG13        31.5150    28.6240    23.4060 H          2 ILE       0.023600
     20 CD1         31.9880    28.1290    21.3880 C.3        2 ILE      -0.066000
     21 HD11        31.6550    28.3630    20.3770 H          2 ILE       0.018600
     22 HD12        33.0060    28.4990    21.5120 H          2 ILE       0.018600
     23 HD13        31.9840    27.0480    21.5320 H          2 ILE       0.018600
     24 C           28.6590    30.1880    23.8280 C.2        2 ILE       0.597300
     25 O           27.6140    30.6960    23.4240 O.2        2 ILE      -0.567900
     26 N           29.6370    30.9120    24.3870 N.am       3 NME      -0.415700
     27 H           30.4600    30.4250    24.7050 H          3 NME       0.271900
     28 CH3         29.5840    32.3620    24.5630 C.3        3 NME      -0.149000
     29 HH31        28.6620    32.6370    25.0800 H          3 NME       0.097600
     30 HH32        30.4390    32.7040    25.1480 H          3 NME       0.097600
     31 HH33        29.5930    32.8510    23.5870 H          3 NME       0.097600
@<TRIPOS>BOND
     1     5     6 2   
     2     5     7 am  
     3     2     3 1   
     4     2     4 1   
     5     2     5 1   
     6     1     2 1   
     7    24    25 2   
     8    24    26 am  
     9    20    21 1   
    10    20    22 1   
    11    20    23 1   
    12    17    18 1   
    13    17    19 1   
    14    17    20 1   
    15    13    14 1   
    16    13    15 1   
    17    13    16 1   
    18    11    12 1   
    19    11    13 1   
    20    11    17 1   
    21     9    10 1   
    22     9    11 1   
    23     9    24 1   
    24     7     8 1   
    25     7     9 1   
    26    28    29 1   
    27    28    30 1   
    28    28    31 1   
    29    26    27 1   
    30    26    28 1   
@<TRIPOS>SUBSTRUCTURE
     1 ACE         1 TEMP              0 ****  ****    0 ROOT
